AV-unprocessed.smi:739|AV-procd|sdf|3545|dock5
  -GOLD-   22720 0533D 1   1.00000     0.00000
 Structure written by MMmdl.
 33 35  0  0  0  0  0  0  0  0  2 V2000
  152.0154  139.1078  154.4647 O   0  0  0  0  0  0  0  0  0  0  0  0
  151.4695  138.6089  155.6708 C   0  0  1  0  0  0  0  0  0  0  0  0
  151.9475  139.4743  156.8533 C   0  0  0  0  0  0  0  0  0  0  0  0
  151.3949  140.8347  156.8247 N   0  0  0  0  0  0  0  0  0  0  0  0
  150.6158  141.4428  155.8895 C   0  0  0  0  0  0  0  0  0  0  0  0
  150.3690  142.7105  156.3228 N   0  3  0  0  0  0  0  0  0  0  0  0
  151.0003  142.9145  157.5523 C   0  0  0  0  0  0  0  0  0  0  0  0
  151.0431  144.0296  158.3830 C   0  0  0  0  0  0  0  0  0  0  0  0
  151.7838  143.9043  159.5770 C   0  0  0  0  0  0  0  0  0  0  0  0
  151.8571  144.9590  160.4228 F   0  0  0  0  0  0  0  0  0  0  0  0
  152.4482  142.7034  159.9064 C   0  0  0  0  0  0  0  0  0  0  0  0
  153.1485  142.6255  161.0628 F   0  0  0  0  0  0  0  0  0  0  0  0
  152.3982  141.5795  159.0556 C   0  0  0  0  0  0  0  0  0  0  0  0
  151.6622  141.7127  157.8795 C   0  0  0  0  0  0  0  0  0  0  0  0
  149.9520  138.5262  155.6268 C   0  0  0  0  0  0  0  0  0  0  0  0
  149.2604  138.8979  154.4537 C   0  0  0  0  0  0  0  0  0  0  0  0
  147.8553  138.8158  154.4014 C   0  0  0  0  0  0  0  0  0  0  0  0
  147.1335  138.3586  155.5207 C   0  0  0  0  0  0  0  0  0  0  0  0
  145.7829  138.2797  155.4694 F   0  0  0  0  0  0  0  0  0  0  0  0
  147.8179  137.9822  156.6924 C   0  0  0  0  0  0  0  0  0  0  0  0
  149.2229  138.0650  156.7456 C   0  0  0  0  0  0  0  0  0  0  0  0
  151.8859  138.4608  153.7878 H   0  0  0  0  0  0  0  0  0  0  0  0
  151.8610  137.5981  155.7915 H   0  0  0  0  0  0  0  0  0  0  0  0
  151.6529  139.0216  157.8013 H   0  0  0  0  0  0  0  0  0  0  0  0
  153.0360  139.5454  156.8705 H   0  0  0  0  0  0  0  0  0  0  0  0
  150.2613  141.0008  154.9691 H   0  0  0  0  0  0  0  0  0  0  0  0
  150.5366  144.9506  158.1342 H   0  0  0  0  0  0  0  0  0  0  0  0
  152.9107  140.6656  159.3163 H   0  0  0  0  0  0  0  0  0  0  0  0
  149.8045  139.2471  153.5882 H   0  0  0  0  0  0  0  0  0  0  0  0
  147.3311  139.1026  153.5017 H   0  0  0  0  0  0  0  0  0  0  0  0
  147.2652  137.6288  157.5503 H   0  0  0  0  0  0  0  0  0  0  0  0
  149.7385  137.7706  157.6481 H   0  0  0  0  0  0  0  0  0  0  0  0
  149.8109  143.3840  155.8134 H   0  0  0  0  0  0  0  0  0  0  0  0
  1  2  1  0  0  0  0
  1 22  1  0  0  0  0
  2  3  1  0  0  0  0
  2 15  1  0  0  0  0
  2 23  1  0  0  0  0
  3  4  1  0  0  0  0
  3 24  1  0  0  0  0
  3 25  1  0  0  0  0
  4 14  1  0  0  0  0
  4  5  1  0  0  0  0
  5  6  2  0  0  0  0
  5 26  1  0  0  0  0
  6  7  1  0  0  0  0
  6 33  1  0  0  0  0
  7 14  2  0  0  0  0
  7  8  1  0  0  0  0
  8  9  2  0  0  0  0
  8 27  1  0  0  0  0
  9 10  1  0  0  0  0
  9 11  1  0  0  0  0
 11 12  1  0  0  0  0
 11 13  2  0  0  0  0
 13 14  1  0  0  0  0
 13 28  1  0  0  0  0
 15 21  1  0  0  0  0
 15 16  2  0  0  0  0
 16 17  1  0  0  0  0
 16 29  1  0  0  0  0
 17 18  2  0  0  0  0
 17 30  1  0  0  0  0
 18 19  1  0  0  0  0
 18 20  1  0  0  0  0
 20 21  2  0  0  0  0
 20 31  1  0  0  0  0
 21 32  1  0  0  0  0
M  CHG  1   6   1
M  END
> <s_m_source_file>
AV-unprocessed.smi

> <i_m_source_file_index>
739

> <i_lp_mmshare_version>
43012

> <i_f3d_flags>
0

> <s_epik_input>
W2NIXTFbY0hdYyhGKVtjSF1bY0hdYzFbQ0BIXShbT0hdKVtDSDJdbihbY0hdbjIpYyhjMjMpW2NIXWMoRiljKEYpW2NIXTM=

> <s_epik_cmdline>
J2VwaWtfcHl0aG9uJywgJy1waCcsICc3LjAnLCAnLXRuJywgJzgnLCAnLW1hJywgJzIwMCcsICctbWV0YWxfYmluZGluZycsICctaW1hZScsICc8aW5maWxlLm1hZT4nLCAnLW9tYWUnLCAnPG91dGZpbGUubWFlPic=

> <r_epik_Ionization_Penalty>
2.16139

> <r_epik_Ionization_Penalty_Charging>
2.16138

> <r_epik_Ionization_Penalty_Neutral>
1.79538e-06

> <r_epik_State_Penalty>
2.30198

> <r_epik_Charging_Adjusted_Penalty>
4.46337

> <i_epik_Tot_Q>
1

> <i_epik_Tot_abs_Q>
1

> <r_epik_Metal_State_Penalty>
6.38245

> <b_epik_Metal_Only>
0

> <s_lp_Force_Field>
OPLS_2005

> <r_lp_Energy>
14.9103

> <b_lp_Chiralities_Consistent>
1

> <s_lp_Variant>
AV-unprocessed.smi:739-4

> <Gold.Version>
5.8.1

> <Gold.Id.Protein>
6NUR|6NUR_protein|mol2

> <Gold.PLP.Fitness>
47.0801

> <Gold.PLP.PLP>
-38.5365

> <Gold.PLP.part.hbond>
-2.0000

> <Gold.PLP.part.metal>
0.0000

> <Gold.PLP.part.buried>
-5.4739

> <Gold.PLP.part.nonpolar>
-32.4828

> <Gold.PLP.part.repulsive>
0.0969

> <Gold.PLP.ligand.clash>
0.0000

> <Gold.PLP.ligand.torsion>
0.0586

> <Gold.PLP.Chemscore.Hbond>
2.8800

> <Gold.PLP.Chemscore.CHOScore>
0.0000

> <Gold.PLP.Chemscore.Metal>
0.0000

> <Gold.Chemscore.Hbonds>
donor molecule, donor type, donor heavy atom, donor atom, acceptor molecule, acceptor atom, score
      L1  H     6    33       P1  8028  2.00
      P1  H  7989  7998       L1     1  0.86

> <Gold.PLP.Chemscore.Internal.Correction>
0.0210

> <Gold.Rescore>
     Score         DG    S(hbond)    S(metal)    S(lipo)     H(rot)  DE(clash)    DE(int)     intcor
     13.50     -15.37       1.80        0.00      79.47       2.12       0.68       1.19       ----

> <Gold.Chemscore.Fitness>
13.4996

> <Gold.Chemscore.DG>
-15.3679

> <Gold.Chemscore.ZeroCoef>
-5.4800

> <Gold.Chemscore.Hbond>
1.7999

> <Gold.Chemscore.Metal>
0.0000

> <Gold.Chemscore.Lipo>
79.4656

> <Gold.Chemscore.Internal_Hbond>
0.0000

> <Gold.Chemscore.DEClash>
0.6795

> <Gold.Chemscore.DEInternal>
1.1888

> <Gold.Chemscore.Rot>
2.1176

> <Gold.Chemscore.Internal.Correction>
   9.000000E+99

> <Gold.Chemscore.Hbonds>
donor molecule, donor type, donor heavy atom, donor atom, acceptor molecule, acceptor atom, score
      L1  H     6    33       P1  8028  0.97
      P1  H  7989  7998       L1     1  0.28

> <Gold.Chemscore.Hbond.Weighted>
-6.0115

> <Gold.Chemscore.Metal.Weighted>
-0.0000

> <Gold.Chemscore.Lipo.Weighted>
-9.2975

> <Gold.Chemscore.Internal_Hbond.Weighted>
0.0000

> <Gold.Chemscore.DEClash.Weighted>
0.6795

> <Gold.Chemscore.DEInternal.Weighted>
1.1888

> <Gold.Chemscore.Rot.Weighted>
5.4211

> <Gold.Chemscore.Internal.Correction.Weighted>
   9.000000E+99

> <Gold.Protein.RotatedTorsions>
[ 6907 6896 6895 6894 ] final -150.95 input  -60.11 | X-H torsion
[ 7974 7965 7964 7962 ] final -178.21 input  175.53 | X-H torsion
[ 8008 7997 7996 7995 ] final  -25.76 input   59.86 | X-H torsion
[ 10167 10162 10161 10158 ] final -151.93 input  -65.29 | X-H torsion
[ 10718 10713 10712 10709 ] final  149.24 input   66.30 | X-H torsion
[ 10763 10752 10751 10750 ] final  133.45 input  -60.55 | X-H torsion
[ 11005 11000 10999 10996 ] final  145.73 input  -57.11 | X-H torsion

> <Gold.Protein.ActiveResidues>
 VAL166  LYS551  ARG553  GLY616  TRP617  ASP618  TYR619  PRO620  LYS621  CYS622 
 ASP623  PHE694  ASN695  SER759  ASP760  ASP761  ALA762  ILE779  LEU786  VAL792 
 PHE793  MET794  SER795  GLU796  ALA797  LYS798  CYS799  TRP800  GLU811  SER814 

> <Gold.Protein.RotatedAtoms>
  151.2060  133.4583  159.2596 H   0  0  0  0  0  0  0  0  0  0  0  0  # atno 6907 bound_to 6896
  151.1023  134.9979  159.8464 H   0  0  0  0  0  0  0  0  0  0  0  0  # atno 6908 bound_to 6896
  152.5444  134.1985  159.8755 H   0  0  0  0  0  0  0  0  0  0  0  0  # atno 6909 bound_to 6896
  144.7130  140.0903  143.6421 H   0  0  0  0  0  0  0  0  0  0  0  0  # atno 7974 bound_to 7965
  154.4459  140.1918  156.0669 H   0  0  0  0  0  0  0  0  0  0  0  0  # atno 8008 bound_to 7997
  156.0541  140.3305  155.7357 H   0  0  0  0  0  0  0  0  0  0  0  0  # atno 8009 bound_to 7997
  155.5513  140.0595  157.2840 H   0  0  0  0  0  0  0  0  0  0  0  0  # atno 8010 bound_to 7997
  139.7225  143.8935  152.2508 H   0  0  0  0  0  0  0  0  0  0  0  0  # atno 10167 bound_to 10162
  157.2986  131.0866  151.1407 H   0  0  0  0  0  0  0  0  0  0  0  0  # atno 10718 bound_to 10713
  153.8073  135.3134  155.3397 H   0  0  0  0  0  0  0  0  0  0  0  0  # atno 10763 bound_to 10752
  154.8065  135.4694  154.0410 H   0  0  0  0  0  0  0  0  0  0  0  0  # atno 10764 bound_to 10752
  153.1776  135.6888  153.8609 H   0  0  0  0  0  0  0  0  0  0  0  0  # atno 10765 bound_to 10752
  140.0735  134.9138  157.1385 H   0  0  0  0  0  0  0  0  0  0  0  0  # atno 11005 bound_to 11000
  145.9626  139.2811  143.1146 LP  0  0  0  0  0  0  0  0  0  0  0  0  # atno 17320 bound_to 7965
  145.9204  140.9119  143.0408 LP  0  0  0  0  0  0  0  0  0  0  0  0  # atno 17321 bound_to 7965
  139.8835  144.7005  150.8851 LP  0  0  0  0  0  0  0  0  0  0  0  0  # atno 17342 bound_to 10162
  140.7756  143.3642  151.1770 LP  0  0  0  0  0  0  0  0  0  0  0  0  # atno 17343 bound_to 10162
  157.2776  130.6734  149.6050 LP  0  0  0  0  0  0  0  0  0  0  0  0  # atno 17370 bound_to 10713
  155.9670  130.4460  150.5523 LP  0  0  0  0  0  0  0  0  0  0  0  0  # atno 17371 bound_to 10713
  140.3591  134.2513  155.7189 LP  0  0  0  0  0  0  0  0  0  0  0  0  # atno 17394 bound_to 11000
  141.2021  133.7946  157.0408 LP  0  0  0  0  0  0  0  0  0  0  0  0  # atno 17395 bound_to 11000

$$$$
