AV-unprocessed.smi:2085|AV-procd|sdf|8516|dock3
  -GOLD-   2272011233D 1   1.00000     0.00000
 Structure written by MMmdl.
 30 31  0  0  0  0  0  0  0  0  1 V2000
  151.6168  145.4238  160.0120 C   0  0  0  0  0  0  0  0  0  0  0  0
  151.4173  144.1012  159.5243 O   0  0  0  0  0  0  0  0  0  0  0  0
  152.1768  143.0785  160.0604 C   0  0  0  0  0  0  0  0  0  0  0  0
  152.7595  143.2743  161.2700 N   0  0  0  0  0  0  0  0  0  0  0  0
  153.5061  142.2802  161.7926 C   0  0  0  0  0  0  0  0  0  0  0  0
  153.7155  141.0510  161.1417 C   0  0  0  0  0  0  0  0  0  0  0  0
  153.1125  140.8450  159.8871 C   0  0  0  0  0  0  0  0  0  0  0  0
  152.3138  141.8739  159.3312 C   0  0  0  0  0  0  0  0  0  0  0  0
  151.6760  141.7819  158.0626 N   0  0  0  0  0  0  0  0  0  0  0  0
  151.8354  140.8576  157.0969 C   0  0  0  0  0  0  0  0  0  0  0  0
  152.5606  139.8680  157.1941 O   0  0  0  0  0  0  0  0  0  0  0  0
  150.9998  141.0580  155.8238 C   0  0  2  0  0  0  0  0  0  0  0  0
  149.4840  141.0633  156.0654 C   0  0  0  0  0  0  0  0  0  0  0  0
  148.9525  140.4719  154.7791 C   0  0  0  0  0  0  0  0  0  0  0  0
  150.0126  139.4252  154.4627 C   0  0  0  0  0  0  0  0  0  0  0  0
  151.2421  139.9950  154.8977 O   0  0  0  0  0  0  0  0  0  0  0  0
  150.9449  146.1050  159.4903 H   0  0  0  0  0  0  0  0  0  0  0  0
  152.6373  145.7657  159.8339 H   0  0  0  0  0  0  0  0  0  0  0  0
  151.3961  145.4937  161.0782 H   0  0  0  0  0  0  0  0  0  0  0  0
  153.9559  142.4729  162.7553 H   0  0  0  0  0  0  0  0  0  0  0  0
  154.3298  140.2851  161.5917 H   0  0  0  0  0  0  0  0  0  0  0  0
  153.2885  139.9126  159.3741 H   0  0  0  0  0  0  0  0  0  0  0  0
  150.9733  142.4848  157.8816 H   0  0  0  0  0  0  0  0  0  0  0  0
  151.3011  141.9903  155.3444 H   0  0  0  0  0  0  0  0  0  0  0  0
  149.2113  140.4224  156.9060 H   0  0  0  0  0  0  0  0  0  0  0  0
  149.0920  142.0622  156.2587 H   0  0  0  0  0  0  0  0  0  0  0  0
  147.9519  140.0506  154.8803 H   0  0  0  0  0  0  0  0  0  0  0  0
  148.9288  141.2324  153.9975 H   0  0  0  0  0  0  0  0  0  0  0  0
  149.8284  138.5134  155.0324 H   0  0  0  0  0  0  0  0  0  0  0  0
  150.0443  139.1649  153.4046 H   0  0  0  0  0  0  0  0  0  0  0  0
  1  2  1  0  0  0  0
  1 17  1  0  0  0  0
  1 18  1  0  0  0  0
  1 19  1  0  0  0  0
  2  3  1  0  0  0  0
  3  8  1  0  0  0  0
  3  4  2  0  0  0  0
  4  5  1  0  0  0  0
  5  6  2  0  0  0  0
  5 20  1  0  0  0  0
  6  7  1  0  0  0  0
  6 21  1  0  0  0  0
  7  8  2  0  0  0  0
  7 22  1  0  0  0  0
  8  9  1  0  0  0  0
  9 10  1  0  0  0  0
  9 23  1  0  0  0  0
 10 11  2  0  0  0  0
 10 12  1  0  0  0  0
 12 16  1  0  0  0  0
 12 13  1  0  0  0  0
 12 24  1  0  0  0  0
 13 14  1  0  0  0  0
 13 25  1  0  0  0  0
 13 26  1  0  0  0  0
 14 15  1  0  0  0  0
 14 27  1  0  0  0  0
 14 28  1  0  0  0  0
 15 16  1  0  0  0  0
 15 29  1  0  0  0  0
 15 30  1  0  0  0  0
M  END
> <s_m_source_file>
AV-unprocessed.smi

> <i_m_source_file_index>
2085

> <i_lp_mmshare_version>
43012

> <i_f3d_flags>
0

> <s_epik_input>
W0NIM11PYzFuW2NIXVtjSF1bY0hdYzFbTkhdQyg9TylbQ0BASF0yW0NIMl1bQ0gyXVtDSDJdTzI=

> <s_epik_cmdline>
J2VwaWtfcHl0aG9uJywgJy1waCcsICc3LjAnLCAnLXRuJywgJzgnLCAnLW1hJywgJzIwMCcsICctbWV0YWxfYmluZGluZycsICctaW1hZScsICc8aW5maWxlLm1hZT4nLCAnLW9tYWUnLCAnPG91dGZpbGUubWFlPic=

> <r_lp_tautomer_probability>
1

> <r_epik_Ionization_Penalty>
2.59253e-05

> <r_epik_Ionization_Penalty_Charging>
0

> <r_epik_Ionization_Penalty_Neutral>
2.59253e-05

> <r_epik_State_Penalty>
-0

> <r_epik_Charging_Adjusted_Penalty>
0

> <i_epik_Tot_Q>
0

> <i_epik_Tot_abs_Q>
0

> <r_epik_Metal_State_Penalty>
-0

> <b_epik_Metal_Only>
0

> <s_lp_Force_Field>
OPLS_2005

> <r_lp_Energy>
24.0215

> <b_lp_Chiralities_Consistent>
1

> <s_lp_Variant>
AV-unprocessed.smi:2085-1

> <Gold.Version>
5.8.1

> <Gold.Id.Protein>
6NUR|6NUR_protein|mol2

> <Gold.PLP.Fitness>
40.7801

> <Gold.PLP.PLP>
-35.4017

> <Gold.PLP.part.hbond>
-2.0000

> <Gold.PLP.part.metal>
0.0000

> <Gold.PLP.part.buried>
-5.7305

> <Gold.PLP.part.nonpolar>
-27.3998

> <Gold.PLP.part.repulsive>
0.2613

> <Gold.PLP.ligand.clash>
0.0000

> <Gold.PLP.ligand.torsion>
0.3144

> <Gold.PLP.Chemscore.Hbond>
2.0000

> <Gold.PLP.Chemscore.CHOScore>
0.0000

> <Gold.PLP.Chemscore.Metal>
0.0000

> <Gold.Chemscore.Hbonds>
donor molecule, donor type, donor heavy atom, donor atom, acceptor molecule, acceptor atom, score
      P1  H  7989  7998       L1    16  0.95
      P1  H  7997  8009       L1    11  1.00

> <Gold.PLP.Chemscore.Internal.Correction>
0.0072

> <Gold.Rescore>
     Score         DG    S(hbond)    S(metal)    S(lipo)     H(rot)  DE(clash)    DE(int)     intcor
     15.41     -16.82       1.74        0.00      74.36       1.24       0.01       1.40       ----

> <Gold.Chemscore.Fitness>
15.4061

> <Gold.Chemscore.DG>
-16.8225

> <Gold.Chemscore.ZeroCoef>
-5.4800

> <Gold.Chemscore.Hbond>
1.7400

> <Gold.Chemscore.Metal>
0.0000

> <Gold.Chemscore.Lipo>
74.3612

> <Gold.Chemscore.Internal_Hbond>
0.0000

> <Gold.Chemscore.DEClash>
0.0148

> <Gold.Chemscore.DEInternal>
1.4016

> <Gold.Chemscore.Rot>
1.2381

> <Gold.Chemscore.Internal.Correction>
   9.000000E+99

> <Gold.Chemscore.Hbonds>
donor molecule, donor type, donor heavy atom, donor atom, acceptor molecule, acceptor atom, score
      P1  H  7989  7998       L1    16  0.06
      P1  H  7997  8009       L1    11  0.94

> <Gold.Chemscore.Hbond.Weighted>
-5.8116

> <Gold.Chemscore.Metal.Weighted>
-0.0000

> <Gold.Chemscore.Lipo.Weighted>
-8.7003

> <Gold.Chemscore.Internal_Hbond.Weighted>
0.0000

> <Gold.Chemscore.DEClash.Weighted>
0.0148

> <Gold.Chemscore.DEInternal.Weighted>
1.4016

> <Gold.Chemscore.Rot.Weighted>
3.1694

> <Gold.Chemscore.Internal.Correction.Weighted>
   9.000000E+99

> <Gold.Protein.RotatedTorsions>
[ 6907 6896 6895 6894 ] final -165.49 input  -60.11 | X-H torsion
[ 7974 7965 7964 7962 ] final   13.76 input  175.53 | X-H torsion
[ 8008 7997 7996 7995 ] final  175.58 input   59.86 | X-H torsion
[ 10167 10162 10161 10158 ] final -103.23 input  -65.29 | X-H torsion
[ 10718 10713 10712 10709 ] final  -24.99 input   66.30 | X-H torsion
[ 10763 10752 10751 10750 ] final  -24.05 input  -60.55 | X-H torsion
[ 11005 11000 10999 10996 ] final  119.44 input  -57.11 | X-H torsion

> <Gold.Protein.ActiveResidues>
 VAL166  LYS551  ARG553  GLY616  TRP617  ASP618  TYR619  PRO620  LYS621  CYS622 
 ASP623  PHE694  ASN695  SER759  ASP760  ASP761  ALA762  ILE779  LEU786  VAL792 
 PHE793  MET794  SER795  GLU796  ALA797  LYS798  CYS799  TRP800  GLU811  SER814 

> <Gold.Protein.RotatedAtoms>
  151.4285  133.3677  159.2765 H   0  0  0  0  0  0  0  0  0  0  0  0  # atno 6907 bound_to 6896
  150.9242  134.8660  159.7519 H   0  0  0  0  0  0  0  0  0  0  0  0  # atno 6908 bound_to 6896
  152.4997  134.4225  159.9537 H   0  0  0  0  0  0  0  0  0  0  0  0  # atno 6909 bound_to 6896
  146.2321  139.9140  142.8520 H   0  0  0  0  0  0  0  0  0  0  0  0  # atno 7974 bound_to 7965
  156.0856  140.1405  156.9658 H   0  0  0  0  0  0  0  0  0  0  0  0  # atno 8008 bound_to 7997
  154.4610  140.0943  156.6942 H   0  0  0  0  0  0  0  0  0  0  0  0  # atno 8009 bound_to 7997
  155.5005  140.3451  155.4372 H   0  0  0  0  0  0  0  0  0  0  0  0  # atno 8010 bound_to 7997
  140.2222  143.3667  152.0959 H   0  0  0  0  0  0  0  0  0  0  0  0  # atno 10167 bound_to 10162
  156.4703  130.4523  149.6873 H   0  0  0  0  0  0  0  0  0  0  0  0  # atno 10718 bound_to 10713
  153.6776  135.6968  153.5128 H   0  0  0  0  0  0  0  0  0  0  0  0  # atno 10763 bound_to 10752
  153.2510  135.4275  155.0796 H   0  0  0  0  0  0  0  0  0  0  0  0  # atno 10764 bound_to 10752
  154.8409  135.3531  154.6319 H   0  0  0  0  0  0  0  0  0  0  0  0  # atno 10765 bound_to 10752
  139.9147  134.9628  156.7656 H   0  0  0  0  0  0  0  0  0  0  0  0  # atno 11005 bound_to 11000
  145.2201  140.9931  143.4050 LP  0  0  0  0  0  0  0  0  0  0  0  0  # atno 17320 bound_to 7965
  144.9617  139.3973  143.6352 LP  0  0  0  0  0  0  0  0  0  0  0  0  # atno 17321 bound_to 7965
  139.5140  144.6941  151.5679 LP  0  0  0  0  0  0  0  0  0  0  0  0  # atno 17342 bound_to 10162
  140.6246  143.9193  150.6554 LP  0  0  0  0  0  0  0  0  0  0  0  0  # atno 17343 bound_to 10162
  156.3625  130.7489  151.2463 LP  0  0  0  0  0  0  0  0  0  0  0  0  # atno 17370 bound_to 10713
  157.7492  131.0346  150.4325 LP  0  0  0  0  0  0  0  0  0  0  0  0  # atno 17371 bound_to 10713
  140.6662  133.9600  155.7831 LP  0  0  0  0  0  0  0  0  0  0  0  0  # atno 17394 bound_to 11000
  141.0609  134.0347  157.3659 LP  0  0  0  0  0  0  0  0  0  0  0  0  # atno 17395 bound_to 11000

$$$$
