AV-unprocessed.smi:1396|AV-procd|sdf|5676|dock2
  -GOLD-   22720 5303D 1   1.00000     0.00000
 Structure written by MMmdl.
 47 48  0  0  0  0  0  0  0  0  2 V2000
  142.0240  138.3483  154.8390 C   0  0  0  0  0  0  0  0  0  0  0  0
  142.7608  139.6025  154.8772 N   0  0  0  0  0  0  0  0  0  0  0  0
  143.2508  140.1541  155.9961 C   0  0  0  0  0  0  0  0  0  0  0  0
  143.1337  139.6404  157.1092 O   0  0  0  0  0  0  0  0  0  0  0  0
  144.0009  141.4794  155.8280 C   0  0  0  0  0  0  0  0  0  0  0  0
  145.1744  141.3706  154.9234 N   0  3  2  0  0  0  0  0  0  0  0  0
  146.2449  140.4888  155.4612 C   0  0  0  0  0  0  0  0  0  0  0  0
  147.3703  140.2939  154.4309 C   0  0  0  0  0  0  0  0  0  0  0  0
  147.9627  141.6387  153.9633 C   0  0  2  0  0  0  0  0  0  0  0  0
  148.7370  142.2952  155.0168 N   0  0  0  0  0  0  0  0  0  0  0  0
  149.6345  141.6930  155.8104 C   0  0  0  0  0  0  0  0  0  0  0  0
  149.9040  140.4942  155.7431 O   0  0  0  0  0  0  0  0  0  0  0  0
  150.2006  142.5697  156.6571 N   0  0  0  0  0  0  0  0  0  0  0  0
  151.1552  142.3111  157.6764 C   0  0  0  0  0  0  0  0  0  0  0  0
  151.4221  143.3301  158.6126 C   0  0  0  0  0  0  0  0  0  0  0  0
  152.3483  143.0884  159.6446 C   0  0  0  0  0  0  0  0  0  0  0  0
  152.9721  141.8270  159.7152 C   0  0  0  0  0  0  0  0  0  0  0  0
  153.8784  141.5946  160.7295 O   0  0  0  0  0  0  0  0  0  0  0  0
  153.7032  142.2835  161.9625 C   0  0  0  0  0  0  0  0  0  0  0  0
  152.7107  140.8348  158.8288 N   0  0  0  0  0  0  0  0  0  0  0  0
  151.8240  141.0735  157.8395 C   0  0  0  0  0  0  0  0  0  0  0  0
  146.8294  142.5594  153.4784 C   0  0  0  0  0  0  0  0  0  0  0  0
  145.7081  142.6983  154.5255 C   0  0  0  0  0  0  0  0  0  0  0  0
  141.7143  138.1295  153.8169 H   0  0  0  0  0  0  0  0  0  0  0  0
  141.1296  138.4035  155.4609 H   0  0  0  0  0  0  0  0  0  0  0  0
  142.6431  137.5225  155.1919 H   0  0  0  0  0  0  0  0  0  0  0  0
  142.9041  140.0794  153.9985 H   0  0  0  0  0  0  0  0  0  0  0  0
  143.2843  142.1912  155.4158 H   0  0  0  0  0  0  0  0  0  0  0  0
  144.3111  141.8725  156.7977 H   0  0  0  0  0  0  0  0  0  0  0  0
  146.6449  140.9165  156.3817 H   0  0  0  0  0  0  0  0  0  0  0  0
  145.8335  139.5139  155.7236 H   0  0  0  0  0  0  0  0  0  0  0  0
  148.1475  139.6501  154.8440 H   0  0  0  0  0  0  0  0  0  0  0  0
  146.9709  139.7612  153.5669 H   0  0  0  0  0  0  0  0  0  0  0  0
  148.6345  141.4547  153.1227 H   0  0  0  0  0  0  0  0  0  0  0  0
  148.5924  143.2867  155.1384 H   0  0  0  0  0  0  0  0  0  0  0  0
  149.9576  143.5407  156.5267 H   0  0  0  0  0  0  0  0  0  0  0  0
  150.9287  144.2884  158.5410 H   0  0  0  0  0  0  0  0  0  0  0  0
  152.5750  143.8563  160.3695 H   0  0  0  0  0  0  0  0  0  0  0  0
  154.4965  141.9960  162.6519 H   0  0  0  0  0  0  0  0  0  0  0  0
  152.7508  142.0291  162.4297 H   0  0  0  0  0  0  0  0  0  0  0  0
  153.7584  143.3647  161.8275 H   0  0  0  0  0  0  0  0  0  0  0  0
  151.6396  140.2353  157.1856 H   0  0  0  0  0  0  0  0  0  0  0  0
  147.2245  143.5423  153.2184 H   0  0  0  0  0  0  0  0  0  0  0  0
  146.4070  142.1517  152.5591 H   0  0  0  0  0  0  0  0  0  0  0  0
  144.9053  143.3064  154.1067 H   0  0  0  0  0  0  0  0  0  0  0  0
  146.0736  143.2242  155.4087 H   0  0  0  0  0  0  0  0  0  0  0  0
  144.8336  140.9362  154.0771 H   0  0  0  0  0  0  0  0  0  0  0  0
  1  2  1  0  0  0  0
  1 24  1  0  0  0  0
  1 25  1  0  0  0  0
  1 26  1  0  0  0  0
  2  3  1  0  0  0  0
  2 27  1  0  0  0  0
  3  4  2  0  0  0  0
  3  5  1  0  0  0  0
  5  6  1  0  0  0  0
  5 28  1  0  0  0  0
  5 29  1  0  0  0  0
  6 23  1  0  0  0  0
  6  7  1  0  0  0  0
  6 47  1  0  0  0  0
  7  8  1  0  0  0  0
  7 30  1  0  0  0  0
  7 31  1  0  0  0  0
  8  9  1  0  0  0  0
  8 32  1  0  0  0  0
  8 33  1  0  0  0  0
  9 10  1  0  0  0  0
  9 22  1  0  0  0  0
  9 34  1  0  0  0  0
 10 11  1  0  0  0  0
 10 35  1  0  0  0  0
 11 12  2  0  0  0  0
 11 13  1  0  0  0  0
 13 14  1  0  0  0  0
 13 36  1  0  0  0  0
 14 21  1  0  0  0  0
 14 15  2  0  0  0  0
 15 16  1  0  0  0  0
 15 37  1  0  0  0  0
 16 17  2  0  0  0  0
 16 38  1  0  0  0  0
 17 18  1  0  0  0  0
 17 20  1  0  0  0  0
 18 19  1  0  0  0  0
 19 39  1  0  0  0  0
 19 40  1  0  0  0  0
 19 41  1  0  0  0  0
 20 21  2  0  0  0  0
 21 42  1  0  0  0  0
 22 23  1  0  0  0  0
 22 43  1  0  0  0  0
 22 44  1  0  0  0  0
 23 45  1  0  0  0  0
 23 46  1  0  0  0  0
M  CHG  1   6   1
M  END
> <s_m_source_file>
AV-unprocessed.smi

> <i_m_source_file_index>
1396

> <i_lp_mmshare_version>
43012

> <i_f3d_flags>
0

> <s_epik_input>
W0NIM11bTkhdQyg9TylbQ0gyXU4xW0NIMl1bQ0gyXVtDSF0oW0NIMl1bQ0gyXTEpW05IXUMoPU8pW05IXWMyW2NIXVtjSF1jKE9bQ0gzXSluW2NIXTI=

> <s_epik_cmdline>
J2VwaWtfcHl0aG9uJywgJy1waCcsICc3LjAnLCAnLXRuJywgJzgnLCAnLW1hJywgJzIwMCcsICctbWV0YWxfYmluZGluZycsICctaW1hZScsICc8aW5maWxlLm1hZT4nLCAnLW9tYWUnLCAnPG91dGZpbGUubWFlPic=

> <r_lp_tautomer_probability>
1

> <r_epik_Ionization_Penalty>
0.838943

> <r_epik_Ionization_Penalty_Charging>
0.838844

> <r_epik_Ionization_Penalty_Neutral>
9.87511e-05

> <r_epik_State_Penalty>
0.8734

> <r_epik_Charging_Adjusted_Penalty>
1.71224

> <i_epik_Tot_Q>
1

> <i_epik_Tot_abs_Q>
1

> <r_epik_Metal_State_Penalty>
0.877926

> <b_epik_Metal_Only>
0

> <s_lp_Force_Field>
OPLS_2005

> <r_lp_Energy>
16.6272

> <b_lp_Chiralities_Consistent>
1

> <s_lp_Variant>
AV-unprocessed.smi:1396-3

> <Gold.Version>
5.8.1

> <Gold.Id.Protein>
6NUR|6NUR_protein|mol2

> <Gold.PLP.Fitness>
50.5306

> <Gold.PLP.PLP>
-36.8039

> <Gold.PLP.part.hbond>
-3.9816

> <Gold.PLP.part.metal>
0.0000

> <Gold.PLP.part.buried>
-7.0857

> <Gold.PLP.part.nonpolar>
-25.9284

> <Gold.PLP.part.repulsive>
0.3043

> <Gold.PLP.ligand.clash>
0.0000

> <Gold.PLP.ligand.torsion>
0.6105

> <Gold.PLP.Chemscore.Hbond>
4.9440

> <Gold.PLP.Chemscore.CHOScore>
0.0000

> <Gold.PLP.Chemscore.Metal>
0.0000

> <Gold.Chemscore.Hbonds>
donor molecule, donor type, donor heavy atom, donor atom, acceptor molecule, acceptor atom, score
      L1  H     2    27       P1 10175  1.00
      L1  H     6    47       P1 10175  2.00
      L1  H    10    35       P1  8028  1.00
      L1  H    13    36       P1  8028  0.94

> <Gold.PLP.Chemscore.Internal.Correction>
0.1157

> <Gold.Rescore>
     Score         DG    S(hbond)    S(metal)    S(lipo)     H(rot)  DE(clash)    DE(int)     intcor
     18.31     -22.74       3.86        0.00      81.17       2.00       1.39       3.04       ----

> <Gold.Chemscore.Fitness>
18.3140

> <Gold.Chemscore.DG>
-22.7430

> <Gold.Chemscore.ZeroCoef>
-5.4800

> <Gold.Chemscore.Hbond>
3.8552

> <Gold.Chemscore.Metal>
0.0000

> <Gold.Chemscore.Lipo>
81.1712

> <Gold.Chemscore.Internal_Hbond>
0.0000

> <Gold.Chemscore.DEClash>
1.3878

> <Gold.Chemscore.DEInternal>
3.0412

> <Gold.Chemscore.Rot>
1.9963

> <Gold.Chemscore.Internal.Correction>
   9.000000E+99

> <Gold.Chemscore.Hbonds>
donor molecule, donor type, donor heavy atom, donor atom, acceptor molecule, acceptor atom, score
      L1  H     2    27       P1 10175  0.99
      L1  H     6    47       P1 10175  0.88
      L1  H    10    35       P1  8028  0.93
      L1  H    13    36       P1  8028  0.91

> <Gold.Chemscore.Hbond.Weighted>
-12.8765

> <Gold.Chemscore.Metal.Weighted>
-0.0000

> <Gold.Chemscore.Lipo.Weighted>
-9.4970

> <Gold.Chemscore.Internal_Hbond.Weighted>
0.0000

> <Gold.Chemscore.DEClash.Weighted>
1.3878

> <Gold.Chemscore.DEInternal.Weighted>
3.0412

> <Gold.Chemscore.Rot.Weighted>
5.1105

> <Gold.Chemscore.Internal.Correction.Weighted>
   9.000000E+99

> <Gold.Protein.RotatedTorsions>
[ 6907 6896 6895 6894 ] final   52.35 input  -60.11 | X-H torsion
[ 7974 7965 7964 7962 ] final   20.97 input  175.53 | X-H torsion
[ 8008 7997 7996 7995 ] final   89.54 input   59.86 | X-H torsion
[ 10167 10162 10161 10158 ] final   72.31 input  -65.29 | X-H torsion
[ 10718 10713 10712 10709 ] final  118.26 input   66.30 | X-H torsion
[ 10763 10752 10751 10750 ] final   85.10 input  -60.55 | X-H torsion
[ 11005 11000 10999 10996 ] final   48.49 input  -57.11 | X-H torsion

> <Gold.Protein.ActiveResidues>
 VAL166  LYS551  ARG553  GLY616  TRP617  ASP618  TYR619  PRO620  LYS621  CYS622 
 ASP623  PHE694  ASN695  SER759  ASP760  ASP761  ALA762  ILE779  LEU786  VAL792 
 PHE793  MET794  SER795  GLU796  ALA797  LYS798  CYS799  TRP800  GLU811  SER814 

> <Gold.Protein.RotatedAtoms>
  152.3223  134.7364  160.0310 H   0  0  0  0  0  0  0  0  0  0  0  0  # atno 6907 bound_to 6896
  151.7808  133.3344  159.3479 H   0  0  0  0  0  0  0  0  0  0  0  0  # atno 6908 bound_to 6896
  150.7377  134.5863  159.6009 H   0  0  0  0  0  0  0  0  0  0  0  0  # atno 6909 bound_to 6896
  146.2090  139.8093  142.8703 H   0  0  0  0  0  0  0  0  0  0  0  0  # atno 7974 bound_to 7965
  156.0012  140.3359  155.6848 H   0  0  0  0  0  0  0  0  0  0  0  0  # atno 8008 bound_to 7997
  155.6287  140.0683  157.2673 H   0  0  0  0  0  0  0  0  0  0  0  0  # atno 8009 bound_to 7997
  154.4250  140.1763  156.1437 H   0  0  0  0  0  0  0  0  0  0  0  0  # atno 8010 bound_to 7997
  140.0367  144.5422  150.7465 H   0  0  0  0  0  0  0  0  0  0  0  0  # atno 10167 bound_to 10162
  157.6042  131.1046  150.7731 H   0  0  0  0  0  0  0  0  0  0  0  0  # atno 10718 bound_to 10713
  153.1444  135.4629  154.9543 H   0  0  0  0  0  0  0  0  0  0  0  0  # atno 10763 bound_to 10752
  154.7773  135.3177  154.8066 H   0  0  0  0  0  0  0  0  0  0  0  0  # atno 10764 bound_to 10752
  153.8583  135.6915  153.4839 H   0  0  0  0  0  0  0  0  0  0  0  0  # atno 10765 bound_to 10752
  140.1186  134.4859  155.8616 H   0  0  0  0  0  0  0  0  0  0  0  0  # atno 11005 bound_to 11000
  145.3213  141.0244  143.3499 LP  0  0  0  0  0  0  0  0  0  0  0  0  # atno 17320 bound_to 7965
  144.8865  139.4833  143.6698 LP  0  0  0  0  0  0  0  0  0  0  0  0  # atno 17321 bound_to 7965
  140.7278  143.2655  151.4058 LP  0  0  0  0  0  0  0  0  0  0  0  0  # atno 17342 bound_to 10162
  139.6040  144.1235  152.2229 LP  0  0  0  0  0  0  0  0  0  0  0  0  # atno 17343 bound_to 10162
  156.8123  130.4956  149.5354 LP  0  0  0  0  0  0  0  0  0  0  0  0  # atno 17370 bound_to 10713
  156.1124  130.6050  151.0067 LP  0  0  0  0  0  0  0  0  0  0  0  0  # atno 17371 bound_to 10713
  141.2147  133.6752  156.6845 LP  0  0  0  0  0  0  0  0  0  0  0  0  # atno 17394 bound_to 11000
  140.2995  134.8175  157.4085 LP  0  0  0  0  0  0  0  0  0  0  0  0  # atno 17395 bound_to 11000

$$$$
