AV-unprocessed.smi:1072|AV-procd|sdf|4685|dock2
  -GOLD-   22720 3203D 1   1.00000     0.00000
 Structure written by MMmdl.
 46 47  0  0  0  0  0  0  0  0  1 V2000
  154.3881  141.2760  161.7763 C   0  0  0  0  0  0  0  0  0  0  0  0
  153.5376  141.5796  160.5617 C   0  0  0  0  0  0  0  0  0  0  0  0
  152.8039  142.7492  160.6743 N   0  0  0  0  0  0  0  0  0  0  0  0
  151.9916  143.1085  159.6131 C   0  0  0  0  0  0  0  0  0  0  0  0
  151.2190  144.4001  159.8182 C   0  0  0  0  0  0  0  0  0  0  0  0
  151.9192  142.3445  158.4936 C   0  0  0  0  0  0  0  0  0  0  0  0
  151.0379  142.7107  157.2998 C   0  0  0  0  0  0  0  0  0  0  0  0
  150.2187  141.5652  156.7002 C   0  0  0  0  0  0  0  0  0  0  0  0
  150.1836  140.4710  157.2624 O   0  0  0  0  0  0  0  0  0  0  0  0
  149.5723  141.8424  155.5540 N   0  0  0  0  0  0  0  0  0  0  0  0
  148.7272  140.9559  154.7402 C   0  0  1  0  0  0  0  0  0  0  0  0
  149.5832  139.8153  154.1478 C   0  0  0  0  0  0  0  0  0  0  0  0
  147.5475  140.3740  155.5636 C   0  0  0  0  0  0  0  0  0  0  0  0
  146.5703  141.4568  156.0552 C   0  0  0  0  0  0  0  0  0  0  0  0
  146.0115  142.2841  154.8836 C   0  0  1  0  0  0  0  0  0  0  0  0
  145.0429  143.3695  155.3733 C   0  0  0  0  0  0  0  0  0  0  0  0
  147.1619  142.8837  154.0547 C   0  0  0  0  0  0  0  0  0  0  0  0
  148.1457  141.7978  153.5786 C   0  0  0  0  0  0  0  0  0  0  0  0
  152.7365  141.1099  158.4270 C   0  0  0  0  0  0  0  0  0  0  0  0
  152.7275  140.3844  157.4336 O   0  0  0  0  0  0  0  0  0  0  0  0
  153.5365  140.7851  159.5348 N   0  0  0  0  0  0  0  0  0  0  0  0
  152.8310  143.3482  161.4869 H   0  0  0  0  0  0  0  0  0  0  0  0
  154.8091  140.2716  161.7156 H   0  0  0  0  0  0  0  0  0  0  0  0
  153.7924  141.3395  162.6876 H   0  0  0  0  0  0  0  0  0  0  0  0
  155.2110  141.9876  161.8485 H   0  0  0  0  0  0  0  0  0  0  0  0
  150.1459  144.2121  159.7834 H   0  0  0  0  0  0  0  0  0  0  0  0
  151.4694  145.1224  159.0407 H   0  0  0  0  0  0  0  0  0  0  0  0
  151.4471  144.8556  160.7827 H   0  0  0  0  0  0  0  0  0  0  0  0
  151.6780  143.1254  156.5203 H   0  0  0  0  0  0  0  0  0  0  0  0
  150.3548  143.5208  157.5563 H   0  0  0  0  0  0  0  0  0  0  0  0
  149.6773  142.7812  155.1976 H   0  0  0  0  0  0  0  0  0  0  0  0
  148.9980  139.1961  153.4671 H   0  0  0  0  0  0  0  0  0  0  0  0
  149.9760  139.1532  154.9194 H   0  0  0  0  0  0  0  0  0  0  0  0
  150.4318  140.2068  153.5855 H   0  0  0  0  0  0  0  0  0  0  0  0
  146.9953  139.6650  154.9451 H   0  0  0  0  0  0  0  0  0  0  0  0
  147.9083  139.7948  156.4134 H   0  0  0  0  0  0  0  0  0  0  0  0
  145.7509  140.9850  156.5983 H   0  0  0  0  0  0  0  0  0  0  0  0
  147.0714  142.1116  156.7693 H   0  0  0  0  0  0  0  0  0  0  0  0
  145.4482  141.6106  154.2360 H   0  0  0  0  0  0  0  0  0  0  0  0
  145.5418  144.0773  156.0359 H   0  0  0  0  0  0  0  0  0  0  0  0
  144.2082  142.9317  155.9218 H   0  0  0  0  0  0  0  0  0  0  0  0
  144.6277  143.9314  154.5364 H   0  0  0  0  0  0  0  0  0  0  0  0
  146.7584  143.4100  153.1890 H   0  0  0  0  0  0  0  0  0  0  0  0
  147.6927  143.6322  154.6443 H   0  0  0  0  0  0  0  0  0  0  0  0
  148.9524  142.2621  153.0092 H   0  0  0  0  0  0  0  0  0  0  0  0
  147.6257  141.1423  152.8784 H   0  0  0  0  0  0  0  0  0  0  0  0
  1 23  1  0  0  0  0
  1 24  1  0  0  0  0
  1 25  1  0  0  0  0
  1  2  1  0  0  0  0
  2  3  1  0  0  0  0
  2 21  2  0  0  0  0
  3  4  1  0  0  0  0
  3 22  1  0  0  0  0
  4  6  2  0  0  0  0
  4  5  1  0  0  0  0
  5 26  1  0  0  0  0
  5 27  1  0  0  0  0
  5 28  1  0  0  0  0
  6 19  1  0  0  0  0
  6  7  1  0  0  0  0
  7  8  1  0  0  0  0
  7 29  1  0  0  0  0
  7 30  1  0  0  0  0
  8  9  2  0  0  0  0
  8 10  1  0  0  0  0
 10 11  1  0  0  0  0
 10 31  1  0  0  0  0
 11 18  1  0  0  0  0
 11 12  1  0  0  0  0
 11 13  1  0  0  0  0
 12 32  1  0  0  0  0
 12 33  1  0  0  0  0
 12 34  1  0  0  0  0
 13 14  1  0  0  0  0
 13 35  1  0  0  0  0
 13 36  1  0  0  0  0
 14 15  1  0  0  0  0
 14 37  1  0  0  0  0
 14 38  1  0  0  0  0
 15 16  1  0  0  0  0
 15 17  1  0  0  0  0
 15 39  1  0  0  0  0
 16 40  1  0  0  0  0
 16 41  1  0  0  0  0
 16 42  1  0  0  0  0
 17 18  1  0  0  0  0
 17 43  1  0  0  0  0
 17 44  1  0  0  0  0
 18 45  1  0  0  0  0
 18 46  1  0  0  0  0
 19 20  2  0  0  0  0
 19 21  1  0  0  0  0
M  END
> <s_m_source_file>
AV-unprocessed.smi

> <i_m_source_file_index>
1072

> <i_lp_mmshare_version>
43012

> <i_f3d_flags>
0

> <s_epik_input>
W0NIM11jMW5jKFtDSDNdKWMoYyg9TylbbkhdMSlbQ0gyXUMoPU8pW05IXVtDQEBdMihbQ0gzXSlbQ0gyXVtDSDJdW0NAQEhdKFtDSDNdKVtDSDJdW0NIMl0y

> <s_epik_cmdline>
J2VwaWtfcHl0aG9uJywgJy1waCcsICc3LjAnLCAnLXRuJywgJzgnLCAnLW1hJywgJzIwMCcsICctbWV0YWxfYmluZGluZycsICctaW1hZScsICc8aW5maWxlLm1hZT4nLCAnLW9tYWUnLCAnPG91dGZpbGUubWFlPic=

> <r_lp_tautomer_probability>
0.156392

> <r_epik_Ionization_Penalty>
0.0131066

> <r_epik_Ionization_Penalty_Charging>
0.0129643

> <r_epik_Ionization_Penalty_Neutral>
0.000142248

> <r_epik_State_Penalty>
1.15342

> <r_epik_Charging_Adjusted_Penalty>
1.16638

> <i_epik_Tot_Q>
0

> <i_epik_Tot_abs_Q>
0

> <r_epik_Metal_State_Penalty>
1.30766

> <b_epik_Metal_Only>
0

> <s_lp_Force_Field>
OPLS_2005

> <r_lp_Energy>
14.6826

> <b_lp_Chiralities_Consistent>
1

> <s_lp_Variant>
AV-unprocessed.smi:1072-3

> <Gold.Version>
5.8.1

> <Gold.Id.Protein>
6NUR|6NUR_protein|mol2

> <Gold.PLP.Fitness>
41.2608

> <Gold.PLP.PLP>
-37.8881

> <Gold.PLP.part.hbond>
-1.8806

> <Gold.PLP.part.metal>
0.0000

> <Gold.PLP.part.buried>
-2.2580

> <Gold.PLP.part.nonpolar>
-33.0169

> <Gold.PLP.part.repulsive>
0.1866

> <Gold.PLP.ligand.clash>
0.0000

> <Gold.PLP.ligand.torsion>
0.2757

> <Gold.PLP.Chemscore.Hbond>
1.3062

> <Gold.PLP.Chemscore.CHOScore>
0.0000

> <Gold.PLP.Chemscore.Metal>
0.0000

> <Gold.Chemscore.Hbonds>
donor molecule, donor type, donor heavy atom, donor atom, acceptor molecule, acceptor atom, score
      L1  H    10    31       P1  8028  0.55
      P1  H  7997  8008       L1    20  0.91

> <Gold.PLP.Chemscore.Internal.Correction>
0.0054

> <Gold.Rescore>
     Score         DG    S(hbond)    S(metal)    S(lipo)     H(rot)  DE(clash)    DE(int)     intcor
     11.03     -14.98       0.95        0.00      86.31       1.47       0.06       3.88       ----

> <Gold.Chemscore.Fitness>
11.0294

> <Gold.Chemscore.DG>
-14.9753

> <Gold.Chemscore.ZeroCoef>
-5.4800

> <Gold.Chemscore.Hbond>
0.9453

> <Gold.Chemscore.Metal>
0.0000

> <Gold.Chemscore.Lipo>
86.3146

> <Gold.Chemscore.Internal_Hbond>
0.0000

> <Gold.Chemscore.DEClash>
0.0639

> <Gold.Chemscore.DEInternal>
3.8820

> <Gold.Chemscore.Rot>
1.4690

> <Gold.Chemscore.Internal.Correction>
   9.000000E+99

> <Gold.Chemscore.Hbonds>
donor molecule, donor type, donor heavy atom, donor atom, acceptor molecule, acceptor atom, score
      L1  H    10    31       P1  8028  0.54
      P1  H  7997  8008       L1    20  0.76

> <Gold.Chemscore.Hbond.Weighted>
-3.1572

> <Gold.Chemscore.Metal.Weighted>
-0.0000

> <Gold.Chemscore.Lipo.Weighted>
-10.0988

> <Gold.Chemscore.Internal_Hbond.Weighted>
0.0000

> <Gold.Chemscore.DEClash.Weighted>
0.0639

> <Gold.Chemscore.DEInternal.Weighted>
3.8820

> <Gold.Chemscore.Rot.Weighted>
3.7607

> <Gold.Chemscore.Internal.Correction.Weighted>
   9.000000E+99

> <Gold.Protein.RotatedTorsions>
[ 6907 6896 6895 6894 ] final  -53.83 input  -60.11 | X-H torsion
[ 7974 7965 7964 7962 ] final  104.74 input  175.53 | X-H torsion
[ 8008 7997 7996 7995 ] final  -65.95 input   59.86 | X-H torsion
[ 10167 10162 10161 10158 ] final  161.33 input  -65.29 | X-H torsion
[ 10718 10713 10712 10709 ] final   54.05 input   66.30 | X-H torsion
[ 10763 10752 10751 10750 ] final  -70.98 input  -60.55 | X-H torsion
[ 11005 11000 10999 10996 ] final  -32.44 input  -57.11 | X-H torsion

> <Gold.Protein.ActiveResidues>
 VAL166  LYS551  ARG553  GLY616  TRP617  ASP618  TYR619  PRO620  LYS621  CYS622 
 ASP623  PHE694  ASN695  SER759  ASP760  ASP761  ALA762  ILE779  LEU786  VAL792 
 PHE793  MET794  SER795  GLU796  ALA797  LYS798  CYS799  TRP800  GLU811  SER814 

> <Gold.Protein.RotatedAtoms>
  150.8392  134.7677  159.6918 H   0  0  0  0  0  0  0  0  0  0  0  0  # atno 6907 bound_to 6896
  152.4483  134.5445  159.9858 H   0  0  0  0  0  0  0  0  0  0  0  0  # atno 6908 bound_to 6896
  151.5588  133.3368  159.3003 H   0  0  0  0  0  0  0  0  0  0  0  0  # atno 6909 bound_to 6896
  145.3289  139.2492  143.3671 H   0  0  0  0  0  0  0  0  0  0  0  0  # atno 7974 bound_to 7965
  154.4703  140.0923  156.7128 H   0  0  0  0  0  0  0  0  0  0  0  0  # atno 8008 bound_to 7997
  155.4742  140.3465  155.4312 H   0  0  0  0  0  0  0  0  0  0  0  0  # atno 8009 bound_to 7997
  156.1028  140.1427  156.9433 H   0  0  0  0  0  0  0  0  0  0  0  0  # atno 8010 bound_to 7997
  139.4848  144.4546  151.8784 H   0  0  0  0  0  0  0  0  0  0  0  0  # atno 10167 bound_to 10162
  157.5222  130.8573  149.8574 H   0  0  0  0  0  0  0  0  0  0  0  0  # atno 10718 bound_to 10713
  154.4253  135.5977  153.6035 H   0  0  0  0  0  0  0  0  0  0  0  0  # atno 10763 bound_to 10752
  152.9796  135.5962  154.3905 H   0  0  0  0  0  0  0  0  0  0  0  0  # atno 10764 bound_to 10752
  154.3736  135.2841  155.2231 H   0  0  0  0  0  0  0  0  0  0  0  0  # atno 10765 bound_to 10752
  140.9552  133.7197  156.1282 H   0  0  0  0  0  0  0  0  0  0  0  0  # atno 11005 bound_to 11000
  146.3053  140.3862  142.8689 LP  0  0  0  0  0  0  0  0  0  0  0  0  # atno 17320 bound_to 7965
  144.8880  140.7487  143.5944 LP  0  0  0  0  0  0  0  0  0  0  0  0  # atno 17321 bound_to 7965
  140.4005  144.2499  150.5893 LP  0  0  0  0  0  0  0  0  0  0  0  0  # atno 17342 bound_to 10162
  140.5061  143.2304  151.8605 LP  0  0  0  0  0  0  0  0  0  0  0  0  # atno 17343 bound_to 10162
  156.0361  130.3751  150.1556 LP  0  0  0  0  0  0  0  0  0  0  0  0  # atno 17370 bound_to 10713
  156.9743  130.9844  151.3452 LP  0  0  0  0  0  0  0  0  0  0  0  0  # atno 17371 bound_to 10713
  140.7546  134.4007  157.5536 LP  0  0  0  0  0  0  0  0  0  0  0  0  # atno 17394 bound_to 11000
  139.8860  134.8922  156.2611 LP  0  0  0  0  0  0  0  0  0  0  0  0  # atno 17395 bound_to 11000

$$$$
