AV-unprocessed.smi:45|AV-procd|sdf|410|dock4
  -GOLD-   2262016273D 1   1.00000     0.00000
 Structure written by MMmdl.
 61 64  0  0  0  0  0  0  0  0  2 V2000
  153.9782  141.7164  161.2821 C   0  0  0  0  0  0  0  0  0  0  0  0
  153.3237  142.6414  160.4263 O   0  0  0  0  0  0  0  0  0  0  0  0
  152.4536  142.1488  159.4755 C   0  0  0  0  0  0  0  0  0  0  0  0
  152.1854  140.7686  159.2911 C   0  0  0  0  0  0  0  0  0  0  0  0
  151.2826  140.3409  158.2988 C   0  0  0  0  0  0  0  0  0  0  0  0
  150.6350  141.2813  157.4727 C   0  0  0  0  0  0  0  0  0  0  0  0
  149.6579  140.8242  156.4071 C   0  0  0  0  0  0  0  0  0  0  0  0
  148.8183  141.8974  155.8917 N   0  0  0  0  0  0  0  0  0  0  0  0
  147.4175  141.8334  155.9865 C   0  0  0  0  0  0  0  0  0  0  0  0
  146.8113  142.6259  156.8986 N   0  0  0  0  0  0  0  0  0  0  0  0
  145.4798  142.6084  157.0410 C   0  0  0  0  0  0  0  0  0  0  0  0
  144.8831  143.4387  157.9891 N   0  0  0  0  0  0  0  0  0  0  0  0
  145.5197  143.7055  159.2744 C   0  0  0  0  0  0  0  0  0  0  0  0
  145.1191  145.1296  159.6559 C   0  0  0  0  0  0  0  0  0  0  0  0
  143.7666  145.2983  158.9768 C   0  0  0  0  0  0  0  0  0  0  0  0
  143.9143  144.4920  157.6783 C   0  0  2  0  0  0  0  0  0  0  0  0
  142.5639  143.9511  157.1618 C   0  0  0  0  0  0  0  0  0  0  0  0
  141.7049  145.0260  156.8468 O   0  0  0  0  0  0  0  0  0  0  0  0
  144.6996  141.8040  156.3017 N   0  3  0  0  0  0  0  0  0  0  0  0
  145.2547  140.9849  155.3767 C   0  0  0  0  0  0  0  0  0  0  0  0
  146.6519  140.9565  155.1779 C   0  0  0  0  0  0  0  0  0  0  0  0
  147.2521  140.0646  154.1241 C   0  0  0  0  0  0  0  0  0  0  0  0
  148.4536  139.7965  154.1207 O   0  0  0  0  0  0  0  0  0  0  0  0
  146.3819  139.5765  153.2260 N   0  0  0  0  0  0  0  0  0  0  0  0
  146.7393  138.7261  152.0968 C   0  0  0  0  0  0  0  0  0  0  0  0
  145.8579  137.4934  151.9979 C   0  0  0  0  0  0  0  0  0  0  0  0
  146.1399  136.6339  151.0125 N   0  0  0  0  0  0  0  0  0  0  0  0
  145.3633  135.5321  150.9236 C   0  0  0  0  0  0  0  0  0  0  0  0
  144.3074  135.2939  151.8259 C   0  0  0  0  0  0  0  0  0  0  0  0
  144.1068  136.2697  152.8231 C   0  0  0  0  0  0  0  0  0  0  0  0
  144.8852  137.3704  152.9066 N   0  0  0  0  0  0  0  0  0  0  0  0
  150.8941  142.6541  157.6523 C   0  0  0  0  0  0  0  0  0  0  0  0
  151.7970  143.0842  158.6446 C   0  0  0  0  0  0  0  0  0  0  0  0
  152.0926  144.7755  158.8358 Cl  0  0  0  0  0  0  0  0  0  0  0  0
  144.3655  145.1303  156.9171 H   0  0  0  0  0  0  0  0  0  0  0  0
  154.6254  142.2597  161.9703 H   0  0  0  0  0  0  0  0  0  0  0  0
  154.6049  141.0250  160.7174 H   0  0  0  0  0  0  0  0  0  0  0  0
  153.2625  141.1509  161.8803 H   0  0  0  0  0  0  0  0  0  0  0  0
  152.6597  140.0147  159.9004 H   0  0  0  0  0  0  0  0  0  0  0  0
  151.0878  139.2856  158.1749 H   0  0  0  0  0  0  0  0  0  0  0  0
  150.2282  140.3866  155.5870 H   0  0  0  0  0  0  0  0  0  0  0  0
  149.0212  140.0363  156.8113 H   0  0  0  0  0  0  0  0  0  0  0  0
  149.2573  142.7676  155.6248 H   0  0  0  0  0  0  0  0  0  0  0  0
  145.1429  142.9900  160.0058 H   0  0  0  0  0  0  0  0  0  0  0  0
  146.6049  143.6064  159.2295 H   0  0  0  0  0  0  0  0  0  0  0  0
  145.0796  145.2863  160.7343 H   0  0  0  0  0  0  0  0  0  0  0  0
  145.8320  145.8405  159.2361 H   0  0  0  0  0  0  0  0  0  0  0  0
  142.9893  144.8668  159.6096 H   0  0  0  0  0  0  0  0  0  0  0  0
  143.5103  146.3430  158.7981 H   0  0  0  0  0  0  0  0  0  0  0  0
  142.6830  143.3502  156.2614 H   0  0  0  0  0  0  0  0  0  0  0  0
  142.0872  143.3145  157.9081 H   0  0  0  0  0  0  0  0  0  0  0  0
  140.8587  144.8603  157.2345 H   0  0  0  0  0  0  0  0  0  0  0  0
  144.5538  140.3813  154.8179 H   0  0  0  0  0  0  0  0  0  0  0  0
  145.4092  139.8334  153.3088 H   0  0  0  0  0  0  0  0  0  0  0  0
  146.7045  139.2984  151.1676 H   0  0  0  0  0  0  0  0  0  0  0  0
  147.7752  138.4085  152.2200 H   0  0  0  0  0  0  0  0  0  0  0  0
  145.5858  134.8369  150.1277 H   0  0  0  0  0  0  0  0  0  0  0  0
  143.6857  134.4136  151.7567 H   0  0  0  0  0  0  0  0  0  0  0  0
  143.3201  136.1666  153.5554 H   0  0  0  0  0  0  0  0  0  0  0  0
  150.4010  143.3846  157.0276 H   0  0  0  0  0  0  0  0  0  0  0  0
  143.6869  141.8067  156.4244 H   0  0  0  0  0  0  0  0  0  0  0  0
  1  2  1  0  0  0  0
  1 36  1  0  0  0  0
  1 37  1  0  0  0  0
  1 38  1  0  0  0  0
  2  3  1  0  0  0  0
  3 33  1  0  0  0  0
  3  4  2  0  0  0  0
  4  5  1  0  0  0  0
  4 39  1  0  0  0  0
  5  6  2  0  0  0  0
  5 40  1  0  0  0  0
  6  7  1  0  0  0  0
  6 32  1  0  0  0  0
  7  8  1  0  0  0  0
  7 41  1  0  0  0  0
  7 42  1  0  0  0  0
  8  9  1  0  0  0  0
  8 43  1  0  0  0  0
  9 21  1  0  0  0  0
  9 10  2  0  0  0  0
 10 11  1  0  0  0  0
 11 12  1  0  0  0  0
 11 19  2  0  0  0  0
 12 16  1  0  0  0  0
 12 13  1  0  0  0  0
 13 14  1  0  0  0  0
 13 44  1  0  0  0  0
 13 45  1  0  0  0  0
 14 15  1  0  0  0  0
 14 46  1  0  0  0  0
 14 47  1  0  0  0  0
 15 16  1  0  0  0  0
 15 48  1  0  0  0  0
 15 49  1  0  0  0  0
 16 35  1  0  0  0  0
 16 17  1  0  0  0  0
 17 18  1  0  0  0  0
 17 50  1  0  0  0  0
 17 51  1  0  0  0  0
 18 52  1  0  0  0  0
 19 20  1  0  0  0  0
 19 61  1  0  0  0  0
 20 21  2  0  0  0  0
 20 53  1  0  0  0  0
 21 22  1  0  0  0  0
 22 23  2  0  0  0  0
 22 24  1  0  0  0  0
 24 25  1  0  0  0  0
 24 54  1  0  0  0  0
 25 26  1  0  0  0  0
 25 55  1  0  0  0  0
 25 56  1  0  0  0  0
 26 31  1  0  0  0  0
 26 27  2  0  0  0  0
 27 28  1  0  0  0  0
 28 29  2  0  0  0  0
 28 57  1  0  0  0  0
 29 30  1  0  0  0  0
 29 58  1  0  0  0  0
 30 31  2  0  0  0  0
 30 59  1  0  0  0  0
 32 33  2  0  0  0  0
 32 60  1  0  0  0  0
 33 34  1  0  0  0  0
M  CHG  1  19   1
M  END
> <s_m_source_file>
AV-unprocessed.smi

> <i_m_source_file_index>
45

> <i_lp_mmshare_version>
43012

> <i_f3d_flags>
0

> <s_epik_input>
W0NIM11PYzFbY0hdW2NIXWMoW2NIXWMxQ2wpW0NIMl1bTkhdYzJuYyhOM1tDSDJdW0NIMl1bQ0gyXVtDQEhdM1tDSDJdW09IXSluW2NIXWMyQyg9TylbTkhdW0NIMl1jNG5bY0hdW2NIXVtjSF1uNA==

> <s_epik_cmdline>
J2VwaWtfcHl0aG9uJywgJy1waCcsICc3LjAnLCAnLXRuJywgJzgnLCAnLW1hJywgJzIwMCcsICctbWV0YWxfYmluZGluZycsICctaW1hZScsICc8aW5maWxlLm1hZT4nLCAnLW9tYWUnLCAnPG91dGZpbGUubWFlPic=

> <r_lp_tautomer_probability>
0.575011

> <r_epik_Ionization_Penalty>
1.61454

> <r_epik_Ionization_Penalty_Charging>
1.61448

> <r_epik_Ionization_Penalty_Neutral>
6.30284e-05

> <r_epik_State_Penalty>
1.91123

> <r_epik_Charging_Adjusted_Penalty>
3.52572

> <i_epik_Tot_Q>
1

> <i_epik_Tot_abs_Q>
1

> <r_epik_Metal_State_Penalty>
1.95488

> <b_epik_Metal_Only>
0

> <s_epik_Chemistry_Notes>
This compound contains an electron-poor aromatic ring that is susceptible to covalent hydrolysis at low pH, typically resulting in measured values for nitrogen ring protonation that are around two units higher than predicted values.

> <s_lp_Force_Field>
OPLS_2005

> <r_lp_Energy>
37.0931

> <b_lp_Chiralities_Consistent>
1

> <s_lp_Variant>
AV-unprocessed.smi:45-4

> <Gold.Version>
5.8.1

> <Gold.Id.Protein>
6NUR|6NUR_protein|mol2

> <Gold.PLP.Fitness>
52.9014

> <Gold.PLP.PLP>
-48.3589

> <Gold.PLP.part.hbond>
-2.0000

> <Gold.PLP.part.metal>
0.0000

> <Gold.PLP.part.buried>
-4.5004

> <Gold.PLP.part.nonpolar>
-45.5780

> <Gold.PLP.part.repulsive>
4.0315

> <Gold.PLP.ligand.clash>
0.0000

> <Gold.PLP.ligand.torsion>
1.9077

> <Gold.PLP.Chemscore.Hbond>
1.6240

> <Gold.PLP.Chemscore.CHOScore>
1.0000

> <Gold.PLP.Chemscore.Metal>
0.0000

> <Gold.Chemscore.Hbonds>
donor molecule, donor type, donor heavy atom, donor atom, acceptor molecule, acceptor atom, score
      L1  H     8    43       P1  8028  0.78
      L1  H    24    54       P1 10175  1.00
      L1  C    28    57       P1  7921  0.95

> <Gold.PLP.Chemscore.Internal.Correction>
0.4861

> <Gold.Rescore>
     Score         DG    S(hbond)    S(metal)    S(lipo)     H(rot)  DE(clash)    DE(int)     intcor
     11.82     -17.80       1.65        0.00     122.57       2.94       0.42       5.56       ----

> <Gold.Chemscore.Fitness>
11.8185

> <Gold.Chemscore.DG>
-17.7979

> <Gold.Chemscore.ZeroCoef>
-5.4800

> <Gold.Chemscore.Hbond>
1.6473

> <Gold.Chemscore.Metal>
0.0000

> <Gold.Chemscore.Lipo>
122.5742

> <Gold.Chemscore.Internal_Hbond>
0.0000

> <Gold.Chemscore.DEClash>
0.4240

> <Gold.Chemscore.DEInternal>
5.5554

> <Gold.Chemscore.Rot>
2.9395

> <Gold.Chemscore.Internal.Correction>
   9.000000E+99

> <Gold.Chemscore.Hbonds>
donor molecule, donor type, donor heavy atom, donor atom, acceptor molecule, acceptor atom, score
      L1  H     8    43       P1  8028  0.76
      L1  H    24    54       P1 10175  0.88

> <Gold.Chemscore.Hbond.Weighted>
-5.5018

> <Gold.Chemscore.Metal.Weighted>
-0.0000

> <Gold.Chemscore.Lipo.Weighted>
-14.3412

> <Gold.Chemscore.Internal_Hbond.Weighted>
0.0000

> <Gold.Chemscore.DEClash.Weighted>
0.4240

> <Gold.Chemscore.DEInternal.Weighted>
5.5554

> <Gold.Chemscore.Rot.Weighted>
7.5251

> <Gold.Chemscore.Internal.Correction.Weighted>
   9.000000E+99

> <Gold.Protein.RotatedTorsions>
[ 6907 6896 6895 6894 ] final -174.60 input  -60.11 | X-H torsion
[ 7974 7965 7964 7962 ] final -120.52 input  175.53 | X-H torsion
[ 8008 7997 7996 7995 ] final -141.02 input   59.86 | X-H torsion
[ 10167 10162 10161 10158 ] final   37.80 input  -65.29 | X-H torsion
[ 10718 10713 10712 10709 ] final  -57.94 input   66.30 | X-H torsion
[ 10763 10752 10751 10750 ] final  -34.71 input  -60.55 | X-H torsion
[ 11005 11000 10999 10996 ] final  -10.05 input  -57.11 | X-H torsion

> <Gold.Protein.ActiveResidues>
 VAL166  LYS551  ARG553  GLY616  TRP617  ASP618  TYR619  PRO620  LYS621  CYS622 
 ASP623  PHE694  ASN695  SER759  ASP760  ASP761  ALA762  ILE779  LEU786  VAL792 
 PHE793  MET794  SER795  GLU796  ALA797  LYS798  CYS799  TRP800  GLU811  SER814 

> <Gold.Protein.RotatedAtoms>
  151.5750  133.3385  159.2996 H   0  0  0  0  0  0  0  0  0  0  0  0  # atno 6907 bound_to 6896
  150.8345  134.7616  159.6893 H   0  0  0  0  0  0  0  0  0  0  0  0  # atno 6908 bound_to 6896
  152.4424  134.5571  159.9935 H   0  0  0  0  0  0  0  0  0  0  0  0  # atno 6909 bound_to 6896
  145.0505  140.8214  143.4212 H   0  0  0  0  0  0  0  0  0  0  0  0  # atno 7974 bound_to 7965
  155.4709  140.0553  157.2979 H   0  0  0  0  0  0  0  0  0  0  0  0  # atno 8008 bound_to 7997
  154.4699  140.2035  155.9976 H   0  0  0  0  0  0  0  0  0  0  0  0  # atno 8009 bound_to 7997
  156.1037  140.3215  155.7982 H   0  0  0  0  0  0  0  0  0  0  0  0  # atno 8010 bound_to 7997
  140.3998  144.1739  150.6133 H   0  0  0  0  0  0  0  0  0  0  0  0  # atno 10167 bound_to 10162
  156.1172  130.4169  150.0510 H   0  0  0  0  0  0  0  0  0  0  0  0  # atno 10718 bound_to 10713
  153.8512  135.6849  153.4792 H   0  0  0  0  0  0  0  0  0  0  0  0  # atno 10763 bound_to 10752
  153.1396  135.4663  154.9473 H   0  0  0  0  0  0  0  0  0  0  0  0  # atno 10764 bound_to 10752
  154.7801  135.3266  154.7956 H   0  0  0  0  0  0  0  0  0  0  0  0  # atno 10765 bound_to 10752
  140.7406  133.8673  155.8964 H   0  0  0  0  0  0  0  0  0  0  0  0  # atno 11005 bound_to 11000
  145.1534  139.2501  143.5429 LP  0  0  0  0  0  0  0  0  0  0  0  0  # atno 17320 bound_to 7965
  146.3517  140.1242  142.8599 LP  0  0  0  0  0  0  0  0  0  0  0  0  # atno 17321 bound_to 7965
  140.4752  143.2398  151.9033 LP  0  0  0  0  0  0  0  0  0  0  0  0  # atno 17342 bound_to 10162
  139.4785  144.5328  151.8642 LP  0  0  0  0  0  0  0  0  0  0  0  0  # atno 17343 bound_to 10162
  156.8457  130.9441  151.3629 LP  0  0  0  0  0  0  0  0  0  0  0  0  # atno 17370 bound_to 10713
  157.6356  130.8764  149.9352 LP  0  0  0  0  0  0  0  0  0  0  0  0  # atno 17371 bound_to 10713
  140.9840  134.1367  157.4469 LP  0  0  0  0  0  0  0  0  0  0  0  0  # atno 17394 bound_to 11000
  139.8807  135.0019  156.6098 LP  0  0  0  0  0  0  0  0  0  0  0  0  # atno 17395 bound_to 11000

$$$$
