AV-unprocessed.smi:107|AV-procd|sdf|1019|dock9
  -GOLD-   2262018 23D 1   1.00000     0.00000
 Structure written by MMmdl.
 31 32  0  0  0  0  0  0  0  0  1 V2000
  152.7060  142.4968  159.6388 C   0  0  0  0  0  0  0  0  0  0  0  0
  152.0032  142.0080  158.3832 C   0  0  0  0  0  0  0  0  0  0  0  0
  152.1809  140.7557  157.8898 C   0  0  0  0  0  0  0  0  0  0  0  0
  151.5556  140.2753  156.7459 N   0  0  0  0  0  0  0  0  0  0  0  0
  151.8761  138.9012  156.1927 C   0  0  2  0  0  0  0  0  0  0  0  0
  152.1770  138.8813  154.6820 C   0  0  0  0  0  0  0  0  0  0  0  0
  151.0993  137.9626  154.1225 C   0  0  2  0  0  0  0  0  0  0  0  0
  150.0491  138.7084  153.5372 O   0  0  0  0  0  0  0  0  0  0  0  0
  150.6399  137.1682  155.3558 C   0  0  2  0  0  0  0  0  0  0  0  0
  149.2221  136.5718  155.3160 C   0  0  0  0  0  0  0  0  0  0  0  0
  149.1751  135.4756  154.4279 O   0  0  0  0  0  0  0  0  0  0  0  0
  150.7730  138.0860  156.4312 O   0  0  0  0  0  0  0  0  0  0  0  0
  150.7694  141.1632  155.9780 C   0  0  0  0  0  0  0  0  0  0  0  0
  150.2588  140.8544  154.9021 O   0  0  0  0  0  0  0  0  0  0  0  0
  150.5729  142.4443  156.4911 N   0  0  0  0  0  0  0  0  0  0  0  0
  151.1259  142.9411  157.6729 C   0  0  0  0  0  0  0  0  0  0  0  0
  150.8669  144.0893  158.0299 O   0  0  0  0  0  0  0  0  0  0  0  0
  149.9909  143.0716  155.9553 H   0  0  0  0  0  0  0  0  0  0  0  0
  153.3330  141.7215  160.0798 H   0  0  0  0  0  0  0  0  0  0  0  0
  151.9764  142.8037  160.3891 H   0  0  0  0  0  0  0  0  0  0  0  0
  153.3433  143.3518  159.4102 H   0  0  0  0  0  0  0  0  0  0  0  0
  152.8629  140.1080  158.4172 H   0  0  0  0  0  0  0  0  0  0  0  0
  152.7371  138.5208  156.7440 H   0  0  0  0  0  0  0  0  0  0  0  0
  152.2063  139.8729  154.2304 H   0  0  0  0  0  0  0  0  0  0  0  0
  153.1609  138.4313  154.5418 H   0  0  0  0  0  0  0  0  0  0  0  0
  151.5018  137.2995  153.3562 H   0  0  0  0  0  0  0  0  0  0  0  0
  150.2858  138.9060  152.6436 H   0  0  0  0  0  0  0  0  0  0  0  0
  151.3586  136.3669  155.5392 H   0  0  0  0  0  0  0  0  0  0  0  0
  148.9408  136.2204  156.3089 H   0  0  0  0  0  0  0  0  0  0  0  0
  148.4815  137.3163  155.0229 H   0  0  0  0  0  0  0  0  0  0  0  0
  148.9177  135.7913  153.5749 H   0  0  0  0  0  0  0  0  0  0  0  0
  1  2  1  0  0  0  0
  1 19  1  0  0  0  0
  1 20  1  0  0  0  0
  1 21  1  0  0  0  0
  2 16  1  0  0  0  0
  2  3  2  0  0  0  0
  3  4  1  0  0  0  0
  3 22  1  0  0  0  0
  4  5  1  0  0  0  0
  4 13  1  0  0  0  0
  5 12  1  0  0  0  0
  5  6  1  0  0  0  0
  5 23  1  0  0  0  0
  6  7  1  0  0  0  0
  6 24  1  0  0  0  0
  6 25  1  0  0  0  0
  7  8  1  0  0  0  0
  7  9  1  0  0  0  0
  7 26  1  0  0  0  0
  8 27  1  0  0  0  0
  9 10  1  0  0  0  0
  9 12  1  0  0  0  0
  9 28  1  0  0  0  0
 10 11  1  0  0  0  0
 10 29  1  0  0  0  0
 10 30  1  0  0  0  0
 11 31  1  0  0  0  0
 13 14  2  0  0  0  0
 13 15  1  0  0  0  0
 15 18  1  0  0  0  0
 15 16  1  0  0  0  0
 16 17  2  0  0  0  0
M  END
> <s_m_source_file>
AV-unprocessed.smi

> <i_m_source_file_index>
107

> <i_lp_mmshare_version>
43012

> <i_f3d_flags>
0

> <s_epik_input>
Tz1jMVtuSF1jKD1PKW4oW2NIXWMxW0NIM10pW0NAQEhdMltDSDJdW0NAQEhdKFtPSF0pW0NASF0oTzIpW0NIMl1bT0hd

> <s_epik_cmdline>
J2VwaWtfcHl0aG9uJywgJy1waCcsICc3LjAnLCAnLXRuJywgJzgnLCAnLW1hJywgJzIwMCcsICctbWV0YWxfYmluZGluZycsICctaW1hZScsICc8aW5maWxlLm1hZT4nLCAnLW9tYWUnLCAnPG91dGZpbGUubWFlPic=

> <r_lp_tautomer_probability>
0.999537

> <r_epik_Ionization_Penalty>
0.00121888

> <r_epik_Ionization_Penalty_Charging>
0.00121876

> <r_epik_Ionization_Penalty_Neutral>
1.19946e-07

> <r_epik_State_Penalty>
0.000805124

> <r_epik_Charging_Adjusted_Penalty>
0.00202389

> <i_epik_Tot_Q>
0

> <i_epik_Tot_abs_Q>
0

> <r_epik_Metal_State_Penalty>
0.662472

> <b_epik_Metal_Only>
0

> <s_epik_Chemistry_Notes>
This compound contains an acetal/aminal-like group ( X-CH(R)-Y where X, Y are N, S, or O) that may be acid/base labile, releasing an aldehyde.

> <s_lp_Force_Field>
OPLS_2005

> <r_lp_Energy>
26.1821

> <b_lp_Chiralities_Consistent>
1

> <s_lp_Variant>
AV-unprocessed.smi:107-7

> <Gold.Version>
5.8.1

> <Gold.Id.Protein>
6NUR|6NUR_protein|mol2

> <Gold.PLP.Fitness>
41.2994

> <Gold.PLP.PLP>
-31.3158

> <Gold.PLP.part.hbond>
-4.6691

> <Gold.PLP.part.metal>
0.0000

> <Gold.PLP.part.buried>
-4.1863

> <Gold.PLP.part.nonpolar>
-22.5246

> <Gold.PLP.part.repulsive>
0.4371

> <Gold.PLP.ligand.clash>
0.0000

> <Gold.PLP.ligand.torsion>
0.4823

> <Gold.PLP.Chemscore.Hbond>
3.6160

> <Gold.PLP.Chemscore.CHOScore>
0.0000

> <Gold.PLP.Chemscore.Metal>
0.0000

> <Gold.Chemscore.Hbonds>
donor molecule, donor type, donor heavy atom, donor atom, acceptor molecule, acceptor atom, score
      L1  H     8    27       P1  7957  0.78
      L1  H    11    31       P1  7948  1.00
      L1  H    15    18       P1  8028  1.00
      P1  H  7989  7998       L1    14  0.78

> <Gold.PLP.Chemscore.Internal.Correction>
0.1003

> <Gold.Rescore>
     Score         DG    S(hbond)    S(metal)    S(lipo)     H(rot)  DE(clash)    DE(int)     intcor
     11.80     -15.70       3.39        0.00      50.15       2.73       0.03       3.88       ----

> <Gold.Chemscore.Fitness>
11.7969

> <Gold.Chemscore.DG>
-15.6980

> <Gold.Chemscore.ZeroCoef>
-5.4800

> <Gold.Chemscore.Hbond>
3.3914

> <Gold.Chemscore.Metal>
0.0000

> <Gold.Chemscore.Lipo>
50.1503

> <Gold.Chemscore.Internal_Hbond>
0.0000

> <Gold.Chemscore.DEClash>
0.0252

> <Gold.Chemscore.DEInternal>
3.8758

> <Gold.Chemscore.Rot>
2.7253

> <Gold.Chemscore.Internal.Correction>
   9.000000E+99

> <Gold.Chemscore.Hbonds>
donor molecule, donor type, donor heavy atom, donor atom, acceptor molecule, acceptor atom, score
      L1  H     8    27       P1  7957  0.26
      L1  H    11    31       P1  7948  0.94
      L1  H    15    18       P1  8028  0.94
      P1  H  7989  7998       L1    14  0.57

> <Gold.Chemscore.Hbond.Weighted>
-11.3272

> <Gold.Chemscore.Metal.Weighted>
-0.0000

> <Gold.Chemscore.Lipo.Weighted>
-5.8676

> <Gold.Chemscore.Internal_Hbond.Weighted>
0.0000

> <Gold.Chemscore.DEClash.Weighted>
0.0252

> <Gold.Chemscore.DEInternal.Weighted>
3.8758

> <Gold.Chemscore.Rot.Weighted>
6.9769

> <Gold.Chemscore.Internal.Correction.Weighted>
   9.000000E+99

> <Gold.Protein.RotatedTorsions>
[ 6907 6896 6895 6894 ] final  -10.61 input  -60.11 | X-H torsion
[ 7974 7965 7964 7962 ] final  114.89 input  175.53 | X-H torsion
[ 8008 7997 7996 7995 ] final  178.67 input   59.86 | X-H torsion
[ 10167 10162 10161 10158 ] final  178.25 input  -65.29 | X-H torsion
[ 10718 10713 10712 10709 ] final   99.07 input   66.30 | X-H torsion
[ 10763 10752 10751 10750 ] final   22.72 input  -60.55 | X-H torsion
[ 11005 11000 10999 10996 ] final  -66.97 input  -57.11 | X-H torsion

> <Gold.Protein.ActiveResidues>
 VAL166  LYS551  ARG553  GLY616  TRP617  ASP618  TYR619  PRO620  LYS621  CYS622 
 ASP623  PHE694  ASN695  SER759  ASP760  ASP761  ALA762  ILE779  LEU786  VAL792 
 PHE793  MET794  SER795  GLU796  ALA797  LYS798  CYS799  TRP800  GLU811  SER814 

> <Gold.Protein.RotatedAtoms>
  151.3992  135.0968  159.9550 H   0  0  0  0  0  0  0  0  0  0  0  0  # atno 6907 bound_to 6896
  152.5056  133.8905  159.7402 H   0  0  0  0  0  0  0  0  0  0  0  0  # atno 6908 bound_to 6896
  150.9375  133.6638  159.2826 H   0  0  0  0  0  0  0  0  0  0  0  0  # atno 6909 bound_to 6896
  145.1988  139.2962  143.4329 H   0  0  0  0  0  0  0  0  0  0  0  0  # atno 7974 bound_to 7965
  156.0520  140.1327  157.0039 H   0  0  0  0  0  0  0  0  0  0  0  0  # atno 8008 bound_to 7997
  154.4439  140.1009  156.6461 H   0  0  0  0  0  0  0  0  0  0  0  0  # atno 8009 bound_to 7997
  155.5508  140.3463  155.4470 H   0  0  0  0  0  0  0  0  0  0  0  0  # atno 8010 bound_to 7997
  139.5286  144.2702  152.0634 H   0  0  0  0  0  0  0  0  0  0  0  0  # atno 10167 bound_to 10162
  157.6883  131.0659  150.4892 H   0  0  0  0  0  0  0  0  0  0  0  0  # atno 10718 bound_to 10713
  153.0893  135.6642  153.9885 H   0  0  0  0  0  0  0  0  0  0  0  0  # atno 10763 bound_to 10752
  153.9486  135.2986  155.3441 H   0  0  0  0  0  0  0  0  0  0  0  0  # atno 10764 bound_to 10752
  154.7306  135.5124  153.9030 H   0  0  0  0  0  0  0  0  0  0  0  0  # atno 10765 bound_to 10752
  141.1496  133.6710  156.6221 H   0  0  0  0  0  0  0  0  0  0  0  0  # atno 11005 bound_to 11000
  146.3422  140.2226  142.8591 LP  0  0  0  0  0  0  0  0  0  0  0  0  # atno 17320 bound_to 7965
  144.9968  140.8596  143.5306 LP  0  0  0  0  0  0  0  0  0  0  0  0  # atno 17321 bound_to 7965
  140.2162  144.4513  150.6363 LP  0  0  0  0  0  0  0  0  0  0  0  0  # atno 17342 bound_to 10162
  140.6448  143.2211  151.6209 LP  0  0  0  0  0  0  0  0  0  0  0  0  # atno 17343 bound_to 10162
  156.5220  130.4164  149.6246 LP  0  0  0  0  0  0  0  0  0  0  0  0  # atno 17370 bound_to 10713
  156.3146  130.7247  151.2147 LP  0  0  0  0  0  0  0  0  0  0  0  0  # atno 17371 bound_to 10713
  140.3532  134.7750  157.4482 LP  0  0  0  0  0  0  0  0  0  0  0  0  # atno 17394 bound_to 11000
  140.0844  134.5687  155.8507 LP  0  0  0  0  0  0  0  0  0  0  0  0  # atno 17395 bound_to 11000

$$$$
