AV-unprocessed.smi:2143|AV-procd|sdf|8724|dock10
  -GOLD-   2272011493D 1   1.00000     0.00000
 Structure written by MMmdl.
 44 45  0  0  0  0  0  0  0  0  1 V2000
  153.4046  141.8441  161.1234 C   0  0  0  0  0  0  0  0  0  0  0  0
  153.0744  142.2766  159.6825 C   0  0  2  0  0  0  0  0  0  0  0  0
  152.4785  143.6987  159.6969 C   0  0  0  0  0  0  0  0  0  0  0  0
  152.1622  144.1989  158.2836 C   0  0  0  0  0  0  0  0  0  0  0  0
  151.2029  143.2388  157.5751 C   0  0  0  0  0  0  0  0  0  0  0  0
  151.7728  141.8073  157.5275 C   0  0  2  0  0  0  0  0  0  0  0  0
  150.8022  140.9256  156.8810 N   0  0  0  0  0  0  0  0  0  0  0  0
  151.0314  140.1867  155.7851 C   0  0  0  0  0  0  0  0  0  0  0  0
  152.1182  140.1534  155.2062 O   0  0  0  0  0  0  0  0  0  0  0  0
  149.8516  139.3460  155.2794 C   0  0  0  0  0  0  0  0  0  0  0  0
  149.6871  138.0909  156.0238 N   0  0  0  0  0  0  0  0  0  0  0  0
  148.9910  138.0868  157.2189 C   0  0  0  0  0  0  0  0  0  0  0  0
  148.8124  136.9801  157.9729 C   0  0  0  0  0  0  0  0  0  0  0  0
  149.3568  135.6935  157.5560 C   0  0  0  0  0  0  0  0  0  0  0  0
  149.2349  134.6658  158.2234 O   0  0  0  0  0  0  0  0  0  0  0  0
  150.0508  135.7227  156.3224 N   0  0  0  0  0  0  0  0  0  0  0  0
  150.6451  134.4968  155.8305 C   0  0  0  0  0  0  0  0  0  0  0  0
  150.2467  136.8863  155.5459 C   0  0  0  0  0  0  0  0  0  0  0  0
  150.8867  136.8661  154.4914 O   0  0  0  0  0  0  0  0  0  0  0  0
  152.1333  141.2820  158.9442 C   0  0  1  0  0  0  0  0  0  0  0  0
  152.7359  139.8617  158.8718 C   0  0  0  0  0  0  0  0  0  0  0  0
  152.4979  141.6928  161.7098 H   0  0  0  0  0  0  0  0  0  0  0  0
  154.0036  142.6009  161.6307 H   0  0  0  0  0  0  0  0  0  0  0  0
  153.9823  140.9208  161.1492 H   0  0  0  0  0  0  0  0  0  0  0  0
  154.0158  142.3213  159.1323 H   0  0  0  0  0  0  0  0  0  0  0  0
  151.5690  143.7125  160.2993 H   0  0  0  0  0  0  0  0  0  0  0  0
  153.1732  144.3905  160.1744 H   0  0  0  0  0  0  0  0  0  0  0  0
  151.7230  145.1957  158.3310 H   0  0  0  0  0  0  0  0  0  0  0  0
  153.0844  144.2923  157.7085 H   0  0  0  0  0  0  0  0  0  0  0  0
  150.2421  143.2384  158.0920 H   0  0  0  0  0  0  0  0  0  0  0  0
  151.0090  143.6025  156.5653 H   0  0  0  0  0  0  0  0  0  0  0  0
  152.6892  141.8203  156.9340 H   0  0  0  0  0  0  0  0  0  0  0  0
  149.8813  140.8862  157.2932 H   0  0  0  0  0  0  0  0  0  0  0  0
  148.9462  139.9492  155.3579 H   0  0  0  0  0  0  0  0  0  0  0  0
  149.9735  139.1334  154.2155 H   0  0  0  0  0  0  0  0  0  0  0  0
  148.5724  139.0169  157.5750 H   0  0  0  0  0  0  0  0  0  0  0  0
  148.2626  137.0486  158.9001 H   0  0  0  0  0  0  0  0  0  0  0  0
  150.4671  134.4347  154.7555 H   0  0  0  0  0  0  0  0  0  0  0  0
  150.1843  133.6295  156.3032 H   0  0  0  0  0  0  0  0  0  0  0  0
  151.7108  134.5487  156.0573 H   0  0  0  0  0  0  0  0  0  0  0  0
  151.2070  141.2150  159.5175 H   0  0  0  0  0  0  0  0  0  0  0  0
  153.6948  139.8671  158.3525 H   0  0  0  0  0  0  0  0  0  0  0  0
  152.0810  139.1675  158.3457 H   0  0  0  0  0  0  0  0  0  0  0  0
  152.8936  139.4365  159.8620 H   0  0  0  0  0  0  0  0  0  0  0  0
  1  2  1  0  0  0  0
  1 22  1  0  0  0  0
  1 23  1  0  0  0  0
  1 24  1  0  0  0  0
  2 20  1  0  0  0  0
  2  3  1  0  0  0  0
  2 25  1  0  0  0  0
  3  4  1  0  0  0  0
  3 26  1  0  0  0  0
  3 27  1  0  0  0  0
  4  5  1  0  0  0  0
  4 28  1  0  0  0  0
  4 29  1  0  0  0  0
  5  6  1  0  0  0  0
  5 30  1  0  0  0  0
  5 31  1  0  0  0  0
  6  7  1  0  0  0  0
  6 20  1  0  0  0  0
  6 32  1  0  0  0  0
  7  8  1  0  0  0  0
  7 33  1  0  0  0  0
  8  9  2  0  0  0  0
  8 10  1  0  0  0  0
 10 11  1  0  0  0  0
 10 34  1  0  0  0  0
 10 35  1  0  0  0  0
 11 18  1  0  0  0  0
 11 12  1  0  0  0  0
 12 13  2  0  0  0  0
 12 36  1  0  0  0  0
 13 14  1  0  0  0  0
 13 37  1  0  0  0  0
 14 15  2  0  0  0  0
 14 16  1  0  0  0  0
 16 17  1  0  0  0  0
 16 18  1  0  0  0  0
 17 38  1  0  0  0  0
 17 39  1  0  0  0  0
 17 40  1  0  0  0  0
 18 19  2  0  0  0  0
 20 21  1  0  0  0  0
 20 41  1  0  0  0  0
 21 42  1  0  0  0  0
 21 43  1  0  0  0  0
 21 44  1  0  0  0  0
M  END
> <s_m_source_file>
AV-unprocessed.smi

> <i_m_source_file_index>
2143

> <i_lp_mmshare_version>
43012

> <i_f3d_flags>
0

> <s_epik_input>
W0NIM11bQ0BASF0xW0NIMl1bQ0gyXVtDSDJdW0NASF0oW0NASF0xW0NIM10pW05IXUMoPU8pW0NIMl1uMltjSF1bY0hdYyg9TyluKFtDSDNdKWMyPU8=

> <s_epik_cmdline>
J2VwaWtfcHl0aG9uJywgJy1waCcsICc3LjAnLCAnLXRuJywgJzgnLCAnLW1hJywgJzIwMCcsICctbWV0YWxfYmluZGluZycsICctaW1hZScsICc8aW5maWxlLm1hZT4nLCAnLW9tYWUnLCAnPG91dGZpbGUubWFlPic=

> <r_lp_tautomer_probability>
1

> <r_epik_Ionization_Penalty>
3.18445e-08

> <r_epik_Ionization_Penalty_Charging>
1.27977e-08

> <r_epik_Ionization_Penalty_Neutral>
1.90469e-08

> <r_epik_State_Penalty>
-0

> <r_epik_Charging_Adjusted_Penalty>
1.27977e-08

> <i_epik_Tot_Q>
0

> <i_epik_Tot_abs_Q>
0

> <r_epik_Metal_State_Penalty>
-0

> <b_epik_Metal_Only>
0

> <s_lp_Force_Field>
OPLS_2005

> <r_lp_Energy>
20.5946

> <b_lp_Chiralities_Consistent>
1

> <s_lp_Variant>
AV-unprocessed.smi:2143-3

> <Gold.Version>
5.8.1

> <Gold.Id.Protein>
6NUR|6NUR_protein|mol2

> <Gold.PLP.Fitness>
46.3934

> <Gold.PLP.PLP>
-38.3908

> <Gold.PLP.part.hbond>
-4.0000

> <Gold.PLP.part.metal>
0.0000

> <Gold.PLP.part.buried>
-5.3884

> <Gold.PLP.part.nonpolar>
-29.3813

> <Gold.PLP.part.repulsive>
0.2450

> <Gold.PLP.ligand.clash>
0.0000

> <Gold.PLP.ligand.torsion>
0.6582

> <Gold.PLP.Chemscore.Hbond>
3.1037

> <Gold.PLP.Chemscore.CHOScore>
0.0000

> <Gold.PLP.Chemscore.Metal>
0.0000

> <Gold.Chemscore.Hbonds>
donor molecule, donor type, donor heavy atom, donor atom, acceptor molecule, acceptor atom, score
      P1  H  6896  6908       L1    15  1.00
      P1  H  7989  7998       L1     9  0.72
      P1  H  7997  8010       L1     9  0.03
      P1  H 10752 10765       L1    19  0.08

> <Gold.PLP.Chemscore.Internal.Correction>
0.0078

> <Gold.Rescore>
     Score         DG    S(hbond)    S(metal)    S(lipo)     H(rot)  DE(clash)    DE(int)     intcor
     21.26     -22.18       2.80        0.00      95.98       1.51       0.30       0.63       ----

> <Gold.Chemscore.Fitness>
21.2589

> <Gold.Chemscore.DG>
-22.1847

> <Gold.Chemscore.ZeroCoef>
-5.4800

> <Gold.Chemscore.Hbond>
2.7989

> <Gold.Chemscore.Metal>
0.0000

> <Gold.Chemscore.Lipo>
95.9803

> <Gold.Chemscore.Internal_Hbond>
0.0000

> <Gold.Chemscore.DEClash>
0.2974

> <Gold.Chemscore.DEInternal>
0.6285

> <Gold.Chemscore.Rot>
1.5131

> <Gold.Chemscore.Internal.Correction>
   9.000000E+99

> <Gold.Chemscore.Hbonds>
donor molecule, donor type, donor heavy atom, donor atom, acceptor molecule, acceptor atom, score
      P1  H  6896  6908       L1    15  0.95
      P1  H  7989  7998       L1     9  0.25
      P1  H  7997  8010       L1     9  0.09
      P1  H 10752 10765       L1    19  0.11

> <Gold.Chemscore.Hbond.Weighted>
-9.3484

> <Gold.Chemscore.Metal.Weighted>
-0.0000

> <Gold.Chemscore.Lipo.Weighted>
-11.2297

> <Gold.Chemscore.Internal_Hbond.Weighted>
0.0000

> <Gold.Chemscore.DEClash.Weighted>
0.2974

> <Gold.Chemscore.DEInternal.Weighted>
0.6285

> <Gold.Chemscore.Rot.Weighted>
3.8734

> <Gold.Chemscore.Internal.Correction.Weighted>
   9.000000E+99

> <Gold.Protein.RotatedTorsions>
[ 6907 6896 6895 6894 ] final  132.37 input  -60.11 | X-H torsion
[ 7974 7965 7964 7962 ] final  -48.16 input  175.53 | X-H torsion
[ 8008 7997 7996 7995 ] final   91.18 input   59.86 | X-H torsion
[ 10167 10162 10161 10158 ] final  113.23 input  -65.29 | X-H torsion
[ 10718 10713 10712 10709 ] final  136.16 input   66.30 | X-H torsion
[ 10763 10752 10751 10750 ] final  156.96 input  -60.55 | X-H torsion
[ 11005 11000 10999 10996 ] final  -23.21 input  -57.11 | X-H torsion

> <Gold.Protein.ActiveResidues>
 VAL166  LYS551  ARG553  GLY616  TRP617  ASP618  TYR619  PRO620  LYS621  CYS622 
 ASP623  PHE694  ASN695  SER759  ASP760  ASP761  ALA762  ILE779  LEU786  VAL792 
 PHE793  MET794  SER795  GLU796  ALA797  LYS798  CYS799  TRP800  GLU811  SER814 

> <Gold.Protein.RotatedAtoms>
  152.3331  133.5981  159.5823 H   0  0  0  0  0  0  0  0  0  0  0  0  # atno 6907 bound_to 6896
  150.7434  133.9837  159.3593 H   0  0  0  0  0  0  0  0  0  0  0  0  # atno 6908 bound_to 6896
  151.7710  135.0787  160.0411 H   0  0  0  0  0  0  0  0  0  0  0  0  # atno 6909 bound_to 6896
  145.9541  140.7544  142.9490 H   0  0  0  0  0  0  0  0  0  0  0  0  # atno 7974 bound_to 7965
  156.0207  140.3340  155.7036 H   0  0  0  0  0  0  0  0  0  0  0  0  # atno 8008 bound_to 7997
  155.6026  140.0657  157.2746 H   0  0  0  0  0  0  0  0  0  0  0  0  # atno 8009 bound_to 7997
  154.4315  140.1807  156.1177 H   0  0  0  0  0  0  0  0  0  0  0  0  # atno 8010 bound_to 7997
  139.6477  144.7127  151.2110 H   0  0  0  0  0  0  0  0  0  0  0  0  # atno 10167 bound_to 10162
  157.4495  131.1065  151.0050 H   0  0  0  0  0  0  0  0  0  0  0  0  # atno 10718 bound_to 10713
  154.1927  135.2794  155.3017 H   0  0  0  0  0  0  0  0  0  0  0  0  # atno 10763 bound_to 10752
  154.5916  135.5558  153.7288 H   0  0  0  0  0  0  0  0  0  0  0  0  # atno 10764 bound_to 10752
  153.0108  135.6369  154.2065 H   0  0  0  0  0  0  0  0  0  0  0  0  # atno 10765 bound_to 10752
  140.8730  133.7707  156.0210 H   0  0  0  0  0  0  0  0  0  0  0  0  # atno 11005 bound_to 11000
  144.6801  140.2483  143.7335 LP  0  0  0  0  0  0  0  0  0  0  0  0  # atno 17320 bound_to 7965
  145.8131  139.2011  143.1982 LP  0  0  0  0  0  0  0  0  0  0  0  0  # atno 17321 bound_to 7965
  140.7522  143.6203  150.8519 LP  0  0  0  0  0  0  0  0  0  0  0  0  # atno 17342 bound_to 10162
  139.9848  143.5912  152.2931 LP  0  0  0  0  0  0  0  0  0  0  0  0  # atno 17343 bound_to 10162
  157.0885  130.5932  149.5434 LP  0  0  0  0  0  0  0  0  0  0  0  0  # atno 17370 bound_to 10713
  155.9981  130.5054  150.7559 LP  0  0  0  0  0  0  0  0  0  0  0  0  # atno 17371 bound_to 10713
  140.8550  134.2908  157.5259 LP  0  0  0  0  0  0  0  0  0  0  0  0  # atno 17394 bound_to 11000
  139.8713  134.9488  156.4007 LP  0  0  0  0  0  0  0  0  0  0  0  0  # atno 17395 bound_to 11000

$$$$
