AV-unprocessed.smi:2991|AV-procd|sdf|11398|dock6
  -GOLD-   2272016323D 1   1.00000     0.00000
 Structure written by MMmdl.
 37 38  0  0  0  0  0  0  0  0  1 V2000
  150.5532  130.7900  154.4653 C   0  0  0  0  0  0  0  0  0  0  0  0
  150.8369  132.1980  154.9540 C   0  0  0  0  0  0  0  0  0  0  0  0
  151.7595  132.3015  155.9354 N   0  0  0  0  0  0  0  0  0  0  0  0
  152.0541  133.5320  156.4018 C   0  0  0  0  0  0  0  0  0  0  0  0
  151.4462  134.7084  155.9235 C   0  0  0  0  0  0  0  0  0  0  0  0
  150.4683  134.6029  154.9053 C   0  0  0  0  0  0  0  0  0  0  0  0
  149.8072  135.7253  154.3322 N   0  0  0  0  0  0  0  0  0  0  0  0
  149.3991  136.8597  154.9257 C   0  0  0  0  0  0  0  0  0  0  0  0
  149.5215  137.1252  156.1215 O   0  0  0  0  0  0  0  0  0  0  0  0
  148.8145  137.6807  154.0414 N   0  0  0  0  0  0  0  0  0  0  0  0
  148.2262  138.9867  154.3423 C   0  0  1  0  0  0  0  0  0  0  0  0
  149.1672  140.1156  153.8646 C   0  0  0  0  0  0  0  0  0  0  0  0
  148.9460  141.4579  154.5794 C   0  0  0  0  0  0  0  0  0  0  0  0
  147.5632  142.0878  154.3555 C   0  0  0  0  0  0  0  0  0  0  0  0
  146.4060  141.2663  154.9493 C   0  0  0  0  0  0  0  0  0  0  0  0
  146.0324  140.1357  154.1086 N   0  0  0  0  0  0  0  0  0  0  0  0
  146.7936  139.0797  153.7834 C   0  0  0  0  0  0  0  0  0  0  0  0
  146.3559  138.2003  153.0417 O   0  0  0  0  0  0  0  0  0  0  0  0
  150.1674  133.3153  154.4017 C   0  0  0  0  0  0  0  0  0  0  0  0
  148.9999  133.1086  153.1388 Cl  0  0  0  0  0  0  0  0  0  0  0  0
  149.5036  130.5397  154.6206 H   0  0  0  0  0  0  0  0  0  0  0  0
  151.1570  130.0517  154.9946 H   0  0  0  0  0  0  0  0  0  0  0  0
  150.7755  130.7057  153.4013 H   0  0  0  0  0  0  0  0  0  0  0  0
  152.8043  133.5819  157.1772 H   0  0  0  0  0  0  0  0  0  0  0  0
  151.7504  135.6583  156.3345 H   0  0  0  0  0  0  0  0  0  0  0  0
  149.5590  135.6235  153.3588 H   0  0  0  0  0  0  0  0  0  0  0  0
  148.7478  137.3739  153.0816 H   0  0  0  0  0  0  0  0  0  0  0  0
  148.1340  139.0493  155.4283 H   0  0  0  0  0  0  0  0  0  0  0  0
  150.2042  139.8248  154.0386 H   0  0  0  0  0  0  0  0  0  0  0  0
  149.0772  140.2469  152.7853 H   0  0  0  0  0  0  0  0  0  0  0  0
  149.1213  141.3333  155.6487 H   0  0  0  0  0  0  0  0  0  0  0  0
  149.7056  142.1603  154.2350 H   0  0  0  0  0  0  0  0  0  0  0  0
  147.5621  143.0705  154.8283 H   0  0  0  0  0  0  0  0  0  0  0  0
  147.3952  142.2683  153.2930 H   0  0  0  0  0  0  0  0  0  0  0  0
  146.6382  140.9291  155.9604 H   0  0  0  0  0  0  0  0  0  0  0  0
  145.5251  141.9028  155.0349 H   0  0  0  0  0  0  0  0  0  0  0  0
  145.0996  140.1607  153.7224 H   0  0  0  0  0  0  0  0  0  0  0  0
  1  2  1  0  0  0  0
  1 21  1  0  0  0  0
  1 22  1  0  0  0  0
  1 23  1  0  0  0  0
  2 19  1  0  0  0  0
  2  3  2  0  0  0  0
  3  4  1  0  0  0  0
  4  5  2  0  0  0  0
  4 24  1  0  0  0  0
  5  6  1  0  0  0  0
  5 25  1  0  0  0  0
  6  7  1  0  0  0  0
  6 19  2  0  0  0  0
  7  8  1  0  0  0  0
  7 26  1  0  0  0  0
  8  9  2  0  0  0  0
  8 10  1  0  0  0  0
 10 11  1  0  0  0  0
 10 27  1  0  0  0  0
 11 17  1  0  0  0  0
 11 12  1  0  0  0  0
 11 28  1  0  0  0  0
 12 13  1  0  0  0  0
 12 29  1  0  0  0  0
 12 30  1  0  0  0  0
 13 14  1  0  0  0  0
 13 31  1  0  0  0  0
 13 32  1  0  0  0  0
 14 15  1  0  0  0  0
 14 33  1  0  0  0  0
 14 34  1  0  0  0  0
 15 16  1  0  0  0  0
 15 35  1  0  0  0  0
 15 36  1  0  0  0  0
 16 17  1  0  0  0  0
 16 37  1  0  0  0  0
 17 18  2  0  0  0  0
 19 20  1  0  0  0  0
M  END
> <s_m_source_file>
AV-unprocessed.smi

> <i_m_source_file_index>
2991

> <i_lp_mmshare_version>
43012

> <i_f3d_flags>
0

> <s_epik_input>
W0NIM11jMW5bY0hdW2NIXWMoYzFDbClbTkhdQyg9TylbTkhdW0NAQEhdMltDSDJdW0NIMl1bQ0gyXVtDSDJdW05IXUMyPU8=

> <s_epik_cmdline>
J2VwaWtfcHl0aG9uJywgJy1waCcsICc3LjAnLCAnLXRuJywgJzgnLCAnLW1hJywgJzIwMCcsICctbWV0YWxfYmluZGluZycsICctaW1hZScsICc8aW5maWxlLm1hZT4nLCAnLW9tYWUnLCAnPG91dGZpbGUubWFlPic=

> <r_epik_Ionization_Penalty>
0.00809016

> <r_epik_Ionization_Penalty_Charging>
0

> <r_epik_Ionization_Penalty_Neutral>
0.00809016

> <r_epik_State_Penalty>
0.00605324

> <r_epik_Charging_Adjusted_Penalty>
0.00605324

> <i_epik_Tot_Q>
0

> <i_epik_Tot_abs_Q>
0

> <r_epik_Metal_State_Penalty>
0.00597181

> <b_epik_Metal_Only>
0

> <s_lp_Force_Field>
OPLS_2005

> <r_lp_Energy>
16.2223

> <b_lp_Chiralities_Consistent>
1

> <s_lp_Variant>
AV-unprocessed.smi:2991-2

> <Gold.Version>
5.8.1

> <Gold.Id.Protein>
6NUR|6NUR_protein|mol2

> <Gold.PLP.Fitness>
39.6271

> <Gold.PLP.PLP>
-31.3979

> <Gold.PLP.part.hbond>
-3.0000

> <Gold.PLP.part.metal>
0.0000

> <Gold.PLP.part.buried>
-1.3179

> <Gold.PLP.part.nonpolar>
-27.6393

> <Gold.PLP.part.repulsive>
0.3429

> <Gold.PLP.ligand.clash>
0.0000

> <Gold.PLP.ligand.torsion>
0.3989

> <Gold.PLP.Chemscore.Hbond>
3.0000

> <Gold.PLP.Chemscore.CHOScore>
0.0000

> <Gold.PLP.Chemscore.Metal>
0.0000

> <Gold.Chemscore.Hbonds>
donor molecule, donor type, donor heavy atom, donor atom, acceptor molecule, acceptor atom, score
      L1  H     7    26       P1  7948  0.75
      L1  H    10    27       P1  7948  1.00
      L1  H    16    37       P1 10175  1.00

> <Gold.PLP.Chemscore.Internal.Correction>
0.0270

> <Gold.Rescore>
     Score         DG    S(hbond)    S(metal)    S(lipo)     H(rot)  DE(clash)    DE(int)     intcor
     18.95     -19.27       2.76        0.00      60.94       1.00       0.05       0.28       ----

> <Gold.Chemscore.Fitness>
18.9469

> <Gold.Chemscore.DG>
-19.2729

> <Gold.Chemscore.ZeroCoef>
-5.4800

> <Gold.Chemscore.Hbond>
2.7613

> <Gold.Chemscore.Metal>
0.0000

> <Gold.Chemscore.Lipo>
60.9415

> <Gold.Chemscore.Internal_Hbond>
0.0000

> <Gold.Chemscore.DEClash>
0.0456

> <Gold.Chemscore.DEInternal>
0.2805

> <Gold.Chemscore.Rot>
1.0000

> <Gold.Chemscore.Internal.Correction>
   9.000000E+99

> <Gold.Chemscore.Hbonds>
donor molecule, donor type, donor heavy atom, donor atom, acceptor molecule, acceptor atom, score
      L1  H     7    26       P1  7948  0.09
      L1  H    10    27       P1  7948  0.97
      L1  H    16    37       P1 10175  0.99

> <Gold.Chemscore.Hbond.Weighted>
-9.2228

> <Gold.Chemscore.Metal.Weighted>
-0.0000

> <Gold.Chemscore.Lipo.Weighted>
-7.1302

> <Gold.Chemscore.Internal_Hbond.Weighted>
0.0000

> <Gold.Chemscore.DEClash.Weighted>
0.0456

> <Gold.Chemscore.DEInternal.Weighted>
0.2805

> <Gold.Chemscore.Rot.Weighted>
2.5600

> <Gold.Chemscore.Internal.Correction.Weighted>
   9.000000E+99

> <Gold.Protein.RotatedTorsions>
[ 6907 6896 6895 6894 ] final -150.63 input  -60.11 | X-H torsion
[ 7974 7965 7964 7962 ] final  169.54 input  175.53 | X-H torsion
[ 8008 7997 7996 7995 ] final    2.18 input   59.86 | X-H torsion
[ 10167 10162 10161 10158 ] final    4.91 input  -65.29 | X-H torsion
[ 10718 10713 10712 10709 ] final -126.08 input   66.30 | X-H torsion
[ 10763 10752 10751 10750 ] final  172.21 input  -60.55 | X-H torsion
[ 11005 11000 10999 10996 ] final   43.29 input  -57.11 | X-H torsion

> <Gold.Protein.ActiveResidues>
 VAL166  LYS551  ARG553  GLY616  TRP617  ASP618  TYR619  PRO620  LYS621  CYS622 
 ASP623  PHE694  ASN695  SER759  ASP760  ASP761  ALA762  ILE779  LEU786  VAL792 
 PHE793  MET794  SER795  GLU796  ALA797  LYS798  CYS799  TRP800  GLU811  SER814 

> <Gold.Protein.RotatedAtoms>
  151.2013  133.4609  159.2596 H   0  0  0  0  0  0  0  0  0  0  0  0  # atno 6907 bound_to 6896
  151.1066  135.0003  159.8484 H   0  0  0  0  0  0  0  0  0  0  0  0  # atno 6908 bound_to 6896
  152.5447  134.1936  159.8736 H   0  0  0  0  0  0  0  0  0  0  0  0  # atno 6909 bound_to 6896
  144.7352  139.9069  143.6413 H   0  0  0  0  0  0  0  0  0  0  0  0  # atno 7974 bound_to 7965
  154.6885  140.2648  155.6836 H   0  0  0  0  0  0  0  0  0  0  0  0  # atno 8008 bound_to 7997
  156.2723  140.2796  156.1378 H   0  0  0  0  0  0  0  0  0  0  0  0  # atno 8009 bound_to 7997
  155.0930  140.0373  157.2664 H   0  0  0  0  0  0  0  0  0  0  0  0  # atno 8010 bound_to 7997
  140.6510  143.7545  150.7575 H   0  0  0  0  0  0  0  0  0  0  0  0  # atno 10167 bound_to 10162
  156.1733  130.6682  151.0209 H   0  0  0  0  0  0  0  0  0  0  0  0  # atno 10718 bound_to 10713
  154.4228  135.2758  155.1964 H   0  0  0  0  0  0  0  0  0  0  0  0  # atno 10763 bound_to 10752
  154.3903  135.6068  153.5843 H   0  0  0  0  0  0  0  0  0  0  0  0  # atno 10764 bound_to 10752
  152.9833  135.5901  154.4527 H   0  0  0  0  0  0  0  0  0  0  0  0  # atno 10765 bound_to 10752
  140.1659  134.4283  155.8287 H   0  0  0  0  0  0  0  0  0  0  0  0  # atno 11005 bound_to 11000
  146.1030  139.4027  143.0335 LP  0  0  0  0  0  0  0  0  0  0  0  0  # atno 17320 bound_to 7965
  145.7552  140.9957  143.1229 LP  0  0  0  0  0  0  0  0  0  0  0  0  # atno 17321 bound_to 7965
  140.1196  143.4624  152.2321 LP  0  0  0  0  0  0  0  0  0  0  0  0  # atno 17342 bound_to 10162
  139.5725  144.7470  151.3853 LP  0  0  0  0  0  0  0  0  0  0  0  0  # atno 17343 bound_to 10162
  157.6818  131.0836  150.7349 LP  0  0  0  0  0  0  0  0  0  0  0  0  # atno 17370 bound_to 10713
  156.7407  130.4738  149.5478 LP  0  0  0  0  0  0  0  0  0  0  0  0  # atno 17371 bound_to 10713
  141.2213  133.6934  156.7677 LP  0  0  0  0  0  0  0  0  0  0  0  0  # atno 17394 bound_to 11000
  140.2434  134.8596  157.3596 LP  0  0  0  0  0  0  0  0  0  0  0  0  # atno 17395 bound_to 11000

$$$$
