AV-unprocessed.smi:564|AV-procd|sdf|2947|dock3
  -GOLD-   2262023443D 1   1.00000     0.00000
 Structure written by MMmdl.
 50 51  0  0  0  0  0  0  0  0  2 V2000
  152.9264  137.6317  156.4249 C   0  0  0  0  0  0  0  0  0  0  0  0
  152.1631  138.9228  156.3420 C   0  0  0  0  0  0  0  0  0  0  0  0
  152.5027  139.9234  157.1363 N   0  0  0  0  0  0  0  0  0  0  0  0
  151.6381  140.9127  156.8368 N   0  0  0  0  0  0  0  0  0  0  0  0
  151.7342  142.1702  157.5531 C   0  0  0  0  0  0  0  0  0  0  0  0
  150.7558  140.5400  155.8402 C   0  0  0  0  0  0  0  0  0  0  0  0
  149.6950  141.4578  155.3222 C   0  0  0  0  0  0  0  0  0  0  0  0
  151.0651  139.2514  155.4931 C   0  0  0  0  0  0  0  0  0  0  0  0
  150.4110  138.3697  154.4580 C   0  0  0  0  0  0  0  0  0  0  0  0
  148.9137  138.2808  154.7480 C   0  0  0  0  0  0  0  0  0  0  0  0
  148.4513  138.7816  155.7722 O   0  0  0  0  0  0  0  0  0  0  0  0
  148.1729  137.6031  153.8575 N   0  0  0  0  0  0  0  0  0  0  0  0
  146.7617  137.2671  154.0229 C   0  0  0  0  0  0  0  0  0  0  0  0
  146.5142  135.7410  154.0430 C   0  0  0  0  0  0  0  0  0  0  0  0
  146.3061  135.1609  152.6835 N   0  3  2  0  0  0  0  0  0  0  0  0
  145.0519  135.6778  152.0666 C   0  0  0  0  0  0  0  0  0  0  0  0
  144.8962  135.2199  150.6116 C   0  0  0  0  0  0  0  0  0  0  0  0
  144.9235  133.6944  150.5256 C   0  0  0  0  0  0  0  0  0  0  0  0
  146.2135  133.1735  151.1633 C   0  0  0  0  0  0  0  0  0  0  0  0
  146.3904  133.6656  152.6175 C   0  0  1  0  0  0  0  0  0  0  0  0
  147.7246  133.1109  153.1585 C   0  0  0  0  0  0  0  0  0  0  0  0
  153.0012  137.1524  155.4487 H   0  0  0  0  0  0  0  0  0  0  0  0
  152.4348  136.9321  157.1012 H   0  0  0  0  0  0  0  0  0  0  0  0
  153.9424  137.7897  156.7894 H   0  0  0  0  0  0  0  0  0  0  0  0
  150.7404  142.5918  157.7048 H   0  0  0  0  0  0  0  0  0  0  0  0
  152.3384  142.8742  156.9814 H   0  0  0  0  0  0  0  0  0  0  0  0
  152.1977  142.0167  158.5287 H   0  0  0  0  0  0  0  0  0  0  0  0
  149.3343  141.1336  154.3463 H   0  0  0  0  0  0  0  0  0  0  0  0
  150.0699  142.4751  155.2125 H   0  0  0  0  0  0  0  0  0  0  0  0
  148.8440  141.4833  156.0029 H   0  0  0  0  0  0  0  0  0  0  0  0
  150.5578  138.7651  153.4521 H   0  0  0  0  0  0  0  0  0  0  0  0
  150.8370  137.3658  154.4524 H   0  0  0  0  0  0  0  0  0  0  0  0
  148.6355  137.2445  153.0345 H   0  0  0  0  0  0  0  0  0  0  0  0
  146.3744  137.7243  154.9349 H   0  0  0  0  0  0  0  0  0  0  0  0
  146.2124  137.7275  153.2019 H   0  0  0  0  0  0  0  0  0  0  0  0
  147.3864  135.3028  154.5203 H   0  0  0  0  0  0  0  0  0  0  0  0
  145.6708  135.4968  154.6901 H   0  0  0  0  0  0  0  0  0  0  0  0
  144.1944  135.3468  152.6548 H   0  0  0  0  0  0  0  0  0  0  0  0
  145.0424  136.7670  152.0837 H   0  0  0  0  0  0  0  0  0  0  0  0
  143.9622  135.6005  150.1971 H   0  0  0  0  0  0  0  0  0  0  0  0
  145.6991  135.6402  150.0069 H   0  0  0  0  0  0  0  0  0  0  0  0
  144.0574  133.2751  151.0392 H   0  0  0  0  0  0  0  0  0  0  0  0
  144.8601  133.3731  149.4854 H   0  0  0  0  0  0  0  0  0  0  0  0
  146.2126  132.0833  151.1341 H   0  0  0  0  0  0  0  0  0  0  0  0
  147.0651  133.4929  150.5620 H   0  0  0  0  0  0  0  0  0  0  0  0
  145.5788  133.2545  153.2203 H   0  0  0  0  0  0  0  0  0  0  0  0
  147.8347  132.0535  152.9162 H   0  0  0  0  0  0  0  0  0  0  0  0
  147.7968  133.1771  154.2432 H   0  0  0  0  0  0  0  0  0  0  0  0
  148.5769  133.6351  152.7262 H   0  0  0  0  0  0  0  0  0  0  0  0
  147.0702  135.5011  152.1169 H   0  0  0  0  0  0  0  0  0  0  0  0
  1  2  1  0  0  0  0
  1 22  1  0  0  0  0
  1 23  1  0  0  0  0
  1 24  1  0  0  0  0
  2  8  1  0  0  0  0
  2  3  2  0  0  0  0
  3  4  1  0  0  0  0
  4  5  1  0  0  0  0
  4  6  1  0  0  0  0
  5 25  1  0  0  0  0
  5 26  1  0  0  0  0
  5 27  1  0  0  0  0
  6  7  1  0  0  0  0
  6  8  2  0  0  0  0
  7 28  1  0  0  0  0
  7 29  1  0  0  0  0
  7 30  1  0  0  0  0
  8  9  1  0  0  0  0
  9 10  1  0  0  0  0
  9 31  1  0  0  0  0
  9 32  1  0  0  0  0
 10 11  2  0  0  0  0
 10 12  1  0  0  0  0
 12 13  1  0  0  0  0
 12 33  1  0  0  0  0
 13 14  1  0  0  0  0
 13 34  1  0  0  0  0
 13 35  1  0  0  0  0
 14 15  1  0  0  0  0
 14 36  1  0  0  0  0
 14 37  1  0  0  0  0
 15 20  1  0  0  0  0
 15 16  1  0  0  0  0
 15 50  1  0  0  0  0
 16 17  1  0  0  0  0
 16 38  1  0  0  0  0
 16 39  1  0  0  0  0
 17 18  1  0  0  0  0
 17 40  1  0  0  0  0
 17 41  1  0  0  0  0
 18 19  1  0  0  0  0
 18 42  1  0  0  0  0
 18 43  1  0  0  0  0
 19 20  1  0  0  0  0
 19 44  1  0  0  0  0
 19 45  1  0  0  0  0
 20 21  1  0  0  0  0
 20 46  1  0  0  0  0
 21 47  1  0  0  0  0
 21 48  1  0  0  0  0
 21 49  1  0  0  0  0
M  CHG  1  15   1
M  END
> <s_m_source_file>
AV-unprocessed.smi

> <i_m_source_file_index>
564

> <i_lp_mmshare_version>
43012

> <i_f3d_flags>
0

> <s_epik_input>
W0NIM11jMW5uKFtDSDNdKWMoW0NIM10pYzFbQ0gyXUMoPU8pW05IXVtDSDJdW0NIMl1OMltDSDJdW0NIMl1bQ0gyXVtDSDJdW0NASF0yW0NIM10=

> <s_epik_cmdline>
J2VwaWtfcHl0aG9uJywgJy1waCcsICc3LjAnLCAnLXRuJywgJzgnLCAnLW1hJywgJzIwMCcsICctbWV0YWxfYmluZGluZycsICctaW1hZScsICc8aW5maWxlLm1hZT4nLCAnLW9tYWUnLCAnPG91dGZpbGUubWFlPic=

> <r_lp_tautomer_probability>
1

> <r_epik_Ionization_Penalty>
0.00456826

> <r_epik_Ionization_Penalty_Charging>
0.00240401

> <r_epik_Ionization_Penalty_Neutral>
0.00216425

> <r_epik_State_Penalty>
-0

> <r_epik_Charging_Adjusted_Penalty>
0.00240401

> <i_epik_Tot_Q>
1

> <i_epik_Tot_abs_Q>
1

> <r_epik_Metal_State_Penalty>
-0

> <b_epik_Metal_Only>
0

> <s_lp_Force_Field>
OPLS_2005

> <r_lp_Energy>
16.6365

> <b_lp_Chiralities_Consistent>
1

> <s_lp_Variant>
AV-unprocessed.smi:564-1

> <Gold.Version>
5.8.1

> <Gold.Id.Protein>
6NUR|6NUR_protein|mol2

> <Gold.PLP.Fitness>
46.4799

> <Gold.PLP.PLP>
-35.0310

> <Gold.PLP.part.hbond>
-2.9527

> <Gold.PLP.part.metal>
0.0000

> <Gold.PLP.part.buried>
-2.9092

> <Gold.PLP.part.nonpolar>
-29.1889

> <Gold.PLP.part.repulsive>
0.0233

> <Gold.PLP.ligand.clash>
0.0000

> <Gold.PLP.ligand.torsion>
0.2797

> <Gold.PLP.Chemscore.Hbond>
3.9920

> <Gold.PLP.Chemscore.CHOScore>
0.0000

> <Gold.PLP.Chemscore.Metal>
0.0000

> <Gold.Chemscore.Hbonds>
donor molecule, donor type, donor heavy atom, donor atom, acceptor molecule, acceptor atom, score
      L1  H    12    33       P1  7948  1.00
      L1  H    15    50       P1  7948  2.00
      P1  H  7997  8008       L1     3  1.00

> <Gold.PLP.Chemscore.Internal.Correction>
0.0323

> <Gold.Rescore>
     Score         DG    S(hbond)    S(metal)    S(lipo)     H(rot)  DE(clash)    DE(int)     intcor
     18.33     -19.79       2.50        0.00      86.29       1.61       0.16       1.29       ----

> <Gold.Chemscore.Fitness>
18.3328

> <Gold.Chemscore.DG>
-19.7873

> <Gold.Chemscore.ZeroCoef>
-5.4800

> <Gold.Chemscore.Hbond>
2.4982

> <Gold.Chemscore.Metal>
0.0000

> <Gold.Chemscore.Lipo>
86.2883

> <Gold.Chemscore.Internal_Hbond>
0.0000

> <Gold.Chemscore.DEClash>
0.1595

> <Gold.Chemscore.DEInternal>
1.2949

> <Gold.Chemscore.Rot>
1.6142

> <Gold.Chemscore.Internal.Correction>
   9.000000E+99

> <Gold.Chemscore.Hbonds>
donor molecule, donor type, donor heavy atom, donor atom, acceptor molecule, acceptor atom, score
      L1  H    12    33       P1  7948  0.96
      L1  H    15    50       P1  7948  0.93
      P1  H  7997  8008       L1     3  0.33

> <Gold.Chemscore.Hbond.Weighted>
-8.3440

> <Gold.Chemscore.Metal.Weighted>
-0.0000

> <Gold.Chemscore.Lipo.Weighted>
-10.0957

> <Gold.Chemscore.Internal_Hbond.Weighted>
0.0000

> <Gold.Chemscore.DEClash.Weighted>
0.1595

> <Gold.Chemscore.DEInternal.Weighted>
1.2949

> <Gold.Chemscore.Rot.Weighted>
4.1324

> <Gold.Chemscore.Internal.Correction.Weighted>
   9.000000E+99

> <Gold.Protein.RotatedTorsions>
[ 6907 6896 6895 6894 ] final -102.13 input  -60.11 | X-H torsion
[ 7974 7965 7964 7962 ] final   11.44 input  175.53 | X-H torsion
[ 8008 7997 7996 7995 ] final  -70.70 input   59.86 | X-H torsion
[ 10167 10162 10161 10158 ] final   98.39 input  -65.29 | X-H torsion
[ 10718 10713 10712 10709 ] final -170.35 input   66.30 | X-H torsion
[ 10763 10752 10751 10750 ] final  111.43 input  -60.55 | X-H torsion
[ 11005 11000 10999 10996 ] final  117.25 input  -57.11 | X-H torsion

> <Gold.Protein.ActiveResidues>
 VAL166  LYS551  ARG553  GLY616  TRP617  ASP618  TYR619  PRO620  LYS621  CYS622 
 ASP623  PHE694  ASN695  SER759  ASP760  ASP761  ALA762  ILE779  LEU786  VAL792 
 PHE793  MET794  SER795  GLU796  ALA797  LYS798  CYS799  TRP800  GLU811  SER814 

> <Gold.Protein.RotatedAtoms>
  150.7183  134.0629  159.3837 H   0  0  0  0  0  0  0  0  0  0  0  0  # atno 6907 bound_to 6896
  151.8609  135.0522  160.0478 H   0  0  0  0  0  0  0  0  0  0  0  0  # atno 6908 bound_to 6896
  152.2718  133.5354  159.5480 H   0  0  0  0  0  0  0  0  0  0  0  0  # atno 6909 bound_to 6896
  146.2371  139.9485  142.8473 H   0  0  0  0  0  0  0  0  0  0  0  0  # atno 7974 bound_to 7965
  154.5032  140.0829  156.7840 H   0  0  0  0  0  0  0  0  0  0  0  0  # atno 8008 bound_to 7997
  155.3955  140.3434  155.4235 H   0  0  0  0  0  0  0  0  0  0  0  0  # atno 8009 bound_to 7997
  156.1482  140.1550  156.8800 H   0  0  0  0  0  0  0  0  0  0  0  0  # atno 8010 bound_to 7997
  139.7713  144.6921  151.0151 H   0  0  0  0  0  0  0  0  0  0  0  0  # atno 10167 bound_to 10162
  156.7250  130.9284  151.3100 H   0  0  0  0  0  0  0  0  0  0  0  0  # atno 10718 bound_to 10713
  153.4632  135.3717  155.2350 H   0  0  0  0  0  0  0  0  0  0  0  0  # atno 10763 bound_to 10752
  154.8757  135.3913  154.3900 H   0  0  0  0  0  0  0  0  0  0  0  0  # atno 10764 bound_to 10752
  153.4477  135.7085  153.6193 H   0  0  0  0  0  0  0  0  0  0  0  0  # atno 10765 bound_to 10752
  139.9068  134.9608  156.7323 H   0  0  0  0  0  0  0  0  0  0  0  0  # atno 11005 bound_to 11000
  145.1884  140.9800  143.4225 LP  0  0  0  0  0  0  0  0  0  0  0  0  # atno 17320 bound_to 7965
  144.9879  139.3718  143.6229 LP  0  0  0  0  0  0  0  0  0  0  0  0  # atno 17321 bound_to 7965
  140.7814  143.4585  151.0312 LP  0  0  0  0  0  0  0  0  0  0  0  0  # atno 17342 bound_to 10162
  139.8268  143.7744  152.3179 LP  0  0  0  0  0  0  0  0  0  0  0  0  # atno 17343 bound_to 10162
  157.6882  130.9207  150.0444 LP  0  0  0  0  0  0  0  0  0  0  0  0  # atno 17370 bound_to 10713
  156.1568  130.3643  149.9357 LP  0  0  0  0  0  0  0  0  0  0  0  0  # atno 17371 bound_to 10713
  140.6916  133.9385  155.7969 LP  0  0  0  0  0  0  0  0  0  0  0  0  # atno 17394 bound_to 11000
  141.0438  134.0584  157.3870 LP  0  0  0  0  0  0  0  0  0  0  0  0  # atno 17395 bound_to 11000

$$$$
