AV-unprocessed.smi:628|AV-procd|sdf|3114|dock2
  -GOLD-   22720 0 33D 1   1.00000     0.00000
 Structure written by MMmdl.
 31 32  0  0  0  0  0  0  0  0  2 V2000
  151.8238  141.7625  158.0669 O   0  0  0  0  0  0  0  0  0  0  0  0
  151.2102  142.2900  157.1376 C   0  0  0  0  0  0  0  0  0  0  0  0
  150.6694  141.4618  155.9651 C   0  0  0  0  0  0  0  0  0  0  0  0
  151.1166  140.0789  155.9910 N   0  0  0  0  0  0  0  0  0  0  0  0
  151.0339  139.1761  157.0346 C   0  0  0  0  0  0  0  0  0  0  0  0
  151.5882  138.0262  156.5597 C   0  0  0  0  0  0  0  0  0  0  0  0
  151.7423  136.7362  157.3011 C   0  0  0  0  0  0  0  0  0  0  0  0
  151.3085  136.6671  158.4721 O   0  0  0  0  0  0  0  0  0  0  0  0
  152.3001  135.7787  156.7208 O   0  5  0  0  0  0  0  0  0  0  0  0
  151.9906  138.2912  155.2250 C   0  0  0  0  0  0  0  0  0  0  0  0
  151.6976  139.5395  154.8868 N   0  0  0  0  0  0  0  0  0  0  0  0
  150.9643  143.6076  157.0788 N   0  0  0  0  0  0  0  0  0  0  0  0
  151.3851  144.5872  158.0772 C   0  0  0  0  0  0  0  0  0  0  0  0
  152.8369  144.3435  158.5373 C   0  0  0  0  0  0  0  0  0  0  0  0
  152.7412  143.7985  159.9622 C   0  0  0  0  0  0  0  0  0  0  0  0
  151.4833  144.4512  160.5260 C   0  0  0  0  0  0  0  0  0  0  0  0
  150.5130  144.4874  159.3438 C   0  0  0  0  0  0  0  0  0  0  0  0
  149.5790  141.4728  155.9900 H   0  0  0  0  0  0  0  0  0  0  0  0
  150.9743  141.9184  155.0221 H   0  0  0  0  0  0  0  0  0  0  0  0
  150.6025  139.4243  157.9930 H   0  0  0  0  0  0  0  0  0  0  0  0
  152.4691  137.6393  154.5090 H   0  0  0  0  0  0  0  0  0  0  0  0
  150.4524  143.9587  156.2823 H   0  0  0  0  0  0  0  0  0  0  0  0
  151.3012  145.5917  157.6574 H   0  0  0  0  0  0  0  0  0  0  0  0
  153.3972  143.6755  157.8819 H   0  0  0  0  0  0  0  0  0  0  0  0
  153.3704  145.2948  158.5527 H   0  0  0  0  0  0  0  0  0  0  0  0
  152.6126  142.7158  159.9344 H   0  0  0  0  0  0  0  0  0  0  0  0
  153.6300  144.0145  160.5555 H   0  0  0  0  0  0  0  0  0  0  0  0
  151.0795  143.9142  161.3847 H   0  0  0  0  0  0  0  0  0  0  0  0
  151.7111  145.4686  160.8465 H   0  0  0  0  0  0  0  0  0  0  0  0
  149.8062  145.3141  159.4227 H   0  0  0  0  0  0  0  0  0  0  0  0
  149.9285  143.5657  159.3383 H   0  0  0  0  0  0  0  0  0  0  0  0
  1  2  2  0  0  0  0
  2  3  1  0  0  0  0
  2 12  1  0  0  0  0
  3  4  1  0  0  0  0
  3 18  1  0  0  0  0
  3 19  1  0  0  0  0
  4 11  1  0  0  0  0
  4  5  1  0  0  0  0
  5  6  2  0  0  0  0
  5 20  1  0  0  0  0
  6  7  1  0  0  0  0
  6 10  1  0  0  0  0
  7  8  2  0  0  0  0
  7  9  1  0  0  0  0
 10 11  2  0  0  0  0
 10 21  1  0  0  0  0
 12 13  1  0  0  0  0
 12 22  1  0  0  0  0
 13 17  1  0  0  0  0
 13 14  1  0  0  0  0
 13 23  1  0  0  0  0
 14 15  1  0  0  0  0
 14 24  1  0  0  0  0
 14 25  1  0  0  0  0
 15 16  1  0  0  0  0
 15 26  1  0  0  0  0
 15 27  1  0  0  0  0
 16 17  1  0  0  0  0
 16 28  1  0  0  0  0
 16 29  1  0  0  0  0
 17 30  1  0  0  0  0
 17 31  1  0  0  0  0
M  CHG  1   9  -1
M  END
> <s_m_source_file>
AV-unprocessed.smi

> <i_m_source_file_index>
628

> <i_lp_mmshare_version>
43012

> <i_f3d_flags>
0

> <s_epik_input>
W0NIMl0xW0NIMl1bQ0gyXVtDSDJdW0NIXTFbTkhdQyg9TylbQ0gyXW4yW2NIXWMoW2NIXW4yKUMoPU8pW09IXQ==

> <s_epik_cmdline>
J2VwaWtfcHl0aG9uJywgJy1waCcsICc3LjAnLCAnLXRuJywgJzgnLCAnLW1hJywgJzIwMCcsICctbWV0YWxfYmluZGluZycsICctaW1hZScsICc8aW5maWxlLm1hZT4nLCAnLW9tYWUnLCAnPG91dGZpbGUubWFlPic=

> <r_epik_Ionization_Penalty>
0.000955839

> <r_epik_Ionization_Penalty_Charging>
0.000925564

> <r_epik_Ionization_Penalty_Neutral>
3.02757e-05

> <r_epik_State_Penalty>
0.000600209

> <r_epik_Charging_Adjusted_Penalty>
0.00152577

> <i_epik_Tot_Q>
-1

> <i_epik_Tot_abs_Q>
1

> <r_epik_Metal_State_Penalty>
-0

> <b_epik_Metal_Only>
0

> <s_lp_Force_Field>
OPLS_2005

> <r_lp_Energy>
22.3574

> <b_lp_Chiralities_Consistent>
1

> <s_lp_Variant>
AV-unprocessed.smi:628-1

> <Gold.Version>
5.8.1

> <Gold.Id.Protein>
6NUR|6NUR_protein|mol2

> <Gold.PLP.Fitness>
51.5981

> <Gold.PLP.PLP>
-35.6502

> <Gold.PLP.part.hbond>
-4.0000

> <Gold.PLP.part.metal>
0.0000

> <Gold.PLP.part.buried>
-7.1032

> <Gold.PLP.part.nonpolar>
-26.5049

> <Gold.PLP.part.repulsive>
0.0514

> <Gold.PLP.ligand.clash>
0.0000

> <Gold.PLP.ligand.torsion>
0.3245

> <Gold.PLP.Chemscore.Hbond>
5.5300

> <Gold.PLP.Chemscore.CHOScore>
0.0000

> <Gold.PLP.Chemscore.Metal>
0.0000

> <Gold.Chemscore.Hbonds>
donor molecule, donor type, donor heavy atom, donor atom, acceptor molecule, acceptor atom, score
      L1  H    12    22       P1  8028  0.94
      P1  H  6896  6908       L1     8  1.30
      P1  H  7989  7998       L1    11  1.00
      P1  H 10752 10763       L1     9  2.00

> <Gold.PLP.Chemscore.Internal.Correction>
0.0070

> <Gold.Rescore>
     Score         DG    S(hbond)    S(metal)    S(lipo)     H(rot)  DE(clash)    DE(int)     intcor
     19.72     -23.42       3.63        0.00      84.88       1.61       0.05       3.65       ----

> <Gold.Chemscore.Fitness>
19.7209

> <Gold.Chemscore.DG>
-23.4207

> <Gold.Chemscore.ZeroCoef>
-5.4800

> <Gold.Chemscore.Hbond>
3.6314

> <Gold.Chemscore.Metal>
0.0000

> <Gold.Chemscore.Lipo>
84.8770

> <Gold.Chemscore.Internal_Hbond>
0.0000

> <Gold.Chemscore.DEClash>
0.0482

> <Gold.Chemscore.DEInternal>
3.6516

> <Gold.Chemscore.Rot>
1.6089

> <Gold.Chemscore.Internal.Correction>
   9.000000E+99

> <Gold.Chemscore.Hbonds>
donor molecule, donor type, donor heavy atom, donor atom, acceptor molecule, acceptor atom, score
      L1  H    12    22       P1  8028  0.91
      P1  H  6896  6908       L1     8  0.64
      P1  H  7989  7998       L1    11  0.64
      P1  H 10752 10763       L1     9  1.00

> <Gold.Chemscore.Hbond.Weighted>
-12.1289

> <Gold.Chemscore.Metal.Weighted>
-0.0000

> <Gold.Chemscore.Lipo.Weighted>
-9.9306

> <Gold.Chemscore.Internal_Hbond.Weighted>
0.0000

> <Gold.Chemscore.DEClash.Weighted>
0.0482

> <Gold.Chemscore.DEInternal.Weighted>
3.6516

> <Gold.Chemscore.Rot.Weighted>
4.1188

> <Gold.Chemscore.Internal.Correction.Weighted>
   9.000000E+99

> <Gold.Protein.RotatedTorsions>
[ 6907 6896 6895 6894 ] final -142.24 input  -60.11 | X-H torsion
[ 7974 7965 7964 7962 ] final   15.11 input  175.53 | X-H torsion
[ 8008 7997 7996 7995 ] final  160.94 input   59.86 | X-H torsion
[ 10167 10162 10161 10158 ] final -104.58 input  -65.29 | X-H torsion
[ 10718 10713 10712 10709 ] final   -2.56 input   66.30 | X-H torsion
[ 10763 10752 10751 10750 ] final  101.37 input  -60.55 | X-H torsion
[ 11005 11000 10999 10996 ] final   87.61 input  -57.11 | X-H torsion

> <Gold.Protein.ActiveResidues>
 VAL166  LYS551  ARG553  GLY616  TRP617  ASP618  TYR619  PRO620  LYS621  CYS622 
 ASP623  PHE694  ASN695  SER759  ASP760  ASP761  ALA762  ILE779  LEU786  VAL792 
 PHE793  MET794  SER795  GLU796  ALA797  LYS798  CYS799  TRP800  GLU811  SER814 

> <Gold.Protein.RotatedAtoms>
  151.0845  133.5364  159.2618 H   0  0  0  0  0  0  0  0  0  0  0  0  # atno 6907 bound_to 6896
  151.2255  135.0534  159.8976 H   0  0  0  0  0  0  0  0  0  0  0  0  # atno 6908 bound_to 6896
  152.5427  134.0641  159.8219 H   0  0  0  0  0  0  0  0  0  0  0  0  # atno 6909 bound_to 6896
  146.2287  139.8943  142.8549 H   0  0  0  0  0  0  0  0  0  0  0  0  # atno 7974 bound_to 7965
  156.2138  140.1790  156.7636 H   0  0  0  0  0  0  0  0  0  0  0  0  # atno 8008 bound_to 7997
  154.5761  140.0674  156.9065 H   0  0  0  0  0  0  0  0  0  0  0  0  # atno 8009 bound_to 7997
  155.2586  140.3334  155.4277 H   0  0  0  0  0  0  0  0  0  0  0  0  # atno 8010 bound_to 7997
  140.2078  143.3770  152.1076 H   0  0  0  0  0  0  0  0  0  0  0  0  # atno 10167 bound_to 10162
  156.7890  130.5355  149.5738 H   0  0  0  0  0  0  0  0  0  0  0  0  # atno 10718 bound_to 10713
  153.3258  135.4047  155.1455 H   0  0  0  0  0  0  0  0  0  0  0  0  # atno 10763 bound_to 10752
  154.8611  135.3598  154.5535 H   0  0  0  0  0  0  0  0  0  0  0  0  # atno 10764 bound_to 10752
  153.5971  135.7072  153.5458 H   0  0  0  0  0  0  0  0  0  0  0  0  # atno 10765 bound_to 10752
  139.8915  134.8433  156.2884 H   0  0  0  0  0  0  0  0  0  0  0  0  # atno 11005 bound_to 11000
  145.2387  141.0001  143.3948 LP  0  0  0  0  0  0  0  0  0  0  0  0  # atno 17320 bound_to 7965
  144.9470  139.4125  143.6421 LP  0  0  0  0  0  0  0  0  0  0  0  0  # atno 17321 bound_to 7965
  139.5192  144.7016  151.5477 LP  0  0  0  0  0  0  0  0  0  0  0  0  # atno 17342 bound_to 10162
  140.6345  143.9011  150.6635 LP  0  0  0  0  0  0  0  0  0  0  0  0  # atno 17343 bound_to 10162
  156.1171  130.6083  151.0137 LP  0  0  0  0  0  0  0  0  0  0  0  0  # atno 17370 bound_to 10713
  157.6610  131.0881  150.7839 LP  0  0  0  0  0  0  0  0  0  0  0  0  # atno 17371 bound_to 10713
  140.9992  133.7161  156.0934 LP  0  0  0  0  0  0  0  0  0  0  0  0  # atno 17394 bound_to 11000
  140.7520  134.4034  157.5540 LP  0  0  0  0  0  0  0  0  0  0  0  0  # atno 17395 bound_to 11000

$$$$
