AV-unprocessed.smi:696|AV-procd|sdf|3388|dock1
  -GOLD-   22720 0363D 1   1.00000     0.00000
 Structure written by MMmdl.
 37 38  0  0  0  0  0  0  0  0  2 V2000
  153.2264  139.4553  157.9101 O   0  0  0  0  0  0  0  0  0  0  0  0
  152.3469  140.1309  158.4458 C   0  0  0  0  0  0  0  0  0  0  0  0
  151.2119  139.6070  158.9344 N   0  0  0  0  0  0  0  0  0  0  0  0
  150.8609  138.1916  158.9085 C   0  0  0  0  0  0  0  0  0  0  0  0
  149.4043  137.9790  158.4576 C   0  0  0  0  0  0  0  0  0  0  0  0
  148.7380  136.8865  159.2483 C   0  0  0  0  0  0  0  0  0  0  0  0
  148.9064  135.6271  159.0877 N   0  0  0  0  0  0  0  0  0  0  0  0
  148.0973  135.0933  160.0176 N   0  0  0  0  0  0  0  0  0  0  0  0
  147.4588  136.0331  160.7187 C   0  0  0  0  0  0  0  0  0  0  0  0
  146.6647  135.7841  161.6232 O   0  0  0  0  0  0  0  0  0  0  0  0
  147.8628  137.2209  160.2341 N   0  5  0  0  0  0  0  0  0  0  0  0
  152.5156  141.6519  158.5792 C   0  0  0  0  0  0  0  0  0  0  0  0
  152.3534  142.0775  160.0572 C   0  0  0  0  0  0  0  0  0  0  0  0
  152.9244  143.4765  160.3460 C   0  0  0  0  0  0  0  0  0  0  0  0
  151.9562  144.6494  160.1090 C   0  0  0  0  0  0  0  0  0  0  0  0
  151.0194  144.5371  158.8929 C   0  0  0  0  0  0  0  0  0  0  0  0
  151.6411  143.9098  157.6348 C   0  0  0  0  0  0  0  0  0  0  0  0
  151.5444  142.3737  157.6211 C   0  0  0  0  0  0  0  0  0  0  0  0
  148.0284  134.0913  160.1172 H   0  0  0  0  0  0  0  0  0  0  0  0
  150.5430  140.2330  159.3587 H   0  0  0  0  0  0  0  0  0  0  0  0
  151.5434  137.6931  158.2190 H   0  0  0  0  0  0  0  0  0  0  0  0
  151.0317  137.7455  159.8901 H   0  0  0  0  0  0  0  0  0  0  0  0
  148.8396  138.9050  158.5738 H   0  0  0  0  0  0  0  0  0  0  0  0
  149.3762  137.7381  157.3939 H   0  0  0  0  0  0  0  0  0  0  0  0
  153.5333  141.8928  158.2669 H   0  0  0  0  0  0  0  0  0  0  0  0
  151.3115  142.0141  160.3746 H   0  0  0  0  0  0  0  0  0  0  0  0
  152.8960  141.3690  160.6856 H   0  0  0  0  0  0  0  0  0  0  0  0
  153.2479  143.5175  161.3866 H   0  0  0  0  0  0  0  0  0  0  0  0
  153.8323  143.6278  159.7611 H   0  0  0  0  0  0  0  0  0  0  0  0
  151.3394  144.7874  160.9978 H   0  0  0  0  0  0  0  0  0  0  0  0
  152.5467  145.5623  160.0215 H   0  0  0  0  0  0  0  0  0  0  0  0
  150.1248  143.9788  159.1714 H   0  0  0  0  0  0  0  0  0  0  0  0
  150.6650  145.5397  158.6507 H   0  0  0  0  0  0  0  0  0  0  0  0
  151.0900  144.2806  156.7698 H   0  0  0  0  0  0  0  0  0  0  0  0
  152.6704  144.2425  157.4962 H   0  0  0  0  0  0  0  0  0  0  0  0
  151.7477  142.0336  156.6042 H   0  0  0  0  0  0  0  0  0  0  0  0
  150.5155  142.0751  157.8278 H   0  0  0  0  0  0  0  0  0  0  0  0
  1  2  2  0  0  0  0
  2  3  1  0  0  0  0
  2 12  1  0  0  0  0
  3  4  1  0  0  0  0
  3 20  1  0  0  0  0
  4  5  1  0  0  0  0
  4 21  1  0  0  0  0
  4 22  1  0  0  0  0
  5  6  1  0  0  0  0
  5 23  1  0  0  0  0
  5 24  1  0  0  0  0
  6 11  1  0  0  0  0
  6  7  2  0  0  0  0
  7  8  1  0  0  0  0
  8 19  1  0  0  0  0
  8  9  1  0  0  0  0
  9 10  2  0  0  0  0
  9 11  1  0  0  0  0
 12 18  1  0  0  0  0
 12 13  1  0  0  0  0
 12 25  1  0  0  0  0
 13 14  1  0  0  0  0
 13 26  1  0  0  0  0
 13 27  1  0  0  0  0
 14 15  1  0  0  0  0
 14 28  1  0  0  0  0
 14 29  1  0  0  0  0
 15 16  1  0  0  0  0
 15 30  1  0  0  0  0
 15 31  1  0  0  0  0
 16 17  1  0  0  0  0
 16 32  1  0  0  0  0
 16 33  1  0  0  0  0
 17 18  1  0  0  0  0
 17 34  1  0  0  0  0
 17 35  1  0  0  0  0
 18 36  1  0  0  0  0
 18 37  1  0  0  0  0
M  CHG  1  11  -1
M  END
> <s_m_source_file>
AV-unprocessed.smi

> <i_m_source_file_index>
696

> <i_lp_mmshare_version>
43012

> <i_f3d_flags>
0

> <s_epik_input>
W0NIMl0xW0NIMl1bQ0gyXVtDSDJdW0NIMl1bQ0gyXVtDSF0xQyg9TylbTkhdW0NIMl1bQ0gyXWMybltuSF1jKD1PKVtuSF0y

> <s_epik_cmdline>
J2VwaWtfcHl0aG9uJywgJy1waCcsICc3LjAnLCAnLXRuJywgJzgnLCAnLW1hJywgJzIwMCcsICctbWV0YWxfYmluZGluZycsICctaW1hZScsICc8aW5maWxlLm1hZT4nLCAnLW9tYWUnLCAnPG91dGZpbGUubWFlPic=

> <r_lp_tautomer_probability>
1

> <r_epik_Ionization_Penalty>
13.715

> <r_epik_Ionization_Penalty_Charging>
13.715

> <r_epik_Ionization_Penalty_Neutral>
5.16152e-06

> <r_epik_State_Penalty>
4.03036

> <r_epik_Charging_Adjusted_Penalty>
17.7454

> <i_epik_Tot_Q>
-1

> <i_epik_Tot_abs_Q>
1

> <r_epik_Metal_State_Penalty>
0.449398

> <b_epik_Metal_Only>
1

> <s_lp_Force_Field>
OPLS_2005

> <r_lp_Energy>
29.0226

> <b_lp_Chiralities_Consistent>
1

> <s_lp_Variant>
AV-unprocessed.smi:696-3

> <Gold.Version>
5.8.1

> <Gold.Id.Protein>
6NUR|6NUR_protein|mol2

> <Gold.PLP.Fitness>
48.8100

> <Gold.PLP.PLP>
-35.0159

> <Gold.PLP.part.hbond>
-4.0000

> <Gold.PLP.part.metal>
0.0000

> <Gold.PLP.part.buried>
-5.9664

> <Gold.PLP.part.nonpolar>
-25.8082

> <Gold.PLP.part.repulsive>
0.2837

> <Gold.PLP.ligand.clash>
0.0000

> <Gold.PLP.ligand.torsion>
0.7329

> <Gold.PLP.Chemscore.Hbond>
5.0720

> <Gold.PLP.Chemscore.CHOScore>
0.0000

> <Gold.PLP.Chemscore.Metal>
0.0000

> <Gold.Chemscore.Hbonds>
donor molecule, donor type, donor heavy atom, donor atom, acceptor molecule, acceptor atom, score
      P1  H  6896  6907       L1     7  0.73
      P1  H  6931  6943       L1    11  0.52
      P1  H  6934  6947       L1    11  1.59
      P1  H  7997  8010       L1     1  1.00

> <Gold.PLP.Chemscore.Internal.Correction>
0.0439

> <Gold.Rescore>
     Score         DG    S(hbond)    S(metal)    S(lipo)     H(rot)  DE(clash)    DE(int)     intcor
     18.78     -19.53       3.03        0.00      82.71       2.25       0.01       0.74       ----

> <Gold.Chemscore.Fitness>
18.7773

> <Gold.Chemscore.DG>
-19.5290

> <Gold.Chemscore.ZeroCoef>
-5.4800

> <Gold.Chemscore.Hbond>
3.0337

> <Gold.Chemscore.Metal>
0.0000

> <Gold.Chemscore.Lipo>
82.7089

> <Gold.Chemscore.Internal_Hbond>
0.0000

> <Gold.Chemscore.DEClash>
0.0139

> <Gold.Chemscore.DEInternal>
0.7379

> <Gold.Chemscore.Rot>
2.2501

> <Gold.Chemscore.Internal.Correction>
   9.000000E+99

> <Gold.Chemscore.Hbonds>
donor molecule, donor type, donor heavy atom, donor atom, acceptor molecule, acceptor atom, score
      P1  H  6896  6907       L1     7  0.14
      P1  H  6931  6943       L1    11  0.11
      P1  H  6934  6947       L1    11  0.72
      P1  H  7997  8010       L1     1  1.00

> <Gold.Chemscore.Hbond.Weighted>
-10.1324

> <Gold.Chemscore.Metal.Weighted>
-0.0000

> <Gold.Chemscore.Lipo.Weighted>
-9.6769

> <Gold.Chemscore.Internal_Hbond.Weighted>
0.0000

> <Gold.Chemscore.DEClash.Weighted>
0.0139

> <Gold.Chemscore.DEInternal.Weighted>
0.7379

> <Gold.Chemscore.Rot.Weighted>
5.7603

> <Gold.Chemscore.Internal.Correction.Weighted>
   9.000000E+99

> <Gold.Protein.RotatedTorsions>
[ 6907 6896 6895 6894 ] final  -72.88 input  -60.11 | X-H torsion
[ 7974 7965 7964 7962 ] final  179.32 input  175.53 | X-H torsion
[ 8008 7997 7996 7995 ] final   31.68 input   59.86 | X-H torsion
[ 10167 10162 10161 10158 ] final -106.65 input  -65.29 | X-H torsion
[ 10718 10713 10712 10709 ] final   48.07 input   66.30 | X-H torsion
[ 10763 10752 10751 10750 ] final   77.30 input  -60.55 | X-H torsion
[ 11005 11000 10999 10996 ] final   90.24 input  -57.11 | X-H torsion

> <Gold.Protein.ActiveResidues>
 VAL166  LYS551  ARG553  GLY616  TRP617  ASP618  TYR619  PRO620  LYS621  CYS622 
 ASP623  PHE694  ASN695  SER759  ASP760  ASP761  ALA762  ILE779  LEU786  VAL792 
 PHE793  MET794  SER795  GLU796  ALA797  LYS798  CYS799  TRP800  GLU811  SER814 

> <Gold.Protein.RotatedAtoms>
  150.7152  134.5097  159.5601 H   0  0  0  0  0  0  0  0  0  0  0  0  # atno 6907 bound_to 6896
  152.2677  134.7964  160.0429 H   0  0  0  0  0  0  0  0  0  0  0  0  # atno 6908 bound_to 6896
  151.8655  133.3430  159.3754 H   0  0  0  0  0  0  0  0  0  0  0  0  # atno 6909 bound_to 6896
  144.7147  140.0530  143.6435 H   0  0  0  0  0  0  0  0  0  0  0  0  # atno 7974 bound_to 7965
  155.1103  140.3238  155.4523 H   0  0  0  0  0  0  0  0  0  0  0  0  # atno 8008 bound_to 7997
  156.2692  140.2045  156.6175 H   0  0  0  0  0  0  0  0  0  0  0  0  # atno 8009 bound_to 7997
  154.6761  140.0531  157.0204 H   0  0  0  0  0  0  0  0  0  0  0  0  # atno 8010 bound_to 7997
  140.1854  143.3933  152.1248 H   0  0  0  0  0  0  0  0  0  0  0  0  # atno 10167 bound_to 10162
  157.4650  130.8219  149.7926 H   0  0  0  0  0  0  0  0  0  0  0  0  # atno 10718 bound_to 10713
  153.0789  135.4919  154.8461 H   0  0  0  0  0  0  0  0  0  0  0  0  # atno 10763 bound_to 10752
  154.7124  135.3022  154.9179 H   0  0  0  0  0  0  0  0  0  0  0  0  # atno 10764 bound_to 10752
  153.9868  135.6783  153.4805 H   0  0  0  0  0  0  0  0  0  0  0  0  # atno 10765 bound_to 10752
  139.8860  134.8601  156.3257 H   0  0  0  0  0  0  0  0  0  0  0  0  # atno 11005 bound_to 11000
  145.9928  139.3029  143.0974 LP  0  0  0  0  0  0  0  0  0  0  0  0  # atno 17320 bound_to 7965
  145.8883  140.9320  143.0565 LP  0  0  0  0  0  0  0  0  0  0  0  0  # atno 17321 bound_to 7965
  139.5278  144.7123  151.5165 LP  0  0  0  0  0  0  0  0  0  0  0  0  # atno 17342 bound_to 10162
  140.6491  143.8733  150.6767 LP  0  0  0  0  0  0  0  0  0  0  0  0  # atno 17343 bound_to 10162
  156.0046  130.3862  150.2479 LP  0  0  0  0  0  0  0  0  0  0  0  0  # atno 17370 bound_to 10713
  157.0658  131.0103  151.3207 LP  0  0  0  0  0  0  0  0  0  0  0  0  # atno 17371 bound_to 10713
  140.9757  133.7299  156.0598 LP  0  0  0  0  0  0  0  0  0  0  0  0  # atno 17394 bound_to 11000
  140.7814  134.3721  157.5486 LP  0  0  0  0  0  0  0  0  0  0  0  0  # atno 17395 bound_to 11000

$$$$
