AV-unprocessed.smi:658|AV-procd|sdf|3234|dock4
  -GOLD-   22720 0183D 1   1.00000     0.00000
 Structure written by MMmdl.
 37 37  0  0  0  0  0  0  0  0  3 V2000
  147.9199  138.6174  155.3348 C   0  0  0  0  0  0  0  0  0  0  0  0
  148.5803  139.4422  154.2178 C   0  0  2  0  0  0  0  0  0  0  0  0
  148.1733  138.9046  152.8990 N   0  3  0  0  0  0  0  0  0  0  0  0
  146.7379  139.0394  152.5849 C   0  0  0  0  0  0  0  0  0  0  0  0
  146.3271  138.0482  151.4914 C   0  0  0  0  0  0  0  0  0  0  0  0
  146.2928  136.6001  151.9944 C   0  0  0  0  0  0  0  0  0  0  0  0
  145.2656  135.5474  150.8872 S   0  0  0  0  0  0  0  0  0  0  0  0
  145.3402  136.3877  149.5129 N   0  5  0  0  0  0  0  0  0  0  0  0
  145.9659  134.2567  150.8012 O   0  0  0  0  0  0  0  0  0  0  0  0
  143.9162  135.5455  151.4717 O   0  0  0  0  0  0  0  0  0  0  0  0
  150.1243  139.5069  154.3521 C   0  0  2  0  0  0  0  0  0  0  0  0
  150.7822  138.1142  154.3743 C   0  0  0  0  0  0  0  0  0  0  0  0
  150.5705  140.3347  155.4693 N   0  0  0  0  0  0  0  0  0  0  0  0
  150.2241  141.6405  155.7530 C   0  0  0  0  0  0  0  0  0  0  0  0
  150.8708  141.9966  156.9017 C   0  0  0  0  0  0  0  0  0  0  0  0
  151.5970  140.8268  157.2576 C   0  0  0  0  0  0  0  0  0  0  0  0
  151.4117  139.8339  156.4033 N   0  0  0  0  0  0  0  0  0  0  0  0
  148.1988  138.9961  156.3184 H   0  0  0  0  0  0  0  0  0  0  0  0
  148.2086  137.5667  155.2887 H   0  0  0  0  0  0  0  0  0  0  0  0
  146.8328  138.6629  155.2624 H   0  0  0  0  0  0  0  0  0  0  0  0
  148.2060  140.4633  154.3110 H   0  0  0  0  0  0  0  0  0  0  0  0
  148.6993  139.3932  152.1878 H   0  0  0  0  0  0  0  0  0  0  0  0
  146.1538  138.8650  153.4895 H   0  0  0  0  0  0  0  0  0  0  0  0
  146.5364  140.0600  152.2568 H   0  0  0  0  0  0  0  0  0  0  0  0
  145.3440  138.3195  151.1044 H   0  0  0  0  0  0  0  0  0  0  0  0
  147.0212  138.1236  150.6536 H   0  0  0  0  0  0  0  0  0  0  0  0
  147.2960  136.1744  152.0283 H   0  0  0  0  0  0  0  0  0  0  0  0
  145.8720  136.5458  152.9987 H   0  0  0  0  0  0  0  0  0  0  0  0
  144.8247  137.2656  149.6471 H   0  0  0  0  0  0  0  0  0  0  0  0
  150.4937  139.9960  153.4493 H   0  0  0  0  0  0  0  0  0  0  0  0
  150.5134  137.5407  153.4870 H   0  0  0  0  0  0  0  0  0  0  0  0
  150.4805  137.5324  155.2458 H   0  0  0  0  0  0  0  0  0  0  0  0
  151.8694  138.1969  154.3940 H   0  0  0  0  0  0  0  0  0  0  0  0
  149.5539  142.2035  155.1202 H   0  0  0  0  0  0  0  0  0  0  0  0
  150.8314  142.9485  157.4104 H   0  0  0  0  0  0  0  0  0  0  0  0
  152.2466  140.6697  158.1060 H   0  0  0  0  0  0  0  0  0  0  0  0
  148.4221  137.9266  152.8594 H   0  0  0  0  0  0  0  0  0  0  0  0
  1  2  1  0  0  0  0
  1 18  1  0  0  0  0
  1 19  1  0  0  0  0
  1 20  1  0  0  0  0
  2  3  1  0  0  0  0
  2 11  1  0  0  0  0
  2 21  1  0  0  0  0
  3  4  1  0  0  0  0
  3 22  1  0  0  0  0
  3 37  1  0  0  0  0
  4  5  1  0  0  0  0
  4 23  1  0  0  0  0
  4 24  1  0  0  0  0
  5  6  1  0  0  0  0
  5 25  1  0  0  0  0
  5 26  1  0  0  0  0
  6  7  1  0  0  0  0
  6 27  1  0  0  0  0
  6 28  1  0  0  0  0
  7  8  1  0  0  0  0
  7  9  2  0  0  0  0
  7 10  2  0  0  0  0
  8 29  1  0  0  0  0
 11 12  1  0  0  0  0
 11 13  1  0  0  0  0
 11 30  1  0  0  0  0
 12 31  1  0  0  0  0
 12 32  1  0  0  0  0
 12 33  1  0  0  0  0
 13 17  1  0  0  0  0
 13 14  1  0  0  0  0
 14 15  2  0  0  0  0
 14 34  1  0  0  0  0
 15 16  1  0  0  0  0
 15 35  1  0  0  0  0
 16 17  2  0  0  0  0
 16 36  1  0  0  0  0
M  CHG  1   3   1
M  CHG  1   8  -1
M  END
> <s_m_source_file>
AV-unprocessed.smi

> <i_m_source_file_index>
658

> <i_lp_mmshare_version>
43012

> <i_f3d_flags>
0

> <s_epik_input>
bjFbY0hdW2NIXVtjSF1uMVtDQEBIXShbQ0gzXSlbQ0BIXShbQ0gzXSlbTkhdW0NIMl1bQ0gyXVtDSDJdUyg9TykoPU8pW05IMl0=

> <s_epik_cmdline>
J2VwaWtfcHl0aG9uJywgJy1waCcsICc3LjAnLCAnLXRuJywgJzgnLCAnLW1hJywgJzIwMCcsICctbWV0YWxfYmluZGluZycsICctaW1hZScsICc8aW5maWxlLm1hZT4nLCAnLW9tYWUnLCAnPG91dGZpbGUubWFlPic=

> <r_lp_tautomer_probability>
1

> <r_epik_Ionization_Penalty>
4.63642

> <r_epik_Ionization_Penalty_Charging>
4.63641

> <r_epik_Ionization_Penalty_Neutral>
1.08396e-05

> <r_epik_State_Penalty>
4.63466

> <r_epik_Charging_Adjusted_Penalty>
9.27106

> <i_epik_Tot_Q>
0

> <i_epik_Tot_abs_Q>
2

> <r_epik_Metal_State_Penalty>
0.890424

> <b_epik_Metal_Only>
1

> <s_lp_Force_Field>
OPLS_2005

> <r_lp_Energy>
0.307927

> <b_lp_Chiralities_Consistent>
1

> <s_lp_Variant>
AV-unprocessed.smi:658-5

> <Gold.Version>
5.8.1

> <Gold.Id.Protein>
6NUR|6NUR_protein|mol2

> <Gold.PLP.Fitness>
43.1776

> <Gold.PLP.PLP>
-31.4530

> <Gold.PLP.part.hbond>
-3.9313

> <Gold.PLP.part.metal>
0.0000

> <Gold.PLP.part.buried>
0.2752

> <Gold.PLP.part.nonpolar>
-29.0907

> <Gold.PLP.part.repulsive>
0.4592

> <Gold.PLP.ligand.clash>
0.0000

> <Gold.PLP.ligand.torsion>
0.9059

> <Gold.PLP.Chemscore.Hbond>
3.9263

> <Gold.PLP.Chemscore.CHOScore>
0.4938

> <Gold.PLP.Chemscore.Metal>
0.0000

> <Gold.Chemscore.Hbonds>
donor molecule, donor type, donor heavy atom, donor atom, acceptor molecule, acceptor atom, score
      L1  H     3    22       P1  7957  0.93
      L1  H     3    37       P1  7948  2.00
      L1  H     8    29       P1 10171  1.00
      L1  C    14    34       P1  8028  0.59

> <Gold.PLP.Chemscore.Internal.Correction>
0.2763

> <Gold.Rescore>
     Score         DG    S(hbond)    S(metal)    S(lipo)     H(rot)  DE(clash)    DE(int)     intcor
     12.55     -14.96       2.88        0.00      65.51       3.04       1.60       0.81       ----

> <Gold.Chemscore.Fitness>
12.5472

> <Gold.Chemscore.DG>
-14.9641

> <Gold.Chemscore.ZeroCoef>
-5.4800

> <Gold.Chemscore.Hbond>
2.8753

> <Gold.Chemscore.Metal>
0.0000

> <Gold.Chemscore.Lipo>
65.5149

> <Gold.Chemscore.Internal_Hbond>
0.0000

> <Gold.Chemscore.DEClash>
1.6048

> <Gold.Chemscore.DEInternal>
0.8121

> <Gold.Chemscore.Rot>
3.0409

> <Gold.Chemscore.Internal.Correction>
   9.000000E+99

> <Gold.Chemscore.Hbonds>
donor molecule, donor type, donor heavy atom, donor atom, acceptor molecule, acceptor atom, score
      L1  H     3    22       P1  7957  0.89
      L1  H     3    37       P1  7948  0.91
      L1  H     8    29       P1 10171  0.99

> <Gold.Chemscore.Hbond.Weighted>
-9.6036

> <Gold.Chemscore.Metal.Weighted>
-0.0000

> <Gold.Chemscore.Lipo.Weighted>
-7.6652

> <Gold.Chemscore.Internal_Hbond.Weighted>
0.0000

> <Gold.Chemscore.DEClash.Weighted>
1.6048

> <Gold.Chemscore.DEInternal.Weighted>
0.8121

> <Gold.Chemscore.Rot.Weighted>
7.7848

> <Gold.Chemscore.Internal.Correction.Weighted>
   9.000000E+99

> <Gold.Protein.RotatedTorsions>
[ 6907 6896 6895 6894 ] final   24.47 input  -60.11 | X-H torsion
[ 7974 7965 7964 7962 ] final  -23.65 input  175.53 | X-H torsion
[ 8008 7997 7996 7995 ] final  106.43 input   59.86 | X-H torsion
[ 10167 10162 10161 10158 ] final  -27.28 input  -65.29 | X-H torsion
[ 10718 10713 10712 10709 ] final -135.79 input   66.30 | X-H torsion
[ 10763 10752 10751 10750 ] final  -42.46 input  -60.55 | X-H torsion
[ 11005 11000 10999 10996 ] final  -32.87 input  -57.11 | X-H torsion

> <Gold.Protein.ActiveResidues>
 VAL166  LYS551  ARG553  GLY616  TRP617  ASP618  TYR619  PRO620  LYS621  CYS622 
 ASP623  PHE694  ASN695  SER759  ASP760  ASP761  ALA762  ILE779  LEU786  VAL792 
 PHE793  MET794  SER795  GLU796  ALA797  LYS798  CYS799  TRP800  GLU811  SER814 

> <Gold.Protein.RotatedAtoms>
  151.9580  135.0137  160.0545 H   0  0  0  0  0  0  0  0  0  0  0  0  # atno 6907 bound_to 6896
  152.1894  133.4758  159.5008 H   0  0  0  0  0  0  0  0  0  0  0  0  # atno 6908 bound_to 6896
  150.6932  134.1649  159.4233 H   0  0  0  0  0  0  0  0  0  0  0  0  # atno 6909 bound_to 6896
  146.1603  140.4644  142.8574 H   0  0  0  0  0  0  0  0  0  0  0  0  # atno 7974 bound_to 7965
  156.1742  140.3113  155.9028 H   0  0  0  0  0  0  0  0  0  0  0  0  # atno 8008 bound_to 7997
  155.3523  140.0472  157.3063 H   0  0  0  0  0  0  0  0  0  0  0  0  # atno 8009 bound_to 7997
  154.5272  140.2218  155.8878 H   0  0  0  0  0  0  0  0  0  0  0  0  # atno 8010 bound_to 7997
  140.7278  143.4106  151.1111 H   0  0  0  0  0  0  0  0  0  0  0  0  # atno 10167 bound_to 10162
  156.2700  130.7260  151.1224 H   0  0  0  0  0  0  0  0  0  0  0  0  # atno 10718 bound_to 10713
  153.9795  135.6718  153.4749 H   0  0  0  0  0  0  0  0  0  0  0  0  # atno 10763 bound_to 10752
  153.0755  135.4951  154.8392 H   0  0  0  0  0  0  0  0  0  0  0  0  # atno 10764 bound_to 10752
  154.7173  135.3109  154.9065 H   0  0  0  0  0  0  0  0  0  0  0  0  # atno 10765 bound_to 10752
  140.9588  133.7176  156.1336 H   0  0  0  0  0  0  0  0  0  0  0  0  # atno 11005 bound_to 11000
  144.8018  140.6227  143.6473 LP  0  0  0  0  0  0  0  0  0  0  0  0  # atno 17320 bound_to 7965
  145.4604  139.1513  143.3869 LP  0  0  0  0  0  0  0  0  0  0  0  0  # atno 17321 bound_to 7965
  139.7739  143.8453  152.3126 LP  0  0  0  0  0  0  0  0  0  0  0  0  # atno 17342 bound_to 10162
  139.8381  144.7222  150.9365 LP  0  0  0  0  0  0  0  0  0  0  0  0  # atno 17343 bound_to 10162
  157.7280  131.0634  150.5837 LP  0  0  0  0  0  0  0  0  0  0  0  0  # atno 17370 bound_to 10713
  156.5933  130.4335  149.5927 LP  0  0  0  0  0  0  0  0  0  0  0  0  # atno 17371 bound_to 10713
  140.7497  134.4059  157.5543 LP  0  0  0  0  0  0  0  0  0  0  0  0  # atno 17394 bound_to 11000
  139.8871  134.8891  156.2547 LP  0  0  0  0  0  0  0  0  0  0  0  0  # atno 17395 bound_to 11000

$$$$
