AV-unprocessed.smi:1005|AV-procd|sdf|4375|dock9
  -GOLD-   22720 2293D 1   1.00000     0.00000
 Structure written by MMmdl.
 57 59  0  0  0  0  0  0  0  0  3 V2000
  151.9130  145.0287  160.4248 C   0  0  0  0  0  0  0  0  0  0  0  0
  151.8249  143.7866  159.5543 C   0  0  0  0  0  0  0  0  0  0  0  0
  151.0639  143.8488  158.3648 C   0  0  0  0  0  0  0  0  0  0  0  0
  151.0021  142.6969  157.5898 C   0  0  0  0  0  0  0  0  0  0  0  0
  150.3458  142.4365  156.3847 N   0  3  0  0  0  0  0  0  0  0  0  0
  150.5794  141.1484  156.0087 C   0  0  0  0  0  0  0  0  0  0  0  0
  151.3748  140.5831  156.9568 N   0  0  0  0  0  0  0  0  0  0  0  0
  151.9225  139.2228  157.0444 C   0  0  0  0  0  0  0  0  0  0  0  0
  151.0599  138.2839  157.9101 C   0  0  1  0  0  0  0  0  0  0  0  0
  151.0249  138.7787  159.2338 O   0  0  0  0  0  0  0  0  0  0  0  0
  149.6132  138.1894  157.3839 C   0  0  0  0  0  0  0  0  0  0  0  0
  148.9288  136.9259  157.6646 N   0  0  0  0  0  0  0  0  0  0  0  0
  149.6706  135.7982  157.1116 C   0  0  0  0  0  0  0  0  0  0  0  0
  148.9783  134.4567  157.4032 C   0  0  0  0  0  0  0  0  0  0  0  0
  148.7917  134.3151  158.8079 O   0  0  0  0  0  0  0  0  0  0  0  0
  148.0122  135.3631  159.3800 C   0  0  1  0  0  0  0  0  0  0  0  0
  147.8555  135.0674  160.8873 C   0  0  0  0  0  0  0  0  0  0  0  0
  147.4277  136.2447  161.6879 N   0  3  0  0  0  0  0  0  0  0  0  0
  147.7838  136.1580  163.1225 C   0  0  0  0  0  0  0  0  0  0  0  0
  145.9892  136.5401  161.5041 C   0  0  0  0  0  0  0  0  0  0  0  0
  148.7369  136.6981  159.0965 C   0  0  0  0  0  0  0  0  0  0  0  0
  151.6666  141.5122  157.9606 C   0  0  0  0  0  0  0  0  0  0  0  0
  152.4235  141.4339  159.1270 C   0  0  0  0  0  0  0  0  0  0  0  0
  152.4938  142.5932  159.9318 C   0  0  0  0  0  0  0  0  0  0  0  0
  153.3037  142.5348  161.2160 C   0  0  0  0  0  0  0  0  0  0  0  0
  151.3646  145.8631  159.9867 H   0  0  0  0  0  0  0  0  0  0  0  0
  152.9512  145.3403  160.5441 H   0  0  0  0  0  0  0  0  0  0  0  0
  151.4929  144.8352  161.4122 H   0  0  0  0  0  0  0  0  0  0  0  0
  150.5514  144.7535  158.0716 H   0  0  0  0  0  0  0  0  0  0  0  0
  150.1998  140.6628  155.1209 H   0  0  0  0  0  0  0  0  0  0  0  0
  152.0062  138.8347  156.0282 H   0  0  0  0  0  0  0  0  0  0  0  0
  152.9383  139.2908  157.4361 H   0  0  0  0  0  0  0  0  0  0  0  0
  151.5310  137.3035  157.9334 H   0  0  0  0  0  0  0  0  0  0  0  0
  151.2233  139.7027  159.2132 H   0  0  0  0  0  0  0  0  0  0  0  0
  149.0429  139.0196  157.8043 H   0  0  0  0  0  0  0  0  0  0  0  0
  149.6106  138.3546  156.3053 H   0  0  0  0  0  0  0  0  0  0  0  0
  149.7790  135.9186  156.0329 H   0  0  0  0  0  0  0  0  0  0  0  0
  150.6799  135.7797  157.5262 H   0  0  0  0  0  0  0  0  0  0  0  0
  148.0163  134.3975  156.8917 H   0  0  0  0  0  0  0  0  0  0  0  0
  149.5865  133.6288  157.0389 H   0  0  0  0  0  0  0  0  0  0  0  0
  147.0319  135.3527  158.8998 H   0  0  0  0  0  0  0  0  0  0  0  0
  147.0795  134.3087  161.0005 H   0  0  0  0  0  0  0  0  0  0  0  0
  148.7643  134.6281  161.3017 H   0  0  0  0  0  0  0  0  0  0  0  0
  147.3814  135.2503  163.5742 H   0  0  0  0  0  0  0  0  0  0  0  0
  147.3885  137.0138  163.6711 H   0  0  0  0  0  0  0  0  0  0  0  0
  148.8645  136.1684  163.2593 H   0  0  0  0  0  0  0  0  0  0  0  0
  145.3719  135.7233  161.8806 H   0  0  0  0  0  0  0  0  0  0  0  0
  145.7534  136.6897  160.4500 H   0  0  0  0  0  0  0  0  0  0  0  0
  145.7109  137.4517  162.0338 H   0  0  0  0  0  0  0  0  0  0  0  0
  149.7056  136.6952  159.5991 H   0  0  0  0  0  0  0  0  0  0  0  0
  148.1714  137.5147  159.5372 H   0  0  0  0  0  0  0  0  0  0  0  0
  152.9352  140.5263  159.4103 H   0  0  0  0  0  0  0  0  0  0  0  0
  153.7379  141.5466  161.3706 H   0  0  0  0  0  0  0  0  0  0  0  0
  152.6732  142.7593  162.0766 H   0  0  0  0  0  0  0  0  0  0  0  0
  154.1204  143.2564  161.1860 H   0  0  0  0  0  0  0  0  0  0  0  0
  147.9240  137.0422  161.3156 H   0  0  0  0  0  0  0  0  0  0  0  0
  149.7796  143.0873  155.8555 H   0  0  0  0  0  0  0  0  0  0  0  0
  1  2  1  0  0  0  0
  1 26  1  0  0  0  0
  1 27  1  0  0  0  0
  1 28  1  0  0  0  0
  2 24  1  0  0  0  0
  2  3  2  0  0  0  0
  3  4  1  0  0  0  0
  3 29  1  0  0  0  0
  4 22  2  0  0  0  0
  4  5  1  0  0  0  0
  5  6  2  0  0  0  0
  5 57  1  0  0  0  0
  6  7  1  0  0  0  0
  6 30  1  0  0  0  0
  7  8  1  0  0  0  0
  7 22  1  0  0  0  0
  8  9  1  0  0  0  0
  8 31  1  0  0  0  0
  8 32  1  0  0  0  0
  9 10  1  0  0  0  0
  9 11  1  0  0  0  0
  9 33  1  0  0  0  0
 10 34  1  0  0  0  0
 11 12  1  0  0  0  0
 11 35  1  0  0  0  0
 11 36  1  0  0  0  0
 12 21  1  0  0  0  0
 12 13  1  0  0  0  0
 13 14  1  0  0  0  0
 13 37  1  0  0  0  0
 13 38  1  0  0  0  0
 14 15  1  0  0  0  0
 14 39  1  0  0  0  0
 14 40  1  0  0  0  0
 15 16  1  0  0  0  0
 16 17  1  0  0  0  0
 16 21  1  0  0  0  0
 16 41  1  0  0  0  0
 17 18  1  0  0  0  0
 17 42  1  0  0  0  0
 17 43  1  0  0  0  0
 18 19  1  0  0  0  0
 18 20  1  0  0  0  0
 18 56  1  0  0  0  0
 19 44  1  0  0  0  0
 19 45  1  0  0  0  0
 19 46  1  0  0  0  0
 20 47  1  0  0  0  0
 20 48  1  0  0  0  0
 20 49  1  0  0  0  0
 21 50  1  0  0  0  0
 21 51  1  0  0  0  0
 22 23  1  0  0  0  0
 23 24  2  0  0  0  0
 23 52  1  0  0  0  0
 24 25  1  0  0  0  0
 25 53  1  0  0  0  0
 25 54  1  0  0  0  0
 25 55  1  0  0  0  0
M  CHG  1   5   1
M  CHG  1  18   1
M  END
> <s_m_source_file>
AV-unprocessed.smi

> <i_m_source_file_index>
1005

> <i_lp_mmshare_version>
43012

> <i_f3d_flags>
0

> <s_epik_input>
W0NIM11jKFtjSF0xKWMoW0NIM10pW2NIXWMoYzEyKW4oW2NIXW4yKVtDSDJdW0NASF0oW09IXSlbQ0gyXU4zW0NIMl1bQ0gyXU9bQ0BIXShbQ0gyXTMpW0NIMl1OKFtDSDNdKVtDSDNd

> <s_epik_cmdline>
J2VwaWtfcHl0aG9uJywgJy1waCcsICc3LjAnLCAnLXRuJywgJzgnLCAnLW1hJywgJzIwMCcsICctbWV0YWxfYmluZGluZycsICctaW1hZScsICc8aW5maWxlLm1hZT4nLCAnLW9tYWUnLCAnPG91dGZpbGUubWFlPic=

> <r_epik_Ionization_Penalty>
1.3281

> <r_epik_Ionization_Penalty_Charging>
1.21988

> <r_epik_Ionization_Penalty_Neutral>
0.10822

> <r_epik_State_Penalty>
1.32886

> <r_epik_Charging_Adjusted_Penalty>
2.54875

> <i_epik_Tot_Q>
2

> <i_epik_Tot_abs_Q>
2

> <r_epik_Metal_State_Penalty>
5.33912

> <b_epik_Metal_Only>
0

> <s_lp_Force_Field>
OPLS_2005

> <r_lp_Energy>
45.907

> <b_lp_Chiralities_Consistent>
1

> <s_lp_Variant>
AV-unprocessed.smi:1005-14

> <Gold.Version>
5.8.1

> <Gold.Id.Protein>
6NUR|6NUR_protein|mol2

> <Gold.PLP.Fitness>
54.4034

> <Gold.PLP.PLP>
-47.3234

> <Gold.PLP.part.hbond>
-2.5415

> <Gold.PLP.part.metal>
0.0000

> <Gold.PLP.part.buried>
-7.9427

> <Gold.PLP.part.nonpolar>
-38.4629

> <Gold.PLP.part.repulsive>
0.2337

> <Gold.PLP.ligand.clash>
0.0000

> <Gold.PLP.ligand.torsion>
1.0160

> <Gold.PLP.Chemscore.Hbond>
2.9840

> <Gold.PLP.Chemscore.CHOScore>
0.0000

> <Gold.PLP.Chemscore.Metal>
0.0000

> <Gold.Chemscore.Hbonds>
donor molecule, donor type, donor heavy atom, donor atom, acceptor molecule, acceptor atom, score
      L1  H     5    57       P1  8028  2.00
      P1  H  6896  6909       L1    15  1.00

> <Gold.PLP.Chemscore.Internal.Correction>
0.1600

> <Gold.Rescore>
     Score         DG    S(hbond)    S(metal)    S(lipo)     H(rot)  DE(clash)    DE(int)     intcor
     17.93     -18.95       1.42        0.00     128.91       2.49       0.09       0.93       ----

> <Gold.Chemscore.Fitness>
17.9255

> <Gold.Chemscore.DG>
-18.9452

> <Gold.Chemscore.ZeroCoef>
-5.4800

> <Gold.Chemscore.Hbond>
1.4242

> <Gold.Chemscore.Metal>
0.0000

> <Gold.Chemscore.Lipo>
128.9069

> <Gold.Chemscore.Internal_Hbond>
0.0000

> <Gold.Chemscore.DEClash>
0.0930

> <Gold.Chemscore.DEInternal>
0.9267

> <Gold.Chemscore.Rot>
2.4897

> <Gold.Chemscore.Internal.Correction>
   9.000000E+99

> <Gold.Chemscore.Hbonds>
donor molecule, donor type, donor heavy atom, donor atom, acceptor molecule, acceptor atom, score
      L1  H     5    57       P1  8028  0.96
      P1  H  6896  6909       L1    15  0.28

> <Gold.Chemscore.Hbond.Weighted>
-4.7568

> <Gold.Chemscore.Metal.Weighted>
-0.0000

> <Gold.Chemscore.Lipo.Weighted>
-15.0821

> <Gold.Chemscore.Internal_Hbond.Weighted>
0.0000

> <Gold.Chemscore.DEClash.Weighted>
0.0930

> <Gold.Chemscore.DEInternal.Weighted>
0.9267

> <Gold.Chemscore.Rot.Weighted>
6.3737

> <Gold.Chemscore.Internal.Correction.Weighted>
   9.000000E+99

> <Gold.Protein.RotatedTorsions>
[ 6907 6896 6895 6894 ] final   26.35 input  -60.11 | X-H torsion
[ 7974 7965 7964 7962 ] final  165.51 input  175.53 | X-H torsion
[ 8008 7997 7996 7995 ] final  -47.58 input   59.86 | X-H torsion
[ 10167 10162 10161 10158 ] final   -2.50 input  -65.29 | X-H torsion
[ 10718 10713 10712 10709 ] final  159.33 input   66.30 | X-H torsion
[ 10763 10752 10751 10750 ] final  131.02 input  -60.55 | X-H torsion
[ 11005 11000 10999 10996 ] final  115.56 input  -57.11 | X-H torsion

> <Gold.Protein.ActiveResidues>
 VAL166  LYS551  ARG553  GLY616  TRP617  ASP618  TYR619  PRO620  LYS621  CYS622 
 ASP623  PHE694  ASN695  SER759  ASP760  ASP761  ALA762  ILE779  LEU786  VAL792 
 PHE793  MET794  SER795  GLU796  ALA797  LYS798  CYS799  TRP800  GLU811  SER814 

> <Gold.Protein.RotatedAtoms>
  151.9861  135.0003  160.0559 H   0  0  0  0  0  0  0  0  0  0  0  0  # atno 6907 bound_to 6896
  152.1651  133.4602  159.4889 H   0  0  0  0  0  0  0  0  0  0  0  0  # atno 6908 bound_to 6896
  150.6893  134.1941  159.4339 H   0  0  0  0  0  0  0  0  0  0  0  0  # atno 6909 bound_to 6896
  144.7499  139.8481  143.6369 H   0  0  0  0  0  0  0  0  0  0  0  0  # atno 7974 bound_to 7965
  154.4018  140.1343  156.4199 H   0  0  0  0  0  0  0  0  0  0  0  0  # atno 8008 bound_to 7997
  155.7653  140.3485  155.5198 H   0  0  0  0  0  0  0  0  0  0  0  0  # atno 8009 bound_to 7997
  155.8819  140.0989  157.1469 H   0  0  0  0  0  0  0  0  0  0  0  0  # atno 8010 bound_to 7997
  140.6853  143.6650  150.8234 H   0  0  0  0  0  0  0  0  0  0  0  0  # atno 10167 bound_to 10162
  157.1657  131.0598  151.2209 H   0  0  0  0  0  0  0  0  0  0  0  0  # atno 10718 bound_to 10713
  153.7675  135.3187  155.3347 H   0  0  0  0  0  0  0  0  0  0  0  0  # atno 10763 bound_to 10752
  154.8208  135.4604  154.0777 H   0  0  0  0  0  0  0  0  0  0  0  0  # atno 10764 bound_to 10752
  153.2026  135.6924  153.8296 H   0  0  0  0  0  0  0  0  0  0  0  0  # atno 10765 bound_to 10752
  139.9014  134.9585  156.7064 H   0  0  0  0  0  0  0  0  0  0  0  0  # atno 11005 bound_to 11000
  146.1435  139.4498  143.0094 LP  0  0  0  0  0  0  0  0  0  0  0  0  # atno 17320 bound_to 7965
  145.6981  141.0144  143.1519 LP  0  0  0  0  0  0  0  0  0  0  0  0  # atno 17321 bound_to 7965
  140.0356  143.5398  152.2741 LP  0  0  0  0  0  0  0  0  0  0  0  0  # atno 17342 bound_to 10162
  139.6207  144.7628  151.2747 LP  0  0  0  0  0  0  0  0  0  0  0  0  # atno 17343 bound_to 10162
  157.4091  130.7375  149.6825 LP  0  0  0  0  0  0  0  0  0  0  0  0  # atno 17370 bound_to 10713
  155.9746  130.4100  150.3908 LP  0  0  0  0  0  0  0  0  0  0  0  0  # atno 17371 bound_to 10713
  140.7110  133.9223  155.8084 LP  0  0  0  0  0  0  0  0  0  0  0  0  # atno 17394 bound_to 11000
  141.0300  134.0769  157.4025 LP  0  0  0  0  0  0  0  0  0  0  0  0  # atno 17395 bound_to 11000

$$$$
