AV-unprocessed.smi:906|AV-procd|sdf|4105|dock7
  -GOLD-   22720 2 03D 1   1.00000     0.00000
 Structure written by MMmdl.
 48 49  0  0  0  0  0  0  0  0  2 V2000
  147.8140  130.1349  153.8742 C   0  0  0  0  0  0  0  0  0  0  0  0
  148.4181  131.4934  154.1605 C   0  0  0  0  0  0  0  0  0  0  0  0
  149.4692  131.6378  155.0905 C   0  0  0  0  0  0  0  0  0  0  0  0
  149.9917  132.9255  155.3165 C   0  0  0  0  0  0  0  0  0  0  0  0
  149.4423  134.0161  154.6109 C   0  0  0  0  0  0  0  0  0  0  0  0
  149.9485  135.4304  154.8349 C   0  0  0  0  0  0  0  0  0  0  0  0
  149.9267  135.8640  156.3130 C   0  0  0  0  0  0  0  0  0  0  0  0
  150.7214  137.0680  156.5437 N   0  0  0  0  0  0  0  0  0  0  0  0
  151.1118  137.5359  157.7424 C   0  0  0  0  0  0  0  0  0  0  0  0
  150.8084  136.9807  158.7989 O   0  0  0  0  0  0  0  0  0  0  0  0
  151.9361  138.6111  157.6838 N   0  0  0  0  0  0  0  0  0  0  0  0
  152.1978  139.4311  156.4922 C   0  0  0  0  0  0  0  0  0  0  0  0
  151.4544  140.7733  156.6314 C   0  0  0  0  0  0  0  0  0  0  0  0
  151.8210  141.4704  157.8956 N   0  3  0  0  0  0  0  0  0  0  0  0
  151.2167  142.8319  158.0150 C   0  0  1  0  0  0  0  0  0  0  0  0
  149.7002  142.8100  158.2971 C   0  0  0  0  0  0  0  0  0  0  0  0
  151.9930  143.7223  159.0103 C   0  0  0  0  0  0  0  0  0  0  0  0
  153.3034  143.5988  158.7982 F   0  0  0  0  0  0  0  0  0  0  0  0
  151.6582  144.9982  158.8196 F   0  0  0  0  0  0  0  0  0  0  0  0
  151.7281  143.4020  160.2760 F   0  0  0  0  0  0  0  0  0  0  0  0
  151.6914  140.5954  159.0960 C   0  0  0  0  0  0  0  0  0  0  0  0
  152.4412  139.2672  158.8930 C   0  0  0  0  0  0  0  0  0  0  0  0
  148.3931  133.7630  153.7024 C   0  0  0  0  0  0  0  0  0  0  0  0
  147.8876  132.5315  153.4775 N   0  0  0  0  0  0  0  0  0  0  0  0
  148.3108  129.3518  154.4475 H   0  0  0  0  0  0  0  0  0  0  0  0
  147.9086  129.8928  152.8152 H   0  0  0  0  0  0  0  0  0  0  0  0
  146.7553  130.1289  154.1353 H   0  0  0  0  0  0  0  0  0  0  0  0
  149.8662  130.7842  155.6198 H   0  0  0  0  0  0  0  0  0  0  0  0
  150.7921  133.0723  156.0270 H   0  0  0  0  0  0  0  0  0  0  0  0
  150.9631  135.5131  154.4430 H   0  0  0  0  0  0  0  0  0  0  0  0
  149.3400  136.1155  154.2437 H   0  0  0  0  0  0  0  0  0  0  0  0
  148.9005  136.0731  156.6154 H   0  0  0  0  0  0  0  0  0  0  0  0
  150.2679  135.0456  156.9492 H   0  0  0  0  0  0  0  0  0  0  0  0
  151.0336  137.5645  155.7222 H   0  0  0  0  0  0  0  0  0  0  0  0
  153.2717  139.6072  156.4132 H   0  0  0  0  0  0  0  0  0  0  0  0
  151.9117  138.9534  155.5553 H   0  0  0  0  0  0  0  0  0  0  0  0
  151.6953  141.4057  155.7760 H   0  0  0  0  0  0  0  0  0  0  0  0
  150.3776  140.6009  156.6064 H   0  0  0  0  0  0  0  0  0  0  0  0
  151.3469  143.3110  157.0431 H   0  0  0  0  0  0  0  0  0  0  0  0
  149.2829  143.8153  158.2378 H   0  0  0  0  0  0  0  0  0  0  0  0
  149.4756  142.4289  159.2933 H   0  0  0  0  0  0  0  0  0  0  0  0
  149.1643  142.1957  157.5735 H   0  0  0  0  0  0  0  0  0  0  0  0
  152.0876  141.0943  159.9786 H   0  0  0  0  0  0  0  0  0  0  0  0
  150.6405  140.3804  159.2930 H   0  0  0  0  0  0  0  0  0  0  0  0
  152.3450  138.6411  159.7815 H   0  0  0  0  0  0  0  0  0  0  0  0
  153.5102  139.4531  158.7803 H   0  0  0  0  0  0  0  0  0  0  0  0
  147.9405  134.5716  153.1479 H   0  0  0  0  0  0  0  0  0  0  0  0
  152.8123  141.6423  157.8042 H   0  0  0  0  0  0  0  0  0  0  0  0
  1  2  1  0  0  0  0
  1 25  1  0  0  0  0
  1 26  1  0  0  0  0
  1 27  1  0  0  0  0
  2 24  1  0  0  0  0
  2  3  2  0  0  0  0
  3  4  1  0  0  0  0
  3 28  1  0  0  0  0
  4  5  2  0  0  0  0
  4 29  1  0  0  0  0
  5  6  1  0  0  0  0
  5 23  1  0  0  0  0
  6  7  1  0  0  0  0
  6 30  1  0  0  0  0
  6 31  1  0  0  0  0
  7  8  1  0  0  0  0
  7 32  1  0  0  0  0
  7 33  1  0  0  0  0
  8  9  1  0  0  0  0
  8 34  1  0  0  0  0
  9 10  2  0  0  0  0
  9 11  1  0  0  0  0
 11 22  1  0  0  0  0
 11 12  1  0  0  0  0
 12 13  1  0  0  0  0
 12 35  1  0  0  0  0
 12 36  1  0  0  0  0
 13 14  1  0  0  0  0
 13 37  1  0  0  0  0
 13 38  1  0  0  0  0
 14 15  1  0  0  0  0
 14 21  1  0  0  0  0
 14 48  1  0  0  0  0
 15 16  1  0  0  0  0
 15 17  1  0  0  0  0
 15 39  1  0  0  0  0
 16 40  1  0  0  0  0
 16 41  1  0  0  0  0
 16 42  1  0  0  0  0
 17 18  1  0  0  0  0
 17 19  1  0  0  0  0
 17 20  1  0  0  0  0
 21 22  1  0  0  0  0
 21 43  1  0  0  0  0
 21 44  1  0  0  0  0
 22 45  1  0  0  0  0
 22 46  1  0  0  0  0
 23 24  2  0  0  0  0
 23 47  1  0  0  0  0
M  CHG  1  14   1
M  END
> <s_m_source_file>
AV-unprocessed.smi

> <i_m_source_file_index>
906

> <i_lp_mmshare_version>
43012

> <i_f3d_flags>
0

> <s_epik_input>
W0NIM11jMVtjSF1bY0hdYyhbY0hdbjEpW0NIMl1bQ0gyXVtOSF1DKD1PKU4yW0NIMl1bQ0gyXU4oW0NASF0oW0NIM10pQyhGKShGKUYpW0NIMl1bQ0gyXTI=

> <s_epik_cmdline>
J2VwaWtfcHl0aG9uJywgJy1waCcsICc3LjAnLCAnLXRuJywgJzgnLCAnLW1hJywgJzIwMCcsICctbWV0YWxfYmluZGluZycsICctaW1hZScsICc8aW5maWxlLm1hZT4nLCAnLW9tYWUnLCAnPG91dGZpbGUubWFlPic=

> <r_epik_Ionization_Penalty>
2.02136

> <r_epik_Ionization_Penalty_Charging>
1.96814

> <r_epik_Ionization_Penalty_Neutral>
0.0532286

> <r_epik_State_Penalty>
2.14285

> <r_epik_Charging_Adjusted_Penalty>
4.11098

> <i_epik_Tot_Q>
1

> <i_epik_Tot_abs_Q>
1

> <r_epik_Metal_State_Penalty>
2.1406

> <b_epik_Metal_Only>
0

> <s_lp_Force_Field>
OPLS_2005

> <r_lp_Energy>
51.1917

> <b_lp_Chiralities_Consistent>
1

> <s_lp_Variant>
AV-unprocessed.smi:906-6

> <Gold.Version>
5.8.1

> <Gold.Id.Protein>
6NUR|6NUR_protein|mol2

> <Gold.PLP.Fitness>
48.1304

> <Gold.PLP.PLP>
-42.6488

> <Gold.PLP.part.hbond>
-1.0000

> <Gold.PLP.part.metal>
0.0000

> <Gold.PLP.part.buried>
-4.5520

> <Gold.PLP.part.nonpolar>
-37.0967

> <Gold.PLP.part.repulsive>
0.2699

> <Gold.PLP.ligand.clash>
0.0000

> <Gold.PLP.ligand.torsion>
0.5910

> <Gold.PLP.Chemscore.Hbond>
0.9672

> <Gold.PLP.Chemscore.CHOScore>
1.0000

> <Gold.PLP.Chemscore.Metal>
0.0000

> <Gold.Chemscore.Hbonds>
donor molecule, donor type, donor heavy atom, donor atom, acceptor molecule, acceptor atom, score
      P1  H  6896  6909       L1    10  0.48
      L1  C    23    47       P1  7948  0.97

> <Gold.PLP.Chemscore.Internal.Correction>
0.7619

> <Gold.Rescore>
     Score         DG    S(hbond)    S(metal)    S(lipo)     H(rot)  DE(clash)    DE(int)     intcor
     13.91     -14.66       0.98        0.00      85.87       1.62       0.04       0.72       ----

> <Gold.Chemscore.Fitness>
13.9062

> <Gold.Chemscore.DG>
-14.6620

> <Gold.Chemscore.ZeroCoef>
-5.4800

> <Gold.Chemscore.Hbond>
0.9805

> <Gold.Chemscore.Metal>
0.0000

> <Gold.Chemscore.Lipo>
85.8697

> <Gold.Chemscore.Internal_Hbond>
0.0000

> <Gold.Chemscore.DEClash>
0.0367

> <Gold.Chemscore.DEInternal>
0.7191

> <Gold.Chemscore.Rot>
1.6171

> <Gold.Chemscore.Internal.Correction>
   9.000000E+99

> <Gold.Chemscore.Hbonds>
donor molecule, donor type, donor heavy atom, donor atom, acceptor molecule, acceptor atom, score
      P1  H  6896  6909       L1    10  0.45

> <Gold.Chemscore.Hbond.Weighted>
-3.2750

> <Gold.Chemscore.Metal.Weighted>
-0.0000

> <Gold.Chemscore.Lipo.Weighted>
-10.0468

> <Gold.Chemscore.Internal_Hbond.Weighted>
0.0000

> <Gold.Chemscore.DEClash.Weighted>
0.0367

> <Gold.Chemscore.DEInternal.Weighted>
0.7191

> <Gold.Chemscore.Rot.Weighted>
4.1398

> <Gold.Chemscore.Internal.Correction.Weighted>
   9.000000E+99

> <Gold.Protein.RotatedTorsions>
[ 6907 6896 6895 6894 ] final  111.57 input  -60.11 | X-H torsion
[ 7974 7965 7964 7962 ] final  144.26 input  175.53 | X-H torsion
[ 8008 7997 7996 7995 ] final  -60.33 input   59.86 | X-H torsion
[ 10167 10162 10161 10158 ] final   60.98 input  -65.29 | X-H torsion
[ 10718 10713 10712 10709 ] final  -90.01 input   66.30 | X-H torsion
[ 10763 10752 10751 10750 ] final -162.14 input  -60.55 | X-H torsion
[ 11005 11000 10999 10996 ] final  105.17 input  -57.11 | X-H torsion

> <Gold.Protein.ActiveResidues>
 VAL166  LYS551  ARG553  GLY616  TRP617  ASP618  TYR619  PRO620  LYS621  CYS622 
 ASP623  PHE694  ASN695  SER759  ASP760  ASP761  ALA762  ILE779  LEU786  VAL792 
 PHE793  MET794  SER795  GLU796  ALA797  LYS798  CYS799  TRP800  GLU811  SER814 

> <Gold.Protein.RotatedAtoms>
  152.4963  133.8639  159.7264 H   0  0  0  0  0  0  0  0  0  0  0  0  # atno 6907 bound_to 6896
  150.9144  133.6949  159.2854 H   0  0  0  0  0  0  0  0  0  0  0  0  # atno 6908 bound_to 6896
  151.4347  135.1018  159.9705 H   0  0  0  0  0  0  0  0  0  0  0  0  # atno 6909 bound_to 6896
  144.8850  139.5641  143.5825 H   0  0  0  0  0  0  0  0  0  0  0  0  # atno 7974 bound_to 7965
  154.4393  140.1042  156.6256 H   0  0  0  0  0  0  0  0  0  0  0  0  # atno 8008 bound_to 7997
  155.5660  140.3488  155.4484 H   0  0  0  0  0  0  0  0  0  0  0  0  # atno 8009 bound_to 7997
  156.0424  140.1285  157.0130 H   0  0  0  0  0  0  0  0  0  0  0  0  # atno 8010 bound_to 7997
  140.1597  144.4382  150.6716 H   0  0  0  0  0  0  0  0  0  0  0  0  # atno 10167 bound_to 10162
  155.9986  130.4893  150.5257 H   0  0  0  0  0  0  0  0  0  0  0  0  # atno 10718 bound_to 10713
  154.7241  135.3032  154.9000 H   0  0  0  0  0  0  0  0  0  0  0  0  # atno 10763 bound_to 10752
  153.9862  135.6724  153.4756 H   0  0  0  0  0  0  0  0  0  0  0  0  # atno 10764 bound_to 10752
  153.0859  135.4984  154.8515 H   0  0  0  0  0  0  0  0  0  0  0  0  # atno 10765 bound_to 10752
  139.8799  134.9326  156.5473 H   0  0  0  0  0  0  0  0  0  0  0  0  # atno 11005 bound_to 11000
  146.3019  139.7454  142.9085 LP  0  0  0  0  0  0  0  0  0  0  0  0  # atno 17320 bound_to 7965
  145.3884  141.0369  143.3138 LP  0  0  0  0  0  0  0  0  0  0  0  0  # atno 17321 bound_to 7965
  140.6651  143.2265  151.5763 LP  0  0  0  0  0  0  0  0  0  0  0  0  # atno 17342 bound_to 10162
  139.5387  144.2709  152.1305 LP  0  0  0  0  0  0  0  0  0  0  0  0  # atno 17343 bound_to 10162
  157.3213  131.0682  151.1930 LP  0  0  0  0  0  0  0  0  0  0  0  0  # atno 17370 bound_to 10713
  157.2842  130.6765  149.6081 LP  0  0  0  0  0  0  0  0  0  0  0  0  # atno 17371 bound_to 10713
  140.8266  133.8312  155.8944 LP  0  0  0  0  0  0  0  0  0  0  0  0  # atno 17394 bound_to 11000
  140.9368  134.1951  157.4825 LP  0  0  0  0  0  0  0  0  0  0  0  0  # atno 17395 bound_to 11000

$$$$
