AV-unprocessed.smi:315|AV-procd|sdf|2320|dock5
  -GOLD-   2262022223D 1   1.00000     0.00000
 Structure written by MMmdl.
 47 49  0  0  0  0  0  0  0  0  2 V2000
  151.7546  138.4100  155.8165 C   0  0  0  0  0  0  0  0  0  0  0  0
  151.6250  138.1856  154.3082 C   0  0  0  0  0  0  0  0  0  0  0  0
  150.2448  138.2292  153.9614 O   0  0  0  0  0  0  0  0  0  0  0  0
  149.5587  139.4194  154.1126 C   0  0  0  0  0  0  0  0  0  0  0  0
  150.1630  140.4378  154.7738 N   0  0  0  0  0  0  0  0  0  0  0  0
  149.4881  141.5971  154.9198 C   0  0  0  0  0  0  0  0  0  0  0  0
  148.1904  141.8035  154.4157 C   0  0  0  0  0  0  0  0  0  0  0  0
  147.5617  140.7480  153.7295 C   0  0  0  0  0  0  0  0  0  0  0  0
  148.2532  139.5224  153.5806 C   0  0  0  0  0  0  0  0  0  0  0  0
  147.7251  138.4009  152.8897 N   0  0  0  0  0  0  0  0  0  0  0  0
  146.4476  138.1574  152.5429 C   0  0  0  0  0  0  0  0  0  0  0  0
  145.5237  138.9579  152.6645 O   0  0  0  0  0  0  0  0  0  0  0  0
  146.2388  136.9166  152.0654 N   0  0  0  0  0  0  0  0  0  0  0  0
  144.9820  136.3204  151.5992 C   0  0  2  0  0  0  0  0  0  0  0  0
  143.8733  136.3595  152.6680 C   0  0  0  0  0  0  0  0  0  0  0  0
  143.1542  135.0144  152.5295 C   0  0  0  0  0  0  0  0  0  0  0  0
  144.2375  134.1039  152.1427 N   0  3  1  0  0  0  0  0  0  0  0  0
  143.8883  132.7443  151.6839 C   0  0  0  0  0  0  0  0  0  0  0  0
  145.1922  131.9324  151.5316 C   0  0  0  0  0  0  0  0  0  0  0  0
  146.2325  132.6583  150.6494 C   0  0  0  0  0  0  0  0  0  0  0  0
  146.4540  134.1181  151.1013 C   0  0  0  0  0  0  0  0  0  0  0  0
  145.0911  134.8302  151.1862 C   0  0  2  0  0  0  0  0  0  0  0  0
  152.7987  138.3700  156.1274 H   0  0  0  0  0  0  0  0  0  0  0  0
  151.2092  137.6483  156.3741 H   0  0  0  0  0  0  0  0  0  0  0  0
  151.3584  139.3840  156.1024 H   0  0  0  0  0  0  0  0  0  0  0  0
  152.1790  138.9592  153.7737 H   0  0  0  0  0  0  0  0  0  0  0  0
  152.0532  137.2176  154.0437 H   0  0  0  0  0  0  0  0  0  0  0  0
  150.0008  142.3864  155.4492 H   0  0  0  0  0  0  0  0  0  0  0  0
  147.6909  142.7518  154.5472 H   0  0  0  0  0  0  0  0  0  0  0  0
  146.5746  140.8997  153.3205 H   0  0  0  0  0  0  0  0  0  0  0  0
  148.3649  137.6281  152.7791 H   0  0  0  0  0  0  0  0  0  0  0  0
  147.0423  136.3045  152.0588 H   0  0  0  0  0  0  0  0  0  0  0  0
  144.6161  136.8882  150.7416 H   0  0  0  0  0  0  0  0  0  0  0  0
  144.3103  136.4310  153.6655 H   0  0  0  0  0  0  0  0  0  0  0  0
  143.1983  137.2071  152.5441 H   0  0  0  0  0  0  0  0  0  0  0  0
  142.6655  134.7007  153.4525 H   0  0  0  0  0  0  0  0  0  0  0  0
  142.4061  135.0570  151.7358 H   0  0  0  0  0  0  0  0  0  0  0  0
  143.2315  132.2667  152.4117 H   0  0  0  0  0  0  0  0  0  0  0  0
  143.3459  132.7934  150.7386 H   0  0  0  0  0  0  0  0  0  0  0  0
  145.6233  131.7608  152.5188 H   0  0  0  0  0  0  0  0  0  0  0  0
  144.9731  130.9476  151.1182 H   0  0  0  0  0  0  0  0  0  0  0  0
  147.1777  132.1149  150.6597 H   0  0  0  0  0  0  0  0  0  0  0  0
  145.8875  132.6512  149.6153 H   0  0  0  0  0  0  0  0  0  0  0  0
  146.9553  134.1390  152.0700 H   0  0  0  0  0  0  0  0  0  0  0  0
  147.1113  134.6184  150.3907 H   0  0  0  0  0  0  0  0  0  0  0  0
  144.6193  134.7546  150.2037 H   0  0  0  0  0  0  0  0  0  0  0  0
  144.7956  133.9870  152.9766 H   0  0  0  0  0  0  0  0  0  0  0  0
  1  2  1  0  0  0  0
  1 23  1  0  0  0  0
  1 24  1  0  0  0  0
  1 25  1  0  0  0  0
  2  3  1  0  0  0  0
  2 26  1  0  0  0  0
  2 27  1  0  0  0  0
  3  4  1  0  0  0  0
  4  9  1  0  0  0  0
  4  5  2  0  0  0  0
  5  6  1  0  0  0  0
  6  7  2  0  0  0  0
  6 28  1  0  0  0  0
  7  8  1  0  0  0  0
  7 29  1  0  0  0  0
  8  9  2  0  0  0  0
  8 30  1  0  0  0  0
  9 10  1  0  0  0  0
 10 11  1  0  0  0  0
 10 31  1  0  0  0  0
 11 12  2  0  0  0  0
 11 13  1  0  0  0  0
 13 14  1  0  0  0  0
 13 32  1  0  0  0  0
 14 22  1  0  0  0  0
 14 15  1  0  0  0  0
 14 33  1  0  0  0  0
 15 16  1  0  0  0  0
 15 34  1  0  0  0  0
 15 35  1  0  0  0  0
 16 17  1  0  0  0  0
 16 36  1  0  0  0  0
 16 37  1  0  0  0  0
 17 22  1  0  0  0  0
 17 18  1  0  0  0  0
 17 47  1  0  0  0  0
 18 19  1  0  0  0  0
 18 38  1  0  0  0  0
 18 39  1  0  0  0  0
 19 20  1  0  0  0  0
 19 40  1  0  0  0  0
 19 41  1  0  0  0  0
 20 21  1  0  0  0  0
 20 42  1  0  0  0  0
 20 43  1  0  0  0  0
 21 22  1  0  0  0  0
 21 44  1  0  0  0  0
 21 45  1  0  0  0  0
 22 46  1  0  0  0  0
M  CHG  1  17   1
M  END
> <s_m_source_file>
AV-unprocessed.smi

> <i_m_source_file_index>
315

> <i_lp_mmshare_version>
43012

> <i_f3d_flags>
0

> <s_epik_input>
W0NIM11bQ0gyXU9jMW5bY0hdW2NIXVtjSF1jMVtOSF1DKD1PKVtOSF1bQ0BIXShbQ0gyXVtDSDJdMilbQ0BASF0oTjIzKVtDSDJdW0NIMl1bQ0gyXVtDSDJdMw==

> <s_epik_cmdline>
J2VwaWtfcHl0aG9uJywgJy1waCcsICc3LjAnLCAnLXRuJywgJzgnLCAnLW1hJywgJzIwMCcsICctbWV0YWxfYmluZGluZycsICctaW1hZScsICc8aW5maWxlLm1hZT4nLCAnLW9tYWUnLCAnPG91dGZpbGUubWFlPic=

> <r_lp_tautomer_probability>
1

> <r_epik_Ionization_Penalty>
0.00106455

> <r_epik_Ionization_Penalty_Charging>
0.000974069

> <r_epik_Ionization_Penalty_Neutral>
9.04821e-05

> <r_epik_State_Penalty>
0.000633842

> <r_epik_Charging_Adjusted_Penalty>
0.00160791

> <i_epik_Tot_Q>
1

> <i_epik_Tot_abs_Q>
1

> <r_epik_Metal_State_Penalty>
-0

> <b_epik_Metal_Only>
0

> <s_lp_Force_Field>
OPLS_2005

> <r_lp_Energy>
53.3213

> <b_lp_Chiralities_Consistent>
1

> <s_lp_Variant>
AV-unprocessed.smi:315-5

> <Gold.Version>
5.8.1

> <Gold.Id.Protein>
6NUR|6NUR_protein|mol2

> <Gold.PLP.Fitness>
45.4193

> <Gold.PLP.PLP>
-35.1044

> <Gold.PLP.part.hbond>
-4.0000

> <Gold.PLP.part.metal>
0.0000

> <Gold.PLP.part.buried>
-0.8103

> <Gold.PLP.part.nonpolar>
-36.0616

> <Gold.PLP.part.repulsive>
5.3444

> <Gold.PLP.ligand.clash>
0.0000

> <Gold.PLP.ligand.torsion>
0.1639

> <Gold.PLP.Chemscore.Hbond>
2.8880

> <Gold.PLP.Chemscore.CHOScore>
0.6593

> <Gold.PLP.Chemscore.Metal>
0.0000

> <Gold.Chemscore.Hbonds>
donor molecule, donor type, donor heavy atom, donor atom, acceptor molecule, acceptor atom, score
      L1  H    10    31       P1  7948  1.00
      L1  H    13    32       P1  7948  0.90
      P1  H  7989  7998       L1     5  0.98
      L1  C     6    28       P1  8028  0.67

> <Gold.PLP.Chemscore.Internal.Correction>
0.0008

> <Gold.Rescore>
     Score         DG    S(hbond)    S(metal)    S(lipo)     H(rot)  DE(clash)    DE(int)     intcor
     12.63     -19.44       1.95        0.00      93.68       1.38       3.41       3.39       ----

> <Gold.Chemscore.Fitness>
12.6323

> <Gold.Chemscore.DG>
-19.4394

> <Gold.Chemscore.ZeroCoef>
-5.4800

> <Gold.Chemscore.Hbond>
1.9533

> <Gold.Chemscore.Metal>
0.0000

> <Gold.Chemscore.Lipo>
93.6798

> <Gold.Chemscore.Internal_Hbond>
0.0000

> <Gold.Chemscore.DEClash>
3.4130

> <Gold.Chemscore.DEInternal>
3.3940

> <Gold.Chemscore.Rot>
1.3770

> <Gold.Chemscore.Internal.Correction>
   9.000000E+99

> <Gold.Chemscore.Hbonds>
donor molecule, donor type, donor heavy atom, donor atom, acceptor molecule, acceptor atom, score
      L1  H    10    31       P1  7948  0.94
      L1  H    13    32       P1  7948  0.88
      P1  H  7989  7998       L1     5  0.10

> <Gold.Chemscore.Hbond.Weighted>
-6.5240

> <Gold.Chemscore.Metal.Weighted>
-0.0000

> <Gold.Chemscore.Lipo.Weighted>
-10.9605

> <Gold.Chemscore.Internal_Hbond.Weighted>
0.0000

> <Gold.Chemscore.DEClash.Weighted>
3.4130

> <Gold.Chemscore.DEInternal.Weighted>
3.3940

> <Gold.Chemscore.Rot.Weighted>
3.5252

> <Gold.Chemscore.Internal.Correction.Weighted>
   9.000000E+99

> <Gold.Protein.RotatedTorsions>
[ 6907 6896 6895 6894 ] final -126.92 input  -60.11 | X-H torsion
[ 7974 7965 7964 7962 ] final  145.95 input  175.53 | X-H torsion
[ 8008 7997 7996 7995 ] final -103.14 input   59.86 | X-H torsion
[ 10167 10162 10161 10158 ] final  -86.53 input  -65.29 | X-H torsion
[ 10718 10713 10712 10709 ] final   22.23 input   66.30 | X-H torsion
[ 10763 10752 10751 10750 ] final -177.09 input  -60.55 | X-H torsion
[ 11005 11000 10999 10996 ] final  -76.26 input  -57.11 | X-H torsion

> <Gold.Protein.ActiveResidues>
 VAL166  LYS551  ARG553  GLY616  TRP617  ASP618  TYR619  PRO620  LYS621  CYS622 
 ASP623  PHE694  ASN695  SER759  ASP760  ASP761  ALA762  ILE779  LEU786  VAL792 
 PHE793  MET794  SER795  GLU796  ALA797  LYS798  CYS799  TRP800  GLU811  SER814 

> <Gold.Protein.RotatedAtoms>
  150.9019  133.7107  159.2876 H   0  0  0  0  0  0  0  0  0  0  0  0  # atno 6907 bound_to 6896
  151.4622  135.1038  159.9737 H   0  0  0  0  0  0  0  0  0  0  0  0  # atno 6908 bound_to 6896
  152.4882  133.8380  159.7193 H   0  0  0  0  0  0  0  0  0  0  0  0  # atno 6909 bound_to 6896
  144.8711  139.5845  143.5886 H   0  0  0  0  0  0  0  0  0  0  0  0  # atno 7974 bound_to 7965
  154.8667  140.0424  157.1699 H   0  0  0  0  0  0  0  0  0  0  0  0  # atno 8008 bound_to 7997
  154.8782  140.2968  155.5420 H   0  0  0  0  0  0  0  0  0  0  0  0  # atno 8009 bound_to 7997
  156.2999  140.2416  156.3781 H   0  0  0  0  0  0  0  0  0  0  0  0  # atno 8010 bound_to 7997
  140.3933  143.2695  151.9237 H   0  0  0  0  0  0  0  0  0  0  0  0  # atno 10167 bound_to 10162
  157.1494  130.6668  149.6007 H   0  0  0  0  0  0  0  0  0  0  0  0  # atno 10718 bound_to 10713
  154.5644  135.2823  155.0888 H   0  0  0  0  0  0  0  0  0  0  0  0  # atno 10763 bound_to 10752
  154.2284  135.6378  153.5171 H   0  0  0  0  0  0  0  0  0  0  0  0  # atno 10764 bound_to 10752
  153.0039  135.5531  154.6249 H   0  0  0  0  0  0  0  0  0  0  0  0  # atno 10765 bound_to 10752
  141.1652  133.6977  156.7642 H   0  0  0  0  0  0  0  0  0  0  0  0  # atno 11005 bound_to 11000
  146.2931  139.7196  142.9147 LP  0  0  0  0  0  0  0  0  0  0  0  0  # atno 17320 bound_to 7965
  145.4129  141.0398  143.3007 LP  0  0  0  0  0  0  0  0  0  0  0  0  # atno 17321 bound_to 7965
  139.4788  144.5706  151.8094 LP  0  0  0  0  0  0  0  0  0  0  0  0  # atno 17342 bound_to 10162
  140.4817  144.1439  150.5934 LP  0  0  0  0  0  0  0  0  0  0  0  0  # atno 17343 bound_to 10162
  155.9773  130.4750  150.6586 LP  0  0  0  0  0  0  0  0  0  0  0  0  # atno 17370 bound_to 10713
  157.4234  131.0840  151.1109 LP  0  0  0  0  0  0  0  0  0  0  0  0  # atno 17371 bound_to 10713
  140.2511  134.8539  157.3668 LP  0  0  0  0  0  0  0  0  0  0  0  0  # atno 17394 bound_to 11000
  140.1701  134.4619  155.7837 LP  0  0  0  0  0  0  0  0  0  0  0  0  # atno 17395 bound_to 11000

$$$$
