AV-unprocessed.smi:3281|AV-procd|sdf|12559|dock9
  -GOLD-   2272018483D 1   1.00000     0.00000
 Structure written by MMmdl.
 36 37  0  0  0  0  0  0  0  0  1 V2000
  151.1907  134.9443  155.9528 C   0  0  0  0  0  0  0  0  0  0  0  0
  150.1506  135.8726  155.3167 C   0  0  0  0  0  0  0  0  0  0  0  0
  150.5871  137.2997  155.2658 C   0  0  0  0  0  0  0  0  0  0  0  0
  150.7665  138.0809  154.1511 C   0  0  0  0  0  0  0  0  0  0  0  0
  151.1749  139.3859  154.4347 N   0  0  0  0  0  0  0  0  0  0  0  0
  151.3200  139.6022  155.7442 C   0  0  0  0  0  0  0  0  0  0  0  0
  151.7099  140.9256  156.3205 C   0  0  0  0  0  0  0  0  0  0  0  0
  150.5408  141.9202  156.4036 C   0  0  0  0  0  0  0  0  0  0  0  0
  151.0226  143.2399  156.7897 N   0  0  0  0  0  0  0  0  0  0  0  0
  151.0424  143.4167  158.2359 C   0  0  1  0  0  0  0  0  0  0  0  0
  152.1357  142.5236  158.8642 C   0  0  0  0  0  0  0  0  0  0  0  0
  152.2155  142.6738  160.3921 C   0  0  0  0  0  0  0  0  0  0  0  0
  152.5495  144.1078  160.8247 C   0  0  0  0  0  0  0  0  0  0  0  0
  151.2621  145.2674  160.2924 S   0  0  0  0  0  0  0  0  0  0  0  0
  151.3008  144.9082  158.5154 C   0  0  0  0  0  0  0  0  0  0  0  0
  150.9389  138.1903  156.7246 S   0  0  0  0  0  0  0  0  0  0  0  0
  150.8351  133.9139  155.9645 H   0  0  0  0  0  0  0  0  0  0  0  0
  151.4032  135.2343  156.9821 H   0  0  0  0  0  0  0  0  0  0  0  0
  152.1286  134.9667  155.3974 H   0  0  0  0  0  0  0  0  0  0  0  0
  149.9282  135.5238  154.3076 H   0  0  0  0  0  0  0  0  0  0  0  0
  149.2151  135.8016  155.8723 H   0  0  0  0  0  0  0  0  0  0  0  0
  150.6225  137.7912  153.1205 H   0  0  0  0  0  0  0  0  0  0  0  0
  152.1435  140.7661  157.3085 H   0  0  0  0  0  0  0  0  0  0  0  0
  152.5031  141.3489  155.7033 H   0  0  0  0  0  0  0  0  0  0  0  0
  150.0507  141.9942  155.4322 H   0  0  0  0  0  0  0  0  0  0  0  0
  149.7987  141.5516  157.1114 H   0  0  0  0  0  0  0  0  0  0  0  0
  150.4221  143.9381  156.3746 H   0  0  0  0  0  0  0  0  0  0  0  0
  150.0649  143.1552  158.6442 H   0  0  0  0  0  0  0  0  0  0  0  0
  151.9491  141.4747  158.6347 H   0  0  0  0  0  0  0  0  0  0  0  0
  153.1063  142.7605  158.4254 H   0  0  0  0  0  0  0  0  0  0  0  0
  151.2727  142.3629  160.8436 H   0  0  0  0  0  0  0  0  0  0  0  0
  152.9772  141.9964  160.7791 H   0  0  0  0  0  0  0  0  0  0  0  0
  152.6432  144.1631  161.9093 H   0  0  0  0  0  0  0  0  0  0  0  0
  153.5062  144.4193  160.4043 H   0  0  0  0  0  0  0  0  0  0  0  0
  152.2687  145.2143  158.1156 H   0  0  0  0  0  0  0  0  0  0  0  0
  150.5439  145.5252  158.0291 H   0  0  0  0  0  0  0  0  0  0  0  0
  1  2  1  0  0  0  0
  1 17  1  0  0  0  0
  1 18  1  0  0  0  0
  1 19  1  0  0  0  0
  2  3  1  0  0  0  0
  2 20  1  0  0  0  0
  2 21  1  0  0  0  0
  3 16  1  0  0  0  0
  3  4  2  0  0  0  0
  4  5  1  0  0  0  0
  4 22  1  0  0  0  0
  5  6  2  0  0  0  0
  6  7  1  0  0  0  0
  6 16  1  0  0  0  0
  7  8  1  0  0  0  0
  7 23  1  0  0  0  0
  7 24  1  0  0  0  0
  8  9  1  0  0  0  0
  8 25  1  0  0  0  0
  8 26  1  0  0  0  0
  9 10  1  0  0  0  0
  9 27  1  0  0  0  0
 10 15  1  0  0  0  0
 10 11  1  0  0  0  0
 10 28  1  0  0  0  0
 11 12  1  0  0  0  0
 11 29  1  0  0  0  0
 11 30  1  0  0  0  0
 12 13  1  0  0  0  0
 12 31  1  0  0  0  0
 12 32  1  0  0  0  0
 13 14  1  0  0  0  0
 13 33  1  0  0  0  0
 13 34  1  0  0  0  0
 14 15  1  0  0  0  0
 15 35  1  0  0  0  0
 15 36  1  0  0  0  0
M  END
> <s_m_source_file>
AV-unprocessed.smi

> <i_m_source_file_index>
3281

> <i_lp_mmshare_version>
43012

> <i_f3d_flags>
0

> <s_epik_input>
W0NIM11bQ0gyXWMxW2NIXW5jKHMxKVtDSDJdW0NIMl1bTkhdW0NAQEhdMltDSDJdW0NIMl1bQ0gyXVNbQ0gyXTI=

> <s_epik_cmdline>
J2VwaWtfcHl0aG9uJywgJy1waCcsICc3LjAnLCAnLXRuJywgJzgnLCAnLW1hJywgJzIwMCcsICctbWV0YWxfYmluZGluZycsICctaW1hZScsICc8aW5maWxlLm1hZT4nLCAnLW9tYWUnLCAnPG91dGZpbGUubWFlPic=

> <r_epik_Ionization_Penalty>
2.53829

> <r_epik_Ionization_Penalty_Charging>
0

> <r_epik_Ionization_Penalty_Neutral>
2.53829

> <r_epik_State_Penalty>
2.70274

> <r_epik_Charging_Adjusted_Penalty>
2.70274

> <i_epik_Tot_Q>
0

> <i_epik_Tot_abs_Q>
0

> <r_epik_Metal_State_Penalty>
2.69977

> <b_epik_Metal_Only>
0

> <s_lp_Force_Field>
OPLS_2005

> <r_lp_Energy>
0.42492

> <b_lp_Chiralities_Consistent>
1

> <s_lp_Variant>
AV-unprocessed.smi:3281-4

> <Gold.Version>
5.8.1

> <Gold.Id.Protein>
6NUR|6NUR_protein|mol2

> <Gold.PLP.Fitness>
43.2561

> <Gold.PLP.PLP>
-35.0482

> <Gold.PLP.part.hbond>
-2.0000

> <Gold.PLP.part.metal>
0.0000

> <Gold.PLP.part.buried>
-4.9606

> <Gold.PLP.part.nonpolar>
-27.5542

> <Gold.PLP.part.repulsive>
0.1340

> <Gold.PLP.ligand.clash>
0.0000

> <Gold.PLP.ligand.torsion>
0.5399

> <Gold.PLP.Chemscore.Hbond>
2.0000

> <Gold.PLP.Chemscore.CHOScore>
1.0869

> <Gold.PLP.Chemscore.Metal>
0.0000

> <Gold.Chemscore.Hbonds>
donor molecule, donor type, donor heavy atom, donor atom, acceptor molecule, acceptor atom, score
      L1  H     9    27       P1  8028  1.00
      P1  H  7989  7998       L1     5  1.00
      L1  C     4    22       P1  7948  0.47
      L1  C     4    22       P1  7949  0.64

> <Gold.PLP.Chemscore.Internal.Correction>
0.0269

> <Gold.Rescore>
     Score         DG    S(hbond)    S(metal)    S(lipo)     H(rot)  DE(clash)    DE(int)     intcor
     20.53     -21.36       1.90        0.00     109.82       1.30       0.12       0.71       ----

> <Gold.Chemscore.Fitness>
20.5271

> <Gold.Chemscore.DG>
-21.3607

> <Gold.Chemscore.ZeroCoef>
-5.4800

> <Gold.Chemscore.Hbond>
1.9019

> <Gold.Chemscore.Metal>
0.0000

> <Gold.Chemscore.Lipo>
109.8220

> <Gold.Chemscore.Internal_Hbond>
0.0000

> <Gold.Chemscore.DEClash>
0.1216

> <Gold.Chemscore.DEInternal>
0.7120

> <Gold.Chemscore.Rot>
1.2972

> <Gold.Chemscore.Internal.Correction>
   9.000000E+99

> <Gold.Chemscore.Hbonds>
donor molecule, donor type, donor heavy atom, donor atom, acceptor molecule, acceptor atom, score
      L1  H     9    27       P1  8028  1.00
      P1  H  7989  7998       L1     5  0.78

> <Gold.Chemscore.Hbond.Weighted>
-6.3523

> <Gold.Chemscore.Metal.Weighted>
-0.0000

> <Gold.Chemscore.Lipo.Weighted>
-12.8492

> <Gold.Chemscore.Internal_Hbond.Weighted>
0.0000

> <Gold.Chemscore.DEClash.Weighted>
0.1216

> <Gold.Chemscore.DEInternal.Weighted>
0.7120

> <Gold.Chemscore.Rot.Weighted>
3.3208

> <Gold.Chemscore.Internal.Correction.Weighted>
   9.000000E+99

> <Gold.Protein.RotatedTorsions>
[ 6907 6896 6895 6894 ] final  -53.92 input  -60.11 | X-H torsion
[ 7974 7965 7964 7962 ] final  139.04 input  175.53 | X-H torsion
[ 8008 7997 7996 7995 ] final  -48.65 input   59.86 | X-H torsion
[ 10167 10162 10161 10158 ] final   89.82 input  -65.29 | X-H torsion
[ 10718 10713 10712 10709 ] final  119.68 input   66.30 | X-H torsion
[ 10763 10752 10751 10750 ] final  119.16 input  -60.55 | X-H torsion
[ 11005 11000 10999 10996 ] final   -4.20 input  -57.11 | X-H torsion

> <Gold.Protein.ActiveResidues>
 VAL166  LYS551  ARG553  GLY616  TRP617  ASP618  TYR619  PRO620  LYS621  CYS622 
 ASP623  PHE694  ASN695  SER759  ASP760  ASP761  ALA762  ILE779  LEU786  VAL792 
 PHE793  MET794  SER795  GLU796  ALA797  LYS798  CYS799  TRP800  GLU811  SER814 

> <Gold.Protein.RotatedAtoms>
  150.8383  134.7666  159.6911 H   0  0  0  0  0  0  0  0  0  0  0  0  # atno 6907 bound_to 6896
  152.4476  134.5459  159.9862 H   0  0  0  0  0  0  0  0  0  0  0  0  # atno 6908 bound_to 6896
  151.5604  133.3366  159.3006 H   0  0  0  0  0  0  0  0  0  0  0  0  # atno 6909 bound_to 6896
  144.9315  139.5041  143.5615 H   0  0  0  0  0  0  0  0  0  0  0  0  # atno 7974 bound_to 7965
  154.4032  140.1316  156.4374 H   0  0  0  0  0  0  0  0  0  0  0  0  # atno 8008 bound_to 7997
  155.7492  140.3488  155.5122 H   0  0  0  0  0  0  0  0  0  0  0  0  # atno 8009 bound_to 7997
  155.8966  140.1012  157.1371 H   0  0  0  0  0  0  0  0  0  0  0  0  # atno 8010 bound_to 7997
  139.8534  144.6582  150.9143 H   0  0  0  0  0  0  0  0  0  0  0  0  # atno 10167 bound_to 10162
  157.5944  131.1060  150.7930 H   0  0  0  0  0  0  0  0  0  0  0  0  # atno 10718 bound_to 10713
  153.5788  135.3488  155.2867 H   0  0  0  0  0  0  0  0  0  0  0  0  # atno 10763 bound_to 10752
  154.8671  135.4177  154.2643 H   0  0  0  0  0  0  0  0  0  0  0  0  # atno 10764 bound_to 10752
  153.3425  135.7050  153.6925 H   0  0  0  0  0  0  0  0  0  0  0  0  # atno 10765 bound_to 10752
  140.6776  133.9181  155.8534 H   0  0  0  0  0  0  0  0  0  0  0  0  # atno 11005 bound_to 11000
  146.3249  139.8270  142.8916 LP  0  0  0  0  0  0  0  0  0  0  0  0  # atno 17320 bound_to 7965
  145.3134  141.0225  143.3542 LP  0  0  0  0  0  0  0  0  0  0  0  0  # atno 17321 bound_to 7965
  140.7784  143.3807  151.1482 LP  0  0  0  0  0  0  0  0  0  0  0  0  # atno 17342 bound_to 10162
  139.7443  143.8876  152.3059 LP  0  0  0  0  0  0  0  0  0  0  0  0  # atno 17343 bound_to 10162
  156.8344  130.5027  149.5328 LP  0  0  0  0  0  0  0  0  0  0  0  0  # atno 17370 bound_to 10713
  156.1004  130.5965  150.9885 LP  0  0  0  0  0  0  0  0  0  0  0  0  # atno 17371 bound_to 10713
  141.0343  134.0712  157.3978 LP  0  0  0  0  0  0  0  0  0  0  0  0  # atno 17394 bound_to 11000
  139.8962  135.0144  156.7038 LP  0  0  0  0  0  0  0  0  0  0  0  0  # atno 17395 bound_to 11000

$$$$
