AV-unprocessed.smi:1981|AV-procd|sdf|8019|dock2
  -GOLD-   2272010213D 1   1.00000     0.00000
 Structure written by MMmdl.
 45 46  0  0  0  0  0  0  0  0  1 V2000
  147.2956  136.6443  161.1285 C   0  0  0  0  0  0  0  0  0  0  0  0
  147.5346  137.5620  160.0757 O   0  0  0  0  0  0  0  0  0  0  0  0
  147.2684  137.0041  158.8004 C   0  0  0  0  0  0  0  0  0  0  0  0
  148.3699  135.9894  158.4601 C   0  0  0  0  0  0  0  0  0  0  0  0
  149.2381  136.4796  157.3852 N   0  0  0  0  0  0  0  0  0  0  0  0
  150.2358  137.3384  157.8146 N   0  0  0  0  0  0  0  0  0  0  0  0
  151.0751  137.8370  156.9653 C   0  0  0  0  0  0  0  0  0  0  0  0
  152.1621  138.7630  157.3876 C   0  0  0  0  0  0  0  0  0  0  0  0
  153.3508  138.4462  157.3181 O   0  0  0  0  0  0  0  0  0  0  0  0
  151.7514  139.9589  157.8471 N   0  0  0  0  0  0  0  0  0  0  0  0
  152.6220  141.0323  158.3147 C   0  0  0  0  0  0  0  0  0  0  0  0
  153.2257  140.6853  159.6958 C   0  0  0  0  0  0  0  0  0  0  0  0
  153.9710  141.8888  160.2995 C   0  0  0  0  0  0  0  0  0  0  0  0
  153.0485  143.0275  160.3702 N   0  0  0  0  0  0  0  0  0  0  0  0
  152.5431  143.4887  161.5395 C   0  0  0  0  0  0  0  0  0  0  0  0
  153.0152  142.8672  162.8559 C   0  0  0  0  0  0  0  0  0  0  0  0
  151.7163  144.3993  161.5938 O   0  0  0  0  0  0  0  0  0  0  0  0
  152.6422  143.4756  159.0326 C   0  0  0  0  0  0  0  0  0  0  0  0
  151.8268  142.3552  158.3630 C   0  0  0  0  0  0  0  0  0  0  0  0
  150.9879  137.5078  155.5525 C   0  0  0  0  0  0  0  0  0  0  0  0
  150.0130  136.6636  155.1495 C   0  0  0  0  0  0  0  0  0  0  0  0
  149.0544  136.0815  156.0903 C   0  0  0  0  0  0  0  0  0  0  0  0
  148.1659  135.3011  155.7499 O   0  0  0  0  0  0  0  0  0  0  0  0
  147.5166  137.1175  162.0851 H   0  0  0  0  0  0  0  0  0  0  0  0
  147.9304  135.7623  161.0349 H   0  0  0  0  0  0  0  0  0  0  0  0
  146.2528  136.3250  161.1434 H   0  0  0  0  0  0  0  0  0  0  0  0
  146.2941  136.5124  158.8061 H   0  0  0  0  0  0  0  0  0  0  0  0
  147.2348  137.7946  158.0490 H   0  0  0  0  0  0  0  0  0  0  0  0
  148.9562  135.7599  159.3516 H   0  0  0  0  0  0  0  0  0  0  0  0
  147.9116  135.0440  158.1639 H   0  0  0  0  0  0  0  0  0  0  0  0
  150.7573  140.1361  157.8716 H   0  0  0  0  0  0  0  0  0  0  0  0
  153.4399  141.1630  157.6035 H   0  0  0  0  0  0  0  0  0  0  0  0
  152.4327  140.3777  160.3795 H   0  0  0  0  0  0  0  0  0  0  0  0
  153.9045  139.8362  159.6098 H   0  0  0  0  0  0  0  0  0  0  0  0
  154.3863  141.6195  161.2715 H   0  0  0  0  0  0  0  0  0  0  0  0
  154.8259  142.1522  159.6751 H   0  0  0  0  0  0  0  0  0  0  0  0
  154.0950  142.9694  162.9665 H   0  0  0  0  0  0  0  0  0  0  0  0
  152.7508  141.8105  162.9011 H   0  0  0  0  0  0  0  0  0  0  0  0
  152.5456  143.3647  163.7054 H   0  0  0  0  0  0  0  0  0  0  0  0
  152.0684  144.4010  159.0373 H   0  0  0  0  0  0  0  0  0  0  0  0
  153.5333  143.6909  158.4411 H   0  0  0  0  0  0  0  0  0  0  0  0
  151.5391  142.6554  157.3549 H   0  0  0  0  0  0  0  0  0  0  0  0
  150.8989  142.2101  158.9188 H   0  0  0  0  0  0  0  0  0  0  0  0
  151.6820  137.9226  154.8359 H   0  0  0  0  0  0  0  0  0  0  0  0
  149.9372  136.4093  154.1024 H   0  0  0  0  0  0  0  0  0  0  0  0
  1  2  1  0  0  0  0
  1 24  1  0  0  0  0
  1 25  1  0  0  0  0
  1 26  1  0  0  0  0
  2  3  1  0  0  0  0
  3  4  1  0  0  0  0
  3 27  1  0  0  0  0
  3 28  1  0  0  0  0
  4  5  1  0  0  0  0
  4 29  1  0  0  0  0
  4 30  1  0  0  0  0
  5 22  1  0  0  0  0
  5  6  1  0  0  0  0
  6  7  2  0  0  0  0
  7  8  1  0  0  0  0
  7 20  1  0  0  0  0
  8  9  2  0  0  0  0
  8 10  1  0  0  0  0
 10 11  1  0  0  0  0
 10 31  1  0  0  0  0
 11 19  1  0  0  0  0
 11 12  1  0  0  0  0
 11 32  1  0  0  0  0
 12 13  1  0  0  0  0
 12 33  1  0  0  0  0
 12 34  1  0  0  0  0
 13 14  1  0  0  0  0
 13 35  1  0  0  0  0
 13 36  1  0  0  0  0
 14 15  1  0  0  0  0
 14 18  1  0  0  0  0
 15 16  1  0  0  0  0
 15 17  2  0  0  0  0
 16 37  1  0  0  0  0
 16 38  1  0  0  0  0
 16 39  1  0  0  0  0
 18 19  1  0  0  0  0
 18 40  1  0  0  0  0
 18 41  1  0  0  0  0
 19 42  1  0  0  0  0
 19 43  1  0  0  0  0
 20 21  2  0  0  0  0
 20 44  1  0  0  0  0
 21 22  1  0  0  0  0
 21 45  1  0  0  0  0
 22 23  2  0  0  0  0
M  END
> <s_m_source_file>
AV-unprocessed.smi

> <i_m_source_file_index>
1981

> <i_lp_mmshare_version>
43012

> <i_f3d_flags>
0

> <s_epik_input>
W0NIM11PW0NIMl1bQ0gyXW4xbmMoW2NIXVtjSF1jMT1PKUMoPU8pW05IXVtDSF0yW0NIMl1bQ0gyXU4oQyg9TylbQ0gzXSlbQ0gyXVtDSDJdMg==

> <s_epik_cmdline>
J2VwaWtfcHl0aG9uJywgJy1waCcsICc3LjAnLCAnLXRuJywgJzgnLCAnLW1hJywgJzIwMCcsICctbWV0YWxfYmluZGluZycsICctaW1hZScsICc8aW5maWxlLm1hZT4nLCAnLW9tYWUnLCAnPG91dGZpbGUubWFlPic=

> <r_lp_tautomer_probability>
1

> <r_epik_Ionization_Penalty>
2.32097e-06

> <r_epik_Ionization_Penalty_Charging>
6.14723e-09

> <r_epik_Ionization_Penalty_Neutral>
2.31482e-06

> <r_epik_State_Penalty>
-0

> <r_epik_Charging_Adjusted_Penalty>
6.14723e-09

> <i_epik_Tot_Q>
0

> <i_epik_Tot_abs_Q>
0

> <r_epik_Metal_State_Penalty>
-0

> <b_epik_Metal_Only>
0

> <s_lp_Force_Field>
OPLS_2005

> <r_lp_Energy>
40.8399

> <b_lp_Chiralities_Consistent>
1

> <s_lp_Variant>
AV-unprocessed.smi:1981-1

> <Gold.Version>
5.8.1

> <Gold.Id.Protein>
6NUR|6NUR_protein|mol2

> <Gold.PLP.Fitness>
41.9932

> <Gold.PLP.PLP>
-40.8277

> <Gold.PLP.part.hbond>
-2.3359

> <Gold.PLP.part.metal>
0.0000

> <Gold.PLP.part.buried>
-6.6233

> <Gold.PLP.part.nonpolar>
-30.9711

> <Gold.PLP.part.repulsive>
0.2856

> <Gold.PLP.ligand.clash>
0.0000

> <Gold.PLP.ligand.torsion>
2.1541

> <Gold.PLP.Chemscore.Hbond>
1.8160

> <Gold.PLP.Chemscore.CHOScore>
0.0000

> <Gold.PLP.Chemscore.Metal>
0.0000

> <Gold.Chemscore.Hbonds>
donor molecule, donor type, donor heavy atom, donor atom, acceptor molecule, acceptor atom, score
      P1  H  6934  6947       L1     2  0.82
      P1  H  7997  8009       L1     9  0.44

> <Gold.PLP.Chemscore.Internal.Correction>
0.0257

> <Gold.Rescore>
     Score         DG    S(hbond)    S(metal)    S(lipo)     H(rot)  DE(clash)    DE(int)     intcor
     12.41     -14.67       0.98        0.00      87.40       1.69       0.02       2.24       ----

> <Gold.Chemscore.Fitness>
12.4062

> <Gold.Chemscore.DG>
-14.6687

> <Gold.Chemscore.ZeroCoef>
-5.4800

> <Gold.Chemscore.Hbond>
0.9818

> <Gold.Chemscore.Metal>
0.0000

> <Gold.Chemscore.Lipo>
87.4005

> <Gold.Chemscore.Internal_Hbond>
0.0000

> <Gold.Chemscore.DEClash>
0.0201

> <Gold.Chemscore.DEInternal>
2.2423

> <Gold.Chemscore.Rot>
1.6861

> <Gold.Chemscore.Internal.Correction>
   9.000000E+99

> <Gold.Chemscore.Hbonds>
donor molecule, donor type, donor heavy atom, donor atom, acceptor molecule, acceptor atom, score
      P1  H  6934  6947       L1     2  0.18
      P1  H  7997  8009       L1     9  0.24

> <Gold.Chemscore.Hbond.Weighted>
-3.2792

> <Gold.Chemscore.Metal.Weighted>
-0.0000

> <Gold.Chemscore.Lipo.Weighted>
-10.2259

> <Gold.Chemscore.Internal_Hbond.Weighted>
0.0000

> <Gold.Chemscore.DEClash.Weighted>
0.0201

> <Gold.Chemscore.DEInternal.Weighted>
2.2423

> <Gold.Chemscore.Rot.Weighted>
4.3164

> <Gold.Chemscore.Internal.Correction.Weighted>
   9.000000E+99

> <Gold.Protein.RotatedTorsions>
[ 6907 6896 6895 6894 ] final  147.94 input  -60.11 | X-H torsion
[ 7974 7965 7964 7962 ] final   43.44 input  175.53 | X-H torsion
[ 8008 7997 7996 7995 ] final -161.64 input   59.86 | X-H torsion
[ 10167 10162 10161 10158 ] final  -76.88 input  -65.29 | X-H torsion
[ 10718 10713 10712 10709 ] final  -80.97 input   66.30 | X-H torsion
[ 10763 10752 10751 10750 ] final  -96.68 input  -60.55 | X-H torsion
[ 11005 11000 10999 10996 ] final  -67.49 input  -57.11 | X-H torsion

> <Gold.Protein.ActiveResidues>
 VAL166  LYS551  ARG553  GLY616  TRP617  ASP618  TYR619  PRO620  LYS621  CYS622 
 ASP623  PHE694  ASN695  SER759  ASP760  ASP761  ALA762  ILE779  LEU786  VAL792 
 PHE793  MET794  SER795  GLU796  ALA797  LYS798  CYS799  TRP800  GLU811  SER814 

> <Gold.Protein.RotatedAtoms>
  152.1481  133.4505  159.4799 H   0  0  0  0  0  0  0  0  0  0  0  0  # atno 6907 bound_to 6896
  150.6892  134.2222  159.4410 H   0  0  0  0  0  0  0  0  0  0  0  0  # atno 6908 bound_to 6896
  152.0117  134.9872  160.0619 H   0  0  0  0  0  0  0  0  0  0  0  0  # atno 6909 bound_to 6896
  146.0655  139.5186  142.9631 H   0  0  0  0  0  0  0  0  0  0  0  0  # atno 7974 bound_to 7965
  155.7952  140.0884  157.1987 H   0  0  0  0  0  0  0  0  0  0  0  0  # atno 8008 bound_to 7997
  154.3984  140.1482  156.3268 H   0  0  0  0  0  0  0  0  0  0  0  0  # atno 8009 bound_to 7997
  155.8518  140.3434  155.5701 H   0  0  0  0  0  0  0  0  0  0  0  0  # atno 8010 bound_to 7997
  140.4818  143.2400  151.8045 H   0  0  0  0  0  0  0  0  0  0  0  0  # atno 10167 bound_to 10162
  156.0059  130.4590  150.3882 H   0  0  0  0  0  0  0  0  0  0  0  0  # atno 10718 bound_to 10713
  154.7261  135.5074  153.8888 H   0  0  0  0  0  0  0  0  0  0  0  0  # atno 10763 bound_to 10752
  153.0906  135.6658  153.9870 H   0  0  0  0  0  0  0  0  0  0  0  0  # atno 10764 bound_to 10752
  153.9682  135.3041  155.3408 H   0  0  0  0  0  0  0  0  0  0  0  0  # atno 10765 bound_to 10752
  141.1509  133.6720  156.6301 H   0  0  0  0  0  0  0  0  0  0  0  0  # atno 11005 bound_to 11000
  145.6484  141.0268  143.1773 LP  0  0  0  0  0  0  0  0  0  0  0  0  # atno 17320 bound_to 7965
  144.7200  139.8063  143.7385 LP  0  0  0  0  0  0  0  0  0  0  0  0  # atno 17321 bound_to 7965
  139.4835  144.4762  151.9364 LP  0  0  0  0  0  0  0  0  0  0  0  0  # atno 17342 bound_to 10162
  140.3848  144.2691  150.5905 LP  0  0  0  0  0  0  0  0  0  0  0  0  # atno 17343 bound_to 10162
  157.1958  131.0426  151.2676 LP  0  0  0  0  0  0  0  0  0  0  0  0  # atno 17370 bound_to 10713
  157.4020  130.7338  149.6774 LP  0  0  0  0  0  0  0  0  0  0  0  0  # atno 17371 bound_to 10713
  140.3474  134.7798  157.4442 LP  0  0  0  0  0  0  0  0  0  0  0  0  # atno 17394 bound_to 11000
  140.0889  134.5629  155.8464 LP  0  0  0  0  0  0  0  0  0  0  0  0  # atno 17395 bound_to 11000

$$$$
