AV-unprocessed.smi:2912|AV-procd|sdf|11181|dock8
  -GOLD-   2272016 73D 1   1.00000     0.00000
 Structure written by MMmdl.
 31 32  0  0  0  0  0  0  0  0  1 V2000
  146.8896  138.8706  152.6568 C   0  0  0  0  0  0  0  0  0  0  0  0
  147.5853  139.8033  153.5167 N   0  0  0  0  0  0  0  0  0  0  0  0
  148.8287  139.6765  154.0961 C   0  0  0  0  0  0  0  0  0  0  0  0
  149.0671  140.8169  154.8107 C   0  0  0  0  0  0  0  0  0  0  0  0
  150.2970  141.1953  155.5952 C   0  0  0  0  0  0  0  0  0  0  0  0
  149.9821  141.6176  157.0443 C   0  0  0  0  0  0  0  0  0  0  0  0
  151.0461  142.4414  157.6145 N   0  0  0  0  0  0  0  0  0  0  0  0
  152.1787  141.9781  158.1704 C   0  0  0  0  0  0  0  0  0  0  0  0
  152.4971  140.7884  158.1406 O   0  0  0  0  0  0  0  0  0  0  0  0
  153.0659  143.0132  158.8817 C   0  0  0  0  0  0  0  0  0  0  0  0
  153.4087  142.5759  160.6043 S   0  0  0  0  0  0  0  0  0  0  0  0
  151.9449  143.4602  161.1927 C   0  0  0  0  0  0  0  0  0  0  0  0
  151.9035  144.8343  160.5118 C   0  0  0  0  0  0  0  0  0  0  0  0
  152.3655  144.6840  158.7590 S   0  0  0  0  0  0  0  0  0  0  0  0
  147.8839  141.5842  154.6108 C   0  0  0  0  0  0  0  0  0  0  0  0
  147.0015  140.9767  153.8342 N   0  0  0  0  0  0  0  0  0  0  0  0
  147.4728  137.9559  152.5481 H   0  0  0  0  0  0  0  0  0  0  0  0
  146.7424  139.3164  151.6727 H   0  0  0  0  0  0  0  0  0  0  0  0
  145.9189  138.6236  153.0874 H   0  0  0  0  0  0  0  0  0  0  0  0
  149.4423  138.8011  153.9420 H   0  0  0  0  0  0  0  0  0  0  0  0
  151.0063  140.3673  155.6156 H   0  0  0  0  0  0  0  0  0  0  0  0
  150.8211  142.0135  155.1001 H   0  0  0  0  0  0  0  0  0  0  0  0
  149.0268  142.1438  157.0767 H   0  0  0  0  0  0  0  0  0  0  0  0
  149.8589  140.7315  157.6673 H   0  0  0  0  0  0  0  0  0  0  0  0
  150.8678  143.4336  157.6736 H   0  0  0  0  0  0  0  0  0  0  0  0
  154.0206  143.0162  158.3556 H   0  0  0  0  0  0  0  0  0  0  0  0
  151.0602  142.8824  160.9231 H   0  0  0  0  0  0  0  0  0  0  0  0
  151.9601  143.5488  162.2788 H   0  0  0  0  0  0  0  0  0  0  0  0
  150.9228  145.3002  160.6064 H   0  0  0  0  0  0  0  0  0  0  0  0
  152.6241  145.4981  160.9897 H   0  0  0  0  0  0  0  0  0  0  0  0
  147.6489  142.5665  154.9931 H   0  0  0  0  0  0  0  0  0  0  0  0
  1  2  1  0  0  0  0
  1 17  1  0  0  0  0
  1 18  1  0  0  0  0
  1 19  1  0  0  0  0
  2 16  1  0  0  0  0
  2  3  1  0  0  0  0
  3  4  2  0  0  0  0
  3 20  1  0  0  0  0
  4  5  1  0  0  0  0
  4 15  1  0  0  0  0
  5  6  1  0  0  0  0
  5 21  1  0  0  0  0
  5 22  1  0  0  0  0
  6  7  1  0  0  0  0
  6 23  1  0  0  0  0
  6 24  1  0  0  0  0
  7  8  1  0  0  0  0
  7 25  1  0  0  0  0
  8  9  2  0  0  0  0
  8 10  1  0  0  0  0
 10 14  1  0  0  0  0
 10 11  1  0  0  0  0
 10 26  1  0  0  0  0
 11 12  1  0  0  0  0
 12 13  1  0  0  0  0
 12 27  1  0  0  0  0
 12 28  1  0  0  0  0
 13 14  1  0  0  0  0
 13 29  1  0  0  0  0
 13 30  1  0  0  0  0
 15 16  2  0  0  0  0
 15 31  1  0  0  0  0
M  END
> <s_m_source_file>
AV-unprocessed.smi

> <i_m_source_file_index>
2912

> <i_lp_mmshare_version>
43012

> <i_f3d_flags>
0

> <s_epik_input>
W0NIM11uMVtjSF1jKFtjSF1uMSlbQ0gyXVtDSDJdW05IXUMoPU8pW0NIXTJTW0NIMl1bQ0gyXVMy

> <s_epik_cmdline>
J2VwaWtfcHl0aG9uJywgJy1waCcsICc3LjAnLCAnLXRuJywgJzgnLCAnLW1hJywgJzIwMCcsICctbWV0YWxfYmluZGluZycsICctaW1hZScsICc8aW5maWxlLm1hZT4nLCAnLW9tYWUnLCAnPG91dGZpbGUubWFlPic=

> <r_lp_tautomer_probability>
1

> <r_epik_Ionization_Penalty>
0.000416309

> <r_epik_Ionization_Penalty_Charging>
0

> <r_epik_Ionization_Penalty_Neutral>
0.000416309

> <r_epik_State_Penalty>
-0

> <r_epik_Charging_Adjusted_Penalty>
0

> <i_epik_Tot_Q>
0

> <i_epik_Tot_abs_Q>
0

> <r_epik_Metal_State_Penalty>
-0

> <b_epik_Metal_Only>
0

> <s_epik_Chemistry_Notes>
This compound contains an acetal/aminal-like group ( X-CH(R)-Y where X, Y are N, S, or O) that may be acid/base labile, releasing an aldehyde.

> <s_lp_Force_Field>
OPLS_2005

> <r_lp_Energy>
6.65343

> <b_lp_Chiralities_Consistent>
1

> <s_lp_Variant>
AV-unprocessed.smi:2912-1

> <Gold.Version>
5.8.1

> <Gold.Id.Protein>
6NUR|6NUR_protein|mol2

> <Gold.PLP.Fitness>
42.7677

> <Gold.PLP.PLP>
-40.4124

> <Gold.PLP.part.hbond>
0.0000

> <Gold.PLP.part.metal>
0.0000

> <Gold.PLP.part.buried>
-3.2932

> <Gold.PLP.part.nonpolar>
-37.1161

> <Gold.PLP.part.repulsive>
0.1945

> <Gold.PLP.ligand.clash>
0.0000

> <Gold.PLP.ligand.torsion>
0.3428

> <Gold.PLP.Chemscore.Hbond>
0.0000

> <Gold.PLP.Chemscore.CHOScore>
1.0000

> <Gold.PLP.Chemscore.Metal>
0.0000

> <Gold.Chemscore.Hbonds>
donor molecule, donor type, donor heavy atom, donor atom, acceptor molecule, acceptor atom, score
      L1  C    15    31       P1  8028  0.97

> <Gold.PLP.Chemscore.Internal.Correction>
0.0409

> <Gold.Rescore>
     Score         DG    S(hbond)    S(metal)    S(lipo)     H(rot)  DE(clash)    DE(int)     intcor
     13.47     -13.81       0.00        0.00     104.98       1.54       0.03       0.32       ----

> <Gold.Chemscore.Fitness>
13.4653

> <Gold.Chemscore.DG>
-13.8119

> <Gold.Chemscore.ZeroCoef>
-5.4800

> <Gold.Chemscore.Hbond>
0.0000

> <Gold.Chemscore.Metal>
0.0000

> <Gold.Chemscore.Lipo>
104.9830

> <Gold.Chemscore.Internal_Hbond>
0.0000

> <Gold.Chemscore.DEClash>
0.0292

> <Gold.Chemscore.DEInternal>
0.3174

> <Gold.Chemscore.Rot>
1.5434

> <Gold.Chemscore.Internal.Correction>
   9.000000E+99

> <Gold.Chemscore.Hbond.Weighted>
-0.0000

> <Gold.Chemscore.Metal.Weighted>
-0.0000

> <Gold.Chemscore.Lipo.Weighted>
-12.2830

> <Gold.Chemscore.Internal_Hbond.Weighted>
0.0000

> <Gold.Chemscore.DEClash.Weighted>
0.0292

> <Gold.Chemscore.DEInternal.Weighted>
0.3174

> <Gold.Chemscore.Rot.Weighted>
3.9511

> <Gold.Chemscore.Internal.Correction.Weighted>
   9.000000E+99

> <Gold.Protein.RotatedTorsions>
[ 6907 6896 6895 6894 ] final   54.69 input  -60.11 | X-H torsion
[ 7974 7965 7964 7962 ] final -146.17 input  175.53 | X-H torsion
[ 8008 7997 7996 7995 ] final   81.50 input   59.86 | X-H torsion
[ 10167 10162 10161 10158 ] final  -49.77 input  -65.29 | X-H torsion
[ 10718 10713 10712 10709 ] final  -28.35 input   66.30 | X-H torsion
[ 10763 10752 10751 10750 ] final  -69.94 input  -60.55 | X-H torsion
[ 11005 11000 10999 10996 ] final  -78.70 input  -57.11 | X-H torsion

> <Gold.Protein.ActiveResidues>
 VAL166  LYS551  ARG553  GLY616  TRP617  ASP618  TYR619  PRO620  LYS621  CYS622 
 ASP623  PHE694  ASN695  SER759  ASP760  ASP761  ALA762  ILE779  LEU786  VAL792 
 PHE793  MET794  SER795  GLU796  ALA797  LYS798  CYS799  TRP800  GLU811  SER814 

> <Gold.Protein.RotatedAtoms>
  152.3464  134.7065  160.0248 H   0  0  0  0  0  0  0  0  0  0  0  0  # atno 6907 bound_to 6896
  151.7433  133.3318  159.3379 H   0  0  0  0  0  0  0  0  0  0  0  0  # atno 6908 bound_to 6896
  150.7512  134.6191  159.6171 H   0  0  0  0  0  0  0  0  0  0  0  0  # atno 6909 bound_to 6896
  144.8177  140.5490  143.5599 H   0  0  0  0  0  0  0  0  0  0  0  0  # atno 7974 bound_to 7965
  155.8980  140.3435  155.6005 H   0  0  0  0  0  0  0  0  0  0  0  0  # atno 8008 bound_to 7997
  155.7534  140.0823  157.2209 H   0  0  0  0  0  0  0  0  0  0  0  0  # atno 8009 bound_to 7997
  154.4040  140.1549  156.2737 H   0  0  0  0  0  0  0  0  0  0  0  0  # atno 8010 bound_to 7997
  140.6669  143.2684  151.4263 H   0  0  0  0  0  0  0  0  0  0  0  0  # atno 10167 bound_to 10162
  156.4264  130.4436  149.7148 H   0  0  0  0  0  0  0  0  0  0  0  0  # atno 10718 bound_to 10713
  154.4106  135.6010  153.5950 H   0  0  0  0  0  0  0  0  0  0  0  0  # atno 10763 bound_to 10752
  152.9790  135.5928  154.4074 H   0  0  0  0  0  0  0  0  0  0  0  0  # atno 10764 bound_to 10752
  154.3886  135.2842  155.2147 H   0  0  0  0  0  0  0  0  0  0  0  0  # atno 10765 bound_to 10752
  141.1665  133.7074  156.8011 H   0  0  0  0  0  0  0  0  0  0  0  0  # atno 11005 bound_to 11000
  145.5176  139.1477  143.3570 LP  0  0  0  0  0  0  0  0  0  0  0  0  # atno 17320 bound_to 7965
  146.2481  140.5317  142.8905 LP  0  0  0  0  0  0  0  0  0  0  0  0  # atno 17321 bound_to 7965
  139.5922  144.1475  152.2101 LP  0  0  0  0  0  0  0  0  0  0  0  0  # atno 17342 bound_to 10162
  140.0833  144.5682  150.7107 LP  0  0  0  0  0  0  0  0  0  0  0  0  # atno 17343 bound_to 10162
  156.4068  130.7702  151.2713 LP  0  0  0  0  0  0  0  0  0  0  0  0  # atno 17370 bound_to 10713
  157.7508  131.0223  150.3787 LP  0  0  0  0  0  0  0  0  0  0  0  0  # atno 17371 bound_to 10713
  140.2255  134.8725  157.3422 LP  0  0  0  0  0  0  0  0  0  0  0  0  # atno 17394 bound_to 11000
  140.1944  134.4332  155.7697 LP  0  0  0  0  0  0  0  0  0  0  0  0  # atno 17395 bound_to 11000

$$$$
