AV-unprocessed.smi:3311|AV-procd|sdf|12725|dock10
  -GOLD-   2272019 63D 1   1.00000     0.00000
 Structure written by MMmdl.
 43 44  0  0  0  0  0  0  0  0  1 V2000
  146.6876  137.6778  155.0423 C   0  0  0  0  0  0  0  0  0  0  0  0
  146.2906  138.0049  153.5849 C   0  0  2  0  0  0  0  0  0  0  0  0
  146.1845  136.7812  152.7811 N   0  0  0  0  0  0  0  0  0  0  0  0
  145.2340  136.8292  151.6673 C   0  0  0  0  0  0  0  0  0  0  0  0
  144.9339  135.4279  151.0889 C   0  0  0  0  0  0  0  0  0  0  0  0
  144.4211  135.6174  149.7818 O   0  0  0  0  0  0  0  0  0  0  0  0
  146.1929  134.5248  151.0350 C   0  0  0  0  0  0  0  0  0  0  0  0
  145.8801  133.0817  150.5999 C   0  0  0  0  0  0  0  0  0  0  0  0
  144.7971  132.4505  151.4852 C   0  0  0  0  0  0  0  0  0  0  0  0
  143.5245  133.3081  151.4880 C   0  0  0  0  0  0  0  0  0  0  0  0
  143.8255  134.7514  151.9308 C   0  0  0  0  0  0  0  0  0  0  0  0
  147.2714  138.9926  152.8971 C   0  0  1  0  0  0  0  0  0  0  0  0
  146.8365  139.3571  151.4650 C   0  0  0  0  0  0  0  0  0  0  0  0
  147.4574  140.2134  153.6727 N   0  0  0  0  0  0  0  0  0  0  0  0
  146.5149  141.1523  154.0435 C   0  0  0  0  0  0  0  0  0  0  0  0
  147.1602  142.1193  154.7596 C   0  0  0  0  0  0  0  0  0  0  0  0
  148.5140  141.6823  154.7721 C   0  0  0  0  0  0  0  0  0  0  0  0
  148.6889  140.5441  154.1207 N   0  0  0  0  0  0  0  0  0  0  0  0
  146.7557  138.5748  155.6570 H   0  0  0  0  0  0  0  0  0  0  0  0
  147.6551  137.1764  155.0836 H   0  0  0  0  0  0  0  0  0  0  0  0
  145.9567  137.0354  155.5317 H   0  0  0  0  0  0  0  0  0  0  0  0
  145.3125  138.4871  153.6147 H   0  0  0  0  0  0  0  0  0  0  0  0
  147.1014  136.5322  152.4230 H   0  0  0  0  0  0  0  0  0  0  0  0
  144.2973  137.2754  151.9997 H   0  0  0  0  0  0  0  0  0  0  0  0
  145.6201  137.4737  150.8763 H   0  0  0  0  0  0  0  0  0  0  0  0
  144.2172  136.5336  149.6719 H   0  0  0  0  0  0  0  0  0  0  0  0
  146.9404  134.9446  150.3610 H   0  0  0  0  0  0  0  0  0  0  0  0
  146.6567  134.5006  152.0222 H   0  0  0  0  0  0  0  0  0  0  0  0
  145.5540  133.0724  149.5592 H   0  0  0  0  0  0  0  0  0  0  0  0
  146.7880  132.4794  150.6411 H   0  0  0  0  0  0  0  0  0  0  0  0
  144.5681  131.4439  151.1337 H   0  0  0  0  0  0  0  0  0  0  0  0
  145.1710  132.3456  152.5045 H   0  0  0  0  0  0  0  0  0  0  0  0
  143.0805  133.3098  150.4919 H   0  0  0  0  0  0  0  0  0  0  0  0
  142.7821  132.8651  152.1523 H   0  0  0  0  0  0  0  0  0  0  0  0
  144.1320  134.7334  152.9777 H   0  0  0  0  0  0  0  0  0  0  0  0
  142.9097  135.3433  151.8975 H   0  0  0  0  0  0  0  0  0  0  0  0
  148.2444  138.5016  152.8281 H   0  0  0  0  0  0  0  0  0  0  0  0
  146.8031  138.4792  150.8196 H   0  0  0  0  0  0  0  0  0  0  0  0
  147.5346  140.0624  151.0129 H   0  0  0  0  0  0  0  0  0  0  0  0
  145.8468  139.8146  151.4526 H   0  0  0  0  0  0  0  0  0  0  0  0
  145.4743  141.0530  153.7713 H   0  0  0  0  0  0  0  0  0  0  0  0
  146.7310  143.0040  155.2059 H   0  0  0  0  0  0  0  0  0  0  0  0
  149.3691  142.1553  155.2321 H   0  0  0  0  0  0  0  0  0  0  0  0
  1  2  1  0  0  0  0
  1 19  1  0  0  0  0
  1 20  1  0  0  0  0
  1 21  1  0  0  0  0
  2  3  1  0  0  0  0
  2 12  1  0  0  0  0
  2 22  1  0  0  0  0
  3  4  1  0  0  0  0
  3 23  1  0  0  0  0
  4  5  1  0  0  0  0
  4 24  1  0  0  0  0
  4 25  1  0  0  0  0
  5 11  1  0  0  0  0
  5  6  1  0  0  0  0
  5  7  1  0  0  0  0
  6 26  1  0  0  0  0
  7  8  1  0  0  0  0
  7 27  1  0  0  0  0
  7 28  1  0  0  0  0
  8  9  1  0  0  0  0
  8 29  1  0  0  0  0
  8 30  1  0  0  0  0
  9 10  1  0  0  0  0
  9 31  1  0  0  0  0
  9 32  1  0  0  0  0
 10 11  1  0  0  0  0
 10 33  1  0  0  0  0
 10 34  1  0  0  0  0
 11 35  1  0  0  0  0
 11 36  1  0  0  0  0
 12 13  1  0  0  0  0
 12 14  1  0  0  0  0
 12 37  1  0  0  0  0
 13 38  1  0  0  0  0
 13 39  1  0  0  0  0
 13 40  1  0  0  0  0
 14 18  1  0  0  0  0
 14 15  1  0  0  0  0
 15 16  2  0  0  0  0
 15 41  1  0  0  0  0
 16 17  1  0  0  0  0
 16 42  1  0  0  0  0
 17 18  2  0  0  0  0
 17 43  1  0  0  0  0
M  END
> <s_m_source_file>
AV-unprocessed.smi

> <i_m_source_file_index>
3311

> <i_lp_mmshare_version>
43012

> <i_f3d_flags>
0

> <s_epik_input>
bjFbY0hdW2NIXVtjSF1uMVtDQEBIXShbQ0gzXSlbQ0BIXShbQ0gzXSlbTkhdW0NIMl1DMihbT0hdKVtDSDJdW0NIMl1bQ0gyXVtDSDJdW0NIMl0y

> <s_epik_cmdline>
J2VwaWtfcHl0aG9uJywgJy1waCcsICc3LjAnLCAnLXRuJywgJzgnLCAnLW1hJywgJzIwMCcsICctbWV0YWxfYmluZGluZycsICctaW1hZScsICc8aW5maWxlLm1hZT4nLCAnLW9tYWUnLCAnPG91dGZpbGUubWFlPic=

> <r_lp_tautomer_probability>
1

> <r_epik_Ionization_Penalty>
2.222

> <r_epik_Ionization_Penalty_Charging>
0

> <r_epik_Ionization_Penalty_Neutral>
2.222

> <r_epik_State_Penalty>
2.36562

> <r_epik_Charging_Adjusted_Penalty>
2.36562

> <i_epik_Tot_Q>
0

> <i_epik_Tot_abs_Q>
0

> <r_epik_Metal_State_Penalty>
2.36435

> <b_epik_Metal_Only>
0

> <s_lp_Force_Field>
OPLS_2005

> <r_lp_Energy>
27.677

> <b_lp_Chiralities_Consistent>
1

> <s_lp_Variant>
AV-unprocessed.smi:3311-7

> <Gold.Version>
5.8.1

> <Gold.Id.Protein>
6NUR|6NUR_protein|mol2

> <Gold.PLP.Fitness>
42.3046

> <Gold.PLP.PLP>
-33.3329

> <Gold.PLP.part.hbond>
-3.0000

> <Gold.PLP.part.metal>
0.0000

> <Gold.PLP.part.buried>
1.1373

> <Gold.PLP.part.nonpolar>
-31.2600

> <Gold.PLP.part.repulsive>
0.1315

> <Gold.PLP.ligand.clash>
0.0071

> <Gold.PLP.ligand.torsion>
0.7186

> <Gold.PLP.Chemscore.Hbond>
1.9263

> <Gold.PLP.Chemscore.CHOScore>
1.5149

> <Gold.PLP.Chemscore.Metal>
0.0000

> <Gold.Chemscore.Hbonds>
donor molecule, donor type, donor heavy atom, donor atom, acceptor molecule, acceptor atom, score
      L1  H     3    23       P1  7948  1.00
      L1  H     6    26       P1 10171  0.94
      L1  C    15    41       P1 10175  1.00
      L1  C    17    43       P1  8028  0.44

> <Gold.PLP.Chemscore.Internal.Correction>
0.0926

> <Gold.Rescore>
     Score         DG    S(hbond)    S(metal)    S(lipo)     H(rot)  DE(clash)    DE(int)     intcor
     13.98     -16.59       1.99        0.00      83.32       2.07       1.78       0.83       ----

> <Gold.Chemscore.Fitness>
13.9814

> <Gold.Chemscore.DG>
-16.5912

> <Gold.Chemscore.ZeroCoef>
-5.4800

> <Gold.Chemscore.Hbond>
1.9935

> <Gold.Chemscore.Metal>
0.0000

> <Gold.Chemscore.Lipo>
83.3223

> <Gold.Chemscore.Internal_Hbond>
0.0000

> <Gold.Chemscore.DEClash>
1.7790

> <Gold.Chemscore.DEInternal>
0.8308

> <Gold.Chemscore.Rot>
2.0686

> <Gold.Chemscore.Internal.Correction>
   9.000000E+99

> <Gold.Chemscore.Hbonds>
donor molecule, donor type, donor heavy atom, donor atom, acceptor molecule, acceptor atom, score
      L1  H     3    23       P1  7948  0.99
      L1  H     6    26       P1 10171  0.90

> <Gold.Chemscore.Hbond.Weighted>
-6.6582

> <Gold.Chemscore.Metal.Weighted>
-0.0000

> <Gold.Chemscore.Lipo.Weighted>
-9.7487

> <Gold.Chemscore.Internal_Hbond.Weighted>
0.0000

> <Gold.Chemscore.DEClash.Weighted>
1.7790

> <Gold.Chemscore.DEInternal.Weighted>
0.8308

> <Gold.Chemscore.Rot.Weighted>
5.2957

> <Gold.Chemscore.Internal.Correction.Weighted>
   9.000000E+99

> <Gold.Protein.RotatedTorsions>
[ 6907 6896 6895 6894 ] final -136.78 input  -60.11 | X-H torsion
[ 7974 7965 7964 7962 ] final  -88.20 input  175.53 | X-H torsion
[ 8008 7997 7996 7995 ] final   63.94 input   59.86 | X-H torsion
[ 10167 10162 10161 10158 ] final   45.32 input  -65.29 | X-H torsion
[ 10718 10713 10712 10709 ] final   31.12 input   66.30 | X-H torsion
[ 10763 10752 10751 10750 ] final -130.97 input  -60.55 | X-H torsion
[ 11005 11000 10999 10996 ] final   10.08 input  -57.11 | X-H torsion

> <Gold.Protein.ActiveResidues>
 VAL166  LYS551  ARG553  GLY616  TRP617  ASP618  TYR619  PRO620  LYS621  CYS622 
 ASP623  PHE694  ASN695  SER759  ASP760  ASP761  ALA762  ILE779  LEU786  VAL792 
 PHE793  MET794  SER795  GLU796  ALA797  LYS798  CYS799  TRP800  GLU811  SER814 

> <Gold.Protein.RotatedAtoms>
  151.0143  133.5936  159.2678 H   0  0  0  0  0  0  0  0  0  0  0  0  # atno 6907 bound_to 6896
  151.3076  135.0784  159.9270 H   0  0  0  0  0  0  0  0  0  0  0  0  # atno 6908 bound_to 6896
  152.5307  133.9813  159.7862 H   0  0  0  0  0  0  0  0  0  0  0  0  # atno 6909 bound_to 6896
  145.4563  140.9561  143.1994 H   0  0  0  0  0  0  0  0  0  0  0  0  # atno 7974 bound_to 7965
  155.6381  140.3496  155.4705 H   0  0  0  0  0  0  0  0  0  0  0  0  # atno 8008 bound_to 7997
  155.9948  140.1201  157.0627 H   0  0  0  0  0  0  0  0  0  0  0  0  # atno 8009 bound_to 7997
  154.4230  140.1112  156.5601 H   0  0  0  0  0  0  0  0  0  0  0  0  # atno 8010 bound_to 7997
  140.3254  144.2654  150.6176 H   0  0  0  0  0  0  0  0  0  0  0  0  # atno 10167 bound_to 10162
  157.2684  130.7196  149.6491 H   0  0  0  0  0  0  0  0  0  0  0  0  # atno 10718 bound_to 10713
  154.8753  135.3845  154.4170 H   0  0  0  0  0  0  0  0  0  0  0  0  # atno 10763 bound_to 10752
  153.4877  135.7030  153.5907 H   0  0  0  0  0  0  0  0  0  0  0  0  # atno 10764 bound_to 10752
  153.4294  135.3882  155.2128 H   0  0  0  0  0  0  0  0  0  0  0  0  # atno 10765 bound_to 10752
  140.5185  134.0582  155.7838 H   0  0  0  0  0  0  0  0  0  0  0  0  # atno 11005 bound_to 11000
  144.8030  139.6104  143.7063 LP  0  0  0  0  0  0  0  0  0  0  0  0  # atno 17320 bound_to 7965
  146.2476  139.6132  142.9449 LP  0  0  0  0  0  0  0  0  0  0  0  0  # atno 17321 bound_to 7965
  140.5446  143.2217  151.8029 LP  0  0  0  0  0  0  0  0  0  0  0  0  # atno 17342 bound_to 10162
  139.4866  144.4556  151.9602 LP  0  0  0  0  0  0  0  0  0  0  0  0  # atno 17343 bound_to 10162
  155.9663  130.4375  150.5179 LP  0  0  0  0  0  0  0  0  0  0  0  0  # atno 17370 bound_to 10713
  157.3098  131.0661  151.2009 LP  0  0  0  0  0  0  0  0  0  0  0  0  # atno 17371 bound_to 10713
  141.1347  133.9242  157.2459 LP  0  0  0  0  0  0  0  0  0  0  0  0  # atno 17394 bound_to 11000
  139.9619  135.0152  156.9284 LP  0  0  0  0  0  0  0  0  0  0  0  0  # atno 17395 bound_to 11000

$$$$
