AV-unprocessed.smi:1240|AV-procd|sdf|5211|dock3
  -GOLD-   22720 4303D 1   1.00000     0.00000
 Structure written by MMmdl.
 48 50  0  0  0  0  0  0  0  0  4 V2000
  153.4497  140.4924  158.6349 O   0  0  0  0  0  0  0  0  0  0  0  0
  153.7958  140.9169  159.7434 C   0  0  0  0  0  0  0  0  0  0  0  0
  154.7318  140.3918  160.5778 N   0  5  0  0  0  0  0  0  0  0  0  0
  155.6009  139.2641  160.2443 C   0  0  0  0  0  0  0  0  0  0  0  0
  154.7738  137.9366  160.1093 C   0  0  2  0  0  0  0  0  0  0  0  0
  154.6307  137.1165  161.4345 C   0  0  2  0  0  0  0  0  0  0  0  0
  154.1379  137.9413  162.6154 C   0  0  0  0  0  0  0  0  0  0  0  0
  154.4883  137.0595  163.8080 C   0  0  0  0  0  0  0  0  0  0  0  0
  155.6692  136.3626  163.4334 O   0  0  0  0  0  0  0  0  0  0  0  0
  155.9256  136.5527  162.0460 C   0  0  0  0  0  0  0  0  0  0  0  0
  155.2422  137.0250  159.0058 N   0  3  0  0  0  0  0  0  0  0  0  0
  154.2187  136.1041  158.4438 C   0  0  0  0  0  0  0  0  0  0  0  0
  154.8976  135.0353  157.5712 C   0  0  0  0  0  0  0  0  0  0  0  0
  155.6655  135.6619  156.5499 O   0  0  0  0  0  0  0  0  0  0  0  0
  156.7028  136.4781  157.0816 C   0  0  0  0  0  0  0  0  0  0  0  0
  156.0902  137.6063  157.9263 C   0  0  0  0  0  0  0  0  0  0  0  0
  153.2463  142.0389  160.2421 N   0  0  0  0  0  0  0  0  0  0  0  0
  152.2303  142.8595  159.6831 C   0  0  0  0  0  0  0  0  0  0  0  0
  151.2722  142.2428  158.8487 C   0  0  0  0  0  0  0  0  0  0  0  0
  150.2605  143.0255  158.2567 C   0  0  0  0  0  0  0  0  0  0  0  0
  150.2228  144.3568  158.4797 N   0  3  0  0  0  0  0  0  0  0  0  0
  151.1276  144.9934  159.2545 C   0  0  0  0  0  0  0  0  0  0  0  0
  152.1621  144.2628  159.8735 C   0  0  0  0  0  0  0  0  0  0  0  0
  156.1191  139.4545  159.3045 H   0  0  0  0  0  0  0  0  0  0  0  0
  156.3884  139.1155  160.9841 H   0  0  0  0  0  0  0  0  0  0  0  0
  153.7604  138.2218  159.8211 H   0  0  0  0  0  0  0  0  0  0  0  0
  153.9359  136.2857  161.2952 H   0  0  0  0  0  0  0  0  0  0  0  0
  154.6856  138.8833  162.6758 H   0  0  0  0  0  0  0  0  0  0  0  0
  153.0725  138.1695  162.5702 H   0  0  0  0  0  0  0  0  0  0  0  0
  154.6363  137.6339  164.7228 H   0  0  0  0  0  0  0  0  0  0  0  0
  153.6970  136.3308  163.9884 H   0  0  0  0  0  0  0  0  0  0  0  0
  156.2369  135.6160  161.5829 H   0  0  0  0  0  0  0  0  0  0  0  0
  156.7441  137.2672  161.9466 H   0  0  0  0  0  0  0  0  0  0  0  0
  153.6663  135.6193  159.2494 H   0  0  0  0  0  0  0  0  0  0  0  0
  153.4948  136.6575  157.8445 H   0  0  0  0  0  0  0  0  0  0  0  0
  155.5356  134.3876  158.1750 H   0  0  0  0  0  0  0  0  0  0  0  0
  154.1461  134.3969  157.1066 H   0  0  0  0  0  0  0  0  0  0  0  0
  157.3895  135.8745  157.6774 H   0  0  0  0  0  0  0  0  0  0  0  0
  157.2805  136.8972  156.2576 H   0  0  0  0  0  0  0  0  0  0  0  0
  155.4985  138.2551  157.2792 H   0  0  0  0  0  0  0  0  0  0  0  0
  156.8888  138.2151  158.3489 H   0  0  0  0  0  0  0  0  0  0  0  0
  153.6606  142.3787  161.0976 H   0  0  0  0  0  0  0  0  0  0  0  0
  151.3065  141.1779  158.6689 H   0  0  0  0  0  0  0  0  0  0  0  0
  149.4878  142.6296  157.6140 H   0  0  0  0  0  0  0  0  0  0  0  0
  151.0028  146.0621  159.3501 H   0  0  0  0  0  0  0  0  0  0  0  0
  152.8913  144.7883  160.4716 H   0  0  0  0  0  0  0  0  0  0  0  0
  155.8689  136.4017  159.4936 H   0  0  0  0  0  0  0  0  0  0  0  0
  149.4836  144.9056  158.0401 H   0  0  0  0  0  0  0  0  0  0  0  0
  1  2  2  0  0  0  0
  2  3  1  0  0  0  0
  2 17  1  0  0  0  0
  3  4  1  0  0  0  0
  4  5  1  0  0  0  0
  4 24  1  0  0  0  0
  4 25  1  0  0  0  0
  5  6  1  0  0  0  0
  5 11  1  0  0  0  0
  5 26  1  0  0  0  0
  6 10  1  0  0  0  0
  6  7  1  0  0  0  0
  6 27  1  0  0  0  0
  7  8  1  0  0  0  0
  7 28  1  0  0  0  0
  7 29  1  0  0  0  0
  8  9  1  0  0  0  0
  8 30  1  0  0  0  0
  8 31  1  0  0  0  0
  9 10  1  0  0  0  0
 10 32  1  0  0  0  0
 10 33  1  0  0  0  0
 11 16  1  0  0  0  0
 11 12  1  0  0  0  0
 11 47  1  0  0  0  0
 12 13  1  0  0  0  0
 12 34  1  0  0  0  0
 12 35  1  0  0  0  0
 13 14  1  0  0  0  0
 13 36  1  0  0  0  0
 13 37  1  0  0  0  0
 14 15  1  0  0  0  0
 15 16  1  0  0  0  0
 15 38  1  0  0  0  0
 15 39  1  0  0  0  0
 16 40  1  0  0  0  0
 16 41  1  0  0  0  0
 17 18  1  0  0  0  0
 17 42  1  0  0  0  0
 18 23  1  0  0  0  0
 18 19  2  0  0  0  0
 19 20  1  0  0  0  0
 19 43  1  0  0  0  0
 20 21  2  0  0  0  0
 20 44  1  0  0  0  0
 21 22  1  0  0  0  0
 21 48  1  0  0  0  0
 22 23  2  0  0  0  0
 22 45  1  0  0  0  0
 23 46  1  0  0  0  0
M  CHG  1   3  -1
M  CHG  1  11   1
M  CHG  1  21   1
M  END
> <s_m_source_file>
AV-unprocessed.smi

> <i_m_source_file_index>
1240

> <i_lp_mmshare_version>
43012

> <i_f3d_flags>
0

> <s_epik_input>
W2NIXTFbY0hdbltjSF1bY0hdYzFbTkhdQyg9TylbTkhdW0NIMl1bQ0BIXShbQ0BASF0yW0NIMl1bQ0gyXU9bQ0gyXTIpTjNbQ0gyXVtDSDJdT1tDSDJdW0NIMl0z

> <s_epik_cmdline>
J2VwaWtfcHl0aG9uJywgJy1waCcsICc3LjAnLCAnLXRuJywgJzgnLCAnLW1hJywgJzIwMCcsICctbWV0YWxfYmluZGluZycsICctaW1hZScsICc8aW5maWxlLm1hZT4nLCAnLW9tYWUnLCAnPG91dGZpbGUubWFlPic=

> <r_epik_Ionization_Penalty>
8.41087

> <r_epik_Ionization_Penalty_Charging>
8.41087

> <r_epik_Ionization_Penalty_Neutral>
3.12936e-06

> <r_epik_State_Penalty>
8.81894

> <r_epik_Charging_Adjusted_Penalty>
17.2298

> <i_epik_Tot_Q>
1

> <i_epik_Tot_abs_Q>
3

> <r_epik_Metal_State_Penalty>
4.82983

> <b_epik_Metal_Only>
1

> <s_lp_Force_Field>
OPLS_2005

> <r_lp_Energy>
48.2206

> <b_lp_Chiralities_Consistent>
1

> <s_lp_Variant>
AV-unprocessed.smi:1240-17

> <Gold.Version>
5.8.1

> <Gold.Id.Protein>
6NUR|6NUR_protein|mol2

> <Gold.PLP.Fitness>
41.2510

> <Gold.PLP.PLP>
-32.7627

> <Gold.PLP.part.hbond>
-3.6028

> <Gold.PLP.part.metal>
0.0000

> <Gold.PLP.part.buried>
-4.6625

> <Gold.PLP.part.nonpolar>
-25.2944

> <Gold.PLP.part.repulsive>
0.2425

> <Gold.PLP.ligand.clash>
0.0000

> <Gold.PLP.ligand.torsion>
1.4138

> <Gold.PLP.Chemscore.Hbond>
3.6088

> <Gold.PLP.Chemscore.CHOScore>
0.0000

> <Gold.PLP.Chemscore.Metal>
0.0000

> <Gold.Chemscore.Hbonds>
donor molecule, donor type, donor heavy atom, donor atom, acceptor molecule, acceptor atom, score
      L1  H    21    48       P1  8029  1.69
      P1  H  7997  8010       L1     1  0.75
      P1  H 10752 10765       L1    14  0.80

> <Gold.PLP.Chemscore.Internal.Correction>
0.4896

> <Gold.Rescore>
     Score         DG    S(hbond)    S(metal)    S(lipo)     H(rot)  DE(clash)    DE(int)     intcor
     16.17     -18.79       1.90        0.00      96.86       1.70       0.07       2.56       ----

> <Gold.Chemscore.Fitness>
16.1678

> <Gold.Chemscore.DG>
-18.7928

> <Gold.Chemscore.ZeroCoef>
-5.4800

> <Gold.Chemscore.Hbond>
1.8976

> <Gold.Chemscore.Metal>
0.0000

> <Gold.Chemscore.Lipo>
96.8563

> <Gold.Chemscore.Internal_Hbond>
0.0000

> <Gold.Chemscore.DEClash>
0.0689

> <Gold.Chemscore.DEInternal>
2.5561

> <Gold.Chemscore.Rot>
1.7021

> <Gold.Chemscore.Internal.Correction>
   9.000000E+99

> <Gold.Chemscore.Hbonds>
donor molecule, donor type, donor heavy atom, donor atom, acceptor molecule, acceptor atom, score
      L1  H    21    48       P1  8029  0.14
      P1  H  7997  8010       L1     1  0.70
      P1  H 10752 10765       L1    14  0.12

> <Gold.Chemscore.Hbond.Weighted>
-6.3381

> <Gold.Chemscore.Metal.Weighted>
-0.0000

> <Gold.Chemscore.Lipo.Weighted>
-11.3322

> <Gold.Chemscore.Internal_Hbond.Weighted>
0.0000

> <Gold.Chemscore.DEClash.Weighted>
0.0689

> <Gold.Chemscore.DEInternal.Weighted>
2.5561

> <Gold.Chemscore.Rot.Weighted>
4.3575

> <Gold.Chemscore.Internal.Correction.Weighted>
   9.000000E+99

> <Gold.Protein.RotatedTorsions>
[ 6907 6896 6895 6894 ] final   73.72 input  -60.11 | X-H torsion
[ 7974 7965 7964 7962 ] final   15.50 input  175.53 | X-H torsion
[ 8008 7997 7996 7995 ] final   18.26 input   59.86 | X-H torsion
[ 10167 10162 10161 10158 ] final  103.78 input  -65.29 | X-H torsion
[ 10718 10713 10712 10709 ] final -107.30 input   66.30 | X-H torsion
[ 10763 10752 10751 10750 ] final  -64.30 input  -60.55 | X-H torsion
[ 11005 11000 10999 10996 ] final   43.36 input  -57.11 | X-H torsion

> <Gold.Protein.ActiveResidues>
 VAL166  LYS551  ARG553  GLY616  TRP617  ASP618  TYR619  PRO620  LYS621  CYS622 
 ASP623  PHE694  ASN695  SER759  ASP760  ASP761  ALA762  ILE779  LEU786  VAL792 
 PHE793  MET794  SER795  GLU796  ALA797  LYS798  CYS799  TRP800  GLU811  SER814 

> <Gold.Protein.RotatedAtoms>
  152.4938  134.4379  159.9533 H   0  0  0  0  0  0  0  0  0  0  0  0  # atno 6907 bound_to 6896
  151.4361  133.3650  159.2783 H   0  0  0  0  0  0  0  0  0  0  0  0  # atno 6908 bound_to 6896
  150.9120  134.8560  159.7491 H   0  0  0  0  0  0  0  0  0  0  0  0  # atno 6909 bound_to 6896
  146.2276  139.8885  142.8559 H   0  0  0  0  0  0  0  0  0  0  0  0  # atno 7974 bound_to 7965
  154.9034  140.3004  155.5305 H   0  0  0  0  0  0  0  0  0  0  0  0  # atno 8008 bound_to 7997
  156.3018  140.2402  156.4000 H   0  0  0  0  0  0  0  0  0  0  0  0  # atno 8009 bound_to 7997
  154.8498  140.0410  157.1585 H   0  0  0  0  0  0  0  0  0  0  0  0  # atno 8010 bound_to 7997
  139.7234  144.7053  151.0837 H   0  0  0  0  0  0  0  0  0  0  0  0  # atno 10167 bound_to 10162
  156.0430  130.5656  150.7802 H   0  0  0  0  0  0  0  0  0  0  0  0  # atno 10718 bound_to 10713
  154.3280  135.6182  153.5538 H   0  0  0  0  0  0  0  0  0  0  0  0  # atno 10763 bound_to 10752
  152.9814  135.5740  154.4994 H   0  0  0  0  0  0  0  0  0  0  0  0  # atno 10764 bound_to 10752
  154.4675  135.2858  155.1644 H   0  0  0  0  0  0  0  0  0  0  0  0  # atno 10765 bound_to 10752
  140.1652  134.4291  155.8292 H   0  0  0  0  0  0  0  0  0  0  0  0  # atno 11005 bound_to 11000
  145.2442  141.0020  143.3918 LP  0  0  0  0  0  0  0  0  0  0  0  0  # atno 17320 bound_to 7965
  144.9427  139.4170  143.6441 LP  0  0  0  0  0  0  0  0  0  0  0  0  # atno 17321 bound_to 7965
  140.7758  143.5137  150.9621 LP  0  0  0  0  0  0  0  0  0  0  0  0  # atno 17342 bound_to 10162
  139.8824  143.7055  152.3155 LP  0  0  0  0  0  0  0  0  0  0  0  0  # atno 17343 bound_to 10162
  157.5272  131.0935  151.0002 LP  0  0  0  0  0  0  0  0  0  0  0  0  # atno 17370 bound_to 10713
  157.0318  130.5714  149.5344 LP  0  0  0  0  0  0  0  0  0  0  0  0  # atno 17371 bound_to 10713
  141.2213  133.6931  156.7665 LP  0  0  0  0  0  0  0  0  0  0  0  0  # atno 17394 bound_to 11000
  140.2442  134.8590  157.3604 LP  0  0  0  0  0  0  0  0  0  0  0  0  # atno 17395 bound_to 11000

$$$$
