AV-unprocessed.smi:148|AV-procd|sdf|1211|dock10
  -GOLD-   2262018393D 1   1.00000     0.00000
 Structure written by MMmdl.
 63 67  0  0  0  0  0  0  0  0  1 V2000
  147.1005  136.5872  154.1390 O   0  0  0  0  0  0  0  0  0  0  0  0
  146.9522  137.9628  154.4225 C   0  0  0  0  0  0  0  0  0  0  0  0
  147.6787  138.3303  155.7379 C   0  0  1  0  0  0  0  0  0  0  0  0
  147.7827  139.8687  155.8866 C   0  0  0  0  0  0  0  0  0  0  0  0
  148.7923  140.2885  156.8420 N   0  0  0  0  0  0  0  0  0  0  0  0
  148.5905  141.0184  157.9918 C   0  0  0  0  0  0  0  0  0  0  0  0
  149.6663  141.2683  158.6871 N   0  0  0  0  0  0  0  0  0  0  0  0
  150.6873  140.6724  157.9564 C   0  0  0  0  0  0  0  0  0  0  0  0
  152.0964  140.5577  158.1235 C   0  0  0  0  0  0  0  0  0  0  0  0
  152.7947  141.0750  159.1589 N   0  0  0  0  0  0  0  0  0  0  0  0
  153.3535  139.9960  159.9732 C   0  0  0  0  0  0  0  0  0  0  0  0
  154.3584  140.5333  160.9992 C   0  0  0  0  0  0  0  0  0  0  0  0
  153.7060  141.6183  161.8609 C   0  0  0  0  0  0  0  0  0  0  0  0
  153.1455  142.7315  160.9656 C   0  0  0  0  0  0  0  0  0  0  0  0
  152.1577  142.1786  159.9025 C   0  0  1  0  0  0  0  0  0  0  0  0
  151.5714  143.2868  158.9622 C   0  0  2  0  0  0  0  0  0  0  0  0
  152.6483  144.1217  158.2300 C   0  0  0  0  0  0  0  0  0  0  0  0
  152.3866  145.5962  158.5690 C   0  0  0  0  0  0  0  0  0  0  0  0
  151.5038  145.5801  159.8156 C   0  0  0  0  0  0  0  0  0  0  0  0
  150.6438  144.3335  159.6186 C   0  0  2  0  0  0  0  0  0  0  0  0
  149.9942  143.9101  160.8005 O   0  0  0  0  0  0  0  0  0  0  0  0
  152.7962  139.8738  157.1854 N   0  0  0  0  0  0  0  0  0  0  0  0
  152.1623  139.3430  156.1354 C   0  0  0  0  0  0  0  0  0  0  0  0
  150.8602  139.3746  155.8423 N   0  0  0  0  0  0  0  0  0  0  0  0
  150.1544  140.0538  156.7915 C   0  0  0  0  0  0  0  0  0  0  0  0
  147.0682  137.6486  156.9945 C   0  0  2  0  0  0  0  0  0  0  0  0
  145.6073  137.9963  157.2872 C   0  0  0  0  0  0  0  0  0  0  0  0
  145.6208  138.4755  158.7377 C   0  0  0  0  0  0  0  0  0  0  0  0
  146.7596  137.8383  159.2923 O   0  0  0  0  0  0  0  0  0  0  0  0
  147.7878  137.9339  158.3207 C   0  0  0  0  0  0  0  0  0  0  0  0
  147.6412  136.4943  153.3695 H   0  0  0  0  0  0  0  0  0  0  0  0
  147.3416  138.5362  153.5816 H   0  0  0  0  0  0  0  0  0  0  0  0
  145.8849  138.1708  154.4803 H   0  0  0  0  0  0  0  0  0  0  0  0
  148.6962  137.9442  155.6569 H   0  0  0  0  0  0  0  0  0  0  0  0
  148.0238  140.3304  154.9284 H   0  0  0  0  0  0  0  0  0  0  0  0
  146.8224  140.2843  156.1944 H   0  0  0  0  0  0  0  0  0  0  0  0
  147.6132  141.3560  158.3052 H   0  0  0  0  0  0  0  0  0  0  0  0
  152.5452  139.4745  160.4883 H   0  0  0  0  0  0  0  0  0  0  0  0
  153.8470  139.2629  159.3329 H   0  0  0  0  0  0  0  0  0  0  0  0
  154.7220  139.7207  161.6283 H   0  0  0  0  0  0  0  0  0  0  0  0
  155.2273  140.9436  160.4831 H   0  0  0  0  0  0  0  0  0  0  0  0
  152.9030  141.1846  162.4579 H   0  0  0  0  0  0  0  0  0  0  0  0
  154.4320  142.0295  162.5628 H   0  0  0  0  0  0  0  0  0  0  0  0
  152.6590  143.4679  161.6025 H   0  0  0  0  0  0  0  0  0  0  0  0
  153.9780  143.2462  160.4868 H   0  0  0  0  0  0  0  0  0  0  0  0
  151.3230  141.7405  160.4499 H   0  0  0  0  0  0  0  0  0  0  0  0
  150.9544  142.7951  158.2097 H   0  0  0  0  0  0  0  0  0  0  0  0
  153.6548  143.8394  158.5367 H   0  0  0  0  0  0  0  0  0  0  0  0
  152.6028  143.9606  157.1523 H   0  0  0  0  0  0  0  0  0  0  0  0
  153.3080  146.1589  158.7209 H   0  0  0  0  0  0  0  0  0  0  0  0
  151.8459  146.0675  157.7472 H   0  0  0  0  0  0  0  0  0  0  0  0
  152.1245  145.4889  160.7068 H   0  0  0  0  0  0  0  0  0  0  0  0
  150.9087  146.4881  159.9179 H   0  0  0  0  0  0  0  0  0  0  0  0
  149.8598  144.5859  158.9024 H   0  0  0  0  0  0  0  0  0  0  0  0
  150.5946  144.0054  161.5238 H   0  0  0  0  0  0  0  0  0  0  0  0
  152.7879  138.8170  155.4294 H   0  0  0  0  0  0  0  0  0  0  0  0
  147.0829  136.5684  156.8463 H   0  0  0  0  0  0  0  0  0  0  0  0
  145.1814  138.7414  156.6158 H   0  0  0  0  0  0  0  0  0  0  0  0
  144.9925  137.0996  157.1980 H   0  0  0  0  0  0  0  0  0  0  0  0
  145.7513  139.5580  158.7857 H   0  0  0  0  0  0  0  0  0  0  0  0
  144.7094  138.2158  159.2767 H   0  0  0  0  0  0  0  0  0  0  0  0
  148.5908  137.2245  158.5214 H   0  0  0  0  0  0  0  0  0  0  0  0
  148.2091  138.9382  158.3577 H   0  0  0  0  0  0  0  0  0  0  0  0
  1  2  1  0  0  0  0
  1 31  1  0  0  0  0
  2  3  1  0  0  0  0
  2 32  1  0  0  0  0
  2 33  1  0  0  0  0
  3  4  1  0  0  0  0
  3 26  1  0  0  0  0
  3 34  1  0  0  0  0
  4  5  1  0  0  0  0
  4 35  1  0  0  0  0
  4 36  1  0  0  0  0
  5 25  1  0  0  0  0
  5  6  1  0  0  0  0
  6  7  2  0  0  0  0
  6 37  1  0  0  0  0
  7  8  1  0  0  0  0
  8 25  2  0  0  0  0
  8  9  1  0  0  0  0
  9 10  1  0  0  0  0
  9 22  2  0  0  0  0
 10 15  1  0  0  0  0
 10 11  1  0  0  0  0
 11 12  1  0  0  0  0
 11 38  1  0  0  0  0
 11 39  1  0  0  0  0
 12 13  1  0  0  0  0
 12 40  1  0  0  0  0
 12 41  1  0  0  0  0
 13 14  1  0  0  0  0
 13 42  1  0  0  0  0
 13 43  1  0  0  0  0
 14 15  1  0  0  0  0
 14 44  1  0  0  0  0
 14 45  1  0  0  0  0
 15 16  1  0  0  0  0
 15 46  1  0  0  0  0
 16 20  1  0  0  0  0
 16 17  1  0  0  0  0
 16 47  1  0  0  0  0
 17 18  1  0  0  0  0
 17 48  1  0  0  0  0
 17 49  1  0  0  0  0
 18 19  1  0  0  0  0
 18 50  1  0  0  0  0
 18 51  1  0  0  0  0
 19 20  1  0  0  0  0
 19 52  1  0  0  0  0
 19 53  1  0  0  0  0
 20 21  1  0  0  0  0
 20 54  1  0  0  0  0
 21 55  1  0  0  0  0
 22 23  1  0  0  0  0
 23 24  2  0  0  0  0
 23 56  1  0  0  0  0
 24 25  1  0  0  0  0
 26 30  1  0  0  0  0
 26 27  1  0  0  0  0
 26 57  1  0  0  0  0
 27 28  1  0  0  0  0
 27 58  1  0  0  0  0
 27 59  1  0  0  0  0
 28 29  1  0  0  0  0
 28 60  1  0  0  0  0
 28 61  1  0  0  0  0
 29 30  1  0  0  0  0
 30 62  1  0  0  0  0
 30 63  1  0  0  0  0
M  END
> <s_m_source_file>
AV-unprocessed.smi

> <i_m_source_file_index>
148

> <i_lp_mmshare_version>
43012

> <i_f3d_flags>
0

> <s_epik_input>
W0NIMl0xT1tDSDJdW0NIMl1bQ0BIXTFbQ0BIXShbQ0gyXVtPSF0pW0NIMl1uKFtjSF1uMiljKGMyMyluW2NIXW5jM040W0NIMl1bQ0gyXVtDSDJdW0NIMl1bQ0BIXTRbQ0BASF01W0NIMl1bQ0gyXVtDSDJdW0NASF01W09IXQ==

> <s_epik_cmdline>
J2VwaWtfcHl0aG9uJywgJy1waCcsICc3LjAnLCAnLXRuJywgJzgnLCAnLW1hJywgJzIwMCcsICctbWV0YWxfYmluZGluZycsICctaW1hZScsICc8aW5maWxlLm1hZT4nLCAnLW9tYWUnLCAnPG91dGZpbGUubWFlPic=

> <r_lp_tautomer_probability>
1

> <r_epik_Ionization_Penalty>
0.00556303

> <r_epik_Ionization_Penalty_Charging>
0

> <r_epik_Ionization_Penalty_Neutral>
0.00556303

> <r_epik_State_Penalty>
0.00401767

> <r_epik_Charging_Adjusted_Penalty>
0.00401767

> <i_epik_Tot_Q>
0

> <i_epik_Tot_abs_Q>
0

> <r_epik_Metal_State_Penalty>
-0

> <b_epik_Metal_Only>
0

> <s_lp_Force_Field>
OPLS_2005

> <r_lp_Energy>
71.509

> <b_lp_Chiralities_Consistent>
1

> <s_lp_Variant>
AV-unprocessed.smi:148-10

> <Gold.Version>
5.8.1

> <Gold.Id.Protein>
6NUR|6NUR_protein|mol2

> <Gold.PLP.Fitness>
48.3392

> <Gold.PLP.PLP>
-43.3314

> <Gold.PLP.part.hbond>
-4.5892

> <Gold.PLP.part.metal>
0.0000

> <Gold.PLP.part.buried>
-5.1233

> <Gold.PLP.part.nonpolar>
-33.1977

> <Gold.PLP.part.repulsive>
0.0259

> <Gold.PLP.ligand.clash>
2.0647

> <Gold.PLP.ligand.torsion>
0.5764

> <Gold.PLP.Chemscore.Hbond>
2.6193

> <Gold.PLP.Chemscore.CHOScore>
0.0000

> <Gold.PLP.Chemscore.Metal>
0.0000

> <Gold.Chemscore.Hbonds>
donor molecule, donor type, donor heavy atom, donor atom, acceptor molecule, acceptor atom, score
      L1  H     1    31       P1  7948  1.00
      P1  H  6933  6944       L1    21  0.07
      P1  H  6934  6947       L1    29  0.72
      P1  H  7997  8010       L1    22  1.00

> <Gold.PLP.Chemscore.Internal.Correction>
0.3674

> <Gold.Rescore>
     Score         DG    S(hbond)    S(metal)    S(lipo)     H(rot)  DE(clash)    DE(int)     intcor
     12.26     -16.98       1.93        0.00     115.87       3.32       0.15       4.57       ----

> <Gold.Chemscore.Fitness>
12.2640

> <Gold.Chemscore.DG>
-16.9827

> <Gold.Chemscore.ZeroCoef>
-5.4800

> <Gold.Chemscore.Hbond>
1.9299

> <Gold.Chemscore.Metal>
0.0000

> <Gold.Chemscore.Lipo>
115.8711

> <Gold.Chemscore.Internal_Hbond>
0.0000

> <Gold.Chemscore.DEClash>
0.1467

> <Gold.Chemscore.DEInternal>
4.5720

> <Gold.Chemscore.Rot>
3.3203

> <Gold.Chemscore.Internal.Correction>
   9.000000E+99

> <Gold.Chemscore.Hbonds>
donor molecule, donor type, donor heavy atom, donor atom, acceptor molecule, acceptor atom, score
      L1  H     1    31       P1  7948  0.94
      P1  H  6933  6944       L1    21  0.04
      P1  H  6934  6947       L1    29  0.15
      P1  H  7997  8010       L1    22  0.60

> <Gold.Chemscore.Hbond.Weighted>
-6.4457

> <Gold.Chemscore.Metal.Weighted>
-0.0000

> <Gold.Chemscore.Lipo.Weighted>
-13.5569

> <Gold.Chemscore.Internal_Hbond.Weighted>
0.0000

> <Gold.Chemscore.DEClash.Weighted>
0.1467

> <Gold.Chemscore.DEInternal.Weighted>
4.5720

> <Gold.Chemscore.Rot.Weighted>
8.5000

> <Gold.Chemscore.Internal.Correction.Weighted>
   9.000000E+99

> <Gold.Protein.RotatedTorsions>
[ 6907 6896 6895 6894 ] final  -58.13 input  -60.11 | X-H torsion
[ 7974 7965 7964 7962 ] final   91.00 input  175.53 | X-H torsion
[ 8008 7997 7996 7995 ] final   54.30 input   59.86 | X-H torsion
[ 10167 10162 10161 10158 ] final   11.59 input  -65.29 | X-H torsion
[ 10718 10713 10712 10709 ] final   40.54 input   66.30 | X-H torsion
[ 10763 10752 10751 10750 ] final  -76.79 input  -60.55 | X-H torsion
[ 11005 11000 10999 10996 ] final   96.35 input  -57.11 | X-H torsion

> <Gold.Protein.ActiveResidues>
 VAL166  LYS551  ARG553  GLY616  TRP617  ASP618  TYR619  PRO620  LYS621  CYS622 
 ASP623  PHE694  ASN695  SER759  ASP760  ASP761  ALA762  ILE779  LEU786  VAL792 
 PHE793  MET794  SER795  GLU796  ALA797  LYS798  CYS799  TRP800  GLU811  SER814 

> <Gold.Protein.RotatedAtoms>
  150.8031  134.7138  159.6618 H   0  0  0  0  0  0  0  0  0  0  0  0  # atno 6907 bound_to 6896
  152.4149  134.6056  160.0021 H   0  0  0  0  0  0  0  0  0  0  0  0  # atno 6908 bound_to 6896
  151.6288  133.3296  159.3140 H   0  0  0  0  0  0  0  0  0  0  0  0  # atno 6909 bound_to 6896
  145.5115  139.2277  143.2721 H   0  0  0  0  0  0  0  0  0  0  0  0  # atno 7974 bound_to 7965
  155.4824  140.3469  155.4342 H   0  0  0  0  0  0  0  0  0  0  0  0  # atno 8008 bound_to 7997
  156.1030  140.1440  156.9470 H   0  0  0  0  0  0  0  0  0  0  0  0  # atno 8009 bound_to 7997
  154.4706  140.0902  156.7113 H   0  0  0  0  0  0  0  0  0  0  0  0  # atno 8010 bound_to 7997
  140.6122  143.8384  150.7078 H   0  0  0  0  0  0  0  0  0  0  0  0  # atno 10167 bound_to 10162
  157.3833  130.7765  149.7210 H   0  0  0  0  0  0  0  0  0  0  0  0  # atno 10718 bound_to 10713
  154.5045  135.5786  153.6556 H   0  0  0  0  0  0  0  0  0  0  0  0  # atno 10763 bound_to 10752
  152.9885  135.6143  154.2960 H   0  0  0  0  0  0  0  0  0  0  0  0  # atno 10764 bound_to 10752
  154.2870  135.2849  155.2651 H   0  0  0  0  0  0  0  0  0  0  0  0  # atno 10765 bound_to 10752
  139.8782  134.8946  156.4146 H   0  0  0  0  0  0  0  0  0  0  0  0  # atno 11005 bound_to 11000
  146.2163  140.5922  142.9037 LP  0  0  0  0  0  0  0  0  0  0  0  0  # atno 17320 bound_to 7965
  144.7724  140.5667  143.6661 LP  0  0  0  0  0  0  0  0  0  0  0  0  # atno 17321 bound_to 7965
  140.1955  143.4002  152.1831 LP  0  0  0  0  0  0  0  0  0  0  0  0  # atno 17342 bound_to 10162
  139.5370  144.7219  151.4860 LP  0  0  0  0  0  0  0  0  0  0  0  0  # atno 17343 bound_to 10162
  155.9781  130.4055  150.3672 LP  0  0  0  0  0  0  0  0  0  0  0  0  # atno 17370 bound_to 10713
  157.1779  131.0385  151.2763 LP  0  0  0  0  0  0  0  0  0  0  0  0  # atno 17371 bound_to 10713
  140.9176  133.7667  155.9867 LP  0  0  0  0  0  0  0  0  0  0  0  0  # atno 17394 bound_to 11000
  140.8476  134.2993  157.5288 LP  0  0  0  0  0  0  0  0  0  0  0  0  # atno 17395 bound_to 11000

$$$$
