AV-unprocessed.smi:3031|AV-procd|sdf|11550|dock9
  -GOLD-   2272016513D 1   1.00000     0.00000
 Structure written by MMmdl.
 48 49  0  0  0  0  0  0  0  0  3 V2000
  152.0876  142.7942  158.7258 C   0  0  0  0  0  0  0  0  0  0  0  0
  151.6758  141.8026  157.6762 C   0  0  0  0  0  0  0  0  0  0  0  0
  152.0573  140.4349  157.5669 C   0  0  0  0  0  0  0  0  0  0  0  0
  151.5155  139.8321  156.5212 N   0  0  0  0  0  0  0  0  0  0  0  0
  150.7733  140.7902  155.9267 N   0  0  0  0  0  0  0  0  0  0  0  0
  150.0197  140.4796  154.7253 C   0  0  0  0  0  0  0  0  0  0  0  0
  150.0394  138.9744  154.3686 C   0  0  1  0  0  0  0  0  0  0  0  0
  149.6154  138.0762  155.5432 C   0  0  0  0  0  0  0  0  0  0  0  0
  149.1668  138.6940  153.2062 N   0  3  0  0  0  0  0  0  0  0  0  0
  147.7165  138.8782  153.4365 C   0  0  0  0  0  0  0  0  0  0  0  0
  146.9201  138.7287  152.1278 C   0  0  2  0  0  0  0  0  0  0  0  0
  146.3749  139.9890  151.7868 O   0  0  0  0  0  0  0  0  0  0  0  0
  145.7616  137.7190  152.2684 C   0  0  0  0  0  0  0  0  0  0  0  0
  146.1928  136.3150  152.0418 N   0  3  0  0  0  0  0  0  0  0  0  0
  146.1698  135.4806  153.2695 C   0  0  0  0  0  0  0  0  0  0  0  0
  146.6618  134.0557  152.9625 C   0  0  0  0  0  0  0  0  0  0  0  0
  145.8598  133.4853  151.9364 O   0  0  0  0  0  0  0  0  0  0  0  0
  145.9427  134.2242  150.7244 C   0  0  0  0  0  0  0  0  0  0  0  0
  145.4280  135.6553  150.9562 C   0  0  0  0  0  0  0  0  0  0  0  0
  150.8499  141.9887  156.6041 C   0  0  0  0  0  0  0  0  0  0  0  0
  152.8664  142.3962  159.3768 H   0  0  0  0  0  0  0  0  0  0  0  0
  151.2494  143.0752  159.3636 H   0  0  0  0  0  0  0  0  0  0  0  0
  152.4777  143.7107  158.2830 H   0  0  0  0  0  0  0  0  0  0  0  0
  152.7078  139.8653  158.2142 H   0  0  0  0  0  0  0  0  0  0  0  0
  148.9917  140.8212  154.8598 H   0  0  0  0  0  0  0  0  0  0  0  0
  150.4387  141.0759  153.9148 H   0  0  0  0  0  0  0  0  0  0  0  0
  151.0583  138.6911  154.0997 H   0  0  0  0  0  0  0  0  0  0  0  0
  150.3019  138.1642  156.3855 H   0  0  0  0  0  0  0  0  0  0  0  0
  149.6036  137.0259  155.2502 H   0  0  0  0  0  0  0  0  0  0  0  0
  148.6172  138.3335  155.8992 H   0  0  0  0  0  0  0  0  0  0  0  0
  149.4322  139.3287  152.4661 H   0  0  0  0  0  0  0  0  0  0  0  0
  147.3746  138.1275  154.1485 H   0  0  0  0  0  0  0  0  0  0  0  0
  147.5313  139.8538  153.8889 H   0  0  0  0  0  0  0  0  0  0  0  0
  147.6018  138.4158  151.3372 H   0  0  0  0  0  0  0  0  0  0  0  0
  145.4783  140.0264  152.0854 H   0  0  0  0  0  0  0  0  0  0  0  0
  145.3050  137.7933  153.2569 H   0  0  0  0  0  0  0  0  0  0  0  0
  144.9791  137.9857  151.5556 H   0  0  0  0  0  0  0  0  0  0  0  0
  146.7987  135.9179  154.0440 H   0  0  0  0  0  0  0  0  0  0  0  0
  145.1544  135.4419  153.6678 H   0  0  0  0  0  0  0  0  0  0  0  0
  147.7111  134.0609  152.6628 H   0  0  0  0  0  0  0  0  0  0  0  0
  146.5885  133.4331  153.8544 H   0  0  0  0  0  0  0  0  0  0  0  0
  146.9708  134.2333  150.3588 H   0  0  0  0  0  0  0  0  0  0  0  0
  145.3392  133.7263  149.9654 H   0  0  0  0  0  0  0  0  0  0  0  0
  144.3683  135.6340  151.2156 H   0  0  0  0  0  0  0  0  0  0  0  0
  145.5218  136.2302  150.0341 H   0  0  0  0  0  0  0  0  0  0  0  0
  150.3168  142.8670  156.2711 H   0  0  0  0  0  0  0  0  0  0  0  0
  149.3398  137.7505  152.8901 H   0  0  0  0  0  0  0  0  0  0  0  0
  147.1518  136.3543  151.7258 H   0  0  0  0  0  0  0  0  0  0  0  0
  1  2  1  0  0  0  0
  1 21  1  0  0  0  0
  1 22  1  0  0  0  0
  1 23  1  0  0  0  0
  2 20  2  0  0  0  0
  2  3  1  0  0  0  0
  3  4  2  0  0  0  0
  3 24  1  0  0  0  0
  4  5  1  0  0  0  0
  5  6  1  0  0  0  0
  5 20  1  0  0  0  0
  6  7  1  0  0  0  0
  6 25  1  0  0  0  0
  6 26  1  0  0  0  0
  7  8  1  0  0  0  0
  7  9  1  0  0  0  0
  7 27  1  0  0  0  0
  8 28  1  0  0  0  0
  8 29  1  0  0  0  0
  8 30  1  0  0  0  0
  9 10  1  0  0  0  0
  9 31  1  0  0  0  0
  9 47  1  0  0  0  0
 10 11  1  0  0  0  0
 10 32  1  0  0  0  0
 10 33  1  0  0  0  0
 11 12  1  0  0  0  0
 11 13  1  0  0  0  0
 11 34  1  0  0  0  0
 12 35  1  0  0  0  0
 13 14  1  0  0  0  0
 13 36  1  0  0  0  0
 13 37  1  0  0  0  0
 14 19  1  0  0  0  0
 14 15  1  0  0  0  0
 14 48  1  0  0  0  0
 15 16  1  0  0  0  0
 15 38  1  0  0  0  0
 15 39  1  0  0  0  0
 16 17  1  0  0  0  0
 16 40  1  0  0  0  0
 16 41  1  0  0  0  0
 17 18  1  0  0  0  0
 18 19  1  0  0  0  0
 18 42  1  0  0  0  0
 18 43  1  0  0  0  0
 19 44  1  0  0  0  0
 19 45  1  0  0  0  0
 20 46  1  0  0  0  0
M  CHG  1   9   1
M  CHG  1  14   1
M  END
> <s_m_source_file>
AV-unprocessed.smi

> <i_m_source_file_index>
3031

> <i_lp_mmshare_version>
43012

> <i_f3d_flags>
0

> <s_epik_input>
W0NIM11jMVtjSF1ubihbY0hdMSlbQ0gyXVtDQEhdKFtDSDNdKVtOSF1bQ0gyXVtDQEhdKFtPSF0pW0NIMl1OMltDSDJdW0NIMl1PW0NIMl1bQ0gyXTI=

> <s_epik_cmdline>
J2VwaWtfcHl0aG9uJywgJy1waCcsICc3LjAnLCAnLXRuJywgJzgnLCAnLW1hJywgJzIwMCcsICctbWV0YWxfYmluZGluZycsICctaW1hZScsICc8aW5maWxlLm1hZT4nLCAnLW9tYWUnLCAnPG91dGZpbGUubWFlPic=

> <r_lp_tautomer_probability>
1

> <r_epik_Ionization_Penalty>
1.76542

> <r_epik_Ionization_Penalty_Charging>
1.76348

> <r_epik_Ionization_Penalty_Neutral>
0.00194017

> <r_epik_State_Penalty>
1.49348

> <r_epik_Charging_Adjusted_Penalty>
3.25696

> <i_epik_Tot_Q>
2

> <i_epik_Tot_abs_Q>
2

> <r_epik_Metal_State_Penalty>
1.49349

> <b_epik_Metal_Only>
0

> <s_lp_Force_Field>
OPLS_2005

> <r_lp_Energy>
28.4524

> <b_lp_Chiralities_Consistent>
1

> <s_lp_Variant>
AV-unprocessed.smi:3031-10

> <Gold.Version>
5.8.1

> <Gold.Id.Protein>
6NUR|6NUR_protein|mol2

> <Gold.PLP.Fitness>
53.6176

> <Gold.PLP.PLP>
-35.9805

> <Gold.PLP.part.hbond>
-4.3753

> <Gold.PLP.part.metal>
0.0000

> <Gold.PLP.part.buried>
-0.2782

> <Gold.PLP.part.nonpolar>
-31.2361

> <Gold.PLP.part.repulsive>
0.2403

> <Gold.PLP.ligand.clash>
0.0000

> <Gold.PLP.ligand.torsion>
1.8236

> <Gold.PLP.Chemscore.Hbond>
6.0000

> <Gold.PLP.Chemscore.CHOScore>
1.0000

> <Gold.PLP.Chemscore.Metal>
0.0000

> <Gold.Chemscore.Hbonds>
donor molecule, donor type, donor heavy atom, donor atom, acceptor molecule, acceptor atom, score
      L1  H     9    31       P1  7957  0.89
      L1  H     9    47       P1  7948  2.00
      L1  H    12    35       P1 10175  1.00
      L1  H    14    48       P1  7948  2.00
      L1  C    20    46       P1  8028  1.00

> <Gold.PLP.Chemscore.Internal.Correction>
0.2843

> <Gold.Rescore>
     Score         DG    S(hbond)    S(metal)    S(lipo)     H(rot)  DE(clash)    DE(int)     intcor
     18.08     -21.27       3.85        0.00      85.19       2.74       0.04       3.15       ----

> <Gold.Chemscore.Fitness>
18.0801

> <Gold.Chemscore.DG>
-21.2700

> <Gold.Chemscore.ZeroCoef>
-5.4800

> <Gold.Chemscore.Hbond>
3.8460

> <Gold.Chemscore.Metal>
0.0000

> <Gold.Chemscore.Lipo>
85.1911

> <Gold.Chemscore.Internal_Hbond>
0.0000

> <Gold.Chemscore.DEClash>
0.0354

> <Gold.Chemscore.DEInternal>
3.1546

> <Gold.Chemscore.Rot>
2.7434

> <Gold.Chemscore.Internal.Correction>
   9.000000E+99

> <Gold.Chemscore.Hbonds>
donor molecule, donor type, donor heavy atom, donor atom, acceptor molecule, acceptor atom, score
      L1  H     9    31       P1  7957  0.87
      L1  H     9    47       P1  7948  0.92
      L1  H    12    35       P1 10175  0.65
      L1  H    14    48       P1  7948  0.99

> <Gold.Chemscore.Hbond.Weighted>
-12.8458

> <Gold.Chemscore.Metal.Weighted>
-0.0000

> <Gold.Chemscore.Lipo.Weighted>
-9.9674

> <Gold.Chemscore.Internal_Hbond.Weighted>
0.0000

> <Gold.Chemscore.DEClash.Weighted>
0.0354

> <Gold.Chemscore.DEInternal.Weighted>
3.1546

> <Gold.Chemscore.Rot.Weighted>
7.0231

> <Gold.Chemscore.Internal.Correction.Weighted>
   9.000000E+99

> <Gold.Protein.RotatedTorsions>
[ 6907 6896 6895 6894 ] final   74.92 input  -60.11 | X-H torsion
[ 7974 7965 7964 7962 ] final    5.25 input  175.53 | X-H torsion
[ 8008 7997 7996 7995 ] final  120.75 input   59.86 | X-H torsion
[ 10167 10162 10161 10158 ] final   74.29 input  -65.29 | X-H torsion
[ 10718 10713 10712 10709 ] final  -69.84 input   66.30 | X-H torsion
[ 10763 10752 10751 10750 ] final  123.34 input  -60.55 | X-H torsion
[ 11005 11000 10999 10996 ] final  -25.09 input  -57.11 | X-H torsion

> <Gold.Protein.ActiveResidues>
 VAL166  LYS551  ARG553  GLY616  TRP617  ASP618  TYR619  PRO620  LYS621  CYS622 
 ASP623  PHE694  ASN695  SER759  ASP760  ASP761  ALA762  ILE779  LEU786  VAL792 
 PHE793  MET794  SER795  GLU796  ALA797  LYS798  CYS799  TRP800  GLU811  SER814 

> <Gold.Protein.RotatedAtoms>
  152.5000  134.4199  159.9476 H   0  0  0  0  0  0  0  0  0  0  0  0  # atno 6907 bound_to 6896
  151.4171  133.3703  159.2759 H   0  0  0  0  0  0  0  0  0  0  0  0  # atno 6908 bound_to 6896
  150.9249  134.8688  159.7573 H   0  0  0  0  0  0  0  0  0  0  0  0  # atno 6909 bound_to 6896
  146.2441  140.0412  142.8382 H   0  0  0  0  0  0  0  0  0  0  0  0  # atno 7974 bound_to 7965
  156.2656  140.2824  156.1199 H   0  0  0  0  0  0  0  0  0  0  0  0  # atno 8008 bound_to 7997
  155.1167  140.0391  157.2756 H   0  0  0  0  0  0  0  0  0  0  0  0  # atno 8009 bound_to 7997
  154.6701  140.2586  155.7022 H   0  0  0  0  0  0  0  0  0  0  0  0  # atno 8010 bound_to 7997
  140.0153  144.5582  150.7625 H   0  0  0  0  0  0  0  0  0  0  0  0  # atno 10167 bound_to 10162
  156.0436  130.4320  150.2208 H   0  0  0  0  0  0  0  0  0  0  0  0  # atno 10718 bound_to 10713
  153.6440  135.3374  155.3080 H   0  0  0  0  0  0  0  0  0  0  0  0  # atno 10763 bound_to 10752
  154.8553  135.4325  154.1974 H   0  0  0  0  0  0  0  0  0  0  0  0  # atno 10764 bound_to 10752
  153.2900  135.7016  153.7376 H   0  0  0  0  0  0  0  0  0  0  0  0  # atno 10765 bound_to 10752
  140.8906  133.7591  156.0416 H   0  0  0  0  0  0  0  0  0  0  0  0  # atno 11005 bound_to 11000
  145.1068  140.9380  143.4680 LP  0  0  0  0  0  0  0  0  0  0  0  0  # atno 17320 bound_to 7965
  145.0617  139.3100  143.5877 LP  0  0  0  0  0  0  0  0  0  0  0  0  # atno 17321 bound_to 7965
  140.7365  143.2753  151.3760 LP  0  0  0  0  0  0  0  0  0  0  0  0  # atno 17342 bound_to 10162
  139.6177  144.0970  152.2361 LP  0  0  0  0  0  0  0  0  0  0  0  0  # atno 17343 bound_to 10162
  157.0300  131.0004  151.3315 LP  0  0  0  0  0  0  0  0  0  0  0  0  # atno 17370 bound_to 10713
  157.5284  130.8042  149.7888 LP  0  0  0  0  0  0  0  0  0  0  0  0  # atno 17371 bound_to 10713
  140.8351  134.3132  157.5334 LP  0  0  0  0  0  0  0  0  0  0  0  0  # atno 17394 bound_to 11000
  139.8729  134.9385  156.3717 LP  0  0  0  0  0  0  0  0  0  0  0  0  # atno 17395 bound_to 11000

$$$$
