AV-unprocessed.smi:39|AV-procd|sdf|362|dock8
  -GOLD-   2262016203D 1   1.00000     0.00000
 Structure written by MMmdl.
 31 32  0  0  0  0  0  0  0  0  4 V2000
  150.3288  144.3106  159.3922 C   0  0  0  0  0  0  0  0  0  0  0  0
  151.1554  143.0568  159.1661 C   0  0  0  0  0  0  0  0  0  0  0  0
  150.7347  142.0501  158.3682 C   0  0  0  0  0  0  0  0  0  0  0  0
  151.4917  140.9076  158.1644 N   0  0  0  0  0  0  0  0  0  0  0  0
  151.0097  139.7751  157.2775 C   0  0  2  0  0  0  0  0  0  0  0  0
  152.0261  139.4872  156.1556 C   0  0  0  0  0  0  0  0  0  0  0  0
  151.1657  139.5085  154.8997 C   0  0  1  0  0  0  0  0  0  0  0  0
  150.6004  138.1812  154.6175 N   0  0  0  0  0  0  0  0  0  0  0  0
  151.1518  137.2168  155.1635 N   0  3  0  0  0  0  0  0  0  0  0  0
  151.6922  136.2928  155.5497 N   0  5  0  0  0  0  0  0  0  0  0  0
  150.0883  140.5202  155.3077 C   0  0  1  0  0  0  0  0  0  0  0  0
  148.8094  140.4987  154.4528 C   0  0  0  0  0  0  0  0  0  0  0  0
  149.0546  141.0973  153.1978 O   0  0  0  0  0  0  0  0  0  0  0  0
  149.8124  140.1346  156.6494 O   0  0  0  0  0  0  0  0  0  0  0  0
  152.7411  140.7712  158.8251 C   0  0  0  0  0  0  0  0  0  0  0  0
  153.3831  139.7370  158.6381 O   0  0  0  0  0  0  0  0  0  0  0  0
  153.1747  141.7826  159.6300 N   0  5  0  0  0  0  0  0  0  0  0  0
  152.4540  142.9218  159.8368 C   0  0  0  0  0  0  0  0  0  0  0  0
  152.8588  143.8290  160.5636 O   0  0  0  0  0  0  0  0  0  0  0  0
  150.8303  138.9325  157.9473 H   0  0  0  0  0  0  0  0  0  0  0  0
  151.7276  139.8812  154.0411 H   0  0  0  0  0  0  0  0  0  0  0  0
  150.5304  141.5187  155.2945 H   0  0  0  0  0  0  0  0  0  0  0  0
  149.3998  144.2815  158.8222 H   0  0  0  0  0  0  0  0  0  0  0  0
  150.8863  145.1956  159.0837 H   0  0  0  0  0  0  0  0  0  0  0  0
  150.0752  144.4126  160.4478 H   0  0  0  0  0  0  0  0  0  0  0  0
  149.7760  142.1546  157.8843 H   0  0  0  0  0  0  0  0  0  0  0  0
  152.7700  140.2845  156.1130 H   0  0  0  0  0  0  0  0  0  0  0  0
  152.5427  138.5423  156.3287 H   0  0  0  0  0  0  0  0  0  0  0  0
  148.4992  139.4697  154.2691 H   0  0  0  0  0  0  0  0  0  0  0  0
  147.9845  141.0033  154.9570 H   0  0  0  0  0  0  0  0  0  0  0  0
  149.1151  140.4152  152.5466 H   0  0  0  0  0  0  0  0  0  0  0  0
  1  2  1  0  0  0  0
  1 23  1  0  0  0  0
  1 24  1  0  0  0  0
  1 25  1  0  0  0  0
  2 18  1  0  0  0  0
  2  3  2  0  0  0  0
  3  4  1  0  0  0  0
  3 26  1  0  0  0  0
  4  5  1  0  0  0  0
  4 15  1  0  0  0  0
  5 20  1  0  0  0  0
  5 14  1  0  0  0  0
  5  6  1  0  0  0  0
  6  7  1  0  0  0  0
  6 27  1  0  0  0  0
  6 28  1  0  0  0  0
  7 21  1  0  0  0  0
  7  8  1  0  0  0  0
  7 11  1  0  0  0  0
  8  9  2  0  0  0  0
  9 10  2  0  0  0  0
 11 22  1  0  0  0  0
 11 12  1  0  0  0  0
 11 14  1  0  0  0  0
 12 13  1  0  0  0  0
 12 29  1  0  0  0  0
 12 30  1  0  0  0  0
 13 31  1  0  0  0  0
 15 16  2  0  0  0  0
 15 17  1  0  0  0  0
 17 18  1  0  0  0  0
 18 19  2  0  0  0  0
M  CHG  1   9   1
M  CHG  1  10  -1
M  CHG  1  17  -1
M  END
> <s_m_source_file>
AV-unprocessed.smi

> <i_m_source_file_index>
39

> <i_lp_mmshare_version>
43012

> <i_f3d_flags>
0

> <s_epik_input>
Tz1jMVtuSF1jKD1PKW4oW2NIXWMxW0NIM10pW0NASF0yW0NIMl1bQ0BIXShOPVtOK109W04tXSlbQ0BIXShPMilbQ0gyXVtPSF0=

> <s_epik_cmdline>
J2VwaWtfcHl0aG9uJywgJy1waCcsICc3LjAnLCAnLXRuJywgJzgnLCAnLW1hJywgJzIwMCcsICctbWV0YWxfYmluZGluZycsICctaW1hZScsICc8aW5maWxlLm1hZT4nLCAnLW9tYWUnLCAnPG91dGZpbGUubWFlPic=

> <r_lp_tautomer_probability>
0.999537

> <r_epik_Ionization_Penalty>
3.6393

> <r_epik_Ionization_Penalty_Charging>
9.76484e-08

> <r_epik_Ionization_Penalty_Neutral>
3.6393

> <r_epik_State_Penalty>
3.63887

> <r_epik_Charging_Adjusted_Penalty>
3.63887

> <i_epik_Tot_Q>
-1

> <i_epik_Tot_abs_Q>
3

> <r_epik_Metal_State_Penalty>
0.225911

> <b_epik_Metal_Only>
1

> <s_epik_Chemistry_Notes>
This compound contains an acetal/aminal-like group ( X-CH(R)-Y where X, Y are N, S, or O) that may be acid/base labile, releasing an aldehyde.

> <s_lp_Force_Field>
OPLS_2005

> <r_lp_Energy>
37.741

> <b_lp_Chiralities_Consistent>
1

> <s_lp_Variant>
AV-unprocessed.smi:39-12

> <Gold.Version>
5.8.1

> <Gold.Id.Protein>
6NUR|6NUR_protein|mol2

> <Gold.PLP.Fitness>
41.3496

> <Gold.PLP.PLP>
-30.2184

> <Gold.PLP.part.hbond>
-4.4202

> <Gold.PLP.part.metal>
0.0000

> <Gold.PLP.part.buried>
-2.8032

> <Gold.PLP.part.nonpolar>
-23.4542

> <Gold.PLP.part.repulsive>
0.4009

> <Gold.PLP.ligand.clash>
0.0000

> <Gold.PLP.ligand.torsion>
0.2914

> <Gold.PLP.Chemscore.Hbond>
3.8892

> <Gold.PLP.Chemscore.CHOScore>
0.0000

> <Gold.PLP.Chemscore.Metal>
0.0000

> <Gold.Chemscore.Hbonds>
donor molecule, donor type, donor heavy atom, donor atom, acceptor molecule, acceptor atom, score
      L1  H    13    31       P1  7957  0.87
      P1  H  7997  8009       L1    16  1.00
      P1  H  8011  8017       L1    13  1.00
      P1  H 10752 10764       L1    10  1.00

> <Gold.PLP.Chemscore.Internal.Correction>
0.0464

> <Gold.Rescore>
     Score         DG    S(hbond)    S(metal)    S(lipo)     H(rot)  DE(clash)    DE(int)     intcor
     13.23     -15.37       3.27        0.00      50.64       2.72       0.48       1.66       ----

> <Gold.Chemscore.Fitness>
13.2304

> <Gold.Chemscore.DG>
-15.3744

> <Gold.Chemscore.ZeroCoef>
-5.4800

> <Gold.Chemscore.Hbond>
3.2697

> <Gold.Chemscore.Metal>
0.0000

> <Gold.Chemscore.Lipo>
50.6392

> <Gold.Chemscore.Internal_Hbond>
0.0000

> <Gold.Chemscore.DEClash>
0.4827

> <Gold.Chemscore.DEInternal>
1.6613

> <Gold.Chemscore.Rot>
2.7153

> <Gold.Chemscore.Internal.Correction>
   9.000000E+99

> <Gold.Chemscore.Hbonds>
donor molecule, donor type, donor heavy atom, donor atom, acceptor molecule, acceptor atom, score
      L1  H    13    31       P1  7957  0.80
      P1  H  7997  8009       L1    16  0.61
      P1  H  8011  8017       L1    13  0.25
      P1  H 10752 10764       L1    10  1.00

> <Gold.Chemscore.Hbond.Weighted>
-10.9208

> <Gold.Chemscore.Metal.Weighted>
-0.0000

> <Gold.Chemscore.Lipo.Weighted>
-5.9248

> <Gold.Chemscore.Internal_Hbond.Weighted>
0.0000

> <Gold.Chemscore.DEClash.Weighted>
0.4827

> <Gold.Chemscore.DEInternal.Weighted>
1.6613

> <Gold.Chemscore.Rot.Weighted>
6.9512

> <Gold.Chemscore.Internal.Correction.Weighted>
   9.000000E+99

> <Gold.Protein.RotatedTorsions>
[ 6907 6896 6895 6894 ] final   41.20 input  -60.11 | X-H torsion
[ 7974 7965 7964 7962 ] final  127.26 input  175.53 | X-H torsion
[ 8008 7997 7996 7995 ] final  150.49 input   59.86 | X-H torsion
[ 10167 10162 10161 10158 ] final  -97.74 input  -65.29 | X-H torsion
[ 10718 10713 10712 10709 ] final  141.95 input   66.30 | X-H torsion
[ 10763 10752 10751 10750 ] final  -36.78 input  -60.55 | X-H torsion
[ 11005 11000 10999 10996 ] final  -88.04 input  -57.11 | X-H torsion

> <Gold.Protein.ActiveResidues>
 VAL166  LYS551  ARG553  GLY616  TRP617  ASP618  TYR619  PRO620  LYS621  CYS622 
 ASP623  PHE694  ASN695  SER759  ASP760  ASP761  ALA762  ILE779  LEU786  VAL792 
 PHE793  MET794  SER795  GLU796  ALA797  LYS798  CYS799  TRP800  GLU811  SER814 

> <Gold.Protein.RotatedAtoms>
  152.1922  134.8662  160.0516 H   0  0  0  0  0  0  0  0  0  0  0  0  # atno 6907 bound_to 6896
  151.9546  133.3671  159.4021 H   0  0  0  0  0  0  0  0  0  0  0  0  # atno 6908 bound_to 6896
  150.6937  134.4228  159.5256 H   0  0  0  0  0  0  0  0  0  0  0  0  # atno 6909 bound_to 6896
  145.0525  139.3871  143.5046 H   0  0  0  0  0  0  0  0  0  0  0  0  # atno 7974 bound_to 7965
  156.2713  140.2073  156.6026 H   0  0  0  0  0  0  0  0  0  0  0  0  # atno 8008 bound_to 7997
  154.6895  140.0531  157.0372 H   0  0  0  0  0  0  0  0  0  0  0  0  # atno 8009 bound_to 7997
  155.0887  140.3194  155.4583 H   0  0  0  0  0  0  0  0  0  0  0  0  # atno 8010 bound_to 7997
  140.2803  143.3286  152.0448 H   0  0  0  0  0  0  0  0  0  0  0  0  # atno 10167 bound_to 10162
  157.3862  131.0998  151.0691 H   0  0  0  0  0  0  0  0  0  0  0  0  # atno 10718 bound_to 10713
  153.8855  135.6817  153.4764 H   0  0  0  0  0  0  0  0  0  0  0  0  # atno 10763 bound_to 10752
  153.1210  135.4740  154.9193 H   0  0  0  0  0  0  0  0  0  0  0  0  # atno 10764 bound_to 10752
  154.7648  135.3221  154.8260 H   0  0  0  0  0  0  0  0  0  0  0  0  # atno 10765 bound_to 10752
  141.1608  133.7547  156.9394 H   0  0  0  0  0  0  0  0  0  0  0  0  # atno 11005 bound_to 11000
  146.3519  140.0183  142.8661 LP  0  0  0  0  0  0  0  0  0  0  0  0  # atno 17320 bound_to 7965
  145.1509  140.9622  143.4433 LP  0  0  0  0  0  0  0  0  0  0  0  0  # atno 17321 bound_to 7965
  139.4964  144.6596  151.6494 LP  0  0  0  0  0  0  0  0  0  0  0  0  # atno 17342 bound_to 10162
  140.5817  143.9934  150.6272 LP  0  0  0  0  0  0  0  0  0  0  0  0  # atno 17343 bound_to 10162
  157.1742  130.6281  149.5650 LP  0  0  0  0  0  0  0  0  0  0  0  0  # atno 17370 bound_to 10713
  155.9787  130.4775  150.6672 LP  0  0  0  0  0  0  0  0  0  0  0  0  # atno 17371 bound_to 10713
  140.1332  134.9342  157.2365 LP  0  0  0  0  0  0  0  0  0  0  0  0  # atno 17394 bound_to 11000
  140.2928  134.3221  155.7310 LP  0  0  0  0  0  0  0  0  0  0  0  0  # atno 17395 bound_to 11000

$$$$
