AV-unprocessed.smi:1|AV-procd|sdf|17|dock10
  -GOLD-   2262015113D 1   1.00000     0.00000
 Structure written by MMmdl.
 56 61  0  0  0  0  0  0  0  0  2 V2000
  154.1718  140.3625  159.5288 O   0  0  0  0  0  0  0  0  0  0  0  0
  153.2140  140.8780  158.9482 C   0  0  0  0  0  0  0  0  0  0  0  0
  152.7223  140.5743  157.7200 N   0  5  0  0  0  0  0  0  0  0  0  0
  151.8346  139.5773  157.5862 C   0  0  0  0  0  0  0  0  0  0  0  0
  151.6456  138.6848  158.5921 N   0  0  0  0  0  0  0  0  0  0  0  0
  150.7558  137.6939  158.4594 C   0  0  0  0  0  0  0  0  0  0  0  0
  149.9626  137.4090  157.4215 N   0  0  0  0  0  0  0  0  0  0  0  0
  150.1545  138.2934  156.4002 C   0  0  0  0  0  0  0  0  0  0  0  0
  151.0653  139.3885  156.4057 C   0  0  0  0  0  0  0  0  0  0  0  0
  151.0069  140.0802  155.2047 N   0  0  0  0  0  0  0  0  0  0  0  0
  150.0786  139.3925  154.5422 C   0  0  0  0  0  0  0  0  0  0  0  0
  149.5204  138.3368  155.1720 N   0  0  0  0  0  0  0  0  0  0  0  0
  148.4524  137.3972  154.7023 C   0  0  2  0  0  0  0  0  0  0  0  0
  147.4624  137.3157  155.6832 O   0  0  0  0  0  0  0  0  0  0  0  0
  147.6399  136.1344  156.4553 C   0  0  1  0  0  0  0  0  0  0  0  0
  146.3228  135.7370  157.1277 C   0  0  0  0  0  0  0  0  0  0  0  0
  146.6039  134.9992  158.3054 O   0  0  0  0  0  0  0  0  0  0  0  0
  146.9966  135.6409  159.4226 C   0  0  0  0  0  0  0  0  0  0  0  0
  146.8581  136.8534  159.5964 O   0  0  0  0  0  0  0  0  0  0  0  0
  147.6191  134.7318  160.4277 C   0  0  0  0  0  0  0  0  0  0  0  0
  148.0702  135.2658  161.6575 C   0  0  0  0  0  0  0  0  0  0  0  0
  148.6645  134.4339  162.6261 C   0  0  0  0  0  0  0  0  0  0  0  0
  148.8153  133.0575  162.3767 C   0  0  0  0  0  0  0  0  0  0  0  0
  148.3705  132.5138  161.1574 C   0  0  0  0  0  0  0  0  0  0  0  0
  147.7752  133.3441  160.1874 C   0  0  0  0  0  0  0  0  0  0  0  0
  148.1199  135.1216  155.4159 C   0  0  2  0  0  0  0  0  0  0  0  0
  148.9050  134.0974  156.0000 O   0  0  0  0  0  0  0  0  0  0  0  0
  150.5150  134.5350  155.9132 S   0  0  0  0  0  0  0  0  0  0  0  0
  150.9351  135.0106  157.2402 O   0  0  0  0  0  0  0  0  0  0  0  0
  151.2383  133.4834  155.1826 O   0  0  0  0  0  0  0  0  0  0  0  0
  150.3598  135.8605  154.9110 O   0  0  0  0  0  0  0  0  0  0  0  0
  149.0060  135.9726  154.4941 C   0  0  2  0  0  0  0  0  0  0  0  0
  152.5045  142.0316  159.6050 C   0  0  0  0  0  0  0  0  0  0  0  0
  151.9659  143.0677  158.8082 C   0  0  0  0  0  0  0  0  0  0  0  0
  151.3238  144.1702  159.4051 C   0  0  0  0  0  0  0  0  0  0  0  0
  151.2216  144.2530  160.8064 C   0  0  0  0  0  0  0  0  0  0  0  0
  151.7650  143.2339  161.6106 C   0  0  0  0  0  0  0  0  0  0  0  0
  152.4070  142.1309  161.0146 C   0  0  0  0  0  0  0  0  0  0  0  0
  150.6658  137.0334  159.3089 H   0  0  0  0  0  0  0  0  0  0  0  0
  149.7895  139.6807  153.5428 H   0  0  0  0  0  0  0  0  0  0  0  0
  148.0583  137.8575  153.7954 H   0  0  0  0  0  0  0  0  0  0  0  0
  148.4182  136.2992  157.2021 H   0  0  0  0  0  0  0  0  0  0  0  0
  145.7295  136.6232  157.3580 H   0  0  0  0  0  0  0  0  0  0  0  0
  145.7360  135.1127  156.4525 H   0  0  0  0  0  0  0  0  0  0  0  0
  147.9664  136.3200  161.8711 H   0  0  0  0  0  0  0  0  0  0  0  0
  149.0054  134.8532  163.5610 H   0  0  0  0  0  0  0  0  0  0  0  0
  149.2718  132.4199  163.1194 H   0  0  0  0  0  0  0  0  0  0  0  0
  148.4862  131.4573  160.9653 H   0  0  0  0  0  0  0  0  0  0  0  0
  147.4442  132.8942  159.2627 H   0  0  0  0  0  0  0  0  0  0  0  0
  147.2805  134.7047  154.8578 H   0  0  0  0  0  0  0  0  0  0  0  0
  148.9142  135.6776  153.4485 H   0  0  0  0  0  0  0  0  0  0  0  0
  152.0381  143.0201  157.7311 H   0  0  0  0  0  0  0  0  0  0  0  0
  150.9116  144.9532  158.7861 H   0  0  0  0  0  0  0  0  0  0  0  0
  150.7303  145.0987  161.2641 H   0  0  0  0  0  0  0  0  0  0  0  0
  151.6929  143.2986  162.6862 H   0  0  0  0  0  0  0  0  0  0  0  0
  152.8274  141.3648  161.6502 H   0  0  0  0  0  0  0  0  0  0  0  0
  1  2  2  0  0  0  0
  2  3  1  0  0  0  0
  2 33  1  0  0  0  0
  3  4  1  0  0  0  0
  4  9  1  0  0  0  0
  4  5  2  0  0  0  0
  5  6  1  0  0  0  0
  6  7  2  0  0  0  0
  6 39  1  0  0  0  0
  7  8  1  0  0  0  0
  8 12  1  0  0  0  0
  8  9  2  0  0  0  0
  9 10  1  0  0  0  0
 10 11  2  0  0  0  0
 11 12  1  0  0  0  0
 11 40  1  0  0  0  0
 12 13  1  0  0  0  0
 13 32  1  0  0  0  0
 13 14  1  0  0  0  0
 13 41  1  0  0  0  0
 14 15  1  0  0  0  0
 15 16  1  0  0  0  0
 15 26  1  0  0  0  0
 15 42  1  0  0  0  0
 16 17  1  0  0  0  0
 16 43  1  0  0  0  0
 16 44  1  0  0  0  0
 17 18  1  0  0  0  0
 18 19  2  0  0  0  0
 18 20  1  0  0  0  0
 20 25  1  0  0  0  0
 20 21  2  0  0  0  0
 21 22  1  0  0  0  0
 21 45  1  0  0  0  0
 22 23  2  0  0  0  0
 22 46  1  0  0  0  0
 23 24  1  0  0  0  0
 23 47  1  0  0  0  0
 24 25  2  0  0  0  0
 24 48  1  0  0  0  0
 25 49  1  0  0  0  0
 26 32  1  0  0  0  0
 26 27  1  0  0  0  0
 26 50  1  0  0  0  0
 27 28  1  0  0  0  0
 28 29  2  0  0  0  0
 28 30  2  0  0  0  0
 28 31  1  0  0  0  0
 31 32  1  0  0  0  0
 32 51  1  0  0  0  0
 33 38  1  0  0  0  0
 33 34  2  0  0  0  0
 34 35  1  0  0  0  0
 34 52  1  0  0  0  0
 35 36  2  0  0  0  0
 35 53  1  0  0  0  0
 36 37  1  0  0  0  0
 36 54  1  0  0  0  0
 37 38  2  0  0  0  0
 37 55  1  0  0  0  0
 38 56  1  0  0  0  0
M  CHG  1   3  -1
M  END
> <s_m_source_file>
AV-unprocessed.smi

> <i_m_source_file_index>
1

> <i_lp_mmshare_version>
43012

> <i_f3d_flags>
0

> <s_epik_input>
W2NIXTFbY0hdW2NIXVtjSF1bY0hdYzFDKD1PKVtOSF1jKG5bY0hdbjIpYyhjMjMpbltjSF1uM1tDQEBIXShbQ0BIXShbQ0BIXTQ1KU9TKE81KSg9Tyk9TylPW0NASF00W0NIMl1PQyg9TyljNltjSF1bY0hdW2NIXVtjSF1bY0hdNg==

> <s_epik_cmdline>
J2VwaWtfcHl0aG9uJywgJy1waCcsICc3LjAnLCAnLXRuJywgJzgnLCAnLW1hJywgJzIwMCcsICctbWV0YWxfYmluZGluZycsICctaW1hZScsICc8aW5maWxlLm1hZT4nLCAnLW9tYWUnLCAnPG91dGZpbGUubWFlPic=

> <r_lp_tautomer_probability>
1

> <r_epik_Ionization_Penalty>
4.39121

> <r_epik_Ionization_Penalty_Charging>
3.39398

> <r_epik_Ionization_Penalty_Neutral>
0.997232

> <r_epik_State_Penalty>
3.39839

> <r_epik_Charging_Adjusted_Penalty>
6.79237

> <i_epik_Tot_Q>
-1

> <i_epik_Tot_abs_Q>
1

> <r_epik_Metal_State_Penalty>
0.497663

> <b_epik_Metal_Only>
1

> <s_epik_Chemistry_Notes>
This compound has an ester and may undergo hydrolysis at high or low pH. This compound contains an acetal/aminal-like group ( X-CH(R)-Y where X, Y are N, S, or O) that may be acid/base labile, releasing an aldehyde.

> <s_lp_Force_Field>
OPLS_2005

> <r_lp_Energy>
42.9132

> <b_lp_Chiralities_Consistent>
1

> <s_lp_Variant>
AV-unprocessed.smi:1-17

> <Gold.Version>
5.8.1

> <Gold.Id.Protein>
6NUR|6NUR_protein|mol2

> <Gold.PLP.Fitness>
64.3768

> <Gold.PLP.PLP>
-53.7267

> <Gold.PLP.part.hbond>
-3.8411

> <Gold.PLP.part.metal>
0.0000

> <Gold.PLP.part.buried>
-4.2038

> <Gold.PLP.part.nonpolar>
-46.1591

> <Gold.PLP.part.repulsive>
0.1558

> <Gold.PLP.ligand.clash>
0.0000

> <Gold.PLP.ligand.torsion>
1.9829

> <Gold.PLP.Chemscore.Hbond>
3.7160

> <Gold.PLP.Chemscore.CHOScore>
1.0000

> <Gold.PLP.Chemscore.Metal>
0.0000

> <Gold.Chemscore.Hbonds>
donor molecule, donor type, donor heavy atom, donor atom, acceptor molecule, acceptor atom, score
      P1  H  6896  6909       L1    29  0.09
      P1  H  7989  7998       L1    10  0.50
      P1  H  7997  8008       L1     3  1.60
      L1  C    11    40       P1  7957  1.00

> <Gold.PLP.Chemscore.Internal.Correction>
0.4679

> <Gold.Rescore>
     Score         DG    S(hbond)    S(metal)    S(lipo)     H(rot)  DE(clash)    DE(int)     intcor
     14.77     -22.32       2.19        0.00     127.58       2.11       0.31       7.24       ----

> <Gold.Chemscore.Fitness>
14.7727

> <Gold.Chemscore.DG>
-22.3179

> <Gold.Chemscore.ZeroCoef>
-5.4800

> <Gold.Chemscore.Hbond>
2.1921

> <Gold.Chemscore.Metal>
0.0000

> <Gold.Chemscore.Lipo>
127.5812

> <Gold.Chemscore.Internal_Hbond>
0.0000

> <Gold.Chemscore.DEClash>
0.3050

> <Gold.Chemscore.DEInternal>
7.2402

> <Gold.Chemscore.Rot>
2.1136

> <Gold.Chemscore.Internal.Correction>
   9.000000E+99

> <Gold.Chemscore.Hbonds>
donor molecule, donor type, donor heavy atom, donor atom, acceptor molecule, acceptor atom, score
      P1  H  6896  6909       L1    29  0.09
      P1  H  7989  7998       L1    10  0.02
      P1  H  7997  8008       L1     3  0.15

> <Gold.Chemscore.Hbond.Weighted>
-7.3216

> <Gold.Chemscore.Metal.Weighted>
-0.0000

> <Gold.Chemscore.Lipo.Weighted>
-14.9270

> <Gold.Chemscore.Internal_Hbond.Weighted>
0.0000

> <Gold.Chemscore.DEClash.Weighted>
0.3050

> <Gold.Chemscore.DEInternal.Weighted>
7.2402

> <Gold.Chemscore.Rot.Weighted>
5.4107

> <Gold.Chemscore.Internal.Correction.Weighted>
   9.000000E+99

> <Gold.Protein.RotatedTorsions>
[ 6907 6896 6895 6894 ] final   43.54 input  -60.11 | X-H torsion
[ 7974 7965 7964 7962 ] final -140.46 input  175.53 | X-H torsion
[ 8008 7997 7996 7995 ] final  -67.76 input   59.86 | X-H torsion
[ 10167 10162 10161 10158 ] final -103.05 input  -65.29 | X-H torsion
[ 10718 10713 10712 10709 ] final  -15.93 input   66.30 | X-H torsion
[ 10763 10752 10751 10750 ] final   33.04 input  -60.55 | X-H torsion
[ 11005 11000 10999 10996 ] final   86.11 input  -57.11 | X-H torsion

> <Gold.Protein.ActiveResidues>
 VAL166  LYS551  ARG553  GLY616  TRP617  ASP618  TYR619  PRO620  LYS621  CYS622 
 ASP623  PHE694  ASN695  SER759  ASP760  ASP761  ALA762  ILE779  LEU786  VAL792 
 PHE793  MET794  SER795  GLU796  ALA797  LYS798  CYS799  TRP800  GLU811  SER814 

> <Gold.Protein.RotatedAtoms>
  152.2215  134.8408  160.0485 H   0  0  0  0  0  0  0  0  0  0  0  0  # atno 6907 bound_to 6896
  151.9190  133.3575  159.3898 H   0  0  0  0  0  0  0  0  0  0  0  0  # atno 6908 bound_to 6896
  150.7001  134.4580  159.5411 H   0  0  0  0  0  0  0  0  0  0  0  0  # atno 6909 bound_to 6896
  144.8596  140.6197  143.5337 H   0  0  0  0  0  0  0  0  0  0  0  0  # atno 7974 bound_to 7965
  154.4822  140.0886  156.7403 H   0  0  0  0  0  0  0  0  0  0  0  0  # atno 8008 bound_to 7997
  155.4442  140.3455  155.4275 H   0  0  0  0  0  0  0  0  0  0  0  0  # atno 8009 bound_to 7997
  156.1208  140.1473  156.9195 H   0  0  0  0  0  0  0  0  0  0  0  0  # atno 8010 bound_to 7997
  140.2241  143.3654  152.0944 H   0  0  0  0  0  0  0  0  0  0  0  0  # atno 10167 bound_to 10162
  156.5947  130.4808  149.6264 H   0  0  0  0  0  0  0  0  0  0  0  0  # atno 10718 bound_to 10713
  153.0232  135.6397  154.1449 H   0  0  0  0  0  0  0  0  0  0  0  0  # atno 10763 bound_to 10752
  154.1181  135.2848  155.3216 H   0  0  0  0  0  0  0  0  0  0  0  0  # atno 10764 bound_to 10752
  154.6283  135.5501  153.7714 H   0  0  0  0  0  0  0  0  0  0  0  0  # atno 10765 bound_to 10752
  139.8953  134.8333  156.2676 H   0  0  0  0  0  0  0  0  0  0  0  0  # atno 11005 bound_to 11000
  145.4339  139.1545  143.4007 LP  0  0  0  0  0  0  0  0  0  0  0  0  # atno 17320 bound_to 7965
  146.2850  140.4457  142.8761 LP  0  0  0  0  0  0  0  0  0  0  0  0  # atno 17321 bound_to 7965
  139.5133  144.6931  151.5706 LP  0  0  0  0  0  0  0  0  0  0  0  0  # atno 17342 bound_to 10162
  140.6233  143.9216  150.6544 LP  0  0  0  0  0  0  0  0  0  0  0  0  # atno 17343 bound_to 10162
  156.2520  130.6912  151.1653 LP  0  0  0  0  0  0  0  0  0  0  0  0  # atno 17370 bound_to 10713
  157.7295  131.0624  150.5772 LP  0  0  0  0  0  0  0  0  0  0  0  0  # atno 17371 bound_to 10713
  141.0122  133.7089  156.1130 LP  0  0  0  0  0  0  0  0  0  0  0  0  # atno 17394 bound_to 11000
  140.7351  134.4211  157.5561 LP  0  0  0  0  0  0  0  0  0  0  0  0  # atno 17395 bound_to 11000

$$$$
