AV-unprocessed.smi:40|AV-procd|sdf|374|dock3
  -GOLD-   2262016223D 1   1.00000     0.00000
 Structure written by MMmdl.
 47 48  0  0  0  0  0  0  0  0  1 V2000
  151.8064  144.9992  157.8938 C   0  0  0  0  0  0  0  0  0  0  0  0
  151.3858  144.2833  159.1841 C   0  0  0  0  0  0  0  0  0  0  0  0
  151.4346  142.7497  159.0880 C   0  0  0  0  0  0  0  0  0  0  0  0
  152.8507  142.1860  158.8744 C   0  0  0  0  0  0  0  0  0  0  0  0
  152.9280  140.6676  159.0823 C   0  0  0  0  0  0  0  0  0  0  0  0
  152.4310  140.0108  157.9284 O   0  0  0  0  0  0  0  0  0  0  0  0
  151.7285  138.8694  158.0407 C   0  0  0  0  0  0  0  0  0  0  0  0
  151.3521  138.3958  159.1125 O   0  0  0  0  0  0  0  0  0  0  0  0
  151.4417  138.2873  156.7390 N   0  0  0  0  0  0  0  0  0  0  0  0
  150.7646  137.1518  156.4371 C   0  0  0  0  0  0  0  0  0  0  0  0
  150.4935  136.2186  157.3370 N   0  0  0  0  0  0  0  0  0  0  0  0
  149.8012  135.0690  157.0675 C   0  0  0  0  0  0  0  0  0  0  0  0
  149.6065  134.2330  157.9485 O   0  0  0  0  0  0  0  0  0  0  0  0
  149.3388  134.8890  155.7428 N   0  0  0  0  0  0  0  0  0  0  0  0
  148.5497  133.6504  155.3802 C   0  0  1  0  0  0  0  0  0  0  0  0
  147.5822  134.0221  154.4477 O   0  0  0  0  0  0  0  0  0  0  0  0
  147.4660  133.0046  153.4660 C   0  0  1  0  0  0  0  0  0  0  0  0
  146.8894  133.5875  152.1708 C   0  0  0  0  0  0  0  0  0  0  0  0
  148.8893  132.4592  153.3299 C   0  0  2  0  0  0  0  0  0  0  0  0
  148.8618  131.1244  152.8655 O   0  0  0  0  0  0  0  0  0  0  0  0
  149.4176  132.5306  154.7583 C   0  0  1  0  0  0  0  0  0  0  0  0
  150.8111  132.7862  154.7716 O   0  0  0  0  0  0  0  0  0  0  0  0
  149.5944  135.8610  154.7879 C   0  0  0  0  0  0  0  0  0  0  0  0
  150.2850  136.9833  155.0818 C   0  0  0  0  0  0  0  0  0  0  0  0
  150.5196  137.9116  154.1382 F   0  0  0  0  0  0  0  0  0  0  0  0
  148.0331  133.3178  156.2811 H   0  0  0  0  0  0  0  0  0  0  0  0
  146.8015  132.2345  153.8625 H   0  0  0  0  0  0  0  0  0  0  0  0
  149.4775  133.0908  152.6617 H   0  0  0  0  0  0  0  0  0  0  0  0
  149.2081  131.6089  155.3031 H   0  0  0  0  0  0  0  0  0  0  0  0
  151.6893  146.0781  157.9963 H   0  0  0  0  0  0  0  0  0  0  0  0
  151.1969  144.6784  157.0486 H   0  0  0  0  0  0  0  0  0  0  0  0
  152.8506  144.8063  157.6495 H   0  0  0  0  0  0  0  0  0  0  0  0
  152.0072  144.6222  160.0138 H   0  0  0  0  0  0  0  0  0  0  0  0
  150.3666  144.5838  159.4291 H   0  0  0  0  0  0  0  0  0  0  0  0
  151.0234  142.3392  160.0109 H   0  0  0  0  0  0  0  0  0  0  0  0
  150.7758  142.4098  158.2882 H   0  0  0  0  0  0  0  0  0  0  0  0
  153.1834  142.4115  157.8616 H   0  0  0  0  0  0  0  0  0  0  0  0
  153.5531  142.6807  159.5463 H   0  0  0  0  0  0  0  0  0  0  0  0
  153.9572  140.3628  159.2766 H   0  0  0  0  0  0  0  0  0  0  0  0
  152.3301  140.3800  159.9480 H   0  0  0  0  0  0  0  0  0  0  0  0
  151.8308  138.8035  155.9634 H   0  0  0  0  0  0  0  0  0  0  0  0
  146.8104  132.8220  151.3987 H   0  0  0  0  0  0  0  0  0  0  0  0
  147.5175  134.3906  151.7844 H   0  0  0  0  0  0  0  0  0  0  0  0
  145.8928  133.9959  152.3387 H   0  0  0  0  0  0  0  0  0  0  0  0
  149.0376  131.1252  151.9371 H   0  0  0  0  0  0  0  0  0  0  0  0
  151.0931  132.8594  155.6704 H   0  0  0  0  0  0  0  0  0  0  0  0
  149.2377  135.7245  153.7771 H   0  0  0  0  0  0  0  0  0  0  0  0
  1  2  1  0  0  0  0
  1 30  1  0  0  0  0
  1 31  1  0  0  0  0
  1 32  1  0  0  0  0
  2  3  1  0  0  0  0
  2 33  1  0  0  0  0
  2 34  1  0  0  0  0
  3  4  1  0  0  0  0
  3 35  1  0  0  0  0
  3 36  1  0  0  0  0
  4  5  1  0  0  0  0
  4 37  1  0  0  0  0
  4 38  1  0  0  0  0
  5  6  1  0  0  0  0
  5 39  1  0  0  0  0
  5 40  1  0  0  0  0
  6  7  1  0  0  0  0
  7  8  2  0  0  0  0
  7  9  1  0  0  0  0
  9 10  1  0  0  0  0
  9 41  1  0  0  0  0
 10 24  1  0  0  0  0
 10 11  2  0  0  0  0
 11 12  1  0  0  0  0
 12 13  2  0  0  0  0
 12 14  1  0  0  0  0
 14 15  1  0  0  0  0
 14 23  1  0  0  0  0
 15 26  1  0  0  0  0
 15 21  1  0  0  0  0
 15 16  1  0  0  0  0
 16 17  1  0  0  0  0
 17 27  1  0  0  0  0
 17 18  1  0  0  0  0
 17 19  1  0  0  0  0
 18 42  1  0  0  0  0
 18 43  1  0  0  0  0
 18 44  1  0  0  0  0
 19 28  1  0  0  0  0
 19 20  1  0  0  0  0
 19 21  1  0  0  0  0
 20 45  1  0  0  0  0
 21 29  1  0  0  0  0
 21 22  1  0  0  0  0
 22 46  1  0  0  0  0
 23 24  2  0  0  0  0
 23 47  1  0  0  0  0
 24 25  1  0  0  0  0
M  END
> <s_m_source_file>
AV-unprocessed.smi

> <i_m_source_file_index>
40

> <i_lp_mmshare_version>
43012

> <i_f3d_flags>
0

> <s_epik_input>
W0NIM11bQ0gyXVtDSDJdW0NIMl1bQ0gyXU9DKD1PKVtOSF1jMW5jKD1PKW4oW2NIXWMxRilbQ0BASF0yT1tDQEhdKFtDSDNdKVtDQEBIXShbT0hdKVtDQEhdMltPSF0=

> <s_epik_cmdline>
J2VwaWtfcHl0aG9uJywgJy1waCcsICc3LjAnLCAnLXRuJywgJzgnLCAnLW1hJywgJzIwMCcsICctbWV0YWxfYmluZGluZycsICctaW1hZScsICc8aW5maWxlLm1hZT4nLCAnLW9tYWUnLCAnPG91dGZpbGUubWFlPic=

> <r_lp_tautomer_probability>
1

> <r_epik_Ionization_Penalty>
2.29506e-06

> <r_epik_Ionization_Penalty_Charging>
8.26867e-09

> <r_epik_Ionization_Penalty_Neutral>
2.2868e-06

> <r_epik_State_Penalty>
-0

> <r_epik_Charging_Adjusted_Penalty>
8.26867e-09

> <i_epik_Tot_Q>
0

> <i_epik_Tot_abs_Q>
0

> <r_epik_Metal_State_Penalty>
-0

> <b_epik_Metal_Only>
0

> <s_epik_Chemistry_Notes>
This compound has an ester and may undergo hydrolysis at high or low pH. This compound contains an acetal/aminal-like group ( X-CH(R)-Y where X, Y are N, S, or O) that may be acid/base labile, releasing an aldehyde.

> <s_lp_Force_Field>
OPLS_2005

> <r_lp_Energy>
36.5799

> <b_lp_Chiralities_Consistent>
1

> <s_lp_Variant>
AV-unprocessed.smi:40-8

> <Gold.Version>
5.8.1

> <Gold.Id.Protein>
6NUR|6NUR_protein|mol2

> <Gold.PLP.Fitness>
45.2098

> <Gold.PLP.PLP>
-38.2573

> <Gold.PLP.part.hbond>
-2.7811

> <Gold.PLP.part.metal>
0.0000

> <Gold.PLP.part.buried>
-3.3372

> <Gold.PLP.part.nonpolar>
-31.8054

> <Gold.PLP.part.repulsive>
0.1358

> <Gold.PLP.ligand.clash>
0.0000

> <Gold.PLP.ligand.torsion>
1.1687

> <Gold.PLP.Chemscore.Hbond>
2.0000

> <Gold.PLP.Chemscore.CHOScore>
0.9991

> <Gold.PLP.Chemscore.Metal>
0.0000

> <Gold.Chemscore.Hbonds>
donor molecule, donor type, donor heavy atom, donor atom, acceptor molecule, acceptor atom, score
      L1  H    20    45       P1 10747  1.00
      P1  H  6896  6908       L1    13  1.00
      L1  C    23    47       P1  7948  0.86

> <Gold.PLP.Chemscore.Internal.Correction>
0.2927

> <Gold.Rescore>
     Score         DG    S(hbond)    S(metal)    S(lipo)     H(rot)  DE(clash)    DE(int)     intcor
      9.50     -11.69       2.00        0.00      76.96       3.70       0.10       2.10       ----

> <Gold.Chemscore.Fitness>
9.4955

> <Gold.Chemscore.DG>
-11.6895

> <Gold.Chemscore.ZeroCoef>
-5.4800

> <Gold.Chemscore.Hbond>
1.9959

> <Gold.Chemscore.Metal>
0.0000

> <Gold.Chemscore.Lipo>
76.9590

> <Gold.Chemscore.Internal_Hbond>
0.0000

> <Gold.Chemscore.DEClash>
0.0953

> <Gold.Chemscore.DEInternal>
2.0987

> <Gold.Chemscore.Rot>
3.6957

> <Gold.Chemscore.Internal.Correction>
   9.000000E+99

> <Gold.Chemscore.Hbonds>
donor molecule, donor type, donor heavy atom, donor atom, acceptor molecule, acceptor atom, score
      L1  H    20    45       P1 10747  0.50
      P1  H  6896  6908       L1    13  0.95

> <Gold.Chemscore.Hbond.Weighted>
-6.6663

> <Gold.Chemscore.Metal.Weighted>
-0.0000

> <Gold.Chemscore.Lipo.Weighted>
-9.0042

> <Gold.Chemscore.Internal_Hbond.Weighted>
0.0000

> <Gold.Chemscore.DEClash.Weighted>
0.0953

> <Gold.Chemscore.DEInternal.Weighted>
2.0987

> <Gold.Chemscore.Rot.Weighted>
9.4610

> <Gold.Chemscore.Internal.Correction.Weighted>
   9.000000E+99

> <Gold.Protein.RotatedTorsions>
[ 6907 6896 6895 6894 ] final  148.61 input  -60.11 | X-H torsion
[ 7974 7965 7964 7962 ] final    7.41 input  175.53 | X-H torsion
[ 8008 7997 7996 7995 ] final  166.72 input   59.86 | X-H torsion
[ 10167 10162 10161 10158 ] final -150.98 input  -65.29 | X-H torsion
[ 10718 10713 10712 10709 ] final -136.45 input   66.30 | X-H torsion
[ 10763 10752 10751 10750 ] final  -70.79 input  -60.55 | X-H torsion
[ 11005 11000 10999 10996 ] final  -79.67 input  -57.11 | X-H torsion

> <Gold.Protein.ActiveResidues>
 VAL166  LYS551  ARG553  GLY616  TRP617  ASP618  TYR619  PRO620  LYS621  CYS622 
 ASP623  PHE694  ASN695  SER759  ASP760  ASP761  ALA762  ILE779  LEU786  VAL792 
 PHE793  MET794  SER795  GLU796  ALA797  LYS798  CYS799  TRP800  GLU811  SER814 

> <Gold.Protein.RotatedAtoms>
  152.1392  133.4453  159.4758 H   0  0  0  0  0  0  0  0  0  0  0  0  # atno 6907 bound_to 6896
  150.6884  134.2326  159.4450 H   0  0  0  0  0  0  0  0  0  0  0  0  # atno 6908 bound_to 6896
  152.0216  134.9819  160.0621 H   0  0  0  0  0  0  0  0  0  0  0  0  # atno 6909 bound_to 6896
  146.2427  140.0088  142.8408 H   0  0  0  0  0  0  0  0  0  0  0  0  # atno 7974 bound_to 7965
  156.1695  140.1636  156.8473 H   0  0  0  0  0  0  0  0  0  0  0  0  # atno 8008 bound_to 7997
  154.5242  140.0771  156.8262 H   0  0  0  0  0  0  0  0  0  0  0  0  # atno 8009 bound_to 7997
  155.3542  140.3391  155.4242 H   0  0  0  0  0  0  0  0  0  0  0  0  # atno 8010 bound_to 7997
  139.7307  143.8813  152.2533 H   0  0  0  0  0  0  0  0  0  0  0  0  # atno 10167 bound_to 10162
  156.2772  130.7299  151.1285 H   0  0  0  0  0  0  0  0  0  0  0  0  # atno 10718 bound_to 10713
  154.4227  135.5983  153.6019 H   0  0  0  0  0  0  0  0  0  0  0  0  # atno 10763 bound_to 10752
  152.9794  135.5956  154.3936 H   0  0  0  0  0  0  0  0  0  0  0  0  # atno 10764 bound_to 10752
  154.3763  135.2841  155.2216 H   0  0  0  0  0  0  0  0  0  0  0  0  # atno 10765 bound_to 10752
  141.1667  133.7116  156.8157 H   0  0  0  0  0  0  0  0  0  0  0  0  # atno 11005 bound_to 11000
  145.1347  140.9538  143.4524 LP  0  0  0  0  0  0  0  0  0  0  0  0  # atno 17320 bound_to 7965
  145.0354  139.3305  143.6004 LP  0  0  0  0  0  0  0  0  0  0  0  0  # atno 17321 bound_to 7965
  139.8735  144.7055  150.8959 LP  0  0  0  0  0  0  0  0  0  0  0  0  # atno 17342 bound_to 10162
  140.7770  143.3718  151.1635 LP  0  0  0  0  0  0  0  0  0  0  0  0  # atno 17343 bound_to 10162
  157.7303  131.0617  150.5734 LP  0  0  0  0  0  0  0  0  0  0  0  0  # atno 17370 bound_to 10713
  156.5836  130.4311  149.5967 LP  0  0  0  0  0  0  0  0  0  0  0  0  # atno 17371 bound_to 10713
  140.2155  134.8795  157.3321 LP  0  0  0  0  0  0  0  0  0  0  0  0  # atno 17394 bound_to 11000
  140.2042  134.4218  155.7647 LP  0  0  0  0  0  0  0  0  0  0  0  0  # atno 17395 bound_to 11000

$$$$
