AV-unprocessed.smi:2970|AV-procd|sdf|11331|dock2
  -GOLD-   2272016243D 1   1.00000     0.00000
 Structure written by MMmdl.
 38 39  0  0  0  0  0  0  0  0  1 V2000
  147.7387  139.9579  154.6874 C   0  0  0  0  0  0  0  0  0  0  0  0
  149.0766  139.4333  155.1794 C   0  0  0  0  0  0  0  0  0  0  0  0
  149.5658  138.2106  154.9480 C   0  0  0  0  0  0  0  0  0  0  0  0
  151.1186  137.9500  155.7041 S   0  0  0  0  0  0  0  0  0  0  0  0
  151.0805  139.6191  156.3777 C   0  0  0  0  0  0  0  0  0  0  0  0
  151.9836  140.0773  157.0759 O   0  0  0  0  0  0  0  0  0  0  0  0
  149.9019  140.2442  155.9714 N   0  0  0  0  0  0  0  0  0  0  0  0
  149.5664  141.6256  156.3419 C   0  0  0  0  0  0  0  0  0  0  0  0
  150.1771  142.0621  157.6803 C   0  0  0  0  0  0  0  0  0  0  0  0
  149.5123  142.0499  158.7176 O   0  0  0  0  0  0  0  0  0  0  0  0
  151.4578  142.4602  157.6334 N   0  0  0  0  0  0  0  0  0  0  0  0
  152.2472  142.9201  158.7738 C   0  0  0  0  0  0  0  0  0  0  0  0
  152.8018  141.6991  159.5376 C   0  0  0  0  0  0  0  0  0  0  0  0
  153.6267  142.0292  160.7934 C   0  0  0  0  0  0  0  0  0  0  0  0
  152.7560  142.4856  161.9748 C   0  0  0  0  0  0  0  0  0  0  0  0
  152.4270  143.9883  162.0113 C   0  0  0  0  0  0  0  0  0  0  0  0
  152.1846  144.6738  160.6553 C   0  0  0  0  0  0  0  0  0  0  0  0
  151.3744  143.8585  159.6332 C   0  0  0  0  0  0  0  0  0  0  0  0
  147.0998  139.1314  154.3754 H   0  0  0  0  0  0  0  0  0  0  0  0
  147.8816  140.6174  153.8314 H   0  0  0  0  0  0  0  0  0  0  0  0
  147.2073  140.5035  155.4673 H   0  0  0  0  0  0  0  0  0  0  0  0
  149.0901  137.4288  154.3747 H   0  0  0  0  0  0  0  0  0  0  0  0
  149.9229  142.3056  155.5665 H   0  0  0  0  0  0  0  0  0  0  0  0
  148.4859  141.7661  156.3722 H   0  0  0  0  0  0  0  0  0  0  0  0
  151.9252  142.4397  156.7385 H   0  0  0  0  0  0  0  0  0  0  0  0
  153.0876  143.5027  158.3913 H   0  0  0  0  0  0  0  0  0  0  0  0
  151.9862  141.0259  159.8051 H   0  0  0  0  0  0  0  0  0  0  0  0
  153.4393  141.1287  158.8606 H   0  0  0  0  0  0  0  0  0  0  0  0
  154.1455  141.1181  161.0937 H   0  0  0  0  0  0  0  0  0  0  0  0
  154.4090  142.7567  160.5735 H   0  0  0  0  0  0  0  0  0  0  0  0
  151.8305  141.9086  161.9855 H   0  0  0  0  0  0  0  0  0  0  0  0
  153.2613  142.2309  162.9072 H   0  0  0  0  0  0  0  0  0  0  0  0
  151.5508  144.1287  162.6454 H   0  0  0  0  0  0  0  0  0  0  0  0
  153.2374  144.5172  162.5142 H   0  0  0  0  0  0  0  0  0  0  0  0
  151.6654  145.6135  160.8472 H   0  0  0  0  0  0  0  0  0  0  0  0
  153.1396  144.9624  160.2147 H   0  0  0  0  0  0  0  0  0  0  0  0
  150.8843  144.5696  158.9665 H   0  0  0  0  0  0  0  0  0  0  0  0
  150.5699  143.3096  160.1249 H   0  0  0  0  0  0  0  0  0  0  0  0
  1  2  1  0  0  0  0
  1 19  1  0  0  0  0
  1 20  1  0  0  0  0
  1 21  1  0  0  0  0
  2  7  1  0  0  0  0
  2  3  2  0  0  0  0
  3  4  1  0  0  0  0
  3 22  1  0  0  0  0
  4  5  1  0  0  0  0
  5  6  2  0  0  0  0
  5  7  1  0  0  0  0
  7  8  1  0  0  0  0
  8  9  1  0  0  0  0
  8 23  1  0  0  0  0
  8 24  1  0  0  0  0
  9 10  2  0  0  0  0
  9 11  1  0  0  0  0
 11 12  1  0  0  0  0
 11 25  1  0  0  0  0
 12 18  1  0  0  0  0
 12 13  1  0  0  0  0
 12 26  1  0  0  0  0
 13 14  1  0  0  0  0
 13 27  1  0  0  0  0
 13 28  1  0  0  0  0
 14 15  1  0  0  0  0
 14 29  1  0  0  0  0
 14 30  1  0  0  0  0
 15 16  1  0  0  0  0
 15 31  1  0  0  0  0
 15 32  1  0  0  0  0
 16 17  1  0  0  0  0
 16 33  1  0  0  0  0
 16 34  1  0  0  0  0
 17 18  1  0  0  0  0
 17 35  1  0  0  0  0
 17 36  1  0  0  0  0
 18 37  1  0  0  0  0
 18 38  1  0  0  0  0
M  END
> <s_m_source_file>
AV-unprocessed.smi

> <i_m_source_file_index>
2970

> <i_lp_mmshare_version>
43012

> <i_f3d_flags>
0

> <s_epik_input>
W0NIM11jMVtjSF1zYyg9TyluMVtDSDJdQyg9TylbTkhdW0NIXTJbQ0gyXVtDSDJdW0NIMl1bQ0gyXVtDSDJdW0NIMl0y

> <s_epik_cmdline>
J2VwaWtfcHl0aG9uJywgJy1waCcsICc3LjAnLCAnLXRuJywgJzgnLCAnLW1hJywgJzIwMCcsICctbWV0YWxfYmluZGluZycsICctaW1hZScsICc8aW5maWxlLm1hZT4nLCAnLW9tYWUnLCAnPG91dGZpbGUubWFlPic=

> <r_lp_tautomer_probability>
1

> <r_epik_Ionization_Penalty>
1.32564e-06

> <r_epik_Ionization_Penalty_Charging>
1.22505e-06

> <r_epik_Ionization_Penalty_Neutral>
1.00582e-07

> <r_epik_State_Penalty>
-0

> <r_epik_Charging_Adjusted_Penalty>
1.22505e-06

> <i_epik_Tot_Q>
0

> <i_epik_Tot_abs_Q>
0

> <r_epik_Metal_State_Penalty>
-0

> <b_epik_Metal_Only>
0

> <s_lp_Force_Field>
OPLS_2005

> <r_lp_Energy>
18.3304

> <b_lp_Chiralities_Consistent>
1

> <s_lp_Variant>
AV-unprocessed.smi:2970-1

> <Gold.Version>
5.8.1

> <Gold.Id.Protein>
6NUR|6NUR_protein|mol2

> <Gold.PLP.Fitness>
47.2922

> <Gold.PLP.PLP>
-43.1778

> <Gold.PLP.part.hbond>
-1.0000

> <Gold.PLP.part.metal>
0.0000

> <Gold.PLP.part.buried>
-0.5133

> <Gold.PLP.part.nonpolar>
-40.9735

> <Gold.PLP.part.repulsive>
0.1309

> <Gold.PLP.ligand.clash>
0.0000

> <Gold.PLP.ligand.torsion>
0.9514

> <Gold.PLP.Chemscore.Hbond>
1.0000

> <Gold.PLP.Chemscore.CHOScore>
1.0000

> <Gold.PLP.Chemscore.Metal>
0.0000

> <Gold.Chemscore.Hbonds>
donor molecule, donor type, donor heavy atom, donor atom, acceptor molecule, acceptor atom, score
      P1  H  7997  8008       L1     6  0.02
      L1  C     3    22       P1  7948  0.40

> <Gold.PLP.Chemscore.Internal.Correction>
0.0172

> <Gold.Rescore>
     Score         DG    S(hbond)    S(metal)    S(lipo)     H(rot)  DE(clash)    DE(int)     intcor
     13.96     -18.33       0.99        0.00     112.15       1.40       1.43       2.94       ----

> <Gold.Chemscore.Fitness>
13.9593

> <Gold.Chemscore.DG>
-18.3264

> <Gold.Chemscore.ZeroCoef>
-5.4800

> <Gold.Chemscore.Hbond>
0.9883

> <Gold.Chemscore.Metal>
0.0000

> <Gold.Chemscore.Lipo>
112.1493

> <Gold.Chemscore.Internal_Hbond>
0.0000

> <Gold.Chemscore.DEClash>
1.4288

> <Gold.Chemscore.DEInternal>
2.9382

> <Gold.Chemscore.Rot>
1.3969

> <Gold.Chemscore.Internal.Correction>
   9.000000E+99

> <Gold.Chemscore.Hbonds>
donor molecule, donor type, donor heavy atom, donor atom, acceptor molecule, acceptor atom, score
      P1  H  7997  8008       L1     6  0.07

> <Gold.Chemscore.Hbond.Weighted>
-3.3010

> <Gold.Chemscore.Metal.Weighted>
-0.0000

> <Gold.Chemscore.Lipo.Weighted>
-13.1215

> <Gold.Chemscore.Internal_Hbond.Weighted>
0.0000

> <Gold.Chemscore.DEClash.Weighted>
1.4288

> <Gold.Chemscore.DEInternal.Weighted>
2.9382

> <Gold.Chemscore.Rot.Weighted>
3.5761

> <Gold.Chemscore.Internal.Correction.Weighted>
   9.000000E+99

> <Gold.Protein.RotatedTorsions>
[ 6907 6896 6895 6894 ] final   31.17 input  -60.11 | X-H torsion
[ 7974 7965 7964 7962 ] final  138.04 input  175.53 | X-H torsion
[ 8008 7997 7996 7995 ] final  -54.31 input   59.86 | X-H torsion
[ 10167 10162 10161 10158 ] final   50.17 input  -65.29 | X-H torsion
[ 10718 10713 10712 10709 ] final -164.56 input   66.30 | X-H torsion
[ 10763 10752 10751 10750 ] final -115.34 input  -60.55 | X-H torsion
[ 11005 11000 10999 10996 ] final  -79.14 input  -57.11 | X-H torsion

> <Gold.Protein.ActiveResidues>
 VAL166  LYS551  ARG553  GLY616  TRP617  ASP618  TYR619  PRO620  LYS621  CYS622 
 ASP623  PHE694  ASN695  SER759  ASP760  ASP761  ALA762  ILE779  LEU786  VAL792 
 PHE793  MET794  SER795  GLU796  ALA797  LYS798  CYS799  TRP800  GLU811  SER814 

> <Gold.Protein.RotatedAtoms>
  152.0565  134.9621  160.0574 H   0  0  0  0  0  0  0  0  0  0  0  0  # atno 6907 bound_to 6896
  152.1001  133.4240  159.4591 H   0  0  0  0  0  0  0  0  0  0  0  0  # atno 6908 bound_to 6896
  150.6839  134.2689  159.4623 H   0  0  0  0  0  0  0  0  0  0  0  0  # atno 6909 bound_to 6896
  144.9410  139.4931  143.5572 H   0  0  0  0  0  0  0  0  0  0  0  0  # atno 7974 bound_to 7965
  154.4159  140.1179  156.5295 H   0  0  0  0  0  0  0  0  0  0  0  0  # atno 8008 bound_to 7997
  155.6620  140.3496  155.4767 H   0  0  0  0  0  0  0  0  0  0  0  0  # atno 8009 bound_to 7997
  155.9705  140.1140  157.0806 H   0  0  0  0  0  0  0  0  0  0  0  0  # atno 8010 bound_to 7997
  140.2752  144.3219  150.6279 H   0  0  0  0  0  0  0  0  0  0  0  0  # atno 10167 bound_to 10162
  156.6407  130.8968  151.2995 H   0  0  0  0  0  0  0  0  0  0  0  0  # atno 10718 bound_to 10713
  154.8477  135.4385  154.1647 H   0  0  0  0  0  0  0  0  0  0  0  0  # atno 10763 bound_to 10752
  153.2775  135.6950  153.7424 H   0  0  0  0  0  0  0  0  0  0  0  0  # atno 10764 bound_to 10752
  153.6641  135.3430  155.3110 H   0  0  0  0  0  0  0  0  0  0  0  0  # atno 10765 bound_to 10752
  141.1667  133.7093  156.8077 H   0  0  0  0  0  0  0  0  0  0  0  0  # atno 11005 bound_to 11000
  146.3285  139.8429  142.8887 LP  0  0  0  0  0  0  0  0  0  0  0  0  # atno 17320 bound_to 7965
  145.2991  141.0189  143.3619 LP  0  0  0  0  0  0  0  0  0  0  0  0  # atno 17321 bound_to 7965
  140.5857  143.2170  151.7347 LP  0  0  0  0  0  0  0  0  0  0  0  0  # atno 17342 bound_to 10162
  139.4977  144.4015  152.0177 LP  0  0  0  0  0  0  0  0  0  0  0  0  # atno 17343 bound_to 10162
  157.7172  130.9512  150.1298 LP  0  0  0  0  0  0  0  0  0  0  0  0  # atno 17370 bound_to 10713
  156.2161  130.3670  149.8612 LP  0  0  0  0  0  0  0  0  0  0  0  0  # atno 17371 bound_to 10713
  140.2210  134.8757  157.3377 LP  0  0  0  0  0  0  0  0  0  0  0  0  # atno 17394 bound_to 11000
  140.1988  134.4280  155.7674 LP  0  0  0  0  0  0  0  0  0  0  0  0  # atno 17395 bound_to 11000

$$$$
