AV-unprocessed.smi:1767|AV-procd|sdf|7139|dock7
  -GOLD-   22720 8373D 1   1.00000     0.00000
 Structure written by MMmdl.
 32 34  0  0  0  0  0  0  0  0  1 V2000
  151.3914  144.0283  156.8589 O   0  0  0  0  0  0  0  0  0  0  0  0
  151.4650  142.8541  157.6411 C   0  0  2  0  0  0  0  0  0  0  0  0
  150.1204  142.1098  157.5231 C   0  0  0  0  0  0  0  0  0  0  0  0
  150.1433  141.0994  156.4807 N   0  0  0  0  0  0  0  0  0  0  0  0
  149.3146  141.0093  155.4229 C   0  0  0  0  0  0  0  0  0  0  0  0
  149.5190  140.0086  154.5714 N   0  0  0  0  0  0  0  0  0  0  0  0
  150.6075  139.3730  155.1438 C   0  0  0  0  0  0  0  0  0  0  0  0
  151.3260  138.2301  154.7255 C   0  0  0  0  0  0  0  0  0  0  0  0
  152.4212  137.7592  155.4794 C   0  0  0  0  0  0  0  0  0  0  0  0
  152.8137  138.4211  156.6609 C   0  0  0  0  0  0  0  0  0  0  0  0
  152.1122  139.5609  157.0983 C   0  0  0  0  0  0  0  0  0  0  0  0
  151.0209  140.0287  156.3427 C   0  0  0  0  0  0  0  0  0  0  0  0
  151.8386  143.1483  159.0879 C   0  0  0  0  0  0  0  0  0  0  0  0
  151.1734  144.1752  159.7923 C   0  0  0  0  0  0  0  0  0  0  0  0
  151.5338  144.4742  161.1205 C   0  0  0  0  0  0  0  0  0  0  0  0
  152.5606  143.7474  161.7527 C   0  0  0  0  0  0  0  0  0  0  0  0
  152.9084  144.0364  163.0291 F   0  0  0  0  0  0  0  0  0  0  0  0
  153.2267  142.7211  161.0564 C   0  0  0  0  0  0  0  0  0  0  0  0
  152.8675  142.4223  159.7277 C   0  0  0  0  0  0  0  0  0  0  0  0
  150.6471  143.9558  156.2812 H   0  0  0  0  0  0  0  0  0  0  0  0
  152.2493  142.2393  157.1969 H   0  0  0  0  0  0  0  0  0  0  0  0
  149.8507  141.6383  158.4691 H   0  0  0  0  0  0  0  0  0  0  0  0
  149.3208  142.8138  157.2877 H   0  0  0  0  0  0  0  0  0  0  0  0
  148.5190  141.7232  155.2665 H   0  0  0  0  0  0  0  0  0  0  0  0
  151.0346  137.7155  153.8220 H   0  0  0  0  0  0  0  0  0  0  0  0
  152.9632  136.8853  155.1489 H   0  0  0  0  0  0  0  0  0  0  0  0
  153.6541  138.0537  157.2313 H   0  0  0  0  0  0  0  0  0  0  0  0
  152.4130  140.0717  158.0008 H   0  0  0  0  0  0  0  0  0  0  0  0
  150.3908  144.7447  159.3126 H   0  0  0  0  0  0  0  0  0  0  0  0
  151.0244  145.2635  161.6533 H   0  0  0  0  0  0  0  0  0  0  0  0
  154.0161  142.1650  161.5400 H   0  0  0  0  0  0  0  0  0  0  0  0
  153.3913  141.6399  159.1984 H   0  0  0  0  0  0  0  0  0  0  0  0
  1  2  1  0  0  0  0
  1 20  1  0  0  0  0
  2  3  1  0  0  0  0
  2 13  1  0  0  0  0
  2 21  1  0  0  0  0
  3  4  1  0  0  0  0
  3 22  1  0  0  0  0
  3 23  1  0  0  0  0
  4 12  1  0  0  0  0
  4  5  1  0  0  0  0
  5  6  2  0  0  0  0
  5 24  1  0  0  0  0
  6  7  1  0  0  0  0
  7 12  2  0  0  0  0
  7  8  1  0  0  0  0
  8  9  2  0  0  0  0
  8 25  1  0  0  0  0
  9 10  1  0  0  0  0
  9 26  1  0  0  0  0
 10 11  2  0  0  0  0
 10 27  1  0  0  0  0
 11 12  1  0  0  0  0
 11 28  1  0  0  0  0
 13 19  1  0  0  0  0
 13 14  2  0  0  0  0
 14 15  1  0  0  0  0
 14 29  1  0  0  0  0
 15 16  2  0  0  0  0
 15 30  1  0  0  0  0
 16 17  1  0  0  0  0
 16 18  1  0  0  0  0
 18 19  2  0  0  0  0
 18 31  1  0  0  0  0
 19 32  1  0  0  0  0
M  END
> <s_m_source_file>
AV-unprocessed.smi

> <i_m_source_file_index>
1767

> <i_lp_mmshare_version>
43012

> <i_f3d_flags>
0

> <s_epik_input>
W2NIXTFbY0hdYyhGKVtjSF1bY0hdYzFbQ0BIXShbT0hdKVtDSDJdbihbY0hdbjIpYyhjMjMpW2NIXVtjSF1bY0hdW2NIXTM=

> <s_epik_cmdline>
J2VwaWtfcHl0aG9uJywgJy1waCcsICc3LjAnLCAnLXRuJywgJzgnLCAnLW1hJywgJzIwMCcsICctbWV0YWxfYmluZGluZycsICctaW1hZScsICc8aW5maWxlLm1hZT4nLCAnLW9tYWUnLCAnPG91dGZpbGUubWFlPic=

> <r_epik_Ionization_Penalty>
0.0696514

> <r_epik_Ionization_Penalty_Charging>
0

> <r_epik_Ionization_Penalty_Neutral>
0.0696514

> <r_epik_State_Penalty>
0.0610247

> <r_epik_Charging_Adjusted_Penalty>
0.0610247

> <i_epik_Tot_Q>
0

> <i_epik_Tot_abs_Q>
0

> <r_epik_Metal_State_Penalty>
6.42746e-05

> <b_epik_Metal_Only>
0

> <s_lp_Force_Field>
OPLS_2005

> <r_lp_Energy>
11.9132

> <b_lp_Chiralities_Consistent>
1

> <s_lp_Variant>
AV-unprocessed.smi:1767-1

> <Gold.Version>
5.8.1

> <Gold.Id.Protein>
6NUR|6NUR_protein|mol2

> <Gold.PLP.Fitness>
53.1107

> <Gold.PLP.PLP>
-49.1149

> <Gold.PLP.part.hbond>
-1.0000

> <Gold.PLP.part.metal>
0.0000

> <Gold.PLP.part.buried>
-5.6359

> <Gold.PLP.part.nonpolar>
-42.5947

> <Gold.PLP.part.repulsive>
0.1285

> <Gold.PLP.ligand.clash>
0.0000

> <Gold.PLP.ligand.torsion>
0.8036

> <Gold.PLP.Chemscore.Hbond>
0.9913

> <Gold.PLP.Chemscore.CHOScore>
0.8678

> <Gold.PLP.Chemscore.Metal>
0.0000

> <Gold.Chemscore.Hbonds>
donor molecule, donor type, donor heavy atom, donor atom, acceptor molecule, acceptor atom, score
      L1  H     1    20       P1  8028  0.94

> <Gold.PLP.Chemscore.Internal.Correction>
0.0258

> <Gold.Rescore>
     Score         DG    S(hbond)    S(metal)    S(lipo)     H(rot)  DE(clash)    DE(int)     intcor
     17.30     -18.12       0.96        0.00     122.42       1.91       0.39       0.43       ----

> <Gold.Chemscore.Fitness>
17.3012

> <Gold.Chemscore.DG>
-18.1232

> <Gold.Chemscore.ZeroCoef>
-5.4800

> <Gold.Chemscore.Hbond>
0.9621

> <Gold.Chemscore.Metal>
0.0000

> <Gold.Chemscore.Lipo>
122.4234

> <Gold.Chemscore.Internal_Hbond>
0.0000

> <Gold.Chemscore.DEClash>
0.3891

> <Gold.Chemscore.DEInternal>
0.4329

> <Gold.Chemscore.Rot>
1.9116

> <Gold.Chemscore.Internal.Correction>
   9.000000E+99

> <Gold.Chemscore.Hbonds>
donor molecule, donor type, donor heavy atom, donor atom, acceptor molecule, acceptor atom, score
      L1  H     1    20       P1  8028  0.87

> <Gold.Chemscore.Hbond.Weighted>
-3.2134

> <Gold.Chemscore.Metal.Weighted>
-0.0000

> <Gold.Chemscore.Lipo.Weighted>
-14.3235

> <Gold.Chemscore.Internal_Hbond.Weighted>
0.0000

> <Gold.Chemscore.DEClash.Weighted>
0.3891

> <Gold.Chemscore.DEInternal.Weighted>
0.4329

> <Gold.Chemscore.Rot.Weighted>
4.8937

> <Gold.Chemscore.Internal.Correction.Weighted>
   9.000000E+99

> <Gold.Protein.RotatedTorsions>
[ 6907 6896 6895 6894 ] final  -58.97 input  -60.11 | X-H torsion
[ 7974 7965 7964 7962 ] final -128.37 input  175.53 | X-H torsion
[ 8008 7997 7996 7995 ] final  105.45 input   59.86 | X-H torsion
[ 10167 10162 10161 10158 ] final  106.91 input  -65.29 | X-H torsion
[ 10718 10713 10712 10709 ] final   98.75 input   66.30 | X-H torsion
[ 10763 10752 10751 10750 ] final   58.64 input  -60.55 | X-H torsion
[ 11005 11000 10999 10996 ] final   49.10 input  -57.11 | X-H torsion

> <Gold.Protein.ActiveResidues>
 VAL166  LYS551  ARG553  GLY616  TRP617  ASP618  TYR619  PRO620  LYS621  CYS622 
 ASP623  PHE694  ASN695  SER759  ASP760  ASP761  ALA762  ILE779  LEU786  VAL792 
 PHE793  MET794  SER795  GLU796  ALA797  LYS798  CYS799  TRP800  GLU811  SER814 

> <Gold.Protein.RotatedAtoms>
  150.7965  134.7029  159.6559 H   0  0  0  0  0  0  0  0  0  0  0  0  # atno 6907 bound_to 6896
  152.4078  134.6173  160.0051 H   0  0  0  0  0  0  0  0  0  0  0  0  # atno 6908 bound_to 6896
  151.6425  133.3288  159.3169 H   0  0  0  0  0  0  0  0  0  0  0  0  # atno 6909 bound_to 6896
  144.9677  140.7513  143.4690 H   0  0  0  0  0  0  0  0  0  0  0  0  # atno 7974 bound_to 7965
  156.1660  140.3130  155.8890 H   0  0  0  0  0  0  0  0  0  0  0  0  # atno 8008 bound_to 7997
  155.3685  140.0480  157.3063 H   0  0  0  0  0  0  0  0  0  0  0  0  # atno 8009 bound_to 7997
  154.5193  140.2192  155.9017 H   0  0  0  0  0  0  0  0  0  0  0  0  # atno 8010 bound_to 7997
  139.6970  144.7100  151.1250 H   0  0  0  0  0  0  0  0  0  0  0  0  # atno 10167 bound_to 10162
  157.6889  131.0649  150.4844 H   0  0  0  0  0  0  0  0  0  0  0  0  # atno 10718 bound_to 10713
  152.9875  135.5599  154.5585 H   0  0  0  0  0  0  0  0  0  0  0  0  # atno 10763 bound_to 10752
  154.5009  135.2797  155.1423 H   0  0  0  0  0  0  0  0  0  0  0  0  # atno 10764 bound_to 10752
  154.2854  135.6336  153.5417 H   0  0  0  0  0  0  0  0  0  0  0  0  # atno 10765 bound_to 10752
  140.1132  134.4926  155.8659 H   0  0  0  0  0  0  0  0  0  0  0  0  # atno 11005 bound_to 11000
  145.2605  139.1994  143.4894 LP  0  0  0  0  0  0  0  0  0  0  0  0  # atno 17320 bound_to 7965
  146.3373  140.2534  142.8599 LP  0  0  0  0  0  0  0  0  0  0  0  0  # atno 17321 bound_to 7965
  140.7699  143.5477  150.9240 LP  0  0  0  0  0  0  0  0  0  0  0  0  # atno 17342 bound_to 10162
  139.9157  143.6666  152.3106 LP  0  0  0  0  0  0  0  0  0  0  0  0  # atno 17343 bound_to 10162
  156.5174  130.4154  149.6269 LP  0  0  0  0  0  0  0  0  0  0  0  0  # atno 17370 bound_to 10713
  156.3185  130.7268  151.2175 LP  0  0  0  0  0  0  0  0  0  0  0  0  # atno 17371 bound_to 10713
  141.2135  133.6734  156.6746 LP  0  0  0  0  0  0  0  0  0  0  0  0  # atno 17394 bound_to 11000
  140.3063  134.8123  157.4139 LP  0  0  0  0  0  0  0  0  0  0  0  0  # atno 17395 bound_to 11000

$$$$
