AV-unprocessed.smi:3285|AV-procd|sdf|12585|dock6
  -GOLD-   2272018503D 1   1.00000     0.00000
 Structure written by MMmdl.
 45 46  0  0  0  0  0  0  0  0  2 V2000
  151.8398  138.9901  155.6553 C   0  0  0  0  0  0  0  0  0  0  0  0
  150.4328  139.4358  155.3771 C   0  0  0  0  0  0  0  0  0  0  0  0
  149.6016  138.6230  154.7477 N   0  0  0  0  0  0  0  0  0  0  0  0
  148.3934  139.3185  154.6400 O   0  0  0  0  0  0  0  0  0  0  0  0
  148.5476  140.5392  155.2133 C   0  0  0  0  0  0  0  0  0  0  0  0
  147.3605  141.4416  155.1984 C   0  0  0  0  0  0  0  0  0  0  0  0
  149.8180  140.6797  155.7002 C   0  0  0  0  0  0  0  0  0  0  0  0
  150.4318  141.8586  156.4054 C   0  0  0  0  0  0  0  0  0  0  0  0
  149.8382  142.0448  157.8076 C   0  0  0  0  0  0  0  0  0  0  0  0
  150.0344  143.4294  158.2846 N   0  3  0  0  0  0  0  0  0  0  0  0
  151.4112  143.9621  158.1531 C   0  0  1  0  0  0  0  0  0  0  0  0
  151.5699  145.2488  158.9802 C   0  0  0  0  0  0  0  0  0  0  0  0
  151.5689  144.9664  160.4911 C   0  0  0  0  0  0  0  0  0  0  0  0
  152.6484  143.9417  160.8946 C   0  0  1  0  0  0  0  0  0  0  0  0
  152.6046  143.7094  162.4153 C   0  0  0  0  0  0  0  0  0  0  0  0
  152.4938  142.6321  160.0767 C   0  0  2  0  0  0  0  0  0  0  0  0
  153.5850  141.5944  160.3953 C   0  0  0  0  0  0  0  0  0  0  0  0
  152.4874  142.9342  158.5621 C   0  0  0  0  0  0  0  0  0  0  0  0
  152.5483  139.5140  155.0135 H   0  0  0  0  0  0  0  0  0  0  0  0
  151.9665  137.9203  155.4843 H   0  0  0  0  0  0  0  0  0  0  0  0
  152.1163  139.1922  156.6900 H   0  0  0  0  0  0  0  0  0  0  0  0
  147.6325  142.4323  154.8340 H   0  0  0  0  0  0  0  0  0  0  0  0
  146.9471  141.5509  156.2011 H   0  0  0  0  0  0  0  0  0  0  0  0
  146.5756  141.0490  154.5511 H   0  0  0  0  0  0  0  0  0  0  0  0
  151.5127  141.7370  156.4853 H   0  0  0  0  0  0  0  0  0  0  0  0
  150.2801  142.7693  155.8248 H   0  0  0  0  0  0  0  0  0  0  0  0
  148.7744  141.8094  157.7867 H   0  0  0  0  0  0  0  0  0  0  0  0
  150.3104  141.3509  158.5045 H   0  0  0  0  0  0  0  0  0  0  0  0
  149.4261  144.0232  157.7393 H   0  0  0  0  0  0  0  0  0  0  0  0
  151.5576  144.2236  157.1042 H   0  0  0  0  0  0  0  0  0  0  0  0
  152.5092  145.7341  158.7114 H   0  0  0  0  0  0  0  0  0  0  0  0
  150.7810  145.9597  158.7312 H   0  0  0  0  0  0  0  0  0  0  0  0
  151.7270  145.9018  161.0292 H   0  0  0  0  0  0  0  0  0  0  0  0
  150.5860  144.6046  160.7958 H   0  0  0  0  0  0  0  0  0  0  0  0
  153.6210  144.3763  160.6581 H   0  0  0  0  0  0  0  0  0  0  0  0
  151.6850  143.2058  162.7146 H   0  0  0  0  0  0  0  0  0  0  0  0
  152.6551  144.6547  162.9568 H   0  0  0  0  0  0  0  0  0  0  0  0
  153.4451  143.1063  162.7577 H   0  0  0  0  0  0  0  0  0  0  0  0
  151.5342  142.1809  160.3332 H   0  0  0  0  0  0  0  0  0  0  0  0
  154.5824  142.0030  160.2296 H   0  0  0  0  0  0  0  0  0  0  0  0
  153.4809  140.7113  159.7646 H   0  0  0  0  0  0  0  0  0  0  0  0
  153.5304  141.2514  161.4280 H   0  0  0  0  0  0  0  0  0  0  0  0
  152.3751  142.0115  157.9935 H   0  0  0  0  0  0  0  0  0  0  0  0
  153.4651  143.3277  158.2799 H   0  0  0  0  0  0  0  0  0  0  0  0
  149.7538  143.4898  159.2531 H   0  0  0  0  0  0  0  0  0  0  0  0
  1  2  1  0  0  0  0
  1 19  1  0  0  0  0
  1 20  1  0  0  0  0
  1 21  1  0  0  0  0
  2  7  1  0  0  0  0
  2  3  2  0  0  0  0
  3  4  1  0  0  0  0
  4  5  1  0  0  0  0
  5  6  1  0  0  0  0
  5  7  2  0  0  0  0
  6 22  1  0  0  0  0
  6 23  1  0  0  0  0
  6 24  1  0  0  0  0
  7  8  1  0  0  0  0
  8  9  1  0  0  0  0
  8 25  1  0  0  0  0
  8 26  1  0  0  0  0
  9 10  1  0  0  0  0
  9 27  1  0  0  0  0
  9 28  1  0  0  0  0
 10 11  1  0  0  0  0
 10 29  1  0  0  0  0
 10 45  1  0  0  0  0
 11 18  1  0  0  0  0
 11 12  1  0  0  0  0
 11 30  1  0  0  0  0
 12 13  1  0  0  0  0
 12 31  1  0  0  0  0
 12 32  1  0  0  0  0
 13 14  1  0  0  0  0
 13 33  1  0  0  0  0
 13 34  1  0  0  0  0
 14 15  1  0  0  0  0
 14 16  1  0  0  0  0
 14 35  1  0  0  0  0
 15 36  1  0  0  0  0
 15 37  1  0  0  0  0
 15 38  1  0  0  0  0
 16 17  1  0  0  0  0
 16 18  1  0  0  0  0
 16 39  1  0  0  0  0
 17 40  1  0  0  0  0
 17 41  1  0  0  0  0
 17 42  1  0  0  0  0
 18 43  1  0  0  0  0
 18 44  1  0  0  0  0
M  CHG  1  10   1
M  END
> <s_m_source_file>
AV-unprocessed.smi

> <i_m_source_file_index>
3285

> <i_lp_mmshare_version>
43012

> <i_f3d_flags>
0

> <s_epik_input>
W0NIM11jMW5vYyhbQ0gzXSljMVtDSDJdW0NIMl1bTkhdW0NAQEhdMltDSDJdW0NIMl1bQ0BASF0oW0NIM10pW0NAQEhdKFtDSDNdKVtDSDJdMg==

> <s_epik_cmdline>
J2VwaWtfcHl0aG9uJywgJy1waCcsICc3LjAnLCAnLXRuJywgJzgnLCAnLW1hJywgJzIwMCcsICctbWV0YWxfYmluZGluZycsICctaW1hZScsICc8aW5maWxlLm1hZT4nLCAnLW9tYWUnLCAnPG91dGZpbGUubWFlPic=

> <r_lp_tautomer_probability>
1

> <r_epik_Ionization_Penalty>
0.000204615

> <r_epik_Ionization_Penalty_Charging>
0.000204615

> <r_epik_Ionization_Penalty_Neutral>
9.28663e-11

> <r_epik_State_Penalty>
-0

> <r_epik_Charging_Adjusted_Penalty>
0.000204615

> <i_epik_Tot_Q>
1

> <i_epik_Tot_abs_Q>
1

> <r_epik_Metal_State_Penalty>
-0

> <b_epik_Metal_Only>
0

> <s_lp_Force_Field>
OPLS_2005

> <r_lp_Energy>
13.8901

> <b_lp_Chiralities_Consistent>
1

> <s_lp_Variant>
AV-unprocessed.smi:3285-6

> <Gold.Version>
5.8.1

> <Gold.Id.Protein>
6NUR|6NUR_protein|mol2

> <Gold.PLP.Fitness>
53.3606

> <Gold.PLP.PLP>
-48.0435

> <Gold.PLP.part.hbond>
-1.0000

> <Gold.PLP.part.metal>
0.0000

> <Gold.PLP.part.buried>
-3.8793

> <Gold.PLP.part.nonpolar>
-44.0415

> <Gold.PLP.part.repulsive>
0.7993

> <Gold.PLP.ligand.clash>
0.0000

> <Gold.PLP.ligand.torsion>
0.3455

> <Gold.PLP.Chemscore.Hbond>
2.0000

> <Gold.PLP.Chemscore.CHOScore>
0.0000

> <Gold.PLP.Chemscore.Metal>
0.0000

> <Gold.Chemscore.Hbonds>
donor molecule, donor type, donor heavy atom, donor atom, acceptor molecule, acceptor atom, score
      L1  H    10    29       P1  8028  0.75

> <Gold.PLP.Chemscore.Internal.Correction>
0.0081

> <Gold.Rescore>
     Score         DG    S(hbond)    S(metal)    S(lipo)     H(rot)  DE(clash)    DE(int)     intcor
     20.46     -21.19       0.93        0.00     137.28       1.35       0.08       0.64       ----

> <Gold.Chemscore.Fitness>
20.4595

> <Gold.Chemscore.DG>
-21.1857

> <Gold.Chemscore.ZeroCoef>
-5.4800

> <Gold.Chemscore.Hbond>
0.9255

> <Gold.Chemscore.Metal>
0.0000

> <Gold.Chemscore.Lipo>
137.2779

> <Gold.Chemscore.Internal_Hbond>
0.0000

> <Gold.Chemscore.DEClash>
0.0839

> <Gold.Chemscore.DEInternal>
0.6423

> <Gold.Chemscore.Rot>
1.3465

> <Gold.Chemscore.Internal.Correction>
   9.000000E+99

> <Gold.Chemscore.Hbonds>
donor molecule, donor type, donor heavy atom, donor atom, acceptor molecule, acceptor atom, score
      L1  H    10    29       P1  8028  0.05

> <Gold.Chemscore.Hbond.Weighted>
-3.0912

> <Gold.Chemscore.Metal.Weighted>
-0.0000

> <Gold.Chemscore.Lipo.Weighted>
-16.0615

> <Gold.Chemscore.Internal_Hbond.Weighted>
0.0000

> <Gold.Chemscore.DEClash.Weighted>
0.0839

> <Gold.Chemscore.DEInternal.Weighted>
0.6423

> <Gold.Chemscore.Rot.Weighted>
3.4470

> <Gold.Chemscore.Internal.Correction.Weighted>
   9.000000E+99

> <Gold.Protein.RotatedTorsions>
[ 6907 6896 6895 6894 ] final  -43.67 input  -60.11 | X-H torsion
[ 7974 7965 7964 7962 ] final   -7.23 input  175.53 | X-H torsion
[ 8008 7997 7996 7995 ] final   62.84 input   59.86 | X-H torsion
[ 10167 10162 10161 10158 ] final  170.83 input  -65.29 | X-H torsion
[ 10718 10713 10712 10709 ] final  117.93 input   66.30 | X-H torsion
[ 10763 10752 10751 10750 ] final  -18.26 input  -60.55 | X-H torsion
[ 11005 11000 10999 10996 ] final -103.95 input  -57.11 | X-H torsion

> <Gold.Protein.ActiveResidues>
 VAL166  LYS551  ARG553  GLY616  TRP617  ASP618  TYR619  PRO620  LYS621  CYS622 
 ASP623  PHE694  ASN695  SER759  ASP760  ASP761  ALA762  ILE779  LEU786  VAL792 
 PHE793  MET794  SER795  GLU796  ALA797  LYS798  CYS799  TRP800  GLU811  SER814 

> <Gold.Protein.RotatedAtoms>
  150.9413  134.8822  159.7613 H   0  0  0  0  0  0  0  0  0  0  0  0  # atno 6907 bound_to 6896
  152.5081  134.3938  159.9403 H   0  0  0  0  0  0  0  0  0  0  0  0  # atno 6908 bound_to 6896
  151.3958  133.3733  159.2761 H   0  0  0  0  0  0  0  0  0  0  0  0  # atno 6909 bound_to 6896
  146.2312  140.2289  142.8339 H   0  0  0  0  0  0  0  0  0  0  0  0  # atno 7974 bound_to 7965
  155.6207  140.3495  155.4651 H   0  0  0  0  0  0  0  0  0  0  0  0  # atno 8008 bound_to 7997
  156.0081  140.1227  157.0505 H   0  0  0  0  0  0  0  0  0  0  0  0  # atno 8009 bound_to 7997
  154.4271  140.1087  156.5777 H   0  0  0  0  0  0  0  0  0  0  0  0  # atno 8010 bound_to 7997
  139.5029  144.3553  151.9880 H   0  0  0  0  0  0  0  0  0  0  0  0  # atno 10167 bound_to 10162
  157.6064  131.1042  150.7684 H   0  0  0  0  0  0  0  0  0  0  0  0  # atno 10718 bound_to 10713
  153.5865  135.7003  153.5441 H   0  0  0  0  0  0  0  0  0  0  0  0  # atno 10763 bound_to 10752
  153.3216  135.4072  155.1421 H   0  0  0  0  0  0  0  0  0  0  0  0  # atno 10764 bound_to 10752
  154.8608  135.3697  154.5394 H   0  0  0  0  0  0  0  0  0  0  0  0  # atno 10765 bound_to 10752
  141.1123  133.8682  157.1550 H   0  0  0  0  0  0  0  0  0  0  0  0  # atno 11005 bound_to 11000
  144.9573  140.8240  143.5535 LP  0  0  0  0  0  0  0  0  0  0  0  0  # atno 17320 bound_to 7965
  145.2256  139.2138  143.5070 LP  0  0  0  0  0  0  0  0  0  0  0  0  # atno 17321 bound_to 7965
  140.2990  144.3668  150.6066 LP  0  0  0  0  0  0  0  0  0  0  0  0  # atno 17342 bound_to 10162
  140.5888  143.2169  151.7291 LP  0  0  0  0  0  0  0  0  0  0  0  0  # atno 17343 bound_to 10162
  156.8071  130.4940  149.5361 LP  0  0  0  0  0  0  0  0  0  0  0  0  # atno 17370 bound_to 10713
  156.1152  130.6069  151.0109 LP  0  0  0  0  0  0  0  0  0  0  0  0  # atno 17371 bound_to 10713
  140.0024  135.0022  157.0218 LP  0  0  0  0  0  0  0  0  0  0  0  0  # atno 17394 bound_to 11000
  140.4742  134.1355  155.7207 LP  0  0  0  0  0  0  0  0  0  0  0  0  # atno 17395 bound_to 11000

$$$$
