AV-unprocessed.smi:247|AV-procd|sdf|1892|dock8
  -GOLD-   2262020553D 1   1.00000     0.00000
 Structure written by MMmdl.
 61 65  0  0  0  0  0  0  0  0  1 V2000
  143.0574  132.3989  149.3579 O   0  0  0  0  0  0  0  0  0  0  0  0
  144.2285  133.1746  149.5211 C   0  0  0  0  0  0  0  0  0  0  0  0
  144.9202  132.9704  150.8982 C   0  0  0  0  0  0  0  0  0  0  0  0
  144.1298  133.7772  151.9776 C   0  0  0  0  0  0  0  0  0  0  0  0
  144.7762  135.0021  152.4260 N   0  0  0  0  0  0  0  0  0  0  0  0
  144.6761  136.2472  151.8456 C   0  0  0  0  0  0  0  0  0  0  0  0
  145.3623  137.1912  152.4286 N   0  0  0  0  0  0  0  0  0  0  0  0
  145.9647  136.5533  153.5059 C   0  0  0  0  0  0  0  0  0  0  0  0
  146.8550  136.9683  154.5361 C   0  0  0  0  0  0  0  0  0  0  0  0
  147.3607  138.2143  154.6610 N   0  0  0  0  0  0  0  0  0  0  0  0
  146.6360  139.2361  153.9091 C   0  0  0  0  0  0  0  0  0  0  0  0
  147.6913  140.1223  153.2411 C   0  0  0  0  0  0  0  0  0  0  0  0
  148.9503  139.8452  154.0539 C   0  0  0  0  0  0  0  0  0  0  0  0
  148.7912  138.3556  154.3853 C   0  0  1  0  0  0  0  0  0  0  0  0
  149.7028  137.7451  155.5049 C   0  0  2  0  0  0  0  0  0  0  0  0
  149.7369  138.5501  156.8264 C   0  0  0  0  0  0  0  0  0  0  0  0
  150.3826  139.8066  156.6361 O   0  0  0  0  0  0  0  0  0  0  0  0
  151.7537  139.6832  156.2722 C   0  0  0  0  0  0  0  0  0  0  0  0
  151.8888  138.9060  154.9530 C   0  0  0  0  0  0  0  0  0  0  0  0
  151.1757  137.5511  155.0675 C   0  0  2  0  0  0  0  0  0  0  0  0
  151.3029  136.8227  153.8638 O   0  0  0  0  0  0  0  0  0  0  0  0
  147.2461  136.0478  155.4502 N   0  0  0  0  0  0  0  0  0  0  0  0
  146.8020  134.7903  155.3617 C   0  0  0  0  0  0  0  0  0  0  0  0
  145.9845  134.2550  154.4522 N   0  0  0  0  0  0  0  0  0  0  0  0
  145.5910  135.1811  153.5309 C   0  0  0  0  0  0  0  0  0  0  0  0
  144.9823  131.4573  151.2325 C   0  0  0  0  0  0  0  0  0  0  0  0
  145.8556  131.1660  152.4657 C   0  0  0  0  0  0  0  0  0  0  0  0
  147.1677  131.6743  152.2586 O   0  0  0  0  0  0  0  0  0  0  0  0
  147.1995  133.0865  152.0885 C   0  0  0  0  0  0  0  0  0  0  0  0
  146.3793  133.4929  150.8486 C   0  0  0  0  0  0  0  0  0  0  0  0
  142.3066  132.9602  149.4774 H   0  0  0  0  0  0  0  0  0  0  0  0
  144.9139  132.9233  148.7110 H   0  0  0  0  0  0  0  0  0  0  0  0
  143.9423  134.2171  149.3819 H   0  0  0  0  0  0  0  0  0  0  0  0
  143.1377  134.0516  151.6230 H   0  0  0  0  0  0  0  0  0  0  0  0
  143.9578  133.1508  152.8539 H   0  0  0  0  0  0  0  0  0  0  0  0
  144.0840  136.4328  150.9615 H   0  0  0  0  0  0  0  0  0  0  0  0
  145.9406  138.8258  153.1757 H   0  0  0  0  0  0  0  0  0  0  0  0
  146.0514  139.8217  154.6190 H   0  0  0  0  0  0  0  0  0  0  0  0
  147.8423  139.8008  152.2097 H   0  0  0  0  0  0  0  0  0  0  0  0
  147.4137  141.1766  153.2291 H   0  0  0  0  0  0  0  0  0  0  0  0
  149.8636  140.0663  153.5011 H   0  0  0  0  0  0  0  0  0  0  0  0
  148.9275  140.4633  154.9515 H   0  0  0  0  0  0  0  0  0  0  0  0
  148.9984  137.8268  153.4552 H   0  0  0  0  0  0  0  0  0  0  0  0
  149.3057  136.7610  155.7586 H   0  0  0  0  0  0  0  0  0  0  0  0
  148.7351  138.7067  157.2237 H   0  0  0  0  0  0  0  0  0  0  0  0
  150.2682  137.9882  157.5967 H   0  0  0  0  0  0  0  0  0  0  0  0
  152.1815  140.6800  156.1658 H   0  0  0  0  0  0  0  0  0  0  0  0
  152.3046  139.1854  157.0716 H   0  0  0  0  0  0  0  0  0  0  0  0
  151.4646  139.4937  154.1382 H   0  0  0  0  0  0  0  0  0  0  0  0
  152.9433  138.7610  154.7152 H   0  0  0  0  0  0  0  0  0  0  0  0
  151.6851  136.9624  155.8317 H   0  0  0  0  0  0  0  0  0  0  0  0
  150.4412  136.6969  153.4964 H   0  0  0  0  0  0  0  0  0  0  0  0
  147.1574  134.1148  156.1256 H   0  0  0  0  0  0  0  0  0  0  0  0
  143.9850  131.0399  151.3654 H   0  0  0  0  0  0  0  0  0  0  0  0
  145.4140  130.9114  150.3929 H   0  0  0  0  0  0  0  0  0  0  0  0
  145.4254  131.5884  153.3739 H   0  0  0  0  0  0  0  0  0  0  0  0
  145.9225  130.0896  152.6244 H   0  0  0  0  0  0  0  0  0  0  0  0
  146.8427  133.5828  152.9909 H   0  0  0  0  0  0  0  0  0  0  0  0
  148.2371  133.3943  151.9599 H   0  0  0  0  0  0  0  0  0  0  0  0
  146.8941  133.0923  149.9752 H   0  0  0  0  0  0  0  0  0  0  0  0
  146.3923  134.5771  150.7317 H   0  0  0  0  0  0  0  0  0  0  0  0
  1  2  1  0  0  0  0
  1 31  1  0  0  0  0
  2  3  1  0  0  0  0
  2 32  1  0  0  0  0
  2 33  1  0  0  0  0
  3 30  1  0  0  0  0
  3  4  1  0  0  0  0
  3 26  1  0  0  0  0
  4  5  1  0  0  0  0
  4 34  1  0  0  0  0
  4 35  1  0  0  0  0
  5 25  1  0  0  0  0
  5  6  1  0  0  0  0
  6  7  2  0  0  0  0
  6 36  1  0  0  0  0
  7  8  1  0  0  0  0
  8 25  2  0  0  0  0
  8  9  1  0  0  0  0
  9 10  1  0  0  0  0
  9 22  2  0  0  0  0
 10 14  1  0  0  0  0
 10 11  1  0  0  0  0
 11 12  1  0  0  0  0
 11 37  1  0  0  0  0
 11 38  1  0  0  0  0
 12 13  1  0  0  0  0
 12 39  1  0  0  0  0
 12 40  1  0  0  0  0
 13 14  1  0  0  0  0
 13 41  1  0  0  0  0
 13 42  1  0  0  0  0
 14 15  1  0  0  0  0
 14 43  1  0  0  0  0
 15 20  1  0  0  0  0
 15 16  1  0  0  0  0
 15 44  1  0  0  0  0
 16 17  1  0  0  0  0
 16 45  1  0  0  0  0
 16 46  1  0  0  0  0
 17 18  1  0  0  0  0
 18 19  1  0  0  0  0
 18 47  1  0  0  0  0
 18 48  1  0  0  0  0
 19 20  1  0  0  0  0
 19 49  1  0  0  0  0
 19 50  1  0  0  0  0
 20 21  1  0  0  0  0
 20 51  1  0  0  0  0
 21 52  1  0  0  0  0
 22 23  1  0  0  0  0
 23 24  2  0  0  0  0
 23 53  1  0  0  0  0
 24 25  1  0  0  0  0
 26 27  1  0  0  0  0
 26 54  1  0  0  0  0
 26 55  1  0  0  0  0
 27 28  1  0  0  0  0
 27 56  1  0  0  0  0
 27 57  1  0  0  0  0
 28 29  1  0  0  0  0
 29 30  1  0  0  0  0
 29 58  1  0  0  0  0
 29 59  1  0  0  0  0
 30 60  1  0  0  0  0
 30 61  1  0  0  0  0
M  END
> <s_m_source_file>
AV-unprocessed.smi

> <i_m_source_file_index>
247

> <i_lp_mmshare_version>
43012

> <i_f3d_flags>
0

> <s_epik_input>
W0NIMl0xW0NIMl1PW0NIMl1bQ0gyXUMxKFtDSDJdW09IXSlbQ0gyXW4oW2NIXW4yKWMoYzIzKW5bY0hdbmMzTjRbQ0gyXVtDSDJdW0NIMl1bQ0BIXTRbQ0BASF01W0NIMl1PW0NIMl1bQ0gyXVtDQEhdNVtPSF0=

> <s_epik_cmdline>
J2VwaWtfcHl0aG9uJywgJy1waCcsICc3LjAnLCAnLXRuJywgJzgnLCAnLW1hJywgJzIwMCcsICctbWV0YWxfYmluZGluZycsICctaW1hZScsICc8aW5maWxlLm1hZT4nLCAnLW9tYWUnLCAnPG91dGZpbGUubWFlPic=

> <r_lp_tautomer_probability>
1

> <r_epik_Ionization_Penalty>
0.00362597

> <r_epik_Ionization_Penalty_Charging>
0

> <r_epik_Ionization_Penalty_Neutral>
0.00362597

> <r_epik_State_Penalty>
0.00241433

> <r_epik_Charging_Adjusted_Penalty>
0.00241433

> <i_epik_Tot_Q>
0

> <i_epik_Tot_abs_Q>
0

> <r_epik_Metal_State_Penalty>
-0

> <b_epik_Metal_Only>
0

> <s_lp_Force_Field>
OPLS_2005

> <r_lp_Energy>
63.5358

> <b_lp_Chiralities_Consistent>
1

> <s_lp_Variant>
AV-unprocessed.smi:247-5

> <Gold.Version>
5.8.1

> <Gold.Id.Protein>
6NUR|6NUR_protein|mol2

> <Gold.PLP.Fitness>
45.5861

> <Gold.PLP.PLP>
-39.1653

> <Gold.PLP.part.hbond>
-4.9296

> <Gold.PLP.part.metal>
0.0000

> <Gold.PLP.part.buried>
-2.7497

> <Gold.PLP.part.nonpolar>
-33.8279

> <Gold.PLP.part.repulsive>
2.0176

> <Gold.PLP.ligand.clash>
0.0000

> <Gold.PLP.ligand.torsion>
2.0098

> <Gold.PLP.Chemscore.Hbond>
2.5374

> <Gold.PLP.Chemscore.CHOScore>
0.9093

> <Gold.PLP.Chemscore.Metal>
0.0000

> <Gold.Chemscore.Hbonds>
donor molecule, donor type, donor heavy atom, donor atom, acceptor molecule, acceptor atom, score
      L1  H     1    31       P1 10186  1.00
      L1  H    21    52       P1  7948  0.23
      P1  H 10752 10763       L1    21  0.99
      P1  H 10785 10796       L1     1  0.21
      L1  C     6    36       P1 10171  0.93

> <Gold.PLP.Chemscore.Internal.Correction>
0.1003

> <Gold.Rescore>
     Score         DG    S(hbond)    S(metal)    S(lipo)     H(rot)  DE(clash)    DE(int)     intcor
      8.30     -17.51       2.45        0.00     103.66       3.23       3.95       5.26       ----

> <Gold.Chemscore.Fitness>
8.3038

> <Gold.Chemscore.DG>
-17.5133

> <Gold.Chemscore.ZeroCoef>
-5.4800

> <Gold.Chemscore.Hbond>
2.4455

> <Gold.Chemscore.Metal>
0.0000

> <Gold.Chemscore.Lipo>
103.6647

> <Gold.Chemscore.Internal_Hbond>
0.0000

> <Gold.Chemscore.DEClash>
3.9509

> <Gold.Chemscore.DEInternal>
5.2587

> <Gold.Chemscore.Rot>
3.2278

> <Gold.Chemscore.Internal.Correction>
   9.000000E+99

> <Gold.Chemscore.Hbonds>
donor molecule, donor type, donor heavy atom, donor atom, acceptor molecule, acceptor atom, score
      L1  H     1    31       P1 10186  0.99
      L1  H    21    52       P1  7948  0.01
      P1  H 10752 10763       L1    21  0.41
      P1  H 10785 10796       L1     1  0.23

> <Gold.Chemscore.Hbond.Weighted>
-8.1678

> <Gold.Chemscore.Metal.Weighted>
-0.0000

> <Gold.Chemscore.Lipo.Weighted>
-12.1288

> <Gold.Chemscore.Internal_Hbond.Weighted>
0.0000

> <Gold.Chemscore.DEClash.Weighted>
3.9509

> <Gold.Chemscore.DEInternal.Weighted>
5.2587

> <Gold.Chemscore.Rot.Weighted>
8.2633

> <Gold.Chemscore.Internal.Correction.Weighted>
   9.000000E+99

> <Gold.Protein.RotatedTorsions>
[ 6907 6896 6895 6894 ] final -110.13 input  -60.11 | X-H torsion
[ 7974 7965 7964 7962 ] final  -30.72 input  175.53 | X-H torsion
[ 8008 7997 7996 7995 ] final    2.61 input   59.86 | X-H torsion
[ 10167 10162 10161 10158 ] final -156.25 input  -65.29 | X-H torsion
[ 10718 10713 10712 10709 ] final  -29.03 input   66.30 | X-H torsion
[ 10763 10752 10751 10750 ] final   34.31 input  -60.55 | X-H torsion
[ 11005 11000 10999 10996 ] final -139.99 input  -57.11 | X-H torsion

> <Gold.Protein.ActiveResidues>
 VAL166  LYS551  ARG553  GLY616  TRP617  ASP618  TYR619  PRO620  LYS621  CYS622 
 ASP623  PHE694  ASN695  SER759  ASP760  ASP761  ALA762  ILE779  LEU786  VAL792 
 PHE793  MET794  SER795  GLU796  ALA797  LYS798  CYS799  TRP800  GLU811  SER814 

> <Gold.Protein.RotatedAtoms>
  150.7605  133.9427  159.3460 H   0  0  0  0  0  0  0  0  0  0  0  0  # atno 6907 bound_to 6896
  151.7337  135.0867  160.0314 H   0  0  0  0  0  0  0  0  0  0  0  0  # atno 6908 bound_to 6896
  152.3573  133.6216  159.6025 H   0  0  0  0  0  0  0  0  0  0  0  0  # atno 6909 bound_to 6896
  146.1121  140.5576  142.8773 H   0  0  0  0  0  0  0  0  0  0  0  0  # atno 7974 bound_to 7965
  154.6936  140.2658  155.6788 H   0  0  0  0  0  0  0  0  0  0  0  0  # atno 8008 bound_to 7997
  156.2741  140.2786  156.1446 H   0  0  0  0  0  0  0  0  0  0  0  0  # atno 8009 bound_to 7997
  155.0862  140.0373  157.2644 H   0  0  0  0  0  0  0  0  0  0  0  0  # atno 8010 bound_to 7997
  139.6865  143.9492  152.2364 H   0  0  0  0  0  0  0  0  0  0  0  0  # atno 10167 bound_to 10162
  156.4176  130.4420  149.7206 H   0  0  0  0  0  0  0  0  0  0  0  0  # atno 10718 bound_to 10713
  153.0170  135.6364  154.1648 H   0  0  0  0  0  0  0  0  0  0  0  0  # atno 10763 bound_to 10752
  154.1386  135.2836  155.3168 H   0  0  0  0  0  0  0  0  0  0  0  0  # atno 10764 bound_to 10752
  154.6141  135.5546  153.7566 H   0  0  0  0  0  0  0  0  0  0  0  0  # atno 10765 bound_to 10752
  140.8466  134.2337  157.4782 H   0  0  0  0  0  0  0  0  0  0  0  0  # atno 11005 bound_to 11000
  144.7521  140.5216  143.6794 LP  0  0  0  0  0  0  0  0  0  0  0  0  # atno 17320 bound_to 7965
  145.5641  139.1480  143.3325 LP  0  0  0  0  0  0  0  0  0  0  0  0  # atno 17321 bound_to 7965
  139.9296  144.6749  150.8376 LP  0  0  0  0  0  0  0  0  0  0  0  0  # atno 17342 bound_to 10162
  140.7669  143.3317  151.2395 LP  0  0  0  0  0  0  0  0  0  0  0  0  # atno 17343 bound_to 10162
  156.4160  130.7745  151.2760 LP  0  0  0  0  0  0  0  0  0  0  0  0  # atno 17370 bound_to 10713
  157.7508  131.0197  150.3678 LP  0  0  0  0  0  0  0  0  0  0  0  0  # atno 17371 bound_to 10713
  139.8703  134.9662  156.4555 LP  0  0  0  0  0  0  0  0  0  0  0  0  # atno 17394 bound_to 11000
  140.8836  133.7899  155.9494 LP  0  0  0  0  0  0  0  0  0  0  0  0  # atno 17395 bound_to 11000

$$$$
