AV-unprocessed.smi:1729|AV-procd|sdf|6969|dock3
  -GOLD-   22720 8183D 1   1.00000     0.00000
 Structure written by MMmdl.
 35 36  0  0  0  0  0  0  0  0  1 V2000
  151.7470  145.2829  161.3873 C   0  0  0  0  0  0  0  0  0  0  0  0
  151.9694  143.8093  161.0394 C   0  0  0  0  0  0  0  0  0  0  0  0
  151.7537  142.9698  161.9137 O   0  0  0  0  0  0  0  0  0  0  0  0
  152.3879  143.4784  159.7940 N   0  0  0  0  0  0  0  0  0  0  0  0
  152.5489  142.0877  159.3543 C   0  0  0  0  0  0  0  0  0  0  0  0
  151.4345  141.7544  158.3459 C   0  0  0  0  0  0  0  0  0  0  0  0
  151.4365  142.7419  157.1590 C   0  0  0  0  0  0  0  0  0  0  0  0
  150.2621  142.5065  156.3245 N   0  0  0  0  0  0  0  0  0  0  0  0
  150.0018  141.3725  155.6582 C   0  0  0  0  0  0  0  0  0  0  0  0
  150.7414  140.3882  155.6733 O   0  0  0  0  0  0  0  0  0  0  0  0
  148.8439  141.4582  154.9833 N   0  0  0  0  0  0  0  0  0  0  0  0
  148.2486  140.4642  154.1658 C   0  0  0  0  0  0  0  0  0  0  0  0
  147.1644  140.6910  153.2753 C   0  0  0  0  0  0  0  0  0  0  0  0
  146.8183  139.5796  152.6413 N   0  0  0  0  0  0  0  0  0  0  0  0
  147.6722  138.6459  153.1181 N   0  0  0  0  0  0  0  0  0  0  0  0
  148.5605  139.1389  154.0481 C   0  0  0  0  0  0  0  0  0  0  0  0
  151.4772  144.2094  157.6459 C   0  0  0  0  0  0  0  0  0  0  0  0
  152.5905  144.4212  158.6872 C   0  0  0  0  0  0  0  0  0  0  0  0
  147.6375  137.6872  152.8018 H   0  0  0  0  0  0  0  0  0  0  0  0
  151.0071  145.7304  160.7231 H   0  0  0  0  0  0  0  0  0  0  0  0
  152.6792  145.8430  161.3102 H   0  0  0  0  0  0  0  0  0  0  0  0
  151.3807  145.3856  162.4094 H   0  0  0  0  0  0  0  0  0  0  0  0
  153.5271  141.9659  158.8871 H   0  0  0  0  0  0  0  0  0  0  0  0
  152.5254  141.3771  160.1816 H   0  0  0  0  0  0  0  0  0  0  0  0
  151.5543  140.7329  157.9835 H   0  0  0  0  0  0  0  0  0  0  0  0
  150.4711  141.7904  158.8568 H   0  0  0  0  0  0  0  0  0  0  0  0
  152.3361  142.5487  156.5713 H   0  0  0  0  0  0  0  0  0  0  0  0
  149.5974  143.2630  156.2527 H   0  0  0  0  0  0  0  0  0  0  0  0
  148.3344  142.3263  155.0608 H   0  0  0  0  0  0  0  0  0  0  0  0
  146.6282  141.6059  153.0715 H   0  0  0  0  0  0  0  0  0  0  0  0
  149.3065  138.5179  154.5215 H   0  0  0  0  0  0  0  0  0  0  0  0
  151.6289  144.8828  156.8017 H   0  0  0  0  0  0  0  0  0  0  0  0
  150.5173  144.4800  158.0886 H   0  0  0  0  0  0  0  0  0  0  0  0
  152.6135  145.4642  158.9994 H   0  0  0  0  0  0  0  0  0  0  0  0
  153.5641  144.2343  158.2318 H   0  0  0  0  0  0  0  0  0  0  0  0
  1  2  1  0  0  0  0
  1 20  1  0  0  0  0
  1 21  1  0  0  0  0
  1 22  1  0  0  0  0
  2  3  2  0  0  0  0
  2  4  1  0  0  0  0
  4 18  1  0  0  0  0
  4  5  1  0  0  0  0
  5  6  1  0  0  0  0
  5 23  1  0  0  0  0
  5 24  1  0  0  0  0
  6  7  1  0  0  0  0
  6 25  1  0  0  0  0
  6 26  1  0  0  0  0
  7  8  1  0  0  0  0
  7 17  1  0  0  0  0
  7 27  1  0  0  0  0
  8  9  1  0  0  0  0
  8 28  1  0  0  0  0
  9 10  2  0  0  0  0
  9 11  1  0  0  0  0
 11 12  1  0  0  0  0
 11 29  1  0  0  0  0
 12 16  2  0  0  0  0
 12 13  1  0  0  0  0
 13 14  2  0  0  0  0
 13 30  1  0  0  0  0
 14 15  1  0  0  0  0
 15 19  1  0  0  0  0
 15 16  1  0  0  0  0
 16 31  1  0  0  0  0
 17 18  1  0  0  0  0
 17 32  1  0  0  0  0
 17 33  1  0  0  0  0
 18 34  1  0  0  0  0
 18 35  1  0  0  0  0
M  END
> <s_m_source_file>
AV-unprocessed.smi

> <i_m_source_file_index>
1729

> <i_lp_mmshare_version>
43012

> <i_f3d_flags>
0

> <s_epik_input>
W0NIM11DKD1PKU4xW0NIMl1bQ0gyXVtDSF0oW0NIMl1bQ0gyXTEpW05IXUMoPU8pW05IXWMyW2NIXW5bbkhdW2NIXTI=

> <s_epik_cmdline>
J2VwaWtfcHl0aG9uJywgJy1waCcsICc3LjAnLCAnLXRuJywgJzgnLCAnLW1hJywgJzIwMCcsICctbWV0YWxfYmluZGluZycsICctaW1hZScsICc8aW5maWxlLm1hZT4nLCAnLW9tYWUnLCAnPG91dGZpbGUubWFlPic=

> <r_lp_tautomer_probability>
1

> <r_epik_Ionization_Penalty>
5.29522e-05

> <r_epik_Ionization_Penalty_Charging>
0

> <r_epik_Ionization_Penalty_Neutral>
5.29522e-05

> <r_epik_State_Penalty>
-0

> <r_epik_Charging_Adjusted_Penalty>
0

> <i_epik_Tot_Q>
0

> <i_epik_Tot_abs_Q>
0

> <r_epik_Metal_State_Penalty>
-0

> <b_epik_Metal_Only>
0

> <s_lp_Force_Field>
OPLS_2005

> <r_lp_Energy>
24.3568

> <b_lp_Chiralities_Consistent>
1

> <s_lp_Variant>
AV-unprocessed.smi:1729-1

> <Gold.Version>
5.8.1

> <Gold.Id.Protein>
6NUR|6NUR_protein|mol2

> <Gold.PLP.Fitness>
48.6039

> <Gold.PLP.PLP>
-39.2044

> <Gold.PLP.part.hbond>
-4.8548

> <Gold.PLP.part.metal>
0.0000

> <Gold.PLP.part.buried>
-1.0019

> <Gold.PLP.part.nonpolar>
-34.7684

> <Gold.PLP.part.repulsive>
1.1893

> <Gold.PLP.ligand.clash>
0.0000

> <Gold.PLP.ligand.torsion>
0.0636

> <Gold.PLP.Chemscore.Hbond>
3.1698

> <Gold.PLP.Chemscore.CHOScore>
0.0000

> <Gold.PLP.Chemscore.Metal>
0.0000

> <Gold.Chemscore.Hbonds>
donor molecule, donor type, donor heavy atom, donor atom, acceptor molecule, acceptor atom, score
      L1  H     8    28       P1  8028  1.00
      L1  H    15    19       P1  7948  0.50
      P1  H  6933  6945       L1     3  0.61
      P1  H  7989  7998       L1    10  0.05

> <Gold.PLP.Chemscore.Internal.Correction>
0.0173

> <Gold.Rescore>
     Score         DG    S(hbond)    S(metal)    S(lipo)     H(rot)  DE(clash)    DE(int)     intcor
     17.78     -21.75       2.54        0.00      88.57       1.00       1.81       2.16       ----

> <Gold.Chemscore.Fitness>
17.7836

> <Gold.Chemscore.DG>
-21.7545

> <Gold.Chemscore.ZeroCoef>
-5.4800

> <Gold.Chemscore.Hbond>
2.5365

> <Gold.Chemscore.Metal>
0.0000

> <Gold.Chemscore.Lipo>
88.5699

> <Gold.Chemscore.Internal_Hbond>
0.0000

> <Gold.Chemscore.DEClash>
1.8120

> <Gold.Chemscore.DEInternal>
2.1590

> <Gold.Chemscore.Rot>
1.0000

> <Gold.Chemscore.Internal.Correction>
   9.000000E+99

> <Gold.Chemscore.Hbonds>
donor molecule, donor type, donor heavy atom, donor atom, acceptor molecule, acceptor atom, score
      L1  H     8    28       P1  8028  0.99
      L1  H    11    29       P1  8028  0.01
      L1  H    15    19       P1  7948  0.51
      P1  H  6933  6945       L1     3  0.60
      P1  H  7989  7998       L1    10  0.01

> <Gold.Chemscore.Hbond.Weighted>
-8.4718

> <Gold.Chemscore.Metal.Weighted>
-0.0000

> <Gold.Chemscore.Lipo.Weighted>
-10.3627

> <Gold.Chemscore.Internal_Hbond.Weighted>
0.0000

> <Gold.Chemscore.DEClash.Weighted>
1.8120

> <Gold.Chemscore.DEInternal.Weighted>
2.1590

> <Gold.Chemscore.Rot.Weighted>
2.5600

> <Gold.Chemscore.Internal.Correction.Weighted>
   9.000000E+99

> <Gold.Protein.RotatedTorsions>
[ 6907 6896 6895 6894 ] final  168.37 input  -60.11 | X-H torsion
[ 7974 7965 7964 7962 ] final  -49.04 input  175.53 | X-H torsion
[ 8008 7997 7996 7995 ] final  149.69 input   59.86 | X-H torsion
[ 10167 10162 10161 10158 ] final  151.97 input  -65.29 | X-H torsion
[ 10718 10713 10712 10709 ] final   22.75 input   66.30 | X-H torsion
[ 10763 10752 10751 10750 ] final   53.64 input  -60.55 | X-H torsion
[ 11005 11000 10999 10996 ] final -106.91 input  -57.11 | X-H torsion

> <Gold.Protein.ActiveResidues>
 VAL166  LYS551  ARG553  GLY616  TRP617  ASP618  TYR619  PRO620  LYS621  CYS622 
 ASP623  PHE694  ASN695  SER759  ASP760  ASP761  ALA762  ILE779  LEU786  VAL792 
 PHE793  MET794  SER795  GLU796  ALA797  LYS798  CYS799  TRP800  GLU811  SER814 

> <Gold.Protein.RotatedAtoms>
  151.8487  133.3436  159.3666 H   0  0  0  0  0  0  0  0  0  0  0  0  # atno 6907 bound_to 6896
  150.7213  134.5320  159.5714 H   0  0  0  0  0  0  0  0  0  0  0  0  # atno 6908 bound_to 6896
  152.2809  134.7830  160.0448 H   0  0  0  0  0  0  0  0  0  0  0  0  # atno 6909 bound_to 6896
  145.9447  140.7629  142.9534 H   0  0  0  0  0  0  0  0  0  0  0  0  # atno 7974 bound_to 7965
  156.2745  140.2095  156.5898 H   0  0  0  0  0  0  0  0  0  0  0  0  # atno 8008 bound_to 7997
  154.6991  140.0522  157.0464 H   0  0  0  0  0  0  0  0  0  0  0  0  # atno 8009 bound_to 7997
  155.0759  140.3181  155.4619 H   0  0  0  0  0  0  0  0  0  0  0  0  # atno 8010 bound_to 7997
  139.4836  144.5396  151.7586 H   0  0  0  0  0  0  0  0  0  0  0  0  # atno 10167 bound_to 10162
  157.1566  130.6698  149.6030 H   0  0  0  0  0  0  0  0  0  0  0  0  # atno 10718 bound_to 10713
  152.9797  135.5772  154.4774 H   0  0  0  0  0  0  0  0  0  0  0  0  # atno 10763 bound_to 10752
  154.4327  135.2774  155.1903 H   0  0  0  0  0  0  0  0  0  0  0  0  # atno 10764 bound_to 10752
  154.3604  135.6190  153.5742 H   0  0  0  0  0  0  0  0  0  0  0  0  # atno 10765 bound_to 10752
  141.0981  133.8934  157.1912 H   0  0  0  0  0  0  0  0  0  0  0  0  # atno 11005 bound_to 11000
  144.6785  140.2338  143.7352 LP  0  0  0  0  0  0  0  0  0  0  0  0  # atno 17320 bound_to 7965
  145.8252  139.2061  143.1915 LP  0  0  0  0  0  0  0  0  0  0  0  0  # atno 17321 bound_to 7965
  140.4934  144.1276  150.5955 LP  0  0  0  0  0  0  0  0  0  0  0  0  # atno 17342 bound_to 10162
  140.4145  143.2641  151.9792 LP  0  0  0  0  0  0  0  0  0  0  0  0  # atno 17343 bound_to 10162
  155.9761  130.4726  150.6505 LP  0  0  0  0  0  0  0  0  0  0  0  0  # atno 17370 bound_to 10713
  157.4171  131.0831  151.1166 LP  0  0  0  0  0  0  0  0  0  0  0  0  # atno 17371 bound_to 10713
  139.9824  135.0094  156.9780 LP  0  0  0  0  0  0  0  0  0  0  0  0  # atno 17394 bound_to 11000
  140.5090  134.1021  155.7266 LP  0  0  0  0  0  0  0  0  0  0  0  0  # atno 17395 bound_to 11000

$$$$
