AV-unprocessed.smi:546|AV-procd|sdf|2887|dock7
  -GOLD-   2262023383D 1   1.00000     0.00000
 Structure written by MMmdl.
 51 53  0  0  0  0  0  0  0  0  2 V2000
  147.7362  133.9411  158.5436 C   0  0  0  0  0  0  0  0  0  0  0  0
  147.8732  135.4220  158.9027 C   0  0  0  0  0  0  0  0  0  0  0  0
  149.1011  135.8981  158.3829 O   0  0  0  0  0  0  0  0  0  0  0  0
  149.4208  137.2078  158.8190 C   0  0  0  0  0  0  0  0  0  0  0  0
  150.2703  137.9271  157.7603 C   0  0  0  0  0  0  0  0  0  0  0  0
  150.8712  139.1483  158.2866 N   0  0  0  0  0  0  0  0  0  0  0  0
  150.5329  140.4271  157.9840 C   0  0  0  0  0  0  0  0  0  0  0  0
  149.5437  140.7130  157.0467 N   0  0  0  0  0  0  0  0  0  0  0  0
  149.5943  140.1496  155.6997 C   0  0  0  0  0  0  0  0  0  0  0  0
  148.1967  139.8675  155.1209 C   0  0  2  0  0  0  0  0  0  0  0  0
  148.2874  139.2415  153.7227 C   0  0  0  0  0  0  0  0  0  0  0  0
  147.3757  141.1665  155.1025 C   0  0  0  0  0  0  0  0  0  0  0  0
  147.3489  141.8225  156.4930 C   0  0  1  0  0  0  0  0  0  0  0  0
  146.3858  141.1136  157.4589 C   0  0  0  0  0  0  0  0  0  0  0  0
  148.7816  141.9624  157.0571 C   0  0  0  0  0  0  0  0  0  0  0  0
  151.2347  141.3629  158.6252 N   0  0  0  0  0  0  0  0  0  0  0  0
  152.1016  140.6100  159.4035 C   0  0  0  0  0  0  0  0  0  0  0  0
  151.9091  139.2769  159.2154 C   0  0  0  0  0  0  0  0  0  0  0  0
  152.6935  138.2291  159.9054 C   0  0  0  0  0  0  0  0  0  0  0  0
  152.4931  137.0358  159.6879 O   0  0  0  0  0  0  0  0  0  0  0  0
  153.6193  138.7604  160.7652 N   0  5  0  0  0  0  0  0  0  0  0  0
  153.8454  140.1019  160.9883 C   0  0  0  0  0  0  0  0  0  0  0  0
  154.7022  140.4865  161.7844 O   0  0  0  0  0  0  0  0  0  0  0  0
  153.1043  141.0384  160.3130 N   0  0  0  0  0  0  0  0  0  0  0  0
  153.2875  142.4824  160.4888 C   0  0  0  0  0  0  0  0  0  0  0  0
  146.8029  133.5304  158.9286 H   0  0  0  0  0  0  0  0  0  0  0  0
  148.5575  133.3603  158.9642 H   0  0  0  0  0  0  0  0  0  0  0  0
  147.7456  133.7990  157.4628 H   0  0  0  0  0  0  0  0  0  0  0  0
  147.0412  135.9893  158.4833 H   0  0  0  0  0  0  0  0  0  0  0  0
  147.8480  135.5452  159.9864 H   0  0  0  0  0  0  0  0  0  0  0  0
  148.5078  137.7725  159.0121 H   0  0  0  0  0  0  0  0  0  0  0  0
  149.9748  137.1472  159.7550 H   0  0  0  0  0  0  0  0  0  0  0  0
  151.0515  137.2706  157.3812 H   0  0  0  0  0  0  0  0  0  0  0  0
  149.6577  138.1751  156.8937 H   0  0  0  0  0  0  0  0  0  0  0  0
  150.1428  140.8343  155.0514 H   0  0  0  0  0  0  0  0  0  0  0  0
  150.1707  139.2240  155.7293 H   0  0  0  0  0  0  0  0  0  0  0  0
  147.6980  139.1457  155.7688 H   0  0  0  0  0  0  0  0  0  0  0  0
  148.7841  139.9108  153.0193 H   0  0  0  0  0  0  0  0  0  0  0  0
  147.2960  139.0186  153.3273 H   0  0  0  0  0  0  0  0  0  0  0  0
  148.8496  138.3076  153.7477 H   0  0  0  0  0  0  0  0  0  0  0  0
  147.8209  141.8626  154.3901 H   0  0  0  0  0  0  0  0  0  0  0  0
  146.3612  140.9766  154.7498 H   0  0  0  0  0  0  0  0  0  0  0  0
  146.9546  142.8315  156.3653 H   0  0  0  0  0  0  0  0  0  0  0  0
  146.7051  140.0960  157.6795 H   0  0  0  0  0  0  0  0  0  0  0  0
  145.3814  141.0590  157.0384 H   0  0  0  0  0  0  0  0  0  0  0  0
  146.3120  141.6540  158.4026 H   0  0  0  0  0  0  0  0  0  0  0  0
  148.7436  142.3521  158.0751 H   0  0  0  0  0  0  0  0  0  0  0  0
  149.3340  142.6981  156.4712 H   0  0  0  0  0  0  0  0  0  0  0  0
  154.1074  142.7554  161.1536 H   0  0  0  0  0  0  0  0  0  0  0  0
  152.3766  142.9238  160.8938 H   0  0  0  0  0  0  0  0  0  0  0  0
  153.4860  142.9511  159.5245 H   0  0  0  0  0  0  0  0  0  0  0  0
  1  2  1  0  0  0  0
  1 26  1  0  0  0  0
  1 27  1  0  0  0  0
  1 28  1  0  0  0  0
  2  3  1  0  0  0  0
  2 29  1  0  0  0  0
  2 30  1  0  0  0  0
  3  4  1  0  0  0  0
  4  5  1  0  0  0  0
  4 31  1  0  0  0  0
  4 32  1  0  0  0  0
  5  6  1  0  0  0  0
  5 33  1  0  0  0  0
  5 34  1  0  0  0  0
  6 18  1  0  0  0  0
  6  7  1  0  0  0  0
  7  8  1  0  0  0  0
  7 16  2  0  0  0  0
  8 15  1  0  0  0  0
  8  9  1  0  0  0  0
  9 10  1  0  0  0  0
  9 35  1  0  0  0  0
  9 36  1  0  0  0  0
 10 11  1  0  0  0  0
 10 12  1  0  0  0  0
 10 37  1  0  0  0  0
 11 38  1  0  0  0  0
 11 39  1  0  0  0  0
 11 40  1  0  0  0  0
 12 13  1  0  0  0  0
 12 41  1  0  0  0  0
 12 42  1  0  0  0  0
 13 14  1  0  0  0  0
 13 15  1  0  0  0  0
 13 43  1  0  0  0  0
 14 44  1  0  0  0  0
 14 45  1  0  0  0  0
 14 46  1  0  0  0  0
 15 47  1  0  0  0  0
 15 48  1  0  0  0  0
 16 17  1  0  0  0  0
 17 24  1  0  0  0  0
 17 18  2  0  0  0  0
 18 19  1  0  0  0  0
 19 20  2  0  0  0  0
 19 21  1  0  0  0  0
 21 22  1  0  0  0  0
 22 23  2  0  0  0  0
 22 24  1  0  0  0  0
 24 25  1  0  0  0  0
 25 49  1  0  0  0  0
 25 50  1  0  0  0  0
 25 51  1  0  0  0  0
M  CHG  1  21  -1
M  END
> <s_m_source_file>
AV-unprocessed.smi

> <i_m_source_file_index>
546

> <i_lp_mmshare_version>
43012

> <i_f3d_flags>
0

> <s_epik_input>
W0NIM11uMWMoPU8pW25IXWMoPU8pYyhjMTIpbihbQ0gyXVtDSDJdT1tDSDJdW0NIM10pYyhuMilOM1tDSDJdW0NAQEhdKFtDSDNdKVtDSDJdW0NAQEhdKFtDSDNdKVtDSDJdMw==

> <s_epik_cmdline>
J2VwaWtfcHl0aG9uJywgJy1waCcsICc3LjAnLCAnLXRuJywgJzgnLCAnLW1hJywgJzIwMCcsICctbWV0YWxfYmluZGluZycsICctaW1hZScsICc8aW5maWxlLm1hZT4nLCAnLW9tYWUnLCAnPG91dGZpbGUubWFlPic=

> <r_lp_tautomer_probability>
1

> <r_epik_Ionization_Penalty>
5.12825

> <r_epik_Ionization_Penalty_Charging>
0.0743105

> <r_epik_Ionization_Penalty_Neutral>
5.05394

> <r_epik_State_Penalty>
5.04406

> <r_epik_Charging_Adjusted_Penalty>
5.11837

> <i_epik_Tot_Q>
-1

> <i_epik_Tot_abs_Q>
1

> <r_epik_Metal_State_Penalty>
1.15122

> <b_epik_Metal_Only>
1

> <s_lp_Force_Field>
OPLS_2005

> <r_lp_Energy>
46.3243

> <b_lp_Chiralities_Consistent>
1

> <s_lp_Variant>
AV-unprocessed.smi:546-5

> <Gold.Version>
5.8.1

> <Gold.Id.Protein>
6NUR|6NUR_protein|mol2

> <Gold.PLP.Fitness>
37.6517

> <Gold.PLP.PLP>
-32.7447

> <Gold.PLP.part.hbond>
-2.3068

> <Gold.PLP.part.metal>
0.0000

> <Gold.PLP.part.buried>
0.0561

> <Gold.PLP.part.nonpolar>
-30.4531

> <Gold.PLP.part.repulsive>
0.0000

> <Gold.PLP.ligand.clash>
0.0000

> <Gold.PLP.ligand.torsion>
0.9952

> <Gold.PLP.Chemscore.Hbond>
2.0000

> <Gold.PLP.Chemscore.CHOScore>
0.0000

> <Gold.PLP.Chemscore.Metal>
0.0000

> <Gold.Chemscore.Hbonds>
donor molecule, donor type, donor heavy atom, donor atom, acceptor molecule, acceptor atom, score
      P1  H  6896  6907       L1    20  0.68
      P1  H  6896  6909       L1     3  0.10

> <Gold.PLP.Chemscore.Internal.Correction>
0.8974

> <Gold.Rescore>
     Score         DG    S(hbond)    S(metal)    S(lipo)     H(rot)  DE(clash)    DE(int)     intcor
      9.08     -13.57       1.00        0.00      73.93       1.52       2.83       1.67       ----

> <Gold.Chemscore.Fitness>
9.0766

> <Gold.Chemscore.DG>
-13.5713

> <Gold.Chemscore.ZeroCoef>
-5.4800

> <Gold.Chemscore.Hbond>
0.9981

> <Gold.Chemscore.Metal>
0.0000

> <Gold.Chemscore.Lipo>
73.9332

> <Gold.Chemscore.Internal_Hbond>
0.0000

> <Gold.Chemscore.DEClash>
2.8259

> <Gold.Chemscore.DEInternal>
1.6688

> <Gold.Chemscore.Rot>
1.5206

> <Gold.Chemscore.Internal.Correction>
   9.000000E+99

> <Gold.Chemscore.Hbonds>
donor molecule, donor type, donor heavy atom, donor atom, acceptor molecule, acceptor atom, score
      P1  H  6896  6907       L1    20  0.65
      P1  H  6896  6909       L1     3  0.02

> <Gold.Chemscore.Hbond.Weighted>
-3.3337

> <Gold.Chemscore.Metal.Weighted>
-0.0000

> <Gold.Chemscore.Lipo.Weighted>
-8.6502

> <Gold.Chemscore.Internal_Hbond.Weighted>
0.0000

> <Gold.Chemscore.DEClash.Weighted>
2.8259

> <Gold.Chemscore.DEInternal.Weighted>
1.6688

> <Gold.Chemscore.Rot.Weighted>
3.8926

> <Gold.Chemscore.Internal.Correction.Weighted>
   9.000000E+99

> <Gold.Protein.RotatedTorsions>
[ 6907 6896 6895 6894 ] final   39.76 input  -60.11 | X-H torsion
[ 7974 7965 7964 7962 ] final  173.49 input  175.53 | X-H torsion
[ 8008 7997 7996 7995 ] final  -64.59 input   59.86 | X-H torsion
[ 10167 10162 10161 10158 ] final -154.31 input  -65.29 | X-H torsion
[ 10718 10713 10712 10709 ] final  127.95 input   66.30 | X-H torsion
[ 10763 10752 10751 10750 ] final  165.74 input  -60.55 | X-H torsion
[ 11005 11000 10999 10996 ] final  161.38 input  -57.11 | X-H torsion

> <Gold.Protein.ActiveResidues>
 VAL166  LYS551  ARG553  GLY616  TRP617  ASP618  TYR619  PRO620  LYS621  CYS622 
 ASP623  PHE694  ASN695  SER759  ASP760  ASP761  ALA762  ILE779  LEU786  VAL792 
 PHE793  MET794  SER795  GLU796  ALA797  LYS798  CYS799  TRP800  GLU811  SER814 

> <Gold.Protein.RotatedAtoms>
  152.1737  134.8812  160.0532 H   0  0  0  0  0  0  0  0  0  0  0  0  # atno 6907 bound_to 6896
  151.9762  133.3737  159.4098 H   0  0  0  0  0  0  0  0  0  0  0  0  # atno 6908 bound_to 6896
  150.6906  134.4010  159.5163 H   0  0  0  0  0  0  0  0  0  0  0  0  # atno 6909 bound_to 6896
  144.7242  139.9656  143.6436 H   0  0  0  0  0  0  0  0  0  0  0  0  # atno 7974 bound_to 7965
  154.4621  140.0950  156.6921 H   0  0  0  0  0  0  0  0  0  0  0  0  # atno 8008 bound_to 7997
  155.4964  140.3472  155.4345 H   0  0  0  0  0  0  0  0  0  0  0  0  # atno 8009 bound_to 7997
  156.0889  140.1392  156.9606 H   0  0  0  0  0  0  0  0  0  0  0  0  # atno 8010 bound_to 7997
  139.7024  143.9242  152.2434 H   0  0  0  0  0  0  0  0  0  0  0  0  # atno 10167 bound_to 10162
  157.5288  131.1098  150.9042 H   0  0  0  0  0  0  0  0  0  0  0  0  # atno 10718 bound_to 10713
  154.3286  135.2755  155.2483 H   0  0  0  0  0  0  0  0  0  0  0  0  # atno 10763 bound_to 10752
  154.4805  135.5859  153.6389 H   0  0  0  0  0  0  0  0  0  0  0  0  # atno 10764 bound_to 10752
  152.9869  135.6110  154.3476 H   0  0  0  0  0  0  0  0  0  0  0  0  # atno 10765 bound_to 10752
  140.2152  134.8238  157.3163 H   0  0  0  0  0  0  0  0  0  0  0  0  # atno 11005 bound_to 11000
  146.0603  139.3597  143.0585 LP  0  0  0  0  0  0  0  0  0  0  0  0  # atno 17320 bound_to 7965
  145.8101  140.9730  143.0953 LP  0  0  0  0  0  0  0  0  0  0  0  0  # atno 17321 bound_to 7965
  139.9088  144.6869  150.8585 LP  0  0  0  0  0  0  0  0  0  0  0  0  # atno 17342 bound_to 10162
  140.7713  143.3459  151.2112 LP  0  0  0  0  0  0  0  0  0  0  0  0  # atno 17343 bound_to 10162
  156.9629  130.5462  149.5287 LP  0  0  0  0  0  0  0  0  0  0  0  0  # atno 17370 bound_to 10713
  156.0407  130.5489  150.8762 LP  0  0  0  0  0  0  0  0  0  0  0  0  # atno 17371 bound_to 10713
  140.1908  134.4374  155.7717 LP  0  0  0  0  0  0  0  0  0  0  0  0  # atno 17394 bound_to 11000
  141.2225  133.7026  156.8024 LP  0  0  0  0  0  0  0  0  0  0  0  0  # atno 17395 bound_to 11000

$$$$
