AV-unprocessed.smi:847|AV-procd|sdf|3938|dock3
  -GOLD-   22720 1403D 1   1.00000     0.00000
 Structure written by MMmdl.
 46 47  0  0  0  0  0  0  0  0  1 V2000
  153.1988  142.2581  162.3657 C   0  0  0  0  0  0  0  0  0  0  0  0
  152.0811  142.6720  161.5999 O   0  0  0  0  0  0  0  0  0  0  0  0
  152.4491  143.4785  160.4933 C   0  0  0  0  0  0  0  0  0  0  0  0
  152.7106  142.5805  159.2807 C   0  0  0  0  0  0  0  0  0  0  0  0
  151.4704  142.3149  158.6323 O   0  0  0  0  0  0  0  0  0  0  0  0
  151.1358  141.0043  158.3611 C   0  0  0  0  0  0  0  0  0  0  0  0
  150.1618  140.7490  157.3748 C   0  0  0  0  0  0  0  0  0  0  0  0
  149.8198  139.4140  157.0884 C   0  0  0  0  0  0  0  0  0  0  0  0
  150.4610  138.3780  157.7989 C   0  0  0  0  0  0  0  0  0  0  0  0
  150.1442  136.9204  157.5147 C   0  0  0  0  0  0  0  0  0  0  0  0
  148.8715  136.5104  158.0963 N   0  0  0  0  0  0  0  0  0  0  0  0
  148.5274  135.2507  158.4034 C   0  0  0  0  0  0  0  0  0  0  0  0
  149.2382  134.2745  158.1598 O   0  0  0  0  0  0  0  0  0  0  0  0
  147.1645  135.0662  159.0972 C   0  0  1  0  0  0  0  0  0  0  0  0
  146.5817  133.6821  158.7699 C   0  0  0  0  0  0  0  0  0  0  0  0
  145.7453  133.3197  159.9826 C   0  0  0  0  0  0  0  0  0  0  0  0
  146.4269  134.0284  161.1523 C   0  0  0  0  0  0  0  0  0  0  0  0
  147.2072  135.1245  160.5720 N   0  0  0  0  0  0  0  0  0  0  0  0
  147.8209  136.0782  161.3156 C   0  0  0  0  0  0  0  0  0  0  0  0
  147.7882  135.9499  162.8405 C   0  0  0  0  0  0  0  0  0  0  0  0
  148.3931  137.0512  160.8239 O   0  0  0  0  0  0  0  0  0  0  0  0
  151.4201  138.7345  158.7697 C   0  0  0  0  0  0  0  0  0  0  0  0
  151.7538  140.0122  159.0502 N   0  0  0  0  0  0  0  0  0  0  0  0
  146.4710  135.8407  158.7644 H   0  0  0  0  0  0  0  0  0  0  0  0
  152.8635  141.6427  163.2005 H   0  0  0  0  0  0  0  0  0  0  0  0
  153.7368  143.1147  162.7737 H   0  0  0  0  0  0  0  0  0  0  0  0
  153.8896  141.6640  161.7657 H   0  0  0  0  0  0  0  0  0  0  0  0
  151.6343  144.1674  160.2664 H   0  0  0  0  0  0  0  0  0  0  0  0
  153.3321  144.0778  160.7210 H   0  0  0  0  0  0  0  0  0  0  0  0
  153.4198  143.0592  158.6032 H   0  0  0  0  0  0  0  0  0  0  0  0
  153.1511  141.6414  159.6198 H   0  0  0  0  0  0  0  0  0  0  0  0
  149.6889  141.5623  156.8442 H   0  0  0  0  0  0  0  0  0  0  0  0
  149.0806  139.1927  156.3331 H   0  0  0  0  0  0  0  0  0  0  0  0
  150.0936  136.7611  156.4372 H   0  0  0  0  0  0  0  0  0  0  0  0
  150.9613  136.2937  157.8763 H   0  0  0  0  0  0  0  0  0  0  0  0
  148.2206  137.2470  158.3278 H   0  0  0  0  0  0  0  0  0  0  0  0
  145.9975  133.6835  157.8493 H   0  0  0  0  0  0  0  0  0  0  0  0
  147.3711  132.9367  158.6557 H   0  0  0  0  0  0  0  0  0  0  0  0
  144.7387  133.7204  159.8557 H   0  0  0  0  0  0  0  0  0  0  0  0
  145.6563  132.2435  160.1333 H   0  0  0  0  0  0  0  0  0  0  0  0
  145.6889  134.3807  161.8743 H   0  0  0  0  0  0  0  0  0  0  0  0
  147.1030  133.3412  161.6632 H   0  0  0  0  0  0  0  0  0  0  0  0
  148.1873  134.9867  163.1589 H   0  0  0  0  0  0  0  0  0  0  0  0
  146.7696  136.0505  163.2153 H   0  0  0  0  0  0  0  0  0  0  0  0
  148.3930  136.7299  163.3040 H   0  0  0  0  0  0  0  0  0  0  0  0
  151.9405  137.9750  159.3345 H   0  0  0  0  0  0  0  0  0  0  0  0
  1  2  1  0  0  0  0
  1 25  1  0  0  0  0
  1 26  1  0  0  0  0
  1 27  1  0  0  0  0
  2  3  1  0  0  0  0
  3  4  1  0  0  0  0
  3 28  1  0  0  0  0
  3 29  1  0  0  0  0
  4  5  1  0  0  0  0
  4 30  1  0  0  0  0
  4 31  1  0  0  0  0
  5  6  1  0  0  0  0
  6 23  1  0  0  0  0
  6  7  2  0  0  0  0
  7  8  1  0  0  0  0
  7 32  1  0  0  0  0
  8  9  2  0  0  0  0
  8 33  1  0  0  0  0
  9 10  1  0  0  0  0
  9 22  1  0  0  0  0
 10 11  1  0  0  0  0
 10 34  1  0  0  0  0
 10 35  1  0  0  0  0
 11 12  1  0  0  0  0
 11 36  1  0  0  0  0
 12 13  2  0  0  0  0
 12 14  1  0  0  0  0
 14 24  1  0  0  0  0
 14 18  1  0  0  0  0
 14 15  1  0  0  0  0
 15 16  1  0  0  0  0
 15 37  1  0  0  0  0
 15 38  1  0  0  0  0
 16 17  1  0  0  0  0
 16 39  1  0  0  0  0
 16 40  1  0  0  0  0
 17 18  1  0  0  0  0
 17 41  1  0  0  0  0
 17 42  1  0  0  0  0
 18 19  1  0  0  0  0
 19 20  1  0  0  0  0
 19 21  2  0  0  0  0
 20 43  1  0  0  0  0
 20 44  1  0  0  0  0
 20 45  1  0  0  0  0
 22 23  2  0  0  0  0
 22 46  1  0  0  0  0
M  END
> <s_m_source_file>
AV-unprocessed.smi

> <i_m_source_file_index>
847

> <i_lp_mmshare_version>
43012

> <i_f3d_flags>
0

> <s_epik_input>
W0NIM11PW0NIMl1bQ0gyXU9jMVtjSF1bY0hdYyhbY0hdbjEpW0NIMl1bTkhdQyg9TylbQ0BASF0yW0NIMl1bQ0gyXVtDSDJdTjJDKD1PKVtDSDNd

> <s_epik_cmdline>
J2VwaWtfcHl0aG9uJywgJy1waCcsICc3LjAnLCAnLXRuJywgJzgnLCAnLW1hJywgJzIwMCcsICctbWV0YWxfYmluZGluZycsICctaW1hZScsICc8aW5maWxlLm1hZT4nLCAnLW9tYWUnLCAnPG91dGZpbGUubWFlPic=

> <r_lp_tautomer_probability>
1

> <r_epik_Ionization_Penalty>
6.04138e-05

> <r_epik_Ionization_Penalty_Charging>
0

> <r_epik_Ionization_Penalty_Neutral>
6.04138e-05

> <r_epik_State_Penalty>
-0

> <r_epik_Charging_Adjusted_Penalty>
0

> <i_epik_Tot_Q>
0

> <i_epik_Tot_abs_Q>
0

> <r_epik_Metal_State_Penalty>
-0

> <b_epik_Metal_Only>
0

> <s_lp_Force_Field>
OPLS_2005

> <r_lp_Energy>
14.1261

> <b_lp_Chiralities_Consistent>
1

> <s_lp_Variant>
AV-unprocessed.smi:847-2

> <Gold.Version>
5.8.1

> <Gold.Id.Protein>
6NUR|6NUR_protein|mol2

> <Gold.PLP.Fitness>
40.3488

> <Gold.PLP.PLP>
-36.2830

> <Gold.PLP.part.hbond>
-3.9737

> <Gold.PLP.part.metal>
0.0000

> <Gold.PLP.part.buried>
-5.6943

> <Gold.PLP.part.nonpolar>
-27.1502

> <Gold.PLP.part.repulsive>
0.2484

> <Gold.PLP.ligand.clash>
0.0000

> <Gold.PLP.ligand.torsion>
2.0878

> <Gold.PLP.Chemscore.Hbond>
2.6657

> <Gold.PLP.Chemscore.CHOScore>
0.0000

> <Gold.PLP.Chemscore.Metal>
0.0000

> <Gold.Chemscore.Hbonds>
donor molecule, donor type, donor heavy atom, donor atom, acceptor molecule, acceptor atom, score
      P1  H  6896  6907       L1    13  1.00
      P1  H  6931  6943       L1    21  0.94
      P1  H  6933  6945       L1     2  0.21
      P1  H  6934  6947       L1    21  0.19

> <Gold.PLP.Chemscore.Internal.Correction>
0.2442

> <Gold.Rescore>
     Score         DG    S(hbond)    S(metal)    S(lipo)     H(rot)  DE(clash)    DE(int)     intcor
     14.08     -17.22       2.87        0.00      69.03       2.31       0.03       3.11       ----

> <Gold.Chemscore.Fitness>
14.0831

> <Gold.Chemscore.DG>
-17.2224

> <Gold.Chemscore.ZeroCoef>
-5.4800

> <Gold.Chemscore.Hbond>
2.8650

> <Gold.Chemscore.Metal>
0.0000

> <Gold.Chemscore.Lipo>
69.0347

> <Gold.Chemscore.Internal_Hbond>
0.0000

> <Gold.Chemscore.DEClash>
0.0279

> <Gold.Chemscore.DEInternal>
3.1113

> <Gold.Chemscore.Rot>
2.3062

> <Gold.Chemscore.Internal.Correction>
   9.000000E+99

> <Gold.Chemscore.Hbonds>
donor molecule, donor type, donor heavy atom, donor atom, acceptor molecule, acceptor atom, score
      P1  H  6896  6907       L1    13  0.82
      P1  H  6931  6943       L1    21  0.88
      P1  H  6933  6945       L1     2  0.19
      P1  H  6934  6947       L1    21  0.17

> <Gold.Chemscore.Hbond.Weighted>
-9.5692

> <Gold.Chemscore.Metal.Weighted>
-0.0000

> <Gold.Chemscore.Lipo.Weighted>
-8.0771

> <Gold.Chemscore.Internal_Hbond.Weighted>
0.0000

> <Gold.Chemscore.DEClash.Weighted>
0.0279

> <Gold.Chemscore.DEInternal.Weighted>
3.1113

> <Gold.Chemscore.Rot.Weighted>
5.9038

> <Gold.Chemscore.Internal.Correction.Weighted>
   9.000000E+99

> <Gold.Protein.RotatedTorsions>
[ 6907 6896 6895 6894 ] final  -99.40 input  -60.11 | X-H torsion
[ 7974 7965 7964 7962 ] final   73.11 input  175.53 | X-H torsion
[ 8008 7997 7996 7995 ] final  129.88 input   59.86 | X-H torsion
[ 10167 10162 10161 10158 ] final   -5.14 input  -65.29 | X-H torsion
[ 10718 10713 10712 10709 ] final  -80.11 input   66.30 | X-H torsion
[ 10763 10752 10751 10750 ] final -132.25 input  -60.55 | X-H torsion
[ 11005 11000 10999 10996 ] final  -51.67 input  -57.11 | X-H torsion

> <Gold.Protein.ActiveResidues>
 VAL166  LYS551  ARG553  GLY616  TRP617  ASP618  TYR619  PRO620  LYS621  CYS622 
 ASP623  PHE694  ASN695  SER759  ASP760  ASP761  ALA762  ILE779  LEU786  VAL792 
 PHE793  MET794  SER795  GLU796  ALA797  LYS798  CYS799  TRP800  GLU811  SER814 

> <Gold.Protein.RotatedAtoms>
  150.7079  134.1046  159.3977 H   0  0  0  0  0  0  0  0  0  0  0  0  # atno 6907 bound_to 6896
  151.9032  135.0367  160.0517 H   0  0  0  0  0  0  0  0  0  0  0  0  # atno 6908 bound_to 6896
  152.2397  133.5089  159.5299 H   0  0  0  0  0  0  0  0  0  0  0  0  # atno 6909 bound_to 6896
  145.7450  139.2736  143.1464 H   0  0  0  0  0  0  0  0  0  0  0  0  # atno 7974 bound_to 7965
  156.2944  140.2609  156.2671 H   0  0  0  0  0  0  0  0  0  0  0  0  # atno 8008 bound_to 7997
  154.9731  140.0391  157.2262 H   0  0  0  0  0  0  0  0  0  0  0  0  # atno 8009 bound_to 7997
  154.7840  140.2800  155.6046 H   0  0  0  0  0  0  0  0  0  0  0  0  # atno 8010 bound_to 7997
  140.6953  143.6342  150.8495 H   0  0  0  0  0  0  0  0  0  0  0  0  # atno 10167 bound_to 10162
  156.0077  130.4565  150.3750 H   0  0  0  0  0  0  0  0  0  0  0  0  # atno 10718 bound_to 10713
  154.8744  135.3804  154.4380 H   0  0  0  0  0  0  0  0  0  0  0  0  # atno 10763 bound_to 10752
  153.5067  135.7030  153.5807 H   0  0  0  0  0  0  0  0  0  0  0  0  # atno 10764 bound_to 10752
  153.4115  135.3923  155.2020 H   0  0  0  0  0  0  0  0  0  0  0  0  # atno 10765 bound_to 10752
  141.0883  133.6638  156.3911 H   0  0  0  0  0  0  0  0  0  0  0  0  # atno 11005 bound_to 11000
  146.0412  140.8163  142.9828 LP  0  0  0  0  0  0  0  0  0  0  0  0  # atno 17320 bound_to 7965
  144.6862  140.2912  143.7277 LP  0  0  0  0  0  0  0  0  0  0  0  0  # atno 17321 bound_to 7965
  140.0059  143.5694  152.2858 LP  0  0  0  0  0  0  0  0  0  0  0  0  # atno 17342 bound_to 10162
  139.6400  144.7654  151.2358 LP  0  0  0  0  0  0  0  0  0  0  0  0  # atno 17343 bound_to 10162
  157.1833  131.0397  151.2737 LP  0  0  0  0  0  0  0  0  0  0  0  0  # atno 17370 bound_to 10713
  157.4126  130.7393  149.6851 LP  0  0  0  0  0  0  0  0  0  0  0  0  # atno 17371 bound_to 10713
  140.5311  134.6211  157.5350 LP  0  0  0  0  0  0  0  0  0  0  0  0  # atno 17394 bound_to 11000
  139.9705  134.7301  156.0052 LP  0  0  0  0  0  0  0  0  0  0  0  0  # atno 17395 bound_to 11000

$$$$
