AV-unprocessed.smi:1120|AV-procd|sdf|4821|dock9
  -GOLD-   22720 3383D 1   1.00000     0.00000
 Structure written by MMmdl.
 49 50  0  0  0  0  0  0  0  0  2 V2000
  153.0222  143.9093  161.8190 C   0  0  0  0  0  0  0  0  0  0  0  0
  153.0199  143.2511  160.4322 C   0  0  2  0  0  0  0  0  0  0  0  0
  151.6380  143.3558  159.7626 C   0  0  0  0  0  0  0  0  0  0  0  0
  151.6303  142.7191  158.3626 C   0  0  0  0  0  0  0  0  0  0  0  0
  152.1487  141.2676  158.3687 C   0  0  2  0  0  0  0  0  0  0  0  0
  151.1412  140.3549  158.9188 N   0  0  0  0  0  0  0  0  0  0  0  0
  150.1506  139.3818  157.8950 S   0  0  0  0  0  0  0  0  0  0  0  0
  148.7713  139.4529  158.4017 O   0  0  0  0  0  0  0  0  0  0  0  0
  150.4439  139.7708  156.5070 O   0  0  0  0  0  0  0  0  0  0  0  0
  150.8040  137.6780  158.1766 C   0  0  0  0  0  0  0  0  0  0  0  0
  149.8863  136.6543  157.5120 C   0  0  0  0  0  0  0  0  0  0  0  0
  149.4468  135.7083  158.1642 O   0  0  0  0  0  0  0  0  0  0  0  0
  149.6014  136.8526  156.2158 N   0  0  0  0  0  0  0  0  0  0  0  0
  148.7467  135.9941  155.4010 C   0  0  0  0  0  0  0  0  0  0  0  0
  149.4970  134.8131  154.7504 C   0  0  0  0  0  0  0  0  0  0  0  0
  148.5853  133.7157  154.2282 C   0  0  0  0  0  0  0  0  0  0  0  0
  148.6615  132.3894  154.7052 C   0  0  0  0  0  0  0  0  0  0  0  0
  147.7992  131.4122  154.1653 C   0  0  0  0  0  0  0  0  0  0  0  0
  146.8800  131.7807  153.1611 C   0  0  0  0  0  0  0  0  0  0  0  0
  146.8453  133.1198  152.7228 C   0  0  0  0  0  0  0  0  0  0  0  0
  147.6886  134.0261  153.2637 N   0  3  0  0  0  0  0  0  0  0  0  0
  153.4847  141.1155  159.1205 C   0  0  0  0  0  0  0  0  0  0  0  0
  153.4618  141.7786  160.5081 C   0  0  0  0  0  0  0  0  0  0  0  0
  152.3207  143.4171  162.4932 H   0  0  0  0  0  0  0  0  0  0  0  0
  152.7407  144.9606  161.7554 H   0  0  0  0  0  0  0  0  0  0  0  0
  154.0118  143.8609  162.2747 H   0  0  0  0  0  0  0  0  0  0  0  0
  153.7385  143.7889  159.8120 H   0  0  0  0  0  0  0  0  0  0  0  0
  150.8880  142.8693  160.3877 H   0  0  0  0  0  0  0  0  0  0  0  0
  151.3399  144.4020  159.6854 H   0  0  0  0  0  0  0  0  0  0  0  0
  150.6289  142.7695  157.9342 H   0  0  0  0  0  0  0  0  0  0  0  0
  152.2674  143.3144  157.7075 H   0  0  0  0  0  0  0  0  0  0  0  0
  152.3246  140.9729  157.3337 H   0  0  0  0  0  0  0  0  0  0  0  0
  150.6947  140.6610  159.7832 H   0  0  0  0  0  0  0  0  0  0  0  0
  151.8158  137.6126  157.7758 H   0  0  0  0  0  0  0  0  0  0  0  0
  150.8500  137.4932  159.2498 H   0  0  0  0  0  0  0  0  0  0  0  0
  150.0068  137.6570  155.7581 H   0  0  0  0  0  0  0  0  0  0  0  0
  147.9648  135.6059  156.0544 H   0  0  0  0  0  0  0  0  0  0  0  0
  148.2410  136.5875  154.6377 H   0  0  0  0  0  0  0  0  0  0  0  0
  150.1124  135.1811  153.9285 H   0  0  0  0  0  0  0  0  0  0  0  0
  150.1925  134.3780  155.4693 H   0  0  0  0  0  0  0  0  0  0  0  0
  149.3737  132.1222  155.4724 H   0  0  0  0  0  0  0  0  0  0  0  0
  147.8439  130.3913  154.5156 H   0  0  0  0  0  0  0  0  0  0  0  0
  146.2127  131.0473  152.7326 H   0  0  0  0  0  0  0  0  0  0  0  0
  146.1789  133.4904  151.9576 H   0  0  0  0  0  0  0  0  0  0  0  0
  153.7540  140.0623  159.2092 H   0  0  0  0  0  0  0  0  0  0  0  0
  154.2746  141.5787  158.5280 H   0  0  0  0  0  0  0  0  0  0  0  0
  154.4528  141.7095  160.9579 H   0  0  0  0  0  0  0  0  0  0  0  0
  152.7885  141.2253  161.1642 H   0  0  0  0  0  0  0  0  0  0  0  0
  147.6498  134.9883  152.9256 H   0  0  0  0  0  0  0  0  0  0  0  0
  1  2  1  0  0  0  0
  1 24  1  0  0  0  0
  1 25  1  0  0  0  0
  1 26  1  0  0  0  0
  2 23  1  0  0  0  0
  2  3  1  0  0  0  0
  2 27  1  0  0  0  0
  3  4  1  0  0  0  0
  3 28  1  0  0  0  0
  3 29  1  0  0  0  0
  4  5  1  0  0  0  0
  4 30  1  0  0  0  0
  4 31  1  0  0  0  0
  5  6  1  0  0  0  0
  5 22  1  0  0  0  0
  5 32  1  0  0  0  0
  6  7  1  0  0  0  0
  6 33  1  0  0  0  0
  7  8  2  0  0  0  0
  7  9  2  0  0  0  0
  7 10  1  0  0  0  0
 10 11  1  0  0  0  0
 10 34  1  0  0  0  0
 10 35  1  0  0  0  0
 11 12  2  0  0  0  0
 11 13  1  0  0  0  0
 13 14  1  0  0  0  0
 13 36  1  0  0  0  0
 14 15  1  0  0  0  0
 14 37  1  0  0  0  0
 14 38  1  0  0  0  0
 15 16  1  0  0  0  0
 15 39  1  0  0  0  0
 15 40  1  0  0  0  0
 16 21  1  0  0  0  0
 16 17  2  0  0  0  0
 17 18  1  0  0  0  0
 17 41  1  0  0  0  0
 18 19  2  0  0  0  0
 18 42  1  0  0  0  0
 19 20  1  0  0  0  0
 19 43  1  0  0  0  0
 20 21  2  0  0  0  0
 20 44  1  0  0  0  0
 21 49  1  0  0  0  0
 22 23  1  0  0  0  0
 22 45  1  0  0  0  0
 22 46  1  0  0  0  0
 23 47  1  0  0  0  0
 23 48  1  0  0  0  0
M  CHG  1  21   1
M  END
> <s_m_source_file>
AV-unprocessed.smi

> <i_m_source_file_index>
1120

> <i_lp_mmshare_version>
43012

> <i_f3d_flags>
0

> <s_epik_input>
W0NIM11bQ0BASF0xW0NIMl1bQ0gyXVtDQEhdKFtDSDJdW0NIMl0xKVtOSF1TKD1PKSg9TylbQ0gyXUMoPU8pW05IXVtDSDJdW0NIMl1jMltjSF1bY0hdW2NIXVtjSF1uMg==

> <s_epik_cmdline>
J2VwaWtfcHl0aG9uJywgJy1waCcsICc3LjAnLCAnLXRuJywgJzgnLCAnLW1hJywgJzIwMCcsICctbWV0YWxfYmluZGluZycsICctaW1hZScsICc8aW5maWxlLm1hZT4nLCAnLW9tYWUnLCAnPG91dGZpbGUubWFlPic=

> <r_epik_Ionization_Penalty>
1.97387

> <r_epik_Ionization_Penalty_Charging>
1.97382

> <r_epik_Ionization_Penalty_Neutral>
4.57635e-05

> <r_epik_State_Penalty>
2.10057

> <r_epik_Charging_Adjusted_Penalty>
4.07439

> <i_epik_Tot_Q>
1

> <i_epik_Tot_abs_Q>
1

> <r_epik_Metal_State_Penalty>
2.15877

> <b_epik_Metal_Only>
0

> <s_lp_Force_Field>
OPLS_2005

> <r_lp_Energy>
8.31708

> <b_lp_Chiralities_Consistent>
1

> <s_lp_Variant>
AV-unprocessed.smi:1120-4

> <Gold.Version>
5.8.1

> <Gold.Id.Protein>
6NUR|6NUR_protein|mol2

> <Gold.PLP.Fitness>
47.4906

> <Gold.PLP.PLP>
-39.6618

> <Gold.PLP.part.hbond>
-2.7144

> <Gold.PLP.part.metal>
0.0000

> <Gold.PLP.part.buried>
-4.2728

> <Gold.PLP.part.nonpolar>
-32.2752

> <Gold.PLP.part.repulsive>
0.2343

> <Gold.PLP.ligand.clash>
0.0000

> <Gold.PLP.ligand.torsion>
1.1744

> <Gold.PLP.Chemscore.Hbond>
3.0000

> <Gold.PLP.Chemscore.CHOScore>
0.0000

> <Gold.PLP.Chemscore.Metal>
0.0000

> <Gold.Chemscore.Hbonds>
donor molecule, donor type, donor heavy atom, donor atom, acceptor molecule, acceptor atom, score
      L1  H    21    49       P1  7948  1.22
      P1  H  6896  6907       L1    12  0.60

> <Gold.PLP.Chemscore.Internal.Correction>
1.1777

> <Gold.Rescore>
     Score         DG    S(hbond)    S(metal)    S(lipo)     H(rot)  DE(clash)    DE(int)     intcor
     17.43     -18.67       1.64        0.00     110.63       2.05       0.12       1.12       ----

> <Gold.Chemscore.Fitness>
17.4310

> <Gold.Chemscore.DG>
-18.6746

> <Gold.Chemscore.ZeroCoef>
-5.4800

> <Gold.Chemscore.Hbond>
1.6435

> <Gold.Chemscore.Metal>
0.0000

> <Gold.Chemscore.Lipo>
110.6319

> <Gold.Chemscore.Internal_Hbond>
0.0000

> <Gold.Chemscore.DEClash>
0.1218

> <Gold.Chemscore.DEInternal>
1.1219

> <Gold.Chemscore.Rot>
2.0463

> <Gold.Chemscore.Internal.Correction>
   9.000000E+99

> <Gold.Chemscore.Hbonds>
donor molecule, donor type, donor heavy atom, donor atom, acceptor molecule, acceptor atom, score
      L1  H    21    49       P1  7948  0.59
      P1  H  6896  6907       L1    12  0.57

> <Gold.Chemscore.Hbond.Weighted>
-5.4893

> <Gold.Chemscore.Metal.Weighted>
-0.0000

> <Gold.Chemscore.Lipo.Weighted>
-12.9439

> <Gold.Chemscore.Internal_Hbond.Weighted>
0.0000

> <Gold.Chemscore.DEClash.Weighted>
0.1218

> <Gold.Chemscore.DEInternal.Weighted>
1.1219

> <Gold.Chemscore.Rot.Weighted>
5.2386

> <Gold.Chemscore.Internal.Correction.Weighted>
   9.000000E+99

> <Gold.Protein.RotatedTorsions>
[ 6907 6896 6895 6894 ] final  -56.91 input  -60.11 | X-H torsion
[ 7974 7965 7964 7962 ] final  -96.39 input  175.53 | X-H torsion
[ 8008 7997 7996 7995 ] final -125.90 input   59.86 | X-H torsion
[ 10167 10162 10161 10158 ] final -135.65 input  -65.29 | X-H torsion
[ 10718 10713 10712 10709 ] final -133.93 input   66.30 | X-H torsion
[ 10763 10752 10751 10750 ] final  177.61 input  -60.55 | X-H torsion
[ 11005 11000 10999 10996 ] final   11.57 input  -57.11 | X-H torsion

> <Gold.Protein.ActiveResidues>
 VAL166  LYS551  ARG553  GLY616  TRP617  ASP618  TYR619  PRO620  LYS621  CYS622 
 ASP623  PHE694  ASN695  SER759  ASP760  ASP761  ALA762  ILE779  LEU786  VAL792 
 PHE793  MET794  SER795  GLU796  ALA797  LYS798  CYS799  TRP800  GLU811  SER814 

> <Gold.Protein.RotatedAtoms>
  150.8129  134.7294  159.6703 H   0  0  0  0  0  0  0  0  0  0  0  0  # atno 6907 bound_to 6896
  152.4249  134.5884  159.9977 H   0  0  0  0  0  0  0  0  0  0  0  0  # atno 6908 bound_to 6896
  151.6089  133.3312  159.3099 H   0  0  0  0  0  0  0  0  0  0  0  0  # atno 6909 bound_to 6896
  145.3475  140.9471  143.2573 H   0  0  0  0  0  0  0  0  0  0  0  0  # atno 7974 bound_to 7965
  155.2209  140.0422  157.2948 H   0  0  0  0  0  0  0  0  0  0  0  0  # atno 8008 bound_to 7997
  154.5950  140.2437  155.7840 H   0  0  0  0  0  0  0  0  0  0  0  0  # atno 8009 bound_to 7997
  156.2284  140.2946  156.0134 H   0  0  0  0  0  0  0  0  0  0  0  0  # atno 8010 bound_to 7997
  139.8757  143.6901  152.2634 H   0  0  0  0  0  0  0  0  0  0  0  0  # atno 10167 bound_to 10162
  156.2501  130.7148  151.1043 H   0  0  0  0  0  0  0  0  0  0  0  0  # atno 10718 bound_to 10713
  154.4967  135.2781  155.1453 H   0  0  0  0  0  0  0  0  0  0  0  0  # atno 10763 bound_to 10752
  154.3103  135.6230  153.5466 H   0  0  0  0  0  0  0  0  0  0  0  0  # atno 10764 bound_to 10752
  152.9896  135.5718  154.5400 H   0  0  0  0  0  0  0  0  0  0  0  0  # atno 10765 bound_to 10752
  140.5017  134.0739  155.7795 H   0  0  0  0  0  0  0  0  0  0  0  0  # atno 11005 bound_to 11000
  144.8743  139.4994  143.6753 LP  0  0  0  0  0  0  0  0  0  0  0  0  # atno 17320 bound_to 7965
  146.2982  139.7343  142.9111 LP  0  0  0  0  0  0  0  0  0  0  0  0  # atno 17321 bound_to 7965
  139.7242  144.7596  151.0906 LP  0  0  0  0  0  0  0  0  0  0  0  0  # atno 17342 bound_to 10162
  140.7753  143.5169  150.9584 LP  0  0  0  0  0  0  0  0  0  0  0  0  # atno 17343 bound_to 10162
  157.7211  131.0681  150.6132 LP  0  0  0  0  0  0  0  0  0  0  0  0  # atno 17370 bound_to 10713
  156.6211  130.4406  149.5822 LP  0  0  0  0  0  0  0  0  0  0  0  0  # atno 17371 bound_to 10713
  141.1432  133.9102  157.2278 LP  0  0  0  0  0  0  0  0  0  0  0  0  # atno 17394 bound_to 11000
  139.9709  135.0128  156.9510 LP  0  0  0  0  0  0  0  0  0  0  0  0  # atno 17395 bound_to 11000

$$$$
