AV-unprocessed.smi:10|AV-procd|sdf|53|dock5
  -GOLD-   2262015173D 1   1.00000     0.00000
 Structure written by MMmdl.
 34 36  0  0  0  0  0  0  0  0  1 V2000
  147.2960  142.0392  154.8070 C   0  0  0  0  0  0  0  0  0  0  0  0
  148.5758  141.3774  154.9550 N   0  0  0  0  0  0  0  0  0  0  0  0
  149.2025  140.5986  154.0530 C   0  0  0  0  0  0  0  0  0  0  0  0
  150.3789  140.1132  154.4457 N   0  0  0  0  0  0  0  0  0  0  0  0
  150.5051  140.6401  155.7260 C   0  0  0  0  0  0  0  0  0  0  0  0
  151.5887  140.4958  156.7251 C   0  0  0  0  0  0  0  0  0  0  0  0
  152.6037  139.8344  156.5057 O   0  0  0  0  0  0  0  0  0  0  0  0
  151.3384  141.1694  157.8868 N   0  0  0  0  0  0  0  0  0  0  0  0
  152.3086  141.1472  158.9919 C   0  0  0  0  0  0  0  0  0  0  0  0
  152.3456  142.4939  159.7501 C   0  0  2  0  0  0  0  0  0  0  0  0
  153.4110  143.2716  159.2432 O   0  0  0  0  0  0  0  0  0  0  0  0
  152.6024  142.3175  161.2460 C   0  0  0  0  0  0  0  0  0  0  0  0
  152.8907  143.5490  162.1201 C   0  0  0  0  0  0  0  0  0  0  0  0
  153.8506  142.6868  162.9433 C   0  0  0  0  0  0  0  0  0  0  0  0
  153.9519  141.7613  161.7288 C   0  0  0  0  0  0  0  0  0  0  0  0
  150.1574  141.9467  158.0886 C   0  0  0  0  0  0  0  0  0  0  0  0
  149.1870  142.0955  157.2248 N   0  0  0  0  0  0  0  0  0  0  0  0
  149.4241  141.4096  156.0550 C   0  0  0  0  0  0  0  0  0  0  0  0
  146.8171  141.7323  153.8765 H   0  0  0  0  0  0  0  0  0  0  0  0
  147.4420  143.1194  154.7924 H   0  0  0  0  0  0  0  0  0  0  0  0
  146.6471  141.7769  155.6430 H   0  0  0  0  0  0  0  0  0  0  0  0
  148.7853  140.3817  153.0806 H   0  0  0  0  0  0  0  0  0  0  0  0
  152.0405  140.3433  159.6797 H   0  0  0  0  0  0  0  0  0  0  0  0
  153.3050  140.8677  158.6429 H   0  0  0  0  0  0  0  0  0  0  0  0
  151.4134  143.0414  159.6024 H   0  0  0  0  0  0  0  0  0  0  0  0
  153.2296  143.4796  158.3389 H   0  0  0  0  0  0  0  0  0  0  0  0
  151.7979  141.7466  161.7155 H   0  0  0  0  0  0  0  0  0  0  0  0
  153.4011  144.3446  161.5747 H   0  0  0  0  0  0  0  0  0  0  0  0
  152.0303  143.9286  162.6719 H   0  0  0  0  0  0  0  0  0  0  0  0
  154.7823  143.1791  163.2233 H   0  0  0  0  0  0  0  0  0  0  0  0
  153.3673  142.2119  163.7986 H   0  0  0  0  0  0  0  0  0  0  0  0
  153.9471  140.6965  161.9628 H   0  0  0  0  0  0  0  0  0  0  0  0
  154.7804  142.0233  161.0686 H   0  0  0  0  0  0  0  0  0  0  0  0
  150.1190  142.4391  159.0619 H   0  0  0  0  0  0  0  0  0  0  0  0
  1  2  1  0  0  0  0
  1 19  1  0  0  0  0
  1 20  1  0  0  0  0
  1 21  1  0  0  0  0
  2 18  1  0  0  0  0
  2  3  1  0  0  0  0
  3  4  2  0  0  0  0
  3 22  1  0  0  0  0
  4  5  1  0  0  0  0
  5 18  2  0  0  0  0
  5  6  1  0  0  0  0
  6  7  2  0  0  0  0
  6  8  1  0  0  0  0
  8  9  1  0  0  0  0
  8 16  1  0  0  0  0
  9 10  1  0  0  0  0
  9 23  1  0  0  0  0
  9 24  1  0  0  0  0
 10 11  1  0  0  0  0
 10 12  1  0  0  0  0
 10 25  1  0  0  0  0
 11 26  1  0  0  0  0
 12 15  1  0  0  0  0
 12 13  1  0  0  0  0
 12 27  1  0  0  0  0
 13 14  1  0  0  0  0
 13 28  1  0  0  0  0
 13 29  1  0  0  0  0
 14 15  1  0  0  0  0
 14 30  1  0  0  0  0
 14 31  1  0  0  0  0
 15 32  1  0  0  0  0
 15 33  1  0  0  0  0
 16 17  2  0  0  0  0
 16 34  1  0  0  0  0
 17 18  1  0  0  0  0
M  END
> <s_m_source_file>
AV-unprocessed.smi

> <i_m_source_file_index>
10

> <i_lp_mmshare_version>
43012

> <i_f3d_flags>
0

> <s_epik_input>
bjFbY0hdbihbQ0gzXSljKGMxMiluW2NIXW4oYzI9TylbQ0gyXVtDQEhdKFtPSF0pW0NIXTNbQ0gyXVtDSDJdW0NIMl0z

> <s_epik_cmdline>
J2VwaWtfcHl0aG9uJywgJy1waCcsICc3LjAnLCAnLXRuJywgJzgnLCAnLW1hJywgJzIwMCcsICctbWV0YWxfYmluZGluZycsICctaW1hZScsICc8aW5maWxlLm1hZT4nLCAnLW9tYWUnLCAnPG91dGZpbGUubWFlPic=

> <r_lp_tautomer_probability>
1

> <r_epik_Ionization_Penalty>
0.0003743

> <r_epik_Ionization_Penalty_Charging>
2.98177e-12

> <r_epik_Ionization_Penalty_Neutral>
0.000374299

> <r_epik_State_Penalty>
0.000224514

> <r_epik_Charging_Adjusted_Penalty>
0.000224514

> <i_epik_Tot_Q>
0

> <i_epik_Tot_abs_Q>
0

> <r_epik_Metal_State_Penalty>
-0

> <b_epik_Metal_Only>
0

> <s_lp_Force_Field>
OPLS_2005

> <r_lp_Energy>
32.1402

> <b_lp_Chiralities_Consistent>
1

> <s_lp_Variant>
AV-unprocessed.smi:10-1

> <Gold.Version>
5.8.1

> <Gold.Id.Protein>
6NUR|6NUR_protein|mol2

> <Gold.PLP.Fitness>
47.5442

> <Gold.PLP.PLP>
-40.2205

> <Gold.PLP.part.hbond>
-2.0000

> <Gold.PLP.part.metal>
0.0000

> <Gold.PLP.part.buried>
-2.6849

> <Gold.PLP.part.nonpolar>
-34.4984

> <Gold.PLP.part.repulsive>
0.5089

> <Gold.PLP.ligand.clash>
0.0000

> <Gold.PLP.ligand.torsion>
0.8982

> <Gold.PLP.Chemscore.Hbond>
2.0000

> <Gold.PLP.Chemscore.CHOScore>
1.0000

> <Gold.PLP.Chemscore.Metal>
0.0000

> <Gold.Chemscore.Hbonds>
donor molecule, donor type, donor heavy atom, donor atom, acceptor molecule, acceptor atom, score
      P1  H  7989  7998       L1     4  1.00
      P1  H  7997  8008       L1     7  1.00
      L1  C     3    22       P1  7957  1.00

> <Gold.PLP.Chemscore.Internal.Correction>
0.1200

> <Gold.Rescore>
     Score         DG    S(hbond)    S(metal)    S(lipo)     H(rot)  DE(clash)    DE(int)     intcor
     12.56     -13.88       1.61        0.00      75.89       2.28       0.52       0.80       ----

> <Gold.Chemscore.Fitness>
12.5553

> <Gold.Chemscore.DG>
-13.8797

> <Gold.Chemscore.ZeroCoef>
-5.4800

> <Gold.Chemscore.Hbond>
1.6059

> <Gold.Chemscore.Metal>
0.0000

> <Gold.Chemscore.Lipo>
75.8879

> <Gold.Chemscore.Internal_Hbond>
0.0000

> <Gold.Chemscore.DEClash>
0.5208

> <Gold.Chemscore.DEInternal>
0.8036

> <Gold.Chemscore.Rot>
2.2824

> <Gold.Chemscore.Internal.Correction>
   9.000000E+99

> <Gold.Chemscore.Hbonds>
donor molecule, donor type, donor heavy atom, donor atom, acceptor molecule, acceptor atom, score
      P1  H  7989  7998       L1     4  0.36
      P1  H  7997  8008       L1     7  0.97

> <Gold.Chemscore.Hbond.Weighted>
-5.3638

> <Gold.Chemscore.Metal.Weighted>
-0.0000

> <Gold.Chemscore.Lipo.Weighted>
-8.8789

> <Gold.Chemscore.Internal_Hbond.Weighted>
0.0000

> <Gold.Chemscore.DEClash.Weighted>
0.5208

> <Gold.Chemscore.DEInternal.Weighted>
0.8036

> <Gold.Chemscore.Rot.Weighted>
5.8431

> <Gold.Chemscore.Internal.Correction.Weighted>
   9.000000E+99

> <Gold.Protein.RotatedTorsions>
[ 6907 6896 6895 6894 ] final   41.83 input  -60.11 | X-H torsion
[ 7974 7965 7964 7962 ] final  -41.66 input  175.53 | X-H torsion
[ 8008 7997 7996 7995 ] final  -63.78 input   59.86 | X-H torsion
[ 10167 10162 10161 10158 ] final -163.16 input  -65.29 | X-H torsion
[ 10718 10713 10712 10709 ] final  145.48 input   66.30 | X-H torsion
[ 10763 10752 10751 10750 ] final   33.07 input  -60.55 | X-H torsion
[ 11005 11000 10999 10996 ] final   45.96 input  -57.11 | X-H torsion

> <Gold.Protein.ActiveResidues>
 VAL166  LYS551  ARG553  GLY616  TRP617  ASP618  TYR619  PRO620  LYS621  CYS622 
 ASP623  PHE694  ASN695  SER759  ASP760  ASP761  ALA762  ILE779  LEU786  VAL792 
 PHE793  MET794  SER795  GLU796  ALA797  LYS798  CYS799  TRP800  GLU811  SER814 

> <Gold.Protein.RotatedAtoms>
  152.2003  134.8594  160.0508 H   0  0  0  0  0  0  0  0  0  0  0  0  # atno 6907 bound_to 6896
  151.9450  133.3644  159.3987 H   0  0  0  0  0  0  0  0  0  0  0  0  # atno 6908 bound_to 6896
  150.6953  134.4324  159.5298 H   0  0  0  0  0  0  0  0  0  0  0  0  # atno 6909 bound_to 6896
  146.0189  140.6873  142.9188 H   0  0  0  0  0  0  0  0  0  0  0  0  # atno 7974 bound_to 7965
  154.4573  140.0967  156.6795 H   0  0  0  0  0  0  0  0  0  0  0  0  # atno 8008 bound_to 7997
  155.5098  140.3476  155.4368 H   0  0  0  0  0  0  0  0  0  0  0  0  # atno 8009 bound_to 7997
  156.0803  140.1371  156.9709 H   0  0  0  0  0  0  0  0  0  0  0  0  # atno 8010 bound_to 7997
  139.6340  144.0385  152.2039 H   0  0  0  0  0  0  0  0  0  0  0  0  # atno 10167 bound_to 10162
  157.3448  131.0941  151.1051 H   0  0  0  0  0  0  0  0  0  0  0  0  # atno 10718 bound_to 10713
  153.0230  135.6396  154.1454 H   0  0  0  0  0  0  0  0  0  0  0  0  # atno 10763 bound_to 10752
  154.1186  135.2848  155.3215 H   0  0  0  0  0  0  0  0  0  0  0  0  # atno 10764 bound_to 10752
  154.6280  135.5502  153.7710 H   0  0  0  0  0  0  0  0  0  0  0  0  # atno 10765 bound_to 10752
  140.1412  134.4581  155.8448 H   0  0  0  0  0  0  0  0  0  0  0  0  # atno 11005 bound_to 11000
  144.6982  140.3531  143.7178 LP  0  0  0  0  0  0  0  0  0  0  0  0  # atno 17320 bound_to 7965
  145.7224  139.1713  143.2477 LP  0  0  0  0  0  0  0  0  0  0  0  0  # atno 17321 bound_to 7965
  140.0058  144.6260  150.7690 LP  0  0  0  0  0  0  0  0  0  0  0  0  # atno 17342 bound_to 10162
  140.7455  143.2876  151.3419 LP  0  0  0  0  0  0  0  0  0  0  0  0  # atno 17343 bound_to 10162
  157.2249  130.6498  149.5826 LP  0  0  0  0  0  0  0  0  0  0  0  0  # atno 17370 bound_to 10713
  155.9713  130.4617  150.6119 LP  0  0  0  0  0  0  0  0  0  0  0  0  # atno 17371 bound_to 10713
  141.2186  133.6834  156.7250 LP  0  0  0  0  0  0  0  0  0  0  0  0  # atno 17394 bound_to 11000
  140.2720  134.8384  157.3856 LP  0  0  0  0  0  0  0  0  0  0  0  0  # atno 17395 bound_to 11000

$$$$
