AV-unprocessed.smi:2490|AV-procd|sdf|9808|dock1
  -GOLD-   2272013443D 1   1.00000     0.00000
 Structure written by MMmdl.
 33 34  0  0  0  0  0  0  0  0  1 V2000
  146.7229  138.7516  152.4147 C   0  0  0  0  0  0  0  0  0  0  0  0
  148.0487  139.1089  152.8947 N   0  0  0  0  0  0  0  0  0  0  0  0
  148.5521  138.7336  154.0800 C   0  0  0  0  0  0  0  0  0  0  0  0
  147.9234  138.0456  154.8854 O   0  0  0  0  0  0  0  0  0  0  0  0
  149.9682  139.2284  154.4066 C   0  0  1  0  0  0  0  0  0  0  0  0
  150.0224  140.0685  155.7028 C   0  0  0  0  0  0  0  0  0  0  0  0
  151.3976  140.4337  156.0173 N   0  0  0  0  0  0  0  0  0  0  0  0
  151.5776  141.4062  156.9825 C   0  0  0  0  0  0  0  0  0  0  0  0
  152.3106  141.0851  158.0554 N   0  0  0  0  0  0  0  0  0  0  0  0
  152.4784  142.0452  158.9903 C   0  0  0  0  0  0  0  0  0  0  0  0
  151.9095  143.3272  158.8450 C   0  0  0  0  0  0  0  0  0  0  0  0
  152.0981  144.4021  159.8938 C   0  0  0  0  0  0  0  0  0  0  0  0
  151.1574  143.5489  157.6724 C   0  0  0  0  0  0  0  0  0  0  0  0
  150.9947  142.5839  156.7418 N   0  0  0  0  0  0  0  0  0  0  0  0
  152.2815  139.2784  156.0799 C   0  0  0  0  0  0  0  0  0  0  0  0
  152.1818  138.4656  154.7791 C   0  0  0  0  0  0  0  0  0  0  0  0
  150.8259  138.0953  154.5512 O   0  0  0  0  0  0  0  0  0  0  0  0
  146.5526  139.1924  151.4325 H   0  0  0  0  0  0  0  0  0  0  0  0
  145.9514  139.1199  153.0922 H   0  0  0  0  0  0  0  0  0  0  0  0
  146.6215  137.6693  152.3252 H   0  0  0  0  0  0  0  0  0  0  0  0
  148.6256  139.6740  152.2882 H   0  0  0  0  0  0  0  0  0  0  0  0
  150.3090  139.8309  153.5626 H   0  0  0  0  0  0  0  0  0  0  0  0
  149.4267  140.9756  155.5895 H   0  0  0  0  0  0  0  0  0  0  0  0
  149.5999  139.5077  156.5381 H   0  0  0  0  0  0  0  0  0  0  0  0
  153.0696  141.7879  159.8567 H   0  0  0  0  0  0  0  0  0  0  0  0
  151.6185  145.3341  159.5930 H   0  0  0  0  0  0  0  0  0  0  0  0
  153.1595  144.5979  160.0478 H   0  0  0  0  0  0  0  0  0  0  0  0
  151.6645  144.0844  160.8422 H   0  0  0  0  0  0  0  0  0  0  0  0
  150.6847  144.5005  157.4775 H   0  0  0  0  0  0  0  0  0  0  0  0
  153.3094  139.6073  156.2382 H   0  0  0  0  0  0  0  0  0  0  0  0
  152.0065  138.6577  156.9337 H   0  0  0  0  0  0  0  0  0  0  0  0
  152.5612  139.0388  153.9317 H   0  0  0  0  0  0  0  0  0  0  0  0
  152.7888  137.5632  154.8518 H   0  0  0  0  0  0  0  0  0  0  0  0
  1  2  1  0  0  0  0
  1 18  1  0  0  0  0
  1 19  1  0  0  0  0
  1 20  1  0  0  0  0
  2  3  1  0  0  0  0
  2 21  1  0  0  0  0
  3  4  2  0  0  0  0
  3  5  1  0  0  0  0
  5 17  1  0  0  0  0
  5  6  1  0  0  0  0
  5 22  1  0  0  0  0
  6  7  1  0  0  0  0
  6 23  1  0  0  0  0
  6 24  1  0  0  0  0
  7  8  1  0  0  0  0
  7 15  1  0  0  0  0
  8 14  1  0  0  0  0
  8  9  2  0  0  0  0
  9 10  1  0  0  0  0
 10 11  2  0  0  0  0
 10 25  1  0  0  0  0
 11 12  1  0  0  0  0
 11 13  1  0  0  0  0
 12 26  1  0  0  0  0
 12 27  1  0  0  0  0
 12 28  1  0  0  0  0
 13 14  2  0  0  0  0
 13 29  1  0  0  0  0
 15 16  1  0  0  0  0
 15 30  1  0  0  0  0
 15 31  1  0  0  0  0
 16 17  1  0  0  0  0
 16 32  1  0  0  0  0
 16 33  1  0  0  0  0
M  END
> <s_m_source_file>
AV-unprocessed.smi

> <i_m_source_file_index>
2490

> <i_lp_mmshare_version>
43012

> <i_f3d_flags>
0

> <s_epik_input>
W0NIM11bTkhdQyg9TylbQ0BASF0xW0NIMl1OKFtDSDJdW0NIMl1PMSljMm5bY0hdYyhbQ0gzXSlbY0hdbjI=

> <s_epik_cmdline>
J2VwaWtfcHl0aG9uJywgJy1waCcsICc3LjAnLCAnLXRuJywgJzgnLCAnLW1hJywgJzIwMCcsICctbWV0YWxfYmluZGluZycsICctaW1hZScsICc8aW5maWxlLm1hZT4nLCAnLW9tYWUnLCAnPG91dGZpbGUubWFlPic=

> <r_lp_tautomer_probability>
1

> <r_epik_Ionization_Penalty>
8.72552e-06

> <r_epik_Ionization_Penalty_Charging>
0

> <r_epik_Ionization_Penalty_Neutral>
8.72552e-06

> <r_epik_State_Penalty>
-0

> <r_epik_Charging_Adjusted_Penalty>
0

> <i_epik_Tot_Q>
0

> <i_epik_Tot_abs_Q>
0

> <r_epik_Metal_State_Penalty>
-0

> <b_epik_Metal_Only>
0

> <s_lp_Force_Field>
OPLS_2005

> <r_lp_Energy>
12.5382

> <b_lp_Chiralities_Consistent>
1

> <s_lp_Variant>
AV-unprocessed.smi:2490-2

> <Gold.Version>
5.8.1

> <Gold.Id.Protein>
6NUR|6NUR_protein|mol2

> <Gold.PLP.Fitness>
37.0674

> <Gold.PLP.PLP>
-31.6416

> <Gold.PLP.part.hbond>
-1.6076

> <Gold.PLP.part.metal>
0.0000

> <Gold.PLP.part.buried>
-5.2345

> <Gold.PLP.part.nonpolar>
-26.7264

> <Gold.PLP.part.repulsive>
0.4546

> <Gold.PLP.ligand.clash>
0.0000

> <Gold.PLP.ligand.torsion>
0.2065

> <Gold.PLP.Chemscore.Hbond>
1.0000

> <Gold.PLP.Chemscore.CHOScore>
0.8507

> <Gold.PLP.Chemscore.Metal>
0.0000

> <Gold.Chemscore.Hbonds>
donor molecule, donor type, donor heavy atom, donor atom, acceptor molecule, acceptor atom, score
      L1  H     2    21       P1  7957  1.00
      L1  C    13    29       P1  8028  0.84

> <Gold.PLP.Chemscore.Internal.Correction>
0.2867

> <Gold.Rescore>
     Score         DG    S(hbond)    S(metal)    S(lipo)     H(rot)  DE(clash)    DE(int)     intcor
     14.60     -14.94       0.99        0.00      81.31       1.31       0.18       0.15       ----

> <Gold.Chemscore.Fitness>
14.6024

> <Gold.Chemscore.DG>
-14.9355

> <Gold.Chemscore.ZeroCoef>
-5.4800

> <Gold.Chemscore.Hbond>
0.9860

> <Gold.Chemscore.Metal>
0.0000

> <Gold.Chemscore.Lipo>
81.3093

> <Gold.Chemscore.Internal_Hbond>
0.0000

> <Gold.Chemscore.DEClash>
0.1803

> <Gold.Chemscore.DEInternal>
0.1528

> <Gold.Chemscore.Rot>
1.3089

> <Gold.Chemscore.Internal.Correction>
   9.000000E+99

> <Gold.Chemscore.Hbonds>
donor molecule, donor type, donor heavy atom, donor atom, acceptor molecule, acceptor atom, score
      L1  H     2    21       P1  7957  0.93

> <Gold.Chemscore.Hbond.Weighted>
-3.2932

> <Gold.Chemscore.Metal.Weighted>
-0.0000

> <Gold.Chemscore.Lipo.Weighted>
-9.5132

> <Gold.Chemscore.Internal_Hbond.Weighted>
0.0000

> <Gold.Chemscore.DEClash.Weighted>
0.1803

> <Gold.Chemscore.DEInternal.Weighted>
0.1528

> <Gold.Chemscore.Rot.Weighted>
3.3509

> <Gold.Chemscore.Internal.Correction.Weighted>
   9.000000E+99

> <Gold.Protein.RotatedTorsions>
[ 6907 6896 6895 6894 ] final   31.90 input  -60.11 | X-H torsion
[ 7974 7965 7964 7962 ] final  159.04 input  175.53 | X-H torsion
[ 8008 7997 7996 7995 ] final  -67.57 input   59.86 | X-H torsion
[ 10167 10162 10161 10158 ] final -151.93 input  -65.29 | X-H torsion
[ 10718 10713 10712 10709 ] final  -89.47 input   66.30 | X-H torsion
[ 10763 10752 10751 10750 ] final  150.71 input  -60.55 | X-H torsion
[ 11005 11000 10999 10996 ] final -156.59 input  -57.11 | X-H torsion

> <Gold.Protein.ActiveResidues>
 VAL166  LYS551  ARG553  GLY616  TRP617  ASP618  TYR619  PRO620  LYS621  CYS622 
 ASP623  PHE694  ASN695  SER759  ASP760  ASP761  ALA762  ILE779  LEU786  VAL792 
 PHE793  MET794  SER795  GLU796  ALA797  LYS798  CYS799  TRP800  GLU811  SER814 

> <Gold.Protein.RotatedAtoms>
  152.0669  134.9558  160.0574 H   0  0  0  0  0  0  0  0  0  0  0  0  # atno 6907 bound_to 6896
  152.0900  133.4191  159.4547 H   0  0  0  0  0  0  0  0  0  0  0  0  # atno 6908 bound_to 6896
  150.6837  134.2802  159.4668 H   0  0  0  0  0  0  0  0  0  0  0  0  # atno 6909 bound_to 6896
  144.7812  139.7562  143.6259 H   0  0  0  0  0  0  0  0  0  0  0  0  # atno 7974 bound_to 7965
  154.4809  140.0890  156.7374 H   0  0  0  0  0  0  0  0  0  0  0  0  # atno 8008 bound_to 7997
  155.4474  140.3456  155.4278 H   0  0  0  0  0  0  0  0  0  0  0  0  # atno 8009 bound_to 7997
  156.1189  140.1468  156.9221 H   0  0  0  0  0  0  0  0  0  0  0  0  # atno 8010 bound_to 7997
  139.7225  143.8935  152.2508 H   0  0  0  0  0  0  0  0  0  0  0  0  # atno 10167 bound_to 10162
  155.9984  130.4873  150.5176 H   0  0  0  0  0  0  0  0  0  0  0  0  # atno 10718 bound_to 10713
  154.0920  135.2852  155.3269 H   0  0  0  0  0  0  0  0  0  0  0  0  # atno 10763 bound_to 10752
  154.6614  135.5333  153.8025 H   0  0  0  0  0  0  0  0  0  0  0  0  # atno 10764 bound_to 10752
  153.0410  135.6534  154.1088 H   0  0  0  0  0  0  0  0  0  0  0  0  # atno 10765 bound_to 10752
  140.6739  134.4217  157.5230 H   0  0  0  0  0  0  0  0  0  0  0  0  # atno 11005 bound_to 11000
  146.2021  139.5322  142.9736 LP  0  0  0  0  0  0  0  0  0  0  0  0  # atno 17320 bound_to 7965
  145.6045  141.0350  143.2000 LP  0  0  0  0  0  0  0  0  0  0  0  0  # atno 17321 bound_to 7965
  139.8835  144.7005  150.8851 LP  0  0  0  0  0  0  0  0  0  0  0  0  # atno 17342 bound_to 10162
  140.7756  143.3642  151.1770 LP  0  0  0  0  0  0  0  0  0  0  0  0  # atno 17343 bound_to 10162
  157.3142  131.0669  151.1979 LP  0  0  0  0  0  0  0  0  0  0  0  0  # atno 17370 bound_to 10713
  157.2915  130.6798  149.6116 LP  0  0  0  0  0  0  0  0  0  0  0  0  # atno 17371 bound_to 10713
  139.8973  134.8640  156.2052 LP  0  0  0  0  0  0  0  0  0  0  0  0  # atno 17394 bound_to 11000
  141.0370  133.6958  156.1530 LP  0  0  0  0  0  0  0  0  0  0  0  0  # atno 17395 bound_to 11000

$$$$
