AV-unprocessed.smi:676|AV-procd|sdf|3309|dock1
  -GOLD-   22720 0273D 1   1.00000     0.00000
 Structure written by MMmdl.
 42 43  0  0  0  0  0  0  0  0  1 V2000
  145.5888  138.3769  156.7496 C   0  0  0  0  0  0  0  0  0  0  0  0
  146.3580  139.1036  155.7993 O   0  0  0  0  0  0  0  0  0  0  0  0
  146.3058  140.5355  155.8663 C   0  0  1  0  0  0  0  0  0  0  0  0
  144.8780  141.0347  155.6117 C   0  0  0  0  0  0  0  0  0  0  0  0
  147.0730  141.0383  157.1044 C   0  0  0  0  0  0  0  0  0  0  0  0
  148.3470  140.9221  156.2701 C   0  0  2  0  0  0  0  0  0  0  0  0
  149.2951  141.9986  156.5364 N   0  0  0  0  0  0  0  0  0  0  0  0
  150.4537  141.8419  157.1924 C   0  0  0  0  0  0  0  0  0  0  0  0
  150.8374  140.7563  157.6302 O   0  0  0  0  0  0  0  0  0  0  0  0
  151.3111  143.1054  157.3514 C   0  0  0  0  0  0  0  0  0  0  0  0
  151.7161  143.3657  158.7428 N   0  0  0  0  0  0  0  0  0  0  0  0
  152.3663  142.3198  159.4278 C   0  0  0  0  0  0  0  0  0  0  0  0
  152.7746  142.4503  160.6999 C   0  0  0  0  0  0  0  0  0  0  0  0
  152.5319  143.7062  161.3692 C   0  0  0  0  0  0  0  0  0  0  0  0
  151.9076  144.7118  160.7245 C   0  0  0  0  0  0  0  0  0  0  0  0
  151.4576  144.5728  159.3345 C   0  0  0  0  0  0  0  0  0  0  0  0
  150.8844  145.4853  158.7388 O   0  0  0  0  0  0  0  0  0  0  0  0
  147.4748  141.1134  155.0024 C   0  0  0  0  0  0  0  0  0  0  0  0
  147.8890  140.2955  153.7742 C   0  0  0  0  0  0  0  0  0  0  0  0
  147.2915  142.5579  154.4995 C   0  0  0  0  0  0  0  0  0  0  0  0
  145.8506  137.3211  156.6853 H   0  0  0  0  0  0  0  0  0  0  0  0
  144.5211  138.4555  156.5463 H   0  0  0  0  0  0  0  0  0  0  0  0
  145.7757  138.7013  157.7727 H   0  0  0  0  0  0  0  0  0  0  0  0
  144.8318  142.1219  155.5607 H   0  0  0  0  0  0  0  0  0  0  0  0
  144.1946  140.7417  156.4082 H   0  0  0  0  0  0  0  0  0  0  0  0
  144.4850  140.6462  154.6720 H   0  0  0  0  0  0  0  0  0  0  0  0
  146.8179  142.0650  157.3725 H   0  0  0  0  0  0  0  0  0  0  0  0
  147.0521  140.3902  157.9798 H   0  0  0  0  0  0  0  0  0  0  0  0
  148.7829  139.9224  156.3398 H   0  0  0  0  0  0  0  0  0  0  0  0
  149.0525  142.9201  156.2029 H   0  0  0  0  0  0  0  0  0  0  0  0
  152.1885  143.0015  156.7116 H   0  0  0  0  0  0  0  0  0  0  0  0
  150.7676  143.9640  156.9526 H   0  0  0  0  0  0  0  0  0  0  0  0
  152.5027  141.4114  158.8592 H   0  0  0  0  0  0  0  0  0  0  0  0
  153.2674  141.6361  161.2106 H   0  0  0  0  0  0  0  0  0  0  0  0
  152.8516  143.8399  162.3922 H   0  0  0  0  0  0  0  0  0  0  0  0
  151.7336  145.6439  161.2415 H   0  0  0  0  0  0  0  0  0  0  0  0
  148.7563  140.7301  153.2760 H   0  0  0  0  0  0  0  0  0  0  0  0
  147.0820  140.2385  153.0431 H   0  0  0  0  0  0  0  0  0  0  0  0
  148.1619  139.2733  154.0369 H   0  0  0  0  0  0  0  0  0  0  0  0
  148.2089  142.9512  154.0602 H   0  0  0  0  0  0  0  0  0  0  0  0
  147.0051  143.2404  155.2999 H   0  0  0  0  0  0  0  0  0  0  0  0
  146.5178  142.6187  153.7335 H   0  0  0  0  0  0  0  0  0  0  0  0
  1  2  1  0  0  0  0
  1 21  1  0  0  0  0
  1 22  1  0  0  0  0
  1 23  1  0  0  0  0
  2  3  1  0  0  0  0
  3 18  1  0  0  0  0
  3  4  1  0  0  0  0
  3  5  1  0  0  0  0
  4 24  1  0  0  0  0
  4 25  1  0  0  0  0
  4 26  1  0  0  0  0
  5  6  1  0  0  0  0
  5 27  1  0  0  0  0
  5 28  1  0  0  0  0
  6  7  1  0  0  0  0
  6 18  1  0  0  0  0
  6 29  1  0  0  0  0
  7  8  1  0  0  0  0
  7 30  1  0  0  0  0
  8  9  2  0  0  0  0
  8 10  1  0  0  0  0
 10 11  1  0  0  0  0
 10 31  1  0  0  0  0
 10 32  1  0  0  0  0
 11 16  1  0  0  0  0
 11 12  1  0  0  0  0
 12 13  2  0  0  0  0
 12 33  1  0  0  0  0
 13 14  1  0  0  0  0
 13 34  1  0  0  0  0
 14 15  2  0  0  0  0
 14 35  1  0  0  0  0
 15 16  1  0  0  0  0
 15 36  1  0  0  0  0
 16 17  2  0  0  0  0
 18 19  1  0  0  0  0
 18 20  1  0  0  0  0
 19 37  1  0  0  0  0
 19 38  1  0  0  0  0
 19 39  1  0  0  0  0
 20 40  1  0  0  0  0
 20 41  1  0  0  0  0
 20 42  1  0  0  0  0
M  END
> <s_m_source_file>
AV-unprocessed.smi

> <i_m_source_file_index>
676

> <i_lp_mmshare_version>
43012

> <i_f3d_flags>
0

> <s_epik_input>
W0NIM11PW0NAQF0xKFtDSDNdKVtDSDJdW0NASF0oQzEoW0NIM10pW0NIM10pW05IXUMoPU8pW0NIMl1uMltjSF1bY0hdW2NIXVtjSF1jMj1P

> <s_epik_cmdline>
J2VwaWtfcHl0aG9uJywgJy1waCcsICc3LjAnLCAnLXRuJywgJzgnLCAnLW1hJywgJzIwMCcsICctbWV0YWxfYmluZGluZycsICctaW1hZScsICc8aW5maWxlLm1hZT4nLCAnLW9tYWUnLCAnPG91dGZpbGUubWFlPic=

> <r_lp_tautomer_probability>
1

> <r_epik_Ionization_Penalty>
4.09771e-07

> <r_epik_Ionization_Penalty_Charging>
3.90712e-07

> <r_epik_Ionization_Penalty_Neutral>
1.90591e-08

> <r_epik_State_Penalty>
-0

> <r_epik_Charging_Adjusted_Penalty>
3.90712e-07

> <i_epik_Tot_Q>
0

> <i_epik_Tot_abs_Q>
0

> <r_epik_Metal_State_Penalty>
-0

> <b_epik_Metal_Only>
0

> <s_lp_Force_Field>
OPLS_2005

> <r_lp_Energy>
31.664

> <b_lp_Chiralities_Consistent>
1

> <s_lp_Variant>
AV-unprocessed.smi:676-3

> <Gold.Version>
5.8.1

> <Gold.Id.Protein>
6NUR|6NUR_protein|mol2

> <Gold.PLP.Fitness>
37.5088

> <Gold.PLP.PLP>
-34.9517

> <Gold.PLP.part.hbond>
-1.9605

> <Gold.PLP.part.metal>
0.0000

> <Gold.PLP.part.buried>
-1.9242

> <Gold.PLP.part.nonpolar>
-31.3957

> <Gold.PLP.part.repulsive>
0.2339

> <Gold.PLP.ligand.clash>
0.0000

> <Gold.PLP.ligand.torsion>
0.4177

> <Gold.PLP.Chemscore.Hbond>
1.0000

> <Gold.PLP.Chemscore.CHOScore>
0.0000

> <Gold.PLP.Chemscore.Metal>
0.0000

> <Gold.Chemscore.Hbonds>
donor molecule, donor type, donor heavy atom, donor atom, acceptor molecule, acceptor atom, score
      L1  H     7    30       P1  8028  1.00

> <Gold.PLP.Chemscore.Internal.Correction>
0.3925

> <Gold.Rescore>
     Score         DG    S(hbond)    S(metal)    S(lipo)     H(rot)  DE(clash)    DE(int)     intcor
     11.66     -14.30       1.00        0.00      82.30       1.62       0.95       1.69       ----

> <Gold.Chemscore.Fitness>
11.6571

> <Gold.Chemscore.DG>
-14.3046

> <Gold.Chemscore.ZeroCoef>
-5.4800

> <Gold.Chemscore.Hbond>
0.9989

> <Gold.Chemscore.Metal>
0.0000

> <Gold.Chemscore.Lipo>
82.2997

> <Gold.Chemscore.Internal_Hbond>
0.0000

> <Gold.Chemscore.DEClash>
0.9534

> <Gold.Chemscore.DEInternal>
1.6941

> <Gold.Chemscore.Rot>
1.6175

> <Gold.Chemscore.Internal.Correction>
   9.000000E+99

> <Gold.Chemscore.Hbonds>
donor molecule, donor type, donor heavy atom, donor atom, acceptor molecule, acceptor atom, score
      L1  H     7    30       P1  8028  1.00

> <Gold.Chemscore.Hbond.Weighted>
-3.3363

> <Gold.Chemscore.Metal.Weighted>
-0.0000

> <Gold.Chemscore.Lipo.Weighted>
-9.6291

> <Gold.Chemscore.Internal_Hbond.Weighted>
0.0000

> <Gold.Chemscore.DEClash.Weighted>
0.9534

> <Gold.Chemscore.DEInternal.Weighted>
1.6941

> <Gold.Chemscore.Rot.Weighted>
4.1408

> <Gold.Chemscore.Internal.Correction.Weighted>
   9.000000E+99

> <Gold.Protein.RotatedTorsions>
[ 6907 6896 6895 6894 ] final  139.93 input  -60.11 | X-H torsion
[ 7974 7965 7964 7962 ] final   88.80 input  175.53 | X-H torsion
[ 8008 7997 7996 7995 ] final -177.42 input   59.86 | X-H torsion
[ 10167 10162 10161 10158 ] final -172.88 input  -65.29 | X-H torsion
[ 10718 10713 10712 10709 ] final  -96.26 input   66.30 | X-H torsion
[ 10763 10752 10751 10750 ] final   75.63 input  -60.55 | X-H torsion
[ 11005 11000 10999 10996 ] final  -44.85 input  -57.11 | X-H torsion

> <Gold.Protein.ActiveResidues>
 VAL166  LYS551  ARG553  GLY616  TRP617  ASP618  TYR619  PRO620  LYS621  CYS622 
 ASP623  PHE694  ASN695  SER759  ASP760  ASP761  ALA762  ILE779  LEU786  VAL792 
 PHE793  MET794  SER795  GLU796  ALA797  LYS798  CYS799  TRP800  GLU811  SER814 

> <Gold.Protein.RotatedAtoms>
  152.2491  133.5200  159.5314 H   0  0  0  0  0  0  0  0  0  0  0  0  # atno 6907 bound_to 6896
  150.7088  134.0985  159.3966 H   0  0  0  0  0  0  0  0  0  0  0  0  # atno 6908 bound_to 6896
  151.8905  135.0418  160.0548 H   0  0  0  0  0  0  0  0  0  0  0  0  # atno 6909 bound_to 6896
  145.5409  139.2288  143.2566 H   0  0  0  0  0  0  0  0  0  0  0  0  # atno 7974 bound_to 7965
  156.0067  140.1232  157.0494 H   0  0  0  0  0  0  0  0  0  0  0  0  # atno 8008 bound_to 7997
  154.4261  140.1096  156.5842 H   0  0  0  0  0  0  0  0  0  0  0  0  # atno 8009 bound_to 7997
  155.6137  140.3471  155.4632 H   0  0  0  0  0  0  0  0  0  0  0  0  # atno 8010 bound_to 7997
  139.5720  144.1620  152.1397 H   0  0  0  0  0  0  0  0  0  0  0  0  # atno 10167 bound_to 10162
  156.0059  130.5144  150.6199 H   0  0  0  0  0  0  0  0  0  0  0  0  # atno 10718 bound_to 10713
  153.0668  135.4981  154.8218 H   0  0  0  0  0  0  0  0  0  0  0  0  # atno 10763 bound_to 10752
  154.6965  135.2994  154.9406 H   0  0  0  0  0  0  0  0  0  0  0  0  # atno 10764 bound_to 10752
  154.0143  135.6750  153.4820 H   0  0  0  0  0  0  0  0  0  0  0  0  # atno 10765 bound_to 10752
  141.0478  133.6754  156.2931 H   0  0  0  0  0  0  0  0  0  0  0  0  # atno 11005 bound_to 11000
  146.1982  140.6228  142.9114 LP  0  0  0  0  0  0  0  0  0  0  0  0  # atno 17320 bound_to 7965
  144.7578  140.5349  143.6757 LP  0  0  0  0  0  0  0  0  0  0  0  0  # atno 17321 bound_to 7965
  140.1155  144.5419  150.6897 LP  0  0  0  0  0  0  0  0  0  0  0  0  # atno 17342 bound_to 10162
  140.7004  143.2431  151.4881 LP  0  0  0  0  0  0  0  0  0  0  0  0  # atno 17343 bound_to 10162
  157.4016  131.0811  151.1303 LP  0  0  0  0  0  0  0  0  0  0  0  0  # atno 17370 bound_to 10713
  157.1963  130.6374  149.5722 LP  0  0  0  0  0  0  0  0  0  0  0  0  # atno 17371 bound_to 10713
  140.6114  134.5455  157.5534 LP  0  0  0  0  0  0  0  0  0  0  0  0  # atno 17394 bound_to 11000
  139.9325  134.7936  156.0891 LP  0  0  0  0  0  0  0  0  0  0  0  0  # atno 17395 bound_to 11000

$$$$
