AV-unprocessed.smi:2076|AV-procd|sdf|8457|dock10
  -GOLD-   2272011153D 1   1.00000     0.00000
 Structure written by MMmdl.
 44 45  0  0  0  0  0  0  0  0  1 V2000
  151.8297  143.4652  158.8841 C   0  0  0  0  0  0  0  0  0  0  0  0
  152.6065  142.3330  159.4882 C   0  0  0  0  0  0  0  0  0  0  0  0
  153.3549  142.3234  160.6983 C   0  0  0  0  0  0  0  0  0  0  0  0
  153.8623  141.0568  160.7716 C   0  0  0  0  0  0  0  0  0  0  0  0
  154.7400  140.4293  161.8040 C   0  0  0  0  0  0  0  0  0  0  0  0
  153.4146  140.3796  159.6509 N   0  0  0  0  0  0  0  0  0  0  0  0
  153.6875  139.0121  159.2344 C   0  0  0  0  0  0  0  0  0  0  0  0
  152.4309  138.1484  159.3490 C   0  0  0  0  0  0  0  0  0  0  0  0
  152.4917  137.0357  159.8715 O   0  0  0  0  0  0  0  0  0  0  0  0
  151.3056  138.6641  158.8312 N   0  0  0  0  0  0  0  0  0  0  0  0
  150.0381  137.9539  158.7007 C   0  0  0  0  0  0  0  0  0  0  0  0
  149.2028  138.4209  157.4721 C   0  0  2  0  0  0  0  0  0  0  0  0
  147.7181  138.0304  157.6941 C   0  0  0  0  0  0  0  0  0  0  0  0
  149.7388  137.9310  156.1809 N   0  0  0  0  0  0  0  0  0  0  0  0
  149.9131  136.4739  156.1559 C   0  0  0  0  0  0  0  0  0  0  0  0
  150.5019  135.9642  154.8289 C   0  0  0  0  0  0  0  0  0  0  0  0
  151.7416  136.6097  154.5737 O   0  0  0  0  0  0  0  0  0  0  0  0
  151.6036  138.0221  154.5104 C   0  0  0  0  0  0  0  0  0  0  0  0
  151.0263  138.5458  155.8366 C   0  0  0  0  0  0  0  0  0  0  0  0
  152.6435  141.1656  158.8674 N   0  0  0  0  0  0  0  0  0  0  0  0
  152.0007  144.3944  159.4277 H   0  0  0  0  0  0  0  0  0  0  0  0
  150.7593  143.2604  158.9049 H   0  0  0  0  0  0  0  0  0  0  0  0
  152.1183  143.6317  157.8458 H   0  0  0  0  0  0  0  0  0  0  0  0
  153.5015  143.1273  161.4046 H   0  0  0  0  0  0  0  0  0  0  0  0
  154.9420  141.1253  162.6183 H   0  0  0  0  0  0  0  0  0  0  0  0
  155.6963  140.1331  161.3728 H   0  0  0  0  0  0  0  0  0  0  0  0
  154.2691  139.5433  162.2301 H   0  0  0  0  0  0  0  0  0  0  0  0
  154.0508  139.0181  158.2061 H   0  0  0  0  0  0  0  0  0  0  0  0
  154.4834  138.5922  159.8516 H   0  0  0  0  0  0  0  0  0  0  0  0
  151.3539  139.5882  158.4260 H   0  0  0  0  0  0  0  0  0  0  0  0
  150.2734  136.8912  158.6580 H   0  0  0  0  0  0  0  0  0  0  0  0
  149.4680  138.1082  159.6170 H   0  0  0  0  0  0  0  0  0  0  0  0
  149.2413  139.5113  157.4546 H   0  0  0  0  0  0  0  0  0  0  0  0
  147.3375  138.3625  158.6597 H   0  0  0  0  0  0  0  0  0  0  0  0
  147.5834  136.9495  157.6436 H   0  0  0  0  0  0  0  0  0  0  0  0
  147.0551  138.4879  156.9617 H   0  0  0  0  0  0  0  0  0  0  0  0
  150.5564  136.1633  156.9805 H   0  0  0  0  0  0  0  0  0  0  0  0
  148.9590  135.9687  156.2898 H   0  0  0  0  0  0  0  0  0  0  0  0
  150.6659  134.8878  154.8773 H   0  0  0  0  0  0  0  0  0  0  0  0
  149.8110  136.1461  154.0039 H   0  0  0  0  0  0  0  0  0  0  0  0
  152.5807  138.4666  154.3214 H   0  0  0  0  0  0  0  0  0  0  0  0
  150.9601  138.2967  153.6730 H   0  0  0  0  0  0  0  0  0  0  0  0
  150.9217  139.6242  155.7328 H   0  0  0  0  0  0  0  0  0  0  0  0
  151.7459  138.3719  156.6382 H   0  0  0  0  0  0  0  0  0  0  0  0
  1  2  1  0  0  0  0
  1 21  1  0  0  0  0
  1 22  1  0  0  0  0
  1 23  1  0  0  0  0
  2 20  2  0  0  0  0
  2  3  1  0  0  0  0
  3  4  2  0  0  0  0
  3 24  1  0  0  0  0
  4  5  1  0  0  0  0
  4  6  1  0  0  0  0
  5 25  1  0  0  0  0
  5 26  1  0  0  0  0
  5 27  1  0  0  0  0
  6  7  1  0  0  0  0
  6 20  1  0  0  0  0
  7  8  1  0  0  0  0
  7 28  1  0  0  0  0
  7 29  1  0  0  0  0
  8  9  2  0  0  0  0
  8 10  1  0  0  0  0
 10 11  1  0  0  0  0
 10 30  1  0  0  0  0
 11 12  1  0  0  0  0
 11 31  1  0  0  0  0
 11 32  1  0  0  0  0
 12 13  1  0  0  0  0
 12 14  1  0  0  0  0
 12 33  1  0  0  0  0
 13 34  1  0  0  0  0
 13 35  1  0  0  0  0
 13 36  1  0  0  0  0
 14 19  1  0  0  0  0
 14 15  1  0  0  0  0
 15 16  1  0  0  0  0
 15 37  1  0  0  0  0
 15 38  1  0  0  0  0
 16 17  1  0  0  0  0
 16 39  1  0  0  0  0
 16 40  1  0  0  0  0
 17 18  1  0  0  0  0
 18 19  1  0  0  0  0
 18 41  1  0  0  0  0
 18 42  1  0  0  0  0
 19 43  1  0  0  0  0
 19 44  1  0  0  0  0
M  END
> <s_m_source_file>
AV-unprocessed.smi

> <i_m_source_file_index>
2076

> <i_lp_mmshare_version>
43012

> <i_f3d_flags>
0

> <s_epik_input>
W0NIM11jMVtjSF1jKFtDSDNdKW4objEpW0NIMl1DKD1PKVtOSF1bQ0gyXVtDQEhdKFtDSDNdKU4yW0NIMl1bQ0gyXU9bQ0gyXVtDSDJdMg==

> <s_epik_cmdline>
J2VwaWtfcHl0aG9uJywgJy1waCcsICc3LjAnLCAnLXRuJywgJzgnLCAnLW1hJywgJzIwMCcsICctbWV0YWxfYmluZGluZycsICctaW1hZScsICc8aW5maWxlLm1hZT4nLCAnLW9tYWUnLCAnPG91dGZpbGUubWFlPic=

> <r_lp_tautomer_probability>
1

> <r_epik_Ionization_Penalty>
0.197284

> <r_epik_Ionization_Penalty_Charging>
0

> <r_epik_Ionization_Penalty_Neutral>
0.197284

> <r_epik_State_Penalty>
0.186684

> <r_epik_Charging_Adjusted_Penalty>
0.186684

> <i_epik_Tot_Q>
0

> <i_epik_Tot_abs_Q>
0

> <r_epik_Metal_State_Penalty>
0.186636

> <b_epik_Metal_Only>
0

> <s_lp_Force_Field>
OPLS_2005

> <r_lp_Energy>
25.7273

> <b_lp_Chiralities_Consistent>
1

> <s_lp_Variant>
AV-unprocessed.smi:2076-1

> <Gold.Version>
5.8.1

> <Gold.Id.Protein>
6NUR|6NUR_protein|mol2

> <Gold.PLP.Fitness>
39.0079

> <Gold.PLP.PLP>
-34.3502

> <Gold.PLP.part.hbond>
-1.9694

> <Gold.PLP.part.metal>
0.0000

> <Gold.PLP.part.buried>
-5.7037

> <Gold.PLP.part.nonpolar>
-28.0853

> <Gold.PLP.part.repulsive>
0.2695

> <Gold.PLP.ligand.clash>
0.0000

> <Gold.PLP.ligand.torsion>
0.6729

> <Gold.PLP.Chemscore.Hbond>
1.9913

> <Gold.PLP.Chemscore.CHOScore>
0.0000

> <Gold.PLP.Chemscore.Metal>
0.0000

> <Gold.Chemscore.Hbonds>
donor molecule, donor type, donor heavy atom, donor atom, acceptor molecule, acceptor atom, score
      P1  H  6896  6907       L1     9  1.00
      P1  H 10752 10763       L1    17  1.00

> <Gold.PLP.Chemscore.Internal.Correction>
0.0298

> <Gold.Rescore>
     Score         DG    S(hbond)    S(metal)    S(lipo)     H(rot)  DE(clash)    DE(int)     intcor
     15.44     -17.77       1.97        0.00      85.98       1.70       0.01       2.33       ----

> <Gold.Chemscore.Fitness>
15.4366

> <Gold.Chemscore.DG>
-17.7738

> <Gold.Chemscore.ZeroCoef>
-5.4800

> <Gold.Chemscore.Hbond>
1.9715

> <Gold.Chemscore.Metal>
0.0000

> <Gold.Chemscore.Lipo>
85.9771

> <Gold.Chemscore.Internal_Hbond>
0.0000

> <Gold.Chemscore.DEClash>
0.0073

> <Gold.Chemscore.DEInternal>
2.3299

> <Gold.Chemscore.Rot>
1.6993

> <Gold.Chemscore.Internal.Correction>
   9.000000E+99

> <Gold.Chemscore.Hbonds>
donor molecule, donor type, donor heavy atom, donor atom, acceptor molecule, acceptor atom, score
      P1  H  6896  6907       L1     9  0.94
      P1  H 10752 10763       L1    17  0.86

> <Gold.Chemscore.Hbond.Weighted>
-6.5847

> <Gold.Chemscore.Metal.Weighted>
-0.0000

> <Gold.Chemscore.Lipo.Weighted>
-10.0593

> <Gold.Chemscore.Internal_Hbond.Weighted>
0.0000

> <Gold.Chemscore.DEClash.Weighted>
0.0073

> <Gold.Chemscore.DEInternal.Weighted>
2.3299

> <Gold.Chemscore.Rot.Weighted>
4.3502

> <Gold.Chemscore.Internal.Correction.Weighted>
   9.000000E+99

> <Gold.Protein.RotatedTorsions>
[ 6907 6896 6895 6894 ] final   19.56 input  -60.11 | X-H torsion
[ 7974 7965 7964 7962 ] final   72.83 input  175.53 | X-H torsion
[ 8008 7997 7996 7995 ] final -147.82 input   59.86 | X-H torsion
[ 10167 10162 10161 10158 ] final  -98.60 input  -65.29 | X-H torsion
[ 10718 10713 10712 10709 ] final  179.78 input   66.30 | X-H torsion
[ 10763 10752 10751 10750 ] final   44.43 input  -60.55 | X-H torsion
[ 11005 11000 10999 10996 ] final -123.05 input  -57.11 | X-H torsion

> <Gold.Protein.ActiveResidues>
 VAL166  LYS551  ARG553  GLY616  TRP617  ASP618  TYR619  PRO620  LYS621  CYS622 
 ASP623  PHE694  ASN695  SER759  ASP760  ASP761  ALA762  ILE779  LEU786  VAL792 
 PHE793  MET794  SER795  GLU796  ALA797  LYS798  CYS799  TRP800  GLU811  SER814 

> <Gold.Protein.RotatedAtoms>
  151.8827  135.0447  160.0490 H   0  0  0  0  0  0  0  0  0  0  0  0  # atno 6907 bound_to 6896
  152.2500  133.5202  159.5328 H   0  0  0  0  0  0  0  0  0  0  0  0  # atno 6908 bound_to 6896
  150.7080  134.0890  159.3967 H   0  0  0  0  0  0  0  0  0  0  0  0  # atno 6909 bound_to 6896
  145.7485  139.2750  143.1445 H   0  0  0  0  0  0  0  0  0  0  0  0  # atno 7974 bound_to 7965
  155.5817  140.0644  157.2781 H   0  0  0  0  0  0  0  0  0  0  0  0  # atno 8008 bound_to 7997
  154.4330  140.1851  156.1030 H   0  0  0  0  0  0  0  0  0  0  0  0  # atno 8009 bound_to 7997
  156.0300  140.3307  155.7133 H   0  0  0  0  0  0  0  0  0  0  0  0  # atno 8010 bound_to 7997
  140.2712  143.3343  152.0533 H   0  0  0  0  0  0  0  0  0  0  0  0  # atno 10167 bound_to 10162
  156.8707  130.9783  151.3073 H   0  0  0  0  0  0  0  0  0  0  0  0  # atno 10718 bound_to 10713
  152.9841  135.6071  154.3272 H   0  0  0  0  0  0  0  0  0  0  0  0  # atno 10763 bound_to 10752
  154.2978  135.2773  155.2627 H   0  0  0  0  0  0  0  0  0  0  0  0  # atno 10764 bound_to 10752
  154.4893  135.5896  153.6503 H   0  0  0  0  0  0  0  0  0  0  0  0  # atno 10765 bound_to 10752
  140.9949  134.0486  157.3610 H   0  0  0  0  0  0  0  0  0  0  0  0  # atno 11005 bound_to 11000
  146.0380  140.8193  142.9843 LP  0  0  0  0  0  0  0  0  0  0  0  0  # atno 17320 bound_to 7965
  144.6855  140.2867  143.7284 LP  0  0  0  0  0  0  0  0  0  0  0  0  # atno 17321 bound_to 7965
  139.4988  144.6655  151.6366 LP  0  0  0  0  0  0  0  0  0  0  0  0  # atno 17342 bound_to 10162
  140.5888  143.9816  150.6312 LP  0  0  0  0  0  0  0  0  0  0  0  0  # atno 17343 bound_to 10162
  157.6197  130.8646  149.9088 LP  0  0  0  0  0  0  0  0  0  0  0  0  # atno 17370 bound_to 10713
  156.0728  130.3683  150.0740 LP  0  0  0  0  0  0  0  0  0  0  0  0  # atno 17371 bound_to 10713
  139.9010  135.0164  156.7266 LP  0  0  0  0  0  0  0  0  0  0  0  0  # atno 17394 bound_to 11000
  140.6982  133.9330  155.8008 LP  0  0  0  0  0  0  0  0  0  0  0  0  # atno 17395 bound_to 11000

$$$$
