AV-unprocessed.smi:35|AV-procd|sdf|250|dock6
  -GOLD-   2262016 13D 1   1.00000     0.00000
 Structure written by MMmdl.
 29 30  0  0  0  0  0  0  0  0  1 V2000
  153.2588  142.6760  160.4051 O   0  0  0  0  0  0  0  0  0  0  0  0
  152.4232  142.2278  159.6232 C   0  0  0  0  0  0  0  0  0  0  0  0
  152.2467  140.8470  159.4939 N   0  0  0  0  0  0  0  0  0  0  0  0
  151.3307  140.2232  158.6445 C   0  0  0  0  0  0  0  0  0  0  0  0
  151.2697  138.9953  158.5983 O   0  0  0  0  0  0  0  0  0  0  0  0
  150.5077  141.0574  157.8558 N   0  0  0  0  0  0  0  0  0  0  0  0
  149.5039  140.4094  156.9218 C   0  0  1  0  0  0  0  0  0  0  0  0
  148.4334  141.2865  156.7095 O   0  0  0  0  0  0  0  0  0  0  0  0
  148.4107  141.6958  155.3469 C   0  0  2  0  0  0  0  0  0  0  0  0
  147.0024  142.1655  154.9413 C   0  0  0  0  0  0  0  0  0  0  0  0
  146.0040  141.2407  155.3204 O   0  0  0  0  0  0  0  0  0  0  0  0
  148.9940  140.4993  154.5941 C   0  0  1  0  0  0  0  0  0  0  0  0
  149.4476  140.8223  153.2925 O   0  0  0  0  0  0  0  0  0  0  0  0
  150.1053  140.0522  155.5387 C   0  0  1  0  0  0  0  0  0  0  0  0
  151.3346  140.7121  155.2717 O   0  0  0  0  0  0  0  0  0  0  0  0
  150.6558  142.4365  157.9415 C   0  0  0  0  0  0  0  0  0  0  0  0
  151.5518  143.0257  158.7678 C   0  0  0  0  0  0  0  0  0  0  0  0
  151.6116  145.0056  158.7404 Br  0  0  0  0  0  0  0  0  0  0  0  0
  152.8331  140.2513  160.0599 H   0  0  0  0  0  0  0  0  0  0  0  0
  149.1047  139.5443  157.4548 H   0  0  0  0  0  0  0  0  0  0  0  0
  149.0951  142.5413  155.2569 H   0  0  0  0  0  0  0  0  0  0  0  0
  146.7838  143.1406  155.3773 H   0  0  0  0  0  0  0  0  0  0  0  0
  146.9528  142.2822  153.8587 H   0  0  0  0  0  0  0  0  0  0  0  0
  145.4887  141.0249  154.5579 H   0  0  0  0  0  0  0  0  0  0  0  0
  148.2579  139.6982  154.5219 H   0  0  0  0  0  0  0  0  0  0  0  0
  149.2013  140.1228  152.7070 H   0  0  0  0  0  0  0  0  0  0  0  0
  150.2745  138.9766  155.4798 H   0  0  0  0  0  0  0  0  0  0  0  0
  152.0131  140.2935  155.7789 H   0  0  0  0  0  0  0  0  0  0  0  0
  150.0451  143.0817  157.3292 H   0  0  0  0  0  0  0  0  0  0  0  0
  1  2  2  0  0  0  0
  2 17  1  0  0  0  0
  2  3  1  0  0  0  0
  3 19  1  0  0  0  0
  3  4  1  0  0  0  0
  4  5  2  0  0  0  0
  4  6  1  0  0  0  0
  6  7  1  0  0  0  0
  6 16  1  0  0  0  0
  7 14  1  0  0  0  0
  7  8  1  0  0  0  0
  7 20  1  0  0  0  0
  8  9  1  0  0  0  0
  9 10  1  0  0  0  0
  9 12  1  0  0  0  0
  9 21  1  0  0  0  0
 10 11  1  0  0  0  0
 10 22  1  0  0  0  0
 10 23  1  0  0  0  0
 11 24  1  0  0  0  0
 12 13  1  0  0  0  0
 12 14  1  0  0  0  0
 12 25  1  0  0  0  0
 13 26  1  0  0  0  0
 14 15  1  0  0  0  0
 14 27  1  0  0  0  0
 15 28  1  0  0  0  0
 16 17  2  0  0  0  0
 16 29  1  0  0  0  0
 17 18  1  0  0  0  0
M  END
> <s_m_source_file>
AV-unprocessed.smi

> <i_m_source_file_index>
35

> <i_lp_mmshare_version>
43012

> <i_f3d_flags>
0

> <s_epik_input>
Tz1jMVtuSF1jKD1PKW4oW2NIXWMxQnIpW0NAQEhdMk9bQ0BASF0oW0NIMl1bT0hdKVtDQEBIXShbT0hdKVtDQEhdMltPSF0=

> <s_epik_cmdline>
J2VwaWtfcHl0aG9uJywgJy1waCcsICc3LjAnLCAnLXRuJywgJzgnLCAnLW1hJywgJzIwMCcsICctbWV0YWxfYmluZGluZycsICctaW1hZScsICc8aW5maWxlLm1hZT4nLCAnLW9tYWUnLCAnPG91dGZpbGUubWFlPic=

> <r_lp_tautomer_probability>
0.999537

> <r_epik_Ionization_Penalty>
0.10812

> <r_epik_Ionization_Penalty_Charging>
0.108119

> <r_epik_Ionization_Penalty_Neutral>
4.93006e-07

> <r_epik_State_Penalty>
0.0979238

> <r_epik_Charging_Adjusted_Penalty>
0.206043

> <i_epik_Tot_Q>
0

> <i_epik_Tot_abs_Q>
0

> <r_epik_Metal_State_Penalty>
3.07911

> <b_epik_Metal_Only>
0

> <s_epik_Chemistry_Notes>
This compound contains an acetal/aminal-like group ( X-CH(R)-Y where X, Y are N, S, or O) that may be acid/base labile, releasing an aldehyde.

> <s_lp_Force_Field>
OPLS_2005

> <r_lp_Energy>
39.8494

> <b_lp_Chiralities_Consistent>
1

> <s_lp_Variant>
AV-unprocessed.smi:35-4

> <Gold.Version>
5.8.1

> <Gold.Id.Protein>
6NUR|6NUR_protein|mol2

> <Gold.PLP.Fitness>
37.4615

> <Gold.PLP.PLP>
-29.5302

> <Gold.PLP.part.hbond>
-2.6360

> <Gold.PLP.part.metal>
0.0000

> <Gold.PLP.part.buried>
-3.3258

> <Gold.PLP.part.nonpolar>
-23.4179

> <Gold.PLP.part.repulsive>
0.2219

> <Gold.PLP.ligand.clash>
0.0000

> <Gold.PLP.ligand.torsion>
0.7850

> <Gold.PLP.Chemscore.Hbond>
2.2598

> <Gold.PLP.Chemscore.CHOScore>
0.8962

> <Gold.PLP.Chemscore.Metal>
0.0000

> <Gold.Chemscore.Hbonds>
donor molecule, donor type, donor heavy atom, donor atom, acceptor molecule, acceptor atom, score
      L1  H    13    26       P1  7957  0.50
      P1  H  7989  7998       L1    15  0.78
      P1  H  8011  8017       L1    13  1.00
      L1  C    16    29       P1  8028  0.82

> <Gold.PLP.Chemscore.Internal.Correction>
0.0331

> <Gold.Rescore>
     Score         DG    S(hbond)    S(metal)    S(lipo)     H(rot)  DE(clash)    DE(int)     intcor
      8.91      -9.21       2.13        0.00      51.39       3.67       0.02       0.29       ----

> <Gold.Chemscore.Fitness>
8.9092

> <Gold.Chemscore.DG>
-9.2123

> <Gold.Chemscore.ZeroCoef>
-5.4800

> <Gold.Chemscore.Hbond>
2.1303

> <Gold.Chemscore.Metal>
0.0000

> <Gold.Chemscore.Lipo>
51.3906

> <Gold.Chemscore.Internal_Hbond>
0.0000

> <Gold.Chemscore.DEClash>
0.0153

> <Gold.Chemscore.DEInternal>
0.2878

> <Gold.Chemscore.Rot>
3.6701

> <Gold.Chemscore.Internal.Correction>
   9.000000E+99

> <Gold.Chemscore.Hbonds>
donor molecule, donor type, donor heavy atom, donor atom, acceptor molecule, acceptor atom, score
      L1  H    13    26       P1  7957  0.49
      P1  H  7989  7998       L1    15  0.61
      P1  H  8011  8017       L1    13  0.74

> <Gold.Chemscore.Hbond.Weighted>
-7.1151

> <Gold.Chemscore.Metal.Weighted>
-0.0000

> <Gold.Chemscore.Lipo.Weighted>
-6.0127

> <Gold.Chemscore.Internal_Hbond.Weighted>
0.0000

> <Gold.Chemscore.DEClash.Weighted>
0.0153

> <Gold.Chemscore.DEInternal.Weighted>
0.2878

> <Gold.Chemscore.Rot.Weighted>
9.3955

> <Gold.Chemscore.Internal.Correction.Weighted>
   9.000000E+99

> <Gold.Protein.RotatedTorsions>
[ 6907 6896 6895 6894 ] final -151.15 input  -60.11 | X-H torsion
[ 7974 7965 7964 7962 ] final  -84.48 input  175.53 | X-H torsion
[ 8008 7997 7996 7995 ] final  -19.75 input   59.86 | X-H torsion
[ 10167 10162 10161 10158 ] final -135.35 input  -65.29 | X-H torsion
[ 10718 10713 10712 10709 ] final  -48.73 input   66.30 | X-H torsion
[ 10763 10752 10751 10750 ] final -155.74 input  -60.55 | X-H torsion
[ 11005 11000 10999 10996 ] final   84.93 input  -57.11 | X-H torsion

> <Gold.Protein.ActiveResidues>
 VAL166  LYS551  ARG553  GLY616  TRP617  ASP618  TYR619  PRO620  LYS621  CYS622 
 ASP623  PHE694  ASN695  SER759  ASP760  ASP761  ALA762  ILE779  LEU786  VAL792 
 PHE793  MET794  SER795  GLU796  ALA797  LYS798  CYS799  TRP800  GLU811  SER814 

> <Gold.Protein.RotatedAtoms>
  151.2090  133.4567  159.2597 H   0  0  0  0  0  0  0  0  0  0  0  0  # atno 6907 bound_to 6896
  151.0995  134.9964  159.8452 H   0  0  0  0  0  0  0  0  0  0  0  0  # atno 6908 bound_to 6896
  152.5442  134.2017  159.8768 H   0  0  0  0  0  0  0  0  0  0  0  0  # atno 6909 bound_to 6896
  145.5060  140.9543  143.1733 H   0  0  0  0  0  0  0  0  0  0  0  0  # atno 7974 bound_to 7965
  154.4816  140.2080  155.9751 H   0  0  0  0  0  0  0  0  0  0  0  0  # atno 8008 bound_to 7997
  156.1173  140.3219  155.8127 H   0  0  0  0  0  0  0  0  0  0  0  0  # atno 8009 bound_to 7997
  155.4530  140.0518  157.2990 H   0  0  0  0  0  0  0  0  0  0  0  0  # atno 8010 bound_to 7997
  139.8788  143.6865  152.2630 H   0  0  0  0  0  0  0  0  0  0  0  0  # atno 10167 bound_to 10162
  156.1960  130.4154  149.9306 H   0  0  0  0  0  0  0  0  0  0  0  0  # atno 10718 bound_to 10713
  154.7765  135.3161  154.8082 H   0  0  0  0  0  0  0  0  0  0  0  0  # atno 10763 bound_to 10752
  153.8804  135.6835  153.4771 H   0  0  0  0  0  0  0  0  0  0  0  0  # atno 10764 bound_to 10752
  153.1390  135.4747  154.9402 H   0  0  0  0  0  0  0  0  0  0  0  0  # atno 10765 bound_to 10752
  139.8986  134.8251  156.2512 H   0  0  0  0  0  0  0  0  0  0  0  0  # atno 11005 bound_to 11000
  144.7753  139.6643  143.7177 LP  0  0  0  0  0  0  0  0  0  0  0  0  # atno 17320 bound_to 7965
  146.2196  139.5612  142.9627 LP  0  0  0  0  0  0  0  0  0  0  0  0  # atno 17321 bound_to 7965
  139.7215  144.7601  151.0947 LP  0  0  0  0  0  0  0  0  0  0  0  0  # atno 17342 bound_to 10162
  140.7748  143.5202  150.9546 LP  0  0  0  0  0  0  0  0  0  0  0  0  # atno 17343 bound_to 10162
  156.7031  130.8941  151.3601 LP  0  0  0  0  0  0  0  0  0  0  0  0  # atno 17370 bound_to 10713
  157.6957  130.9280  150.0639 LP  0  0  0  0  0  0  0  0  0  0  0  0  # atno 17371 bound_to 10713
  141.0222  133.7035  156.1288 LP  0  0  0  0  0  0  0  0  0  0  0  0  # atno 17394 bound_to 11000
  140.7217  134.4351  157.5574 LP  0  0  0  0  0  0  0  0  0  0  0  0  # atno 17395 bound_to 11000

$$$$
