AV-unprocessed.smi:2060|AV-procd|sdf|8355|dock5
  -GOLD-   2272011 23D 1   1.00000     0.00000
 Structure written by MMmdl.
 45 46  0  0  0  0  0  0  0  0  1 V2000
  146.9039  142.2397  154.5988 C   0  0  0  0  0  0  0  0  0  0  0  0
  146.7865  140.8366  155.2217 C   0  0  0  0  0  0  0  0  0  0  0  0
  147.5682  139.7019  154.4861 C   0  0  2  0  0  0  0  0  0  0  0  0
  147.4652  140.0120  152.9681 C   0  0  0  0  0  0  0  0  0  0  0  0
  146.8481  138.3409  154.7545 C   0  0  0  0  0  0  0  0  0  0  0  0
  146.9210  137.3998  153.6362 N   0  0  0  0  0  0  0  0  0  0  0  0
  145.8867  136.7253  153.1124 C   0  0  0  0  0  0  0  0  0  0  0  0
  144.7286  136.8294  153.5179 O   0  0  0  0  0  0  0  0  0  0  0  0
  146.2825  135.9396  152.0965 N   0  0  0  0  0  0  0  0  0  0  0  0
  145.4782  135.0823  151.3032 C   0  0  0  0  0  0  0  0  0  0  0  0
  145.4981  133.6760  151.5002 C   0  0  0  0  0  0  0  0  0  0  0  0
  144.6096  133.2215  150.5667 C   0  0  0  0  0  0  0  0  0  0  0  0
  144.1296  131.8580  150.2036 C   0  0  0  0  0  0  0  0  0  0  0  0
  144.0906  134.2626  149.8604 O   0  0  0  0  0  0  0  0  0  0  0  0
  144.6523  135.4531  150.3366 N   0  0  0  0  0  0  0  0  0  0  0  0
  148.9945  139.6728  154.9190 N   0  0  0  0  0  0  0  0  0  0  0  0
  149.6118  140.9862  155.1387 C   0  0  0  0  0  0  0  0  0  0  0  0
  151.0308  140.8657  155.7209 C   0  0  0  0  0  0  0  0  0  0  0  0
  151.8377  140.0698  154.8612 O   0  0  0  0  0  0  0  0  0  0  0  0
  151.3018  138.7665  154.6657 C   0  0  0  0  0  0  0  0  0  0  0  0
  149.8876  138.8731  154.0712 C   0  0  0  0  0  0  0  0  0  0  0  0
  146.3291  142.9620  155.1786 H   0  0  0  0  0  0  0  0  0  0  0  0
  146.5193  142.2642  153.5797 H   0  0  0  0  0  0  0  0  0  0  0  0
  147.9357  142.5903  154.5771 H   0  0  0  0  0  0  0  0  0  0  0  0
  147.0915  140.8890  156.2669 H   0  0  0  0  0  0  0  0  0  0  0  0
  145.7250  140.5915  155.2621 H   0  0  0  0  0  0  0  0  0  0  0  0
  146.4492  140.2731  152.6705 H   0  0  0  0  0  0  0  0  0  0  0  0
  147.7539  139.1567  152.3569 H   0  0  0  0  0  0  0  0  0  0  0  0
  148.1065  140.8462  152.6830 H   0  0  0  0  0  0  0  0  0  0  0  0
  147.3030  137.8303  155.6022 H   0  0  0  0  0  0  0  0  0  0  0  0
  145.8062  138.5001  155.0330 H   0  0  0  0  0  0  0  0  0  0  0  0
  147.8345  137.2520  153.2331 H   0  0  0  0  0  0  0  0  0  0  0  0
  147.2650  135.9552  151.8658 H   0  0  0  0  0  0  0  0  0  0  0  0
  146.0685  133.0936  152.2084 H   0  0  0  0  0  0  0  0  0  0  0  0
  144.8581  131.1003  150.4927 H   0  0  0  0  0  0  0  0  0  0  0  0
  143.9669  131.7755  149.1287 H   0  0  0  0  0  0  0  0  0  0  0  0
  143.1893  131.6335  150.7073 H   0  0  0  0  0  0  0  0  0  0  0  0
  149.6650  141.5417  154.2026 H   0  0  0  0  0  0  0  0  0  0  0  0
  149.0204  141.5847  155.8295 H   0  0  0  0  0  0  0  0  0  0  0  0
  151.4840  141.8519  155.8212 H   0  0  0  0  0  0  0  0  0  0  0  0
  151.0025  140.4231  156.7178 H   0  0  0  0  0  0  0  0  0  0  0  0
  151.9546  138.2105  153.9927 H   0  0  0  0  0  0  0  0  0  0  0  0
  151.2823  138.2256  155.6132 H   0  0  0  0  0  0  0  0  0  0  0  0
  149.5039  137.8633  153.9401 H   0  0  0  0  0  0  0  0  0  0  0  0
  149.9623  139.3146  153.0775 H   0  0  0  0  0  0  0  0  0  0  0  0
  1  2  1  0  0  0  0
  1 22  1  0  0  0  0
  1 23  1  0  0  0  0
  1 24  1  0  0  0  0
  2  3  1  0  0  0  0
  2 25  1  0  0  0  0
  2 26  1  0  0  0  0
  3  4  1  0  0  0  0
  3  5  1  0  0  0  0
  3 16  1  0  0  0  0
  4 27  1  0  0  0  0
  4 28  1  0  0  0  0
  4 29  1  0  0  0  0
  5  6  1  0  0  0  0
  5 30  1  0  0  0  0
  5 31  1  0  0  0  0
  6  7  1  0  0  0  0
  6 32  1  0  0  0  0
  7  8  2  0  0  0  0
  7  9  1  0  0  0  0
  9 10  1  0  0  0  0
  9 33  1  0  0  0  0
 10 15  2  0  0  0  0
 10 11  1  0  0  0  0
 11 12  2  0  0  0  0
 11 34  1  0  0  0  0
 12 13  1  0  0  0  0
 12 14  1  0  0  0  0
 13 35  1  0  0  0  0
 13 36  1  0  0  0  0
 13 37  1  0  0  0  0
 14 15  1  0  0  0  0
 16 21  1  0  0  0  0
 16 17  1  0  0  0  0
 17 18  1  0  0  0  0
 17 38  1  0  0  0  0
 17 39  1  0  0  0  0
 18 19  1  0  0  0  0
 18 40  1  0  0  0  0
 18 41  1  0  0  0  0
 19 20  1  0  0  0  0
 20 21  1  0  0  0  0
 20 42  1  0  0  0  0
 20 43  1  0  0  0  0
 21 44  1  0  0  0  0
 21 45  1  0  0  0  0
M  END
> <s_m_source_file>
AV-unprocessed.smi

> <i_m_source_file_index>
2060

> <i_lp_mmshare_version>
43012

> <i_f3d_flags>
0

> <s_epik_input>
W0NIMl0xW0NIMl1PW0NIMl1bQ0gyXU4xW0NAQF0oW0NIM10pKFtDSDJdW0NIM10pW0NIMl1bTkhdQyg9TylbTkhdYzJbY0hdYyhbQ0gzXSlvbjI=

> <s_epik_cmdline>
J2VwaWtfcHl0aG9uJywgJy1waCcsICc3LjAnLCAnLXRuJywgJzgnLCAnLW1hJywgJzIwMCcsICctbWV0YWxfYmluZGluZycsICctaW1hZScsICc8aW5maWxlLm1hZT4nLCAnLW9tYWUnLCAnPG91dGZpbGUubWFlPic=

> <r_epik_Ionization_Penalty>
0.289127

> <r_epik_Ionization_Penalty_Charging>
0

> <r_epik_Ionization_Penalty_Neutral>
0.289127

> <r_epik_State_Penalty>
0.282056

> <r_epik_Charging_Adjusted_Penalty>
0.282056

> <i_epik_Tot_Q>
0

> <i_epik_Tot_abs_Q>
0

> <r_epik_Metal_State_Penalty>
0.284526

> <b_epik_Metal_Only>
0

> <s_lp_Force_Field>
OPLS_2005

> <r_lp_Energy>
40.1787

> <b_lp_Chiralities_Consistent>
1

> <s_lp_Variant>
AV-unprocessed.smi:2060-2

> <Gold.Version>
5.8.1

> <Gold.Id.Protein>
6NUR|6NUR_protein|mol2

> <Gold.PLP.Fitness>
35.5363

> <Gold.PLP.PLP>
-31.2818

> <Gold.PLP.part.hbond>
-3.0000

> <Gold.PLP.part.metal>
0.0000

> <Gold.PLP.part.buried>
-2.6904

> <Gold.PLP.part.nonpolar>
-27.8173

> <Gold.PLP.part.repulsive>
1.5577

> <Gold.PLP.ligand.clash>
0.0000

> <Gold.PLP.ligand.torsion>
2.1753

> <Gold.PLP.Chemscore.Hbond>
2.8331

> <Gold.PLP.Chemscore.CHOScore>
0.0000

> <Gold.PLP.Chemscore.Metal>
0.0000

> <Gold.Chemscore.Hbonds>
donor molecule, donor type, donor heavy atom, donor atom, acceptor molecule, acceptor atom, score
      L1  H     6    32       P1  7948  0.92
      L1  H     9    33       P1  7948  1.00
      P1  H  7989  7998       L1    19  0.93

> <Gold.PLP.Chemscore.Internal.Correction>
0.1060

> <Gold.Rescore>
     Score         DG    S(hbond)    S(metal)    S(lipo)     H(rot)  DE(clash)    DE(int)     intcor
     12.43     -16.85       2.07        0.00      75.65       1.71       1.44       2.99       ----

> <Gold.Chemscore.Fitness>
12.4258

> <Gold.Chemscore.DG>
-16.8543

> <Gold.Chemscore.ZeroCoef>
-5.4800

> <Gold.Chemscore.Hbond>
2.0695

> <Gold.Chemscore.Metal>
0.0000

> <Gold.Chemscore.Lipo>
75.6476

> <Gold.Chemscore.Internal_Hbond>
0.0000

> <Gold.Chemscore.DEClash>
1.4350

> <Gold.Chemscore.DEInternal>
2.9935

> <Gold.Chemscore.Rot>
1.7143

> <Gold.Chemscore.Internal.Correction>
   9.000000E+99

> <Gold.Chemscore.Hbonds>
donor molecule, donor type, donor heavy atom, donor atom, acceptor molecule, acceptor atom, score
      L1  H     6    32       P1  7948  0.83
      L1  H     9    33       P1  7948  1.00
      P1  H  7989  7998       L1    19  0.15

> <Gold.Chemscore.Hbond.Weighted>
-6.9121

> <Gold.Chemscore.Metal.Weighted>
-0.0000

> <Gold.Chemscore.Lipo.Weighted>
-8.8508

> <Gold.Chemscore.Internal_Hbond.Weighted>
0.0000

> <Gold.Chemscore.DEClash.Weighted>
1.4350

> <Gold.Chemscore.DEInternal.Weighted>
2.9935

> <Gold.Chemscore.Rot.Weighted>
4.3885

> <Gold.Chemscore.Internal.Correction.Weighted>
   9.000000E+99

> <Gold.Protein.RotatedTorsions>
[ 6907 6896 6895 6894 ] final -126.54 input  -60.11 | X-H torsion
[ 7974 7965 7964 7962 ] final  158.93 input  175.53 | X-H torsion
[ 8008 7997 7996 7995 ] final   -2.92 input   59.86 | X-H torsion
[ 10167 10162 10161 10158 ] final  -88.51 input  -65.29 | X-H torsion
[ 10718 10713 10712 10709 ] final  116.49 input   66.30 | X-H torsion
[ 10763 10752 10751 10750 ] final  165.16 input  -60.55 | X-H torsion
[ 11005 11000 10999 10996 ] final  -47.92 input  -57.11 | X-H torsion

> <Gold.Protein.ActiveResidues>
 VAL166  LYS551  ARG553  GLY616  TRP617  ASP618  TYR619  PRO620  LYS621  CYS622 
 ASP623  PHE694  ASN695  SER759  ASP760  ASP761  ALA762  ILE779  LEU786  VAL792 
 PHE793  MET794  SER795  GLU796  ALA797  LYS798  CYS799  TRP800  GLU811  SER814 

> <Gold.Protein.RotatedAtoms>
  150.8980  133.7156  159.2886 H   0  0  0  0  0  0  0  0  0  0  0  0  # atno 6907 bound_to 6896
  151.4684  135.1042  159.9754 H   0  0  0  0  0  0  0  0  0  0  0  0  # atno 6908 bound_to 6896
  152.4860  133.8326  159.7166 H   0  0  0  0  0  0  0  0  0  0  0  0  # atno 6909 bound_to 6896
  144.7818  139.7547  143.6257 H   0  0  0  0  0  0  0  0  0  0  0  0  # atno 7974 bound_to 7965
  154.6305  140.2522  155.7440 H   0  0  0  0  0  0  0  0  0  0  0  0  # atno 8008 bound_to 7997
  156.2477  140.2908  156.0574 H   0  0  0  0  0  0  0  0  0  0  0  0  # atno 8009 bound_to 7997
  155.1753  140.0387  157.2861 H   0  0  0  0  0  0  0  0  0  0  0  0  # atno 8010 bound_to 7997
  140.3739  143.2781  151.9466 H   0  0  0  0  0  0  0  0  0  0  0  0  # atno 10167 bound_to 10162
  157.6157  131.1026  150.7480 H   0  0  0  0  0  0  0  0  0  0  0  0  # atno 10718 bound_to 10713
  154.3198  135.2756  155.2525 H   0  0  0  0  0  0  0  0  0  0  0  0  # atno 10763 bound_to 10752
  154.4884  135.5840  153.6444 H   0  0  0  0  0  0  0  0  0  0  0  0  # atno 10764 bound_to 10752
  152.9878  135.6128  154.3381 H   0  0  0  0  0  0  0  0  0  0  0  0  # atno 10765 bound_to 10752
  141.0670  133.6691  156.3367 H   0  0  0  0  0  0  0  0  0  0  0  0  # atno 11005 bound_to 11000
  146.2030  139.5336  142.9731 LP  0  0  0  0  0  0  0  0  0  0  0  0  # atno 17320 bound_to 7965
  145.6029  141.0352  143.2008 LP  0  0  0  0  0  0  0  0  0  0  0  0  # atno 17321 bound_to 7965
  139.4801  144.5881  151.7818 LP  0  0  0  0  0  0  0  0  0  0  0  0  # atno 17342 bound_to 10162
  140.5005  144.1175  150.5970 LP  0  0  0  0  0  0  0  0  0  0  0  0  # atno 17343 bound_to 10162
  156.7848  130.4871  149.5395 LP  0  0  0  0  0  0  0  0  0  0  0  0  # atno 17370 bound_to 10713
  156.1278  130.6156  151.0289 LP  0  0  0  0  0  0  0  0  0  0  0  0  # atno 17371 bound_to 10713
  140.5753  134.5799  157.5467 LP  0  0  0  0  0  0  0  0  0  0  0  0  # atno 17394 bound_to 11000
  139.9486  134.7658  156.0503 LP  0  0  0  0  0  0  0  0  0  0  0  0  # atno 17395 bound_to 11000

$$$$
