AV-unprocessed.smi:3303|AV-procd|sdf|12660|dock3
  -GOLD-   2272018593D 1   1.00000     0.00000
 Structure written by MMmdl.
 45 46  0  0  0  0  0  0  0  0  3 V2000
  151.2037  138.6264  155.1705 C   0  0  0  0  0  0  0  0  0  0  0  0
  150.1997  139.5332  154.4388 C   0  0  1  0  0  0  0  0  0  0  0  0
  148.8891  138.7957  154.0978 C   0  0  0  0  0  0  0  0  0  0  0  0
  147.9823  139.6584  153.2986 N   0  3  1  0  0  0  0  0  0  0  0  0
  146.8174  138.9223  152.7561 C   0  0  0  0  0  0  0  0  0  0  0  0
  147.6356  140.9429  153.9724 C   0  0  1  0  0  0  0  0  0  0  0  0
  146.6324  140.7815  155.1357 C   0  0  0  0  0  0  0  0  0  0  0  0
  148.9194  141.7064  154.3741 C   0  0  0  0  0  0  0  0  0  0  0  0
  149.9300  140.8604  155.1840 C   0  0  1  0  0  0  0  0  0  0  0  0
  149.4931  140.6250  156.5822 N   0  3  0  0  0  0  0  0  0  0  0  0
  149.6799  141.7613  157.5081 C   0  0  0  0  0  0  0  0  0  0  0  0
  151.0729  141.7203  158.1498 C   0  0  0  0  0  0  0  0  0  0  0  0
  151.3968  143.0030  158.8911 C   0  0  0  0  0  0  0  0  0  0  0  0
  151.6370  144.2031  158.1886 C   0  0  0  0  0  0  0  0  0  0  0  0
  151.9263  145.3661  158.9287 C   0  0  0  0  0  0  0  0  0  0  0  0
  151.9624  145.2843  160.3341 C   0  0  0  0  0  0  0  0  0  0  0  0
  151.7068  144.0381  160.9403 C   0  0  0  0  0  0  0  0  0  0  0  0
  151.4276  142.9170  160.2401 N   0  0  0  0  0  0  0  0  0  0  0  0
  150.8038  138.2560  156.1148 H   0  0  0  0  0  0  0  0  0  0  0  0
  152.1307  139.1591  155.3855 H   0  0  0  0  0  0  0  0  0  0  0  0
  151.4598  137.7586  154.5619 H   0  0  0  0  0  0  0  0  0  0  0  0
  150.6675  139.7968  153.4885 H   0  0  0  0  0  0  0  0  0  0  0  0
  149.1226  137.9011  153.5185 H   0  0  0  0  0  0  0  0  0  0  0  0
  148.3865  138.4538  155.0032 H   0  0  0  0  0  0  0  0  0  0  0  0
  146.2059  138.4962  153.5521 H   0  0  0  0  0  0  0  0  0  0  0  0
  147.1510  138.1043  152.1169 H   0  0  0  0  0  0  0  0  0  0  0  0
  146.1909  139.5790  152.1517 H   0  0  0  0  0  0  0  0  0  0  0  0
  147.1358  141.5592  153.2235 H   0  0  0  0  0  0  0  0  0  0  0  0
  146.4660  141.7350  155.6378 H   0  0  0  0  0  0  0  0  0  0  0  0
  146.9690  140.0700  155.8882 H   0  0  0  0  0  0  0  0  0  0  0  0
  145.6599  140.4416  154.7794 H   0  0  0  0  0  0  0  0  0  0  0  0
  149.4164  142.0255  153.4570 H   0  0  0  0  0  0  0  0  0  0  0  0
  148.6664  142.6321  154.8903 H   0  0  0  0  0  0  0  0  0  0  0  0
  150.8725  141.4078  155.2349 H   0  0  0  0  0  0  0  0  0  0  0  0
  148.5193  140.3572  156.5835 H   0  0  0  0  0  0  0  0  0  0  0  0
  149.5506  142.6975  156.9634 H   0  0  0  0  0  0  0  0  0  0  0  0
  148.9194  141.7326  158.2881 H   0  0  0  0  0  0  0  0  0  0  0  0
  151.1393  140.8845  158.8484 H   0  0  0  0  0  0  0  0  0  0  0  0
  151.8324  141.5440  157.3868 H   0  0  0  0  0  0  0  0  0  0  0  0
  151.6017  144.2359  157.1093 H   0  0  0  0  0  0  0  0  0  0  0  0
  152.1162  146.3038  158.4271 H   0  0  0  0  0  0  0  0  0  0  0  0
  152.1812  146.1557  160.9337 H   0  0  0  0  0  0  0  0  0  0  0  0
  151.7263  143.9387  162.0154 H   0  0  0  0  0  0  0  0  0  0  0  0
  150.0364  139.8548  156.9462 H   0  0  0  0  0  0  0  0  0  0  0  0
  148.5206  139.9265  152.4866 H   0  0  0  0  0  0  0  0  0  0  0  0
  1  2  1  0  0  0  0
  1 19  1  0  0  0  0
  1 20  1  0  0  0  0
  1 21  1  0  0  0  0
  2  9  1  0  0  0  0
  2  3  1  0  0  0  0
  2 22  1  0  0  0  0
  3  4  1  0  0  0  0
  3 23  1  0  0  0  0
  3 24  1  0  0  0  0
  4  5  1  0  0  0  0
  4  6  1  0  0  0  0
  4 45  1  0  0  0  0
  5 25  1  0  0  0  0
  5 26  1  0  0  0  0
  5 27  1  0  0  0  0
  6  7  1  0  0  0  0
  6  8  1  0  0  0  0
  6 28  1  0  0  0  0
  7 29  1  0  0  0  0
  7 30  1  0  0  0  0
  7 31  1  0  0  0  0
  8  9  1  0  0  0  0
  8 32  1  0  0  0  0
  8 33  1  0  0  0  0
  9 10  1  0  0  0  0
  9 34  1  0  0  0  0
 10 11  1  0  0  0  0
 10 35  1  0  0  0  0
 10 44  1  0  0  0  0
 11 12  1  0  0  0  0
 11 36  1  0  0  0  0
 11 37  1  0  0  0  0
 12 13  1  0  0  0  0
 12 38  1  0  0  0  0
 12 39  1  0  0  0  0
 13 18  1  0  0  0  0
 13 14  2  0  0  0  0
 14 15  1  0  0  0  0
 14 40  1  0  0  0  0
 15 16  2  0  0  0  0
 15 41  1  0  0  0  0
 16 17  1  0  0  0  0
 16 42  1  0  0  0  0
 17 18  2  0  0  0  0
 17 43  1  0  0  0  0
M  CHG  1   4   1
M  CHG  1  10   1
M  END
> <s_m_source_file>
AV-unprocessed.smi

> <i_m_source_file_index>
3303

> <i_lp_mmshare_version>
43012

> <i_f3d_flags>
0

> <s_epik_input>
W0NIM11bQ0BASF0xW0NIMl1OKFtDSDNdKVtDQEBIXShbQ0gzXSlbQ0gyXVtDQEhdMVtOSF1bQ0gyXVtDSDJdYzJbY0hdW2NIXVtjSF1bY0hdbjI=

> <s_epik_cmdline>
J2VwaWtfcHl0aG9uJywgJy1waCcsICc3LjAnLCAnLXRuJywgJzgnLCAnLW1hJywgJzIwMCcsICctbWV0YWxfYmluZGluZycsICctaW1hZScsICc8aW5maWxlLm1hZT4nLCAnLW9tYWUnLCAnPG91dGZpbGUubWFlPic=

> <r_epik_Ionization_Penalty>
0.0769462

> <r_epik_Ionization_Penalty_Charging>
0.0759813

> <r_epik_Ionization_Penalty_Neutral>
0.000964829

> <r_epik_State_Penalty>
0.0654373

> <r_epik_Charging_Adjusted_Penalty>
0.141419

> <i_epik_Tot_Q>
2

> <i_epik_Tot_abs_Q>
2

> <r_epik_Metal_State_Penalty>
0.0656439

> <b_epik_Metal_Only>
0

> <s_lp_Force_Field>
OPLS_2005

> <r_lp_Energy>
33.2065

> <b_lp_Chiralities_Consistent>
1

> <s_lp_Variant>
AV-unprocessed.smi:3303-4

> <Gold.Version>
5.8.1

> <Gold.Id.Protein>
6NUR|6NUR_protein|mol2

> <Gold.PLP.Fitness>
44.6196

> <Gold.PLP.PLP>
-42.5816

> <Gold.PLP.part.hbond>
-1.7118

> <Gold.PLP.part.metal>
0.0000

> <Gold.PLP.part.buried>
-3.0128

> <Gold.PLP.part.nonpolar>
-37.6915

> <Gold.PLP.part.repulsive>
0.1267

> <Gold.PLP.ligand.clash>
0.0000

> <Gold.PLP.ligand.torsion>
0.4874

> <Gold.PLP.Chemscore.Hbond>
1.0000

> <Gold.PLP.Chemscore.CHOScore>
0.0000

> <Gold.PLP.Chemscore.Metal>
0.0000

> <Gold.Chemscore.Hbonds>
donor molecule, donor type, donor heavy atom, donor atom, acceptor molecule, acceptor atom, score
      L1  H     4    45       P1  7957  1.00

> <Gold.PLP.Chemscore.Internal.Correction>
0.0129

> <Gold.Rescore>
     Score         DG    S(hbond)    S(metal)    S(lipo)     H(rot)  DE(clash)    DE(int)     intcor
     19.16     -19.96       1.00        0.00     125.37       1.37       0.42       0.39       ----

> <Gold.Chemscore.Fitness>
19.1555

> <Gold.Chemscore.DG>
-19.9621

> <Gold.Chemscore.ZeroCoef>
-5.4800

> <Gold.Chemscore.Hbond>
0.9978

> <Gold.Chemscore.Metal>
0.0000

> <Gold.Chemscore.Lipo>
125.3660

> <Gold.Chemscore.Internal_Hbond>
0.0000

> <Gold.Chemscore.DEClash>
0.4200

> <Gold.Chemscore.DEInternal>
0.3866

> <Gold.Chemscore.Rot>
1.3744

> <Gold.Chemscore.Internal.Correction>
   9.000000E+99

> <Gold.Chemscore.Hbonds>
donor molecule, donor type, donor heavy atom, donor atom, acceptor molecule, acceptor atom, score
      L1  H     4    45       P1  7957  1.00

> <Gold.Chemscore.Hbond.Weighted>
-3.3327

> <Gold.Chemscore.Metal.Weighted>
-0.0000

> <Gold.Chemscore.Lipo.Weighted>
-14.6678

> <Gold.Chemscore.Internal_Hbond.Weighted>
0.0000

> <Gold.Chemscore.DEClash.Weighted>
0.4200

> <Gold.Chemscore.DEInternal.Weighted>
0.3866

> <Gold.Chemscore.Rot.Weighted>
3.5185

> <Gold.Chemscore.Internal.Correction.Weighted>
   9.000000E+99

> <Gold.Protein.RotatedTorsions>
[ 6907 6896 6895 6894 ] final  -86.08 input  -60.11 | X-H torsion
[ 7974 7965 7964 7962 ] final  -59.14 input  175.53 | X-H torsion
[ 8008 7997 7996 7995 ] final  -67.88 input   59.86 | X-H torsion
[ 10167 10162 10161 10158 ] final  -24.48 input  -65.29 | X-H torsion
[ 10718 10713 10712 10709 ] final  -96.96 input   66.30 | X-H torsion
[ 10763 10752 10751 10750 ] final  115.02 input  -60.55 | X-H torsion
[ 11005 11000 10999 10996 ] final   97.77 input  -57.11 | X-H torsion

> <Gold.Protein.ActiveResidues>
 VAL166  LYS551  ARG553  GLY616  TRP617  ASP618  TYR619  PRO620  LYS621  CYS622 
 ASP623  PHE694  ASN695  SER759  ASP760  ASP761  ALA762  ILE779  LEU786  VAL792 
 PHE793  MET794  SER795  GLU796  ALA797  LYS798  CYS799  TRP800  GLU811  SER814 

> <Gold.Protein.RotatedAtoms>
  150.6868  134.3105  159.4744 H   0  0  0  0  0  0  0  0  0  0  0  0  # atno 6907 bound_to 6896
  152.0992  134.9351  160.0579 H   0  0  0  0  0  0  0  0  0  0  0  0  # atno 6908 bound_to 6896
  152.0637  133.4039  159.4466 H   0  0  0  0  0  0  0  0  0  0  0  0  # atno 6909 bound_to 6896
  145.8310  140.8480  143.0084 H   0  0  0  0  0  0  0  0  0  0  0  0  # atno 7974 bound_to 7965
  154.4829  140.0884  156.7420 H   0  0  0  0  0  0  0  0  0  0  0  0  # atno 8008 bound_to 7997
  155.4423  140.3454  155.4273 H   0  0  0  0  0  0  0  0  0  0  0  0  # atno 8009 bound_to 7997
  156.1219  140.1476  156.9180 H   0  0  0  0  0  0  0  0  0  0  0  0  # atno 8010 bound_to 7997
  140.7288  143.4350  151.0744 H   0  0  0  0  0  0  0  0  0  0  0  0  # atno 10167 bound_to 10162
  156.0073  130.5174  150.6304 H   0  0  0  0  0  0  0  0  0  0  0  0  # atno 10718 bound_to 10713
  153.5160  135.3608  155.2609 H   0  0  0  0  0  0  0  0  0  0  0  0  # atno 10763 bound_to 10752
  154.8738  135.4034  154.3314 H   0  0  0  0  0  0  0  0  0  0  0  0  # atno 10764 bound_to 10752
  153.3976  135.7074  153.6516 H   0  0  0  0  0  0  0  0  0  0  0  0  # atno 10765 bound_to 10752
  139.8774  134.9017  156.4356 H   0  0  0  0  0  0  0  0  0  0  0  0  # atno 11005 bound_to 11000
  144.6740  140.0672  143.7474 LP  0  0  0  0  0  0  0  0  0  0  0  0  # atno 17320 bound_to 7965
  145.9571  139.2774  143.1177 LP  0  0  0  0  0  0  0  0  0  0  0  0  # atno 17321 bound_to 7965
  139.8011  143.8083  152.3163 LP  0  0  0  0  0  0  0  0  0  0  0  0  # atno 17342 bound_to 10162
  139.8100  144.7340  150.9710 LP  0  0  0  0  0  0  0  0  0  0  0  0  # atno 17343 bound_to 10162
  157.4103  131.0822  151.1227 LP  0  0  0  0  0  0  0  0  0  0  0  0  # atno 17370 bound_to 10713
  157.1861  130.6331  149.5688 LP  0  0  0  0  0  0  0  0  0  0  0  0  # atno 17371 bound_to 10713
  140.9036  133.7762  155.9708 LP  0  0  0  0  0  0  0  0  0  0  0  0  # atno 17394 bound_to 11000
  140.8624  134.2824  157.5228 LP  0  0  0  0  0  0  0  0  0  0  0  0  # atno 17395 bound_to 11000

$$$$
