AV-unprocessed.smi:114|AV-procd|sdf|1108|dock6
  -GOLD-   2262018223D 1   1.00000     0.00000
 Structure written by MMmdl.
 32 34  0  0  0  0  0  0  0  0  1 V2000
  152.3664  139.3896  158.8518 N   0  0  0  0  0  0  0  0  0  0  0  0
  152.0140  139.5431  157.5677 C   0  0  0  0  0  0  0  0  0  0  0  0
  152.8154  139.0173  156.6118 N   0  0  0  0  0  0  0  0  0  0  0  0
  152.4984  139.1460  155.3172 C   0  0  0  0  0  0  0  0  0  0  0  0
  153.3552  138.5879  154.4302 F   0  0  0  0  0  0  0  0  0  0  0  0
  151.4307  139.7645  154.8004 N   0  0  0  0  0  0  0  0  0  0  0  0
  150.6238  140.2983  155.7625 C   0  0  0  0  0  0  0  0  0  0  0  0
  150.8421  140.2283  157.1633 C   0  0  0  0  0  0  0  0  0  0  0  0
  149.8107  140.8707  157.8342 N   0  0  0  0  0  0  0  0  0  0  0  0
  149.0268  141.2917  156.8770 C   0  0  0  0  0  0  0  0  0  0  0  0
  149.4532  141.0060  155.5954 N   0  0  0  0  0  0  0  0  0  0  0  0
  148.8047  141.3160  154.2792 C   0  0  1  0  0  0  0  0  0  0  0  0
  148.5610  140.1200  153.6068 O   0  0  0  0  0  0  0  0  0  0  0  0
  147.2612  139.6523  153.9416 C   0  0  2  0  0  0  0  0  0  0  0  0
  146.7835  138.6403  152.8899 C   0  0  0  0  0  0  0  0  0  0  0  0
  147.3908  138.9157  151.6457 O   0  0  0  0  0  0  0  0  0  0  0  0
  146.4491  140.9505  153.9594 C   0  0  1  0  0  0  0  0  0  0  0  0
  145.3378  140.8217  154.8235 O   0  0  0  0  0  0  0  0  0  0  0  0
  147.4347  141.9861  154.4995 C   0  0  2  0  0  0  0  0  0  0  0  0
  147.3270  143.1955  153.7771 O   0  0  0  0  0  0  0  0  0  0  0  0
  149.5388  141.9299  153.7554 H   0  0  0  0  0  0  0  0  0  0  0  0
  147.2711  139.2071  154.9387 H   0  0  0  0  0  0  0  0  0  0  0  0
  146.1222  141.2066  152.9498 H   0  0  0  0  0  0  0  0  0  0  0  0
  147.2765  142.1804  155.5619 H   0  0  0  0  0  0  0  0  0  0  0  0
  151.7828  139.7729  159.5817 H   0  0  0  0  0  0  0  0  0  0  0  0
  153.2138  138.8936  159.0872 H   0  0  0  0  0  0  0  0  0  0  0  0
  148.1115  141.8252  157.0891 H   0  0  0  0  0  0  0  0  0  0  0  0
  147.0764  137.6310  153.1806 H   0  0  0  0  0  0  0  0  0  0  0  0
  145.6974  138.6484  152.7937 H   0  0  0  0  0  0  0  0  0  0  0  0
  148.1337  139.4811  151.7923 H   0  0  0  0  0  0  0  0  0  0  0  0
  144.5636  140.6938  154.2966 H   0  0  0  0  0  0  0  0  0  0  0  0
  147.7838  143.8704  154.2562 H   0  0  0  0  0  0  0  0  0  0  0  0
  1  2  1  0  0  0  0
  1 25  1  0  0  0  0
  1 26  1  0  0  0  0
  2  8  1  0  0  0  0
  2  3  2  0  0  0  0
  3  4  1  0  0  0  0
  4  5  1  0  0  0  0
  4  6  2  0  0  0  0
  6  7  1  0  0  0  0
  7 11  1  0  0  0  0
  7  8  2  0  0  0  0
  8  9  1  0  0  0  0
  9 10  2  0  0  0  0
 10 11  1  0  0  0  0
 10 27  1  0  0  0  0
 11 12  1  0  0  0  0
 12 21  1  0  0  0  0
 12 19  1  0  0  0  0
 12 13  1  0  0  0  0
 13 14  1  0  0  0  0
 14 22  1  0  0  0  0
 14 15  1  0  0  0  0
 14 17  1  0  0  0  0
 15 16  1  0  0  0  0
 15 28  1  0  0  0  0
 15 29  1  0  0  0  0
 16 30  1  0  0  0  0
 17 23  1  0  0  0  0
 17 18  1  0  0  0  0
 17 19  1  0  0  0  0
 18 31  1  0  0  0  0
 19 24  1  0  0  0  0
 19 20  1  0  0  0  0
 20 32  1  0  0  0  0
M  END
> <s_m_source_file>
AV-unprocessed.smi

> <i_m_source_file_index>
114

> <i_lp_mmshare_version>
43012

> <i_f3d_flags>
0

> <s_epik_input>
RmMobjEpbmMoW05IMl0pYyhjMTIpbltjSF1uMltDQEBIXTNPW0NASF0oW0NIMl1bT0hdKVtDQEBIXShbT0hdKVtDQEBIXTNbT0hd

> <s_epik_cmdline>
J2VwaWtfcHl0aG9uJywgJy1waCcsICc3LjAnLCAnLXRuJywgJzgnLCAnLW1hJywgJzIwMCcsICctbWV0YWxfYmluZGluZycsICctaW1hZScsICc8aW5maWxlLm1hZT4nLCAnLW9tYWUnLCAnPG91dGZpbGUubWFlPic=

> <r_lp_tautomer_probability>
1

> <r_epik_Ionization_Penalty>
1.13199e-05

> <r_epik_Ionization_Penalty_Charging>
0

> <r_epik_Ionization_Penalty_Neutral>
1.13199e-05

> <r_epik_State_Penalty>
-0

> <r_epik_Charging_Adjusted_Penalty>
0

> <i_epik_Tot_Q>
0

> <i_epik_Tot_abs_Q>
0

> <r_epik_Metal_State_Penalty>
-0

> <b_epik_Metal_Only>
0

> <s_epik_Chemistry_Notes>
This compound contains an acetal/aminal-like group ( X-CH(R)-Y where X, Y are N, S, or O) that may be acid/base labile, releasing an aldehyde.

> <s_lp_Force_Field>
OPLS_2005

> <r_lp_Energy>
32.1203

> <b_lp_Chiralities_Consistent>
1

> <s_lp_Variant>
AV-unprocessed.smi:114-2

> <Gold.Version>
5.8.1

> <Gold.Id.Protein>
6NUR|6NUR_protein|mol2

> <Gold.PLP.Fitness>
46.8894

> <Gold.PLP.PLP>
-31.4194

> <Gold.PLP.part.hbond>
-8.0554

> <Gold.PLP.part.metal>
0.0000

> <Gold.PLP.part.buried>
-2.2196

> <Gold.PLP.part.nonpolar>
-22.9544

> <Gold.PLP.part.repulsive>
3.2606

> <Gold.PLP.ligand.clash>
0.0000

> <Gold.PLP.ligand.torsion>
0.3819

> <Gold.PLP.Chemscore.Hbond>
5.4013

> <Gold.PLP.Chemscore.CHOScore>
0.0000

> <Gold.PLP.Chemscore.Metal>
0.0000

> <Gold.Chemscore.Hbonds>
donor molecule, donor type, donor heavy atom, donor atom, acceptor molecule, acceptor atom, score
      L1  H    16    30       P1  7957  0.86
      L1  H    18    31       P1 10175  1.00
      L1  H    20    32       P1  8028  1.00
      P1  H  7954  7966       L1    16  0.50
      P1  H  7989  7998       L1     6  1.00
      P1  H  7997  8009       L1     3  1.00

> <Gold.PLP.Chemscore.Internal.Correction>
0.0299

> <Gold.Rescore>
     Score         DG    S(hbond)    S(metal)    S(lipo)     H(rot)  DE(clash)    DE(int)     intcor
      7.82     -11.60       3.87        0.00      29.91       4.03       3.37       0.40       ----

> <Gold.Chemscore.Fitness>
7.8195

> <Gold.Chemscore.DG>
-11.5951

> <Gold.Chemscore.ZeroCoef>
-5.4800

> <Gold.Chemscore.Hbond>
3.8702

> <Gold.Chemscore.Metal>
0.0000

> <Gold.Chemscore.Lipo>
29.9101

> <Gold.Chemscore.Internal_Hbond>
0.0000

> <Gold.Chemscore.DEClash>
3.3714

> <Gold.Chemscore.DEInternal>
0.4043

> <Gold.Chemscore.Rot>
4.0277

> <Gold.Chemscore.Internal.Correction>
   9.000000E+99

> <Gold.Chemscore.Hbonds>
donor molecule, donor type, donor heavy atom, donor atom, acceptor molecule, acceptor atom, score
      L1  H    16    30       P1  7957  0.85
      L1  H    18    31       P1 10175  0.89
      L1  H    20    32       P1  8028  0.30
      P1  H  7954  7966       L1    16  0.08
      P1  H  7989  7998       L1     6  0.76
      P1  H  7997  8009       L1     3  0.17

> <Gold.Chemscore.Hbond.Weighted>
-12.9266

> <Gold.Chemscore.Metal.Weighted>
-0.0000

> <Gold.Chemscore.Lipo.Weighted>
-3.4995

> <Gold.Chemscore.Internal_Hbond.Weighted>
0.0000

> <Gold.Chemscore.DEClash.Weighted>
3.3714

> <Gold.Chemscore.DEInternal.Weighted>
0.4043

> <Gold.Chemscore.Rot.Weighted>
10.3110

> <Gold.Chemscore.Internal.Correction.Weighted>
   9.000000E+99

> <Gold.Protein.RotatedTorsions>
[ 6907 6896 6895 6894 ] final -127.77 input  -60.11 | X-H torsion
[ 7974 7965 7964 7962 ] final -118.12 input  175.53 | X-H torsion
[ 8008 7997 7996 7995 ] final  170.47 input   59.86 | X-H torsion
[ 10167 10162 10161 10158 ] final   47.36 input  -65.29 | X-H torsion
[ 10718 10713 10712 10709 ] final   33.97 input   66.30 | X-H torsion
[ 10763 10752 10751 10750 ] final   -5.35 input  -60.55 | X-H torsion
[ 11005 11000 10999 10996 ] final   76.35 input  -57.11 | X-H torsion

> <Gold.Protein.ActiveResidues>
 VAL166  LYS551  ARG553  GLY616  TRP617  ASP618  TYR619  PRO620  LYS621  CYS622 
 ASP623  PHE694  ASN695  SER759  ASP760  ASP761  ALA762  ILE779  LEU786  VAL792 
 PHE793  MET794  SER795  GLU796  ALA797  LYS798  CYS799  TRP800  GLU811  SER814 

> <Gold.Protein.RotatedAtoms>
  150.9107  133.7001  159.2855 H   0  0  0  0  0  0  0  0  0  0  0  0  # atno 6907 bound_to 6896
  151.4488  135.1026  159.9701 H   0  0  0  0  0  0  0  0  0  0  0  0  # atno 6908 bound_to 6896
  152.4928  133.8498  159.7251 H   0  0  0  0  0  0  0  0  0  0  0  0  # atno 6909 bound_to 6896
  145.0774  140.8402  143.4059 H   0  0  0  0  0  0  0  0  0  0  0  0  # atno 7974 bound_to 7965
  156.1362  140.1537  156.8991 H   0  0  0  0  0  0  0  0  0  0  0  0  # atno 8008 bound_to 7997
  154.4949  140.0841  156.7714 H   0  0  0  0  0  0  0  0  0  0  0  0  # atno 8009 bound_to 7997
  155.4165  140.3421  155.4270 H   0  0  0  0  0  0  0  0  0  0  0  0  # atno 8010 bound_to 7997
  140.3045  144.2895  150.6212 H   0  0  0  0  0  0  0  0  0  0  0  0  # atno 10167 bound_to 10162
  157.3045  130.7367  149.6687 H   0  0  0  0  0  0  0  0  0  0  0  0  # atno 10718 bound_to 10713
  153.3973  135.7004  153.6451 H   0  0  0  0  0  0  0  0  0  0  0  0  # atno 10763 bound_to 10752
  153.4999  135.3654  155.2535 H   0  0  0  0  0  0  0  0  0  0  0  0  # atno 10764 bound_to 10752
  154.8707  135.4109  154.3301 H   0  0  0  0  0  0  0  0  0  0  0  0  # atno 10765 bound_to 10752
  139.9302  134.7594  156.1385 H   0  0  0  0  0  0  0  0  0  0  0  0  # atno 11005 bound_to 11000
  145.1219  139.2688  143.5584 LP  0  0  0  0  0  0  0  0  0  0  0  0  # atno 17320 bound_to 7965
  146.3530  140.0845  142.8616 LP  0  0  0  0  0  0  0  0  0  0  0  0  # atno 17321 bound_to 7965
  140.5622  143.2190  151.7745 LP  0  0  0  0  0  0  0  0  0  0  0  0  # atno 17342 bound_to 10162
  139.4907  144.4332  151.9848 LP  0  0  0  0  0  0  0  0  0  0  0  0  # atno 17343 bound_to 10162
  155.9673  130.4270  150.4724 LP  0  0  0  0  0  0  0  0  0  0  0  0  # atno 17370 bound_to 10713
  157.2711  131.0587  151.2259 LP  0  0  0  0  0  0  0  0  0  0  0  0  # atno 17371 bound_to 10713
  141.0886  133.6724  156.2490 LP  0  0  0  0  0  0  0  0  0  0  0  0  # atno 17394 bound_to 11000
  140.6223  134.5349  157.5549 LP  0  0  0  0  0  0  0  0  0  0  0  0  # atno 17395 bound_to 11000

$$$$
