AV-unprocessed.smi:101|AV-procd|sdf|925|dock3
  -GOLD-   2262017433D 1   1.00000     0.00000
 Structure written by MMmdl.
 44 46  0  0  0  0  0  0  0  0  1 V2000
  146.2096  143.0352  154.0778 C   0  0  0  0  0  0  0  0  0  0  0  0
  146.1079  141.7895  154.9424 C   0  0  0  0  0  0  0  0  0  0  0  0
  147.1620  140.9582  155.1457 C   0  0  0  0  0  0  0  0  0  0  0  0
  147.1011  139.8145  155.9332 N   0  0  0  0  0  0  0  0  0  0  0  0
  148.2995  138.9079  156.1508 C   0  0  2  0  0  0  0  0  0  0  0  0
  149.4311  139.6856  156.4150 O   0  0  0  0  0  0  0  0  0  0  0  0
  150.3095  139.6570  155.2949 C   0  0  1  0  0  0  0  0  0  0  0  0
  151.7280  140.0161  155.7477 C   0  0  0  0  0  0  0  0  0  0  0  0
  151.6308  140.9833  156.7797 O   0  0  0  0  0  0  0  0  0  0  0  0
  152.4589  140.9340  157.8391 C   0  0  0  0  0  0  0  0  0  0  0  0
  153.1770  139.9669  158.1003 O   0  0  0  0  0  0  0  0  0  0  0  0
  152.4117  142.1749  158.6655 C   0  0  0  0  0  0  0  0  0  0  0  0
  152.8639  142.1339  160.0050 C   0  0  0  0  0  0  0  0  0  0  0  0
  152.8276  143.2894  160.8097 C   0  0  0  0  0  0  0  0  0  0  0  0
  152.3401  144.5001  160.2844 C   0  0  0  0  0  0  0  0  0  0  0  0
  151.8884  144.5543  158.9529 C   0  0  0  0  0  0  0  0  0  0  0  0
  151.9230  143.3999  158.1468 C   0  0  0  0  0  0  0  0  0  0  0  0
  150.1423  138.2205  154.8102 C   0  0  2  0  0  0  0  0  0  0  0  0
  150.6492  138.0041  153.5060 O   0  0  0  0  0  0  0  0  0  0  0  0
  148.6326  138.0235  154.9225 C   0  0  2  0  0  0  0  0  0  0  0  0
  147.9563  138.4215  153.7384 O   0  0  0  0  0  0  0  0  0  0  0  0
  145.8867  139.4773  156.5647 C   0  0  0  0  0  0  0  0  0  0  0  0
  145.7590  138.4749  157.2668 O   0  0  0  0  0  0  0  0  0  0  0  0
  144.8049  140.3304  156.3570 N   0  0  0  0  0  0  0  0  0  0  0  0
  144.8213  141.4882  155.5760 C   0  0  0  0  0  0  0  0  0  0  0  0
  143.7982  142.1621  155.4676 O   0  0  0  0  0  0  0  0  0  0  0  0
  143.9341  140.0914  156.8085 H   0  0  0  0  0  0  0  0  0  0  0  0
  147.2096  143.1585  153.6603 H   0  0  0  0  0  0  0  0  0  0  0  0
  145.9814  143.9255  154.6648 H   0  0  0  0  0  0  0  0  0  0  0  0
  145.5055  142.9820  153.2469 H   0  0  0  0  0  0  0  0  0  0  0  0
  148.0913  141.2160  154.6620 H   0  0  0  0  0  0  0  0  0  0  0  0
  148.0804  138.3340  157.0533 H   0  0  0  0  0  0  0  0  0  0  0  0
  149.9624  140.3491  154.5254 H   0  0  0  0  0  0  0  0  0  0  0  0
  152.2588  139.1271  156.0917 H   0  0  0  0  0  0  0  0  0  0  0  0
  152.2924  140.4404  154.9165 H   0  0  0  0  0  0  0  0  0  0  0  0
  153.2419  141.2156  160.4305 H   0  0  0  0  0  0  0  0  0  0  0  0
  153.1741  143.2455  161.8319 H   0  0  0  0  0  0  0  0  0  0  0  0
  152.3120  145.3858  160.9018 H   0  0  0  0  0  0  0  0  0  0  0  0
  151.5137  145.4829  158.5481 H   0  0  0  0  0  0  0  0  0  0  0  0
  151.5681  143.4771  157.1293 H   0  0  0  0  0  0  0  0  0  0  0  0
  150.6460  137.5432  155.5016 H   0  0  0  0  0  0  0  0  0  0  0  0
  149.9553  137.6597  152.9652 H   0  0  0  0  0  0  0  0  0  0  0  0
  148.3772  136.9850  155.1357 H   0  0  0  0  0  0  0  0  0  0  0  0
  148.1704  137.8079  153.0523 H   0  0  0  0  0  0  0  0  0  0  0  0
  1  2  1  0  0  0  0
  1 28  1  0  0  0  0
  1 29  1  0  0  0  0
  1 30  1  0  0  0  0
  2 25  1  0  0  0  0
  2  3  2  0  0  0  0
  3  4  1  0  0  0  0
  3 31  1  0  0  0  0
  4  5  1  0  0  0  0
  4 22  1  0  0  0  0
  5 20  1  0  0  0  0
  5  6  1  0  0  0  0
  5 32  1  0  0  0  0
  6  7  1  0  0  0  0
  7  8  1  0  0  0  0
  7 18  1  0  0  0  0
  7 33  1  0  0  0  0
  8  9  1  0  0  0  0
  8 34  1  0  0  0  0
  8 35  1  0  0  0  0
  9 10  1  0  0  0  0
 10 11  2  0  0  0  0
 10 12  1  0  0  0  0
 12 17  1  0  0  0  0
 12 13  2  0  0  0  0
 13 14  1  0  0  0  0
 13 36  1  0  0  0  0
 14 15  2  0  0  0  0
 14 37  1  0  0  0  0
 15 16  1  0  0  0  0
 15 38  1  0  0  0  0
 16 17  2  0  0  0  0
 16 39  1  0  0  0  0
 17 40  1  0  0  0  0
 18 19  1  0  0  0  0
 18 20  1  0  0  0  0
 18 41  1  0  0  0  0
 19 42  1  0  0  0  0
 20 21  1  0  0  0  0
 20 43  1  0  0  0  0
 21 44  1  0  0  0  0
 22 23  2  0  0  0  0
 22 24  1  0  0  0  0
 24 27  1  0  0  0  0
 24 25  1  0  0  0  0
 25 26  2  0  0  0  0
M  END
> <s_m_source_file>
AV-unprocessed.smi

> <i_m_source_file_index>
101

> <i_lp_mmshare_version>
43012

> <i_f3d_flags>
0

> <s_epik_input>
Tz1jMVtuSF1jKD1PKW4oW2NIXWMxW0NIM10pW0NAQEhdMk9bQ0BIXShbQ0BASF0oW09IXSlbQ0BIXTJbT0hdKVtDSDJdT0MoPU8pYzNbY0hdW2NIXVtjSF1bY0hdW2NIXTM=

> <s_epik_cmdline>
J2VwaWtfcHl0aG9uJywgJy1waCcsICc3LjAnLCAnLXRuJywgJzgnLCAnLW1hJywgJzIwMCcsICctbWV0YWxfYmluZGluZycsICctaW1hZScsICc8aW5maWxlLm1hZT4nLCAnLW9tYWUnLCAnPG91dGZpbGUubWFlPic=

> <r_lp_tautomer_probability>
0.999537

> <r_epik_Ionization_Penalty>
0.00263537

> <r_epik_Ionization_Penalty_Charging>
0.00263428

> <r_epik_Ionization_Penalty_Neutral>
1.09111e-06

> <r_epik_State_Penalty>
0.00183335

> <r_epik_Charging_Adjusted_Penalty>
0.00446763

> <i_epik_Tot_Q>
0

> <i_epik_Tot_abs_Q>
0

> <r_epik_Metal_State_Penalty>
1.00528

> <b_epik_Metal_Only>
0

> <s_epik_Chemistry_Notes>
This compound has an ester and may undergo hydrolysis at high or low pH. This compound contains an acetal/aminal-like group ( X-CH(R)-Y where X, Y are N, S, or O) that may be acid/base labile, releasing an aldehyde.

> <s_lp_Force_Field>
OPLS_2005

> <r_lp_Energy>
40.9352

> <b_lp_Chiralities_Consistent>
1

> <s_lp_Variant>
AV-unprocessed.smi:101-13

> <Gold.Version>
5.8.1

> <Gold.Id.Protein>
6NUR|6NUR_protein|mol2

> <Gold.PLP.Fitness>
46.7408

> <Gold.PLP.PLP>
-40.5108

> <Gold.PLP.part.hbond>
-4.2049

> <Gold.PLP.part.metal>
0.0000

> <Gold.PLP.part.buried>
-4.4234

> <Gold.PLP.part.nonpolar>
-32.7808

> <Gold.PLP.part.repulsive>
0.1888

> <Gold.PLP.ligand.clash>
0.0000

> <Gold.PLP.ligand.torsion>
1.2957

> <Gold.PLP.Chemscore.Hbond>
2.8938

> <Gold.PLP.Chemscore.CHOScore>
0.0000

> <Gold.PLP.Chemscore.Metal>
0.0000

> <Gold.Chemscore.Hbonds>
donor molecule, donor type, donor heavy atom, donor atom, acceptor molecule, acceptor atom, score
      L1  H    19    42       P1  7948  1.00
      L1  H    21    44       P1  7948  0.80
      P1  H  7997  8009       L1    11  0.99

> <Gold.PLP.Chemscore.Internal.Correction>
0.1402

> <Gold.Rescore>
     Score         DG    S(hbond)    S(metal)    S(lipo)     H(rot)  DE(clash)    DE(int)     intcor
     14.10     -16.37       2.09        0.00     106.01       3.32       0.07       2.19       ----

> <Gold.Chemscore.Fitness>
14.1030

> <Gold.Chemscore.DG>
-16.3678

> <Gold.Chemscore.ZeroCoef>
-5.4800

> <Gold.Chemscore.Hbond>
2.0888

> <Gold.Chemscore.Metal>
0.0000

> <Gold.Chemscore.Lipo>
106.0092

> <Gold.Chemscore.Internal_Hbond>
0.0000

> <Gold.Chemscore.DEClash>
0.0727

> <Gold.Chemscore.DEInternal>
2.1921

> <Gold.Chemscore.Rot>
3.3172

> <Gold.Chemscore.Internal.Correction>
   9.000000E+99

> <Gold.Chemscore.Hbonds>
donor molecule, donor type, donor heavy atom, donor atom, acceptor molecule, acceptor atom, score
      L1  H    19    42       P1  7948  0.28
      L1  H    21    44       P1  7948  0.79
      P1  H  7997  8009       L1    11  0.70

> <Gold.Chemscore.Hbond.Weighted>
-6.9767

> <Gold.Chemscore.Metal.Weighted>
-0.0000

> <Gold.Chemscore.Lipo.Weighted>
-12.4031

> <Gold.Chemscore.Internal_Hbond.Weighted>
0.0000

> <Gold.Chemscore.DEClash.Weighted>
0.0727

> <Gold.Chemscore.DEInternal.Weighted>
2.1921

> <Gold.Chemscore.Rot.Weighted>
8.4920

> <Gold.Chemscore.Internal.Correction.Weighted>
   9.000000E+99

> <Gold.Protein.RotatedTorsions>
[ 6907 6896 6895 6894 ] final   33.14 input  -60.11 | X-H torsion
[ 7974 7965 7964 7962 ] final  -91.15 input  175.53 | X-H torsion
[ 8008 7997 7996 7995 ] final  145.26 input   59.86 | X-H torsion
[ 10167 10162 10161 10158 ] final  -53.62 input  -65.29 | X-H torsion
[ 10718 10713 10712 10709 ] final  178.39 input   66.30 | X-H torsion
[ 10763 10752 10751 10750 ] final  -15.80 input  -60.55 | X-H torsion
[ 11005 11000 10999 10996 ] final -155.39 input  -57.11 | X-H torsion

> <Gold.Protein.ActiveResidues>
 VAL166  LYS551  ARG553  GLY616  TRP617  ASP618  TYR619  PRO620  LYS621  CYS622 
 ASP623  PHE694  ASN695  SER759  ASP760  ASP761  ALA762  ILE779  LEU786  VAL792 
 PHE793  MET794  SER795  GLU796  ALA797  LYS798  CYS799  TRP800  GLU811  SER814 

> <Gold.Protein.RotatedAtoms>
  152.0843  134.9450  160.0572 H   0  0  0  0  0  0  0  0  0  0  0  0  # atno 6907 bound_to 6896
  152.0726  133.4109  159.4474 H   0  0  0  0  0  0  0  0  0  0  0  0  # atno 6908 bound_to 6896
  150.6836  134.2994  159.4743 H   0  0  0  0  0  0  0  0  0  0  0  0  # atno 6909 bound_to 6896
  145.4170  140.9549  143.2202 H   0  0  0  0  0  0  0  0  0  0  0  0  # atno 7974 bound_to 7965
  156.2888  140.2214  156.5186 H   0  0  0  0  0  0  0  0  0  0  0  0  # atno 8008 bound_to 7997
  154.7548  140.0477  157.0945 H   0  0  0  0  0  0  0  0  0  0  0  0  # atno 8009 bound_to 7997
  155.0065  140.3108  155.4850 H   0  0  0  0  0  0  0  0  0  0  0  0  # atno 8010 bound_to 7997
  140.6475  143.2544  151.4819 H   0  0  0  0  0  0  0  0  0  0  0  0  # atno 10167 bound_to 10162
  156.8912  130.9848  151.3049 H   0  0  0  0  0  0  0  0  0  0  0  0  # atno 10718 bound_to 10713
  153.5489  135.7012  153.5601 H   0  0  0  0  0  0  0  0  0  0  0  0  # atno 10763 bound_to 10752
  153.3534  135.3989  155.1663 H   0  0  0  0  0  0  0  0  0  0  0  0  # atno 10764 bound_to 10752
  154.8664  135.3771  154.4998 H   0  0  0  0  0  0  0  0  0  0  0  0  # atno 10765 bound_to 10752
  140.6870  134.4083  157.5222 H   0  0  0  0  0  0  0  0  0  0  0  0  # atno 11005 bound_to 11000
  144.8271  139.5692  143.6961 LP  0  0  0  0  0  0  0  0  0  0  0  0  # atno 17320 bound_to 7965
  146.2676  139.6557  142.9318 LP  0  0  0  0  0  0  0  0  0  0  0  0  # atno 17321 bound_to 7965
  139.5686  144.1982  152.1803 LP  0  0  0  0  0  0  0  0  0  0  0  0  # atno 17342 bound_to 10162
  140.1271  144.5321  150.6826 LP  0  0  0  0  0  0  0  0  0  0  0  0  # atno 17343 bound_to 10162
  157.6082  130.8563  149.8910 LP  0  0  0  0  0  0  0  0  0  0  0  0  # atno 17370 bound_to 10713
  156.0628  130.3697  150.0944 LP  0  0  0  0  0  0  0  0  0  0  0  0  # atno 17371 bound_to 10713
  139.8935  134.8730  156.2222 LP  0  0  0  0  0  0  0  0  0  0  0  0  # atno 17394 bound_to 11000
  141.0272  133.7008  156.1368 LP  0  0  0  0  0  0  0  0  0  0  0  0  # atno 17395 bound_to 11000

$$$$
