AV-unprocessed.smi:3303|AV-procd|sdf|12689|dock5
  -GOLD-   2272019 23D 1   1.00000     0.00000
 Structure written by MMmdl.
 44 45  0  0  0  0  0  0  0  0  2 V2000
  149.4517  140.7249  154.4248 C   0  0  0  0  0  0  0  0  0  0  0  0
  149.6281  139.2070  154.2508 C   0  0  2  0  0  0  0  0  0  0  0  0
  148.3647  138.4252  154.6559 C   0  0  0  0  0  0  0  0  0  0  0  0
  148.5032  136.9715  154.3822 N   0  3  2  0  0  0  0  0  0  0  0  0
  147.2202  136.2648  154.6153 C   0  0  0  0  0  0  0  0  0  0  0  0
  149.6670  136.3746  155.1031 C   0  0  1  0  0  0  0  0  0  0  0  0
  149.8396  134.8708  154.8118 C   0  0  0  0  0  0  0  0  0  0  0  0
  150.9722  137.1191  154.7416 C   0  0  0  0  0  0  0  0  0  0  0  0
  150.8876  138.6413  154.9453 C   0  0  2  0  0  0  0  0  0  0  0  0
  150.9216  138.9399  156.3753 N   0  0  0  0  0  0  0  0  0  0  0  0
  151.5002  140.2509  156.6316 C   0  0  0  0  0  0  0  0  0  0  0  0
  151.0108  140.7819  157.9851 C   0  0  0  0  0  0  0  0  0  0  0  0
  151.5498  142.1697  158.2758 C   0  0  0  0  0  0  0  0  0  0  0  0
  151.3860  143.2169  157.3441 C   0  0  0  0  0  0  0  0  0  0  0  0
  151.9186  144.4827  157.6575 C   0  0  0  0  0  0  0  0  0  0  0  0
  152.5912  144.6511  158.8832 C   0  0  0  0  0  0  0  0  0  0  0  0
  152.7030  143.5414  159.7443 C   0  0  0  0  0  0  0  0  0  0  0  0
  152.1975  142.3232  159.4529 N   0  0  0  0  0  0  0  0  0  0  0  0
  149.2589  140.9921  155.4643 H   0  0  0  0  0  0  0  0  0  0  0  0
  148.6131  141.0918  153.8325 H   0  0  0  0  0  0  0  0  0  0  0  0
  150.3422  141.2629  154.0989 H   0  0  0  0  0  0  0  0  0  0  0  0
  149.7659  139.0418  153.1811 H   0  0  0  0  0  0  0  0  0  0  0  0
  148.1421  138.5799  155.7131 H   0  0  0  0  0  0  0  0  0  0  0  0
  147.5128  138.8153  154.0970 H   0  0  0  0  0  0  0  0  0  0  0  0
  146.9891  136.2129  155.6800 H   0  0  0  0  0  0  0  0  0  0  0  0
  147.2420  135.2521  154.2138 H   0  0  0  0  0  0  0  0  0  0  0  0
  146.3984  136.7786  154.1152 H   0  0  0  0  0  0  0  0  0  0  0  0
  149.4902  136.4882  156.1741 H   0  0  0  0  0  0  0  0  0  0  0  0
  150.7503  134.4886  155.2742 H   0  0  0  0  0  0  0  0  0  0  0  0
  149.9092  134.6777  153.7409 H   0  0  0  0  0  0  0  0  0  0  0  0
  149.0180  134.2770  155.2119 H   0  0  0  0  0  0  0  0  0  0  0  0
  151.8101  136.7140  155.3113 H   0  0  0  0  0  0  0  0  0  0  0  0
  151.2071  136.9265  153.6938 H   0  0  0  0  0  0  0  0  0  0  0  0
  151.7692  139.0777  154.4720 H   0  0  0  0  0  0  0  0  0  0  0  0
  151.4799  138.2467  156.8533 H   0  0  0  0  0  0  0  0  0  0  0  0
  152.5883  140.1724  156.6327 H   0  0  0  0  0  0  0  0  0  0  0  0
  151.2234  140.9467  155.8394 H   0  0  0  0  0  0  0  0  0  0  0  0
  149.9204  140.8097  158.0054 H   0  0  0  0  0  0  0  0  0  0  0  0
  151.3161  140.1088  158.7879 H   0  0  0  0  0  0  0  0  0  0  0  0
  150.8684  143.0559  156.4098 H   0  0  0  0  0  0  0  0  0  0  0  0
  151.8148  145.3086  156.9694 H   0  0  0  0  0  0  0  0  0  0  0  0
  153.0126  145.6071  159.1567 H   0  0  0  0  0  0  0  0  0  0  0  0
  153.2133  143.6338  160.6915 H   0  0  0  0  0  0  0  0  0  0  0  0
  148.6995  136.8857  153.3952 H   0  0  0  0  0  0  0  0  0  0  0  0
  1  2  1  0  0  0  0
  1 19  1  0  0  0  0
  1 20  1  0  0  0  0
  1 21  1  0  0  0  0
  2  9  1  0  0  0  0
  2  3  1  0  0  0  0
  2 22  1  0  0  0  0
  3  4  1  0  0  0  0
  3 23  1  0  0  0  0
  3 24  1  0  0  0  0
  4  5  1  0  0  0  0
  4  6  1  0  0  0  0
  4 44  1  0  0  0  0
  5 25  1  0  0  0  0
  5 26  1  0  0  0  0
  5 27  1  0  0  0  0
  6  7  1  0  0  0  0
  6  8  1  0  0  0  0
  6 28  1  0  0  0  0
  7 29  1  0  0  0  0
  7 30  1  0  0  0  0
  7 31  1  0  0  0  0
  8  9  1  0  0  0  0
  8 32  1  0  0  0  0
  8 33  1  0  0  0  0
  9 10  1  0  0  0  0
  9 34  1  0  0  0  0
 10 11  1  0  0  0  0
 10 35  1  0  0  0  0
 11 12  1  0  0  0  0
 11 36  1  0  0  0  0
 11 37  1  0  0  0  0
 12 13  1  0  0  0  0
 12 38  1  0  0  0  0
 12 39  1  0  0  0  0
 13 18  1  0  0  0  0
 13 14  2  0  0  0  0
 14 15  1  0  0  0  0
 14 40  1  0  0  0  0
 15 16  2  0  0  0  0
 15 41  1  0  0  0  0
 16 17  1  0  0  0  0
 16 42  1  0  0  0  0
 17 18  2  0  0  0  0
 17 43  1  0  0  0  0
M  CHG  1   4   1
M  END
> <s_m_source_file>
AV-unprocessed.smi

> <i_m_source_file_index>
3303

> <i_lp_mmshare_version>
43012

> <i_f3d_flags>
0

> <s_epik_input>
W0NIM11bQ0BASF0xW0NIMl1OKFtDSDNdKVtDQEBIXShbQ0gzXSlbQ0gyXVtDQEhdMVtOSF1bQ0gyXVtDSDJdYzJbY0hdW2NIXVtjSF1bY0hdbjI=

> <s_epik_cmdline>
J2VwaWtfcHl0aG9uJywgJy1waCcsICc3LjAnLCAnLXRuJywgJzgnLCAnLW1hJywgJzIwMCcsICctbWV0YWxfYmluZGluZycsICctaW1hZScsICc8aW5maWxlLm1hZT4nLCAnLW9tYWUnLCAnPG91dGZpbGUubWFlPic=

> <r_epik_Ionization_Penalty>
2.31085

> <r_epik_Ionization_Penalty_Charging>
0.000313057

> <r_epik_Ionization_Penalty_Neutral>
2.31054

> <r_epik_State_Penalty>
2.4087

> <r_epik_Charging_Adjusted_Penalty>
2.40902

> <i_epik_Tot_Q>
1

> <i_epik_Tot_abs_Q>
1

> <r_epik_Metal_State_Penalty>
2.30979

> <b_epik_Metal_Only>
0

> <s_lp_Force_Field>
OPLS_2005

> <r_lp_Energy>
26.9633

> <b_lp_Chiralities_Consistent>
1

> <s_lp_Variant>
AV-unprocessed.smi:3303-33

> <Gold.Version>
5.8.1

> <Gold.Id.Protein>
6NUR|6NUR_protein|mol2

> <Gold.PLP.Fitness>
43.5563

> <Gold.PLP.PLP>
-38.5248

> <Gold.PLP.part.hbond>
-1.0000

> <Gold.PLP.part.metal>
0.0000

> <Gold.PLP.part.buried>
-3.8983

> <Gold.PLP.part.nonpolar>
-34.2475

> <Gold.PLP.part.repulsive>
0.0000

> <Gold.PLP.ligand.clash>
0.0000

> <Gold.PLP.ligand.torsion>
0.4878

> <Gold.PLP.Chemscore.Hbond>
2.0000

> <Gold.PLP.Chemscore.CHOScore>
0.0000

> <Gold.PLP.Chemscore.Metal>
0.0000

> <Gold.Chemscore.Hbonds>
donor molecule, donor type, donor heavy atom, donor atom, acceptor molecule, acceptor atom, score
      L1  H     4    44       P1  7948  2.00

> <Gold.PLP.Chemscore.Internal.Correction>
0.0071

> <Gold.Rescore>
     Score         DG    S(hbond)    S(metal)    S(lipo)     H(rot)  DE(clash)    DE(int)     intcor
     18.32     -18.98       0.99        0.00     116.06       1.33       0.13       0.53       ----

> <Gold.Chemscore.Fitness>
18.3233

> <Gold.Chemscore.DG>
-18.9780

> <Gold.Chemscore.ZeroCoef>
-5.4800

> <Gold.Chemscore.Hbond>
0.9930

> <Gold.Chemscore.Metal>
0.0000

> <Gold.Chemscore.Lipo>
116.0617

> <Gold.Chemscore.Internal_Hbond>
0.0000

> <Gold.Chemscore.DEClash>
0.1256

> <Gold.Chemscore.DEInternal>
0.5291

> <Gold.Chemscore.Rot>
1.3272

> <Gold.Chemscore.Internal.Correction>
   9.000000E+99

> <Gold.Chemscore.Hbonds>
donor molecule, donor type, donor heavy atom, donor atom, acceptor molecule, acceptor atom, score
      L1  H     4    44       P1  7948  1.00

> <Gold.Chemscore.Hbond.Weighted>
-3.3165

> <Gold.Chemscore.Metal.Weighted>
-0.0000

> <Gold.Chemscore.Lipo.Weighted>
-13.5792

> <Gold.Chemscore.Internal_Hbond.Weighted>
0.0000

> <Gold.Chemscore.DEClash.Weighted>
0.1256

> <Gold.Chemscore.DEInternal.Weighted>
0.5291

> <Gold.Chemscore.Rot.Weighted>
3.3976

> <Gold.Chemscore.Internal.Correction.Weighted>
   9.000000E+99

> <Gold.Protein.RotatedTorsions>
[ 6907 6896 6895 6894 ] final  -78.51 input  -60.11 | X-H torsion
[ 7974 7965 7964 7962 ] final  -96.80 input  175.53 | X-H torsion
[ 8008 7997 7996 7995 ] final  -30.89 input   59.86 | X-H torsion
[ 10167 10162 10161 10158 ] final  127.86 input  -65.29 | X-H torsion
[ 10718 10713 10712 10709 ] final  126.08 input   66.30 | X-H torsion
[ 10763 10752 10751 10750 ] final -177.12 input  -60.55 | X-H torsion
[ 11005 11000 10999 10996 ] final  -54.91 input  -57.11 | X-H torsion

> <Gold.Protein.ActiveResidues>
 VAL166  LYS551  ARG553  GLY616  TRP617  ASP618  TYR619  PRO620  LYS621  CYS622 
 ASP623  PHE694  ASN695  SER759  ASP760  ASP761  ALA762  ILE779  LEU786  VAL792 
 PHE793  MET794  SER795  GLU796  ALA797  LYS798  CYS799  TRP800  GLU811  SER814 

> <Gold.Protein.RotatedAtoms>
  150.6971  134.4262  159.5227 H   0  0  0  0  0  0  0  0  0  0  0  0  # atno 6907 bound_to 6896
  152.1996  134.8597  160.0518 H   0  0  0  0  0  0  0  0  0  0  0  0  # atno 6908 bound_to 6896
  151.9522  133.3634  159.4041 H   0  0  0  0  0  0  0  0  0  0  0  0  # atno 6909 bound_to 6896
  145.3421  140.9461  143.2602 H   0  0  0  0  0  0  0  0  0  0  0  0  # atno 7974 bound_to 7965
  154.4234  140.1779  156.1479 H   0  0  0  0  0  0  0  0  0  0  0  0  # atno 8008 bound_to 7997
  155.9939  140.3366  155.6755 H   0  0  0  0  0  0  0  0  0  0  0  0  # atno 8009 bound_to 7997
  155.6335  140.0672  157.2632 H   0  0  0  0  0  0  0  0  0  0  0  0  # atno 8010 bound_to 7997
  139.5557  144.6846  151.4191 H   0  0  0  0  0  0  0  0  0  0  0  0  # atno 10167 bound_to 10162
  157.5449  131.1096  150.8798 H   0  0  0  0  0  0  0  0  0  0  0  0  # atno 10718 bound_to 10713
  154.5640  135.2822  155.0892 H   0  0  0  0  0  0  0  0  0  0  0  0  # atno 10763 bound_to 10752
  154.2290  135.6377  153.5173 H   0  0  0  0  0  0  0  0  0  0  0  0  # atno 10764 bound_to 10752
  153.0037  135.5532  154.6242 H   0  0  0  0  0  0  0  0  0  0  0  0  # atno 10765 bound_to 10752
  141.1048  133.6614  156.4391 H   0  0  0  0  0  0  0  0  0  0  0  0  # atno 11005 bound_to 11000
  144.8782  139.4941  143.6735 LP  0  0  0  0  0  0  0  0  0  0  0  0  # atno 17320 bound_to 7965
  146.3003  139.7406  142.9096 LP  0  0  0  0  0  0  0  0  0  0  0  0  # atno 17321 bound_to 7965
  140.6829  143.8041  150.7146 LP  0  0  0  0  0  0  0  0  0  0  0  0  # atno 17342 bound_to 10162
  140.1500  143.4366  152.2138 LP  0  0  0  0  0  0  0  0  0  0  0  0  # atno 17343 bound_to 10162
  156.9340  130.5360  149.5279 LP  0  0  0  0  0  0  0  0  0  0  0  0  # atno 17370 bound_to 10713
  156.0527  130.5594  150.9025 LP  0  0  0  0  0  0  0  0  0  0  0  0  # atno 17371 bound_to 10713
  140.4929  134.6558  157.5218 LP  0  0  0  0  0  0  0  0  0  0  0  0  # atno 17394 bound_to 11000
  139.9914  134.6979  155.9683 LP  0  0  0  0  0  0  0  0  0  0  0  0  # atno 17395 bound_to 11000

$$$$
