AV-unprocessed.smi:3336|AV-procd|sdf|12858|dock5
  -GOLD-   2272019253D 1   1.00000     0.00000
 Structure written by MMmdl.
 41 42  0  0  0  0  0  0  0  0  1 V2000
  148.0107  139.0844  155.2992 C   0  0  0  0  0  0  0  0  0  0  0  0
  149.2856  139.8905  155.0016 C   0  0  1  0  0  0  0  0  0  0  0  0
  149.0054  141.2884  154.4146 C   0  0  0  0  0  0  0  0  0  0  0  0
  147.6796  141.7787  154.7467 N   0  0  0  0  0  0  0  0  0  0  0  0
  146.6945  142.2207  153.8891 C   0  0  0  0  0  0  0  0  0  0  0  0
  145.6233  142.5848  154.6535 C   0  0  0  0  0  0  0  0  0  0  0  0
  146.0547  142.3263  155.9847 C   0  0  0  0  0  0  0  0  0  0  0  0
  147.2866  141.8461  156.0376 N   0  0  0  0  0  0  0  0  0  0  0  0
  150.0205  140.0663  156.2506 N   0  0  0  0  0  0  0  0  0  0  0  0
  151.4276  140.4678  156.0703 C   0  0  2  0  0  0  0  0  0  0  0  0
  152.1840  139.4290  155.2166 C   0  0  0  0  0  0  0  0  0  0  0  0
  152.1325  140.6432  157.4333 C   0  0  0  0  0  0  0  0  0  0  0  0
  152.9876  139.8166  157.7592 O   0  0  0  0  0  0  0  0  0  0  0  0
  151.8081  141.6859  158.2401 N   0  0  0  0  0  0  0  0  0  0  0  0
  150.9011  142.7970  157.9257 C   0  0  0  0  0  0  0  0  0  0  0  0
  151.7103  144.1070  157.9295 C   0  0  0  0  0  0  0  0  0  0  0  0
  152.3417  144.2829  159.1944 O   0  0  0  0  0  0  0  0  0  0  0  0
  153.2152  143.2094  159.5320 C   0  0  0  0  0  0  0  0  0  0  0  0
  152.4220  141.8913  159.5571 C   0  0  0  0  0  0  0  0  0  0  0  0
  147.4501  138.8782  154.3873 H   0  0  0  0  0  0  0  0  0  0  0  0
  147.3499  139.6213  155.9808 H   0  0  0  0  0  0  0  0  0  0  0  0
  148.2497  138.1225  155.7543 H   0  0  0  0  0  0  0  0  0  0  0  0
  149.8781  139.3301  154.2766 H   0  0  0  0  0  0  0  0  0  0  0  0
  149.7476  142.0080  154.7657 H   0  0  0  0  0  0  0  0  0  0  0  0
  149.0891  141.2629  153.3273 H   0  0  0  0  0  0  0  0  0  0  0  0
  146.8370  142.2381  152.8185 H   0  0  0  0  0  0  0  0  0  0  0  0
  144.6759  142.9763  154.3137 H   0  0  0  0  0  0  0  0  0  0  0  0
  145.5131  142.4736  156.9075 H   0  0  0  0  0  0  0  0  0  0  0  0
  149.9376  139.2383  156.8232 H   0  0  0  0  0  0  0  0  0  0  0  0
  151.4161  141.4354  155.5698 H   0  0  0  0  0  0  0  0  0  0  0  0
  153.2380  139.6835  155.1072 H   0  0  0  0  0  0  0  0  0  0  0  0
  151.7710  139.3557  154.2108 H   0  0  0  0  0  0  0  0  0  0  0  0
  152.1328  138.4358  155.6649 H   0  0  0  0  0  0  0  0  0  0  0  0
  150.3929  142.7066  156.9689 H   0  0  0  0  0  0  0  0  0  0  0  0
  150.1132  142.8406  158.6792 H   0  0  0  0  0  0  0  0  0  0  0  0
  152.4608  144.1032  157.1375 H   0  0  0  0  0  0  0  0  0  0  0  0
  151.0538  144.9568  157.7421 H   0  0  0  0  0  0  0  0  0  0  0  0
  154.0377  143.1559  158.8169 H   0  0  0  0  0  0  0  0  0  0  0  0
  153.6531  143.4058  160.5107 H   0  0  0  0  0  0  0  0  0  0  0  0
  151.6394  141.9394  160.3157 H   0  0  0  0  0  0  0  0  0  0  0  0
  153.0792  141.0746  159.8576 H   0  0  0  0  0  0  0  0  0  0  0  0
  1  2  1  0  0  0  0
  1 20  1  0  0  0  0
  1 21  1  0  0  0  0
  1 22  1  0  0  0  0
  2  3  1  0  0  0  0
  2  9  1  0  0  0  0
  2 23  1  0  0  0  0
  3  4  1  0  0  0  0
  3 24  1  0  0  0  0
  3 25  1  0  0  0  0
  4  8  1  0  0  0  0
  4  5  1  0  0  0  0
  5  6  2  0  0  0  0
  5 26  1  0  0  0  0
  6  7  1  0  0  0  0
  6 27  1  0  0  0  0
  7  8  2  0  0  0  0
  7 28  1  0  0  0  0
  9 10  1  0  0  0  0
  9 29  1  0  0  0  0
 10 11  1  0  0  0  0
 10 12  1  0  0  0  0
 10 30  1  0  0  0  0
 11 31  1  0  0  0  0
 11 32  1  0  0  0  0
 11 33  1  0  0  0  0
 12 13  2  0  0  0  0
 12 14  1  0  0  0  0
 14 19  1  0  0  0  0
 14 15  1  0  0  0  0
 15 16  1  0  0  0  0
 15 34  1  0  0  0  0
 15 35  1  0  0  0  0
 16 17  1  0  0  0  0
 16 36  1  0  0  0  0
 16 37  1  0  0  0  0
 17 18  1  0  0  0  0
 18 19  1  0  0  0  0
 18 38  1  0  0  0  0
 18 39  1  0  0  0  0
 19 40  1  0  0  0  0
 19 41  1  0  0  0  0
M  END
> <s_m_source_file>
AV-unprocessed.smi

> <i_m_source_file_index>
3336

> <i_lp_mmshare_version>
43012

> <i_f3d_flags>
0

> <s_epik_input>
bjFbY0hdW2NIXVtjSF1uMVtDSDJdW0NAQEhdKFtDSDNdKVtOSF1bQ0BIXShbQ0gzXSlDKD1PKU4yW0NIMl1bQ0gyXU9bQ0gyXVtDSDJdMg==

> <s_epik_cmdline>
J2VwaWtfcHl0aG9uJywgJy1waCcsICc3LjAnLCAnLXRuJywgJzgnLCAnLW1hJywgJzIwMCcsICctbWV0YWxfYmluZGluZycsICctaW1hZScsICc8aW5maWxlLm1hZT4nLCAnLW9tYWUnLCAnPG91dGZpbGUubWFlPic=

> <r_lp_tautomer_probability>
1

> <r_epik_Ionization_Penalty>
0.739958

> <r_epik_Ionization_Penalty_Charging>
0

> <r_epik_Ionization_Penalty_Neutral>
0.739958

> <r_epik_State_Penalty>
0.765967

> <r_epik_Charging_Adjusted_Penalty>
0.765967

> <i_epik_Tot_Q>
0

> <i_epik_Tot_abs_Q>
0

> <r_epik_Metal_State_Penalty>
0.765947

> <b_epik_Metal_Only>
0

> <s_lp_Force_Field>
OPLS_2005

> <r_lp_Energy>
30.7433

> <b_lp_Chiralities_Consistent>
1

> <s_lp_Variant>
AV-unprocessed.smi:3336-6

> <Gold.Version>
5.8.1

> <Gold.Id.Protein>
6NUR|6NUR_protein|mol2

> <Gold.PLP.Fitness>
41.8858

> <Gold.PLP.PLP>
-40.6022

> <Gold.PLP.part.hbond>
-1.0000

> <Gold.PLP.part.metal>
0.0000

> <Gold.PLP.part.buried>
-4.4884

> <Gold.PLP.part.nonpolar>
-34.6343

> <Gold.PLP.part.repulsive>
0.3399

> <Gold.PLP.ligand.clash>
0.0000

> <Gold.PLP.ligand.torsion>
0.9039

> <Gold.PLP.Chemscore.Hbond>
1.0000

> <Gold.PLP.Chemscore.CHOScore>
0.0000

> <Gold.PLP.Chemscore.Metal>
0.0000

> <Gold.Chemscore.Hbonds>
donor molecule, donor type, donor heavy atom, donor atom, acceptor molecule, acceptor atom, score
      P1  H  7997  8008       L1    13  1.00

> <Gold.PLP.Chemscore.Internal.Correction>
0.0915

> <Gold.Rescore>
     Score         DG    S(hbond)    S(metal)    S(lipo)     H(rot)  DE(clash)    DE(int)     intcor
     13.48     -14.22       0.97        0.00      86.17       1.79       0.17       0.57       ----

> <Gold.Chemscore.Fitness>
13.4846

> <Gold.Chemscore.DG>
-14.2239

> <Gold.Chemscore.ZeroCoef>
-5.4800

> <Gold.Chemscore.Hbond>
0.9739

> <Gold.Chemscore.Metal>
0.0000

> <Gold.Chemscore.Lipo>
86.1741

> <Gold.Chemscore.Internal_Hbond>
0.0000

> <Gold.Chemscore.DEClash>
0.1667

> <Gold.Chemscore.DEInternal>
0.5727

> <Gold.Chemscore.Rot>
1.7935

> <Gold.Chemscore.Internal.Correction>
   9.000000E+99

> <Gold.Chemscore.Hbonds>
donor molecule, donor type, donor heavy atom, donor atom, acceptor molecule, acceptor atom, score
      P1  H  7997  8008       L1    13  0.78

> <Gold.Chemscore.Hbond.Weighted>
-3.2528

> <Gold.Chemscore.Metal.Weighted>
-0.0000

> <Gold.Chemscore.Lipo.Weighted>
-10.0824

> <Gold.Chemscore.Internal_Hbond.Weighted>
0.0000

> <Gold.Chemscore.DEClash.Weighted>
0.1667

> <Gold.Chemscore.DEInternal.Weighted>
0.5727

> <Gold.Chemscore.Rot.Weighted>
4.5912

> <Gold.Chemscore.Internal.Correction.Weighted>
   9.000000E+99

> <Gold.Protein.RotatedTorsions>
[ 6907 6896 6895 6894 ] final  140.41 input  -60.11 | X-H torsion
[ 7974 7965 7964 7962 ] final -175.25 input  175.53 | X-H torsion
[ 8008 7997 7996 7995 ] final  -73.50 input   59.86 | X-H torsion
[ 10167 10162 10161 10158 ] final -142.04 input  -65.29 | X-H torsion
[ 10718 10713 10712 10709 ] final    3.69 input   66.30 | X-H torsion
[ 10763 10752 10751 10750 ] final    5.88 input  -60.55 | X-H torsion
[ 11005 11000 10999 10996 ] final  152.66 input  -57.11 | X-H torsion

> <Gold.Protein.ActiveResidues>
 VAL166  LYS551  ARG553  GLY616  TRP617  ASP618  TYR619  PRO620  LYS621  CYS622 
 ASP623  PHE694  ASN695  SER759  ASP760  ASP761  ALA762  ILE779  LEU786  VAL792 
 PHE793  MET794  SER795  GLU796  ALA797  LYS798  CYS799  TRP800  GLU811  SER814 

> <Gold.Protein.RotatedAtoms>
  152.2433  133.5153  159.5282 H   0  0  0  0  0  0  0  0  0  0  0  0  # atno 6907 bound_to 6896
  150.7071  134.1059  159.3991 H   0  0  0  0  0  0  0  0  0  0  0  0  # atno 6908 bound_to 6896
  151.8980  135.0390  160.0554 H   0  0  0  0  0  0  0  0  0  0  0  0  # atno 6909 bound_to 6896
  144.7129  140.1348  143.6396 H   0  0  0  0  0  0  0  0  0  0  0  0  # atno 7974 bound_to 7965
  154.5253  140.0778  156.8247 H   0  0  0  0  0  0  0  0  0  0  0  0  # atno 8008 bound_to 7997
  155.3489  140.3411  155.4221 H   0  0  0  0  0  0  0  0  0  0  0  0  # atno 8009 bound_to 7997
  156.1725  140.1624  156.8409 H   0  0  0  0  0  0  0  0  0  0  0  0  # atno 8010 bound_to 7997
  139.8126  143.7682  152.2664 H   0  0  0  0  0  0  0  0  0  0  0  0  # atno 10167 bound_to 10162
  156.8816  130.5655  149.5653 H   0  0  0  0  0  0  0  0  0  0  0  0  # atno 10718 bound_to 10713
  153.2542  135.6917  153.7646 H   0  0  0  0  0  0  0  0  0  0  0  0  # atno 10763 bound_to 10752
  153.6729  135.3341  155.3159 H   0  0  0  0  0  0  0  0  0  0  0  0  # atno 10764 bound_to 10752
  154.8406  135.4504  154.1510 H   0  0  0  0  0  0  0  0  0  0  0  0  # atno 10765 bound_to 10752
  140.1328  134.8791  157.2226 H   0  0  0  0  0  0  0  0  0  0  0  0  # atno 11005 bound_to 11000
  145.9254  139.2572  143.1356 LP  0  0  0  0  0  0  0  0  0  0  0  0  # atno 17320 bound_to 7965
  145.9577  140.8859  143.0226 LP  0  0  0  0  0  0  0  0  0  0  0  0  # atno 17321 bound_to 7965
  139.7835  144.7436  151.0054 LP  0  0  0  0  0  0  0  0  0  0  0  0  # atno 17342 bound_to 10162
  140.7817  143.4517  151.0404 LP  0  0  0  0  0  0  0  0  0  0  0  0  # atno 17343 bound_to 10162
  156.0674  130.5714  150.9316 LP  0  0  0  0  0  0  0  0  0  0  0  0  # atno 17370 bound_to 10713
  157.6137  131.0934  150.8749 LP  0  0  0  0  0  0  0  0  0  0  0  0  # atno 17371 bound_to 10713
  140.2820  134.3338  155.7340 LP  0  0  0  0  0  0  0  0  0  0  0  0  # atno 17394 bound_to 11000
  141.2173  133.7484  156.9378 LP  0  0  0  0  0  0  0  0  0  0  0  0  # atno 17395 bound_to 11000

$$$$
