AV-unprocessed.smi:3162|AV-procd|sdf|12066|dock6
  -GOLD-   2272017493D 1   1.00000     0.00000
 Structure written by MMmdl.
 37 37  0  0  0  0  0  0  0  0  2 V2000
  147.3351  141.3124  154.4576 C   0  0  0  0  0  0  0  0  0  0  0  0
  148.7820  140.8003  154.3836 C   0  0  0  0  0  0  0  0  0  0  0  0
  148.9135  139.2693  154.2259 C   0  0  1  0  0  0  0  0  0  0  0  0
  148.3761  138.8569  152.9080 N   0  3  0  0  0  0  0  0  0  0  0  0
  146.9020  138.8632  152.7726 C   0  0  1  0  0  0  0  0  0  0  0  0
  146.4797  138.8740  151.2904 C   0  0  0  0  0  0  0  0  0  0  0  0
  146.3171  137.6620  153.5438 C   0  0  0  0  0  0  0  0  0  0  0  0
  145.4560  136.8254  152.7275 N   0  0  0  0  0  0  0  0  0  0  0  0
  145.8063  135.9790  151.6968 C   0  0  0  0  0  0  0  0  0  0  0  0
  144.6596  135.3978  151.2348 C   0  0  0  0  0  0  0  0  0  0  0  0
  144.4942  134.4061  150.1193 C   0  0  0  0  0  0  0  0  0  0  0  0
  143.6473  135.9561  152.0661 C   0  0  0  0  0  0  0  0  0  0  0  0
  144.1266  136.8067  152.9592 N   0  0  0  0  0  0  0  0  0  0  0  0
  150.3726  138.8080  154.3526 C   0  0  0  0  0  0  0  0  0  0  0  0
  150.6824  137.6095  153.8505 N   0  0  0  0  0  0  0  0  0  0  0  0
  151.2100  139.5203  154.9036 O   0  0  0  0  0  0  0  0  0  0  0  0
  147.3145  142.4016  154.4954 H   0  0  0  0  0  0  0  0  0  0  0  0
  146.8207  140.9473  155.3465 H   0  0  0  0  0  0  0  0  0  0  0  0
  146.7622  141.0006  153.5839 H   0  0  0  0  0  0  0  0  0  0  0  0
  149.2670  141.2880  153.5372 H   0  0  0  0  0  0  0  0  0  0  0  0
  149.3268  141.1328  155.2687 H   0  0  0  0  0  0  0  0  0  0  0  0
  148.3378  138.7861  155.0177 H   0  0  0  0  0  0  0  0  0  0  0  0
  148.7796  139.4397  152.1888 H   0  0  0  0  0  0  0  0  0  0  0  0
  146.5311  139.7732  153.2469 H   0  0  0  0  0  0  0  0  0  0  0  0
  145.3955  138.9178  151.1848 H   0  0  0  0  0  0  0  0  0  0  0  0
  146.8261  137.9784  150.7737 H   0  0  0  0  0  0  0  0  0  0  0  0
  146.8819  139.7388  150.7630 H   0  0  0  0  0  0  0  0  0  0  0  0
  147.1212  137.0418  153.9432 H   0  0  0  0  0  0  0  0  0  0  0  0
  145.7373  138.0087  154.4007 H   0  0  0  0  0  0  0  0  0  0  0  0
  146.8319  135.8628  151.3778 H   0  0  0  0  0  0  0  0  0  0  0  0
  143.5511  133.8644  150.1953 H   0  0  0  0  0  0  0  0  0  0  0  0
  145.2914  133.6625  150.1188 H   0  0  0  0  0  0  0  0  0  0  0  0
  144.5074  134.8931  149.1442 H   0  0  0  0  0  0  0  0  0  0  0  0
  142.5839  135.7687  152.0471 H   0  0  0  0  0  0  0  0  0  0  0  0
  151.6304  137.2652  153.9039 H   0  0  0  0  0  0  0  0  0  0  0  0
  149.9651  137.0506  153.4105 H   0  0  0  0  0  0  0  0  0  0  0  0
  148.6894  137.9084  152.7553 H   0  0  0  0  0  0  0  0  0  0  0  0
  1  2  1  0  0  0  0
  1 17  1  0  0  0  0
  1 18  1  0  0  0  0
  1 19  1  0  0  0  0
  2  3  1  0  0  0  0
  2 20  1  0  0  0  0
  2 21  1  0  0  0  0
  3  4  1  0  0  0  0
  3 14  1  0  0  0  0
  3 22  1  0  0  0  0
  4  5  1  0  0  0  0
  4 23  1  0  0  0  0
  4 37  1  0  0  0  0
  5  6  1  0  0  0  0
  5  7  1  0  0  0  0
  5 24  1  0  0  0  0
  6 25  1  0  0  0  0
  6 26  1  0  0  0  0
  6 27  1  0  0  0  0
  7  8  1  0  0  0  0
  7 28  1  0  0  0  0
  7 29  1  0  0  0  0
  8 13  1  0  0  0  0
  8  9  1  0  0  0  0
  9 10  2  0  0  0  0
  9 30  1  0  0  0  0
 10 11  1  0  0  0  0
 10 12  1  0  0  0  0
 11 31  1  0  0  0  0
 11 32  1  0  0  0  0
 11 33  1  0  0  0  0
 12 13  2  0  0  0  0
 12 34  1  0  0  0  0
 14 15  1  0  0  0  0
 14 16  2  0  0  0  0
 15 35  1  0  0  0  0
 15 36  1  0  0  0  0
M  CHG  1   4   1
M  END
> <s_m_source_file>
AV-unprocessed.smi

> <i_m_source_file_index>
3162

> <i_lp_mmshare_version>
43012

> <i_f3d_flags>
0

> <s_epik_input>
W0NIM11bQ0gyXVtDQEBIXShDKD1PKVtOSDJdKVtOSF1bQ0BIXShbQ0gzXSlbQ0gyXW4xW2NIXWMoW0NIM10pW2NIXW4x

> <s_epik_cmdline>
J2VwaWtfcHl0aG9uJywgJy1waCcsICc3LjAnLCAnLXRuJywgJzgnLCAnLW1hJywgJzIwMCcsICctbWV0YWxfYmluZGluZycsICctaW1hZScsICc8aW5maWxlLm1hZT4nLCAnLW9tYWUnLCAnPG91dGZpbGUubWFlPic=

> <r_lp_tautomer_probability>
1

> <r_epik_Ionization_Penalty>
0.112112

> <r_epik_Ionization_Penalty_Charging>
0.112102

> <r_epik_Ionization_Penalty_Neutral>
9.73799e-06

> <r_epik_State_Penalty>
0.101811

> <r_epik_Charging_Adjusted_Penalty>
0.213914

> <i_epik_Tot_Q>
1

> <i_epik_Tot_abs_Q>
1

> <r_epik_Metal_State_Penalty>
0.101821

> <b_epik_Metal_Only>
0

> <s_lp_Force_Field>
OPLS_2005

> <r_lp_Energy>
5.38077

> <b_lp_Chiralities_Consistent>
1

> <s_lp_Variant>
AV-unprocessed.smi:3162-4

> <Gold.Version>
5.8.1

> <Gold.Id.Protein>
6NUR|6NUR_protein|mol2

> <Gold.PLP.Fitness>
45.9666

> <Gold.PLP.PLP>
-32.0707

> <Gold.PLP.part.hbond>
-4.6852

> <Gold.PLP.part.metal>
0.0000

> <Gold.PLP.part.buried>
-2.7056

> <Gold.PLP.part.nonpolar>
-27.3782

> <Gold.PLP.part.repulsive>
0.3617

> <Gold.PLP.ligand.clash>
0.0045

> <Gold.PLP.ligand.torsion>
1.6925

> <Gold.PLP.Chemscore.Hbond>
4.7471

> <Gold.PLP.Chemscore.CHOScore>
1.0000

> <Gold.PLP.Chemscore.Metal>
0.0000

> <Gold.Chemscore.Hbonds>
donor molecule, donor type, donor heavy atom, donor atom, acceptor molecule, acceptor atom, score
      L1  H     4    23       P1  7957  0.76
      L1  H     4    37       P1  7948  2.00
      L1  H    15    36       P1  7948  1.00
      P1  H  7989  7998       L1    16  1.00
      L1  C     9    30       P1  7948  1.00

> <Gold.PLP.Chemscore.Internal.Correction>
0.0441

> <Gold.Rescore>
     Score         DG    S(hbond)    S(metal)    S(lipo)     H(rot)  DE(clash)    DE(int)     intcor
     14.19     -15.91       2.87        0.00      62.06       2.51       0.09       1.64       ----

> <Gold.Chemscore.Fitness>
14.1874

> <Gold.Chemscore.DG>
-15.9140

> <Gold.Chemscore.ZeroCoef>
-5.4800

> <Gold.Chemscore.Hbond>
2.8710

> <Gold.Chemscore.Metal>
0.0000

> <Gold.Chemscore.Lipo>
62.0569

> <Gold.Chemscore.Internal_Hbond>
0.0000

> <Gold.Chemscore.DEClash>
0.0905

> <Gold.Chemscore.DEInternal>
1.6361

> <Gold.Chemscore.Rot>
2.5062

> <Gold.Chemscore.Internal.Correction>
   9.000000E+99

> <Gold.Chemscore.Hbonds>
donor molecule, donor type, donor heavy atom, donor atom, acceptor molecule, acceptor atom, score
      L1  H     4    23       P1  7957  0.77
      L1  H     4    37       P1  7948  0.99
      L1  H    15    36       P1  7948  0.29
      P1  H  7989  7998       L1    16  0.38

> <Gold.Chemscore.Hbond.Weighted>
-9.5893

> <Gold.Chemscore.Metal.Weighted>
-0.0000

> <Gold.Chemscore.Lipo.Weighted>
-7.2607

> <Gold.Chemscore.Internal_Hbond.Weighted>
0.0000

> <Gold.Chemscore.DEClash.Weighted>
0.0905

> <Gold.Chemscore.DEInternal.Weighted>
1.6361

> <Gold.Chemscore.Rot.Weighted>
6.4159

> <Gold.Chemscore.Internal.Correction.Weighted>
   9.000000E+99

> <Gold.Protein.RotatedTorsions>
[ 6907 6896 6895 6894 ] final   54.26 input  -60.11 | X-H torsion
[ 7974 7965 7964 7962 ] final  100.60 input  175.53 | X-H torsion
[ 8008 7997 7996 7995 ] final  -83.94 input   59.86 | X-H torsion
[ 10167 10162 10161 10158 ] final   74.37 input  -65.29 | X-H torsion
[ 10718 10713 10712 10709 ] final   23.39 input   66.30 | X-H torsion
[ 10763 10752 10751 10750 ] final   -9.83 input  -60.55 | X-H torsion
[ 11005 11000 10999 10996 ] final  -79.33 input  -57.11 | X-H torsion

> <Gold.Protein.ActiveResidues>
 VAL166  LYS551  ARG553  GLY616  TRP617  ASP618  TYR619  PRO620  LYS621  CYS622 
 ASP623  PHE694  ASN695  SER759  ASP760  ASP761  ALA762  ILE779  LEU786  VAL792 
 PHE793  MET794  SER795  GLU796  ALA797  LYS798  CYS799  TRP800  GLU811  SER814 

> <Gold.Protein.RotatedAtoms>
  152.3420  134.7121  160.0260 H   0  0  0  0  0  0  0  0  0  0  0  0  # atno 6907 bound_to 6896
  151.7503  133.3321  159.3398 H   0  0  0  0  0  0  0  0  0  0  0  0  # atno 6908 bound_to 6896
  150.7486  134.6131  159.6141 H   0  0  0  0  0  0  0  0  0  0  0  0  # atno 6909 bound_to 6896
  145.3835  139.2375  143.3391 H   0  0  0  0  0  0  0  0  0  0  0  0  # atno 7974 bound_to 7965
  154.6244  140.0612  156.9655 H   0  0  0  0  0  0  0  0  0  0  0  0  # atno 8008 bound_to 7997
  155.1766  140.3295  155.4364 H   0  0  0  0  0  0  0  0  0  0  0  0  # atno 8009 bound_to 7997
  156.2449  140.1905  156.6864 H   0  0  0  0  0  0  0  0  0  0  0  0  # atno 8010 bound_to 7997
  140.0144  144.5589  150.7632 H   0  0  0  0  0  0  0  0  0  0  0  0  # atno 10167 bound_to 10162
  157.1654  130.6736  149.6059 H   0  0  0  0  0  0  0  0  0  0  0  0  # atno 10718 bound_to 10713
  153.4604  135.7016  153.6054 H   0  0  0  0  0  0  0  0  0  0  0  0  # atno 10763 bound_to 10752
  153.4350  135.3793  155.2194 H   0  0  0  0  0  0  0  0  0  0  0  0  # atno 10764 bound_to 10752
  154.8727  135.3960  154.4029 H   0  0  0  0  0  0  0  0  0  0  0  0  # atno 10765 bound_to 10752
  141.1667  133.7101  156.8107 H   0  0  0  0  0  0  0  0  0  0  0  0  # atno 11005 bound_to 11000
  146.2831  140.4506  142.8768 LP  0  0  0  0  0  0  0  0  0  0  0  0  # atno 17320 bound_to 7965
  144.8491  140.6974  143.6180 LP  0  0  0  0  0  0  0  0  0  0  0  0  # atno 17321 bound_to 7965
  140.7368  143.2758  151.3748 LP  0  0  0  0  0  0  0  0  0  0  0  0  # atno 17342 bound_to 10162
  139.6183  144.0959  152.2366 LP  0  0  0  0  0  0  0  0  0  0  0  0  # atno 17343 bound_to 10162
  155.9747  130.4697  150.6404 LP  0  0  0  0  0  0  0  0  0  0  0  0  # atno 17370 bound_to 10713
  157.4093  131.0821  151.1236 LP  0  0  0  0  0  0  0  0  0  0  0  0  # atno 17371 bound_to 10713
  140.2190  134.8771  157.3356 LP  0  0  0  0  0  0  0  0  0  0  0  0  # atno 17394 bound_to 11000
  140.2008  134.4257  155.7664 LP  0  0  0  0  0  0  0  0  0  0  0  0  # atno 17395 bound_to 11000

$$$$
