AV-unprocessed.smi:3244|AV-procd|sdf|12401|dock2
  -GOLD-   2272018273D 1   1.00000     0.00000
 Structure written by MMmdl.
 40 41  0  0  0  0  0  0  0  0  1 V2000
  152.5896  142.8421  162.1415 C   0  0  0  0  0  0  0  0  0  0  0  0
  153.2106  142.5609  160.7636 C   0  0  0  0  0  0  0  0  0  0  0  0
  152.1941  142.4657  159.7013 N   0  0  0  0  0  0  0  0  0  0  0  0
  152.0221  141.3022  159.0214 C   0  0  0  0  0  0  0  0  0  0  0  0
  152.5854  140.2581  159.3533 O   0  0  0  0  0  0  0  0  0  0  0  0
  151.0988  141.2478  157.7930 C   0  0  0  0  0  0  0  0  0  0  0  0
  151.0172  139.9044  157.1958 N   0  0  0  0  0  0  0  0  0  0  0  0
  149.9032  139.7311  156.2677 C   0  0  1  0  0  0  0  0  0  0  0  0
  148.6112  140.0959  157.0180 C   0  0  0  0  0  0  0  0  0  0  0  0
  150.1053  140.5518  154.9677 C   0  0  0  0  0  0  0  0  0  0  0  0
  148.8678  140.8848  154.2796 N   0  0  0  0  0  0  0  0  0  0  0  0
  148.3030  142.1282  154.0849 C   0  0  0  0  0  0  0  0  0  0  0  0
  147.1425  141.9442  153.3892 C   0  0  0  0  0  0  0  0  0  0  0  0
  147.0789  140.5349  153.2052 C   0  0  0  0  0  0  0  0  0  0  0  0
  148.1100  139.9049  153.7425 N   0  0  0  0  0  0  0  0  0  0  0  0
  151.5904  143.7178  159.3230 C   0  0  0  0  0  0  0  0  0  0  0  0
  152.4407  144.8418  158.7571 C   0  0  0  0  0  0  0  0  0  0  0  0
  151.8602  144.9690  160.1382 C   0  0  0  0  0  0  0  0  0  0  0  0
  153.3564  142.8444  162.9163 H   0  0  0  0  0  0  0  0  0  0  0  0
  151.8553  142.0800  162.4043 H   0  0  0  0  0  0  0  0  0  0  0  0
  152.0937  143.8121  162.1717 H   0  0  0  0  0  0  0  0  0  0  0  0
  153.9346  143.3394  160.5173 H   0  0  0  0  0  0  0  0  0  0  0  0
  153.7935  141.6438  160.8361 H   0  0  0  0  0  0  0  0  0  0  0  0
  150.1096  141.6055  158.0842 H   0  0  0  0  0  0  0  0  0  0  0  0
  151.4376  141.9542  157.0375 H   0  0  0  0  0  0  0  0  0  0  0  0
  151.8827  139.6563  156.7386 H   0  0  0  0  0  0  0  0  0  0  0  0
  149.8358  138.6737  156.0069 H   0  0  0  0  0  0  0  0  0  0  0  0
  147.7421  139.9990  156.3669 H   0  0  0  0  0  0  0  0  0  0  0  0
  148.6327  141.1195  157.3939 H   0  0  0  0  0  0  0  0  0  0  0  0
  148.4539  139.4367  157.8726 H   0  0  0  0  0  0  0  0  0  0  0  0
  150.6609  141.4713  155.1548 H   0  0  0  0  0  0  0  0  0  0  0  0
  150.7194  139.9739  154.2759 H   0  0  0  0  0  0  0  0  0  0  0  0
  148.7706  143.0304  154.4511 H   0  0  0  0  0  0  0  0  0  0  0  0
  146.4447  142.7010  153.0627 H   0  0  0  0  0  0  0  0  0  0  0  0
  146.3193  139.9543  152.7030 H   0  0  0  0  0  0  0  0  0  0  0  0
  150.5928  143.6340  158.8955 H   0  0  0  0  0  0  0  0  0  0  0  0
  153.5192  144.7106  158.6970 H   0  0  0  0  0  0  0  0  0  0  0  0
  152.0030  145.4525  157.9700 H   0  0  0  0  0  0  0  0  0  0  0  0
  151.0337  145.6629  160.2771 H   0  0  0  0  0  0  0  0  0  0  0  0
  152.5609  144.9071  160.9686 H   0  0  0  0  0  0  0  0  0  0  0  0
  1  2  1  0  0  0  0
  1 19  1  0  0  0  0
  1 20  1  0  0  0  0
  1 21  1  0  0  0  0
  2  3  1  0  0  0  0
  2 22  1  0  0  0  0
  2 23  1  0  0  0  0
  3  4  1  0  0  0  0
  3 16  1  0  0  0  0
  4  5  2  0  0  0  0
  4  6  1  0  0  0  0
  6  7  1  0  0  0  0
  6 24  1  0  0  0  0
  6 25  1  0  0  0  0
  7  8  1  0  0  0  0
  7 26  1  0  0  0  0
  8  9  1  0  0  0  0
  8 10  1  0  0  0  0
  8 27  1  0  0  0  0
  9 28  1  0  0  0  0
  9 29  1  0  0  0  0
  9 30  1  0  0  0  0
 10 11  1  0  0  0  0
 10 31  1  0  0  0  0
 10 32  1  0  0  0  0
 11 15  1  0  0  0  0
 11 12  1  0  0  0  0
 12 13  2  0  0  0  0
 12 33  1  0  0  0  0
 13 14  1  0  0  0  0
 13 34  1  0  0  0  0
 14 15  2  0  0  0  0
 14 35  1  0  0  0  0
 16 18  1  0  0  0  0
 16 17  1  0  0  0  0
 16 36  1  0  0  0  0
 17 18  1  0  0  0  0
 17 37  1  0  0  0  0
 17 38  1  0  0  0  0
 18 39  1  0  0  0  0
 18 40  1  0  0  0  0
M  END
> <s_m_source_file>
AV-unprocessed.smi

> <i_m_source_file_index>
3244

> <i_lp_mmshare_version>
43012

> <i_f3d_flags>
0

> <s_epik_input>
W0NIMl0xW0NIMl1bQ0hdMU4oW0NIMl1bQ0gzXSlDKD1PKVtDSDJdW05IXVtDQEhdKFtDSDNdKVtDSDJdbjJbY0hdW2NIXVtjSF1uMg==

> <s_epik_cmdline>
J2VwaWtfcHl0aG9uJywgJy1waCcsICc3LjAnLCAnLXRuJywgJzgnLCAnLW1hJywgJzIwMCcsICctbWV0YWxfYmluZGluZycsICctaW1hZScsICc8aW5maWxlLm1hZT4nLCAnLW9tYWUnLCAnPG91dGZpbGUubWFlPic=

> <r_lp_tautomer_probability>
1

> <r_epik_Ionization_Penalty>
1.02506

> <r_epik_Ionization_Penalty_Charging>
0

> <r_epik_Ionization_Penalty_Neutral>
1.02506

> <r_epik_State_Penalty>
1.07563

> <r_epik_Charging_Adjusted_Penalty>
1.07563

> <i_epik_Tot_Q>
0

> <i_epik_Tot_abs_Q>
0

> <r_epik_Metal_State_Penalty>
1.07558

> <b_epik_Metal_Only>
0

> <s_lp_Force_Field>
OPLS_2005

> <r_lp_Energy>
38.4793

> <b_lp_Chiralities_Consistent>
1

> <s_lp_Variant>
AV-unprocessed.smi:3244-4

> <Gold.Version>
5.8.1

> <Gold.Id.Protein>
6NUR|6NUR_protein|mol2

> <Gold.PLP.Fitness>
47.8618

> <Gold.PLP.PLP>
-42.7014

> <Gold.PLP.part.hbond>
0.0000

> <Gold.PLP.part.metal>
0.0000

> <Gold.PLP.part.buried>
-4.1146

> <Gold.PLP.part.nonpolar>
-38.5033

> <Gold.PLP.part.repulsive>
0.1560

> <Gold.PLP.ligand.clash>
0.0000

> <Gold.PLP.ligand.torsion>
0.5867

> <Gold.PLP.Chemscore.Hbond>
0.0000

> <Gold.PLP.Chemscore.CHOScore>
1.9331

> <Gold.PLP.Chemscore.Metal>
0.0000

> <Gold.Chemscore.Hbonds>
donor molecule, donor type, donor heavy atom, donor atom, acceptor molecule, acceptor atom, score
      L1  C    12    33       P1  8028  1.00
      L1  C    14    35       P1 10175  0.58

> <Gold.PLP.Chemscore.Internal.Correction>
0.5346

> <Gold.Rescore>
     Score         DG    S(hbond)    S(metal)    S(lipo)     H(rot)  DE(clash)    DE(int)     intcor
     11.16     -12.44       0.00        0.00     102.28       1.95       0.09       1.19       ----

> <Gold.Chemscore.Fitness>
11.1561

> <Gold.Chemscore.DG>
-12.4421

> <Gold.Chemscore.ZeroCoef>
-5.4800

> <Gold.Chemscore.Hbond>
0.0000

> <Gold.Chemscore.Metal>
0.0000

> <Gold.Chemscore.Lipo>
102.2801

> <Gold.Chemscore.Internal_Hbond>
0.0000

> <Gold.Chemscore.DEClash>
0.0932

> <Gold.Chemscore.DEInternal>
1.1928

> <Gold.Chemscore.Rot>
1.9550

> <Gold.Chemscore.Internal.Correction>
   9.000000E+99

> <Gold.Chemscore.Hbond.Weighted>
-0.0000

> <Gold.Chemscore.Metal.Weighted>
-0.0000

> <Gold.Chemscore.Lipo.Weighted>
-11.9668

> <Gold.Chemscore.Internal_Hbond.Weighted>
0.0000

> <Gold.Chemscore.DEClash.Weighted>
0.0932

> <Gold.Chemscore.DEInternal.Weighted>
1.1928

> <Gold.Chemscore.Rot.Weighted>
5.0047

> <Gold.Chemscore.Internal.Correction.Weighted>
   9.000000E+99

> <Gold.Protein.RotatedTorsions>
[ 6907 6896 6895 6894 ] final  -96.18 input  -60.11 | X-H torsion
[ 7974 7965 7964 7962 ] final   69.35 input  175.53 | X-H torsion
[ 8008 7997 7996 7995 ] final  -99.01 input   59.86 | X-H torsion
[ 10167 10162 10161 10158 ] final   54.72 input  -65.29 | X-H torsion
[ 10718 10713 10712 10709 ] final  101.48 input   66.30 | X-H torsion
[ 10763 10752 10751 10750 ] final  142.40 input  -60.55 | X-H torsion
[ 11005 11000 10999 10996 ] final  128.16 input  -57.11 | X-H torsion

> <Gold.Protein.ActiveResidues>
 VAL166  LYS551  ARG553  GLY616  TRP617  ASP618  TYR619  PRO620  LYS621  CYS622 
 ASP623  PHE694  ASN695  SER759  ASP760  ASP761  ALA762  ILE779  LEU786  VAL792 
 PHE793  MET794  SER795  GLU796  ALA797  LYS798  CYS799  TRP800  GLU811  SER814 

> <Gold.Protein.RotatedAtoms>
  150.6982  134.1543  159.4151 H   0  0  0  0  0  0  0  0  0  0  0  0  # atno 6907 bound_to 6896
  151.9525  135.0160  160.0552 H   0  0  0  0  0  0  0  0  0  0  0  0  # atno 6908 bound_to 6896
  152.1998  133.4798  159.5089 H   0  0  0  0  0  0  0  0  0  0  0  0  # atno 6909 bound_to 6896
  145.7915  139.2936  143.1207 H   0  0  0  0  0  0  0  0  0  0  0  0  # atno 7974 bound_to 7965
  154.8089  140.0451  157.1328 H   0  0  0  0  0  0  0  0  0  0  0  0  # atno 8008 bound_to 7997
  154.9391  140.3050  155.5109 H   0  0  0  0  0  0  0  0  0  0  0  0  # atno 8009 bound_to 7997
  156.2969  140.2309  156.4458 H   0  0  0  0  0  0  0  0  0  0  0  0  # atno 8010 bound_to 7997
  140.2272  144.3726  150.6428 H   0  0  0  0  0  0  0  0  0  0  0  0  # atno 10167 bound_to 10162
  157.6828  131.0727  150.5258 H   0  0  0  0  0  0  0  0  0  0  0  0  # atno 10718 bound_to 10713
  153.9552  135.2966  155.3436 H   0  0  0  0  0  0  0  0  0  0  0  0  # atno 10763 bound_to 10752
  154.7404  135.5027  153.9117 H   0  0  0  0  0  0  0  0  0  0  0  0  # atno 10764 bound_to 10752
  153.0974  135.6725  153.9847 H   0  0  0  0  0  0  0  0  0  0  0  0  # atno 10765 bound_to 10752
  139.9546  134.9615  156.8961 H   0  0  0  0  0  0  0  0  0  0  0  0  # atno 11005 bound_to 11000
  145.9972  140.8552  143.0037 LP  0  0  0  0  0  0  0  0  0  0  0  0  # atno 17320 bound_to 7965
  144.6781  140.2299  143.7356 LP  0  0  0  0  0  0  0  0  0  0  0  0  # atno 17321 bound_to 7965
  140.6212  143.2176  151.6690 LP  0  0  0  0  0  0  0  0  0  0  0  0  # atno 17342 bound_to 10162
  139.5123  144.3481  152.0678 LP  0  0  0  0  0  0  0  0  0  0  0  0  # atno 17343 bound_to 10162
  156.5570  130.4246  149.6081 LP  0  0  0  0  0  0  0  0  0  0  0  0  # atno 17370 bound_to 10713
  156.2854  130.7094  151.1929 LP  0  0  0  0  0  0  0  0  0  0  0  0  # atno 17371 bound_to 10713
  140.5640  134.0508  155.7408 LP  0  0  0  0  0  0  0  0  0  0  0  0  # atno 17394 bound_to 11000
  141.1215  133.9454  157.2720 LP  0  0  0  0  0  0  0  0  0  0  0  0  # atno 17395 bound_to 11000

$$$$
