AV-unprocessed.smi:98|AV-procd|sdf|863|dock7
  -GOLD-   2262017313D 1   1.00000     0.00000
 Structure written by MMmdl.
 56 59  0  0  0  0  0  0  0  0  1 V2000
  151.2640  136.2820  156.6599 O   0  0  0  0  0  0  0  0  0  0  0  0
  151.2734  136.5076  155.4492 C   0  0  0  0  0  0  0  0  0  0  0  0
  151.8742  137.8134  154.9041 C   0  0  0  0  0  0  0  0  0  0  0  0
  151.7694  138.9520  155.8432 N   0  0  0  0  0  0  0  0  0  0  0  0
  150.9495  140.0506  155.4835 C   0  0  0  0  0  0  0  0  0  0  0  0
  150.3520  140.0755  154.4065 O   0  0  0  0  0  0  0  0  0  0  0  0
  150.8597  141.1195  156.4713 C   0  0  0  0  0  0  0  0  0  0  0  0
  150.0910  142.1934  156.2229 F   0  0  0  0  0  0  0  0  0  0  0  0
  151.5345  141.0457  157.6369 C   0  0  0  0  0  0  0  0  0  0  0  0
  152.3497  139.9808  157.9656 N   0  0  0  0  0  0  0  0  0  0  0  0
  153.0324  139.9632  159.3137 C   0  0  2  0  0  0  0  0  0  0  0  0
  152.7658  141.2249  160.1562 C   0  0  0  0  0  0  0  0  0  0  0  0
  154.1635  141.7653  160.4105 C   0  0  0  0  0  0  0  0  0  0  0  0
  155.0465  140.5423  160.1890 C   0  0  0  0  0  0  0  0  0  0  0  0
  154.4093  139.8685  159.1150 O   0  0  0  0  0  0  0  0  0  0  0  0
  152.4584  138.8850  157.0782 C   0  0  0  0  0  0  0  0  0  0  0  0
  153.1282  137.8940  157.3728 O   0  0  0  0  0  0  0  0  0  0  0  0
  150.7692  135.6804  154.5152 N   0  0  0  0  0  0  0  0  0  0  0  0
  150.1381  134.4187  154.6886 C   0  0  0  0  0  0  0  0  0  0  0  0
  149.2993  133.9710  153.6455 C   0  0  0  0  0  0  0  0  0  0  0  0
  148.6491  132.7254  153.7336 C   0  0  0  0  0  0  0  0  0  0  0  0
  148.8520  131.9127  154.8658 C   0  0  0  0  0  0  0  0  0  0  0  0
  148.0256  130.3290  154.9845 S   0  0  0  0  0  0  0  0  0  0  0  0
  148.8064  129.4664  155.8853 O   0  0  0  0  0  0  0  0  0  0  0  0
  146.5994  130.5702  155.2545 O   0  0  0  0  0  0  0  0  0  0  0  0
  148.1596  129.6773  153.3768 N   0  0  0  0  0  0  0  0  0  0  0  0
  146.9575  129.5684  152.5318 C   0  0  0  0  0  0  0  0  0  0  0  0
  146.4357  128.1209  152.4948 C   0  0  0  0  0  0  0  0  0  0  0  0
  147.4765  127.2377  152.1020 O   0  0  0  0  0  0  0  0  0  0  0  0
  148.5561  127.2505  153.0249 C   0  0  0  0  0  0  0  0  0  0  0  0
  149.1808  128.6557  153.0869 C   0  0  0  0  0  0  0  0  0  0  0  0
  149.6913  132.3430  155.9115 C   0  0  0  0  0  0  0  0  0  0  0  0
  150.3407  133.5890  155.8195 C   0  0  0  0  0  0  0  0  0  0  0  0
  152.9121  137.6226  154.6271 H   0  0  0  0  0  0  0  0  0  0  0  0
  151.3894  138.0536  153.9562 H   0  0  0  0  0  0  0  0  0  0  0  0
  151.4288  141.8616  158.3370 H   0  0  0  0  0  0  0  0  0  0  0  0
  152.6806  139.0617  159.8175 H   0  0  0  0  0  0  0  0  0  0  0  0
  152.1179  141.9399  159.6483 H   0  0  0  0  0  0  0  0  0  0  0  0
  152.2850  140.9247  161.0877 H   0  0  0  0  0  0  0  0  0  0  0  0
  154.4073  142.5362  159.6790 H   0  0  0  0  0  0  0  0  0  0  0  0
  154.2788  142.1971  161.4048 H   0  0  0  0  0  0  0  0  0  0  0  0
  156.0768  140.8038  159.9470 H   0  0  0  0  0  0  0  0  0  0  0  0
  155.0504  139.9005  161.0715 H   0  0  0  0  0  0  0  0  0  0  0  0
  150.7739  136.0341  153.5695 H   0  0  0  0  0  0  0  0  0  0  0  0
  149.1462  134.5872  152.7712 H   0  0  0  0  0  0  0  0  0  0  0  0
  148.0068  132.3966  152.9300 H   0  0  0  0  0  0  0  0  0  0  0  0
  146.1801  130.2486  152.8788 H   0  0  0  0  0  0  0  0  0  0  0  0
  147.2187  129.8843  151.5214 H   0  0  0  0  0  0  0  0  0  0  0  0
  146.0360  127.8170  153.4621 H   0  0  0  0  0  0  0  0  0  0  0  0
  145.6174  128.0394  151.7793 H   0  0  0  0  0  0  0  0  0  0  0  0
  148.2110  126.9254  154.0063 H   0  0  0  0  0  0  0  0  0  0  0  0
  149.3030  126.5260  152.7002 H   0  0  0  0  0  0  0  0  0  0  0  0
  149.6373  128.8909  152.1250 H   0  0  0  0  0  0  0  0  0  0  0  0
  149.9800  128.6894  153.8268 H   0  0  0  0  0  0  0  0  0  0  0  0
  149.8516  131.7174  156.7772 H   0  0  0  0  0  0  0  0  0  0  0  0
  150.9990  133.8798  156.6231 H   0  0  0  0  0  0  0  0  0  0  0  0
  1  2  2  0  0  0  0
  2  3  1  0  0  0  0
  2 18  1  0  0  0  0
  3  4  1  0  0  0  0
  3 34  1  0  0  0  0
  3 35  1  0  0  0  0
  4 16  1  0  0  0  0
  4  5  1  0  0  0  0
  5  6  2  0  0  0  0
  5  7  1  0  0  0  0
  7  8  1  0  0  0  0
  7  9  2  0  0  0  0
  9 10  1  0  0  0  0
  9 36  1  0  0  0  0
 10 11  1  0  0  0  0
 10 16  1  0  0  0  0
 11 15  1  0  0  0  0
 11 12  1  0  0  0  0
 11 37  1  0  0  0  0
 12 13  1  0  0  0  0
 12 38  1  0  0  0  0
 12 39  1  0  0  0  0
 13 14  1  0  0  0  0
 13 40  1  0  0  0  0
 13 41  1  0  0  0  0
 14 15  1  0  0  0  0
 14 42  1  0  0  0  0
 14 43  1  0  0  0  0
 16 17  2  0  0  0  0
 18 19  1  0  0  0  0
 18 44  1  0  0  0  0
 19 33  1  0  0  0  0
 19 20  2  0  0  0  0
 20 21  1  0  0  0  0
 20 45  1  0  0  0  0
 21 22  2  0  0  0  0
 21 46  1  0  0  0  0
 22 23  1  0  0  0  0
 22 32  1  0  0  0  0
 23 24  2  0  0  0  0
 23 25  2  0  0  0  0
 23 26  1  0  0  0  0
 26 31  1  0  0  0  0
 26 27  1  0  0  0  0
 27 28  1  0  0  0  0
 27 47  1  0  0  0  0
 27 48  1  0  0  0  0
 28 29  1  0  0  0  0
 28 49  1  0  0  0  0
 28 50  1  0  0  0  0
 29 30  1  0  0  0  0
 30 31  1  0  0  0  0
 30 51  1  0  0  0  0
 30 52  1  0  0  0  0
 31 53  1  0  0  0  0
 31 54  1  0  0  0  0
 32 33  2  0  0  0  0
 32 55  1  0  0  0  0
 33 56  1  0  0  0  0
M  END
> <s_m_source_file>
AV-unprocessed.smi

> <i_m_source_file_index>
98

> <i_lp_mmshare_version>
43012

> <i_f3d_flags>
0

> <s_epik_input>
TzFbQ0gyXVtDSDJdW0NIMl1bQ0BIXTFuKGMyPU8pW2NIXWMoRiljKD1PKW4yW0NIMl1DKD1PKVtOSF1jM1tjSF1bY0hdYyhbY0hdW2NIXTMpUyg9TykoPU8pTjRbQ0gyXVtDSDJdT1tDSDJdW0NIMl00

> <s_epik_cmdline>
J2VwaWtfcHl0aG9uJywgJy1waCcsICc3LjAnLCAnLXRuJywgJzgnLCAnLW1hJywgJzIwMCcsICctbWV0YWxfYmluZGluZycsICctaW1hZScsICc8aW5maWxlLm1hZT4nLCAnLW9tYWUnLCAnPG91dGZpbGUubWFlPic=

> <r_lp_tautomer_probability>
1

> <r_epik_Ionization_Penalty>
1.9271e-06

> <r_epik_Ionization_Penalty_Charging>
3.88729e-08

> <r_epik_Ionization_Penalty_Neutral>
1.88823e-06

> <r_epik_State_Penalty>
-0

> <r_epik_Charging_Adjusted_Penalty>
3.88729e-08

> <i_epik_Tot_Q>
0

> <i_epik_Tot_abs_Q>
0

> <r_epik_Metal_State_Penalty>
-0

> <b_epik_Metal_Only>
0

> <s_epik_Chemistry_Notes>
This compound contains an acetal/aminal-like group ( X-CH(R)-Y where X, Y are N, S, or O) that may be acid/base labile, releasing an aldehyde.

> <s_lp_Force_Field>
OPLS_2005

> <r_lp_Energy>
27.1293

> <b_lp_Chiralities_Consistent>
1

> <s_lp_Variant>
AV-unprocessed.smi:98-1

> <Gold.Version>
5.8.1

> <Gold.Id.Protein>
6NUR|6NUR_protein|mol2

> <Gold.PLP.Fitness>
53.5801

> <Gold.PLP.PLP>
-47.6013

> <Gold.PLP.part.hbond>
-3.4563

> <Gold.PLP.part.metal>
0.0000

> <Gold.PLP.part.buried>
0.8228

> <Gold.PLP.part.nonpolar>
-44.9871

> <Gold.PLP.part.repulsive>
0.5615

> <Gold.PLP.ligand.clash>
0.0000

> <Gold.PLP.ligand.torsion>
2.6900

> <Gold.PLP.Chemscore.Hbond>
2.4113

> <Gold.PLP.Chemscore.CHOScore>
0.0000

> <Gold.PLP.Chemscore.Metal>
0.0000

> <Gold.Chemscore.Hbonds>
donor molecule, donor type, donor heavy atom, donor atom, acceptor molecule, acceptor atom, score
      L1  H    18    44       P1  7949  0.49
      P1  H  7989  7998       L1     6  0.85
      P1  H  7997  8009       L1    15  0.86

> <Gold.PLP.Chemscore.Internal.Correction>
4.1252

> <Gold.Rescore>
     Score         DG    S(hbond)    S(metal)    S(lipo)     H(rot)  DE(clash)    DE(int)     intcor
      9.49     -18.65       1.63        0.00     102.55       1.67       1.38       7.78       ----

> <Gold.Chemscore.Fitness>
9.4891

> <Gold.Chemscore.DG>
-18.6517

> <Gold.Chemscore.ZeroCoef>
-5.4800

> <Gold.Chemscore.Hbond>
1.6345

> <Gold.Chemscore.Metal>
0.0000

> <Gold.Chemscore.Lipo>
102.5545

> <Gold.Chemscore.Internal_Hbond>
0.0000

> <Gold.Chemscore.DEClash>
1.3777

> <Gold.Chemscore.DEInternal>
7.7849

> <Gold.Chemscore.Rot>
1.6744

> <Gold.Chemscore.Internal.Correction>
   9.000000E+99

> <Gold.Chemscore.Hbonds>
donor molecule, donor type, donor heavy atom, donor atom, acceptor molecule, acceptor atom, score
      L1  H    18    44       P1  7949  0.03
      P1  H  7989  7998       L1     6  0.15
      P1  H  7997  8009       L1    15  0.75

> <Gold.Chemscore.Hbond.Weighted>
-5.4593

> <Gold.Chemscore.Metal.Weighted>
-0.0000

> <Gold.Chemscore.Lipo.Weighted>
-11.9989

> <Gold.Chemscore.Internal_Hbond.Weighted>
0.0000

> <Gold.Chemscore.DEClash.Weighted>
1.3777

> <Gold.Chemscore.DEInternal.Weighted>
7.7849

> <Gold.Chemscore.Rot.Weighted>
4.2865

> <Gold.Chemscore.Internal.Correction.Weighted>
   9.000000E+99

> <Gold.Protein.RotatedTorsions>
[ 6907 6896 6895 6894 ] final -105.89 input  -60.11 | X-H torsion
[ 7974 7965 7964 7962 ] final -146.05 input  175.53 | X-H torsion
[ 8008 7997 7996 7995 ] final  105.61 input   59.86 | X-H torsion
[ 10167 10162 10161 10158 ] final   27.46 input  -65.29 | X-H torsion
[ 10718 10713 10712 10709 ] final  -78.57 input   66.30 | X-H torsion
[ 10763 10752 10751 10750 ] final  -53.78 input  -60.55 | X-H torsion
[ 11005 11000 10999 10996 ] final  -91.66 input  -57.11 | X-H torsion

> <Gold.Protein.ActiveResidues>
 VAL166  LYS551  ARG553  GLY616  TRP617  ASP618  TYR619  PRO620  LYS621  CYS622 
 ASP623  PHE694  ASN695  SER759  ASP760  ASP761  ALA762  ILE779  LEU786  VAL792 
 PHE793  MET794  SER795  GLU796  ALA797  LYS798  CYS799  TRP800  GLU811  SER814 

> <Gold.Protein.RotatedAtoms>
  150.7360  134.0059  159.3653 H   0  0  0  0  0  0  0  0  0  0  0  0  # atno 6907 bound_to 6896
  151.8016  135.0705  160.0410 H   0  0  0  0  0  0  0  0  0  0  0  0  # atno 6908 bound_to 6896
  152.3137  133.5743  159.5734 H   0  0  0  0  0  0  0  0  0  0  0  0  # atno 6909 bound_to 6896
  144.8185  140.5505  143.5594 H   0  0  0  0  0  0  0  0  0  0  0  0  # atno 7974 bound_to 7965
  156.1674  140.3127  155.8913 H   0  0  0  0  0  0  0  0  0  0  0  0  # atno 8008 bound_to 7997
  155.3658  140.0479  157.3063 H   0  0  0  0  0  0  0  0  0  0  0  0  # atno 8009 bound_to 7997
  154.5206  140.2197  155.8994 H   0  0  0  0  0  0  0  0  0  0  0  0  # atno 8010 bound_to 7997
  140.4936  144.0427  150.6306 H   0  0  0  0  0  0  0  0  0  0  0  0  # atno 10167 bound_to 10162
  156.0114  130.4522  150.3517 H   0  0  0  0  0  0  0  0  0  0  0  0  # atno 10718 bound_to 10713
  154.1644  135.6469  153.4994 H   0  0  0  0  0  0  0  0  0  0  0  0  # atno 10763 bound_to 10752
  153.0101  135.5368  154.6678 H   0  0  0  0  0  0  0  0  0  0  0  0  # atno 10764 bound_to 10752
  154.6000  135.2943  155.0517 H   0  0  0  0  0  0  0  0  0  0  0  0  # atno 10765 bound_to 10752
  141.1540  133.7770  156.9911 H   0  0  0  0  0  0  0  0  0  0  0  0  # atno 11005 bound_to 11000
  145.5159  139.1478  143.3579 LP  0  0  0  0  0  0  0  0  0  0  0  0  # atno 17320 bound_to 7965
  146.2490  140.5299  142.8901 LP  0  0  0  0  0  0  0  0  0  0  0  0  # atno 17321 bound_to 7965
  140.3703  143.2858  152.0285 LP  0  0  0  0  0  0  0  0  0  0  0  0  # atno 17342 bound_to 10162
  139.4856  144.6235  151.7210 LP  0  0  0  0  0  0  0  0  0  0  0  0  # atno 17343 bound_to 10162
  157.1609  131.0345  151.2841 LP  0  0  0  0  0  0  0  0  0  0  0  0  # atno 17370 bound_to 10713
  157.4312  130.7491  149.6991 LP  0  0  0  0  0  0  0  0  0  0  0  0  # atno 17371 bound_to 10713
  140.1002  134.9540  157.1911 LP  0  0  0  0  0  0  0  0  0  0  0  0  # atno 17394 bound_to 11000
  140.3328  134.2790  155.7225 LP  0  0  0  0  0  0  0  0  0  0  0  0  # atno 17395 bound_to 11000

$$$$
