AV-unprocessed.smi:1381|AV-procd|sdf|5618|dock6
  -GOLD-   22720 5233D 1   1.00000     0.00000
 Structure written by MMmdl.
 42 43  0  0  0  0  0  0  0  0  3 V2000
  153.5356  142.3226  160.1819 C   0  0  0  0  0  0  0  0  0  0  0  0
  152.6394  142.7122  159.0567 C   0  0  0  0  0  0  0  0  0  0  0  0
  151.7943  142.0015  158.2521 C   0  0  0  0  0  0  0  0  0  0  0  0
  151.2549  142.9967  157.3941 C   0  0  0  0  0  0  0  0  0  0  0  0
  150.3107  142.6510  156.3914 N   0  0  0  0  0  0  0  0  0  0  0  0
  150.1914  141.4999  155.7047 C   0  0  0  0  0  0  0  0  0  0  0  0
  150.9601  140.5568  155.9273 O   0  0  0  0  0  0  0  0  0  0  0  0
  149.1721  141.5440  154.8035 N   0  5  0  0  0  0  0  0  0  0  0  0
  148.6549  140.3857  154.0791 C   0  0  0  0  0  0  0  0  0  0  0  0
  147.2735  140.7230  153.4853 C   0  0  0  0  0  0  0  0  0  0  0  0
  146.3643  139.5462  153.4784 N   0  3  1  0  0  0  0  0  0  0  0  0
  146.6261  138.6205  152.3515 C   0  0  0  0  0  0  0  0  0  0  0  0
  145.5726  137.4988  152.3215 C   0  0  1  0  0  0  0  0  0  0  0  0
  145.8605  136.4696  151.2228 C   0  0  0  0  0  0  0  0  0  0  0  0
  145.5676  136.8148  153.5723 O   0  0  0  0  0  0  0  0  0  0  0  0
  145.3189  137.6428  154.7086 C   0  0  2  0  0  0  0  0  0  0  0  0
  143.8570  138.1189  154.7770 C   0  0  0  0  0  0  0  0  0  0  0  0
  146.3414  138.7939  154.7606 C   0  0  0  0  0  0  0  0  0  0  0  0
  151.7287  144.2063  157.6534 N   0  0  0  0  0  0  0  0  0  0  0  0
  152.6182  144.0301  158.7199 O   0  0  0  0  0  0  0  0  0  0  0  0
  153.4991  141.2468  160.3548 H   0  0  0  0  0  0  0  0  0  0  0  0
  153.2381  142.8233  161.1033 H   0  0  0  0  0  0  0  0  0  0  0  0
  154.5686  142.5954  159.9653 H   0  0  0  0  0  0  0  0  0  0  0  0
  151.5949  140.9407  158.2749 H   0  0  0  0  0  0  0  0  0  0  0  0
  149.6419  143.3696  156.1578 H   0  0  0  0  0  0  0  0  0  0  0  0
  149.3210  140.0807  153.2710 H   0  0  0  0  0  0  0  0  0  0  0  0
  148.5574  139.5153  154.7293 H   0  0  0  0  0  0  0  0  0  0  0  0
  146.8354  141.5188  154.0903 H   0  0  0  0  0  0  0  0  0  0  0  0
  147.3677  141.1290  152.4765 H   0  0  0  0  0  0  0  0  0  0  0  0
  146.5969  139.1695  151.4090 H   0  0  0  0  0  0  0  0  0  0  0  0
  147.6294  138.2025  152.4497 H   0  0  0  0  0  0  0  0  0  0  0  0
  144.5879  137.9270  152.1327 H   0  0  0  0  0  0  0  0  0  0  0  0
  145.8703  136.9380  150.2383 H   0  0  0  0  0  0  0  0  0  0  0  0
  145.0992  135.6890  151.2111 H   0  0  0  0  0  0  0  0  0  0  0  0
  146.8273  135.9888  151.3745 H   0  0  0  0  0  0  0  0  0  0  0  0
  145.4854  137.0122  155.5827 H   0  0  0  0  0  0  0  0  0  0  0  0
  143.6629  138.6317  155.7194 H   0  0  0  0  0  0  0  0  0  0  0  0
  143.1695  137.2754  154.7138 H   0  0  0  0  0  0  0  0  0  0  0  0
  143.6092  138.8141  153.9753 H   0  0  0  0  0  0  0  0  0  0  0  0
  147.3367  138.3898  154.9530 H   0  0  0  0  0  0  0  0  0  0  0  0
  146.1081  139.4567  155.5946 H   0  0  0  0  0  0  0  0  0  0  0  0
  145.4358  139.9156  153.3306 H   0  0  0  0  0  0  0  0  0  0  0  0
  1  2  1  0  0  0  0
  1 21  1  0  0  0  0
  1 22  1  0  0  0  0
  1 23  1  0  0  0  0
  2 20  1  0  0  0  0
  2  3  2  0  0  0  0
  3  4  1  0  0  0  0
  3 24  1  0  0  0  0
  4  5  1  0  0  0  0
  4 19  2  0  0  0  0
  5  6  1  0  0  0  0
  5 25  1  0  0  0  0
  6  7  2  0  0  0  0
  6  8  1  0  0  0  0
  8  9  1  0  0  0  0
  9 10  1  0  0  0  0
  9 26  1  0  0  0  0
  9 27  1  0  0  0  0
 10 11  1  0  0  0  0
 10 28  1  0  0  0  0
 10 29  1  0  0  0  0
 11 18  1  0  0  0  0
 11 12  1  0  0  0  0
 11 42  1  0  0  0  0
 12 13  1  0  0  0  0
 12 30  1  0  0  0  0
 12 31  1  0  0  0  0
 13 14  1  0  0  0  0
 13 15  1  0  0  0  0
 13 32  1  0  0  0  0
 14 33  1  0  0  0  0
 14 34  1  0  0  0  0
 14 35  1  0  0  0  0
 15 16  1  0  0  0  0
 16 17  1  0  0  0  0
 16 18  1  0  0  0  0
 16 36  1  0  0  0  0
 17 37  1  0  0  0  0
 17 38  1  0  0  0  0
 17 39  1  0  0  0  0
 18 40  1  0  0  0  0
 18 41  1  0  0  0  0
 19 20  1  0  0  0  0
M  CHG  1   8  -1
M  CHG  1  11   1
M  END
> <s_m_source_file>
AV-unprocessed.smi

> <i_m_source_file_index>
1381

> <i_lp_mmshare_version>
43012

> <i_f3d_flags>
0

> <s_epik_input>
W0NIM11jMVtjSF1jKG5vMSlbTkhdQyg9TylbTkhdW0NIMl1bQ0gyXU4yW0NIMl1bQ0BASF0oW0NIM10pT1tDQEBIXShbQ0gzXSlbQ0gyXTI=

> <s_epik_cmdline>
J2VwaWtfcHl0aG9uJywgJy1waCcsICc3LjAnLCAnLXRuJywgJzgnLCAnLW1hJywgJzIwMCcsICctbWV0YWxfYmluZGluZycsICctaW1hZScsICc8aW5maWxlLm1hZT4nLCAnLW9tYWUnLCAnPG91dGZpbGUubWFlPic=

> <r_epik_Ionization_Penalty>
6.8073

> <r_epik_Ionization_Penalty_Charging>
6.80729

> <r_epik_Ionization_Penalty_Neutral>
5.65391e-06

> <r_epik_State_Penalty>
7.47323

> <r_epik_Charging_Adjusted_Penalty>
14.2805

> <i_epik_Tot_Q>
0

> <i_epik_Tot_abs_Q>
2

> <r_epik_Metal_State_Penalty>
3.40035

> <b_epik_Metal_Only>
1

> <s_lp_Force_Field>
OPLS_2005

> <r_lp_Energy>
14.8512

> <b_lp_Chiralities_Consistent>
1

> <s_lp_Variant>
AV-unprocessed.smi:1381-17

> <Gold.Version>
5.8.1

> <Gold.Id.Protein>
6NUR|6NUR_protein|mol2

> <Gold.PLP.Fitness>
40.5370

> <Gold.PLP.PLP>
-32.8943

> <Gold.PLP.part.hbond>
-2.0000

> <Gold.PLP.part.metal>
0.0000

> <Gold.PLP.part.buried>
-4.4922

> <Gold.PLP.part.nonpolar>
-27.9615

> <Gold.PLP.part.repulsive>
0.4998

> <Gold.PLP.ligand.clash>
0.0000

> <Gold.PLP.ligand.torsion>
0.6997

> <Gold.PLP.Chemscore.Hbond>
3.0000

> <Gold.PLP.Chemscore.CHOScore>
0.0000

> <Gold.PLP.Chemscore.Metal>
0.0000

> <Gold.Chemscore.Hbonds>
donor molecule, donor type, donor heavy atom, donor atom, acceptor molecule, acceptor atom, score
      L1  H     5    25       P1  8028  1.00
      L1  H    11    42       P1 10175  1.98

> <Gold.PLP.Chemscore.Internal.Correction>
0.0421

> <Gold.Rescore>
     Score         DG    S(hbond)    S(metal)    S(lipo)     H(rot)  DE(clash)    DE(int)     intcor
     14.01     -16.19       2.00        0.00      69.12       1.58       0.24       1.95       ----

> <Gold.Chemscore.Fitness>
14.0070

> <Gold.Chemscore.DG>
-16.1887

> <Gold.Chemscore.ZeroCoef>
-5.4800

> <Gold.Chemscore.Hbond>
1.9952

> <Gold.Chemscore.Metal>
0.0000

> <Gold.Chemscore.Lipo>
69.1243

> <Gold.Chemscore.Internal_Hbond>
0.0000

> <Gold.Chemscore.DEClash>
0.2357

> <Gold.Chemscore.DEInternal>
1.9459

> <Gold.Chemscore.Rot>
1.5792

> <Gold.Chemscore.Internal.Correction>
   9.000000E+99

> <Gold.Chemscore.Hbonds>
donor molecule, donor type, donor heavy atom, donor atom, acceptor molecule, acceptor atom, score
      L1  H     5    25       P1  8028  0.99
      L1  H    11    42       P1 10175  0.93

> <Gold.Chemscore.Hbond.Weighted>
-6.6640

> <Gold.Chemscore.Metal.Weighted>
-0.0000

> <Gold.Chemscore.Lipo.Weighted>
-8.0875

> <Gold.Chemscore.Internal_Hbond.Weighted>
0.0000

> <Gold.Chemscore.DEClash.Weighted>
0.2357

> <Gold.Chemscore.DEInternal.Weighted>
1.9459

> <Gold.Chemscore.Rot.Weighted>
4.0428

> <Gold.Chemscore.Internal.Correction.Weighted>
   9.000000E+99

> <Gold.Protein.RotatedTorsions>
[ 6907 6896 6895 6894 ] final   59.22 input  -60.11 | X-H torsion
[ 7974 7965 7964 7962 ] final  168.08 input  175.53 | X-H torsion
[ 8008 7997 7996 7995 ] final  -70.19 input   59.86 | X-H torsion
[ 10167 10162 10161 10158 ] final   84.87 input  -65.29 | X-H torsion
[ 10718 10713 10712 10709 ] final  -94.93 input   66.30 | X-H torsion
[ 10763 10752 10751 10750 ] final  155.62 input  -60.55 | X-H torsion
[ 11005 11000 10999 10996 ] final -131.52 input  -57.11 | X-H torsion

> <Gold.Protein.ActiveResidues>
 VAL166  LYS551  ARG553  GLY616  TRP617  ASP618  TYR619  PRO620  LYS621  CYS622 
 ASP623  PHE694  ASN695  SER759  ASP760  ASP761  ALA762  ILE779  LEU786  VAL792 
 PHE793  MET794  SER795  GLU796  ALA797  LYS798  CYS799  TRP800  GLU811  SER814 

> <Gold.Protein.RotatedAtoms>
  152.3895  134.6463  160.0112 H   0  0  0  0  0  0  0  0  0  0  0  0  # atno 6907 bound_to 6896
  151.6701  133.3308  159.3202 H   0  0  0  0  0  0  0  0  0  0  0  0  # atno 6908 bound_to 6896
  150.7814  134.6806  159.6486 H   0  0  0  0  0  0  0  0  0  0  0  0  # atno 6909 bound_to 6896
  144.7401  139.8854  143.6399 H   0  0  0  0  0  0  0  0  0  0  0  0  # atno 7974 bound_to 7965
  154.4994  140.0839  156.7765 H   0  0  0  0  0  0  0  0  0  0  0  0  # atno 8008 bound_to 7997
  155.4039  140.3438  155.4240 H   0  0  0  0  0  0  0  0  0  0  0  0  # atno 8009 bound_to 7997
  156.1436  140.1537  156.8869 H   0  0  0  0  0  0  0  0  0  0  0  0  # atno 8010 bound_to 7997
  139.9036  144.6315  150.8611 H   0  0  0  0  0  0  0  0  0  0  0  0  # atno 10167 bound_to 10162
  156.0035  130.5088  150.6000 H   0  0  0  0  0  0  0  0  0  0  0  0  # atno 10718 bound_to 10713
  154.1712  135.2804  155.3080 H   0  0  0  0  0  0  0  0  0  0  0  0  # atno 10763 bound_to 10752
  154.6073  135.5510  153.7440 H   0  0  0  0  0  0  0  0  0  0  0  0  # atno 10764 bound_to 10752
  153.0164  135.6407  154.1853 H   0  0  0  0  0  0  0  0  0  0  0  0  # atno 10765 bound_to 10752
  140.9251  134.1393  157.4281 H   0  0  0  0  0  0  0  0  0  0  0  0  # atno 11005 bound_to 11000
  146.1180  139.4194  143.0246 LP  0  0  0  0  0  0  0  0  0  0  0  0  # atno 17320 bound_to 7965
  145.7346  141.0030  143.1333 LP  0  0  0  0  0  0  0  0  0  0  0  0  # atno 17321 bound_to 7965
  140.7701  143.3418  151.2191 LP  0  0  0  0  0  0  0  0  0  0  0  0  # atno 17342 bound_to 10162
  139.7004  143.9542  152.2903 LP  0  0  0  0  0  0  0  0  0  0  0  0  # atno 17343 bound_to 10162
  157.3850  131.0787  151.1443 LP  0  0  0  0  0  0  0  0  0  0  0  0  # atno 17370 bound_to 10713
  157.2153  130.6456  149.5790 LP  0  0  0  0  0  0  0  0  0  0  0  0  # atno 17371 bound_to 10713
  139.8784  134.9985  156.5906 LP  0  0  0  0  0  0  0  0  0  0  0  0  # atno 17394 bound_to 11000
  140.7936  133.8562  155.8667 LP  0  0  0  0  0  0  0  0  0  0  0  0  # atno 17395 bound_to 11000

$$$$
