AV-unprocessed.smi:500|AV-procd|sdf|2734|dock5
  -GOLD-   2262023183D 1   1.00000     0.00000
 Structure written by MMmdl.
 45 47  0  0  0  0  0  0  0  0  1 V2000
  152.5690  138.9608  154.9478 C   0  0  0  0  0  0  0  0  0  0  0  0
  152.8705  138.0559  156.1504 C   0  0  0  0  0  0  0  0  0  0  0  0
  153.6782  138.7122  157.1178 O   0  0  0  0  0  0  0  0  0  0  0  0
  153.8367  137.9924  158.3305 C   0  0  0  0  0  0  0  0  0  0  0  0
  153.1222  138.7568  159.4518 C   0  0  0  0  0  0  0  0  0  0  0  0
  152.0038  139.5379  158.9445 N   0  0  0  0  0  0  0  0  0  0  0  0
  150.8115  139.0989  158.4616 C   0  0  0  0  0  0  0  0  0  0  0  0
  150.4517  137.6360  158.3768 C   0  0  2  0  0  0  0  0  0  0  0  0
  149.7960  137.2766  157.0363 C   0  0  0  0  0  0  0  0  0  0  0  0
  149.5524  137.3185  159.4834 N   0  0  0  0  0  0  0  0  0  0  0  0
  148.9286  136.1426  159.6600 C   0  0  0  0  0  0  0  0  0  0  0  0
  149.0273  135.1981  158.8765 O   0  0  0  0  0  0  0  0  0  0  0  0
  148.0907  136.0357  160.8689 C   0  0  0  0  0  0  0  0  0  0  0  0
  147.5737  134.9462  161.5197 C   0  0  0  0  0  0  0  0  0  0  0  0
  146.8277  135.4471  162.6221 C   0  0  0  0  0  0  0  0  0  0  0  0
  146.9392  136.8065  162.5646 C   0  0  0  0  0  0  0  0  0  0  0  0
  147.7018  137.1807  161.5018 O   0  0  0  0  0  0  0  0  0  0  0  0
  149.9621  140.0543  158.0737 N   0  0  0  0  0  0  0  0  0  0  0  0
  150.6695  141.2137  158.3173 C   0  0  0  0  0  0  0  0  0  0  0  0
  150.3128  142.5657  158.1119 C   0  0  0  0  0  0  0  0  0  0  0  0
  151.2151  143.5991  158.4381 C   0  0  0  0  0  0  0  0  0  0  0  0
  152.4837  143.2956  158.9731 C   0  0  0  0  0  0  0  0  0  0  0  0
  152.8581  141.9549  159.1862 C   0  0  0  0  0  0  0  0  0  0  0  0
  151.9532  140.9265  158.8599 C   0  0  0  0  0  0  0  0  0  0  0  0
  151.8717  138.4735  154.2658 H   0  0  0  0  0  0  0  0  0  0  0  0
  153.4682  139.1964  154.3794 H   0  0  0  0  0  0  0  0  0  0  0  0
  152.1177  139.8996  155.2691 H   0  0  0  0  0  0  0  0  0  0  0  0
  151.9300  137.7927  156.6347 H   0  0  0  0  0  0  0  0  0  0  0  0
  153.3269  137.1177  155.8315 H   0  0  0  0  0  0  0  0  0  0  0  0
  153.4093  136.9933  158.2316 H   0  0  0  0  0  0  0  0  0  0  0  0
  154.8929  137.8753  158.5708 H   0  0  0  0  0  0  0  0  0  0  0  0
  152.7678  138.0785  160.2277 H   0  0  0  0  0  0  0  0  0  0  0  0
  153.8248  139.4286  159.9451 H   0  0  0  0  0  0  0  0  0  0  0  0
  151.3425  137.0169  158.4719 H   0  0  0  0  0  0  0  0  0  0  0  0
  150.4616  137.5040  156.2032 H   0  0  0  0  0  0  0  0  0  0  0  0
  148.8698  137.8313  156.8818 H   0  0  0  0  0  0  0  0  0  0  0  0
  149.5587  136.2135  156.9883 H   0  0  0  0  0  0  0  0  0  0  0  0
  149.4151  138.0369  160.1793 H   0  0  0  0  0  0  0  0  0  0  0  0
  147.7126  133.9128  161.2372 H   0  0  0  0  0  0  0  0  0  0  0  0
  146.2776  134.8844  163.3619 H   0  0  0  0  0  0  0  0  0  0  0  0
  146.5579  137.6174  163.1673 H   0  0  0  0  0  0  0  0  0  0  0  0
  149.3434  142.8080  157.7023 H   0  0  0  0  0  0  0  0  0  0  0  0
  150.9328  144.6291  158.2764 H   0  0  0  0  0  0  0  0  0  0  0  0
  153.1695  144.0928  159.2200 H   0  0  0  0  0  0  0  0  0  0  0  0
  153.8301  141.7223  159.5954 H   0  0  0  0  0  0  0  0  0  0  0  0
  1  2  1  0  0  0  0
  1 25  1  0  0  0  0
  1 26  1  0  0  0  0
  1 27  1  0  0  0  0
  2  3  1  0  0  0  0
  2 28  1  0  0  0  0
  2 29  1  0  0  0  0
  3  4  1  0  0  0  0
  4  5  1  0  0  0  0
  4 30  1  0  0  0  0
  4 31  1  0  0  0  0
  5  6  1  0  0  0  0
  5 32  1  0  0  0  0
  5 33  1  0  0  0  0
  6 24  1  0  0  0  0
  6  7  1  0  0  0  0
  7  8  1  0  0  0  0
  7 18  2  0  0  0  0
  8  9  1  0  0  0  0
  8 10  1  0  0  0  0
  8 34  1  0  0  0  0
  9 35  1  0  0  0  0
  9 36  1  0  0  0  0
  9 37  1  0  0  0  0
 10 11  1  0  0  0  0
 10 38  1  0  0  0  0
 11 12  2  0  0  0  0
 11 13  1  0  0  0  0
 13 17  1  0  0  0  0
 13 14  2  0  0  0  0
 14 15  1  0  0  0  0
 14 39  1  0  0  0  0
 15 16  2  0  0  0  0
 15 40  1  0  0  0  0
 16 17  1  0  0  0  0
 16 41  1  0  0  0  0
 18 19  1  0  0  0  0
 19 24  2  0  0  0  0
 19 20  1  0  0  0  0
 20 21  2  0  0  0  0
 20 42  1  0  0  0  0
 21 22  1  0  0  0  0
 21 43  1  0  0  0  0
 22 23  2  0  0  0  0
 22 44  1  0  0  0  0
 23 24  1  0  0  0  0
 23 45  1  0  0  0  0
M  END
> <s_m_source_file>
AV-unprocessed.smi

> <i_m_source_file_index>
500

> <i_lp_mmshare_version>
43012

> <i_f3d_flags>
0

> <s_epik_input>
W0NIM11bQ0gyXU9bQ0gyXVtDSDJdbihjKGMxMilbY0hdW2NIXVtjSF1bY0hdMiljKG4xKVtDQEhdKFtDSDNdKVtOSF1DKD1PKWMzW2NIXVtjSF1bY0hdbzM=

> <s_epik_cmdline>
J2VwaWtfcHl0aG9uJywgJy1waCcsICc3LjAnLCAnLXRuJywgJzgnLCAnLW1hJywgJzIwMCcsICctbWV0YWxfYmluZGluZycsICctaW1hZScsICc8aW5maWxlLm1hZT4nLCAnLW9tYWUnLCAnPG91dGZpbGUubWFlPic=

> <r_epik_Ionization_Penalty>
0.109801

> <r_epik_Ionization_Penalty_Charging>
0

> <r_epik_Ionization_Penalty_Neutral>
0.109801

> <r_epik_State_Penalty>
0.0995533

> <r_epik_Charging_Adjusted_Penalty>
0.0995533

> <i_epik_Tot_Q>
0

> <i_epik_Tot_abs_Q>
0

> <r_epik_Metal_State_Penalty>
0.0918163

> <b_epik_Metal_Only>
0

> <s_lp_Force_Field>
OPLS_2005

> <r_lp_Energy>
8.25657

> <b_lp_Chiralities_Consistent>
1

> <s_lp_Variant>
AV-unprocessed.smi:500-1

> <Gold.Version>
5.8.1

> <Gold.Id.Protein>
6NUR|6NUR_protein|mol2

> <Gold.PLP.Fitness>
53.6502

> <Gold.PLP.PLP>
-44.7712

> <Gold.PLP.part.hbond>
-3.8684

> <Gold.PLP.part.metal>
0.0000

> <Gold.PLP.part.buried>
-6.3525

> <Gold.PLP.part.nonpolar>
-35.8331

> <Gold.PLP.part.repulsive>
0.3163

> <Gold.PLP.ligand.clash>
0.0000

> <Gold.PLP.ligand.torsion>
1.3076

> <Gold.PLP.Chemscore.Hbond>
3.7840

> <Gold.PLP.Chemscore.CHOScore>
0.0000

> <Gold.PLP.Chemscore.Metal>
0.0000

> <Gold.Chemscore.Hbonds>
donor molecule, donor type, donor heavy atom, donor atom, acceptor molecule, acceptor atom, score
      P1  H  6896  6908       L1    12  1.00
      P1  H  6931  6943       L1    17  1.00
      P1  H  6934  6947       L1    17  0.77
      P1  H  7997  8008       L1     3  0.98

> <Gold.PLP.Chemscore.Internal.Correction>
0.1422

> <Gold.Rescore>
     Score         DG    S(hbond)    S(metal)    S(lipo)     H(rot)  DE(clash)    DE(int)     intcor
     21.49     -24.10       3.07        0.00     113.47       1.92       0.38       2.23       ----

> <Gold.Chemscore.Fitness>
21.4895

> <Gold.Chemscore.DG>
-24.0962

> <Gold.Chemscore.ZeroCoef>
-5.4800

> <Gold.Chemscore.Hbond>
3.0670

> <Gold.Chemscore.Metal>
0.0000

> <Gold.Chemscore.Lipo>
113.4732

> <Gold.Chemscore.Internal_Hbond>
0.0000

> <Gold.Chemscore.DEClash>
0.3807

> <Gold.Chemscore.DEInternal>
2.2261

> <Gold.Chemscore.Rot>
1.9156

> <Gold.Chemscore.Internal.Correction>
   9.000000E+99

> <Gold.Chemscore.Hbonds>
donor molecule, donor type, donor heavy atom, donor atom, acceptor molecule, acceptor atom, score
      P1  H  6896  6908       L1    12  0.52
      P1  H  6931  6943       L1    17  0.74
      P1  H  6934  6947       L1    17  0.53
      P1  H  7997  8008       L1     3  0.89

> <Gold.Chemscore.Hbond.Weighted>
-10.2439

> <Gold.Chemscore.Metal.Weighted>
-0.0000

> <Gold.Chemscore.Lipo.Weighted>
-13.2764

> <Gold.Chemscore.Internal_Hbond.Weighted>
0.0000

> <Gold.Chemscore.DEClash.Weighted>
0.3807

> <Gold.Chemscore.DEInternal.Weighted>
2.2261

> <Gold.Chemscore.Rot.Weighted>
4.9041

> <Gold.Chemscore.Internal.Correction.Weighted>
   9.000000E+99

> <Gold.Protein.RotatedTorsions>
[ 6907 6896 6895 6894 ] final  145.07 input  -60.11 | X-H torsion
[ 7974 7965 7964 7962 ] final  137.36 input  175.53 | X-H torsion
[ 8008 7997 7996 7995 ] final  -72.45 input   59.86 | X-H torsion
[ 10167 10162 10161 10158 ] final  102.73 input  -65.29 | X-H torsion
[ 10718 10713 10712 10709 ] final  -30.14 input   66.30 | X-H torsion
[ 10763 10752 10751 10750 ] final  -32.62 input  -60.55 | X-H torsion
[ 11005 11000 10999 10996 ] final -165.00 input  -57.11 | X-H torsion

> <Gold.Protein.ActiveResidues>
 VAL166  LYS551  ARG553  GLY616  TRP617  ASP618  TYR619  PRO620  LYS621  CYS622 
 ASP623  PHE694  ASN695  SER759  ASP760  ASP761  ALA762  ILE779  LEU786  VAL792 
 PHE793  MET794  SER795  GLU796  ALA797  LYS798  CYS799  TRP800  GLU811  SER814 

> <Gold.Protein.RotatedAtoms>
  152.1856  133.4737  159.4980 H   0  0  0  0  0  0  0  0  0  0  0  0  # atno 6907 bound_to 6896
  150.6942  134.1778  159.4246 H   0  0  0  0  0  0  0  0  0  0  0  0  # atno 6908 bound_to 6896
  151.9691  135.0085  160.0602 H   0  0  0  0  0  0  0  0  0  0  0  0  # atno 6909 bound_to 6896
  144.9475  139.4857  143.5542 H   0  0  0  0  0  0  0  0  0  0  0  0  # atno 7974 bound_to 7965
  154.5167  140.0797  156.8094 H   0  0  0  0  0  0  0  0  0  0  0  0  # atno 8008 bound_to 7997
  155.3665  140.3420  155.4224 H   0  0  0  0  0  0  0  0  0  0  0  0  # atno 8009 bound_to 7997
  156.1635  140.1596  156.8558 H   0  0  0  0  0  0  0  0  0  0  0  0  # atno 8010 bound_to 7997
  139.7325  144.7032  151.0701 H   0  0  0  0  0  0  0  0  0  0  0  0  # atno 10167 bound_to 10162
  156.4035  130.4395  149.7304 H   0  0  0  0  0  0  0  0  0  0  0  0  # atno 10718 bound_to 10713
  153.8167  135.6878  153.4833 H   0  0  0  0  0  0  0  0  0  0  0  0  # atno 10763 bound_to 10752
  153.1594  135.4586  154.9749 H   0  0  0  0  0  0  0  0  0  0  0  0  # atno 10764 bound_to 10752
  154.7945  135.3314  154.7643 H   0  0  0  0  0  0  0  0  0  0  0  0  # atno 10765 bound_to 10752
  140.5806  134.5145  157.5177 H   0  0  0  0  0  0  0  0  0  0  0  0  # atno 11005 bound_to 11000
  146.3309  139.8537  142.8868 LP  0  0  0  0  0  0  0  0  0  0  0  0  # atno 17320 bound_to 7965
  145.2895  141.0163  143.3671 LP  0  0  0  0  0  0  0  0  0  0  0  0  # atno 17321 bound_to 7965
  140.7773  143.5026  150.9752 LP  0  0  0  0  0  0  0  0  0  0  0  0  # atno 17342 bound_to 10162
  139.8714  143.7188  152.3166 LP  0  0  0  0  0  0  0  0  0  0  0  0  # atno 17343 bound_to 10162
  156.4311  130.7815  151.2835 LP  0  0  0  0  0  0  0  0  0  0  0  0  # atno 17370 bound_to 10713
  157.7505  131.0154  150.3501 LP  0  0  0  0  0  0  0  0  0  0  0  0  # atno 17371 bound_to 10713
  139.9319  134.7948  156.0908 LP  0  0  0  0  0  0  0  0  0  0  0  0  # atno 17394 bound_to 11000
  141.0998  133.6681  156.2729 LP  0  0  0  0  0  0  0  0  0  0  0  0  # atno 17395 bound_to 11000

$$$$
