AV-unprocessed.smi:158|AV-procd|sdf|1325|dock3
  -GOLD-   2262019 23D 1   1.00000     0.00000
 Structure written by MMmdl.
 31 33  0  0  0  0  0  0  0  0  1 V2000
  144.4695  133.7557  155.4378 N   0  0  0  0  0  0  0  0  0  0  0  0
  145.0480  134.6988  154.6815 C   0  0  0  0  0  0  0  0  0  0  0  0
  144.6561  134.8202  153.3920 N   0  0  0  0  0  0  0  0  0  0  0  0
  145.2094  135.7488  152.6023 C   0  0  0  0  0  0  0  0  0  0  0  0
  144.6363  135.8155  150.9778 Cl  0  0  0  0  0  0  0  0  0  0  0  0
  146.1577  136.6319  152.9312 N   0  0  0  0  0  0  0  0  0  0  0  0
  146.5557  136.5131  154.2314 C   0  0  0  0  0  0  0  0  0  0  0  0
  146.0502  135.5729  155.1684 C   0  0  0  0  0  0  0  0  0  0  0  0
  146.6831  135.7366  156.3932 N   0  0  0  0  0  0  0  0  0  0  0  0
  147.5177  136.7199  156.1855 C   0  0  0  0  0  0  0  0  0  0  0  0
  147.5083  137.2452  154.9119 N   0  0  0  0  0  0  0  0  0  0  0  0
  148.3459  138.3660  154.3816 C   0  0  2  0  0  0  0  0  0  0  0  0
  149.2573  138.7655  155.3614 O   0  0  0  0  0  0  0  0  0  0  0  0
  149.1604  140.1707  155.5857 C   0  0  1  0  0  0  0  0  0  0  0  0
  150.5383  140.7701  155.9151 C   0  0  0  0  0  0  0  0  0  0  0  0
  151.5181  140.2643  155.0334 O   0  0  0  0  0  0  0  0  0  0  0  0
  148.4337  140.7316  154.3529 C   0  0  1  0  0  0  0  0  0  0  0  0
  149.3148  141.0264  153.2849 O   0  0  0  0  0  0  0  0  0  0  0  0
  147.5073  139.5900  153.9845 C   0  0  2  0  0  0  0  0  0  0  0  0
  146.3897  139.6635  154.7116 F   0  0  0  0  0  0  0  0  0  0  0  0
  148.8925  137.9380  153.5404 H   0  0  0  0  0  0  0  0  0  0  0  0
  148.5071  140.2973  156.4506 H   0  0  0  0  0  0  0  0  0  0  0  0
  147.8819  141.6416  154.5918 H   0  0  0  0  0  0  0  0  0  0  0  0
  147.2210  139.5568  152.9326 H   0  0  0  0  0  0  0  0  0  0  0  0
  144.7462  133.6459  156.4029 H   0  0  0  0  0  0  0  0  0  0  0  0
  143.7616  133.1548  155.0414 H   0  0  0  0  0  0  0  0  0  0  0  0
  148.1702  137.0912  156.9623 H   0  0  0  0  0  0  0  0  0  0  0  0
  150.5054  141.8541  155.8046 H   0  0  0  0  0  0  0  0  0  0  0  0
  150.8287  140.5655  156.9458 H   0  0  0  0  0  0  0  0  0  0  0  0
  152.3070  140.0958  155.5259 H   0  0  0  0  0  0  0  0  0  0  0  0
  149.1438  140.4171  152.5824 H   0  0  0  0  0  0  0  0  0  0  0  0
  1  2  1  0  0  0  0
  1 25  1  0  0  0  0
  1 26  1  0  0  0  0
  2  8  1  0  0  0  0
  2  3  2  0  0  0  0
  3  4  1  0  0  0  0
  4  5  1  0  0  0  0
  4  6  2  0  0  0  0
  6  7  1  0  0  0  0
  7 11  1  0  0  0  0
  7  8  2  0  0  0  0
  8  9  1  0  0  0  0
  9 10  2  0  0  0  0
 10 11  1  0  0  0  0
 10 27  1  0  0  0  0
 11 12  1  0  0  0  0
 12 21  1  0  0  0  0
 12 19  1  0  0  0  0
 12 13  1  0  0  0  0
 13 14  1  0  0  0  0
 14 22  1  0  0  0  0
 14 15  1  0  0  0  0
 14 17  1  0  0  0  0
 15 16  1  0  0  0  0
 15 28  1  0  0  0  0
 15 29  1  0  0  0  0
 16 30  1  0  0  0  0
 17 23  1  0  0  0  0
 17 18  1  0  0  0  0
 17 19  1  0  0  0  0
 18 31  1  0  0  0  0
 19 24  1  0  0  0  0
 19 20  1  0  0  0  0
M  END
> <s_m_source_file>
AV-unprocessed.smi

> <i_m_source_file_index>
158

> <i_lp_mmshare_version>
43012

> <i_f3d_flags>
0

> <s_epik_input>
Q2xjKG4xKW5jKFtOSDJdKWMoYzEyKW5bY0hdbjJbQ0BASF0zT1tDQEhdKFtDSDJdW09IXSlbQ0BASF0oW09IXSlbQ0BASF0zRg==

> <s_epik_cmdline>
J2VwaWtfcHl0aG9uJywgJy1waCcsICc3LjAnLCAnLXRuJywgJzgnLCAnLW1hJywgJzIwMCcsICctbWV0YWxfYmluZGluZycsICctaW1hZScsICc8aW5maWxlLm1hZT4nLCAnLW9tYWUnLCAnPG91dGZpbGUubWFlPic=

> <r_lp_tautomer_probability>
1

> <r_epik_Ionization_Penalty>
6.51543e-05

> <r_epik_Ionization_Penalty_Charging>
0

> <r_epik_Ionization_Penalty_Neutral>
6.51543e-05

> <r_epik_State_Penalty>
-0

> <r_epik_Charging_Adjusted_Penalty>
0

> <i_epik_Tot_Q>
0

> <i_epik_Tot_abs_Q>
0

> <r_epik_Metal_State_Penalty>
-0

> <b_epik_Metal_Only>
0

> <s_epik_Chemistry_Notes>
This compound contains an acetal/aminal-like group ( X-CH(R)-Y where X, Y are N, S, or O) that may be acid/base labile, releasing an aldehyde.

> <s_lp_Force_Field>
OPLS_2005

> <r_lp_Energy>
35.164

> <b_lp_Chiralities_Consistent>
1

> <s_lp_Variant>
AV-unprocessed.smi:158-3

> <Gold.Version>
5.8.1

> <Gold.Id.Protein>
6NUR|6NUR_protein|mol2

> <Gold.PLP.Fitness>
29.9657

> <Gold.PLP.PLP>
-18.8226

> <Gold.PLP.part.hbond>
-4.3696

> <Gold.PLP.part.metal>
0.0000

> <Gold.PLP.part.buried>
-4.9313

> <Gold.PLP.part.nonpolar>
-11.7101

> <Gold.PLP.part.repulsive>
1.3548

> <Gold.PLP.ligand.clash>
0.0000

> <Gold.PLP.ligand.torsion>
0.1646

> <Gold.PLP.Chemscore.Hbond>
3.8240

> <Gold.PLP.Chemscore.CHOScore>
0.0000

> <Gold.PLP.Chemscore.Metal>
0.0000

> <Gold.Chemscore.Hbonds>
donor molecule, donor type, donor heavy atom, donor atom, acceptor molecule, acceptor atom, score
      L1  H     1    26       P1 10957  1.00
      L1  H    18    31       P1  7957  0.83
      P1  H  7989  7998       L1    16  0.99
      P1  H  8011  8017       L1    18  0.95

> <Gold.PLP.Chemscore.Internal.Correction>
0.0004

> <Gold.Rescore>
     Score         DG    S(hbond)    S(metal)    S(lipo)     H(rot)  DE(clash)    DE(int)     intcor
     11.73     -11.82       3.29        0.00      28.51       3.12       0.00       0.09       ----

> <Gold.Chemscore.Fitness>
11.7269

> <Gold.Chemscore.DG>
-11.8196

> <Gold.Chemscore.ZeroCoef>
-5.4800

> <Gold.Chemscore.Hbond>
3.2931

> <Gold.Chemscore.Metal>
0.0000

> <Gold.Chemscore.Lipo>
28.5096

> <Gold.Chemscore.Internal_Hbond>
0.0000

> <Gold.Chemscore.DEClash>
0.0000

> <Gold.Chemscore.DEInternal>
0.0927

> <Gold.Chemscore.Rot>
3.1230

> <Gold.Chemscore.Internal.Correction>
   9.000000E+99

> <Gold.Chemscore.Hbonds>
donor molecule, donor type, donor heavy atom, donor atom, acceptor molecule, acceptor atom, score
      L1  H     1    26       P1 10957  1.00
      L1  H    18    31       P1  7957  0.79
      P1  H  7989  7998       L1    16  0.88
      P1  H  8011  8017       L1    18  0.21

> <Gold.Chemscore.Hbond.Weighted>
-10.9989

> <Gold.Chemscore.Metal.Weighted>
-0.0000

> <Gold.Chemscore.Lipo.Weighted>
-3.3356

> <Gold.Chemscore.Internal_Hbond.Weighted>
0.0000

> <Gold.Chemscore.DEClash.Weighted>
0.0000

> <Gold.Chemscore.DEInternal.Weighted>
0.0927

> <Gold.Chemscore.Rot.Weighted>
7.9950

> <Gold.Chemscore.Internal.Correction.Weighted>
   9.000000E+99

> <Gold.Protein.RotatedTorsions>
[ 6907 6896 6895 6894 ] final   65.38 input  -60.11 | X-H torsion
[ 7974 7965 7964 7962 ] final  166.22 input  175.53 | X-H torsion
[ 8008 7997 7996 7995 ] final  150.04 input   59.86 | X-H torsion
[ 10167 10162 10161 10158 ] final   62.92 input  -65.29 | X-H torsion
[ 10718 10713 10712 10709 ] final  -21.61 input   66.30 | X-H torsion
[ 10763 10752 10751 10750 ] final  -73.77 input  -60.55 | X-H torsion
[ 11005 11000 10999 10996 ] final   84.34 input  -57.11 | X-H torsion

> <Gold.Protein.ActiveResidues>
 VAL166  LYS551  ARG553  GLY616  TRP617  ASP618  TYR619  PRO620  LYS621  CYS622 
 ASP623  PHE694  ASN695  SER759  ASP760  ASP761  ALA762  ILE779  LEU786  VAL792 
 PHE793  MET794  SER795  GLU796  ALA797  LYS798  CYS799  TRP800  GLU811  SER814 

> <Gold.Protein.RotatedAtoms>
  152.4403  134.5605  159.9892 H   0  0  0  0  0  0  0  0  0  0  0  0  # atno 6907 bound_to 6896
  151.5704  133.3385  159.2996 H   0  0  0  0  0  0  0  0  0  0  0  0  # atno 6908 bound_to 6896
  150.8308  134.7593  159.6915 H   0  0  0  0  0  0  0  0  0  0  0  0  # atno 6909 bound_to 6896
  144.7471  139.8584  143.6378 H   0  0  0  0  0  0  0  0  0  0  0  0  # atno 7974 bound_to 7965
  156.2732  140.2085  156.5953 H   0  0  0  0  0  0  0  0  0  0  0  0  # atno 8008 bound_to 7997
  154.6949  140.0526  157.0424 H   0  0  0  0  0  0  0  0  0  0  0  0  # atno 8009 bound_to 7997
  155.0814  140.3187  155.4603 H   0  0  0  0  0  0  0  0  0  0  0  0  # atno 8010 bound_to 7997
  140.1386  144.4575  150.6823 H   0  0  0  0  0  0  0  0  0  0  0  0  # atno 10167 bound_to 10162
  156.5158  130.4621  149.6623 H   0  0  0  0  0  0  0  0  0  0  0  0  # atno 10718 bound_to 10713
  154.4641  135.5886  153.6276 H   0  0  0  0  0  0  0  0  0  0  0  0  # atno 10763 bound_to 10752
  152.9826  135.6051  154.3449 H   0  0  0  0  0  0  0  0  0  0  0  0  # atno 10764 bound_to 10752
  154.3324  135.2842  155.2444 H   0  0  0  0  0  0  0  0  0  0  0  0  # atno 10765 bound_to 10752
  139.9003  134.8210  156.2432 H   0  0  0  0  0  0  0  0  0  0  0  0  # atno 11005 bound_to 11000
  146.1366  139.4413  143.0135 LP  0  0  0  0  0  0  0  0  0  0  0  0  # atno 17320 bound_to 7965
  145.7082  141.0114  143.1467 LP  0  0  0  0  0  0  0  0  0  0  0  0  # atno 17321 bound_to 7965
  140.6774  143.2311  151.5473 LP  0  0  0  0  0  0  0  0  0  0  0  0  # atno 17342 bound_to 10162
  139.5483  144.2462  152.1483 LP  0  0  0  0  0  0  0  0  0  0  0  0  # atno 17343 bound_to 10162
  156.3196  130.7273  151.2183 LP  0  0  0  0  0  0  0  0  0  0  0  0  # atno 17370 bound_to 10713
  157.7444  131.0459  150.4867 LP  0  0  0  0  0  0  0  0  0  0  0  0  # atno 17371 bound_to 10713
  141.0271  133.7009  156.1366 LP  0  0  0  0  0  0  0  0  0  0  0  0  # atno 17394 bound_to 11000
  140.7150  134.4420  157.5579 LP  0  0  0  0  0  0  0  0  0  0  0  0  # atno 17395 bound_to 11000

$$$$
