AV-unprocessed.smi:1099|AV-procd|sdf|4755|dock7
  -GOLD-   22720 3293D 1   1.00000     0.00000
 Structure written by MMmdl.
 41 43  0  0  0  0  0  0  0  0  1 V2000
  154.3651  142.5427  164.2032 C   0  0  0  0  0  0  0  0  0  0  0  0
  153.1983  143.0301  163.3378 C   0  0  0  0  0  0  0  0  0  0  0  0
  153.1406  142.3424  162.0148 C   0  0  0  0  0  0  0  0  0  0  0  0
  152.2036  142.5897  161.0952 N   0  0  0  0  0  0  0  0  0  0  0  0
  152.3867  141.8445  159.9259 C   0  0  0  0  0  0  0  0  0  0  0  0
  151.4209  141.9831  158.7887 C   0  0  0  0  0  0  0  0  0  0  0  0
  151.4148  140.7451  157.8765 C   0  0  0  0  0  0  0  0  0  0  0  0
  150.4521  140.8840  156.7897 N   0  0  0  0  0  0  0  0  0  0  0  0
  150.7403  140.7581  155.4850 C   0  0  0  0  0  0  0  0  0  0  0  0
  151.8707  140.4965  155.0726 O   0  0  0  0  0  0  0  0  0  0  0  0
  149.5697  140.9636  154.5069 C   0  0  2  0  0  0  0  0  0  0  0  0
  148.8775  142.3415  154.6547 C   0  0  0  0  0  0  0  0  0  0  0  0
  147.3997  141.9711  154.8892 C   0  0  1  0  0  0  0  0  0  0  0  0
  146.8073  141.3799  153.5956 C   0  0  0  0  0  0  0  0  0  0  0  0
  147.4737  139.9924  153.5202 C   0  0  0  0  0  0  0  0  0  0  0  0
  148.3891  139.9916  154.7597 C   0  0  2  0  0  0  0  0  0  0  0  0
  147.5176  140.7357  155.7709 C   0  0  0  0  0  0  0  0  0  0  0  0
  153.4907  141.0300  159.9707 C   0  0  0  0  0  0  0  0  0  0  0  0
  154.3436  141.1731  161.4827 S   0  0  0  0  0  0  0  0  0  0  0  0
  154.3797  143.0604  165.1626 H   0  0  0  0  0  0  0  0  0  0  0  0
  155.3219  142.7232  163.7121 H   0  0  0  0  0  0  0  0  0  0  0  0
  154.2867  141.4736  164.4026 H   0  0  0  0  0  0  0  0  0  0  0  0
  152.2550  142.8639  163.8586 H   0  0  0  0  0  0  0  0  0  0  0  0
  153.2793  144.1053  163.1740 H   0  0  0  0  0  0  0  0  0  0  0  0
  150.4154  142.1544  159.1750 H   0  0  0  0  0  0  0  0  0  0  0  0
  151.6695  142.8693  158.2035 H   0  0  0  0  0  0  0  0  0  0  0  0
  152.4120  140.5643  157.4715 H   0  0  0  0  0  0  0  0  0  0  0  0
  151.1489  139.8583  158.4528 H   0  0  0  0  0  0  0  0  0  0  0  0
  149.4991  141.0962  157.0477 H   0  0  0  0  0  0  0  0  0  0  0  0
  149.9420  140.8400  153.4883 H   0  0  0  0  0  0  0  0  0  0  0  0
  149.2634  142.9102  155.5023 H   0  0  0  0  0  0  0  0  0  0  0  0
  149.0053  142.9602  153.7657 H   0  0  0  0  0  0  0  0  0  0  0  0
  146.8068  142.7837  155.3103 H   0  0  0  0  0  0  0  0  0  0  0  0
  145.7239  141.2803  153.6720 H   0  0  0  0  0  0  0  0  0  0  0  0
  147.0264  141.9955  152.7223 H   0  0  0  0  0  0  0  0  0  0  0  0
  146.7237  139.2037  153.5933 H   0  0  0  0  0  0  0  0  0  0  0  0
  148.0243  139.8423  152.5909 H   0  0  0  0  0  0  0  0  0  0  0  0
  148.6933  138.9915  155.0722 H   0  0  0  0  0  0  0  0  0  0  0  0
  148.0039  140.9313  156.7268 H   0  0  0  0  0  0  0  0  0  0  0  0
  146.5601  140.2466  155.9587 H   0  0  0  0  0  0  0  0  0  0  0  0
  153.8537  140.3583  159.2069 H   0  0  0  0  0  0  0  0  0  0  0  0
  1  2  1  0  0  0  0
  1 20  1  0  0  0  0
  1 21  1  0  0  0  0
  1 22  1  0  0  0  0
  2  3  1  0  0  0  0
  2 23  1  0  0  0  0
  2 24  1  0  0  0  0
  3 19  1  0  0  0  0
  3  4  2  0  0  0  0
  4  5  1  0  0  0  0
  5  6  1  0  0  0  0
  5 18  2  0  0  0  0
  6  7  1  0  0  0  0
  6 25  1  0  0  0  0
  6 26  1  0  0  0  0
  7  8  1  0  0  0  0
  7 27  1  0  0  0  0
  7 28  1  0  0  0  0
  8  9  1  0  0  0  0
  8 29  1  0  0  0  0
  9 10  2  0  0  0  0
  9 11  1  0  0  0  0
 11 16  1  0  0  0  0
 11 12  1  0  0  0  0
 11 30  1  0  0  0  0
 12 13  1  0  0  0  0
 12 31  1  0  0  0  0
 12 32  1  0  0  0  0
 13 17  1  0  0  0  0
 13 14  1  0  0  0  0
 13 33  1  0  0  0  0
 14 15  1  0  0  0  0
 14 34  1  0  0  0  0
 14 35  1  0  0  0  0
 15 16  1  0  0  0  0
 15 36  1  0  0  0  0
 15 37  1  0  0  0  0
 16 17  1  0  0  0  0
 16 38  1  0  0  0  0
 17 39  1  0  0  0  0
 17 40  1  0  0  0  0
 18 19  1  0  0  0  0
 18 41  1  0  0  0  0
M  END
> <s_m_source_file>
AV-unprocessed.smi

> <i_m_source_file_index>
1099

> <i_lp_mmshare_version>
43012

> <i_f3d_flags>
0

> <s_epik_input>
W0NIM11bQ0gyXWMxbmMoW2NIXXMxKVtDSDJdW0NIMl1bTkhdQyg9TylbQ0BIXShbQ0gyXVtDQEBIXTIzKVtDQEBIXShbQ0gyXTMpW0NIMl1bQ0gyXTI=

> <s_epik_cmdline>
J2VwaWtfcHl0aG9uJywgJy1waCcsICc3LjAnLCAnLXRuJywgJzgnLCAnLW1hJywgJzIwMCcsICctbWV0YWxfYmluZGluZycsICctaW1hZScsICc8aW5maWxlLm1hZT4nLCAnLW9tYWUnLCAnPG91dGZpbGUubWFlPic=

> <r_epik_Ionization_Penalty>
0.00110131

> <r_epik_Ionization_Penalty_Charging>
0

> <r_epik_Ionization_Penalty_Neutral>
0.00110131

> <r_epik_State_Penalty>
0.00072257

> <r_epik_Charging_Adjusted_Penalty>
0.00072257

> <i_epik_Tot_Q>
0

> <i_epik_Tot_abs_Q>
0

> <r_epik_Metal_State_Penalty>
-0

> <b_epik_Metal_Only>
0

> <s_lp_Force_Field>
OPLS_2005

> <r_lp_Energy>
37.6271

> <b_lp_Chiralities_Consistent>
1

> <s_lp_Variant>
AV-unprocessed.smi:1099-1

> <Gold.Version>
5.8.1

> <Gold.Id.Protein>
6NUR|6NUR_protein|mol2

> <Gold.PLP.Fitness>
42.1053

> <Gold.PLP.PLP>
-40.4653

> <Gold.PLP.part.hbond>
-1.0000

> <Gold.PLP.part.metal>
0.0000

> <Gold.PLP.part.buried>
1.8824

> <Gold.PLP.part.nonpolar>
-39.5089

> <Gold.PLP.part.repulsive>
0.1146

> <Gold.PLP.ligand.clash>
0.0000

> <Gold.PLP.ligand.torsion>
0.3664

> <Gold.PLP.Chemscore.Hbond>
0.7752

> <Gold.PLP.Chemscore.CHOScore>
0.0000

> <Gold.PLP.Chemscore.Metal>
0.0000

> <Gold.Chemscore.Hbonds>
donor molecule, donor type, donor heavy atom, donor atom, acceptor molecule, acceptor atom, score
      P1  H  7989  7998       L1    10  0.68

> <Gold.PLP.Chemscore.Internal.Correction>
0.0471

> <Gold.Rescore>
     Score         DG    S(hbond)    S(metal)    S(lipo)     H(rot)  DE(clash)    DE(int)     intcor
     15.68     -16.51       0.47        0.00     111.88       1.42       0.28       0.56       ----

> <Gold.Chemscore.Fitness>
15.6834

> <Gold.Chemscore.DG>
-16.5144

> <Gold.Chemscore.ZeroCoef>
-5.4800

> <Gold.Chemscore.Hbond>
0.4703

> <Gold.Chemscore.Metal>
0.0000

> <Gold.Chemscore.Lipo>
111.8775

> <Gold.Chemscore.Internal_Hbond>
0.0000

> <Gold.Chemscore.DEClash>
0.2753

> <Gold.Chemscore.DEInternal>
0.5556

> <Gold.Chemscore.Rot>
1.4165

> <Gold.Chemscore.Internal.Correction>
   9.000000E+99

> <Gold.Chemscore.Hbonds>
donor molecule, donor type, donor heavy atom, donor atom, acceptor molecule, acceptor atom, score
      P1  H  7989  7998       L1    10  0.15

> <Gold.Chemscore.Hbond.Weighted>
-1.5709

> <Gold.Chemscore.Metal.Weighted>
-0.0000

> <Gold.Chemscore.Lipo.Weighted>
-13.0897

> <Gold.Chemscore.Internal_Hbond.Weighted>
0.0000

> <Gold.Chemscore.DEClash.Weighted>
0.2753

> <Gold.Chemscore.DEInternal.Weighted>
0.5556

> <Gold.Chemscore.Rot.Weighted>
3.6262

> <Gold.Chemscore.Internal.Correction.Weighted>
   9.000000E+99

> <Gold.Protein.RotatedTorsions>
[ 6907 6896 6895 6894 ] final  -10.28 input  -60.11 | X-H torsion
[ 7974 7965 7964 7962 ] final  158.32 input  175.53 | X-H torsion
[ 8008 7997 7996 7995 ] final   44.52 input   59.86 | X-H torsion
[ 10167 10162 10161 10158 ] final  -49.81 input  -65.29 | X-H torsion
[ 10718 10713 10712 10709 ] final  -19.99 input   66.30 | X-H torsion
[ 10763 10752 10751 10750 ] final   35.07 input  -60.55 | X-H torsion
[ 11005 11000 10999 10996 ] final -166.24 input  -57.11 | X-H torsion

> <Gold.Protein.ActiveResidues>
 VAL166  LYS551  ARG553  GLY616  TRP617  ASP618  TYR619  PRO620  LYS621  CYS622 
 ASP623  PHE694  ASN695  SER759  ASP760  ASP761  ALA762  ILE779  LEU786  VAL792 
 PHE793  MET794  SER795  GLU796  ALA797  LYS798  CYS799  TRP800  GLU811  SER814 

> <Gold.Protein.RotatedAtoms>
  151.4044  135.0976  159.9565 H   0  0  0  0  0  0  0  0  0  0  0  0  # atno 6907 bound_to 6896
  152.5040  133.8857  159.7379 H   0  0  0  0  0  0  0  0  0  0  0  0  # atno 6908 bound_to 6896
  150.9338  133.6679  159.2833 H   0  0  0  0  0  0  0  0  0  0  0  0  # atno 6909 bound_to 6896
  144.7852  139.7462  143.6243 H   0  0  0  0  0  0  0  0  0  0  0  0  # atno 7974 bound_to 7965
  155.3207  140.3396  155.4241 H   0  0  0  0  0  0  0  0  0  0  0  0  # atno 8008 bound_to 7997
  156.1910  140.1698  156.8129 H   0  0  0  0  0  0  0  0  0  0  0  0  # atno 8009 bound_to 7997
  154.5442  140.0718  156.8545 H   0  0  0  0  0  0  0  0  0  0  0  0  # atno 8010 bound_to 7997
  140.6667  143.2682  151.4269 H   0  0  0  0  0  0  0  0  0  0  0  0  # atno 10167 bound_to 10162
  156.5380  130.4671  149.6513 H   0  0  0  0  0  0  0  0  0  0  0  0  # atno 10718 bound_to 10713
  153.0135  135.6343  154.1769 H   0  0  0  0  0  0  0  0  0  0  0  0  # atno 10763 bound_to 10752
  154.1509  135.2829  155.3137 H   0  0  0  0  0  0  0  0  0  0  0  0  # atno 10764 bound_to 10752
  154.6054  135.5574  153.7478 H   0  0  0  0  0  0  0  0  0  0  0  0  # atno 10765 bound_to 10752
  140.5666  134.5279  157.5154 H   0  0  0  0  0  0  0  0  0  0  0  0  # atno 11005 bound_to 11000
  146.2081  139.5419  142.9699 LP  0  0  0  0  0  0  0  0  0  0  0  0  # atno 17320 bound_to 7965
  145.5940  141.0365  143.2055 LP  0  0  0  0  0  0  0  0  0  0  0  0  # atno 17321 bound_to 7965
  139.5919  144.1480  152.2098 LP  0  0  0  0  0  0  0  0  0  0  0  0  # atno 17342 bound_to 10162
  140.0838  144.5679  150.7103 LP  0  0  0  0  0  0  0  0  0  0  0  0  # atno 17343 bound_to 10162
  156.2998  130.7170  151.2039 LP  0  0  0  0  0  0  0  0  0  0  0  0  # atno 17370 bound_to 10713
  157.7410  131.0509  150.5125 LP  0  0  0  0  0  0  0  0  0  0  0  0  # atno 17371 bound_to 10713
  139.9382  134.7836  156.0748 LP  0  0  0  0  0  0  0  0  0  0  0  0  # atno 17394 bound_to 11000
  141.1082  133.6652  156.2914 LP  0  0  0  0  0  0  0  0  0  0  0  0  # atno 17395 bound_to 11000

$$$$
