AV-unprocessed.smi:1930|AV-procd|sdf|7809|dock6
  -GOLD-   22720 9553D 1   1.00000     0.00000
 Structure written by MMmdl.
 41 42  0  0  0  0  0  0  0  0  1 V2000
  154.8468  134.9582  164.7935 C   0  0  0  0  0  0  0  0  0  0  0  0
  155.9516  134.6229  163.3617 S   0  0  0  0  0  0  0  0  0  0  0  0
  157.3110  134.3898  163.8731 O   0  0  0  0  0  0  0  0  0  0  0  0
  155.3088  133.6097  162.5109 O   0  0  0  0  0  0  0  0  0  0  0  0
  155.9606  136.1261  162.4871 N   0  0  0  0  0  0  0  0  0  0  0  0
  155.3347  137.3221  163.0966 C   0  0  0  0  0  0  0  0  0  0  0  0
  153.9748  137.6436  162.4472 C   0  0  0  0  0  0  0  0  0  0  0  0
  154.1614  137.7632  160.9951 N   0  0  0  0  0  0  0  0  0  0  0  0
  154.1940  138.9115  160.2738 C   0  0  0  0  0  0  0  0  0  0  0  0
  154.2872  138.9345  159.0458 O   0  0  0  0  0  0  0  0  0  0  0  0
  154.0875  140.0350  161.0013 N   0  0  0  0  0  0  0  0  0  0  0  0
  154.1014  141.3823  160.4500 C   0  0  0  0  0  0  0  0  0  0  0  0
  152.8613  142.1623  160.9057 C   0  0  0  0  0  0  0  0  0  0  0  0
  152.1819  142.8787  159.7555 C   0  0  0  0  0  0  0  0  0  0  0  0
  151.9566  144.2698  159.8029 C   0  0  0  0  0  0  0  0  0  0  0  0
  151.3237  144.8923  158.7098 C   0  0  0  0  0  0  0  0  0  0  0  0
  150.9427  144.0948  157.6125 C   0  0  0  0  0  0  0  0  0  0  0  0
  151.1545  142.7623  157.5552 N   0  0  0  0  0  0  0  0  0  0  0  0
  151.7622  142.1731  158.6077 C   0  0  0  0  0  0  0  0  0  0  0  0
  154.5722  136.4733  160.4371 C   0  0  0  0  0  0  0  0  0  0  0  0
  155.9554  136.1012  161.0062 C   0  0  0  0  0  0  0  0  0  0  0  0
  154.7767  134.0610  165.4079 H   0  0  0  0  0  0  0  0  0  0  0  0
  153.8525  135.2240  164.4380 H   0  0  0  0  0  0  0  0  0  0  0  0
  155.2561  135.7690  165.3941 H   0  0  0  0  0  0  0  0  0  0  0  0
  155.2174  137.1854  164.1713 H   0  0  0  0  0  0  0  0  0  0  0  0
  156.0108  138.1678  162.9661 H   0  0  0  0  0  0  0  0  0  0  0  0
  153.2583  136.8482  162.6519 H   0  0  0  0  0  0  0  0  0  0  0  0
  153.5491  138.5333  162.9107 H   0  0  0  0  0  0  0  0  0  0  0  0
  154.0009  139.9484  162.0032 H   0  0  0  0  0  0  0  0  0  0  0  0
  155.0078  141.8953  160.7763 H   0  0  0  0  0  0  0  0  0  0  0  0
  154.1334  141.3288  159.3604 H   0  0  0  0  0  0  0  0  0  0  0  0
  152.1458  141.4867  161.3770 H   0  0  0  0  0  0  0  0  0  0  0  0
  153.1377  142.8966  161.6640 H   0  0  0  0  0  0  0  0  0  0  0  0
  152.2636  144.8507  160.6602 H   0  0  0  0  0  0  0  0  0  0  0  0
  151.1349  145.9556  158.7122 H   0  0  0  0  0  0  0  0  0  0  0  0
  150.4549  144.5393  156.7577 H   0  0  0  0  0  0  0  0  0  0  0  0
  151.9182  141.1071  158.5303 H   0  0  0  0  0  0  0  0  0  0  0  0
  153.8337  135.7139  160.6944 H   0  0  0  0  0  0  0  0  0  0  0  0
  154.6104  136.4823  159.3470 H   0  0  0  0  0  0  0  0  0  0  0  0
  156.7007  136.8126  160.6483 H   0  0  0  0  0  0  0  0  0  0  0  0
  156.2638  135.1225  160.6399 H   0  0  0  0  0  0  0  0  0  0  0  0
  1  2  1  0  0  0  0
  1 22  1  0  0  0  0
  1 23  1  0  0  0  0
  1 24  1  0  0  0  0
  2  3  2  0  0  0  0
  2  4  2  0  0  0  0
  2  5  1  0  0  0  0
  5 21  1  0  0  0  0
  5  6  1  0  0  0  0
  6  7  1  0  0  0  0
  6 25  1  0  0  0  0
  6 26  1  0  0  0  0
  7  8  1  0  0  0  0
  7 27  1  0  0  0  0
  7 28  1  0  0  0  0
  8  9  1  0  0  0  0
  8 20  1  0  0  0  0
  9 10  2  0  0  0  0
  9 11  1  0  0  0  0
 11 12  1  0  0  0  0
 11 29  1  0  0  0  0
 12 13  1  0  0  0  0
 12 30  1  0  0  0  0
 12 31  1  0  0  0  0
 13 14  1  0  0  0  0
 13 32  1  0  0  0  0
 13 33  1  0  0  0  0
 14 19  1  0  0  0  0
 14 15  2  0  0  0  0
 15 16  1  0  0  0  0
 15 34  1  0  0  0  0
 16 17  2  0  0  0  0
 16 35  1  0  0  0  0
 17 18  1  0  0  0  0
 17 36  1  0  0  0  0
 18 19  2  0  0  0  0
 19 37  1  0  0  0  0
 20 21  1  0  0  0  0
 20 38  1  0  0  0  0
 20 39  1  0  0  0  0
 21 40  1  0  0  0  0
 21 41  1  0  0  0  0
M  END
> <s_m_source_file>
AV-unprocessed.smi

> <i_m_source_file_index>
1930

> <i_lp_mmshare_version>
43012

> <i_f3d_flags>
0

> <s_epik_input>
W0NIM11TKD1PKSg9TylOMVtDSDJdW0NIMl1OKFtDSDJdW0NIMl0xKUMoPU8pW05IXVtDSDJdW0NIMl1jMltjSF1bY0hdW2NIXW5bY0hdMg==

> <s_epik_cmdline>
J2VwaWtfcHl0aG9uJywgJy1waCcsICc3LjAnLCAnLXRuJywgJzgnLCAnLW1hJywgJzIwMCcsICctbWV0YWxfYmluZGluZycsICctaW1hZScsICc8aW5maWxlLm1hZT4nLCAnLW9tYWUnLCAnPG91dGZpbGUubWFlPic=

> <r_epik_Ionization_Penalty>
0.0143741

> <r_epik_Ionization_Penalty_Charging>
0

> <r_epik_Ionization_Penalty_Neutral>
0.0143741

> <r_epik_State_Penalty>
0.0112033

> <r_epik_Charging_Adjusted_Penalty>
0.0112033

> <i_epik_Tot_Q>
0

> <i_epik_Tot_abs_Q>
0

> <r_epik_Metal_State_Penalty>
0.0109376

> <b_epik_Metal_Only>
0

> <s_lp_Force_Field>
OPLS_2005

> <r_lp_Energy>
24.8651

> <b_lp_Chiralities_Consistent>
1

> <s_lp_Variant>
AV-unprocessed.smi:1930-1

> <Gold.Version>
5.8.1

> <Gold.Id.Protein>
6NUR|6NUR_protein|mol2

> <Gold.PLP.Fitness>
46.0230

> <Gold.PLP.PLP>
-41.1478

> <Gold.PLP.part.hbond>
-0.9855

> <Gold.PLP.part.metal>
0.0000

> <Gold.PLP.part.buried>
-5.5197

> <Gold.PLP.part.nonpolar>
-34.7822

> <Gold.PLP.part.repulsive>
0.1204

> <Gold.PLP.ligand.clash>
0.0000

> <Gold.PLP.ligand.torsion>
1.6176

> <Gold.PLP.Chemscore.Hbond>
1.0000

> <Gold.PLP.Chemscore.CHOScore>
1.0000

> <Gold.PLP.Chemscore.Metal>
0.0000

> <Gold.Chemscore.Hbonds>
donor molecule, donor type, donor heavy atom, donor atom, acceptor molecule, acceptor atom, score
      P1  H  7997  8008       L1    10  0.65
      L1  C    17    36       P1  8028  0.65

> <Gold.PLP.Chemscore.Internal.Correction>
2.1103

> <Gold.Rescore>
     Score         DG    S(hbond)    S(metal)    S(lipo)     H(rot)  DE(clash)    DE(int)     intcor
     16.54     -18.13       0.98        0.00     110.77       1.40       0.04       1.56       ----

> <Gold.Chemscore.Fitness>
16.5363

> <Gold.Chemscore.DG>
-18.1270

> <Gold.Chemscore.ZeroCoef>
-5.4800

> <Gold.Chemscore.Hbond>
0.9822

> <Gold.Chemscore.Metal>
0.0000

> <Gold.Chemscore.Lipo>
110.7693

> <Gold.Chemscore.Internal_Hbond>
0.0000

> <Gold.Chemscore.DEClash>
0.0351

> <Gold.Chemscore.DEInternal>
1.5556

> <Gold.Chemscore.Rot>
1.4037

> <Gold.Chemscore.Internal.Correction>
   9.000000E+99

> <Gold.Chemscore.Hbonds>
donor molecule, donor type, donor heavy atom, donor atom, acceptor molecule, acceptor atom, score
      P1  H  7997  8008       L1    10  0.65

> <Gold.Chemscore.Hbond.Weighted>
-3.2805

> <Gold.Chemscore.Metal.Weighted>
-0.0000

> <Gold.Chemscore.Lipo.Weighted>
-12.9600

> <Gold.Chemscore.Internal_Hbond.Weighted>
0.0000

> <Gold.Chemscore.DEClash.Weighted>
0.0351

> <Gold.Chemscore.DEInternal.Weighted>
1.5556

> <Gold.Chemscore.Rot.Weighted>
3.5935

> <Gold.Chemscore.Internal.Correction.Weighted>
   9.000000E+99

> <Gold.Protein.RotatedTorsions>
[ 6907 6896 6895 6894 ] final   59.56 input  -60.11 | X-H torsion
[ 7974 7965 7964 7962 ] final -171.90 input  175.53 | X-H torsion
[ 8008 7997 7996 7995 ] final -115.96 input   59.86 | X-H torsion
[ 10167 10162 10161 10158 ] final -102.36 input  -65.29 | X-H torsion
[ 10718 10713 10712 10709 ] final  144.37 input   66.30 | X-H torsion
[ 10763 10752 10751 10750 ] final    5.62 input  -60.55 | X-H torsion
[ 11005 11000 10999 10996 ] final  -14.96 input  -57.11 | X-H torsion

> <Gold.Protein.ActiveResidues>
 VAL166  LYS551  ARG553  GLY616  TRP617  ASP618  TYR619  PRO620  LYS621  CYS622 
 ASP623  PHE694  ASN695  SER759  ASP760  ASP761  ALA762  ILE779  LEU786  VAL792 
 PHE793  MET794  SER795  GLU796  ALA797  LYS798  CYS799  TRP800  GLU811  SER814 

> <Gold.Protein.RotatedAtoms>
  152.3925  134.6418  160.0101 H   0  0  0  0  0  0  0  0  0  0  0  0  # atno 6907 bound_to 6896
  151.6647  133.3310  159.3190 H   0  0  0  0  0  0  0  0  0  0  0  0  # atno 6908 bound_to 6896
  150.7839  134.6850  159.6510 H   0  0  0  0  0  0  0  0  0  0  0  0  # atno 6909 bound_to 6896
  144.7152  140.1853  143.6354 H   0  0  0  0  0  0  0  0  0  0  0  0  # atno 7974 bound_to 7965
  155.0603  140.0393  157.2574 H   0  0  0  0  0  0  0  0  0  0  0  0  # atno 8008 bound_to 7997
  154.7065  140.2684  155.6645 H   0  0  0  0  0  0  0  0  0  0  0  0  # atno 8009 bound_to 7997
  156.2776  140.2730  156.1693 H   0  0  0  0  0  0  0  0  0  0  0  0  # atno 8010 bound_to 7997
  140.2315  143.3603  152.0882 H   0  0  0  0  0  0  0  0  0  0  0  0  # atno 10167 bound_to 10162
  157.3580  131.0961  151.0941 H   0  0  0  0  0  0  0  0  0  0  0  0  # atno 10718 bound_to 10713
  153.2573  135.6919  153.7616 H   0  0  0  0  0  0  0  0  0  0  0  0  # atno 10763 bound_to 10752
  153.6688  135.3348  155.3148 H   0  0  0  0  0  0  0  0  0  0  0  0  # atno 10764 bound_to 10752
  154.8417  135.4495  154.1550 H   0  0  0  0  0  0  0  0  0  0  0  0  # atno 10765 bound_to 10752
  140.7918  133.8282  155.9386 H   0  0  0  0  0  0  0  0  0  0  0  0  # atno 11005 bound_to 11000
  145.8818  139.2327  143.1601 LP  0  0  0  0  0  0  0  0  0  0  0  0  # atno 17320 bound_to 7965
  145.9987  140.8539  143.0029 LP  0  0  0  0  0  0  0  0  0  0  0  0  # atno 17321 bound_to 7965
  139.5108  144.6890  151.5810 LP  0  0  0  0  0  0  0  0  0  0  0  0  # atno 17342 bound_to 10162
  140.6181  143.9310  150.6504 LP  0  0  0  0  0  0  0  0  0  0  0  0  # atno 17343 bound_to 10162
  157.2091  130.6430  149.5767 LP  0  0  0  0  0  0  0  0  0  0  0  0  # atno 17370 bound_to 10713
  155.9732  130.4666  150.6294 LP  0  0  0  0  0  0  0  0  0  0  0  0  # atno 17371 bound_to 10713
  140.9382  134.1935  157.4816 LP  0  0  0  0  0  0  0  0  0  0  0  0  # atno 17394 bound_to 11000
  139.8730  134.9861  156.5310 LP  0  0  0  0  0  0  0  0  0  0  0  0  # atno 17395 bound_to 11000

$$$$
