AV-unprocessed.smi:1800|AV-procd|sdf|7264|dock2
  -GOLD-   22720 8513D 1   1.00000     0.00000
 Structure written by MMmdl.
 36 37  0  0  0  0  0  0  0  0  1 V2000
  150.8746  140.7308  158.3511 C   0  0  0  0  0  0  0  0  0  0  0  0
  152.2480  141.1716  157.8207 C   0  0  1  0  0  0  0  0  0  0  0  0
  153.2147  141.6495  158.9228 C   0  0  0  0  0  0  0  0  0  0  0  0
  152.7367  142.8373  159.6068 N   0  0  0  0  0  0  0  0  0  0  0  0
  152.4190  144.0643  159.0637 C   0  0  0  0  0  0  0  0  0  0  0  0
  152.0121  144.8694  160.0887 C   0  0  0  0  0  0  0  0  0  0  0  0
  152.1186  144.0348  161.2362 C   0  0  0  0  0  0  0  0  0  0  0  0
  152.5540  142.8197  160.9451 N   0  0  0  0  0  0  0  0  0  0  0  0
  152.8567  140.0629  157.0830 N   0  0  0  0  0  0  0  0  0  0  0  0
  152.1667  139.5968  155.5719 S   0  0  0  0  0  0  0  0  0  0  0  0
  151.1102  140.5724  155.2629 O   0  0  0  0  0  0  0  0  0  0  0  0
  153.2758  139.3919  154.6272 O   0  0  0  0  0  0  0  0  0  0  0  0
  151.3939  137.9633  155.9866 C   0  0  0  0  0  0  0  0  0  0  0  0
  152.4121  136.9058  156.4322 C   0  0  0  0  0  0  0  0  0  0  0  0
  151.7425  135.5798  156.0832 C   0  0  0  0  0  0  0  0  0  0  0  0
  151.0386  135.8577  154.7546 C   0  0  0  0  0  0  0  0  0  0  0  0
  150.6557  137.3446  154.7856 C   0  0  0  0  0  0  0  0  0  0  0  0
  150.3499  141.5555  158.8339 H   0  0  0  0  0  0  0  0  0  0  0  0
  150.9712  139.9255  159.0801 H   0  0  0  0  0  0  0  0  0  0  0  0
  150.2378  140.3735  157.5412 H   0  0  0  0  0  0  0  0  0  0  0  0
  152.0813  141.9930  157.1221 H   0  0  0  0  0  0  0  0  0  0  0  0
  153.3758  140.8575  159.6563 H   0  0  0  0  0  0  0  0  0  0  0  0
  154.1925  141.8800  158.4983 H   0  0  0  0  0  0  0  0  0  0  0  0
  152.5064  144.2582  158.0048 H   0  0  0  0  0  0  0  0  0  0  0  0
  151.6877  145.8976  160.0280 H   0  0  0  0  0  0  0  0  0  0  0  0
  151.8938  144.2746  162.2651 H   0  0  0  0  0  0  0  0  0  0  0  0
  152.9958  139.2534  157.6874 H   0  0  0  0  0  0  0  0  0  0  0  0
  150.6686  138.1287  156.7840 H   0  0  0  0  0  0  0  0  0  0  0  0
  153.3384  136.9867  155.8636 H   0  0  0  0  0  0  0  0  0  0  0  0
  152.6621  136.9868  157.4904 H   0  0  0  0  0  0  0  0  0  0  0  0
  152.4520  134.7544  156.0176 H   0  0  0  0  0  0  0  0  0  0  0  0
  151.0056  135.3275  156.8469 H   0  0  0  0  0  0  0  0  0  0  0  0
  151.7317  135.6779  153.9317 H   0  0  0  0  0  0  0  0  0  0  0  0
  150.1753  135.2091  154.6026 H   0  0  0  0  0  0  0  0  0  0  0  0
  149.5784  137.4720  154.8962 H   0  0  0  0  0  0  0  0  0  0  0  0
  150.9409  137.8155  153.8445 H   0  0  0  0  0  0  0  0  0  0  0  0
  1  2  1  0  0  0  0
  1 18  1  0  0  0  0
  1 19  1  0  0  0  0
  1 20  1  0  0  0  0
  2  3  1  0  0  0  0
  2  9  1  0  0  0  0
  2 21  1  0  0  0  0
  3  4  1  0  0  0  0
  3 22  1  0  0  0  0
  3 23  1  0  0  0  0
  4  8  1  0  0  0  0
  4  5  1  0  0  0  0
  5  6  2  0  0  0  0
  5 24  1  0  0  0  0
  6  7  1  0  0  0  0
  6 25  1  0  0  0  0
  7  8  2  0  0  0  0
  7 26  1  0  0  0  0
  9 10  1  0  0  0  0
  9 27  1  0  0  0  0
 10 11  2  0  0  0  0
 10 12  2  0  0  0  0
 10 13  1  0  0  0  0
 13 17  1  0  0  0  0
 13 14  1  0  0  0  0
 13 28  1  0  0  0  0
 14 15  1  0  0  0  0
 14 29  1  0  0  0  0
 14 30  1  0  0  0  0
 15 16  1  0  0  0  0
 15 31  1  0  0  0  0
 15 32  1  0  0  0  0
 16 17  1  0  0  0  0
 16 33  1  0  0  0  0
 16 34  1  0  0  0  0
 17 35  1  0  0  0  0
 17 36  1  0  0  0  0
M  END
> <s_m_source_file>
AV-unprocessed.smi

> <i_m_source_file_index>
1800

> <i_lp_mmshare_version>
43012

> <i_f3d_flags>
0

> <s_epik_input>
bjFbY0hdW2NIXVtjSF1uMVtDSDJdW0NAQEhdKFtDSDNdKVtOSF1TKD1PKSg9TylbQ0hdMltDSDJdW0NIMl1bQ0gyXVtDSDJdMg==

> <s_epik_cmdline>
J2VwaWtfcHl0aG9uJywgJy1waCcsICc3LjAnLCAnLXRuJywgJzgnLCAnLW1hJywgJzIwMCcsICctbWV0YWxfYmluZGluZycsICctaW1hZScsICc8aW5maWxlLm1hZT4nLCAnLW9tYWUnLCAnPG91dGZpbGUubWFlPic=

> <r_lp_tautomer_probability>
1

> <r_epik_Ionization_Penalty>
1.44925e-05

> <r_epik_Ionization_Penalty_Charging>
0

> <r_epik_Ionization_Penalty_Neutral>
1.44925e-05

> <r_epik_State_Penalty>
-0

> <r_epik_Charging_Adjusted_Penalty>
0

> <i_epik_Tot_Q>
0

> <i_epik_Tot_abs_Q>
0

> <r_epik_Metal_State_Penalty>
0.00862991

> <b_epik_Metal_Only>
0

> <s_lp_Force_Field>
OPLS_2005

> <r_lp_Energy>
17.3369

> <b_lp_Chiralities_Consistent>
1

> <s_lp_Variant>
AV-unprocessed.smi:1800-2

> <Gold.Version>
5.8.1

> <Gold.Id.Protein>
6NUR|6NUR_protein|mol2

> <Gold.PLP.Fitness>
42.2043

> <Gold.PLP.PLP>
-36.4074

> <Gold.PLP.part.hbond>
-3.1286

> <Gold.PLP.part.metal>
0.0000

> <Gold.PLP.part.buried>
-4.6280

> <Gold.PLP.part.nonpolar>
-27.7684

> <Gold.PLP.part.repulsive>
0.0961

> <Gold.PLP.ligand.clash>
0.0000

> <Gold.PLP.ligand.torsion>
0.3635

> <Gold.PLP.Chemscore.Hbond>
2.0903

> <Gold.PLP.Chemscore.CHOScore>
0.0000

> <Gold.PLP.Chemscore.Metal>
0.0000

> <Gold.Chemscore.Hbonds>
donor molecule, donor type, donor heavy atom, donor atom, acceptor molecule, acceptor atom, score
      P1  H  7989  7998       L1    11  0.73
      P1  H  7997  8008       L1    12  0.71
      P1  H  7997  8010       L1     9  0.02

> <Gold.PLP.Chemscore.Internal.Correction>
0.2531

> <Gold.Rescore>
     Score         DG    S(hbond)    S(metal)    S(lipo)     H(rot)  DE(clash)    DE(int)     intcor
     14.20     -14.84       1.29        0.00      81.57       1.76       0.10       0.55       ----

> <Gold.Chemscore.Fitness>
14.1956

> <Gold.Chemscore.DG>
-14.8449

> <Gold.Chemscore.ZeroCoef>
-5.4800

> <Gold.Chemscore.Hbond>
1.2944

> <Gold.Chemscore.Metal>
0.0000

> <Gold.Chemscore.Lipo>
81.5688

> <Gold.Chemscore.Internal_Hbond>
0.0000

> <Gold.Chemscore.DEClash>
0.1019

> <Gold.Chemscore.DEInternal>
0.5473

> <Gold.Chemscore.Rot>
1.7585

> <Gold.Chemscore.Internal.Correction>
   9.000000E+99

> <Gold.Chemscore.Hbonds>
donor molecule, donor type, donor heavy atom, donor atom, acceptor molecule, acceptor atom, score
      P1  H  7989  7998       L1    11  0.11
      P1  H  7997  8008       L1    12  0.38

> <Gold.Chemscore.Hbond.Weighted>
-4.3232

> <Gold.Chemscore.Metal.Weighted>
-0.0000

> <Gold.Chemscore.Lipo.Weighted>
-9.5436

> <Gold.Chemscore.Internal_Hbond.Weighted>
0.0000

> <Gold.Chemscore.DEClash.Weighted>
0.1019

> <Gold.Chemscore.DEInternal.Weighted>
0.5473

> <Gold.Chemscore.Rot.Weighted>
4.5019

> <Gold.Chemscore.Internal.Correction.Weighted>
   9.000000E+99

> <Gold.Protein.RotatedTorsions>
[ 6907 6896 6895 6894 ] final   40.17 input  -60.11 | X-H torsion
[ 7974 7965 7964 7962 ] final  -73.74 input  175.53 | X-H torsion
[ 8008 7997 7996 7995 ] final   23.58 input   59.86 | X-H torsion
[ 10167 10162 10161 10158 ] final   51.24 input  -65.29 | X-H torsion
[ 10718 10713 10712 10709 ] final -144.13 input   66.30 | X-H torsion
[ 10763 10752 10751 10750 ] final   74.76 input  -60.55 | X-H torsion
[ 11005 11000 10999 10996 ] final   38.71 input  -57.11 | X-H torsion

> <Gold.Protein.ActiveResidues>
 VAL166  LYS551  ARG553  GLY616  TRP617  ASP618  TYR619  PRO620  LYS621  CYS622 
 ASP623  PHE694  ASN695  SER759  ASP760  ASP761  ALA762  ILE779  LEU786  VAL792 
 PHE793  MET794  SER795  GLU796  ALA797  LYS798  CYS799  TRP800  GLU811  SER814 

> <Gold.Protein.RotatedAtoms>
  152.1790  134.8770  160.0527 H   0  0  0  0  0  0  0  0  0  0  0  0  # atno 6907 bound_to 6896
  151.9701  133.3718  159.4076 H   0  0  0  0  0  0  0  0  0  0  0  0  # atno 6908 bound_to 6896
  150.6914  134.4072  159.5189 H   0  0  0  0  0  0  0  0  0  0  0  0  # atno 6909 bound_to 6896
  145.6483  140.9290  143.0999 H   0  0  0  0  0  0  0  0  0  0  0  0  # atno 7974 bound_to 7965
  154.9832  140.3104  155.4937 H   0  0  0  0  0  0  0  0  0  0  0  0  # atno 8008 bound_to 7997
  156.2950  140.2263  156.4872 H   0  0  0  0  0  0  0  0  0  0  0  0  # atno 8009 bound_to 7997
  154.7770  140.0448  157.1085 H   0  0  0  0  0  0  0  0  0  0  0  0  # atno 8010 bound_to 7997
  140.2640  144.3341  150.6309 H   0  0  0  0  0  0  0  0  0  0  0  0  # atno 10167 bound_to 10162
  156.3664  130.7765  151.1940 H   0  0  0  0  0  0  0  0  0  0  0  0  # atno 10718 bound_to 10713
  153.0608  135.5014  154.8090 H   0  0  0  0  0  0  0  0  0  0  0  0  # atno 10763 bound_to 10752
  154.6880  135.2979  154.9522 H   0  0  0  0  0  0  0  0  0  0  0  0  # atno 10764 bound_to 10752
  154.0286  135.6732  153.4831 H   0  0  0  0  0  0  0  0  0  0  0  0  # atno 10765 bound_to 10752
  140.2100  134.3767  155.8054 H   0  0  0  0  0  0  0  0  0  0  0  0  # atno 11005 bound_to 11000
  144.7132  139.8293  143.7407 LP  0  0  0  0  0  0  0  0  0  0  0  0  # atno 17320 bound_to 7965
  146.1225  139.4245  143.0219 LP  0  0  0  0  0  0  0  0  0  0  0  0  # atno 17321 bound_to 7965
  140.5943  143.2167  151.7194 LP  0  0  0  0  0  0  0  0  0  0  0  0  # atno 17342 bound_to 10162
  139.5008  144.3891  152.0298 LP  0  0  0  0  0  0  0  0  0  0  0  0  # atno 17343 bound_to 10162
  157.7479  131.0385  150.4506 LP  0  0  0  0  0  0  0  0  0  0  0  0  # atno 17370 bound_to 10713
  156.4725  130.4056  149.6509 LP  0  0  0  0  0  0  0  0  0  0  0  0  # atno 17371 bound_to 10713
  141.2226  133.7138  156.8401 LP  0  0  0  0  0  0  0  0  0  0  0  0  # atno 17394 bound_to 11000
  140.1961  134.8930  157.3116 LP  0  0  0  0  0  0  0  0  0  0  0  0  # atno 17395 bound_to 11000

$$$$
