AV-unprocessed.smi:2149|AV-procd|sdf|8755|dock8
  -GOLD-   2272011533D 1   1.00000     0.00000
 Structure written by MMmdl.
 43 44  0  0  0  0  0  0  0  0  2 V2000
  151.5308  137.4020  155.3786 C   0  0  0  0  0  0  0  0  0  0  0  0
  151.7081  139.2162  155.6328 S   0  0  0  0  0  0  0  0  0  0  0  0
  151.7223  139.4617  157.0832 O   0  0  0  0  0  0  0  0  0  0  0  0
  152.8068  139.7159  154.7923 O   0  0  0  0  0  0  0  0  0  0  0  0
  150.2242  139.8540  154.9991 N   0  0  0  0  0  0  0  0  0  0  0  0
  149.9026  141.2615  155.3106 C   0  0  0  0  0  0  0  0  0  0  0  0
  148.8056  141.8083  154.3836 C   0  0  0  0  0  0  0  0  0  0  0  0
  147.5581  140.9215  154.4210 C   0  0  0  0  0  0  0  0  0  0  0  0
  147.9453  139.4839  154.0388 C   0  0  2  0  0  0  0  0  0  0  0  0
  146.7215  138.5584  154.0626 C   0  0  0  0  0  0  0  0  0  0  0  0
  145.6954  138.8984  154.6526 O   0  0  0  0  0  0  0  0  0  0  0  0
  146.8431  137.3858  153.4208 N   0  0  0  0  0  0  0  0  0  0  0  0
  145.8042  136.3660  153.3416 C   0  0  0  0  0  0  0  0  0  0  0  0
  145.1445  136.3389  151.9522 C   0  0  0  0  0  0  0  0  0  0  0  0
  145.3025  134.9960  151.2664 C   0  0  0  0  0  0  0  0  0  0  0  0
  144.2063  134.3006  150.7112 C   0  0  0  0  0  0  0  0  0  0  0  0
  144.4258  133.0536  150.0889 C   0  0  0  0  0  0  0  0  0  0  0  0
  145.7338  132.5286  150.0367 C   0  0  0  0  0  0  0  0  0  0  0  0
  146.7914  133.2647  150.6090 C   0  0  0  0  0  0  0  0  0  0  0  0
  146.5409  134.4562  151.1952 N   0  3  0  0  0  0  0  0  0  0  0  0
  149.0501  138.9569  154.9800 C   0  0  0  0  0  0  0  0  0  0  0  0
  152.3865  136.8935  155.8224 H   0  0  0  0  0  0  0  0  0  0  0  0
  151.4952  137.1731  154.3146 H   0  0  0  0  0  0  0  0  0  0  0  0
  150.6168  137.0545  155.8591 H   0  0  0  0  0  0  0  0  0  0  0  0
  149.5845  141.3285  156.3519 H   0  0  0  0  0  0  0  0  0  0  0  0
  150.7961  141.8766  155.2154 H   0  0  0  0  0  0  0  0  0  0  0  0
  148.5468  142.8261  154.6767 H   0  0  0  0  0  0  0  0  0  0  0  0
  149.1851  141.8680  153.3628 H   0  0  0  0  0  0  0  0  0  0  0  0
  147.1187  140.9492  155.4196 H   0  0  0  0  0  0  0  0  0  0  0  0
  146.8055  141.3109  153.7340 H   0  0  0  0  0  0  0  0  0  0  0  0
  148.3452  139.4974  153.0229 H   0  0  0  0  0  0  0  0  0  0  0  0
  147.7188  137.1860  152.9589 H   0  0  0  0  0  0  0  0  0  0  0  0
  146.2237  135.3891  153.5885 H   0  0  0  0  0  0  0  0  0  0  0  0
  145.0558  136.5838  154.1041 H   0  0  0  0  0  0  0  0  0  0  0  0
  144.0829  136.5740  152.0392 H   0  0  0  0  0  0  0  0  0  0  0  0
  145.5776  137.1084  151.3113 H   0  0  0  0  0  0  0  0  0  0  0  0
  143.2097  134.7152  150.7608 H   0  0  0  0  0  0  0  0  0  0  0  0
  143.6004  132.5067  149.6567 H   0  0  0  0  0  0  0  0  0  0  0  0
  145.9228  131.5752  149.5650 H   0  0  0  0  0  0  0  0  0  0  0  0
  147.8216  132.9396  150.6152 H   0  0  0  0  0  0  0  0  0  0  0  0
  149.3551  137.9638  154.6500 H   0  0  0  0  0  0  0  0  0  0  0  0
  148.6781  138.8491  156.0003 H   0  0  0  0  0  0  0  0  0  0  0  0
  147.3211  134.9730  151.6023 H   0  0  0  0  0  0  0  0  0  0  0  0
  1  2  1  0  0  0  0
  1 22  1  0  0  0  0
  1 23  1  0  0  0  0
  1 24  1  0  0  0  0
  2  3  2  0  0  0  0
  2  4  2  0  0  0  0
  2  5  1  0  0  0  0
  5 21  1  0  0  0  0
  5  6  1  0  0  0  0
  6  7  1  0  0  0  0
  6 25  1  0  0  0  0
  6 26  1  0  0  0  0
  7  8  1  0  0  0  0
  7 27  1  0  0  0  0
  7 28  1  0  0  0  0
  8  9  1  0  0  0  0
  8 29  1  0  0  0  0
  8 30  1  0  0  0  0
  9 10  1  0  0  0  0
  9 21  1  0  0  0  0
  9 31  1  0  0  0  0
 10 11  2  0  0  0  0
 10 12  1  0  0  0  0
 12 13  1  0  0  0  0
 12 32  1  0  0  0  0
 13 14  1  0  0  0  0
 13 33  1  0  0  0  0
 13 34  1  0  0  0  0
 14 15  1  0  0  0  0
 14 35  1  0  0  0  0
 14 36  1  0  0  0  0
 15 20  1  0  0  0  0
 15 16  2  0  0  0  0
 16 17  1  0  0  0  0
 16 37  1  0  0  0  0
 17 18  2  0  0  0  0
 17 38  1  0  0  0  0
 18 19  1  0  0  0  0
 18 39  1  0  0  0  0
 19 20  2  0  0  0  0
 19 40  1  0  0  0  0
 20 43  1  0  0  0  0
 21 41  1  0  0  0  0
 21 42  1  0  0  0  0
M  CHG  1  20   1
M  END
> <s_m_source_file>
AV-unprocessed.smi

> <i_m_source_file_index>
2149

> <i_lp_mmshare_version>
43012

> <i_f3d_flags>
0

> <s_epik_input>
W0NIM11TKD1PKSg9TylOMVtDSDJdW0NIMl1bQ0gyXVtDQEhdKFtDSDJdMSlDKD1PKVtOSF1bQ0gyXVtDSDJdYzJbY0hdW2NIXVtjSF1bY0hdbjI=

> <s_epik_cmdline>
J2VwaWtfcHl0aG9uJywgJy1waCcsICc3LjAnLCAnLXRuJywgJzgnLCAnLW1hJywgJzIwMCcsICctbWV0YWxfYmluZGluZycsICctaW1hZScsICc8aW5maWxlLm1hZT4nLCAnLW9tYWUnLCAnPG91dGZpbGUubWFlPic=

> <r_epik_Ionization_Penalty>
1.83523

> <r_epik_Ionization_Penalty_Charging>
1.83523

> <r_epik_Ionization_Penalty_Neutral>
2.62835e-08

> <r_epik_State_Penalty>
1.95153

> <r_epik_Charging_Adjusted_Penalty>
3.78676

> <i_epik_Tot_Q>
1

> <i_epik_Tot_abs_Q>
1

> <r_epik_Metal_State_Penalty>
1.97791

> <b_epik_Metal_Only>
0

> <s_lp_Force_Field>
OPLS_2005

> <r_lp_Energy>
9.7414

> <b_lp_Chiralities_Consistent>
1

> <s_lp_Variant>
AV-unprocessed.smi:2149-4

> <Gold.Version>
5.8.1

> <Gold.Id.Protein>
6NUR|6NUR_protein|mol2

> <Gold.PLP.Fitness>
43.8861

> <Gold.PLP.PLP>
-33.3259

> <Gold.PLP.part.hbond>
-4.1703

> <Gold.PLP.part.metal>
0.0000

> <Gold.PLP.part.buried>
-3.0503

> <Gold.PLP.part.nonpolar>
-27.0715

> <Gold.PLP.part.repulsive>
0.2652

> <Gold.PLP.ligand.clash>
0.0000

> <Gold.PLP.ligand.torsion>
1.6717

> <Gold.PLP.Chemscore.Hbond>
4.3833

> <Gold.PLP.Chemscore.CHOScore>
0.0000

> <Gold.PLP.Chemscore.Metal>
0.0000

> <Gold.Chemscore.Hbonds>
donor molecule, donor type, donor heavy atom, donor atom, acceptor molecule, acceptor atom, score
      L1  H    12    32       P1  7948  1.00
      L1  H    20    43       P1  7948  2.00
      P1  H  7989  7998       L1     4  0.41
      P1  H  7997  8008       L1     4  0.96

> <Gold.PLP.Chemscore.Internal.Correction>
0.7538

> <Gold.Rescore>
     Score         DG    S(hbond)    S(metal)    S(lipo)     H(rot)  DE(clash)    DE(int)     intcor
     17.56     -19.44       2.83        0.00      81.12       1.95       0.27       1.62       ----

> <Gold.Chemscore.Fitness>
17.5590

> <Gold.Chemscore.DG>
-19.4432

> <Gold.Chemscore.ZeroCoef>
-5.4800

> <Gold.Chemscore.Hbond>
2.8311

> <Gold.Chemscore.Metal>
0.0000

> <Gold.Chemscore.Lipo>
81.1159

> <Gold.Chemscore.Internal_Hbond>
0.0000

> <Gold.Chemscore.DEClash>
0.2661

> <Gold.Chemscore.DEInternal>
1.6181

> <Gold.Chemscore.Rot>
1.9466

> <Gold.Chemscore.Internal.Correction>
   9.000000E+99

> <Gold.Chemscore.Hbonds>
donor molecule, donor type, donor heavy atom, donor atom, acceptor molecule, acceptor atom, score
      L1  H    12    32       P1  7948  0.99
      L1  H    20    43       P1  7948  0.73
      P1  H  7989  7998       L1     4  0.09
      P1  H  7997  8008       L1     4  0.63

> <Gold.Chemscore.Hbond.Weighted>
-9.4559

> <Gold.Chemscore.Metal.Weighted>
-0.0000

> <Gold.Chemscore.Lipo.Weighted>
-9.4906

> <Gold.Chemscore.Internal_Hbond.Weighted>
0.0000

> <Gold.Chemscore.DEClash.Weighted>
0.2661

> <Gold.Chemscore.DEInternal.Weighted>
1.6181

> <Gold.Chemscore.Rot.Weighted>
4.9832

> <Gold.Chemscore.Internal.Correction.Weighted>
   9.000000E+99

> <Gold.Protein.RotatedTorsions>
[ 6907 6896 6895 6894 ] final  101.72 input  -60.11 | X-H torsion
[ 7974 7965 7964 7962 ] final   84.57 input  175.53 | X-H torsion
[ 8008 7997 7996 7995 ] final  -22.83 input   59.86 | X-H torsion
[ 10167 10162 10161 10158 ] final  -22.92 input  -65.29 | X-H torsion
[ 10718 10713 10712 10709 ] final  115.58 input   66.30 | X-H torsion
[ 10763 10752 10751 10750 ] final  177.01 input  -60.55 | X-H torsion
[ 11005 11000 10999 10996 ] final  134.27 input  -57.11 | X-H torsion

> <Gold.Protein.ActiveResidues>
 VAL166  LYS551  ARG553  GLY616  TRP617  ASP618  TYR619  PRO620  LYS621  CYS622 
 ASP623  PHE694  ASN695  SER759  ASP760  ASP761  ALA762  ILE779  LEU786  VAL792 
 PHE793  MET794  SER795  GLU796  ALA797  LYS798  CYS799  TRP800  GLU811  SER814 

> <Gold.Protein.RotatedAtoms>
  152.5342  134.0083  159.7926 H   0  0  0  0  0  0  0  0  0  0  0  0  # atno 6907 bound_to 6896
  151.0290  133.5800  159.2670 H   0  0  0  0  0  0  0  0  0  0  0  0  # atno 6908 bound_to 6896
  151.2811  135.0721  159.9223 H   0  0  0  0  0  0  0  0  0  0  0  0  # atno 6909 bound_to 6896
  145.5970  139.2346  143.2267 H   0  0  0  0  0  0  0  0  0  0  0  0  # atno 7974 bound_to 7965
  154.4621  140.1997  156.0218 H   0  0  0  0  0  0  0  0  0  0  0  0  # atno 8008 bound_to 7997
  156.0858  140.3265  155.7724 H   0  0  0  0  0  0  0  0  0  0  0  0  # atno 8009 bound_to 7997
  155.5037  140.0556  157.2926 H   0  0  0  0  0  0  0  0  0  0  0  0  # atno 8010 bound_to 7997
  140.7287  143.4490  151.0544 H   0  0  0  0  0  0  0  0  0  0  0  0  # atno 10167 bound_to 10162
  157.6213  131.1014  150.7350 H   0  0  0  0  0  0  0  0  0  0  0  0  # atno 10718 bound_to 10713
  154.4888  135.2778  155.1513 H   0  0  0  0  0  0  0  0  0  0  0  0  # atno 10763 bound_to 10752
  154.3193  135.6213  153.5504 H   0  0  0  0  0  0  0  0  0  0  0  0  # atno 10764 bound_to 10752
  152.9885  135.5738  154.5305 H   0  0  0  0  0  0  0  0  0  0  0  0  # atno 10765 bound_to 10752
  139.9904  134.9517  156.9843 H   0  0  0  0  0  0  0  0  0  0  0  0  # atno 11005 bound_to 11000
  146.1605  140.6795  142.9280 LP  0  0  0  0  0  0  0  0  0  0  0  0  # atno 17320 bound_to 7965
  144.7326  140.4717  143.6926 LP  0  0  0  0  0  0  0  0  0  0  0  0  # atno 17321 bound_to 7965
  139.8164  143.7880  152.3174 LP  0  0  0  0  0  0  0  0  0  0  0  0  # atno 17342 bound_to 10162
  139.7947  144.7397  150.9906 LP  0  0  0  0  0  0  0  0  0  0  0  0  # atno 17343 bound_to 10162
  156.7707  130.4828  149.5419 LP  0  0  0  0  0  0  0  0  0  0  0  0  # atno 17370 bound_to 10713
  156.1360  130.6211  151.0401 LP  0  0  0  0  0  0  0  0  0  0  0  0  # atno 17371 bound_to 10713
  140.4919  134.1184  155.7234 LP  0  0  0  0  0  0  0  0  0  0  0  0  # atno 17394 bound_to 11000
  141.1561  133.8880  157.1973 LP  0  0  0  0  0  0  0  0  0  0  0  0  # atno 17395 bound_to 11000

$$$$
