AV-unprocessed.smi:3038|AV-procd|sdf|11589|dock5
  -GOLD-   2272016563D 1   1.00000     0.00000
 Structure written by MMmdl.
 37 39  0  0  0  0  0  0  0  0  2 V2000
  145.1148  138.5215  154.1113 O   0  0  0  0  0  0  0  0  0  0  0  0
  146.1866  138.0848  153.6934 C   0  0  0  0  0  0  0  0  0  0  0  0
  147.4989  138.5387  154.3355 C   0  0  0  0  0  0  0  0  0  0  0  0
  147.7355  139.9533  154.1118 N   0  0  0  0  0  0  0  0  0  0  0  0
  146.9269  140.9201  153.6727 C   0  0  0  0  0  0  0  0  0  0  0  0
  147.5543  142.0840  153.5964 N   0  0  0  0  0  0  0  0  0  0  0  0
  148.8351  141.7805  154.0269 N   0  0  0  0  0  0  0  0  0  0  0  0
  148.9488  140.5178  154.3342 N   0  0  0  0  0  0  0  0  0  0  0  0
  146.2822  137.2022  152.6859 N   0  0  0  0  0  0  0  0  0  0  0  0
  145.1580  136.6548  151.9341 C   0  0  2  0  0  0  0  0  0  0  0  0
  144.2541  135.8061  152.8472 C   0  0  0  0  0  0  0  0  0  0  0  0
  143.1274  135.1294  152.0439 C   0  0  0  0  0  0  0  0  0  0  0  0
  143.6526  134.3222  150.9126 N   0  3  2  0  0  0  0  0  0  0  0  0
  144.2707  133.0447  151.3395 C   0  0  0  0  0  0  0  0  0  0  0  0
  145.2822  132.5030  150.3562 C   0  0  0  0  0  0  0  0  0  0  0  0
  143.9118  131.8714  150.4575 C   0  0  0  0  0  0  0  0  0  0  0  0
  144.5204  135.1227  150.0107 C   0  0  0  0  0  0  0  0  0  0  0  0
  145.6794  135.7973  150.7692 C   0  0  0  0  0  0  0  0  0  0  0  0
  147.4747  138.3550  155.4105 H   0  0  0  0  0  0  0  0  0  0  0  0
  148.3294  137.9610  153.9270 H   0  0  0  0  0  0  0  0  0  0  0  0
  145.8912  140.7715  153.4052 H   0  0  0  0  0  0  0  0  0  0  0  0
  147.2063  136.8985  152.4126 H   0  0  0  0  0  0  0  0  0  0  0  0
  144.5707  137.4746  151.5154 H   0  0  0  0  0  0  0  0  0  0  0  0
  144.8480  135.0489  153.3610 H   0  0  0  0  0  0  0  0  0  0  0  0
  143.8180  136.4310  153.6275 H   0  0  0  0  0  0  0  0  0  0  0  0
  142.5175  134.5041  152.6969 H   0  0  0  0  0  0  0  0  0  0  0  0
  142.4606  135.8927  151.6411 H   0  0  0  0  0  0  0  0  0  0  0  0
  144.4146  132.9011  152.4085 H   0  0  0  0  0  0  0  0  0  0  0  0
  145.4997  133.0871  149.4637 H   0  0  0  0  0  0  0  0  0  0  0  0
  146.1212  131.9388  150.7583 H   0  0  0  0  0  0  0  0  0  0  0  0
  143.8490  130.8914  150.9265 H   0  0  0  0  0  0  0  0  0  0  0  0
  143.2213  132.0369  149.6322 H   0  0  0  0  0  0  0  0  0  0  0  0
  144.9061  134.4926  149.2086 H   0  0  0  0  0  0  0  0  0  0  0  0
  143.9064  135.8867  149.5318 H   0  0  0  0  0  0  0  0  0  0  0  0
  146.2547  136.4171  150.0802 H   0  0  0  0  0  0  0  0  0  0  0  0
  146.3685  135.0383  151.1424 H   0  0  0  0  0  0  0  0  0  0  0  0
  142.8481  134.0559  150.3627 H   0  0  0  0  0  0  0  0  0  0  0  0
  1  2  2  0  0  0  0
  2  3  1  0  0  0  0
  2  9  1  0  0  0  0
  3  4  1  0  0  0  0
  3 19  1  0  0  0  0
  3 20  1  0  0  0  0
  4  8  1  0  0  0  0
  4  5  1  0  0  0  0
  5  6  2  0  0  0  0
  5 21  1  0  0  0  0
  6  7  1  0  0  0  0
  7  8  2  0  0  0  0
  9 10  1  0  0  0  0
  9 22  1  0  0  0  0
 10 18  1  0  0  0  0
 10 11  1  0  0  0  0
 10 23  1  0  0  0  0
 11 12  1  0  0  0  0
 11 24  1  0  0  0  0
 11 25  1  0  0  0  0
 12 13  1  0  0  0  0
 12 26  1  0  0  0  0
 12 27  1  0  0  0  0
 13 14  1  0  0  0  0
 13 17  1  0  0  0  0
 13 37  1  0  0  0  0
 14 16  1  0  0  0  0
 14 15  1  0  0  0  0
 14 28  1  0  0  0  0
 15 16  1  0  0  0  0
 15 29  1  0  0  0  0
 15 30  1  0  0  0  0
 16 31  1  0  0  0  0
 16 32  1  0  0  0  0
 17 18  1  0  0  0  0
 17 33  1  0  0  0  0
 17 34  1  0  0  0  0
 18 35  1  0  0  0  0
 18 36  1  0  0  0  0
M  CHG  1  13   1
M  END
> <s_m_source_file>
AV-unprocessed.smi

> <i_m_source_file_index>
3038

> <i_lp_mmshare_version>
43012

> <i_f3d_flags>
0

> <s_epik_input>
bjFubltjSF1uMVtDSDJdQyg9TylbTkhdW0NIXTJbQ0gyXVtDSDJdTihbQ0gyXVtDSDJdMilbQ0hdM1tDSDJdW0NIMl0z

> <s_epik_cmdline>
J2VwaWtfcHl0aG9uJywgJy1waCcsICc3LjAnLCAnLXRuJywgJzgnLCAnLW1hJywgJzIwMCcsICctbWV0YWxfYmluZGluZycsICctaW1hZScsICc8aW5maWxlLm1hZT4nLCAnLW9tYWUnLCAnPG91dGZpbGUubWFlPic=

> <r_lp_tautomer_probability>
1

> <r_epik_Ionization_Penalty>
0.284275

> <r_epik_Ionization_Penalty_Charging>
0.284273

> <r_epik_Ionization_Penalty_Neutral>
2.31262e-06

> <r_epik_State_Penalty>
0.277002

> <r_epik_Charging_Adjusted_Penalty>
0.561274

> <i_epik_Tot_Q>
1

> <i_epik_Tot_abs_Q>
1

> <r_epik_Metal_State_Penalty>
0.277002

> <b_epik_Metal_Only>
0

> <s_lp_Force_Field>
OPLS_2005

> <r_lp_Energy>
29.3434

> <b_lp_Chiralities_Consistent>
1

> <s_lp_Variant>
AV-unprocessed.smi:3038-2

> <Gold.Version>
5.8.1

> <Gold.Id.Protein>
6NUR|6NUR_protein|mol2

> <Gold.PLP.Fitness>
40.1176

> <Gold.PLP.PLP>
-27.5285

> <Gold.PLP.part.hbond>
-3.5674

> <Gold.PLP.part.metal>
0.0000

> <Gold.PLP.part.buried>
-4.6786

> <Gold.PLP.part.nonpolar>
-20.6623

> <Gold.PLP.part.repulsive>
0.6285

> <Gold.PLP.ligand.clash>
0.0029

> <Gold.PLP.ligand.torsion>
1.0846

> <Gold.PLP.Chemscore.Hbond>
3.4988

> <Gold.PLP.Chemscore.CHOScore>
0.9980

> <Gold.PLP.Chemscore.Metal>
0.0000

> <Gold.Chemscore.Hbonds>
donor molecule, donor type, donor heavy atom, donor atom, acceptor molecule, acceptor atom, score
      L1  H     9    22       P1  7948  1.00
      L1  H    13    37       P1 10186  1.95
      P1  H  8011  8017       L1     7  0.41
      L1  C     5    21       P1 10175  1.00

> <Gold.PLP.Chemscore.Internal.Correction>
1.2709

> <Gold.Rescore>
     Score         DG    S(hbond)    S(metal)    S(lipo)     H(rot)  DE(clash)    DE(int)     intcor
     10.78     -13.54       2.17        0.00      56.30       2.25       0.38       2.38       ----

> <Gold.Chemscore.Fitness>
10.7773

> <Gold.Chemscore.DG>
-13.5369

> <Gold.Chemscore.ZeroCoef>
-5.4800

> <Gold.Chemscore.Hbond>
2.1669

> <Gold.Chemscore.Metal>
0.0000

> <Gold.Chemscore.Lipo>
56.2956

> <Gold.Chemscore.Internal_Hbond>
0.0000

> <Gold.Chemscore.DEClash>
0.3788

> <Gold.Chemscore.DEInternal>
2.3808

> <Gold.Chemscore.Rot>
2.2528

> <Gold.Chemscore.Internal.Correction>
   9.000000E+99

> <Gold.Chemscore.Hbonds>
donor molecule, donor type, donor heavy atom, donor atom, acceptor molecule, acceptor atom, score
      L1  H     9    22       P1  7948  0.99
      L1  H    13    37       P1 10186  0.81
      P1  H  8011  8017       L1     7  0.06

> <Gold.Chemscore.Hbond.Weighted>
-7.2375

> <Gold.Chemscore.Metal.Weighted>
-0.0000

> <Gold.Chemscore.Lipo.Weighted>
-6.5866

> <Gold.Chemscore.Internal_Hbond.Weighted>
0.0000

> <Gold.Chemscore.DEClash.Weighted>
0.3788

> <Gold.Chemscore.DEInternal.Weighted>
2.3808

> <Gold.Chemscore.Rot.Weighted>
5.7672

> <Gold.Chemscore.Internal.Correction.Weighted>
   9.000000E+99

> <Gold.Protein.RotatedTorsions>
[ 6907 6896 6895 6894 ] final -120.66 input  -60.11 | X-H torsion
[ 7974 7965 7964 7962 ] final   76.19 input  175.53 | X-H torsion
[ 8008 7997 7996 7995 ] final -138.07 input   59.86 | X-H torsion
[ 10167 10162 10161 10158 ] final  116.30 input  -65.29 | X-H torsion
[ 10718 10713 10712 10709 ] final  142.34 input   66.30 | X-H torsion
[ 10763 10752 10751 10750 ] final  176.63 input  -60.55 | X-H torsion
[ 11005 11000 10999 10996 ] final  -48.39 input  -57.11 | X-H torsion

> <Gold.Protein.ActiveResidues>
 VAL166  LYS551  ARG553  GLY616  TRP617  ASP618  TYR619  PRO620  LYS621  CYS622 
 ASP623  PHE694  ASN695  SER759  ASP760  ASP761  ALA762  ILE779  LEU786  VAL792 
 PHE793  MET794  SER795  GLU796  ALA797  LYS798  CYS799  TRP800  GLU811  SER814 

> <Gold.Protein.RotatedAtoms>
  150.8413  133.7932  159.3059 H   0  0  0  0  0  0  0  0  0  0  0  0  # atno 6907 bound_to 6896
  151.5632  135.1063  159.9987 H   0  0  0  0  0  0  0  0  0  0  0  0  # atno 6908 bound_to 6896
  152.4476  133.7524  159.6757 H   0  0  0  0  0  0  0  0  0  0  0  0  # atno 6909 bound_to 6896
  145.7060  139.2598  143.1678 H   0  0  0  0  0  0  0  0  0  0  0  0  # atno 7974 bound_to 7965
  155.4222  140.0519  157.3025 H   0  0  0  0  0  0  0  0  0  0  0  0  # atno 8008 bound_to 7997
  154.4897  140.2115  155.9534 H   0  0  0  0  0  0  0  0  0  0  0  0  # atno 8009 bound_to 7997
  156.1325  140.3169  155.8376 H   0  0  0  0  0  0  0  0  0  0  0  0  # atno 8010 bound_to 7997
  139.6257  144.7108  151.2539 H   0  0  0  0  0  0  0  0  0  0  0  0  # atno 10167 bound_to 10162
  157.3817  131.0993  151.0732 H   0  0  0  0  0  0  0  0  0  0  0  0  # atno 10718 bound_to 10713
  154.4837  135.2776  155.1550 H   0  0  0  0  0  0  0  0  0  0  0  0  # atno 10763 bound_to 10752
  154.3250  135.6202  153.5529 H   0  0  0  0  0  0  0  0  0  0  0  0  # atno 10764 bound_to 10752
  152.9878  135.5752  154.5244 H   0  0  0  0  0  0  0  0  0  0  0  0  # atno 10765 bound_to 10752
  141.0698  133.6682  156.3434 H   0  0  0  0  0  0  0  0  0  0  0  0  # atno 11005 bound_to 11000
  146.0755  140.7822  142.9667 LP  0  0  0  0  0  0  0  0  0  0  0  0  # atno 17320 bound_to 7965
  144.6955  140.3408  143.7199 LP  0  0  0  0  0  0  0  0  0  0  0  0  # atno 17321 bound_to 7965
  140.7409  143.6573  150.8195 LP  0  0  0  0  0  0  0  0  0  0  0  0  # atno 17342 bound_to 10162
  140.0190  143.5562  152.2808 LP  0  0  0  0  0  0  0  0  0  0  0  0  # atno 17343 bound_to 10162
  157.1799  130.6305  149.5668 LP  0  0  0  0  0  0  0  0  0  0  0  0  # atno 17370 bound_to 10713
  155.9777  130.4757  150.6611 LP  0  0  0  0  0  0  0  0  0  0  0  0  # atno 17371 bound_to 10713
  140.5698  134.5852  157.5454 LP  0  0  0  0  0  0  0  0  0  0  0  0  # atno 17394 bound_to 11000
  139.9512  134.7614  156.0445 LP  0  0  0  0  0  0  0  0  0  0  0  0  # atno 17395 bound_to 11000

$$$$
