AV-unprocessed.smi:33|AV-procd|sdf|209|dock8
  -GOLD-   2262015503D 1   1.00000     0.00000
 Structure written by MMmdl.
 67 72  0  0  0  0  0  0  0  0  1 V2000
  152.8665  142.4672  162.4537 O   0  0  0  0  0  0  0  0  0  0  0  0
  152.9637  142.4101  161.2260 C   0  0  0  0  0  0  0  0  0  0  0  0
  153.7325  141.5124  160.5792 O   0  0  0  0  0  0  0  0  0  0  0  0
  154.4184  140.5076  161.3082 C   0  0  0  0  0  0  0  0  0  0  0  0
  154.9233  139.4287  160.3398 C   0  0  2  0  0  0  0  0  0  0  0  0
  154.1664  139.4737  159.1244 O   0  0  0  0  0  0  0  0  0  0  0  0
  153.3827  138.3250  158.9868 C   0  0  2  0  0  0  0  0  0  0  0  0
  152.0186  138.7143  158.5126 N   0  0  0  0  0  0  0  0  0  0  0  0
  151.6888  139.8385  157.7886 C   0  0  0  0  0  0  0  0  0  0  0  0
  150.4277  139.9554  157.4735 N   0  0  0  0  0  0  0  0  0  0  0  0
  149.8391  138.8275  158.0290 C   0  0  0  0  0  0  0  0  0  0  0  0
  148.5099  138.3259  158.0661 C   0  0  0  0  0  0  0  0  0  0  0  0
  147.4686  138.9630  157.4799 N   0  0  0  0  0  0  0  0  0  0  0  0
  147.4633  140.4332  157.5253 C   0  0  0  0  0  0  0  0  0  0  0  0
  148.0905  141.0156  158.4126 O   0  0  0  0  0  0  0  0  0  0  0  0
  146.6528  141.2261  156.5390 C   0  0  0  0  0  0  0  0  0  0  0  0
  146.7886  140.9802  155.1550 C   0  0  0  0  0  0  0  0  0  0  0  0
  146.0247  141.7115  154.2250 C   0  0  0  0  0  0  0  0  0  0  0  0
  145.1067  142.6802  154.6732 C   0  0  0  0  0  0  0  0  0  0  0  0
  144.9449  142.9100  156.0526 C   0  0  0  0  0  0  0  0  0  0  0  0
  145.7088  142.1794  156.9835 C   0  0  0  0  0  0  0  0  0  0  0  0
  146.4330  138.1217  156.8625 C   0  0  0  0  0  0  0  0  0  0  0  0
  145.2839  138.5536  156.7542 O   0  0  0  0  0  0  0  0  0  0  0  0
  146.7564  136.7274  156.4052 C   0  0  0  0  0  0  0  0  0  0  0  0
  145.7994  135.6977  156.5416 C   0  0  0  0  0  0  0  0  0  0  0  0
  146.0920  134.3931  156.0990 C   0  0  0  0  0  0  0  0  0  0  0  0
  147.3357  134.1136  155.5012 C   0  0  0  0  0  0  0  0  0  0  0  0
  148.2832  135.1418  155.3359 C   0  0  0  0  0  0  0  0  0  0  0  0
  147.9914  136.4465  155.7781 C   0  0  0  0  0  0  0  0  0  0  0  0
  148.2882  137.1532  158.7148 N   0  0  0  0  0  0  0  0  0  0  0  0
  149.3088  136.5117  159.2907 C   0  0  0  0  0  0  0  0  0  0  0  0
  150.5963  136.8608  159.3313 N   0  0  0  0  0  0  0  0  0  0  0  0
  150.8256  138.0387  158.6832 C   0  0  0  0  0  0  0  0  0  0  0  0
  153.3170  137.6742  160.3648 C   0  0  1  0  0  0  0  0  0  0  0  0
  153.1305  136.2734  160.3287 O   0  0  0  0  0  0  0  0  0  0  0  0
  154.7016  138.0169  160.8881 C   0  0  1  0  0  0  0  0  0  0  0  0
  155.6274  137.2199  160.3466 F   0  0  0  0  0  0  0  0  0  0  0  0
  152.2393  143.3280  160.3007 C   0  0  0  0  0  0  0  0  0  0  0  0
  151.4656  144.3832  160.8380 C   0  0  0  0  0  0  0  0  0  0  0  0
  150.7708  145.2672  159.9897 C   0  0  0  0  0  0  0  0  0  0  0  0
  150.8407  145.1063  158.5937 C   0  0  0  0  0  0  0  0  0  0  0  0
  151.6062  144.0599  158.0470 C   0  0  0  0  0  0  0  0  0  0  0  0
  152.3018  143.1747  158.8937 C   0  0  0  0  0  0  0  0  0  0  0  0
  155.2613  140.9688  161.8240 H   0  0  0  0  0  0  0  0  0  0  0  0
  153.7799  140.0658  162.0728 H   0  0  0  0  0  0  0  0  0  0  0  0
  155.9799  139.5991  160.1290 H   0  0  0  0  0  0  0  0  0  0  0  0
  153.7961  137.6790  158.2106 H   0  0  0  0  0  0  0  0  0  0  0  0
  152.4231  140.5735  157.4925 H   0  0  0  0  0  0  0  0  0  0  0  0
  147.4910  140.2401  154.7990 H   0  0  0  0  0  0  0  0  0  0  0  0
  146.1434  141.5289  153.1672 H   0  0  0  0  0  0  0  0  0  0  0  0
  144.5220  143.2419  153.9596 H   0  0  0  0  0  0  0  0  0  0  0  0
  144.2343  143.6463  156.3976 H   0  0  0  0  0  0  0  0  0  0  0  0
  145.5725  142.3613  158.0398 H   0  0  0  0  0  0  0  0  0  0  0  0
  144.8413  135.9009  156.9979 H   0  0  0  0  0  0  0  0  0  0  0  0
  145.3611  133.6069  156.2167 H   0  0  0  0  0  0  0  0  0  0  0  0
  147.5595  133.1129  155.1622 H   0  0  0  0  0  0  0  0  0  0  0  0
  149.2336  134.9306  154.8680 H   0  0  0  0  0  0  0  0  0  0  0  0
  148.7240  137.2288  155.6408 H   0  0  0  0  0  0  0  0  0  0  0  0
  149.0601  135.5859  159.7888 H   0  0  0  0  0  0  0  0  0  0  0  0
  152.5465  138.1562  160.9691 H   0  0  0  0  0  0  0  0  0  0  0  0
  153.9783  135.8601  160.2681 H   0  0  0  0  0  0  0  0  0  0  0  0
  154.7935  137.9414  161.9721 H   0  0  0  0  0  0  0  0  0  0  0  0
  151.3970  144.5271  161.9067 H   0  0  0  0  0  0  0  0  0  0  0  0
  150.1840  146.0698  160.4116 H   0  0  0  0  0  0  0  0  0  0  0  0
  150.3080  145.7844  157.9435 H   0  0  0  0  0  0  0  0  0  0  0  0
  151.6605  143.9351  156.9754 H   0  0  0  0  0  0  0  0  0  0  0  0
  152.8797  142.3822  158.4410 H   0  0  0  0  0  0  0  0  0  0  0  0
  1  2  2  0  0  0  0
  2  3  1  0  0  0  0
  2 38  1  0  0  0  0
  3  4  1  0  0  0  0
  4  5  1  0  0  0  0
  4 44  1  0  0  0  0
  4 45  1  0  0  0  0
  5 36  1  0  0  0  0
  5  6  1  0  0  0  0
  5 46  1  0  0  0  0
  6  7  1  0  0  0  0
  7  8  1  0  0  0  0
  7 34  1  0  0  0  0
  7 47  1  0  0  0  0
  8 33  1  0  0  0  0
  8  9  1  0  0  0  0
  9 10  2  0  0  0  0
  9 48  1  0  0  0  0
 10 11  1  0  0  0  0
 11 33  2  0  0  0  0
 11 12  1  0  0  0  0
 12 13  1  0  0  0  0
 12 30  2  0  0  0  0
 13 14  1  0  0  0  0
 13 22  1  0  0  0  0
 14 15  2  0  0  0  0
 14 16  1  0  0  0  0
 16 21  1  0  0  0  0
 16 17  2  0  0  0  0
 17 18  1  0  0  0  0
 17 49  1  0  0  0  0
 18 19  2  0  0  0  0
 18 50  1  0  0  0  0
 19 20  1  0  0  0  0
 19 51  1  0  0  0  0
 20 21  2  0  0  0  0
 20 52  1  0  0  0  0
 21 53  1  0  0  0  0
 22 23  2  0  0  0  0
 22 24  1  0  0  0  0
 24 29  1  0  0  0  0
 24 25  2  0  0  0  0
 25 26  1  0  0  0  0
 25 54  1  0  0  0  0
 26 27  2  0  0  0  0
 26 55  1  0  0  0  0
 27 28  1  0  0  0  0
 27 56  1  0  0  0  0
 28 29  2  0  0  0  0
 28 57  1  0  0  0  0
 29 58  1  0  0  0  0
 30 31  1  0  0  0  0
 31 32  2  0  0  0  0
 31 59  1  0  0  0  0
 32 33  1  0  0  0  0
 34 35  1  0  0  0  0
 34 36  1  0  0  0  0
 34 60  1  0  0  0  0
 35 61  1  0  0  0  0
 36 37  1  0  0  0  0
 36 62  1  0  0  0  0
 38 43  1  0  0  0  0
 38 39  2  0  0  0  0
 39 40  1  0  0  0  0
 39 63  1  0  0  0  0
 40 41  2  0  0  0  0
 40 64  1  0  0  0  0
 41 42  1  0  0  0  0
 41 65  1  0  0  0  0
 42 43  2  0  0  0  0
 42 66  1  0  0  0  0
 43 67  1  0  0  0  0
M  END
> <s_m_source_file>
AV-unprocessed.smi

> <i_m_source_file_index>
33

> <i_lp_mmshare_version>
43012

> <i_f3d_flags>
0

> <s_epik_input>
W2NIXTFbY0hdW2NIXVtjSF1bY0hdYzFDKD1PKU9bQ0gyXVtDQEBIXTJPW0NASF0oW0NAQEhdKFtPSF0pW0NAQEhdMkYpbihbY0hdbjMpYyhjMzQpbltjSF1uYzROKEMoPU8pYzVbY0hdW2NIXVtjSF1bY0hdW2NIXTUpQyg9TyljNltjSF1bY0hdW2NIXVtjSF1bY0hdNg==

> <s_epik_cmdline>
J2VwaWtfcHl0aG9uJywgJy1waCcsICc3LjAnLCAnLXRuJywgJzgnLCAnLW1hJywgJzIwMCcsICctbWV0YWxfYmluZGluZycsICctaW1hZScsICc8aW5maWxlLm1hZT4nLCAnLW9tYWUnLCAnPG91dGZpbGUubWFlPic=

> <r_lp_tautomer_probability>
1

> <r_epik_Ionization_Penalty>
0.00067664

> <r_epik_Ionization_Penalty_Charging>
0

> <r_epik_Ionization_Penalty_Neutral>
0.00067664

> <r_epik_State_Penalty>
0.000428095

> <r_epik_Charging_Adjusted_Penalty>
0.000428095

> <i_epik_Tot_Q>
0

> <i_epik_Tot_abs_Q>
0

> <r_epik_Metal_State_Penalty>
-0

> <b_epik_Metal_Only>
0

> <s_epik_Chemistry_Notes>
This compound has an ester and may undergo hydrolysis at high or low pH. This compound contains an acetal/aminal-like group ( X-CH(R)-Y where X, Y are N, S, or O) that may be acid/base labile, releasing an aldehyde.

> <s_lp_Force_Field>
OPLS_2005

> <r_lp_Energy>
71.9351

> <b_lp_Chiralities_Consistent>
1

> <s_lp_Variant>
AV-unprocessed.smi:33-11

> <Gold.Version>
5.8.1

> <Gold.Id.Protein>
6NUR|6NUR_protein|mol2

> <Gold.PLP.Fitness>
67.1303

> <Gold.PLP.PLP>
-64.2267

> <Gold.PLP.part.hbond>
-3.0687

> <Gold.PLP.part.metal>
0.0000

> <Gold.PLP.part.buried>
-10.9463

> <Gold.PLP.part.nonpolar>
-49.5822

> <Gold.PLP.part.repulsive>
0.1403

> <Gold.PLP.ligand.clash>
0.0000

> <Gold.PLP.ligand.torsion>
3.8264

> <Gold.PLP.Chemscore.Hbond>
2.0000

> <Gold.PLP.Chemscore.CHOScore>
0.0000

> <Gold.PLP.Chemscore.Metal>
0.0000

> <Gold.Chemscore.Hbonds>
donor molecule, donor type, donor heavy atom, donor atom, acceptor molecule, acceptor atom, score
      P1  H  6896  6909       L1    35  1.00
      P1  H  7997  8010       L1     6  0.89

> <Gold.PLP.Chemscore.Internal.Correction>
4.5564

> <Gold.Rescore>
     Score         DG    S(hbond)    S(metal)    S(lipo)     H(rot)  DE(clash)    DE(int)     intcor
      8.87     -19.95       1.57        0.00     133.96       2.52       0.60      10.47       ----

> <Gold.Chemscore.Fitness>
8.8719

> <Gold.Chemscore.DG>
-19.9475

> <Gold.Chemscore.ZeroCoef>
-5.4800

> <Gold.Chemscore.Hbond>
1.5739

> <Gold.Chemscore.Metal>
0.0000

> <Gold.Chemscore.Lipo>
133.9649

> <Gold.Chemscore.Internal_Hbond>
0.0000

> <Gold.Chemscore.DEClash>
0.6016

> <Gold.Chemscore.DEInternal>
10.4740

> <Gold.Chemscore.Rot>
2.5247

> <Gold.Chemscore.Internal.Correction>
   9.000000E+99

> <Gold.Chemscore.Hbonds>
donor molecule, donor type, donor heavy atom, donor atom, acceptor molecule, acceptor atom, score
      P1  H  6896  6909       L1    35  0.40
      P1  H  7997  8010       L1     6  0.66

> <Gold.Chemscore.Hbond.Weighted>
-5.2569

> <Gold.Chemscore.Metal.Weighted>
-0.0000

> <Gold.Chemscore.Lipo.Weighted>
-15.6739

> <Gold.Chemscore.Internal_Hbond.Weighted>
0.0000

> <Gold.Chemscore.DEClash.Weighted>
0.6016

> <Gold.Chemscore.DEInternal.Weighted>
10.4740

> <Gold.Chemscore.Rot.Weighted>
6.4633

> <Gold.Chemscore.Internal.Correction.Weighted>
   9.000000E+99

> <Gold.Protein.RotatedTorsions>
[ 6907 6896 6895 6894 ] final  150.29 input  -60.11 | X-H torsion
[ 7974 7965 7964 7962 ] final  174.74 input  175.53 | X-H torsion
[ 8008 7997 7996 7995 ] final    5.59 input   59.86 | X-H torsion
[ 10167 10162 10161 10158 ] final   97.91 input  -65.29 | X-H torsion
[ 10718 10713 10712 10709 ] final  -53.83 input   66.30 | X-H torsion
[ 10763 10752 10751 10750 ] final  126.20 input  -60.55 | X-H torsion
[ 11005 11000 10999 10996 ] final -177.91 input  -57.11 | X-H torsion

> <Gold.Protein.ActiveResidues>
 VAL166  LYS551  ARG553  GLY616  TRP617  ASP618  TYR619  PRO620  LYS621  CYS622 
 ASP623  PHE694  ASN695  SER759  ASP760  ASP761  ALA762  ILE779  LEU786  VAL792 
 PHE793  MET794  SER795  GLU796  ALA797  LYS798  CYS799  TRP800  GLU811  SER814 

> <Gold.Protein.RotatedAtoms>
  152.1165  133.4329  159.4654 H   0  0  0  0  0  0  0  0  0  0  0  0  # atno 6907 bound_to 6896
  150.6869  134.2586  159.4549 H   0  0  0  0  0  0  0  0  0  0  0  0  # atno 6908 bound_to 6896
  152.0459  134.9682  160.0625 H   0  0  0  0  0  0  0  0  0  0  0  0  # atno 6909 bound_to 6896
  144.7215  139.9843  143.6439 H   0  0  0  0  0  0  0  0  0  0  0  0  # atno 7974 bound_to 7965
  154.7303  140.2729  155.6462 H   0  0  0  0  0  0  0  0  0  0  0  0  # atno 8008 bound_to 7997
  156.2848  140.2717  156.1927 H   0  0  0  0  0  0  0  0  0  0  0  0  # atno 8009 bound_to 7997
  155.0390  140.0371  157.2492 H   0  0  0  0  0  0  0  0  0  0  0  0  # atno 8010 bound_to 7997
  139.7758  144.6906  151.0092 H   0  0  0  0  0  0  0  0  0  0  0  0  # atno 10167 bound_to 10162
  156.1501  130.4151  149.9958 H   0  0  0  0  0  0  0  0  0  0  0  0  # atno 10718 bound_to 10713
  153.6895  135.3301  155.3198 H   0  0  0  0  0  0  0  0  0  0  0  0  # atno 10763 bound_to 10752
  154.8444  135.4428  154.1523 H   0  0  0  0  0  0  0  0  0  0  0  0  # atno 10764 bound_to 10752
  153.2561  135.6986  153.7705 H   0  0  0  0  0  0  0  0  0  0  0  0  # atno 10765 bound_to 10752
  140.4357  134.6478  157.4733 H   0  0  0  0  0  0  0  0  0  0  0  0  # atno 11005 bound_to 11000
  146.0463  139.3468  143.0667 LP  0  0  0  0  0  0  0  0  0  0  0  0  # atno 17320 bound_to 7965
  145.8272  140.9649  143.0868 LP  0  0  0  0  0  0  0  0  0  0  0  0  # atno 17321 bound_to 7965
  140.7816  143.4538  151.0375 LP  0  0  0  0  0  0  0  0  0  0  0  0  # atno 17342 bound_to 10162
  139.8220  143.7807  152.3177 LP  0  0  0  0  0  0  0  0  0  0  0  0  # atno 17343 bound_to 10162
  156.7818  130.9224  151.3646 LP  0  0  0  0  0  0  0  0  0  0  0  0  # atno 17370 bound_to 10713
  157.6650  130.8999  149.9912 LP  0  0  0  0  0  0  0  0  0  0  0  0  # atno 17371 bound_to 10713
  140.0104  134.6699  155.9389 LP  0  0  0  0  0  0  0  0  0  0  0  0  # atno 17394 bound_to 11000
  141.1727  133.6538  156.4711 LP  0  0  0  0  0  0  0  0  0  0  0  0  # atno 17395 bound_to 11000

$$$$
