AV-unprocessed.smi:178|AV-procd|sdf|1445|dock6
  -GOLD-   2262019233D 1   1.00000     0.00000
 Structure written by MMmdl.
 50 52  0  0  0  0  0  0  0  0  1 V2000
  152.4502  143.6644  159.2181 C   0  0  0  0  0  0  0  0  0  0  0  0
  152.9559  142.5226  159.8924 O   0  0  0  0  0  0  0  0  0  0  0  0
  152.5013  141.2899  159.3532 C   0  0  0  0  0  0  0  0  0  0  0  0
  152.9826  140.0940  160.1986 C   0  0  0  0  0  0  0  0  0  0  0  0
  152.3535  138.8313  159.8001 N   0  0  0  0  0  0  0  0  0  0  0  0
  152.9636  137.5880  160.2711 C   0  0  0  0  0  0  0  0  0  0  0  0
  154.4018  137.3910  159.7635 C   0  0  0  0  0  0  0  0  0  0  0  0
  154.5141  136.5684  158.5486 C   0  0  0  0  0  0  0  0  0  0  0  0
  154.6057  135.9214  157.5936 N   0  0  0  0  0  0  0  0  0  0  0  0
  151.2743  138.8423  158.9588 C   0  0  0  0  0  0  0  0  0  0  0  0
  150.0646  138.4955  159.4775 N   0  0  0  0  0  0  0  0  0  0  0  0
  148.9623  138.4950  158.7260 C   0  0  0  0  0  0  0  0  0  0  0  0
  148.8360  138.8032  157.4372 N   0  0  0  0  0  0  0  0  0  0  0  0
  150.0374  139.1466  156.8929 C   0  0  0  0  0  0  0  0  0  0  0  0
  151.2928  139.1947  157.5708 C   0  0  0  0  0  0  0  0  0  0  0  0
  152.2714  139.6098  156.6732 N   0  0  0  0  0  0  0  0  0  0  0  0
  151.6400  139.7922  155.5480 C   0  0  0  0  0  0  0  0  0  0  0  0
  150.2926  139.5222  155.5835 N   0  0  0  0  0  0  0  0  0  0  0  0
  149.3348  139.6383  154.4897 C   0  0  0  0  0  0  0  0  0  0  0  0
  148.6527  141.0292  154.3794 C   0  0  1  0  0  0  0  0  0  0  0  0
  149.6611  142.0015  154.1590 O   0  0  0  0  0  0  0  0  0  0  0  0
  147.6461  141.1169  153.2450 C   0  0  0  0  0  0  0  0  0  0  0  0
  146.7827  142.3152  153.6345 C   0  0  0  0  0  0  0  0  0  0  0  0
  146.9245  142.4736  155.0448 O   0  0  0  0  0  0  0  0  0  0  0  0
  147.8146  141.4991  155.5870 C   0  0  1  0  0  0  0  0  0  0  0  0
  146.9054  140.4339  156.2286 C   0  0  0  0  0  0  0  0  0  0  0  0
  152.8754  144.5648  159.6610 H   0  0  0  0  0  0  0  0  0  0  0  0
  151.3658  143.7374  159.2979 H   0  0  0  0  0  0  0  0  0  0  0  0
  152.7226  143.6520  158.1622 H   0  0  0  0  0  0  0  0  0  0  0  0
  151.4161  141.2981  159.2434 H   0  0  0  0  0  0  0  0  0  0  0  0
  152.9073  141.2084  158.3454 H   0  0  0  0  0  0  0  0  0  0  0  0
  154.0633  140.0004  160.0886 H   0  0  0  0  0  0  0  0  0  0  0  0
  152.8168  140.2686  161.2613 H   0  0  0  0  0  0  0  0  0  0  0  0
  152.9901  137.6285  161.3604 H   0  0  0  0  0  0  0  0  0  0  0  0
  152.3484  136.7189  160.0547 H   0  0  0  0  0  0  0  0  0  0  0  0
  154.8671  138.3541  159.5549 H   0  0  0  0  0  0  0  0  0  0  0  0
  155.0038  136.9159  160.5380 H   0  0  0  0  0  0  0  0  0  0  0  0
  148.0515  138.2079  159.2304 H   0  0  0  0  0  0  0  0  0  0  0  0
  152.1533  140.1412  154.6664 H   0  0  0  0  0  0  0  0  0  0  0  0
  149.8696  139.4261  153.5629 H   0  0  0  0  0  0  0  0  0  0  0  0
  148.5956  138.8430  154.5864 H   0  0  0  0  0  0  0  0  0  0  0  0
  149.3040  142.8531  154.3604 H   0  0  0  0  0  0  0  0  0  0  0  0
  148.1057  141.2249  152.2618 H   0  0  0  0  0  0  0  0  0  0  0  0
  147.0303  140.2169  153.2213 H   0  0  0  0  0  0  0  0  0  0  0  0
  147.1385  143.2228  153.1460 H   0  0  0  0  0  0  0  0  0  0  0  0
  145.7380  142.1713  153.3580 H   0  0  0  0  0  0  0  0  0  0  0  0
  148.4394  141.9463  156.3615 H   0  0  0  0  0  0  0  0  0  0  0  0
  147.4730  139.6395  156.7052 H   0  0  0  0  0  0  0  0  0  0  0  0
  146.2425  139.9730  155.4966 H   0  0  0  0  0  0  0  0  0  0  0  0
  146.2776  140.8826  156.9985 H   0  0  0  0  0  0  0  0  0  0  0  0
  1  2  1  0  0  0  0
  1 27  1  0  0  0  0
  1 28  1  0  0  0  0
  1 29  1  0  0  0  0
  2  3  1  0  0  0  0
  3  4  1  0  0  0  0
  3 30  1  0  0  0  0
  3 31  1  0  0  0  0
  4  5  1  0  0  0  0
  4 32  1  0  0  0  0
  4 33  1  0  0  0  0
  5  6  1  0  0  0  0
  5 10  1  0  0  0  0
  6  7  1  0  0  0  0
  6 34  1  0  0  0  0
  6 35  1  0  0  0  0
  7  8  1  0  0  0  0
  7 36  1  0  0  0  0
  7 37  1  0  0  0  0
  8  9  3  0  0  0  0
 10 15  1  0  0  0  0
 10 11  2  0  0  0  0
 11 12  1  0  0  0  0
 12 13  2  0  0  0  0
 12 38  1  0  0  0  0
 13 14  1  0  0  0  0
 14 18  1  0  0  0  0
 14 15  2  0  0  0  0
 15 16  1  0  0  0  0
 16 17  2  0  0  0  0
 17 18  1  0  0  0  0
 17 39  1  0  0  0  0
 18 19  1  0  0  0  0
 19 20  1  0  0  0  0
 19 40  1  0  0  0  0
 19 41  1  0  0  0  0
 20 25  1  0  0  0  0
 20 21  1  0  0  0  0
 20 22  1  0  0  0  0
 21 42  1  0  0  0  0
 22 23  1  0  0  0  0
 22 43  1  0  0  0  0
 22 44  1  0  0  0  0
 23 24  1  0  0  0  0
 23 45  1  0  0  0  0
 23 46  1  0  0  0  0
 24 25  1  0  0  0  0
 25 26  1  0  0  0  0
 25 47  1  0  0  0  0
 26 48  1  0  0  0  0
 26 49  1  0  0  0  0
 26 50  1  0  0  0  0
M  END
> <s_m_source_file>
AV-unprocessed.smi

> <i_m_source_file_index>
178

> <i_lp_mmshare_version>
43012

> <i_f3d_flags>
0

> <s_epik_input>
W0NIM11PW0NIMl1bQ0gyXU4oW0NIMl1bQ0gyXUMjTiljKG5bY0hdbjEpYyhjMTIpbltjSF1uMltDSDJdW0NAQF0zKFtPSF0pW0NIMl1bQ0gyXU9bQ0BIXTNbQ0gzXQ==

> <s_epik_cmdline>
J2VwaWtfcHl0aG9uJywgJy1waCcsICc3LjAnLCAnLXRuJywgJzgnLCAnLW1hJywgJzIwMCcsICctbWV0YWxfYmluZGluZycsICctaW1hZScsICc8aW5maWxlLm1hZT4nLCAnLW9tYWUnLCAnPG91dGZpbGUubWFlPic=

> <r_lp_tautomer_probability>
1

> <r_epik_Ionization_Penalty>
0.000885317

> <r_epik_Ionization_Penalty_Charging>
0

> <r_epik_Ionization_Penalty_Neutral>
0.000885317

> <r_epik_State_Penalty>
0.00047273

> <r_epik_Charging_Adjusted_Penalty>
0.00047273

> <i_epik_Tot_Q>
0

> <i_epik_Tot_abs_Q>
0

> <r_epik_Metal_State_Penalty>
-0

> <b_epik_Metal_Only>
0

> <s_lp_Force_Field>
OPLS_2005

> <r_lp_Energy>
33.9655

> <b_lp_Chiralities_Consistent>
1

> <s_lp_Variant>
AV-unprocessed.smi:178-1

> <Gold.Version>
5.8.1

> <Gold.Id.Protein>
6NUR|6NUR_protein|mol2

> <Gold.PLP.Fitness>
43.7940

> <Gold.PLP.PLP>
-38.1120

> <Gold.PLP.part.hbond>
-5.6471

> <Gold.PLP.part.metal>
0.0000

> <Gold.PLP.part.buried>
-3.2211

> <Gold.PLP.part.nonpolar>
-28.4916

> <Gold.PLP.part.repulsive>
0.1535

> <Gold.PLP.ligand.clash>
0.0000

> <Gold.PLP.ligand.torsion>
2.1676

> <Gold.PLP.Chemscore.Hbond>
3.2253

> <Gold.PLP.Chemscore.CHOScore>
0.0000

> <Gold.PLP.Chemscore.Metal>
0.0000

> <Gold.Chemscore.Hbonds>
donor molecule, donor type, donor heavy atom, donor atom, acceptor molecule, acceptor atom, score
      L1  H    21    42       P1  8028  0.36
      P1  H  7989  7998       L1    21  0.02
      P1  H  7997  8010       L1    16  0.68
      P1  H  8011  8017       L1    21  0.19

> <Gold.PLP.Chemscore.Internal.Correction>
0.3415

> <Gold.Rescore>
     Score         DG    S(hbond)    S(metal)    S(lipo)     H(rot)  DE(clash)    DE(int)     intcor
     12.10     -14.87       2.94        0.00      70.13       3.37       0.09       2.69       ----

> <Gold.Chemscore.Fitness>
12.1007

> <Gold.Chemscore.DG>
-14.8722

> <Gold.Chemscore.ZeroCoef>
-5.4800

> <Gold.Chemscore.Hbond>
2.9409

> <Gold.Chemscore.Metal>
0.0000

> <Gold.Chemscore.Lipo>
70.1287

> <Gold.Chemscore.Internal_Hbond>
0.0000

> <Gold.Chemscore.DEClash>
0.0859

> <Gold.Chemscore.DEInternal>
2.6856

> <Gold.Chemscore.Rot>
3.3732

> <Gold.Chemscore.Internal.Correction>
   9.000000E+99

> <Gold.Chemscore.Hbonds>
donor molecule, donor type, donor heavy atom, donor atom, acceptor molecule, acceptor atom, score
      L1  H    21    42       P1  8028  0.35
      P1  H  7989  7998       L1    21  0.02
      P1  H  7997  8010       L1    16  0.62
      P1  H  8011  8017       L1    21  0.01
      P1  H 10752 10763       L1     9  0.01

> <Gold.Chemscore.Hbond.Weighted>
-9.8224

> <Gold.Chemscore.Metal.Weighted>
-0.0000

> <Gold.Chemscore.Lipo.Weighted>
-8.2051

> <Gold.Chemscore.Internal_Hbond.Weighted>
0.0000

> <Gold.Chemscore.DEClash.Weighted>
0.0859

> <Gold.Chemscore.DEInternal.Weighted>
2.6856

> <Gold.Chemscore.Rot.Weighted>
8.6354

> <Gold.Chemscore.Internal.Correction.Weighted>
   9.000000E+99

> <Gold.Protein.RotatedTorsions>
[ 6907 6896 6895 6894 ] final  112.27 input  -60.11 | X-H torsion
[ 7974 7965 7964 7962 ] final  108.07 input  175.53 | X-H torsion
[ 8008 7997 7996 7995 ] final   58.64 input   59.86 | X-H torsion
[ 10167 10162 10161 10158 ] final  -83.33 input  -65.29 | X-H torsion
[ 10718 10713 10712 10709 ] final  -87.54 input   66.30 | X-H torsion
[ 10763 10752 10751 10750 ] final -176.88 input  -60.55 | X-H torsion
[ 11005 11000 10999 10996 ] final -121.70 input  -57.11 | X-H torsion

> <Gold.Protein.ActiveResidues>
 VAL166  LYS551  ARG553  GLY616  TRP617  ASP618  TYR619  PRO620  LYS621  CYS622 
 ASP623  PHE694  ASN695  SER759  ASP760  ASP761  ALA762  ILE779  LEU786  VAL792 
 PHE793  MET794  SER795  GLU796  ALA797  LYS798  CYS799  TRP800  GLU811  SER814 

> <Gold.Protein.RotatedAtoms>
  152.4925  133.8540  159.7215 H   0  0  0  0  0  0  0  0  0  0  0  0  # atno 6907 bound_to 6896
  150.9069  133.7037  159.2871 H   0  0  0  0  0  0  0  0  0  0  0  0  # atno 6908 bound_to 6896
  151.4459  135.1029  159.9736 H   0  0  0  0  0  0  0  0  0  0  0  0  # atno 6909 bound_to 6896
  145.2854  139.2618  143.3893 H   0  0  0  0  0  0  0  0  0  0  0  0  # atno 7974 bound_to 7965
  155.5533  140.3487  155.4474 H   0  0  0  0  0  0  0  0  0  0  0  0  # atno 8008 bound_to 7997
  156.0567  140.1330  157.0014 H   0  0  0  0  0  0  0  0  0  0  0  0  # atno 8009 bound_to 7997
  154.4460  140.0993  156.6441 H   0  0  0  0  0  0  0  0  0  0  0  0  # atno 8010 bound_to 7997
  140.4236  143.2575  151.8856 H   0  0  0  0  0  0  0  0  0  0  0  0  # atno 10167 bound_to 10162
  155.9985  130.4803  150.4882 H   0  0  0  0  0  0  0  0  0  0  0  0  # atno 10718 bound_to 10713
  154.5670  135.2825  155.0864 H   0  0  0  0  0  0  0  0  0  0  0  0  # atno 10763 bound_to 10752
  154.2251  135.6384  153.5161 H   0  0  0  0  0  0  0  0  0  0  0  0  # atno 10764 bound_to 10752
  153.0046  135.5524  154.6281 H   0  0  0  0  0  0  0  0  0  0  0  0  # atno 10765 bound_to 10752
  141.0050  134.0347  157.3488 H   0  0  0  0  0  0  0  0  0  0  0  0  # atno 11005 bound_to 11000
  146.3202  140.3332  142.8642 LP  0  0  0  0  0  0  0  0  0  0  0  0  # atno 17320 bound_to 7965
  144.9218  140.7876  143.5744 LP  0  0  0  0  0  0  0  0  0  0  0  0  # atno 17321 bound_to 7965
  139.4783  144.5410  151.8527 LP  0  0  0  0  0  0  0  0  0  0  0  0  # atno 17342 bound_to 10162
  140.4506  144.1861  150.5897 LP  0  0  0  0  0  0  0  0  0  0  0  0  # atno 17343 bound_to 10162
  157.2880  131.0620  151.2153 LP  0  0  0  0  0  0  0  0  0  0  0  0  # atno 17370 bound_to 10713
  157.3176  130.6921  149.6251 LP  0  0  0  0  0  0  0  0  0  0  0  0  # atno 17371 bound_to 10713
  139.9059  135.0179  156.7481 LP  0  0  0  0  0  0  0  0  0  0  0  0  # atno 17394 bound_to 11000
  140.6827  133.9460  155.7920 LP  0  0  0  0  0  0  0  0  0  0  0  0  # atno 17395 bound_to 11000

$$$$
