AV-unprocessed.smi:2801|AV-procd|sdf|10801|dock3
  -GOLD-   2272015233D 1   1.00000     0.00000
 Structure written by MMmdl.
 31 31  0  0  0  0  0  0  0  0  2 V2000
  146.9172  141.9921  154.3144 C   0  0  0  0  0  0  0  0  0  0  0  0
  148.0913  141.0504  154.0386 C   0  0  0  0  0  0  0  0  0  0  0  0
  149.0593  141.2179  155.0677 O   0  0  0  0  0  0  0  0  0  0  0  0
  150.2691  140.4827  154.8945 C   0  0  2  0  0  0  0  0  0  0  0  0
  149.9109  138.9849  154.8582 C   0  0  0  0  0  0  0  0  0  0  0  0
  151.0425  138.1166  154.2940 C   0  0  0  0  0  0  0  0  0  0  0  0
  151.2460  140.7938  156.0408 C   0  0  0  0  0  0  0  0  0  0  0  0
  152.2892  140.1478  156.1401 O   0  0  0  0  0  0  0  0  0  0  0  0
  150.8532  141.7613  156.8894 N   0  0  0  0  0  0  0  0  0  0  0  0
  151.5084  142.2891  158.0381 C   0  0  0  0  0  0  0  0  0  0  0  0
  151.5025  143.6602  158.3927 C   0  0  0  0  0  0  0  0  0  0  0  0
  152.1725  144.0585  159.5661 C   0  0  0  0  0  0  0  0  0  0  0  0
  152.8193  143.2023  160.3835 N   0  0  0  0  0  0  0  0  0  0  0  0
  152.8145  141.8945  160.0511 C   0  0  0  0  0  0  0  0  0  0  0  0
  152.1767  141.3870  158.9001 C   0  0  0  0  0  0  0  0  0  0  0  0
  152.2170  140.0444  158.6402 O   0  5  0  0  0  0  0  0  0  0  0  0
  146.1513  141.8951  153.5449 H   0  0  0  0  0  0  0  0  0  0  0  0
  147.2457  143.0315  154.3308 H   0  0  0  0  0  0  0  0  0  0  0  0
  146.4556  141.7709  155.2769 H   0  0  0  0  0  0  0  0  0  0  0  0
  147.7400  140.0177  154.0195 H   0  0  0  0  0  0  0  0  0  0  0  0
  148.5141  141.2732  153.0584 H   0  0  0  0  0  0  0  0  0  0  0  0
  150.7275  140.7528  153.9407 H   0  0  0  0  0  0  0  0  0  0  0  0
  149.6773  138.6380  155.8659 H   0  0  0  0  0  0  0  0  0  0  0  0
  149.0086  138.8305  154.2645 H   0  0  0  0  0  0  0  0  0  0  0  0
  150.7604  137.0638  154.2938 H   0  0  0  0  0  0  0  0  0  0  0  0
  151.9504  138.2178  154.8892 H   0  0  0  0  0  0  0  0  0  0  0  0
  151.2814  138.3960  153.2675 H   0  0  0  0  0  0  0  0  0  0  0  0
  149.9353  142.1480  156.7212 H   0  0  0  0  0  0  0  0  0  0  0  0
  150.9949  144.4087  157.8063 H   0  0  0  0  0  0  0  0  0  0  0  0
  152.1831  145.0975  159.8600 H   0  0  0  0  0  0  0  0  0  0  0  0
  153.3348  141.2325  160.7279 H   0  0  0  0  0  0  0  0  0  0  0  0
  1  2  1  0  0  0  0
  1 17  1  0  0  0  0
  1 18  1  0  0  0  0
  1 19  1  0  0  0  0
  2  3  1  0  0  0  0
  2 20  1  0  0  0  0
  2 21  1  0  0  0  0
  3  4  1  0  0  0  0
  4  5  1  0  0  0  0
  4  7  1  0  0  0  0
  4 22  1  0  0  0  0
  5  6  1  0  0  0  0
  5 23  1  0  0  0  0
  5 24  1  0  0  0  0
  6 25  1  0  0  0  0
  6 26  1  0  0  0  0
  6 27  1  0  0  0  0
  7  8  2  0  0  0  0
  7  9  1  0  0  0  0
  9 28  1  0  0  0  0
  9 10  1  0  0  0  0
 10 11  2  0  0  0  0
 10 15  1  0  0  0  0
 11 12  1  0  0  0  0
 11 29  1  0  0  0  0
 12 13  2  0  0  0  0
 12 30  1  0  0  0  0
 13 14  1  0  0  0  0
 14 15  2  0  0  0  0
 14 31  1  0  0  0  0
 15 16  1  0  0  0  0
M  CHG  1  16  -1
M  END
> <s_m_source_file>
AV-unprocessed.smi

> <i_m_source_file_index>
2801

> <i_lp_mmshare_version>
43012

> <i_f3d_flags>
0

> <s_epik_input>
W0NIM11bQ0gyXU9bQ0BIXShbQ0gyXVtDSDNdKUMoPU8pW05IXWMxW2NIXVtjSF1uW2NIXWMxW09IXQ==

> <s_epik_cmdline>
J2VwaWtfcHl0aG9uJywgJy1waCcsICc3LjAnLCAnLXRuJywgJzgnLCAnLW1hJywgJzIwMCcsICctbWV0YWxfYmluZGluZycsICctaW1hZScsICc8aW5maWxlLm1hZT4nLCAnLW9tYWUnLCAnPG91dGZpbGUubWFlPic=

> <r_lp_tautomer_probability>
0.56342

> <r_epik_Ionization_Penalty>
4.38321

> <r_epik_Ionization_Penalty_Charging>
2.0641

> <r_epik_Ionization_Penalty_Neutral>
2.31912

> <r_epik_State_Penalty>
2.63873

> <r_epik_Charging_Adjusted_Penalty>
4.70283

> <i_epik_Tot_Q>
-1

> <i_epik_Tot_abs_Q>
1

> <r_epik_Metal_State_Penalty>
0.606608

> <b_epik_Metal_Only>
1

> <s_lp_Force_Field>
OPLS_2005

> <r_lp_Energy>
9.76409

> <b_lp_Chiralities_Consistent>
1

> <s_lp_Variant>
AV-unprocessed.smi:2801-5

> <Gold.Version>
5.8.1

> <Gold.Id.Protein>
6NUR|6NUR_protein|mol2

> <Gold.PLP.Fitness>
36.5579

> <Gold.PLP.PLP>
-34.5105

> <Gold.PLP.part.hbond>
-1.0000

> <Gold.PLP.part.metal>
0.0000

> <Gold.PLP.part.buried>
-2.2927

> <Gold.PLP.part.nonpolar>
-31.1454

> <Gold.PLP.part.repulsive>
0.2023

> <Gold.PLP.ligand.clash>
0.0000

> <Gold.PLP.ligand.torsion>
0.5186

> <Gold.PLP.Chemscore.Hbond>
0.9913

> <Gold.PLP.Chemscore.CHOScore>
0.0000

> <Gold.PLP.Chemscore.Metal>
0.0000

> <Gold.Chemscore.Hbonds>
donor molecule, donor type, donor heavy atom, donor atom, acceptor molecule, acceptor atom, score
      P1  H  7997  8008       L1     8  0.96

> <Gold.PLP.Chemscore.Internal.Correction>
0.1109

> <Gold.Rescore>
     Score         DG    S(hbond)    S(metal)    S(lipo)     H(rot)  DE(clash)    DE(int)     intcor
      9.73     -14.83       0.97        0.00      85.99       1.55       0.09       5.02       ----

> <Gold.Chemscore.Fitness>
9.7268

> <Gold.Chemscore.DG>
-14.8320

> <Gold.Chemscore.ZeroCoef>
-5.4800

> <Gold.Chemscore.Hbond>
0.9731

> <Gold.Chemscore.Metal>
0.0000

> <Gold.Chemscore.Lipo>
85.9852

> <Gold.Chemscore.Internal_Hbond>
0.0000

> <Gold.Chemscore.DEClash>
0.0901

> <Gold.Chemscore.DEInternal>
5.0152

> <Gold.Chemscore.Rot>
1.5462

> <Gold.Chemscore.Internal.Correction>
   9.000000E+99

> <Gold.Chemscore.Hbonds>
donor molecule, donor type, donor heavy atom, donor atom, acceptor molecule, acceptor atom, score
      P1  H  7997  8008       L1     8  0.89

> <Gold.Chemscore.Hbond.Weighted>
-3.2501

> <Gold.Chemscore.Metal.Weighted>
-0.0000

> <Gold.Chemscore.Lipo.Weighted>
-10.0603

> <Gold.Chemscore.Internal_Hbond.Weighted>
0.0000

> <Gold.Chemscore.DEClash.Weighted>
0.0901

> <Gold.Chemscore.DEInternal.Weighted>
5.0152

> <Gold.Chemscore.Rot.Weighted>
3.9583

> <Gold.Chemscore.Internal.Correction.Weighted>
   9.000000E+99

> <Gold.Protein.RotatedTorsions>
[ 6907 6896 6895 6894 ] final  -68.43 input  -60.11 | X-H torsion
[ 7974 7965 7964 7962 ] final   54.45 input  175.53 | X-H torsion
[ 8008 7997 7996 7995 ] final  -39.32 input   59.86 | X-H torsion
[ 10167 10162 10161 10158 ] final -162.89 input  -65.29 | X-H torsion
[ 10718 10713 10712 10709 ] final -143.93 input   66.30 | X-H torsion
[ 10763 10752 10751 10750 ] final   98.00 input  -60.55 | X-H torsion
[ 11005 11000 10999 10996 ] final  -30.18 input  -57.11 | X-H torsion

> <Gold.Protein.ActiveResidues>
 VAL166  LYS551  ARG553  GLY616  TRP617  ASP618  TYR619  PRO620  LYS621  CYS622 
 ASP623  PHE694  ASN695  SER759  ASP760  ASP761  ALA762  ILE779  LEU786  VAL792 
 PHE793  MET794  SER795  GLU796  ALA797  LYS798  CYS799  TRP800  GLU811  SER814 

> <Gold.Protein.RotatedAtoms>
  150.7357  134.5741  159.5904 H   0  0  0  0  0  0  0  0  0  0  0  0  # atno 6907 bound_to 6896
  152.3172  134.7422  160.0331 H   0  0  0  0  0  0  0  0  0  0  0  0  # atno 6908 bound_to 6896
  151.7950  133.3328  159.3547 H   0  0  0  0  0  0  0  0  0  0  0  0  # atno 6909 bound_to 6896
  145.9607  139.4056  143.0250 H   0  0  0  0  0  0  0  0  0  0  0  0  # atno 7974 bound_to 7965
  154.4024  140.1554  156.2844 H   0  0  0  0  0  0  0  0  0  0  0  0  # atno 8008 bound_to 7997
  155.8841  140.3442  155.5886 H   0  0  0  0  0  0  0  0  0  0  0  0  # atno 8009 bound_to 7997
  155.7634  140.0820  157.2134 H   0  0  0  0  0  0  0  0  0  0  0  0  # atno 8010 bound_to 7997
  139.6360  144.0350  152.2054 H   0  0  0  0  0  0  0  0  0  0  0  0  # atno 10167 bound_to 10162
  156.3639  130.7752  151.1924 H   0  0  0  0  0  0  0  0  0  0  0  0  # atno 10718 bound_to 10713
  153.2837  135.4164  155.1102 H   0  0  0  0  0  0  0  0  0  0  0  0  # atno 10763 bound_to 10752
  154.8498  135.3501  154.6077 H   0  0  0  0  0  0  0  0  0  0  0  0  # atno 10764 bound_to 10752
  153.6498  135.7053  153.5270 H   0  0  0  0  0  0  0  0  0  0  0  0  # atno 10765 bound_to 10752
  140.9361  133.7308  156.1007 H   0  0  0  0  0  0  0  0  0  0  0  0  # atno 11005 bound_to 11000
  145.8044  140.9756  143.0982 LP  0  0  0  0  0  0  0  0  0  0  0  0  # atno 17320 bound_to 7965
  144.6814  139.9841  143.7484 LP  0  0  0  0  0  0  0  0  0  0  0  0  # atno 17321 bound_to 7965
  140.0027  144.6281  150.7716 LP  0  0  0  0  0  0  0  0  0  0  0  0  # atno 17342 bound_to 10162
  140.7465  143.2892  151.3378 LP  0  0  0  0  0  0  0  0  0  0  0  0  # atno 17343 bound_to 10162
  157.7476  131.0392  150.4539 LP  0  0  0  0  0  0  0  0  0  0  0  0  # atno 17370 bound_to 10713
  156.4754  130.4062  149.6493 LP  0  0  0  0  0  0  0  0  0  0  0  0  # atno 17371 bound_to 10713
  140.7797  134.3739  157.5490 LP  0  0  0  0  0  0  0  0  0  0  0  0  # atno 17394 bound_to 11000
  139.8808  134.9074  156.2944 LP  0  0  0  0  0  0  0  0  0  0  0  0  # atno 17395 bound_to 11000

$$$$
