AV-unprocessed.smi:1047|AV-procd|sdf|4584|dock6
  -GOLD-   22720 3 53D 1   1.00000     0.00000
 Structure written by MMmdl.
 58 60  0  0  0  0  0  0  0  0  4 V2000
  147.3785  132.5628  152.8799 C   0  0  0  0  0  0  0  0  0  0  0  0
  148.4807  131.7896  153.6177 C   0  0  0  0  0  0  0  0  0  0  0  0
  149.0178  132.5361  154.7833 N   0  3  1  0  0  0  0  0  0  0  0  0
  149.9257  131.7075  155.6116 C   0  0  0  0  0  0  0  0  0  0  0  0
  150.4106  132.4980  156.8383 C   0  0  0  0  0  0  0  0  0  0  0  0
  151.0556  133.6931  156.4145 O   0  0  0  0  0  0  0  0  0  0  0  0
  150.1831  134.5453  155.6802 C   0  0  1  0  0  0  0  0  0  0  0  0
  150.9178  135.8619  155.3736 C   0  0  0  0  0  0  0  0  0  0  0  0
  150.0681  136.8122  154.6260 N   0  3  0  0  0  0  0  0  0  0  0  0
  150.7680  138.0379  154.1918 C   0  0  0  0  0  0  0  0  0  0  0  0
  151.7025  138.5681  155.2922 C   0  0  1  0  0  0  0  0  0  0  0  0
  152.3956  139.6948  154.7908 O   0  0  0  0  0  0  0  0  0  0  0  0
  150.9243  138.9598  156.5641 C   0  0  0  0  0  0  0  0  0  0  0  0
  150.5803  140.3887  156.6118 N   0  0  0  0  0  0  0  0  0  0  0  0
  149.6954  141.0942  155.8553 C   0  0  0  0  0  0  0  0  0  0  0  0
  149.7409  142.3904  156.2701 N   0  3  0  0  0  0  0  0  0  0  0  0
  150.6694  142.5164  157.3052 C   0  0  0  0  0  0  0  0  0  0  0  0
  151.0633  143.6261  158.0432 C   0  0  0  0  0  0  0  0  0  0  0  0
  152.0404  143.4219  159.0434 C   0  0  0  0  0  0  0  0  0  0  0  0
  152.4912  144.6135  159.8710 C   0  0  0  0  0  0  0  0  0  0  0  0
  152.5905  142.1345  159.2743 C   0  0  0  0  0  0  0  0  0  0  0  0
  153.6367  141.9259  160.3559 C   0  0  0  0  0  0  0  0  0  0  0  0
  152.1795  141.0191  158.5099 C   0  0  0  0  0  0  0  0  0  0  0  0
  151.2138  141.2366  157.5294 C   0  0  0  0  0  0  0  0  0  0  0  0
  149.6755  133.8157  154.4179 C   0  0  0  0  0  0  0  0  0  0  0  0
  146.9459  131.9497  152.0888 H   0  0  0  0  0  0  0  0  0  0  0  0
  147.7576  133.4707  152.4116 H   0  0  0  0  0  0  0  0  0  0  0  0
  146.5713  132.8427  153.5575 H   0  0  0  0  0  0  0  0  0  0  0  0
  148.0518  130.8485  153.9651 H   0  0  0  0  0  0  0  0  0  0  0  0
  149.2892  131.5266  152.9340 H   0  0  0  0  0  0  0  0  0  0  0  0
  149.4076  130.8058  155.9408 H   0  0  0  0  0  0  0  0  0  0  0  0
  150.7789  131.3862  155.0122 H   0  0  0  0  0  0  0  0  0  0  0  0
  149.5788  132.7342  157.5039 H   0  0  0  0  0  0  0  0  0  0  0  0
  151.1181  131.9012  157.4138 H   0  0  0  0  0  0  0  0  0  0  0  0
  149.3262  134.7871  156.3120 H   0  0  0  0  0  0  0  0  0  0  0  0
  151.2469  136.3265  156.3040 H   0  0  0  0  0  0  0  0  0  0  0  0
  151.8144  135.6539  154.7882 H   0  0  0  0  0  0  0  0  0  0  0  0
  149.7015  136.3440  153.8094 H   0  0  0  0  0  0  0  0  0  0  0  0
  151.3310  137.8377  153.2788 H   0  0  0  0  0  0  0  0  0  0  0  0
  150.0207  138.7939  153.9467 H   0  0  0  0  0  0  0  0  0  0  0  0
  152.4360  137.8016  155.5469 H   0  0  0  0  0  0  0  0  0  0  0  0
  151.7620  140.3476  154.5331 H   0  0  0  0  0  0  0  0  0  0  0  0
  150.0156  138.3672  156.6736 H   0  0  0  0  0  0  0  0  0  0  0  0
  151.5303  138.7505  157.4468 H   0  0  0  0  0  0  0  0  0  0  0  0
  149.0721  140.6997  155.0657 H   0  0  0  0  0  0  0  0  0  0  0  0
  150.6399  144.6035  157.8620 H   0  0  0  0  0  0  0  0  0  0  0  0
  153.5642  144.7728  159.7610 H   0  0  0  0  0  0  0  0  0  0  0  0
  152.2710  144.4521  160.9267 H   0  0  0  0  0  0  0  0  0  0  0  0
  151.9853  145.5287  159.5612 H   0  0  0  0  0  0  0  0  0  0  0  0
  153.9518  140.8835  160.4122 H   0  0  0  0  0  0  0  0  0  0  0  0
  153.2391  142.2061  161.3317 H   0  0  0  0  0  0  0  0  0  0  0  0
  154.5214  142.5305  160.1554 H   0  0  0  0  0  0  0  0  0  0  0  0
  152.5982  140.0401  158.6901 H   0  0  0  0  0  0  0  0  0  0  0  0
  150.5017  133.6106  153.7355 H   0  0  0  0  0  0  0  0  0  0  0  0
  148.9759  134.4612  153.8876 H   0  0  0  0  0  0  0  0  0  0  0  0
  149.2942  137.0883  155.2135 H   0  0  0  0  0  0  0  0  0  0  0  0
  148.2267  132.7626  155.3698 H   0  0  0  0  0  0  0  0  0  0  0  0
  149.1808  143.1336  155.8718 H   0  0  0  0  0  0  0  0  0  0  0  0
  1  2  1  0  0  0  0
  1 26  1  0  0  0  0
  1 27  1  0  0  0  0
  1 28  1  0  0  0  0
  2  3  1  0  0  0  0
  2 29  1  0  0  0  0
  2 30  1  0  0  0  0
  3 25  1  0  0  0  0
  3  4  1  0  0  0  0
  3 57  1  0  0  0  0
  4  5  1  0  0  0  0
  4 31  1  0  0  0  0
  4 32  1  0  0  0  0
  5  6  1  0  0  0  0
  5 33  1  0  0  0  0
  5 34  1  0  0  0  0
  6  7  1  0  0  0  0
  7  8  1  0  0  0  0
  7 25  1  0  0  0  0
  7 35  1  0  0  0  0
  8  9  1  0  0  0  0
  8 36  1  0  0  0  0
  8 37  1  0  0  0  0
  9 10  1  0  0  0  0
  9 38  1  0  0  0  0
  9 56  1  0  0  0  0
 10 11  1  0  0  0  0
 10 39  1  0  0  0  0
 10 40  1  0  0  0  0
 11 12  1  0  0  0  0
 11 13  1  0  0  0  0
 11 41  1  0  0  0  0
 12 42  1  0  0  0  0
 13 14  1  0  0  0  0
 13 43  1  0  0  0  0
 13 44  1  0  0  0  0
 14 24  1  0  0  0  0
 14 15  1  0  0  0  0
 15 16  2  0  0  0  0
 15 45  1  0  0  0  0
 16 17  1  0  0  0  0
 16 58  1  0  0  0  0
 17 24  2  0  0  0  0
 17 18  1  0  0  0  0
 18 19  2  0  0  0  0
 18 46  1  0  0  0  0
 19 20  1  0  0  0  0
 19 21  1  0  0  0  0
 20 47  1  0  0  0  0
 20 48  1  0  0  0  0
 20 49  1  0  0  0  0
 21 22  1  0  0  0  0
 21 23  2  0  0  0  0
 22 50  1  0  0  0  0
 22 51  1  0  0  0  0
 22 52  1  0  0  0  0
 23 24  1  0  0  0  0
 23 53  1  0  0  0  0
 25 54  1  0  0  0  0
 25 55  1  0  0  0  0
M  CHG  1   3   1
M  CHG  1   9   1
M  CHG  1  16   1
M  END
> <s_m_source_file>
AV-unprocessed.smi

> <i_m_source_file_index>
1047

> <i_lp_mmshare_version>
43012

> <i_f3d_flags>
0

> <s_epik_input>
W0NIM11bQ0gyXU4xW0NIMl1bQ0gyXU9bQ0BIXShbQ0gyXTEpW0NIMl1bTkhdW0NIMl1bQ0BIXShbT0hdKVtDSDJdbihbY0hdbjIpYyhjMjMpW2NIXWMoW0NIM10pYyhbY0hdMylbQ0gzXQ==

> <s_epik_cmdline>
J2VwaWtfcHl0aG9uJywgJy1waCcsICc3LjAnLCAnLXRuJywgJzgnLCAnLW1hJywgJzIwMCcsICctbWV0YWxfYmluZGluZycsICctaW1hZScsICc8aW5maWxlLm1hZT4nLCAnLW9tYWUnLCAnPG91dGZpbGUubWFlPic=

> <r_epik_Ionization_Penalty>
1.6114

> <r_epik_Ionization_Penalty_Charging>
1.61139

> <r_epik_Ionization_Penalty_Neutral>
5.04732e-06

> <r_epik_State_Penalty>
1.63724

> <r_epik_Charging_Adjusted_Penalty>
3.24864

> <i_epik_Tot_Q>
3

> <i_epik_Tot_abs_Q>
3

> <r_epik_Metal_State_Penalty>
5.64594

> <b_epik_Metal_Only>
0

> <s_lp_Force_Field>
OPLS_2005

> <r_lp_Energy>
40.2566

> <b_lp_Chiralities_Consistent>
1

> <s_lp_Variant>
AV-unprocessed.smi:1047-25

> <Gold.Version>
5.8.1

> <Gold.Id.Protein>
6NUR|6NUR_protein|mol2

> <Gold.PLP.Fitness>
65.5829

> <Gold.PLP.PLP>
-51.8020

> <Gold.PLP.part.hbond>
-4.0127

> <Gold.PLP.part.metal>
0.0000

> <Gold.PLP.part.buried>
-6.7744

> <Gold.PLP.part.nonpolar>
-42.7415

> <Gold.PLP.part.repulsive>
0.1786

> <Gold.PLP.ligand.clash>
0.0000

> <Gold.PLP.ligand.torsion>
0.6711

> <Gold.PLP.Chemscore.Hbond>
4.9840

> <Gold.PLP.Chemscore.CHOScore>
0.0000

> <Gold.PLP.Chemscore.Metal>
0.0000

> <Gold.Chemscore.Hbonds>
donor molecule, donor type, donor heavy atom, donor atom, acceptor molecule, acceptor atom, score
      L1  H     9    38       P1  7948  1.89
      L1  H    16    58       P1  8028  2.00
      P1  H  7997  8009       L1    12  0.11

> <Gold.PLP.Chemscore.Internal.Correction>
0.1712

> <Gold.Rescore>
     Score         DG    S(hbond)    S(metal)    S(lipo)     H(rot)  DE(clash)    DE(int)     intcor
     21.22     -21.97       2.44        0.00     132.21       2.78       0.09       0.66       ----

> <Gold.Chemscore.Fitness>
21.2211

> <Gold.Chemscore.DG>
-21.9720

> <Gold.Chemscore.ZeroCoef>
-5.4800

> <Gold.Chemscore.Hbond>
2.4407

> <Gold.Chemscore.Metal>
0.0000

> <Gold.Chemscore.Lipo>
132.2144

> <Gold.Chemscore.Internal_Hbond>
0.0000

> <Gold.Chemscore.DEClash>
0.0880

> <Gold.Chemscore.DEInternal>
0.6629

> <Gold.Chemscore.Rot>
2.7848

> <Gold.Chemscore.Internal.Correction>
   9.000000E+99

> <Gold.Chemscore.Hbonds>
donor molecule, donor type, donor heavy atom, donor atom, acceptor molecule, acceptor atom, score
      L1  H     9    38       P1  7948  0.44
      L1  H    16    58       P1  8028  0.95
      P1  H  7997  8009       L1    12  0.13

> <Gold.Chemscore.Hbond.Weighted>
-8.1520

> <Gold.Chemscore.Metal.Weighted>
-0.0000

> <Gold.Chemscore.Lipo.Weighted>
-15.4691

> <Gold.Chemscore.Internal_Hbond.Weighted>
0.0000

> <Gold.Chemscore.DEClash.Weighted>
0.0880

> <Gold.Chemscore.DEInternal.Weighted>
0.6629

> <Gold.Chemscore.Rot.Weighted>
7.1291

> <Gold.Chemscore.Internal.Correction.Weighted>
   9.000000E+99

> <Gold.Protein.RotatedTorsions>
[ 6907 6896 6895 6894 ] final   82.74 input  -60.11 | X-H torsion
[ 7974 7965 7964 7962 ] final  130.40 input  175.53 | X-H torsion
[ 8008 7997 7996 7995 ] final -141.75 input   59.86 | X-H torsion
[ 10167 10162 10161 10158 ] final   29.29 input  -65.29 | X-H torsion
[ 10718 10713 10712 10709 ] final  161.59 input   66.30 | X-H torsion
[ 10763 10752 10751 10750 ] final -152.13 input  -60.55 | X-H torsion
[ 11005 11000 10999 10996 ] final  -39.75 input  -57.11 | X-H torsion

> <Gold.Protein.ActiveResidues>
 VAL166  LYS551  ARG553  GLY616  TRP617  ASP618  TYR619  PRO620  LYS621  CYS622 
 ASP623  PHE694  ASN695  SER759  ASP760  ASP761  ALA762  ILE779  LEU786  VAL792 
 PHE793  MET794  SER795  GLU796  ALA797  LYS798  CYS799  TRP800  GLU811  SER814 

> <Gold.Protein.RotatedAtoms>
  152.5308  134.3004  159.9075 H   0  0  0  0  0  0  0  0  0  0  0  0  # atno 6907 bound_to 6896
  151.2954  133.4140  159.2643 H   0  0  0  0  0  0  0  0  0  0  0  0  # atno 6908 bound_to 6896
  151.0164  134.9452  159.8093 H   0  0  0  0  0  0  0  0  0  0  0  0  # atno 6909 bound_to 6896
  145.0183  139.4155  143.5210 H   0  0  0  0  0  0  0  0  0  0  0  0  # atno 7974 bound_to 7965
  155.4829  140.0562  157.2964 H   0  0  0  0  0  0  0  0  0  0  0  0  # atno 8008 bound_to 7997
  154.4653  140.2015  156.0087 H   0  0  0  0  0  0  0  0  0  0  0  0  # atno 8009 bound_to 7997
  156.0963  140.3226  155.7887 H   0  0  0  0  0  0  0  0  0  0  0  0  # atno 8010 bound_to 7997
  140.4778  144.0663  150.6256 H   0  0  0  0  0  0  0  0  0  0  0  0  # atno 10167 bound_to 10162
  157.1344  131.0525  151.2356 H   0  0  0  0  0  0  0  0  0  0  0  0  # atno 10718 bound_to 10713
  154.8014  135.3243  154.7541 H   0  0  0  0  0  0  0  0  0  0  0  0  # atno 10763 bound_to 10752
  153.8209  135.6887  153.4832 H   0  0  0  0  0  0  0  0  0  0  0  0  # atno 10764 bound_to 10752
  153.1732  135.4615  154.9874 H   0  0  0  0  0  0  0  0  0  0  0  0  # atno 10765 bound_to 10752
  141.0125  133.6901  156.2229 H   0  0  0  0  0  0  0  0  0  0  0  0  # atno 11005 bound_to 11000
  146.3481  139.9666  142.8711 LP  0  0  0  0  0  0  0  0  0  0  0  0  # atno 17320 bound_to 7965
  145.1930  140.9820  143.4200 LP  0  0  0  0  0  0  0  0  0  0  0  0  # atno 17321 bound_to 7965
  140.3896  143.2759  152.0076 LP  0  0  0  0  0  0  0  0  0  0  0  0  # atno 17342 bound_to 10162
  139.4828  144.6088  151.7471 LP  0  0  0  0  0  0  0  0  0  0  0  0  # atno 17343 bound_to 10162
  157.4363  130.7519  149.7032 LP  0  0  0  0  0  0  0  0  0  0  0  0  # atno 17370 bound_to 10713
  155.9801  130.4033  150.3547 LP  0  0  0  0  0  0  0  0  0  0  0  0  # atno 17371 bound_to 10713
  140.6710  134.4868  157.5587 LP  0  0  0  0  0  0  0  0  0  0  0  0  # atno 17394 bound_to 11000
  139.9098  134.8370  156.1571 LP  0  0  0  0  0  0  0  0  0  0  0  0  # atno 17395 bound_to 11000

$$$$
