AV-unprocessed.smi:2093|AV-procd|sdf|8549|dock10
  -GOLD-   2272011273D 1   1.00000     0.00000
 Structure written by MMmdl.
 30 31  0  0  0  0  0  0  0  0  2 V2000
  151.0230  140.9045  158.5067 C   0  0  0  0  0  0  0  0  0  0  0  0
  151.3056  142.2402  157.8032 C   0  0  1  0  0  0  0  0  0  0  0  0
  150.3925  142.3725  156.6678 N   0  0  0  0  0  0  0  0  0  0  0  0
  150.3345  141.5815  155.5860 C   0  0  0  0  0  0  0  0  0  0  0  0
  151.1056  140.6256  155.4756 O   0  0  0  0  0  0  0  0  0  0  0  0
  149.3891  141.9537  154.6931 N   0  5  0  0  0  0  0  0  0  0  0  0
  148.5529  141.0372  154.1790 C   0  0  0  0  0  0  0  0  0  0  0  0
  148.8317  139.7288  154.1495 N   0  0  0  0  0  0  0  0  0  0  0  0
  147.8197  138.9584  153.5739 C   0  0  0  0  0  0  0  0  0  0  0  0
  146.7404  139.6960  153.1654 C   0  0  0  0  0  0  0  0  0  0  0  0
  146.9649  141.3909  153.4923 S   0  0  0  0  0  0  0  0  0  0  0  0
  151.1503  143.4360  158.7662 C   0  0  2  0  0  0  0  0  0  0  0  0
  151.7881  144.7414  158.2928 C   0  0  0  0  0  0  0  0  0  0  0  0
  151.9135  145.5226  159.5840 C   0  0  0  0  0  0  0  0  0  0  0  0
  152.0957  144.4308  160.6413 C   0  0  0  0  0  0  0  0  0  0  0  0
  151.8349  143.1916  159.9878 O   0  0  0  0  0  0  0  0  0  0  0  0
  151.7078  140.7446  159.3399 H   0  0  0  0  0  0  0  0  0  0  0  0
  151.1435  140.0664  157.8196 H   0  0  0  0  0  0  0  0  0  0  0  0
  150.0064  140.8698  158.8998 H   0  0  0  0  0  0  0  0  0  0  0  0
  152.3368  142.2095  157.4475 H   0  0  0  0  0  0  0  0  0  0  0  0
  149.7386  143.1405  156.7045 H   0  0  0  0  0  0  0  0  0  0  0  0
  147.9517  137.8895  153.4967 H   0  0  0  0  0  0  0  0  0  0  0  0
  145.8326  139.3492  152.6958 H   0  0  0  0  0  0  0  0  0  0  0  0
  150.0953  143.6068  158.9896 H   0  0  0  0  0  0  0  0  0  0  0  0
  152.7783  144.5512  157.8763 H   0  0  0  0  0  0  0  0  0  0  0  0
  151.1946  145.2601  157.5393 H   0  0  0  0  0  0  0  0  0  0  0  0
  152.7392  146.2346  159.5639 H   0  0  0  0  0  0  0  0  0  0  0  0
  150.9934  146.0763  159.7748 H   0  0  0  0  0  0  0  0  0  0  0  0
  153.1099  144.4217  161.0415 H   0  0  0  0  0  0  0  0  0  0  0  0
  151.4048  144.5726  161.4728 H   0  0  0  0  0  0  0  0  0  0  0  0
  1  2  1  0  0  0  0
  1 17  1  0  0  0  0
  1 18  1  0  0  0  0
  1 19  1  0  0  0  0
  2  3  1  0  0  0  0
  2 12  1  0  0  0  0
  2 20  1  0  0  0  0
  3  4  1  0  0  0  0
  3 21  1  0  0  0  0
  4  5  2  0  0  0  0
  4  6  1  0  0  0  0
  6  7  1  0  0  0  0
  7 11  1  0  0  0  0
  7  8  2  0  0  0  0
  8  9  1  0  0  0  0
  9 10  2  0  0  0  0
  9 22  1  0  0  0  0
 10 11  1  0  0  0  0
 10 23  1  0  0  0  0
 12 16  1  0  0  0  0
 12 13  1  0  0  0  0
 12 24  1  0  0  0  0
 13 14  1  0  0  0  0
 13 25  1  0  0  0  0
 13 26  1  0  0  0  0
 14 15  1  0  0  0  0
 14 27  1  0  0  0  0
 14 28  1  0  0  0  0
 15 16  1  0  0  0  0
 15 29  1  0  0  0  0
 15 30  1  0  0  0  0
M  CHG  1   6  -1
M  END
> <s_m_source_file>
AV-unprocessed.smi

> <i_m_source_file_index>
2093

> <i_lp_mmshare_version>
43012

> <i_f3d_flags>
0

> <s_epik_input>
TzFbQ0gyXVtDSDJdW0NIMl1bQ0BIXTFbQ0BIXShbQ0gzXSlbTkhdQyg9TylbTkhdYzJuW2NIXVtjSF1zMg==

> <s_epik_cmdline>
J2VwaWtfcHl0aG9uJywgJy1waCcsICc3LjAnLCAnLXRuJywgJzgnLCAnLW1hJywgJzIwMCcsICctbWV0YWxfYmluZGluZycsICctaW1hZScsICc8aW5maWxlLm1hZT4nLCAnLW9tYWUnLCAnPG91dGZpbGUubWFlPic=

> <r_lp_tautomer_probability>
0.999

> <r_epik_Ionization_Penalty>
8.26346

> <r_epik_Ionization_Penalty_Charging>
6.6559

> <r_epik_Ionization_Penalty_Neutral>
1.60756

> <r_epik_State_Penalty>
6.65607

> <r_epik_Charging_Adjusted_Penalty>
13.312

> <i_epik_Tot_Q>
-1

> <i_epik_Tot_abs_Q>
1

> <r_epik_Metal_State_Penalty>
2.5789

> <b_epik_Metal_Only>
1

> <s_lp_Force_Field>
OPLS_2005

> <r_lp_Energy>
13.6903

> <b_lp_Chiralities_Consistent>
1

> <s_lp_Variant>
AV-unprocessed.smi:2093-6

> <Gold.Version>
5.8.1

> <Gold.Id.Protein>
6NUR|6NUR_protein|mol2

> <Gold.PLP.Fitness>
43.7820

> <Gold.PLP.PLP>
-34.3734

> <Gold.PLP.part.hbond>
-3.4022

> <Gold.PLP.part.metal>
0.0000

> <Gold.PLP.part.buried>
-4.3324

> <Gold.PLP.part.nonpolar>
-27.1557

> <Gold.PLP.part.repulsive>
1.8488

> <Gold.PLP.ligand.clash>
0.0000

> <Gold.PLP.ligand.torsion>
0.7413

> <Gold.PLP.Chemscore.Hbond>
1.6366

> <Gold.PLP.Chemscore.CHOScore>
1.9866

> <Gold.PLP.Chemscore.Metal>
0.0000

> <Gold.Chemscore.Hbonds>
donor molecule, donor type, donor heavy atom, donor atom, acceptor molecule, acceptor atom, score
      L1  H     3    21       P1  8028  0.83
      P1  H  7989  7998       L1     5  0.77
      L1  C     9    22       P1  7948  1.00
      L1  C    10    23       P1 10175  0.99

> <Gold.PLP.Chemscore.Internal.Correction>
0.0216

> <Gold.Rescore>
     Score         DG    S(hbond)    S(metal)    S(lipo)     H(rot)  DE(clash)    DE(int)     intcor
     12.25     -15.33       1.12        0.00      80.13       1.28       0.26       2.82       ----

> <Gold.Chemscore.Fitness>
12.2500

> <Gold.Chemscore.DG>
-15.3320

> <Gold.Chemscore.ZeroCoef>
-5.4800

> <Gold.Chemscore.Hbond>
1.1222

> <Gold.Chemscore.Metal>
0.0000

> <Gold.Chemscore.Lipo>
80.1272

> <Gold.Chemscore.Internal_Hbond>
0.0000

> <Gold.Chemscore.DEClash>
0.2636

> <Gold.Chemscore.DEInternal>
2.8184

> <Gold.Chemscore.Rot>
1.2778

> <Gold.Chemscore.Internal.Correction>
   9.000000E+99

> <Gold.Chemscore.Hbonds>
donor molecule, donor type, donor heavy atom, donor atom, acceptor molecule, acceptor atom, score
      L1  H     3    21       P1  8028  0.77
      P1  H  7989  7998       L1     5  0.16

> <Gold.Chemscore.Hbond.Weighted>
-3.7482

> <Gold.Chemscore.Metal.Weighted>
-0.0000

> <Gold.Chemscore.Lipo.Weighted>
-9.3749

> <Gold.Chemscore.Internal_Hbond.Weighted>
0.0000

> <Gold.Chemscore.DEClash.Weighted>
0.2636

> <Gold.Chemscore.DEInternal.Weighted>
2.8184

> <Gold.Chemscore.Rot.Weighted>
3.2711

> <Gold.Chemscore.Internal.Correction.Weighted>
   9.000000E+99

> <Gold.Protein.RotatedTorsions>
[ 6907 6896 6895 6894 ] final -102.58 input  -60.11 | X-H torsion
[ 7974 7965 7964 7962 ] final -115.56 input  175.53 | X-H torsion
[ 8008 7997 7996 7995 ] final -162.92 input   59.86 | X-H torsion
[ 10167 10162 10161 10158 ] final -121.62 input  -65.29 | X-H torsion
[ 10718 10713 10712 10709 ] final -151.45 input   66.30 | X-H torsion
[ 10763 10752 10751 10750 ] final   -9.38 input  -60.55 | X-H torsion
[ 11005 11000 10999 10996 ] final  -27.90 input  -57.11 | X-H torsion

> <Gold.Protein.ActiveResidues>
 VAL166  LYS551  ARG553  GLY616  TRP617  ASP618  TYR619  PRO620  LYS621  CYS622 
 ASP623  PHE694  ASN695  SER759  ASP760  ASP761  ALA762  ILE779  LEU786  VAL792 
 PHE793  MET794  SER795  GLU796  ALA797  LYS798  CYS799  TRP800  GLU811  SER814 

> <Gold.Protein.RotatedAtoms>
  150.7202  134.0560  159.3814 H   0  0  0  0  0  0  0  0  0  0  0  0  # atno 6907 bound_to 6896
  151.8538  135.0546  160.0471 H   0  0  0  0  0  0  0  0  0  0  0  0  # atno 6908 bound_to 6896
  152.2770  133.5398  159.5510 H   0  0  0  0  0  0  0  0  0  0  0  0  # atno 6909 bound_to 6896
  145.1070  140.8587  143.3892 H   0  0  0  0  0  0  0  0  0  0  0  0  # atno 7974 bound_to 7965
  155.8138  140.0909  157.1888 H   0  0  0  0  0  0  0  0  0  0  0  0  # atno 8008 bound_to 7997
  154.3979  140.1449  156.3478 H   0  0  0  0  0  0  0  0  0  0  0  0  # atno 8009 bound_to 7997
  155.8337  140.3441  155.5591 H   0  0  0  0  0  0  0  0  0  0  0  0  # atno 8010 bound_to 7997
  140.0231  143.5324  152.2211 H   0  0  0  0  0  0  0  0  0  0  0  0  # atno 10167 bound_to 10162
  156.4594  130.8206  151.2437 H   0  0  0  0  0  0  0  0  0  0  0  0  # atno 10718 bound_to 10713
  153.4539  135.7015  153.6092 H   0  0  0  0  0  0  0  0  0  0  0  0  # atno 10763 bound_to 10752
  153.4415  135.3779  155.2231 H   0  0  0  0  0  0  0  0  0  0  0  0  # atno 10764 bound_to 10752
  154.8728  135.3975  154.3955 H   0  0  0  0  0  0  0  0  0  0  0  0  # atno 10765 bound_to 10752
  140.9161  133.7429  156.0736 H   0  0  0  0  0  0  0  0  0  0  0  0  # atno 11005 bound_to 11000
  145.0891  139.2903  143.5744 LP  0  0  0  0  0  0  0  0  0  0  0  0  # atno 17320 bound_to 7965
  146.3528  140.0422  142.8642 LP  0  0  0  0  0  0  0  0  0  0  0  0  # atno 17321 bound_to 7965
  139.6126  144.7612  151.2917 LP  0  0  0  0  0  0  0  0  0  0  0  0  # atno 17342 bound_to 10162
  140.7334  143.6796  150.8012 LP  0  0  0  0  0  0  0  0  0  0  0  0  # atno 17343 bound_to 10162
  157.7498  131.0112  150.3336 LP  0  0  0  0  0  0  0  0  0  0  0  0  # atno 17370 bound_to 10713
  156.3733  130.3867  149.7158 LP  0  0  0  0  0  0  0  0  0  0  0  0  # atno 17371 bound_to 10713
  140.8049  134.3467  157.5429 LP  0  0  0  0  0  0  0  0  0  0  0  0  # atno 17394 bound_to 11000
  139.8766  134.9219  156.3288 LP  0  0  0  0  0  0  0  0  0  0  0  0  # atno 17395 bound_to 11000

$$$$
