AV-unprocessed.smi:2751|AV-procd|sdf|10598|dock9
  -GOLD-   2272015 53D 1   1.00000     0.00000
 Structure written by MMmdl.
 35 36  0  0  0  0  0  0  0  0  2 V2000
  154.0103  139.1314  157.3113 O   0  0  0  0  0  0  0  0  0  0  0  0
  152.9191  139.5813  157.6631 C   0  0  0  0  0  0  0  0  0  0  0  0
  152.6606  140.0121  158.9069 N   0  0  0  0  0  0  0  0  0  0  0  0
  153.6168  140.0036  160.0087 C   0  0  0  0  0  0  0  0  0  0  0  0
  153.9950  141.4311  160.4402 C   0  0  0  0  0  0  0  0  0  0  0  0
  152.8943  142.4600  160.1372 C   0  0  1  0  0  0  0  0  0  0  0  0
  152.4409  143.2054  161.4076 C   0  0  0  0  0  0  0  0  0  0  0  0
  151.4058  144.2819  161.0633 C   0  0  0  0  0  0  0  0  0  0  0  0
  151.9571  145.1949  159.9635 C   0  0  0  0  0  0  0  0  0  0  0  0
  152.4392  144.3585  158.7679 C   0  0  0  0  0  0  0  0  0  0  0  0
  153.4059  143.4056  159.1996 O   0  0  0  0  0  0  0  0  0  0  0  0
  151.8448  139.7014  156.8649 N   0  0  0  0  0  0  0  0  0  0  0  0
  151.7506  139.3398  155.4970 C   0  0  0  0  0  0  0  0  0  0  0  0
  150.7430  139.6039  154.6618 N   0  3  0  0  0  0  0  0  0  0  0  0
  151.0394  139.0826  153.4276 C   0  0  0  0  0  0  0  0  0  0  0  0
  152.2733  138.4932  153.5603 C   0  0  0  0  0  0  0  0  0  0  0  0
  152.7315  138.6472  154.8542 O   0  0  0  0  0  0  0  0  0  0  0  0
  151.7380  140.3679  159.1116 H   0  0  0  0  0  0  0  0  0  0  0  0
  153.2120  139.4397  160.8508 H   0  0  0  0  0  0  0  0  0  0  0  0
  154.5073  139.4683  159.6782 H   0  0  0  0  0  0  0  0  0  0  0  0
  154.2015  141.4335  161.5113 H   0  0  0  0  0  0  0  0  0  0  0  0
  154.9193  141.7376  159.9487 H   0  0  0  0  0  0  0  0  0  0  0  0
  152.0393  141.9435  159.6969 H   0  0  0  0  0  0  0  0  0  0  0  0
  152.0207  142.5042  162.1291 H   0  0  0  0  0  0  0  0  0  0  0  0
  153.3025  143.6703  161.8886 H   0  0  0  0  0  0  0  0  0  0  0  0
  150.4838  143.8101  160.7216 H   0  0  0  0  0  0  0  0  0  0  0  0
  151.1517  144.8636  161.9497 H   0  0  0  0  0  0  0  0  0  0  0  0
  151.1947  145.9064  159.6452 H   0  0  0  0  0  0  0  0  0  0  0  0
  152.7887  145.7814  160.3562 H   0  0  0  0  0  0  0  0  0  0  0  0
  151.6029  143.8508  158.2851 H   0  0  0  0  0  0  0  0  0  0  0  0
  152.8936  145.0056  158.0176 H   0  0  0  0  0  0  0  0  0  0  0  0
  149.8868  140.1039  154.8695 H   0  0  0  0  0  0  0  0  0  0  0  0
  150.3567  139.1812  152.5958 H   0  0  0  0  0  0  0  0  0  0  0  0
  152.9215  137.9591  152.8806 H   0  0  0  0  0  0  0  0  0  0  0  0
  151.0086  140.0880  157.2772 H   0  0  0  0  0  0  0  0  0  0  0  0
  1  2  2  0  0  0  0
  2 12  1  0  0  0  0
  2  3  1  0  0  0  0
  3  4  1  0  0  0  0
  3 18  1  0  0  0  0
  4  5  1  0  0  0  0
  4 19  1  0  0  0  0
  4 20  1  0  0  0  0
  5  6  1  0  0  0  0
  5 21  1  0  0  0  0
  5 22  1  0  0  0  0
  6 11  1  0  0  0  0
  6  7  1  0  0  0  0
  6 23  1  0  0  0  0
  7  8  1  0  0  0  0
  7 24  1  0  0  0  0
  7 25  1  0  0  0  0
  8  9  1  0  0  0  0
  8 26  1  0  0  0  0
  8 27  1  0  0  0  0
  9 10  1  0  0  0  0
  9 28  1  0  0  0  0
  9 29  1  0  0  0  0
 10 11  1  0  0  0  0
 10 30  1  0  0  0  0
 10 31  1  0  0  0  0
 12 13  1  0  0  0  0
 12 35  1  0  0  0  0
 13 17  1  0  0  0  0
 13 14  2  0  0  0  0
 14 32  1  0  0  0  0
 14 15  1  0  0  0  0
 15 33  1  0  0  0  0
 15 16  2  0  0  0  0
 16 34  1  0  0  0  0
 16 17  1  0  0  0  0
M  CHG  1  14   1
M  END
> <s_m_source_file>
AV-unprocessed.smi

> <i_m_source_file_index>
2751

> <i_lp_mmshare_version>
43012

> <i_f3d_flags>
0

> <s_epik_input>
bzFbY0hdW2NIXW5jMVtOSF1DKD1PKVtOSF1bQ0gyXVtDSDJdW0NAQEhdMltDSDJdW0NIMl1bQ0gyXVtDSDJdTzI=

> <s_epik_cmdline>
J2VwaWtfcHl0aG9uJywgJy1waCcsICc3LjAnLCAnLXRuJywgJzgnLCAnLW1hJywgJzIwMCcsICctbWV0YWxfYmluZGluZycsICctaW1hZScsICc8aW5maWxlLm1hZT4nLCAnLW9tYWUnLCAnPG91dGZpbGUubWFlPic=

> <r_epik_Ionization_Penalty>
6.63408

> <r_epik_Ionization_Penalty_Charging>
6.57733

> <r_epik_Ionization_Penalty_Neutral>
0.0567487

> <r_epik_State_Penalty>
1.8175

> <r_epik_Charging_Adjusted_Penalty>
8.39483

> <i_epik_Tot_Q>
1

> <i_epik_Tot_abs_Q>
1

> <r_epik_Metal_State_Penalty>
1.83396

> <b_epik_Metal_Only>
0

> <s_lp_Force_Field>
OPLS_2005

> <r_lp_Energy>
17.5714

> <b_lp_Chiralities_Consistent>
1

> <s_lp_Variant>
AV-unprocessed.smi:2751-4

> <Gold.Version>
5.8.1

> <Gold.Id.Protein>
6NUR|6NUR_protein|mol2

> <Gold.PLP.Fitness>
40.8067

> <Gold.PLP.PLP>
-36.8196

> <Gold.PLP.part.hbond>
-0.9722

> <Gold.PLP.part.metal>
0.0000

> <Gold.PLP.part.buried>
-4.8679

> <Gold.PLP.part.nonpolar>
-31.2316

> <Gold.PLP.part.repulsive>
0.2476

> <Gold.PLP.ligand.clash>
0.0142

> <Gold.PLP.ligand.torsion>
1.0064

> <Gold.PLP.Chemscore.Hbond>
1.0000

> <Gold.PLP.Chemscore.CHOScore>
1.0000

> <Gold.PLP.Chemscore.Metal>
0.0000

> <Gold.PLP.Chemscore.Internal.Correction>
0.0140

> <Gold.Rescore>
     Score         DG    S(hbond)    S(metal)    S(lipo)     H(rot)  DE(clash)    DE(int)     intcor
     13.13     -15.54       0.96        0.00      94.82       1.66       0.00       2.40       ----

> <Gold.Chemscore.Fitness>
13.1333

> <Gold.Chemscore.DG>
-15.5410

> <Gold.Chemscore.ZeroCoef>
-5.4800

> <Gold.Chemscore.Hbond>
0.9611

> <Gold.Chemscore.Metal>
0.0000

> <Gold.Chemscore.Lipo>
94.8204

> <Gold.Chemscore.Internal_Hbond>
0.0000

> <Gold.Chemscore.DEClash>
0.0038

> <Gold.Chemscore.DEInternal>
2.4040

> <Gold.Chemscore.Rot>
1.6575

> <Gold.Chemscore.Internal.Correction>
   9.000000E+99

> <Gold.Chemscore.Hbonds>
donor molecule, donor type, donor heavy atom, donor atom, acceptor molecule, acceptor atom, score
      P1  H  7997  8010       L1     1  0.02

> <Gold.Chemscore.Hbond.Weighted>
-3.2101

> <Gold.Chemscore.Metal.Weighted>
-0.0000

> <Gold.Chemscore.Lipo.Weighted>
-11.0940

> <Gold.Chemscore.Internal_Hbond.Weighted>
0.0000

> <Gold.Chemscore.DEClash.Weighted>
0.0038

> <Gold.Chemscore.DEInternal.Weighted>
2.4040

> <Gold.Chemscore.Rot.Weighted>
4.2431

> <Gold.Chemscore.Internal.Correction.Weighted>
   9.000000E+99

> <Gold.Protein.RotatedTorsions>
[ 6907 6896 6895 6894 ] final   10.64 input  -60.11 | X-H torsion
[ 7974 7965 7964 7962 ] final  150.00 input  175.53 | X-H torsion
[ 8008 7997 7996 7995 ] final   33.11 input   59.86 | X-H torsion
[ 10167 10162 10161 10158 ] final  107.09 input  -65.29 | X-H torsion
[ 10718 10713 10712 10709 ] final   62.35 input   66.30 | X-H torsion
[ 10763 10752 10751 10750 ] final  178.24 input  -60.55 | X-H torsion
[ 11005 11000 10999 10996 ] final  132.56 input  -57.11 | X-H torsion

> <Gold.Protein.ActiveResidues>
 VAL166  LYS551  ARG553  GLY616  TRP617  ASP618  TYR619  PRO620  LYS621  CYS622 
 ASP623  PHE694  ASN695  SER759  ASP760  ASP761  ALA762  ILE779  LEU786  VAL792 
 PHE793  MET794  SER795  GLU796  ALA797  LYS798  CYS799  TRP800  GLU811  SER814 

> <Gold.Protein.RotatedAtoms>
  151.7415  135.0853  160.0316 H   0  0  0  0  0  0  0  0  0  0  0  0  # atno 6907 bound_to 6896
  152.3476  133.6137  159.5930 H   0  0  0  0  0  0  0  0  0  0  0  0  # atno 6908 bound_to 6896
  150.7519  133.9540  159.3536 H   0  0  0  0  0  0  0  0  0  0  0  0  # atno 6909 bound_to 6896
  144.8397  139.6352  143.6022 H   0  0  0  0  0  0  0  0  0  0  0  0  # atno 7974 bound_to 7965
  155.1334  140.3259  155.4469 H   0  0  0  0  0  0  0  0  0  0  0  0  # atno 8008 bound_to 7997
  156.2627  140.2006  156.6401 H   0  0  0  0  0  0  0  0  0  0  0  0  # atno 8009 bound_to 7997
  154.6596  140.0549  157.0033 H   0  0  0  0  0  0  0  0  0  0  0  0  # atno 8010 bound_to 7997
  139.6955  144.7102  151.1274 H   0  0  0  0  0  0  0  0  0  0  0  0  # atno 10167 bound_to 10162
  157.5894  130.9045  149.9577 H   0  0  0  0  0  0  0  0  0  0  0  0  # atno 10718 bound_to 10713
  154.5051  135.2785  155.1389 H   0  0  0  0  0  0  0  0  0  0  0  0  # atno 10763 bound_to 10752
  154.3007  135.6248  153.5427 H   0  0  0  0  0  0  0  0  0  0  0  0  # atno 10764 bound_to 10752
  152.9909  135.5696  154.5503 H   0  0  0  0  0  0  0  0  0  0  0  0  # atno 10765 bound_to 10752
  139.9798  134.9552  156.9599 H   0  0  0  0  0  0  0  0  0  0  0  0  # atno 11005 bound_to 11000
  146.2691  139.6591  142.9309 LP  0  0  0  0  0  0  0  0  0  0  0  0  # atno 17320 bound_to 7965
  145.4721  141.0436  143.2693 LP  0  0  0  0  0  0  0  0  0  0  0  0  # atno 17321 bound_to 7965
  140.7695  143.5497  150.9218 LP  0  0  0  0  0  0  0  0  0  0  0  0  # atno 17342 bound_to 10162
  139.9177  143.6644  152.3103 LP  0  0  0  0  0  0  0  0  0  0  0  0  # atno 17343 bound_to 10162
  156.0947  130.3660  150.0328 LP  0  0  0  0  0  0  0  0  0  0  0  0  # atno 17370 bound_to 10713
  156.8454  130.9440  151.3629 LP  0  0  0  0  0  0  0  0  0  0  0  0  # atno 17371 bound_to 10713
  140.5121  134.0992  155.7272 LP  0  0  0  0  0  0  0  0  0  0  0  0  # atno 17394 bound_to 11000
  141.1471  133.9036  157.2189 LP  0  0  0  0  0  0  0  0  0  0  0  0  # atno 17395 bound_to 11000

$$$$
