AV-unprocessed.smi:1638|AV-procd|sdf|6547|dock3
  -GOLD-   22720 7233D 1   1.00000     0.00000
 Structure written by MMmdl.
 40 41  0  0  0  0  0  0  0  0  3 V2000
  147.0714  135.3562  162.0424 C   0  0  0  0  0  0  0  0  0  0  0  0
  147.7900  135.9244  160.8668 C   0  0  0  0  0  0  0  0  0  0  0  0
  148.1244  137.2143  160.7770 N   0  0  0  0  0  0  0  0  0  0  0  0
  148.7871  137.5003  159.5930 N   0  0  0  0  0  0  0  0  0  0  0  0
  148.9587  136.4227  158.8131 C   0  0  0  0  0  0  0  0  0  0  0  0
  149.5942  136.4873  157.6318 N   0  5  0  0  0  0  0  0  0  0  0  0
  149.5156  137.6164  156.8951 C   0  0  0  0  0  0  0  0  0  0  0  0
  148.9376  137.7417  155.8135 O   0  0  0  0  0  0  0  0  0  0  0  0
  150.1928  138.6494  157.4162 N   0  0  0  0  0  0  0  0  0  0  0  0
  150.4878  139.9117  156.7397 C   0  0  0  0  0  0  0  0  0  0  0  0
  149.8185  141.0985  157.4635 C   0  0  0  0  0  0  0  0  0  0  0  0
  150.8090  141.9685  158.1548 N   0  3  0  0  0  0  0  0  0  0  0  0
  151.4288  143.0083  157.2956 C   0  0  0  0  0  0  0  0  0  0  0  0
  151.3883  144.3667  158.0162 C   0  0  0  0  0  0  0  0  0  0  0  0
  152.4175  144.5213  159.1471 C   0  0  0  0  0  0  0  0  0  0  0  0
  152.3661  143.4197  160.2205 C   0  0  0  0  0  0  0  0  0  0  0  0
  152.8459  142.0563  159.6916 C   0  0  0  0  0  0  0  0  0  0  0  0
  151.7685  141.2013  158.9926 C   0  0  0  0  0  0  0  0  0  0  0  0
  148.2725  134.9474  159.4900 S   0  0  0  0  0  0  0  0  0  0  0  0
  147.7898  135.0254  162.7927 H   0  0  0  0  0  0  0  0  0  0  0  0
  146.4653  134.5032  161.7368 H   0  0  0  0  0  0  0  0  0  0  0  0
  146.4171  136.1062  162.4879 H   0  0  0  0  0  0  0  0  0  0  0  0
  150.6273  138.5049  158.3165 H   0  0  0  0  0  0  0  0  0  0  0  0
  151.5638  140.0678  156.6507 H   0  0  0  0  0  0  0  0  0  0  0  0
  150.1100  139.8462  155.7192 H   0  0  0  0  0  0  0  0  0  0  0  0
  149.2109  141.6850  156.7732 H   0  0  0  0  0  0  0  0  0  0  0  0
  149.1232  140.6699  158.1857 H   0  0  0  0  0  0  0  0  0  0  0  0
  152.4417  142.7330  156.9990 H   0  0  0  0  0  0  0  0  0  0  0  0
  150.8720  143.1207  156.3654 H   0  0  0  0  0  0  0  0  0  0  0  0
  151.5651  145.1576  157.2866 H   0  0  0  0  0  0  0  0  0  0  0  0
  150.3845  144.5434  158.4063 H   0  0  0  0  0  0  0  0  0  0  0  0
  153.4207  144.5681  158.7221 H   0  0  0  0  0  0  0  0  0  0  0  0
  152.2555  145.4864  159.6287 H   0  0  0  0  0  0  0  0  0  0  0  0
  153.0250  143.7205  161.0356 H   0  0  0  0  0  0  0  0  0  0  0  0
  151.3701  143.3445  160.6576 H   0  0  0  0  0  0  0  0  0  0  0  0
  153.6935  142.2052  159.0219 H   0  0  0  0  0  0  0  0  0  0  0  0
  153.2423  141.4748  160.5247 H   0  0  0  0  0  0  0  0  0  0  0  0
  151.2024  140.6629  159.7524 H   0  0  0  0  0  0  0  0  0  0  0  0
  152.2605  140.4414  158.3843 H   0  0  0  0  0  0  0  0  0  0  0  0
  150.2503  142.5029  158.8064 H   0  0  0  0  0  0  0  0  0  0  0  0
  1  2  1  0  0  0  0
  1 20  1  0  0  0  0
  1 21  1  0  0  0  0
  1 22  1  0  0  0  0
  2 19  1  0  0  0  0
  2  3  2  0  0  0  0
  3  4  1  0  0  0  0
  4  5  2  0  0  0  0
  5  6  1  0  0  0  0
  5 19  1  0  0  0  0
  6  7  1  0  0  0  0
  7  8  2  0  0  0  0
  7  9  1  0  0  0  0
  9 10  1  0  0  0  0
  9 23  1  0  0  0  0
 10 11  1  0  0  0  0
 10 24  1  0  0  0  0
 10 25  1  0  0  0  0
 11 12  1  0  0  0  0
 11 26  1  0  0  0  0
 11 27  1  0  0  0  0
 12 18  1  0  0  0  0
 12 13  1  0  0  0  0
 12 40  1  0  0  0  0
 13 14  1  0  0  0  0
 13 28  1  0  0  0  0
 13 29  1  0  0  0  0
 14 15  1  0  0  0  0
 14 30  1  0  0  0  0
 14 31  1  0  0  0  0
 15 16  1  0  0  0  0
 15 32  1  0  0  0  0
 15 33  1  0  0  0  0
 16 17  1  0  0  0  0
 16 34  1  0  0  0  0
 16 35  1  0  0  0  0
 17 18  1  0  0  0  0
 17 36  1  0  0  0  0
 17 37  1  0  0  0  0
 18 38  1  0  0  0  0
 18 39  1  0  0  0  0
M  CHG  1   6  -1
M  CHG  1  12   1
M  END
> <s_m_source_file>
AV-unprocessed.smi

> <i_m_source_file_index>
1638

> <i_lp_mmshare_version>
43012

> <i_f3d_flags>
0

> <s_epik_input>
W0NIM11jMW5uYyhzMSlbTkhdQyg9TylbTkhdW0NIMl1bQ0gyXU4yW0NIMl1bQ0gyXVtDSDJdW0NIMl1bQ0gyXVtDSDJdMg==

> <s_epik_cmdline>
J2VwaWtfcHl0aG9uJywgJy1waCcsICc3LjAnLCAnLXRuJywgJzgnLCAnLW1hJywgJzIwMCcsICctbWV0YWxfYmluZGluZycsICctaW1hZScsICc8aW5maWxlLm1hZT4nLCAnLW9tYWUnLCAnPG91dGZpbGUubWFlPic=

> <r_lp_tautomer_probability>
1

> <r_epik_Ionization_Penalty>
3.03755

> <r_epik_Ionization_Penalty_Charging>
2.92994

> <r_epik_Ionization_Penalty_Neutral>
0.107609

> <r_epik_State_Penalty>
2.92594

> <r_epik_Charging_Adjusted_Penalty>
5.85589

> <i_epik_Tot_Q>
0

> <i_epik_Tot_abs_Q>
2

> <r_epik_Metal_State_Penalty>
0.448256

> <b_epik_Metal_Only>
1

> <s_lp_Force_Field>
OPLS_2005

> <r_lp_Energy>
18.025

> <b_lp_Chiralities_Consistent>
1

> <s_lp_Variant>
AV-unprocessed.smi:1638-2

> <Gold.Version>
5.8.1

> <Gold.Id.Protein>
6NUR|6NUR_protein|mol2

> <Gold.PLP.Fitness>
36.6530

> <Gold.PLP.PLP>
-35.2617

> <Gold.PLP.part.hbond>
-3.6719

> <Gold.PLP.part.metal>
0.0000

> <Gold.PLP.part.buried>
-4.0348

> <Gold.PLP.part.nonpolar>
-27.7061

> <Gold.PLP.part.repulsive>
0.1399

> <Gold.PLP.ligand.clash>
0.0000

> <Gold.PLP.ligand.torsion>
1.3882

> <Gold.PLP.Chemscore.Hbond>
1.3472

> <Gold.PLP.Chemscore.CHOScore>
0.0000

> <Gold.PLP.Chemscore.Metal>
0.0000

> <Gold.Chemscore.Hbonds>
donor molecule, donor type, donor heavy atom, donor atom, acceptor molecule, acceptor atom, score
      P1  H  6931  6943       L1     3  0.81
      P1  H  6934  6947       L1     3  0.51

> <Gold.PLP.Chemscore.Internal.Correction>
0.1260

> <Gold.Rescore>
     Score         DG    S(hbond)    S(metal)    S(lipo)     H(rot)  DE(clash)    DE(int)     intcor
     13.65     -14.97       0.74        0.00      94.25       1.57       0.02       1.30       ----

> <Gold.Chemscore.Fitness>
13.6463

> <Gold.Chemscore.DG>
-14.9719

> <Gold.Chemscore.ZeroCoef>
-5.4800

> <Gold.Chemscore.Hbond>
0.7425

> <Gold.Chemscore.Metal>
0.0000

> <Gold.Chemscore.Lipo>
94.2523

> <Gold.Chemscore.Internal_Hbond>
0.0000

> <Gold.Chemscore.DEClash>
0.0211

> <Gold.Chemscore.DEInternal>
1.3044

> <Gold.Chemscore.Rot>
1.5686

> <Gold.Chemscore.Internal.Correction>
   9.000000E+99

> <Gold.Chemscore.Hbonds>
donor molecule, donor type, donor heavy atom, donor atom, acceptor molecule, acceptor atom, score
      P1  H  6931  6943       L1     3  0.18
      P1  H  6934  6947       L1     3  0.06

> <Gold.Chemscore.Hbond.Weighted>
-2.4801

> <Gold.Chemscore.Metal.Weighted>
-0.0000

> <Gold.Chemscore.Lipo.Weighted>
-11.0275

> <Gold.Chemscore.Internal_Hbond.Weighted>
0.0000

> <Gold.Chemscore.DEClash.Weighted>
0.0211

> <Gold.Chemscore.DEInternal.Weighted>
1.3044

> <Gold.Chemscore.Rot.Weighted>
4.0157

> <Gold.Chemscore.Internal.Correction.Weighted>
   9.000000E+99

> <Gold.Protein.RotatedTorsions>
[ 6907 6896 6895 6894 ] final   37.22 input  -60.11 | X-H torsion
[ 7974 7965 7964 7962 ] final  124.45 input  175.53 | X-H torsion
[ 8008 7997 7996 7995 ] final   32.97 input   59.86 | X-H torsion
[ 10167 10162 10161 10158 ] final -173.38 input  -65.29 | X-H torsion
[ 10718 10713 10712 10709 ] final   16.18 input   66.30 | X-H torsion
[ 10763 10752 10751 10750 ] final -177.80 input  -60.55 | X-H torsion
[ 11005 11000 10999 10996 ] final -122.52 input  -57.11 | X-H torsion

> <Gold.Protein.ActiveResidues>
 VAL166  LYS551  ARG553  GLY616  TRP617  ASP618  TYR619  PRO620  LYS621  CYS622 
 ASP623  PHE694  ASN695  SER759  ASP760  ASP761  ALA762  ILE779  LEU786  VAL792 
 PHE793  MET794  SER795  GLU796  ALA797  LYS798  CYS799  TRP800  GLU811  SER814 

> <Gold.Protein.RotatedAtoms>
  152.1403  134.9068  160.0553 H   0  0  0  0  0  0  0  0  0  0  0  0  # atno 6907 bound_to 6896
  152.0138  133.3867  159.4239 H   0  0  0  0  0  0  0  0  0  0  0  0  # atno 6908 bound_to 6896
  150.6864  134.3622  159.4999 H   0  0  0  0  0  0  0  0  0  0  0  0  # atno 6909 bound_to 6896
  145.0842  139.3634  143.4893 H   0  0  0  0  0  0  0  0  0  0  0  0  # atno 7974 bound_to 7965
  155.1311  140.3257  155.4474 H   0  0  0  0  0  0  0  0  0  0  0  0  # atno 8008 bound_to 7997
  156.2634  140.2010  156.6379 H   0  0  0  0  0  0  0  0  0  0  0  0  # atno 8009 bound_to 7997
  154.6612  140.0547  157.0050 H   0  0  0  0  0  0  0  0  0  0  0  0  # atno 8010 bound_to 7997
  139.5691  144.1683  152.1358 H   0  0  0  0  0  0  0  0  0  0  0  0  # atno 10167 bound_to 10162
  157.0642  130.6321  149.5792 H   0  0  0  0  0  0  0  0  0  0  0  0  # atno 10718 bound_to 10713
  154.5556  135.2816  155.0968 H   0  0  0  0  0  0  0  0  0  0  0  0  # atno 10763 bound_to 10752
  154.2397  135.6359  153.5206 H   0  0  0  0  0  0  0  0  0  0  0  0  # atno 10764 bound_to 10752
  153.0015  135.5557  154.6135 H   0  0  0  0  0  0  0  0  0  0  0  0  # atno 10765 bound_to 10752
  140.9989  134.0431  157.3562 H   0  0  0  0  0  0  0  0  0  0  0  0  # atno 11005 bound_to 11000
  146.3531  140.0647  142.8627 LP  0  0  0  0  0  0  0  0  0  0  0  0  # atno 17320 bound_to 7965
  145.1141  140.9423  143.4639 LP  0  0  0  0  0  0  0  0  0  0  0  0  # atno 17321 bound_to 7965
  140.1212  144.5371  150.6861 LP  0  0  0  0  0  0  0  0  0  0  0  0  # atno 17342 bound_to 10162
  140.6976  143.2413  151.4957 LP  0  0  0  0  0  0  0  0  0  0  0  0  # atno 17343 bound_to 10162
  155.9969  130.5040  150.7516 LP  0  0  0  0  0  0  0  0  0  0  0  0  # atno 17370 bound_to 10713
  157.4930  131.0912  151.0404 LP  0  0  0  0  0  0  0  0  0  0  0  0  # atno 17371 bound_to 10713
  139.9028  135.0170  156.7351 LP  0  0  0  0  0  0  0  0  0  0  0  0  # atno 17394 bound_to 11000
  140.6921  133.9381  155.7972 LP  0  0  0  0  0  0  0  0  0  0  0  0  # atno 17395 bound_to 11000

$$$$
