AV-unprocessed.smi:3055|AV-procd|sdf|11641|dock1
  -GOLD-   2272017 33D 1   1.00000     0.00000
 Structure written by MMmdl.
 48 50  0  0  0  0  0  0  0  0  3 V2000
  146.3969  136.7202  155.5486 O   0  0  0  0  0  0  0  0  0  0  0  0
  147.4536  136.4888  154.9613 C   0  0  0  0  0  0  0  0  0  0  0  0
  147.4971  135.7414  153.8469 N   0  0  0  0  0  0  0  0  0  0  0  0
  146.3372  135.1229  153.2169 C   0  0  0  0  0  0  0  0  0  0  0  0
  146.7524  133.9481  152.3174 C   0  0  0  0  0  0  0  0  0  0  0  0
  145.7252  133.6114  151.3265 N   0  0  0  0  0  0  0  0  0  0  0  0
  145.8079  132.6678  150.3346 C   0  0  0  0  0  0  0  0  0  0  0  0
  144.6139  132.7022  149.6616 C   0  0  0  0  0  0  0  0  0  0  0  0
  143.8514  133.6609  150.2735 N   0  3  0  0  0  0  0  0  0  0  0  0
  144.5278  134.2110  151.2872 C   0  0  0  0  0  0  0  0  0  0  0  0
  148.6519  136.9837  155.3634 N   0  0  0  0  0  0  0  0  0  0  0  0
  149.9692  136.6556  154.7906 C   0  0  0  0  0  0  0  0  0  0  0  0
  150.5561  137.9152  154.1321 C   0  0  0  0  0  0  0  0  0  0  0  0
  150.6285  139.0789  155.1392 C   0  0  0  0  0  0  0  0  0  0  0  0
  149.2722  139.3332  155.8488 C   0  0  1  0  0  0  0  0  0  0  0  0
  148.2702  139.9656  154.9401 N   0  3  0  0  0  0  0  0  0  0  0  0
  146.9867  140.3351  155.5749 C   0  0  0  0  0  0  0  0  0  0  0  0
  146.3431  141.3226  154.6097 C   0  0  0  0  0  0  0  0  0  0  0  0
  147.5306  142.1165  154.0758 C   0  0  0  0  0  0  0  0  0  0  0  0
  148.7362  141.1761  154.2181 C   0  0  0  0  0  0  0  0  0  0  0  0
  148.7702  137.9870  156.4337 C   0  0  0  0  0  0  0  0  0  0  0  0
  148.3934  135.5993  153.4050 H   0  0  0  0  0  0  0  0  0  0  0  0
  145.6322  134.7845  153.9783 H   0  0  0  0  0  0  0  0  0  0  0  0
  145.8207  135.8759  152.6198 H   0  0  0  0  0  0  0  0  0  0  0  0
  147.6612  134.1989  151.7692 H   0  0  0  0  0  0  0  0  0  0  0  0
  146.9756  133.0610  152.9125 H   0  0  0  0  0  0  0  0  0  0  0  0
  146.6882  132.0593  150.1843 H   0  0  0  0  0  0  0  0  0  0  0  0
  144.2586  132.1299  148.8169 H   0  0  0  0  0  0  0  0  0  0  0  0
  144.1742  134.9867  151.9430 H   0  0  0  0  0  0  0  0  0  0  0  0
  150.6281  136.3152  155.5911 H   0  0  0  0  0  0  0  0  0  0  0  0
  149.9536  135.8392  154.0688 H   0  0  0  0  0  0  0  0  0  0  0  0
  151.5512  137.7019  153.7408 H   0  0  0  0  0  0  0  0  0  0  0  0
  149.9430  138.2029  153.2771 H   0  0  0  0  0  0  0  0  0  0  0  0
  151.3693  138.8251  155.8986 H   0  0  0  0  0  0  0  0  0  0  0  0
  151.0152  139.9743  154.6538 H   0  0  0  0  0  0  0  0  0  0  0  0
  149.4452  140.0266  156.6733 H   0  0  0  0  0  0  0  0  0  0  0  0
  146.3454  139.4741  155.7551 H   0  0  0  0  0  0  0  0  0  0  0  0
  147.1752  140.8235  156.5323 H   0  0  0  0  0  0  0  0  0  0  0  0
  145.8629  140.7812  153.7934 H   0  0  0  0  0  0  0  0  0  0  0  0
  145.5896  141.9513  155.0854 H   0  0  0  0  0  0  0  0  0  0  0  0
  147.3758  142.4430  153.0468 H   0  0  0  0  0  0  0  0  0  0  0  0
  147.6849  143.0083  154.6851 H   0  0  0  0  0  0  0  0  0  0  0  0
  149.5260  141.6864  154.7715 H   0  0  0  0  0  0  0  0  0  0  0  0
  149.1391  140.8913  153.2455 H   0  0  0  0  0  0  0  0  0  0  0  0
  147.8440  138.1243  156.9923 H   0  0  0  0  0  0  0  0  0  0  0  0
  149.4847  137.6234  157.1739 H   0  0  0  0  0  0  0  0  0  0  0  0
  148.0430  139.2871  154.2275 H   0  0  0  0  0  0  0  0  0  0  0  0
  142.9094  133.9150  150.0029 H   0  0  0  0  0  0  0  0  0  0  0  0
  1  2  2  0  0  0  0
  2  3  1  0  0  0  0
  2 11  1  0  0  0  0
  3  4  1  0  0  0  0
  3 22  1  0  0  0  0
  4  5  1  0  0  0  0
  4 23  1  0  0  0  0
  4 24  1  0  0  0  0
  5  6  1  0  0  0  0
  5 25  1  0  0  0  0
  5 26  1  0  0  0  0
  6 10  1  0  0  0  0
  6  7  1  0  0  0  0
  7  8  2  0  0  0  0
  7 27  1  0  0  0  0
  8  9  1  0  0  0  0
  8 28  1  0  0  0  0
  9 10  2  0  0  0  0
  9 48  1  0  0  0  0
 10 29  1  0  0  0  0
 11 21  1  0  0  0  0
 11 12  1  0  0  0  0
 12 13  1  0  0  0  0
 12 30  1  0  0  0  0
 12 31  1  0  0  0  0
 13 14  1  0  0  0  0
 13 32  1  0  0  0  0
 13 33  1  0  0  0  0
 14 15  1  0  0  0  0
 14 34  1  0  0  0  0
 14 35  1  0  0  0  0
 15 16  1  0  0  0  0
 15 21  1  0  0  0  0
 15 36  1  0  0  0  0
 16 20  1  0  0  0  0
 16 17  1  0  0  0  0
 16 47  1  0  0  0  0
 17 18  1  0  0  0  0
 17 37  1  0  0  0  0
 17 38  1  0  0  0  0
 18 19  1  0  0  0  0
 18 39  1  0  0  0  0
 18 40  1  0  0  0  0
 19 20  1  0  0  0  0
 19 41  1  0  0  0  0
 19 42  1  0  0  0  0
 20 43  1  0  0  0  0
 20 44  1  0  0  0  0
 21 45  1  0  0  0  0
 21 46  1  0  0  0  0
M  CHG  1   9   1
M  CHG  1  16   1
M  END
> <s_m_source_file>
AV-unprocessed.smi

> <i_m_source_file_index>
3055

> <i_lp_mmshare_version>
43012

> <i_f3d_flags>
0

> <s_epik_input>
W2NIXTFuW2NIXVtjSF1uMVtDSDJdW0NIMl1bTkhdQyg9TylOMltDSDJdW0NIMl1bQ0gyXVtDQEhdKFtDSDJdMilOM1tDSDJdW0NIMl1bQ0gyXVtDSDJdMw==

> <s_epik_cmdline>
J2VwaWtfcHl0aG9uJywgJy1waCcsICc3LjAnLCAnLXRuJywgJzgnLCAnLW1hJywgJzIwMCcsICctbWV0YWxfYmluZGluZycsICctaW1hZScsICc8aW5maWxlLm1hZT4nLCAnLW9tYWUnLCAnPG91dGZpbGUubWFlPic=

> <r_lp_tautomer_probability>
1

> <r_epik_Ionization_Penalty>
0.259176

> <r_epik_Ionization_Penalty_Charging>
0.00125522

> <r_epik_Ionization_Penalty_Neutral>
0.257921

> <r_epik_State_Penalty>
0.249312

> <r_epik_Charging_Adjusted_Penalty>
0.250567

> <i_epik_Tot_Q>
2

> <i_epik_Tot_abs_Q>
2

> <r_epik_Metal_State_Penalty>
0.53666

> <b_epik_Metal_Only>
0

> <s_lp_Force_Field>
OPLS_2005

> <r_lp_Energy>
71.9504

> <b_lp_Chiralities_Consistent>
1

> <s_lp_Variant>
AV-unprocessed.smi:3055-1

> <Gold.Version>
5.8.1

> <Gold.Id.Protein>
6NUR|6NUR_protein|mol2

> <Gold.PLP.Fitness>
38.9851

> <Gold.PLP.PLP>
-29.0897

> <Gold.PLP.part.hbond>
-1.9645

> <Gold.PLP.part.metal>
0.0000

> <Gold.PLP.part.buried>
-2.3428

> <Gold.PLP.part.nonpolar>
-25.2442

> <Gold.PLP.part.repulsive>
0.0562

> <Gold.PLP.ligand.clash>
0.0000

> <Gold.PLP.ligand.torsion>
0.3287

> <Gold.PLP.Chemscore.Hbond>
2.6080

> <Gold.PLP.Chemscore.CHOScore>
0.8694

> <Gold.PLP.Chemscore.Metal>
0.0000

> <Gold.Chemscore.Hbonds>
donor molecule, donor type, donor heavy atom, donor atom, acceptor molecule, acceptor atom, score
      L1  H     3    22       P1  7948  0.59
      L1  H     9    48       P1 10186  2.00
      L1  C     7    27       P1 10747  0.88

> <Gold.PLP.Chemscore.Internal.Correction>
0.1207

> <Gold.Rescore>
     Score         DG    S(hbond)    S(metal)    S(lipo)     H(rot)  DE(clash)    DE(int)     intcor
     14.31     -14.82       1.70        0.00      72.18       1.87       0.13       0.38       ----

> <Gold.Chemscore.Fitness>
14.3077

> <Gold.Chemscore.DG>
-14.8177

> <Gold.Chemscore.ZeroCoef>
-5.4800

> <Gold.Chemscore.Hbond>
1.7029

> <Gold.Chemscore.Metal>
0.0000

> <Gold.Chemscore.Lipo>
72.1824

> <Gold.Chemscore.Internal_Hbond>
0.0000

> <Gold.Chemscore.DEClash>
0.1265

> <Gold.Chemscore.DEInternal>
0.3835

> <Gold.Chemscore.Rot>
1.8732

> <Gold.Chemscore.Internal.Correction>
   9.000000E+99

> <Gold.Chemscore.Hbonds>
donor molecule, donor type, donor heavy atom, donor atom, acceptor molecule, acceptor atom, score
      L1  H     3    22       P1  7948  0.58
      L1  H     9    48       P1 10186  0.94

> <Gold.Chemscore.Hbond.Weighted>
-5.6878

> <Gold.Chemscore.Metal.Weighted>
-0.0000

> <Gold.Chemscore.Lipo.Weighted>
-8.4453

> <Gold.Chemscore.Internal_Hbond.Weighted>
0.0000

> <Gold.Chemscore.DEClash.Weighted>
0.1265

> <Gold.Chemscore.DEInternal.Weighted>
0.3835

> <Gold.Chemscore.Rot.Weighted>
4.7954

> <Gold.Chemscore.Internal.Correction.Weighted>
   9.000000E+99

> <Gold.Protein.RotatedTorsions>
[ 6907 6896 6895 6894 ] final   53.09 input  -60.11 | X-H torsion
[ 7974 7965 7964 7962 ] final  -35.23 input  175.53 | X-H torsion
[ 8008 7997 7996 7995 ] final  174.08 input   59.86 | X-H torsion
[ 10167 10162 10161 10158 ] final -109.21 input  -65.29 | X-H torsion
[ 10718 10713 10712 10709 ] final  -58.75 input   66.30 | X-H torsion
[ 10763 10752 10751 10750 ] final -106.69 input  -60.55 | X-H torsion
[ 11005 11000 10999 10996 ] final  143.94 input  -57.11 | X-H torsion

> <Gold.Protein.ActiveResidues>
 VAL166  LYS551  ARG553  GLY616  TRP617  ASP618  TYR619  PRO620  LYS621  CYS622 
 ASP623  PHE694  ASN695  SER759  ASP760  ASP761  ALA762  ILE779  LEU786  VAL792 
 PHE793  MET794  SER795  GLU796  ALA797  LYS798  CYS799  TRP800  GLU811  SER814 

> <Gold.Protein.RotatedAtoms>
  152.3301  134.7270  160.0291 H   0  0  0  0  0  0  0  0  0  0  0  0  # atno 6907 bound_to 6896
  151.7690  133.3334  159.3447 H   0  0  0  0  0  0  0  0  0  0  0  0  # atno 6908 bound_to 6896
  150.7418  134.5968  159.6060 H   0  0  0  0  0  0  0  0  0  0  0  0  # atno 6909 bound_to 6896
  146.0764  140.6134  142.8929 H   0  0  0  0  0  0  0  0  0  0  0  0  # atno 7974 bound_to 7965
  156.1010  140.1443  156.9467 H   0  0  0  0  0  0  0  0  0  0  0  0  # atno 8008 bound_to 7997
  154.4703  140.0912  156.7171 H   0  0  0  0  0  0  0  0  0  0  0  0  # atno 8009 bound_to 7997
  155.4759  140.3443  155.4335 H   0  0  0  0  0  0  0  0  0  0  0  0  # atno 8010 bound_to 7997
  140.1578  143.4145  152.1448 H   0  0  0  0  0  0  0  0  0  0  0  0  # atno 10167 bound_to 10162
  156.1112  130.4175  150.0621 H   0  0  0  0  0  0  0  0  0  0  0  0  # atno 10718 bound_to 10713
  154.8028  135.4703  154.0318 H   0  0  0  0  0  0  0  0  0  0  0  0  # atno 10763 bound_to 10752
  153.1810  135.6840  153.8485 H   0  0  0  0  0  0  0  0  0  0  0  0  # atno 10764 bound_to 10752
  153.8036  135.3226  155.3370 H   0  0  0  0  0  0  0  0  0  0  0  0  # atno 10765 bound_to 10752
  140.0593  134.9213  157.1155 H   0  0  0  0  0  0  0  0  0  0  0  0  # atno 11005 bound_to 11000
  144.7264  140.4538  143.6970 LP  0  0  0  0  0  0  0  0  0  0  0  0  # atno 17320 bound_to 7965
  145.6299  139.1535  143.2975 LP  0  0  0  0  0  0  0  0  0  0  0  0  # atno 17321 bound_to 7965
  139.5395  144.7243  151.4780 LP  0  0  0  0  0  0  0  0  0  0  0  0  # atno 17342 bound_to 10162
  140.6662  143.8392  150.6945 LP  0  0  0  0  0  0  0  0  0  0  0  0  # atno 17343 bound_to 10162
  156.8583  130.9483  151.3620 LP  0  0  0  0  0  0  0  0  0  0  0  0  # atno 17370 bound_to 10713
  157.6293  130.8716  149.9245 LP  0  0  0  0  0  0  0  0  0  0  0  0  # atno 17371 bound_to 10713
  140.3795  134.2302  155.7172 LP  0  0  0  0  0  0  0  0  0  0  0  0  # atno 17394 bound_to 11000
  141.1966  133.8079  157.0665 LP  0  0  0  0  0  0  0  0  0  0  0  0  # atno 17395 bound_to 11000

$$$$
