AV-unprocessed.smi:3252|AV-procd|sdf|12444|dock9
  -GOLD-   2272018333D 1   1.00000     0.00000
 Structure written by MMmdl.
 36 37  0  0  0  0  0  0  0  0  1 V2000
  152.2045  145.3747  159.1733 C   0  0  0  0  0  0  0  0  0  0  0  0
  151.1935  144.4898  159.9165 C   0  0  0  0  0  0  0  0  0  0  0  0
  151.7785  143.3743  160.6580 N   0  0  0  0  0  0  0  0  0  0  0  0
  152.3838  143.7952  161.9192 C   0  0  0  0  0  0  0  0  0  0  0  0
  153.0285  142.6159  162.6677 C   0  0  0  0  0  0  0  0  0  0  0  0
  153.9786  141.9740  161.8232 O   0  0  0  0  0  0  0  0  0  0  0  0
  153.4082  141.4937  160.6078 C   0  0  2  0  0  0  0  0  0  0  0  0
  154.5117  140.8197  159.7818 C   0  0  0  0  0  0  0  0  0  0  0  0
  155.4986  140.1694  160.6323 N   0  0  0  0  0  0  0  0  0  0  0  0
  155.1581  139.0470  161.3989 C   0  0  0  0  0  0  0  0  0  0  0  0
  154.0565  138.2628  160.9962 C   0  0  0  0  0  0  0  0  0  0  0  0
  153.7125  137.1305  161.7605 C   0  0  0  0  0  0  0  0  0  0  0  0
  154.4807  136.8228  162.9008 C   0  0  0  0  0  0  0  0  0  0  0  0
  154.1667  135.6653  163.7209 C   0  0  0  0  0  0  0  0  0  0  0  0
  153.9164  134.7434  164.3738 N   0  0  0  0  0  0  0  0  0  0  0  0
  155.5624  137.6667  163.2252 C   0  0  0  0  0  0  0  0  0  0  0  0
  155.8975  138.7527  162.4955 N   0  0  0  0  0  0  0  0  0  0  0  0
  152.7859  142.6871  159.8575 C   0  0  0  0  0  0  0  0  0  0  0  0
  151.7049  146.2382  158.7340 H   0  0  0  0  0  0  0  0  0  0  0  0
  152.6979  144.8393  158.3623 H   0  0  0  0  0  0  0  0  0  0  0  0
  152.9733  145.7474  159.8507 H   0  0  0  0  0  0  0  0  0  0  0  0
  150.6526  145.1300  160.6148 H   0  0  0  0  0  0  0  0  0  0  0  0
  150.4477  144.1177  159.2127 H   0  0  0  0  0  0  0  0  0  0  0  0
  153.1402  144.5582  161.7296 H   0  0  0  0  0  0  0  0  0  0  0  0
  151.6342  144.2505  162.5655 H   0  0  0  0  0  0  0  0  0  0  0  0
  153.5324  142.9680  163.5679 H   0  0  0  0  0  0  0  0  0  0  0  0
  152.2705  141.8979  162.9847 H   0  0  0  0  0  0  0  0  0  0  0  0
  152.6274  140.7646  160.8333 H   0  0  0  0  0  0  0  0  0  0  0  0
  154.0664  140.0650  159.1323 H   0  0  0  0  0  0  0  0  0  0  0  0
  155.0027  141.5505  159.1379 H   0  0  0  0  0  0  0  0  0  0  0  0
  156.4304  140.5555  160.6830 H   0  0  0  0  0  0  0  0  0  0  0  0
  153.4843  138.5198  160.1167 H   0  0  0  0  0  0  0  0  0  0  0  0
  152.8743  136.5129  161.4711 H   0  0  0  0  0  0  0  0  0  0  0  0
  156.1791  137.4698  164.0905 H   0  0  0  0  0  0  0  0  0  0  0  0
  152.3367  142.3322  158.9291 H   0  0  0  0  0  0  0  0  0  0  0  0
  153.5728  143.3878  159.5734 H   0  0  0  0  0  0  0  0  0  0  0  0
  1  2  1  0  0  0  0
  1 19  1  0  0  0  0
  1 20  1  0  0  0  0
  1 21  1  0  0  0  0
  2  3  1  0  0  0  0
  2 22  1  0  0  0  0
  2 23  1  0  0  0  0
  3 18  1  0  0  0  0
  3  4  1  0  0  0  0
  4  5  1  0  0  0  0
  4 24  1  0  0  0  0
  4 25  1  0  0  0  0
  5  6  1  0  0  0  0
  5 26  1  0  0  0  0
  5 27  1  0  0  0  0
  6  7  1  0  0  0  0
  7  8  1  0  0  0  0
  7 18  1  0  0  0  0
  7 28  1  0  0  0  0
  8  9  1  0  0  0  0
  8 29  1  0  0  0  0
  8 30  1  0  0  0  0
  9 10  1  0  0  0  0
  9 31  1  0  0  0  0
 10 17  1  0  0  0  0
 10 11  2  0  0  0  0
 11 12  1  0  0  0  0
 11 32  1  0  0  0  0
 12 13  2  0  0  0  0
 12 33  1  0  0  0  0
 13 14  1  0  0  0  0
 13 16  1  0  0  0  0
 14 15  3  0  0  0  0
 16 17  2  0  0  0  0
 16 34  1  0  0  0  0
 18 35  1  0  0  0  0
 18 36  1  0  0  0  0
M  END
> <s_m_source_file>
AV-unprocessed.smi

> <i_m_source_file_index>
3252

> <i_lp_mmshare_version>
43012

> <i_f3d_flags>
0

> <s_epik_input>
W0NIM11bQ0gyXU4xW0NIMl1bQ0gyXU9bQ0BIXShbQ0gyXTEpW0NIMl1bTkhdYzJbY0hdW2NIXWMoQyNOKVtjSF1uMg==

> <s_epik_cmdline>
J2VwaWtfcHl0aG9uJywgJy1waCcsICc3LjAnLCAnLXRuJywgJzgnLCAnLW1hJywgJzIwMCcsICctbWV0YWxfYmluZGluZycsICctaW1hZScsICc8aW5maWxlLm1hZT4nLCAnLW9tYWUnLCAnPG91dGZpbGUubWFlPic=

> <r_epik_Ionization_Penalty>
0.797836

> <r_epik_Ionization_Penalty_Charging>
0

> <r_epik_Ionization_Penalty_Neutral>
0.797836

> <r_epik_State_Penalty>
0.828842

> <r_epik_Charging_Adjusted_Penalty>
0.828842

> <i_epik_Tot_Q>
0

> <i_epik_Tot_abs_Q>
0

> <r_epik_Metal_State_Penalty>
0.828842

> <b_epik_Metal_Only>
0

> <s_lp_Force_Field>
OPLS_2005

> <r_lp_Energy>
23.1529

> <b_lp_Chiralities_Consistent>
1

> <s_lp_Variant>
AV-unprocessed.smi:3252-6

> <Gold.Version>
5.8.1

> <Gold.Id.Protein>
6NUR|6NUR_protein|mol2

> <Gold.PLP.Fitness>
42.5456

> <Gold.PLP.PLP>
-43.7125

> <Gold.PLP.part.hbond>
-1.0000

> <Gold.PLP.part.metal>
0.0000

> <Gold.PLP.part.buried>
-5.4003

> <Gold.PLP.part.nonpolar>
-36.1753

> <Gold.PLP.part.repulsive>
0.2173

> <Gold.PLP.ligand.clash>
0.0000

> <Gold.PLP.ligand.torsion>
0.5868

> <Gold.PLP.Chemscore.Hbond>
0.0000

> <Gold.PLP.Chemscore.CHOScore>
0.0000

> <Gold.PLP.Chemscore.Metal>
0.0000

> <Gold.PLP.Chemscore.Internal.Correction>
0.0067

> <Gold.Rescore>
     Score         DG    S(hbond)    S(metal)    S(lipo)     H(rot)  DE(clash)    DE(int)     intcor
     13.66     -14.28       0.00        0.00     106.57       1.43       0.03       0.59       ----

> <Gold.Chemscore.Fitness>
13.6584

> <Gold.Chemscore.DG>
-14.2800

> <Gold.Chemscore.ZeroCoef>
-5.4800

> <Gold.Chemscore.Hbond>
0.0000

> <Gold.Chemscore.Metal>
0.0000

> <Gold.Chemscore.Lipo>
106.5711

> <Gold.Chemscore.Internal_Hbond>
0.0000

> <Gold.Chemscore.DEClash>
0.0275

> <Gold.Chemscore.DEInternal>
0.5941

> <Gold.Chemscore.Rot>
1.4331

> <Gold.Chemscore.Internal.Correction>
   9.000000E+99

> <Gold.Chemscore.Hbond.Weighted>
-0.0000

> <Gold.Chemscore.Metal.Weighted>
-0.0000

> <Gold.Chemscore.Lipo.Weighted>
-12.4688

> <Gold.Chemscore.Internal_Hbond.Weighted>
0.0000

> <Gold.Chemscore.DEClash.Weighted>
0.0275

> <Gold.Chemscore.DEInternal.Weighted>
0.5941

> <Gold.Chemscore.Rot.Weighted>
3.6688

> <Gold.Chemscore.Internal.Correction.Weighted>
   9.000000E+99

> <Gold.Protein.RotatedTorsions>
[ 6907 6896 6895 6894 ] final   30.78 input  -60.11 | X-H torsion
[ 7974 7965 7964 7962 ] final   13.32 input  175.53 | X-H torsion
[ 8008 7997 7996 7995 ] final -110.57 input   59.86 | X-H torsion
[ 10167 10162 10161 10158 ] final  124.07 input  -65.29 | X-H torsion
[ 10718 10713 10712 10709 ] final  -38.99 input   66.30 | X-H torsion
[ 10763 10752 10751 10750 ] final  157.16 input  -60.55 | X-H torsion
[ 11005 11000 10999 10996 ] final -170.07 input  -57.11 | X-H torsion

> <Gold.Protein.ActiveResidues>
 VAL166  LYS551  ARG553  GLY616  TRP617  ASP618  TYR619  PRO620  LYS621  CYS622 
 ASP623  PHE694  ASN695  SER759  ASP760  ASP761  ALA762  ILE779  LEU786  VAL792 
 PHE793  MET794  SER795  GLU796  ALA797  LYS798  CYS799  TRP800  GLU811  SER814 

> <Gold.Protein.RotatedAtoms>
  152.0509  134.9654  160.0574 H   0  0  0  0  0  0  0  0  0  0  0  0  # atno 6907 bound_to 6896
  152.1055  133.4268  159.4615 H   0  0  0  0  0  0  0  0  0  0  0  0  # atno 6908 bound_to 6896
  150.6841  134.2629  159.4600 H   0  0  0  0  0  0  0  0  0  0  0  0  # atno 6909 bound_to 6896
  146.2332  139.9205  142.8511 H   0  0  0  0  0  0  0  0  0  0  0  0  # atno 7974 bound_to 7965
  154.9765  140.0397  157.2258 H   0  0  0  0  0  0  0  0  0  0  0  0  # atno 8008 bound_to 7997
  154.7753  140.2809  155.6083 H   0  0  0  0  0  0  0  0  0  0  0  0  # atno 8009 bound_to 7997
  156.2927  140.2602  156.2565 H   0  0  0  0  0  0  0  0  0  0  0  0  # atno 8010 bound_to 7997
  139.5763  144.6965  151.3646 H   0  0  0  0  0  0  0  0  0  0  0  0  # atno 10167 bound_to 10162
  156.2975  130.4236  149.8176 H   0  0  0  0  0  0  0  0  0  0  0  0  # atno 10718 bound_to 10713
  154.1959  135.2792  155.3007 H   0  0  0  0  0  0  0  0  0  0  0  0  # atno 10763 bound_to 10752
  154.5893  135.5565  153.7265 H   0  0  0  0  0  0  0  0  0  0  0  0  # atno 10764 bound_to 10752
  153.0100  135.6364  154.2097 H   0  0  0  0  0  0  0  0  0  0  0  0  # atno 10765 bound_to 10752
  140.5236  134.5685  157.5055 H   0  0  0  0  0  0  0  0  0  0  0  0  # atno 11005 bound_to 11000
  145.2141  140.9908  143.4084 LP  0  0  0  0  0  0  0  0  0  0  0  0  # atno 17320 bound_to 7965
  144.9666  139.3923  143.6329 LP  0  0  0  0  0  0  0  0  0  0  0  0  # atno 17321 bound_to 7965
  140.7045  143.7549  150.7458 LP  0  0  0  0  0  0  0  0  0  0  0  0  # atno 17342 bound_to 10162
  140.1069  143.4735  152.2393 LP  0  0  0  0  0  0  0  0  0  0  0  0  # atno 17343 bound_to 10162
  156.5566  130.8365  151.3316 LP  0  0  0  0  0  0  0  0  0  0  0  0  # atno 17370 bound_to 10713
  157.7359  130.9770  150.2108 LP  0  0  0  0  0  0  0  0  0  0  0  0  # atno 17371 bound_to 10713
  139.9592  134.7481  156.0274 LP  0  0  0  0  0  0  0  0  0  0  0  0  # atno 17394 bound_to 11000
  141.1320  133.6584  156.3491 LP  0  0  0  0  0  0  0  0  0  0  0  0  # atno 17395 bound_to 11000

$$$$
