AV-unprocessed.smi:1761|AV-procd|sdf|7095|dock1
  -GOLD-   22720 8313D 1   1.00000     0.00000
 Structure written by MMmdl.
 34 35  0  0  0  0  0  0  0  0  1 V2000
  150.9666  141.0439  156.3832 O   0  0  0  0  0  0  0  0  0  0  0  0
  150.1013  141.9185  156.4329 C   0  0  0  0  0  0  0  0  0  0  0  0
  148.9703  141.9349  155.7061 N   0  0  0  0  0  0  0  0  0  0  0  0
  148.5160  140.9717  154.7660 C   0  0  0  0  0  0  0  0  0  0  0  0
  147.5264  141.4333  153.8686 C   0  0  0  0  0  0  0  0  0  0  0  0
  147.0070  140.5548  152.8983 C   0  0  0  0  0  0  0  0  0  0  0  0
  147.4905  139.2351  152.8508 C   0  0  0  0  0  0  0  0  0  0  0  0
  148.4761  138.8559  153.7806 C   0  0  0  0  0  0  0  0  0  0  0  0
  148.9755  139.6963  154.7112 N   0  0  0  0  0  0  0  0  0  0  0  0
  150.1773  142.9933  157.2313 N   0  0  0  0  0  0  0  0  0  0  0  0
  151.2770  143.2968  158.1450 C   0  0  2  0  0  0  0  0  0  0  0  0
  151.6667  141.9908  158.8682 C   0  0  0  0  0  0  0  0  0  0  0  0
  152.7176  142.2246  159.9627 C   0  0  0  0  0  0  0  0  0  0  0  0
  152.2317  143.2713  160.9739 C   0  0  0  0  0  0  0  0  0  0  0  0
  151.8896  144.5896  160.2670 C   0  0  0  0  0  0  0  0  0  0  0  0
  150.8424  144.3869  159.1548 C   0  0  1  0  0  0  0  0  0  0  0  0
  150.6870  145.6248  158.4900 O   0  0  0  0  0  0  0  0  0  0  0  0
  148.3607  142.7272  155.8441 H   0  0  0  0  0  0  0  0  0  0  0  0
  147.1659  142.4506  153.9195 H   0  0  0  0  0  0  0  0  0  0  0  0
  146.2511  140.8891  152.2032 H   0  0  0  0  0  0  0  0  0  0  0  0
  147.1161  138.5322  152.1215 H   0  0  0  0  0  0  0  0  0  0  0  0
  148.8740  137.8520  153.7781 H   0  0  0  0  0  0  0  0  0  0  0  0
  149.4205  143.6605  157.2003 H   0  0  0  0  0  0  0  0  0  0  0  0
  152.1538  143.6473  157.5965 H   0  0  0  0  0  0  0  0  0  0  0  0
  150.7811  141.5405  159.3197 H   0  0  0  0  0  0  0  0  0  0  0  0
  152.0447  141.2651  158.1470 H   0  0  0  0  0  0  0  0  0  0  0  0
  152.9365  141.2870  160.4742 H   0  0  0  0  0  0  0  0  0  0  0  0
  153.6527  142.5556  159.5090 H   0  0  0  0  0  0  0  0  0  0  0  0
  151.3529  142.8967  161.5000 H   0  0  0  0  0  0  0  0  0  0  0  0
  152.9980  143.4426  161.7306 H   0  0  0  0  0  0  0  0  0  0  0  0
  151.5248  145.3139  160.9962 H   0  0  0  0  0  0  0  0  0  0  0  0
  152.8023  145.0119  159.8434 H   0  0  0  0  0  0  0  0  0  0  0  0
  149.8882  144.1139  159.6081 H   0  0  0  0  0  0  0  0  0  0  0  0
  149.8347  145.6421  158.0816 H   0  0  0  0  0  0  0  0  0  0  0  0
  1  2  2  0  0  0  0
  2  3  1  0  0  0  0
  2 10  1  0  0  0  0
  3  4  1  0  0  0  0
  3 18  1  0  0  0  0
  4  9  1  0  0  0  0
  4  5  2  0  0  0  0
  5  6  1  0  0  0  0
  5 19  1  0  0  0  0
  6  7  2  0  0  0  0
  6 20  1  0  0  0  0
  7  8  1  0  0  0  0
  7 21  1  0  0  0  0
  8  9  2  0  0  0  0
  8 22  1  0  0  0  0
 10 11  1  0  0  0  0
 10 23  1  0  0  0  0
 11 16  1  0  0  0  0
 11 12  1  0  0  0  0
 11 24  1  0  0  0  0
 12 13  1  0  0  0  0
 12 25  1  0  0  0  0
 12 26  1  0  0  0  0
 13 14  1  0  0  0  0
 13 27  1  0  0  0  0
 13 28  1  0  0  0  0
 14 15  1  0  0  0  0
 14 29  1  0  0  0  0
 14 30  1  0  0  0  0
 15 16  1  0  0  0  0
 15 31  1  0  0  0  0
 15 32  1  0  0  0  0
 16 17  1  0  0  0  0
 16 33  1  0  0  0  0
 17 34  1  0  0  0  0
M  END
> <s_m_source_file>
AV-unprocessed.smi

> <i_m_source_file_index>
1761

> <i_lp_mmshare_version>
43012

> <i_f3d_flags>
0

> <s_epik_input>
bjFbY0hdW2NIXVtjSF1bY0hdYzFbTkhdQyg9TylbTkhdW0NAQEhdMltDSDJdW0NIMl1bQ0gyXVtDSDJdW0NASF0yW09IXQ==

> <s_epik_cmdline>
J2VwaWtfcHl0aG9uJywgJy1waCcsICc3LjAnLCAnLXRuJywgJzgnLCAnLW1hJywgJzIwMCcsICctbWV0YWxfYmluZGluZycsICctaW1hZScsICc8aW5maWxlLm1hZT4nLCAnLW9tYWUnLCAnPG91dGZpbGUubWFlPic=

> <r_lp_tautomer_probability>
1

> <r_epik_Ionization_Penalty>
4.92589e-05

> <r_epik_Ionization_Penalty_Charging>
0

> <r_epik_Ionization_Penalty_Neutral>
4.92589e-05

> <r_epik_State_Penalty>
-0

> <r_epik_Charging_Adjusted_Penalty>
0

> <i_epik_Tot_Q>
0

> <i_epik_Tot_abs_Q>
0

> <r_epik_Metal_State_Penalty>
-0

> <b_epik_Metal_Only>
0

> <s_lp_Force_Field>
OPLS_2005

> <r_lp_Energy>
12.6575

> <b_lp_Chiralities_Consistent>
1

> <s_lp_Variant>
AV-unprocessed.smi:1761-1

> <Gold.Version>
5.8.1

> <Gold.Id.Protein>
6NUR|6NUR_protein|mol2

> <Gold.PLP.Fitness>
41.2139

> <Gold.PLP.PLP>
-33.3399

> <Gold.PLP.part.hbond>
-3.9739

> <Gold.PLP.part.metal>
0.0000

> <Gold.PLP.part.buried>
1.8229

> <Gold.PLP.part.nonpolar>
-31.1074

> <Gold.PLP.part.repulsive>
0.2501

> <Gold.PLP.ligand.clash>
0.0063

> <Gold.PLP.ligand.torsion>
0.2845

> <Gold.PLP.Chemscore.Hbond>
1.8160

> <Gold.PLP.Chemscore.CHOScore>
1.0000

> <Gold.PLP.Chemscore.Metal>
0.0000

> <Gold.Chemscore.Hbonds>
donor molecule, donor type, donor heavy atom, donor atom, acceptor molecule, acceptor atom, score
      L1  H     3    18       P1  8028  0.50
      L1  H    10    23       P1  8028  0.54
      L1  H    17    34       P1  8029  0.83
      L1  C     8    22       P1  7948  0.96

> <Gold.PLP.Chemscore.Internal.Correction>
0.0013

> <Gold.Rescore>
     Score         DG    S(hbond)    S(metal)    S(lipo)     H(rot)  DE(clash)    DE(int)     intcor
     14.21     -17.79       1.64        0.00      90.47       1.47       0.61       2.97       ----

> <Gold.Chemscore.Fitness>
14.2141

> <Gold.Chemscore.DG>
-17.7939

> <Gold.Chemscore.ZeroCoef>
-5.4800

> <Gold.Chemscore.Hbond>
1.6409

> <Gold.Chemscore.Metal>
0.0000

> <Gold.Chemscore.Lipo>
90.4664

> <Gold.Chemscore.Internal_Hbond>
0.0000

> <Gold.Chemscore.DEClash>
0.6142

> <Gold.Chemscore.DEInternal>
2.9656

> <Gold.Chemscore.Rot>
1.4653

> <Gold.Chemscore.Internal.Correction>
   9.000000E+99

> <Gold.Chemscore.Hbonds>
donor molecule, donor type, donor heavy atom, donor atom, acceptor molecule, acceptor atom, score
      L1  H     3    18       P1  8028  0.47
      L1  H    10    23       P1  8028  0.38
      L1  H    17    34       P1  8029  0.29

> <Gold.Chemscore.Hbond.Weighted>
-5.4804

> <Gold.Chemscore.Metal.Weighted>
-0.0000

> <Gold.Chemscore.Lipo.Weighted>
-10.5846

> <Gold.Chemscore.Internal_Hbond.Weighted>
0.0000

> <Gold.Chemscore.DEClash.Weighted>
0.6142

> <Gold.Chemscore.DEInternal.Weighted>
2.9656

> <Gold.Chemscore.Rot.Weighted>
3.7511

> <Gold.Chemscore.Internal.Correction.Weighted>
   9.000000E+99

> <Gold.Protein.RotatedTorsions>
[ 6907 6896 6895 6894 ] final  135.02 input  -60.11 | X-H torsion
[ 7974 7965 7964 7962 ] final  -98.71 input  175.53 | X-H torsion
[ 8008 7997 7996 7995 ] final  -65.22 input   59.86 | X-H torsion
[ 10167 10162 10161 10158 ] final  -73.02 input  -65.29 | X-H torsion
[ 10718 10713 10712 10709 ] final   62.60 input   66.30 | X-H torsion
[ 10763 10752 10751 10750 ] final -120.10 input  -60.55 | X-H torsion
[ 11005 11000 10999 10996 ] final  -28.82 input  -57.11 | X-H torsion

> <Gold.Protein.ActiveResidues>
 VAL166  LYS551  ARG553  GLY616  TRP617  ASP618  TYR619  PRO620  LYS621  CYS622 
 ASP623  PHE694  ASN695  SER759  ASP760  ASP761  ALA762  ILE779  LEU786  VAL792 
 PHE793  MET794  SER795  GLU796  ALA797  LYS798  CYS799  TRP800  GLU811  SER814 

> <Gold.Protein.RotatedAtoms>
  152.3050  133.5694  159.5642 H   0  0  0  0  0  0  0  0  0  0  0  0  # atno 6907 bound_to 6896
  150.7295  134.0236  159.3718 H   0  0  0  0  0  0  0  0  0  0  0  0  # atno 6908 bound_to 6896
  151.8133  135.0674  160.0466 H   0  0  0  0  0  0  0  0  0  0  0  0  # atno 6909 bound_to 6896
  145.3171  140.9413  143.2736 H   0  0  0  0  0  0  0  0  0  0  0  0  # atno 7974 bound_to 7965
  154.4658  140.0937  156.7017 H   0  0  0  0  0  0  0  0  0  0  0  0  # atno 8008 bound_to 7997
  155.4861  140.3469  155.4329 H   0  0  0  0  0  0  0  0  0  0  0  0  # atno 8009 bound_to 7997
  156.0954  140.1408  156.9526 H   0  0  0  0  0  0  0  0  0  0  0  0  # atno 8010 bound_to 7997
  140.5145  143.2340  151.7537 H   0  0  0  0  0  0  0  0  0  0  0  0  # atno 10167 bound_to 10162
  157.5912  130.9059  149.9609 H   0  0  0  0  0  0  0  0  0  0  0  0  # atno 10718 bound_to 10713
  154.8635  135.4215  154.2404 H   0  0  0  0  0  0  0  0  0  0  0  0  # atno 10763 bound_to 10752
  153.3371  135.6991  153.6904 H   0  0  0  0  0  0  0  0  0  0  0  0  # atno 10764 bound_to 10752
  153.5897  135.3557  155.2879 H   0  0  0  0  0  0  0  0  0  0  0  0  # atno 10765 bound_to 10752
  140.9242  133.7379  156.0843 H   0  0  0  0  0  0  0  0  0  0  0  0  # atno 11005 bound_to 11000
  144.8969  139.4700  143.6651 LP  0  0  0  0  0  0  0  0  0  0  0  0  # atno 17320 bound_to 7965
  146.3096  139.7700  142.9030 LP  0  0  0  0  0  0  0  0  0  0  0  0  # atno 17321 bound_to 7965
  139.4905  144.4344  151.9836 LP  0  0  0  0  0  0  0  0  0  0  0  0  # atno 17342 bound_to 10162
  140.3437  144.3172  150.5962 LP  0  0  0  0  0  0  0  0  0  0  0  0  # atno 17343 bound_to 10162
  156.0968  130.3659  150.0292 LP  0  0  0  0  0  0  0  0  0  0  0  0  # atno 17370 bound_to 10713
  156.8414  130.9427  151.3631 LP  0  0  0  0  0  0  0  0  0  0  0  0  # atno 17371 bound_to 10713
  140.7948  134.3576  157.5455 LP  0  0  0  0  0  0  0  0  0  0  0  0  # atno 17394 bound_to 11000
  139.8782  134.9162  156.3149 LP  0  0  0  0  0  0  0  0  0  0  0  0  # atno 17395 bound_to 11000

$$$$
