AV-unprocessed.smi:2398|AV-procd|sdf|9498|dock3
  -GOLD-   2272013123D 1   1.00000     0.00000
 Structure written by MMmdl.
 34 35  0  0  0  0  0  0  0  0  1 V2000
  150.9058  140.4896  156.5266 O   0  0  0  0  0  0  0  0  0  0  0  0
  150.3468  141.5836  156.5986 C   0  0  0  0  0  0  0  0  0  0  0  0
  150.5655  142.5131  157.5451 N   0  0  0  0  0  0  0  0  0  0  0  0
  151.4696  142.4866  158.6440 C   0  0  0  0  0  0  0  0  0  0  0  0
  152.0332  141.3083  159.1927 C   0  0  0  0  0  0  0  0  0  0  0  0
  152.9281  141.4280  160.2751 C   0  0  0  0  0  0  0  0  0  0  0  0
  153.2853  142.6104  160.8191 N   0  0  0  0  0  0  0  0  0  0  0  0
  152.7550  143.7317  160.2876 C   0  0  0  0  0  0  0  0  0  0  0  0
  151.8526  143.7237  159.2052 C   0  0  0  0  0  0  0  0  0  0  0  0
  151.3624  144.8889  158.7172 F   0  0  0  0  0  0  0  0  0  0  0  0
  149.4159  141.9939  155.7244 N   0  0  0  0  0  0  0  0  0  0  0  0
  148.9500  141.2311  154.5696 C   0  0  1  0  0  0  0  0  0  0  0  0
  148.7282  139.7616  154.9709 C   0  0  0  0  0  0  0  0  0  0  0  0
  148.1966  138.9303  153.7895 C   0  0  0  0  0  0  0  0  0  0  0  0
  146.9198  139.5359  153.1761 C   0  0  1  0  0  0  0  0  0  0  0  0
  145.8345  139.3864  154.0700 O   0  0  0  0  0  0  0  0  0  0  0  0
  147.1099  141.0228  152.8208 C   0  0  0  0  0  0  0  0  0  0  0  0
  147.6520  141.8424  154.0051 C   0  0  0  0  0  0  0  0  0  0  0  0
  149.7176  141.2544  153.7933 H   0  0  0  0  0  0  0  0  0  0  0  0
  146.6623  138.9845  152.2711 H   0  0  0  0  0  0  0  0  0  0  0  0
  149.9826  143.3361  157.4959 H   0  0  0  0  0  0  0  0  0  0  0  0
  151.8133  140.3253  158.8080 H   0  0  0  0  0  0  0  0  0  0  0  0
  153.3742  140.5471  160.7129 H   0  0  0  0  0  0  0  0  0  0  0  0
  153.0609  144.6650  160.7371 H   0  0  0  0  0  0  0  0  0  0  0  0
  149.0040  142.9054  155.8611 H   0  0  0  0  0  0  0  0  0  0  0  0
  149.6622  139.3281  155.3300 H   0  0  0  0  0  0  0  0  0  0  0  0
  148.0242  139.7057  155.8028 H   0  0  0  0  0  0  0  0  0  0  0  0
  148.9686  138.8786  153.0209 H   0  0  0  0  0  0  0  0  0  0  0  0
  148.0148  137.9023  154.1053 H   0  0  0  0  0  0  0  0  0  0  0  0
  145.0632  139.7593  153.6712 H   0  0  0  0  0  0  0  0  0  0  0  0
  147.8105  141.1019  151.9887 H   0  0  0  0  0  0  0  0  0  0  0  0
  146.1709  141.4506  152.4674 H   0  0  0  0  0  0  0  0  0  0  0  0
  146.8958  141.8919  154.7895 H   0  0  0  0  0  0  0  0  0  0  0  0
  147.8284  142.8695  153.6838 H   0  0  0  0  0  0  0  0  0  0  0  0
  1  2  2  0  0  0  0
  2  3  1  0  0  0  0
  2 11  1  0  0  0  0
  3  4  1  0  0  0  0
  3 21  1  0  0  0  0
  4  9  1  0  0  0  0
  4  5  2  0  0  0  0
  5  6  1  0  0  0  0
  5 22  1  0  0  0  0
  6  7  2  0  0  0  0
  6 23  1  0  0  0  0
  7  8  1  0  0  0  0
  8  9  2  0  0  0  0
  8 24  1  0  0  0  0
  9 10  1  0  0  0  0
 11 12  1  0  0  0  0
 11 25  1  0  0  0  0
 12 19  1  0  0  0  0
 12 18  1  0  0  0  0
 12 13  1  0  0  0  0
 13 14  1  0  0  0  0
 13 26  1  0  0  0  0
 13 27  1  0  0  0  0
 14 15  1  0  0  0  0
 14 28  1  0  0  0  0
 14 29  1  0  0  0  0
 15 20  1  0  0  0  0
 15 16  1  0  0  0  0
 15 17  1  0  0  0  0
 16 30  1  0  0  0  0
 17 18  1  0  0  0  0
 17 31  1  0  0  0  0
 17 32  1  0  0  0  0
 18 33  1  0  0  0  0
 18 34  1  0  0  0  0
M  END
> <s_m_source_file>
AV-unprocessed.smi

> <i_m_source_file_index>
2398

> <i_lp_mmshare_version>
43012

> <i_f3d_flags>
0

> <s_epik_input>
W0NIMl0xW0NIMl1bQ0BASF0oW09IXSlbQ0gyXVtDSDJdW0NAQEhdMVtOSF1DKD1PKVtOSF1jMltjSF1bY0hdbltjSF1jMkY=

> <s_epik_cmdline>
J2VwaWtfcHl0aG9uJywgJy1waCcsICc3LjAnLCAnLXRuJywgJzgnLCAnLW1hJywgJzIwMCcsICctbWV0YWxfYmluZGluZycsICctaW1hZScsICc8aW5maWxlLm1hZT4nLCAnLW9tYWUnLCAnPG91dGZpbGUubWFlPic=

> <r_epik_Ionization_Penalty>
0.00343298

> <r_epik_Ionization_Penalty_Charging>
0

> <r_epik_Ionization_Penalty_Neutral>
0.00343298

> <r_epik_State_Penalty>
0.00240232

> <r_epik_Charging_Adjusted_Penalty>
0.00240232

> <i_epik_Tot_Q>
0

> <i_epik_Tot_abs_Q>
0

> <r_epik_Metal_State_Penalty>
-0

> <b_epik_Metal_Only>
0

> <s_lp_Force_Field>
OPLS_2005

> <r_lp_Energy>
16.4629

> <b_lp_Chiralities_Consistent>
1

> <s_lp_Variant>
AV-unprocessed.smi:2398-2

> <Gold.Version>
5.8.1

> <Gold.Id.Protein>
6NUR|6NUR_protein|mol2

> <Gold.PLP.Fitness>
42.3579

> <Gold.PLP.PLP>
-36.9336

> <Gold.PLP.part.hbond>
-2.0000

> <Gold.PLP.part.metal>
0.0000

> <Gold.PLP.part.buried>
-5.7663

> <Gold.PLP.part.nonpolar>
-29.2828

> <Gold.PLP.part.repulsive>
0.1663

> <Gold.PLP.ligand.clash>
0.0000

> <Gold.PLP.ligand.torsion>
0.2894

> <Gold.PLP.Chemscore.Hbond>
2.0000

> <Gold.PLP.Chemscore.CHOScore>
0.0000

> <Gold.PLP.Chemscore.Metal>
0.0000

> <Gold.Chemscore.Hbonds>
donor molecule, donor type, donor heavy atom, donor atom, acceptor molecule, acceptor atom, score
      L1  H    11    25       P1  8028  1.00
      L1  H    16    30       P1 10175  1.00

> <Gold.PLP.Chemscore.Internal.Correction>
0.0032

> <Gold.Rescore>
     Score         DG    S(hbond)    S(metal)    S(lipo)     H(rot)  DE(clash)    DE(int)     intcor
     16.04     -18.87       1.97        0.00      90.27       1.47       0.09       2.74       ----

> <Gold.Chemscore.Fitness>
16.0448

> <Gold.Chemscore.DG>
-18.8732

> <Gold.Chemscore.ZeroCoef>
-5.4800

> <Gold.Chemscore.Hbond>
1.9710

> <Gold.Chemscore.Metal>
0.0000

> <Gold.Chemscore.Lipo>
90.2655

> <Gold.Chemscore.Internal_Hbond>
0.0000

> <Gold.Chemscore.DEClash>
0.0884

> <Gold.Chemscore.DEInternal>
2.7401

> <Gold.Chemscore.Rot>
1.4653

> <Gold.Chemscore.Internal.Correction>
   9.000000E+99

> <Gold.Chemscore.Hbonds>
donor molecule, donor type, donor heavy atom, donor atom, acceptor molecule, acceptor atom, score
      L1  H    11    25       P1  8028  0.98
      L1  H    16    30       P1 10175  0.99

> <Gold.Chemscore.Hbond.Weighted>
-6.5833

> <Gold.Chemscore.Metal.Weighted>
-0.0000

> <Gold.Chemscore.Lipo.Weighted>
-10.5611

> <Gold.Chemscore.Internal_Hbond.Weighted>
0.0000

> <Gold.Chemscore.DEClash.Weighted>
0.0884

> <Gold.Chemscore.DEInternal.Weighted>
2.7401

> <Gold.Chemscore.Rot.Weighted>
3.7511

> <Gold.Chemscore.Internal.Correction.Weighted>
   9.000000E+99

> <Gold.Protein.RotatedTorsions>
[ 6907 6896 6895 6894 ] final   37.53 input  -60.11 | X-H torsion
[ 7974 7965 7964 7962 ] final  122.56 input  175.53 | X-H torsion
[ 8008 7997 7996 7995 ] final  -48.22 input   59.86 | X-H torsion
[ 10167 10162 10161 10158 ] final  168.64 input  -65.29 | X-H torsion
[ 10718 10713 10712 10709 ] final   -3.57 input   66.30 | X-H torsion
[ 10763 10752 10751 10750 ] final -109.35 input  -60.55 | X-H torsion
[ 11005 11000 10999 10996 ] final   16.98 input  -57.11 | X-H torsion

> <Gold.Protein.ActiveResidues>
 VAL166  LYS551  ARG553  GLY616  TRP617  ASP618  TYR619  PRO620  LYS621  CYS622 
 ASP623  PHE694  ASN695  SER759  ASP760  ASP761  ALA762  ILE779  LEU786  VAL792 
 PHE793  MET794  SER795  GLU796  ALA797  LYS798  CYS799  TRP800  GLU811  SER814 

> <Gold.Protein.RotatedAtoms>
  152.1444  134.9038  160.0551 H   0  0  0  0  0  0  0  0  0  0  0  0  # atno 6907 bound_to 6896
  152.0093  133.3850  159.4221 H   0  0  0  0  0  0  0  0  0  0  0  0  # atno 6908 bound_to 6896
  150.6868  134.3669  159.5019 H   0  0  0  0  0  0  0  0  0  0  0  0  # atno 6909 bound_to 6896
  145.1061  139.3484  143.4787 H   0  0  0  0  0  0  0  0  0  0  0  0  # atno 7974 bound_to 7965
  154.4026  140.1327  156.4303 H   0  0  0  0  0  0  0  0  0  0  0  0  # atno 8008 bound_to 7997
  155.7557  140.3487  155.5152 H   0  0  0  0  0  0  0  0  0  0  0  0  # atno 8009 bound_to 7997
  155.8907  140.1003  157.1411 H   0  0  0  0  0  0  0  0  0  0  0  0  # atno 8010 bound_to 7997
  139.4973  144.3792  151.9640 H   0  0  0  0  0  0  0  0  0  0  0  0  # atno 10167 bound_to 10162
  156.7741  130.5309  149.5762 H   0  0  0  0  0  0  0  0  0  0  0  0  # atno 10718 bound_to 10713
  154.8188  135.4604  154.0719 H   0  0  0  0  0  0  0  0  0  0  0  0  # atno 10763 bound_to 10752
  153.2090  135.6879  153.8144 H   0  0  0  0  0  0  0  0  0  0  0  0  # atno 10764 bound_to 10752
  153.7602  135.3285  155.3313 H   0  0  0  0  0  0  0  0  0  0  0  0  # atno 10765 bound_to 10752
  140.4411  134.1321  155.7690 H   0  0  0  0  0  0  0  0  0  0  0  0  # atno 11005 bound_to 11000
  146.3528  140.0960  142.8610 LP  0  0  0  0  0  0  0  0  0  0  0  0  # atno 17320 bound_to 7965
  145.0899  140.9278  143.4775 LP  0  0  0  0  0  0  0  0  0  0  0  0  # atno 17321 bound_to 7965
  140.3229  144.3407  150.6005 LP  0  0  0  0  0  0  0  0  0  0  0  0  # atno 17342 bound_to 10162
  140.5708  143.2181  151.7602 LP  0  0  0  0  0  0  0  0  0  0  0  0  # atno 17343 bound_to 10162
  156.1259  130.6143  151.0263 LP  0  0  0  0  0  0  0  0  0  0  0  0  # atno 17370 bound_to 10713
  157.6677  131.0868  150.7688 LP  0  0  0  0  0  0  0  0  0  0  0  0  # atno 17371 bound_to 10713
  141.1705  133.8618  157.1585 LP  0  0  0  0  0  0  0  0  0  0  0  0  # atno 17394 bound_to 11000
  140.0069  135.0004  157.0312 LP  0  0  0  0  0  0  0  0  0  0  0  0  # atno 17395 bound_to 11000

$$$$
