AV-unprocessed.smi:2346|AV-procd|sdf|9367|dock6
  -GOLD-   2272012593D 1   1.00000     0.00000
 Structure written by MMmdl.
 45 47  0  0  0  0  0  0  0  0  2 V2000
  145.7757  143.6509  153.5441 C   0  0  0  0  0  0  0  0  0  0  0  0
  146.5824  143.0669  154.5562 O   0  0  0  0  0  0  0  0  0  0  0  0
  147.2098  141.8682  154.2847 C   0  0  0  0  0  0  0  0  0  0  0  0
  146.8962  141.0534  153.1670 C   0  0  0  0  0  0  0  0  0  0  0  0
  147.5785  139.8403  152.9513 C   0  0  0  0  0  0  0  0  0  0  0  0
  147.2480  139.0118  151.8039 C   0  0  0  0  0  0  0  0  0  0  0  0
  146.9844  138.3524  150.8904 N   0  0  0  0  0  0  0  0  0  0  0  0
  148.5802  139.4314  153.8504 C   0  0  0  0  0  0  0  0  0  0  0  0
  148.8991  140.2333  154.9609 C   0  0  0  0  0  0  0  0  0  0  0  0
  148.2183  141.4563  155.1862 C   0  0  0  0  0  0  0  0  0  0  0  0
  148.4796  142.2916  156.2527 O   0  0  0  0  0  0  0  0  0  0  0  0
  149.3297  141.8227  157.2887 C   0  0  0  0  0  0  0  0  0  0  0  0
  150.7840  142.0122  156.8424 C   0  0  0  0  0  0  0  0  0  0  0  0
  151.6791  141.0313  157.4706 N   0  0  0  0  0  0  0  0  0  0  0  0
  152.1561  139.8418  157.0004 C   0  0  0  0  0  0  0  0  0  0  0  0
  151.8875  139.2326  155.6580 C   0  0  2  0  0  0  0  0  0  0  0  0
  151.4200  137.7742  155.7759 C   0  0  0  0  0  0  0  0  0  0  0  0
  153.0298  139.2751  154.8309 O   0  0  0  0  0  0  0  0  0  0  0  0
  152.9703  139.3281  157.9669 N   0  3  0  0  0  0  0  0  0  0  0  0
  152.9883  140.1768  159.0737 C   0  0  0  0  0  0  0  0  0  0  0  0
  153.6535  140.0719  160.2912 C   0  0  0  0  0  0  0  0  0  0  0  0
  153.4514  141.1186  161.2146 C   0  0  0  0  0  0  0  0  0  0  0  0
  152.6160  142.2135  160.9117 C   0  0  0  0  0  0  0  0  0  0  0  0
  151.9494  142.3102  159.6720 C   0  0  0  0  0  0  0  0  0  0  0  0
  152.1560  141.2716  158.7642 C   0  0  0  0  0  0  0  0  0  0  0  0
  145.3568  144.5863  153.9147 H   0  0  0  0  0  0  0  0  0  0  0  0
  144.9422  143.0012  153.2739 H   0  0  0  0  0  0  0  0  0  0  0  0
  146.3592  143.8818  152.6518 H   0  0  0  0  0  0  0  0  0  0  0  0
  146.1318  141.3436  152.4616 H   0  0  0  0  0  0  0  0  0  0  0  0
  149.1092  138.5018  153.6952 H   0  0  0  0  0  0  0  0  0  0  0  0
  149.6725  139.8845  155.6280 H   0  0  0  0  0  0  0  0  0  0  0  0
  149.1475  142.3778  158.2101 H   0  0  0  0  0  0  0  0  0  0  0  0
  149.1402  140.7654  157.4817 H   0  0  0  0  0  0  0  0  0  0  0  0
  150.8654  141.8946  155.7614 H   0  0  0  0  0  0  0  0  0  0  0  0
  151.1379  143.0188  157.0666 H   0  0  0  0  0  0  0  0  0  0  0  0
  151.1010  139.8029  155.1636 H   0  0  0  0  0  0  0  0  0  0  0  0
  150.5191  137.7005  156.3860 H   0  0  0  0  0  0  0  0  0  0  0  0
  152.1833  137.1406  156.2289 H   0  0  0  0  0  0  0  0  0  0  0  0
  151.1864  137.3579  154.7955 H   0  0  0  0  0  0  0  0  0  0  0  0
  152.7578  139.1384  153.9359 H   0  0  0  0  0  0  0  0  0  0  0  0
  154.2931  139.2334  160.5255 H   0  0  0  0  0  0  0  0  0  0  0  0
  153.9466  141.0804  162.1742 H   0  0  0  0  0  0  0  0  0  0  0  0
  152.4842  142.9962  161.6447 H   0  0  0  0  0  0  0  0  0  0  0  0
  151.3116  143.1533  159.4512 H   0  0  0  0  0  0  0  0  0  0  0  0
  153.4730  138.4551  157.8715 H   0  0  0  0  0  0  0  0  0  0  0  0
  1  2  1  0  0  0  0
  1 26  1  0  0  0  0
  1 27  1  0  0  0  0
  1 28  1  0  0  0  0
  2  3  1  0  0  0  0
  3 10  1  0  0  0  0
  3  4  2  0  0  0  0
  4  5  1  0  0  0  0
  4 29  1  0  0  0  0
  5  6  1  0  0  0  0
  5  8  2  0  0  0  0
  6  7  3  0  0  0  0
  8  9  1  0  0  0  0
  8 30  1  0  0  0  0
  9 10  2  0  0  0  0
  9 31  1  0  0  0  0
 10 11  1  0  0  0  0
 11 12  1  0  0  0  0
 12 13  1  0  0  0  0
 12 32  1  0  0  0  0
 12 33  1  0  0  0  0
 13 14  1  0  0  0  0
 13 34  1  0  0  0  0
 13 35  1  0  0  0  0
 14 25  1  0  0  0  0
 14 15  1  0  0  0  0
 15 16  1  0  0  0  0
 15 19  2  0  0  0  0
 16 17  1  0  0  0  0
 16 18  1  0  0  0  0
 16 36  1  0  0  0  0
 17 37  1  0  0  0  0
 17 38  1  0  0  0  0
 17 39  1  0  0  0  0
 18 40  1  0  0  0  0
 19 20  1  0  0  0  0
 19 45  1  0  0  0  0
 20 25  2  0  0  0  0
 20 21  1  0  0  0  0
 21 22  2  0  0  0  0
 21 41  1  0  0  0  0
 22 23  1  0  0  0  0
 22 42  1  0  0  0  0
 23 24  2  0  0  0  0
 23 43  1  0  0  0  0
 24 25  1  0  0  0  0
 24 44  1  0  0  0  0
M  CHG  1  19   1
M  END
> <s_m_source_file>
AV-unprocessed.smi

> <i_m_source_file_index>
2346

> <i_lp_mmshare_version>
43012

> <i_f3d_flags>
0

> <s_epik_input>
W0NIM11PYzFbY0hdYyhDI04pW2NIXVtjSF1jMU9bQ0gyXVtDSDJdbihjKG4yKVtDQEhdKFtDSDNdKVtPSF0pYyhjMjMpW2NIXVtjSF1bY0hdW2NIXTM=

> <s_epik_cmdline>
J2VwaWtfcHl0aG9uJywgJy1waCcsICc3LjAnLCAnLXRuJywgJzgnLCAnLW1hJywgJzIwMCcsICctbWV0YWxfYmluZGluZycsICctaW1hZScsICc8aW5maWxlLm1hZT4nLCAnLW9tYWUnLCAnPG91dGZpbGUubWFlPic=

> <r_epik_Ionization_Penalty>
1.58928

> <r_epik_Ionization_Penalty_Charging>
1.58925

> <r_epik_Ionization_Penalty_Neutral>
2.92192e-05

> <r_epik_State_Penalty>
1.68649

> <r_epik_Charging_Adjusted_Penalty>
3.27574

> <i_epik_Tot_Q>
1

> <i_epik_Tot_abs_Q>
1

> <r_epik_Metal_State_Penalty>
5.74385

> <b_epik_Metal_Only>
0

> <s_lp_Force_Field>
OPLS_2005

> <r_lp_Energy>
24.6554

> <b_lp_Chiralities_Consistent>
1

> <s_lp_Variant>
AV-unprocessed.smi:2346-3

> <Gold.Version>
5.8.1

> <Gold.Id.Protein>
6NUR|6NUR_protein|mol2

> <Gold.PLP.Fitness>
47.2542

> <Gold.PLP.PLP>
-43.1353

> <Gold.PLP.part.hbond>
-3.0000

> <Gold.PLP.part.metal>
0.0000

> <Gold.PLP.part.buried>
-1.1237

> <Gold.PLP.part.nonpolar>
-45.2747

> <Gold.PLP.part.repulsive>
7.0914

> <Gold.PLP.ligand.clash>
0.0000

> <Gold.PLP.ligand.torsion>
0.9949

> <Gold.PLP.Chemscore.Hbond>
2.0000

> <Gold.PLP.Chemscore.CHOScore>
0.0000

> <Gold.PLP.Chemscore.Metal>
0.0000

> <Gold.Chemscore.Hbonds>
donor molecule, donor type, donor heavy atom, donor atom, acceptor molecule, acceptor atom, score
      P1  H  7954  7966       L1     7  1.00
      P1  H  7997  8008       L1    18  1.00

> <Gold.PLP.Chemscore.Internal.Correction>
0.1086

> <Gold.Rescore>
     Score         DG    S(hbond)    S(metal)    S(lipo)     H(rot)  DE(clash)    DE(int)     intcor
     13.54     -19.21       1.73        0.00     125.90       2.65       4.86       0.81       ----

> <Gold.Chemscore.Fitness>
13.5435

> <Gold.Chemscore.DG>
-19.2095

> <Gold.Chemscore.ZeroCoef>
-5.4800

> <Gold.Chemscore.Hbond>
1.7290

> <Gold.Chemscore.Metal>
0.0000

> <Gold.Chemscore.Lipo>
125.8987

> <Gold.Chemscore.Internal_Hbond>
0.0000

> <Gold.Chemscore.DEClash>
4.8580

> <Gold.Chemscore.DEInternal>
0.8080

> <Gold.Chemscore.Rot>
2.6467

> <Gold.Chemscore.Internal.Correction>
   9.000000E+99

> <Gold.Chemscore.Hbonds>
donor molecule, donor type, donor heavy atom, donor atom, acceptor molecule, acceptor atom, score
      P1  H  7954  7966       L1     7  0.94
      P1  H  7997  8008       L1    18  0.71

> <Gold.Chemscore.Hbond.Weighted>
-5.7750

> <Gold.Chemscore.Metal.Weighted>
-0.0000

> <Gold.Chemscore.Lipo.Weighted>
-14.7301

> <Gold.Chemscore.Internal_Hbond.Weighted>
0.0000

> <Gold.Chemscore.DEClash.Weighted>
4.8580

> <Gold.Chemscore.DEInternal.Weighted>
0.8080

> <Gold.Chemscore.Rot.Weighted>
6.7756

> <Gold.Chemscore.Internal.Correction.Weighted>
   9.000000E+99

> <Gold.Protein.RotatedTorsions>
[ 6907 6896 6895 6894 ] final -177.56 input  -60.11 | X-H torsion
[ 7974 7965 7964 7962 ] final  117.77 input  175.53 | X-H torsion
[ 8008 7997 7996 7995 ] final   -7.80 input   59.86 | X-H torsion
[ 10167 10162 10161 10158 ] final -178.63 input  -65.29 | X-H torsion
[ 10718 10713 10712 10709 ] final  -49.70 input   66.30 | X-H torsion
[ 10763 10752 10751 10750 ] final  -45.36 input  -60.55 | X-H torsion
[ 11005 11000 10999 10996 ] final -162.65 input  -57.11 | X-H torsion

> <Gold.Protein.ActiveResidues>
 VAL166  LYS551  ARG553  GLY616  TRP617  ASP618  TYR619  PRO620  LYS621  CYS622 
 ASP623  PHE694  ASN695  SER759  ASP760  ASP761  ALA762  ILE779  LEU786  VAL792 
 PHE793  MET794  SER795  GLU796  ALA797  LYS798  CYS799  TRP800  GLU811  SER814 

> <Gold.Protein.RotatedAtoms>
  151.6230  133.3337  159.3091 H   0  0  0  0  0  0  0  0  0  0  0  0  # atno 6907 bound_to 6896
  150.8096  134.7246  159.6687 H   0  0  0  0  0  0  0  0  0  0  0  0  # atno 6908 bound_to 6896
  152.4192  134.5991  160.0046 H   0  0  0  0  0  0  0  0  0  0  0  0  # atno 6909 bound_to 6896
  145.1633  139.3142  143.4506 H   0  0  0  0  0  0  0  0  0  0  0  0  # atno 7974 bound_to 7965
  154.5803  140.2397  155.8064 H   0  0  0  0  0  0  0  0  0  0  0  0  # atno 8008 bound_to 7997
  156.2174  140.3008  155.9827 H   0  0  0  0  0  0  0  0  0  0  0  0  # atno 8009 bound_to 7997
  155.2553  140.0412  157.2982 H   0  0  0  0  0  0  0  0  0  0  0  0  # atno 8010 bound_to 7997
  139.5423  144.2329  152.0920 H   0  0  0  0  0  0  0  0  0  0  0  0  # atno 10167 bound_to 10162
  156.1869  130.4152  149.9426 H   0  0  0  0  0  0  0  0  0  0  0  0  # atno 10718 bound_to 10713
  154.0272  135.6661  153.4777 H   0  0  0  0  0  0  0  0  0  0  0  0  # atno 10763 bound_to 10752
  153.0555  135.5058  154.7967 H   0  0  0  0  0  0  0  0  0  0  0  0  # atno 10764 bound_to 10752
  154.6901  135.3060  154.9457 H   0  0  0  0  0  0  0  0  0  0  0  0  # atno 10765 bound_to 10752
  140.6069  134.4889  157.5211 H   0  0  0  0  0  0  0  0  0  0  0  0  # atno 11005 bound_to 11000
  146.3479  140.1752  142.8589 LP  0  0  0  0  0  0  0  0  0  0  0  0  # atno 17320 bound_to 7965
  145.0308  140.8869  143.5111 LP  0  0  0  0  0  0  0  0  0  0  0  0  # atno 17321 bound_to 7965
  140.1809  144.4845  150.6529 LP  0  0  0  0  0  0  0  0  0  0  0  0  # atno 17342 bound_to 10162
  140.6658  143.2267  151.5746 LP  0  0  0  0  0  0  0  0  0  0  0  0  # atno 17343 bound_to 10162
  156.7179  130.8995  151.3615 LP  0  0  0  0  0  0  0  0  0  0  0  0  # atno 17370 bound_to 10713
  157.6904  130.9228  150.0500 LP  0  0  0  0  0  0  0  0  0  0  0  0  # atno 17371 bound_to 10713
  139.9208  134.8152  156.1217 LP  0  0  0  0  0  0  0  0  0  0  0  0  # atno 17394 bound_to 11000
  141.0834  133.6744  156.2385 LP  0  0  0  0  0  0  0  0  0  0  0  0  # atno 17395 bound_to 11000

$$$$
