AV-unprocessed.smi:554|AV-procd|sdf|2908|dock1
  -GOLD-   2262023403D 1   1.00000     0.00000
 Structure written by MMmdl.
 27 28  0  0  0  0  0  0  0  0  1 V2000
  152.0259  143.6367  160.7635 C   0  0  0  0  0  0  0  0  0  0  0  0
  152.2793  144.6979  159.7113 C   0  0  2  0  0  0  0  0  0  0  0  0
  151.1433  145.2427  158.8777 C   0  0  0  0  0  0  0  0  0  0  0  0
  152.2159  144.3998  158.2262 C   0  0  2  0  0  0  0  0  0  0  0  0
  151.9061  143.0100  157.6968 C   0  0  0  0  0  0  0  0  0  0  0  0
  150.7912  142.9454  156.7610 N   0  0  0  0  0  0  0  0  0  0  0  0
  150.3538  141.8261  156.1670 C   0  0  0  0  0  0  0  0  0  0  0  0
  150.8632  140.7192  156.3454 O   0  0  0  0  0  0  0  0  0  0  0  0
  149.3037  142.0787  155.3659 N   0  0  0  0  0  0  0  0  0  0  0  0
  148.5569  141.1610  154.5817 C   0  0  0  0  0  0  0  0  0  0  0  0
  148.9071  139.8863  154.3733 N   0  0  0  0  0  0  0  0  0  0  0  0
  147.9864  139.2150  153.5650 C   0  0  0  0  0  0  0  0  0  0  0  0
  146.9337  139.9992  153.1639 C   0  0  0  0  0  0  0  0  0  0  0  0
  147.0574  141.6219  153.7893 S   0  0  0  0  0  0  0  0  0  0  0  0
  151.1660  143.0191  160.5045 H   0  0  0  0  0  0  0  0  0  0  0  0
  151.8290  144.1079  161.7265 H   0  0  0  0  0  0  0  0  0  0  0  0
  152.9005  142.9939  160.8645 H   0  0  0  0  0  0  0  0  0  0  0  0
  153.0431  145.4155  160.0050 H   0  0  0  0  0  0  0  0  0  0  0  0
  150.1589  144.7963  159.0058 H   0  0  0  0  0  0  0  0  0  0  0  0
  151.1438  146.3084  158.6590 H   0  0  0  0  0  0  0  0  0  0  0  0
  152.9492  144.9344  157.6249 H   0  0  0  0  0  0  0  0  0  0  0  0
  152.7906  142.6397  157.1786 H   0  0  0  0  0  0  0  0  0  0  0  0
  151.7257  142.3244  158.5259 H   0  0  0  0  0  0  0  0  0  0  0  0
  150.3163  143.8127  156.5570 H   0  0  0  0  0  0  0  0  0  0  0  0
  148.9991  143.0395  155.3151 H   0  0  0  0  0  0  0  0  0  0  0  0
  148.1588  138.1764  153.3243 H   0  0  0  0  0  0  0  0  0  0  0  0
  146.0964  139.7211  152.5412 H   0  0  0  0  0  0  0  0  0  0  0  0
  1  2  1  0  0  0  0
  1 15  1  0  0  0  0
  1 16  1  0  0  0  0
  1 17  1  0  0  0  0
  2  4  1  0  0  0  0
  2  3  1  0  0  0  0
  2 18  1  0  0  0  0
  3  4  1  0  0  0  0
  3 19  1  0  0  0  0
  3 20  1  0  0  0  0
  4  5  1  0  0  0  0
  4 21  1  0  0  0  0
  5  6  1  0  0  0  0
  5 22  1  0  0  0  0
  5 23  1  0  0  0  0
  6  7  1  0  0  0  0
  6 24  1  0  0  0  0
  7  8  2  0  0  0  0
  7  9  1  0  0  0  0
  9 10  1  0  0  0  0
  9 25  1  0  0  0  0
 10 14  1  0  0  0  0
 10 11  2  0  0  0  0
 11 12  1  0  0  0  0
 12 13  2  0  0  0  0
 12 26  1  0  0  0  0
 13 14  1  0  0  0  0
 13 27  1  0  0  0  0
M  END
> <s_m_source_file>
AV-unprocessed.smi

> <i_m_source_file_index>
554

> <i_lp_mmshare_version>
43012

> <i_f3d_flags>
0

> <s_epik_input>
W0NIM11bQ0BASF0xW0NIMl1bQ0BIXTFbQ0gyXVtOSF1DKD1PKVtOSF1jMm5bY0hdW2NIXXMy

> <s_epik_cmdline>
J2VwaWtfcHl0aG9uJywgJy1waCcsICc3LjAnLCAnLXRuJywgJzgnLCAnLW1hJywgJzIwMCcsICctbWV0YWxfYmluZGluZycsICctaW1hZScsICc8aW5maWxlLm1hZT4nLCAnLW9tYWUnLCAnPG91dGZpbGUubWFlPic=

> <r_lp_tautomer_probability>
0.999

> <r_epik_Ionization_Penalty>
0.00042678

> <r_epik_Ionization_Penalty_Charging>
0

> <r_epik_Ionization_Penalty_Neutral>
0.00042678

> <r_epik_State_Penalty>
0.000177984

> <r_epik_Charging_Adjusted_Penalty>
0.000177984

> <i_epik_Tot_Q>
0

> <i_epik_Tot_abs_Q>
0

> <r_epik_Metal_State_Penalty>
-0

> <b_epik_Metal_Only>
0

> <s_lp_Force_Field>
OPLS_2005

> <r_lp_Energy>
14.5233

> <b_lp_Chiralities_Consistent>
1

> <s_lp_Variant>
AV-unprocessed.smi:554-3

> <Gold.Version>
5.8.1

> <Gold.Id.Protein>
6NUR|6NUR_protein|mol2

> <Gold.PLP.Fitness>
44.4488

> <Gold.PLP.PLP>
-32.7565

> <Gold.PLP.part.hbond>
-2.0000

> <Gold.PLP.part.metal>
0.0000

> <Gold.PLP.part.buried>
-4.7195

> <Gold.PLP.part.nonpolar>
-27.2813

> <Gold.PLP.part.repulsive>
0.3675

> <Gold.PLP.ligand.clash>
0.0000

> <Gold.PLP.ligand.torsion>
0.3985

> <Gold.PLP.Chemscore.Hbond>
1.9920

> <Gold.PLP.Chemscore.CHOScore>
1.9955

> <Gold.PLP.Chemscore.Metal>
0.0000

> <Gold.Chemscore.Hbonds>
donor molecule, donor type, donor heavy atom, donor atom, acceptor molecule, acceptor atom, score
      L1  H     6    24       P1  8028  0.99
      L1  H     9    25       P1  8028  1.00
      L1  C    12    26       P1  7948  0.96
      L1  C    13    27       P1 10175  1.00

> <Gold.PLP.Chemscore.Internal.Correction>
0.5266

> <Gold.Rescore>
     Score         DG    S(hbond)    S(metal)    S(lipo)     H(rot)  DE(clash)    DE(int)     intcor
     16.53     -18.36       1.97        0.00      81.95       1.28       0.17       1.66       ----

> <Gold.Chemscore.Fitness>
16.5267

> <Gold.Chemscore.DG>
-18.3631

> <Gold.Chemscore.ZeroCoef>
-5.4800

> <Gold.Chemscore.Hbond>
1.9668

> <Gold.Chemscore.Metal>
0.0000

> <Gold.Chemscore.Lipo>
81.9469

> <Gold.Chemscore.Internal_Hbond>
0.0000

> <Gold.Chemscore.DEClash>
0.1725

> <Gold.Chemscore.DEInternal>
1.6638

> <Gold.Chemscore.Rot>
1.2788

> <Gold.Chemscore.Internal.Correction>
   9.000000E+99

> <Gold.Chemscore.Hbonds>
donor molecule, donor type, donor heavy atom, donor atom, acceptor molecule, acceptor atom, score
      L1  H     6    24       P1  8028  0.94
      L1  H     9    25       P1  8028  1.00

> <Gold.Chemscore.Hbond.Weighted>
-6.5691

> <Gold.Chemscore.Metal.Weighted>
-0.0000

> <Gold.Chemscore.Lipo.Weighted>
-9.5878

> <Gold.Chemscore.Internal_Hbond.Weighted>
0.0000

> <Gold.Chemscore.DEClash.Weighted>
0.1725

> <Gold.Chemscore.DEInternal.Weighted>
1.6638

> <Gold.Chemscore.Rot.Weighted>
3.2738

> <Gold.Chemscore.Internal.Correction.Weighted>
   9.000000E+99

> <Gold.Protein.RotatedTorsions>
[ 6907 6896 6895 6894 ] final    6.32 input  -60.11 | X-H torsion
[ 7974 7965 7964 7962 ] final   -3.92 input  175.53 | X-H torsion
[ 8008 7997 7996 7995 ] final   71.86 input   59.86 | X-H torsion
[ 10167 10162 10161 10158 ] final  103.78 input  -65.29 | X-H torsion
[ 10718 10713 10712 10709 ] final    1.05 input   66.30 | X-H torsion
[ 10763 10752 10751 10750 ] final  -94.18 input  -60.55 | X-H torsion
[ 11005 11000 10999 10996 ] final -113.82 input  -57.11 | X-H torsion

> <Gold.Protein.ActiveResidues>
 VAL166  LYS551  ARG553  GLY616  TRP617  ASP618  TYR619  PRO620  LYS621  CYS622 
 ASP623  PHE694  ASN695  SER759  ASP760  ASP761  ALA762  ILE779  LEU786  VAL792 
 PHE793  MET794  SER795  GLU796  ALA797  LYS798  CYS799  TRP800  GLU811  SER814 

> <Gold.Protein.RotatedAtoms>
  151.6718  135.0975  160.0199 H   0  0  0  0  0  0  0  0  0  0  0  0  # atno 6907 bound_to 6896
  152.3887  133.6643  159.6228 H   0  0  0  0  0  0  0  0  0  0  0  0  # atno 6908 bound_to 6896
  150.7807  133.8908  159.3354 H   0  0  0  0  0  0  0  0  0  0  0  0  # atno 6909 bound_to 6896
  146.2381  140.1794  142.8332 H   0  0  0  0  0  0  0  0  0  0  0  0  # atno 7974 bound_to 7965
  155.7602  140.3486  155.5194 H   0  0  0  0  0  0  0  0  0  0  0  0  # atno 8008 bound_to 7997
  155.8921  140.1019  157.1432 H   0  0  0  0  0  0  0  0  0  0  0  0  # atno 8009 bound_to 7997
  154.4034  140.1302  156.4316 H   0  0  0  0  0  0  0  0  0  0  0  0  # atno 8010 bound_to 7997
  139.7233  144.7053  151.0837 H   0  0  0  0  0  0  0  0  0  0  0  0  # atno 10167 bound_to 10162
  156.8424  130.5525  149.5676 H   0  0  0  0  0  0  0  0  0  0  0  0  # atno 10718 bound_to 10713
  154.7030  135.5167  153.8555 H   0  0  0  0  0  0  0  0  0  0  0  0  # atno 10763 bound_to 10752
  153.0719  135.6604  154.0238 H   0  0  0  0  0  0  0  0  0  0  0  0  # atno 10764 bound_to 10752
  154.0093  135.3003  155.3373 H   0  0  0  0  0  0  0  0  0  0  0  0  # atno 10765 bound_to 10752
  141.0590  133.9565  157.2701 H   0  0  0  0  0  0  0  0  0  0  0  0  # atno 11005 bound_to 11000
  144.9947  140.8578  143.5318 LP  0  0  0  0  0  0  0  0  0  0  0  0  # atno 17320 bound_to 7965
  145.1804  139.2355  143.5295 LP  0  0  0  0  0  0  0  0  0  0  0  0  # atno 17321 bound_to 7965
  140.7758  143.5137  150.9620 LP  0  0  0  0  0  0  0  0  0  0  0  0  # atno 17342 bound_to 10162
  139.8825  143.7054  152.3155 LP  0  0  0  0  0  0  0  0  0  0  0  0  # atno 17343 bound_to 10162
  156.0873  130.5868  150.9671 LP  0  0  0  0  0  0  0  0  0  0  0  0  # atno 17370 bound_to 10713
  157.6348  131.0917  150.8370 LP  0  0  0  0  0  0  0  0  0  0  0  0  # atno 17371 bound_to 10713
  139.9416  135.0190  156.8725 LP  0  0  0  0  0  0  0  0  0  0  0  0  # atno 17394 bound_to 11000
  140.5906  134.0265  155.7498 LP  0  0  0  0  0  0  0  0  0  0  0  0  # atno 17395 bound_to 11000

$$$$
