AV-unprocessed.smi:2414|AV-procd|sdf|9538|dock6
  -GOLD-   2272013173D 1   1.00000     0.00000
 Structure written by MMmdl.
 43 44  0  0  0  0  0  0  0  0  1 V2000
  151.9632  140.2586  156.1312 C   0  0  0  0  0  0  0  0  0  0  0  0
  150.7754  139.8415  155.3325 C   0  0  0  0  0  0  0  0  0  0  0  0
  150.5056  138.5998  154.8128 C   0  0  0  0  0  0  0  0  0  0  0  0
  149.3061  138.5343  154.1004 N   0  0  0  0  0  0  0  0  0  0  0  0
  148.6626  139.7050  154.0749 C   0  0  0  0  0  0  0  0  0  0  0  0
  147.3658  139.9304  153.3577 C   0  0  2  0  0  0  0  0  0  0  0  0
  146.8546  141.3683  153.5221 C   0  0  0  0  0  0  0  0  0  0  0  0
  146.2934  138.8681  153.6891 C   0  0  0  0  0  0  0  0  0  0  0  0
  146.7050  137.5146  153.3281 N   0  0  0  0  0  0  0  0  0  0  0  0
  145.9205  136.4305  153.3835 C   0  0  0  0  0  0  0  0  0  0  0  0
  144.7624  136.4372  153.8009 O   0  0  0  0  0  0  0  0  0  0  0  0
  146.5444  135.3473  152.9028 N   0  0  0  0  0  0  0  0  0  0  0  0
  145.9656  134.0125  152.7749 C   0  0  0  0  0  0  0  0  0  0  0  0
  145.3686  133.7532  151.3722 C   0  0  1  0  0  0  0  0  0  0  0  0
  144.8038  135.0598  150.7882 C   0  0  0  0  0  0  0  0  0  0  0  0
  146.3422  133.0865  150.3795 C   0  0  0  0  0  0  0  0  0  0  0  0
  145.4568  132.1127  149.6334 C   0  0  0  0  0  0  0  0  0  0  0  0
  144.5085  131.6684  150.7370 C   0  0  0  0  0  0  0  0  0  0  0  0
  144.2657  132.8501  151.4912 O   0  0  0  0  0  0  0  0  0  0  0  0
  149.5093  140.9771  154.9481 S   0  0  0  0  0  0  0  0  0  0  0  0
  152.6323  139.4166  156.3094 H   0  0  0  0  0  0  0  0  0  0  0  0
  151.6580  140.6570  157.0988 H   0  0  0  0  0  0  0  0  0  0  0  0
  152.5277  141.0313  155.6097 H   0  0  0  0  0  0  0  0  0  0  0  0
  151.1117  137.7099  154.8977 H   0  0  0  0  0  0  0  0  0  0  0  0
  147.5915  139.8176  152.2966 H   0  0  0  0  0  0  0  0  0  0  0  0
  147.5976  142.0899  153.1812 H   0  0  0  0  0  0  0  0  0  0  0  0
  146.6273  141.5909  154.5651 H   0  0  0  0  0  0  0  0  0  0  0  0
  145.9461  141.5302  152.9417 H   0  0  0  0  0  0  0  0  0  0  0  0
  146.1024  138.8677  154.7627 H   0  0  0  0  0  0  0  0  0  0  0  0
  145.3455  139.1144  153.2081 H   0  0  0  0  0  0  0  0  0  0  0  0
  147.6428  137.4054  152.9708 H   0  0  0  0  0  0  0  0  0  0  0  0
  147.4930  135.4560  152.5751 H   0  0  0  0  0  0  0  0  0  0  0  0
  146.7670  133.2990  152.9682 H   0  0  0  0  0  0  0  0  0  0  0  0
  145.2115  133.8329  153.5431 H   0  0  0  0  0  0  0  0  0  0  0  0
  145.5888  135.8054  150.6574 H   0  0  0  0  0  0  0  0  0  0  0  0
  144.0459  135.4892  151.4440 H   0  0  0  0  0  0  0  0  0  0  0  0
  144.3385  134.8943  149.8160 H   0  0  0  0  0  0  0  0  0  0  0  0
  146.8380  133.7971  149.7176 H   0  0  0  0  0  0  0  0  0  0  0  0
  147.1233  132.5286  150.8934 H   0  0  0  0  0  0  0  0  0  0  0  0
  144.9056  132.6265  148.8450 H   0  0  0  0  0  0  0  0  0  0  0  0
  146.0091  131.2877  149.1834 H   0  0  0  0  0  0  0  0  0  0  0  0
  143.5833  131.2392  150.3528 H   0  0  0  0  0  0  0  0  0  0  0  0
  144.9888  130.9285  151.3791 H   0  0  0  0  0  0  0  0  0  0  0  0
  1  2  1  0  0  0  0
  1 21  1  0  0  0  0
  1 22  1  0  0  0  0
  1 23  1  0  0  0  0
  2 20  1  0  0  0  0
  2  3  2  0  0  0  0
  3  4  1  0  0  0  0
  3 24  1  0  0  0  0
  4  5  2  0  0  0  0
  5  6  1  0  0  0  0
  5 20  1  0  0  0  0
  6  7  1  0  0  0  0
  6  8  1  0  0  0  0
  6 25  1  0  0  0  0
  7 26  1  0  0  0  0
  7 27  1  0  0  0  0
  7 28  1  0  0  0  0
  8  9  1  0  0  0  0
  8 29  1  0  0  0  0
  8 30  1  0  0  0  0
  9 10  1  0  0  0  0
  9 31  1  0  0  0  0
 10 11  2  0  0  0  0
 10 12  1  0  0  0  0
 12 13  1  0  0  0  0
 12 32  1  0  0  0  0
 13 14  1  0  0  0  0
 13 33  1  0  0  0  0
 13 34  1  0  0  0  0
 14 19  1  0  0  0  0
 14 15  1  0  0  0  0
 14 16  1  0  0  0  0
 15 35  1  0  0  0  0
 15 36  1  0  0  0  0
 15 37  1  0  0  0  0
 16 17  1  0  0  0  0
 16 38  1  0  0  0  0
 16 39  1  0  0  0  0
 17 18  1  0  0  0  0
 17 40  1  0  0  0  0
 17 41  1  0  0  0  0
 18 19  1  0  0  0  0
 18 42  1  0  0  0  0
 18 43  1  0  0  0  0
M  END
> <s_m_source_file>
AV-unprocessed.smi

> <i_m_source_file_index>
2414

> <i_lp_mmshare_version>
43012

> <i_f3d_flags>
0

> <s_epik_input>
W0NIM11jMVtjSF1uYyhzMSlbQ0BIXShbQ0gzXSlbQ0gyXVtOSF1DKD1PKVtOSF1bQ0gyXVtDQEBdMihbQ0gzXSlbQ0gyXVtDSDJdW0NIMl1PMg==

> <s_epik_cmdline>
J2VwaWtfcHl0aG9uJywgJy1waCcsICc3LjAnLCAnLXRuJywgJzgnLCAnLW1hJywgJzIwMCcsICctbWV0YWxfYmluZGluZycsICctaW1hZScsICc8aW5maWxlLm1hZT4nLCAnLW9tYWUnLCAnPG91dGZpbGUubWFlPic=

> <r_epik_Ionization_Penalty>
0.000646956

> <r_epik_Ionization_Penalty_Charging>
0

> <r_epik_Ionization_Penalty_Neutral>
0.000646956

> <r_epik_State_Penalty>
0.000375727

> <r_epik_Charging_Adjusted_Penalty>
0.000375727

> <i_epik_Tot_Q>
0

> <i_epik_Tot_abs_Q>
0

> <r_epik_Metal_State_Penalty>
-0

> <b_epik_Metal_Only>
0

> <s_lp_Force_Field>
OPLS_2005

> <r_lp_Energy>
5.80605

> <b_lp_Chiralities_Consistent>
1

> <s_lp_Variant>
AV-unprocessed.smi:2414-1

> <Gold.Version>
5.8.1

> <Gold.Id.Protein>
6NUR|6NUR_protein|mol2

> <Gold.PLP.Fitness>
39.6042

> <Gold.PLP.PLP>
-35.5504

> <Gold.PLP.part.hbond>
-2.0000

> <Gold.PLP.part.metal>
0.0000

> <Gold.PLP.part.buried>
-3.4609

> <Gold.PLP.part.nonpolar>
-31.3086

> <Gold.PLP.part.repulsive>
0.4414

> <Gold.PLP.ligand.clash>
0.0000

> <Gold.PLP.ligand.torsion>
0.9047

> <Gold.PLP.Chemscore.Hbond>
1.9120

> <Gold.PLP.Chemscore.CHOScore>
0.0000

> <Gold.PLP.Chemscore.Metal>
0.0000

> <Gold.Chemscore.Hbonds>
donor molecule, donor type, donor heavy atom, donor atom, acceptor molecule, acceptor atom, score
      L1  H     9    31       P1  7948  0.84
      L1  H    12    32       P1  7948  1.00

> <Gold.PLP.Chemscore.Internal.Correction>
0.1272

> <Gold.Rescore>
     Score         DG    S(hbond)    S(metal)    S(lipo)     H(rot)  DE(clash)    DE(int)     intcor
     18.31     -19.37       1.92        0.00     100.15       1.65       0.14       0.93       ----

> <Gold.Chemscore.Fitness>
18.3060

> <Gold.Chemscore.DG>
-19.3736

> <Gold.Chemscore.ZeroCoef>
-5.4800

> <Gold.Chemscore.Hbond>
1.9179

> <Gold.Chemscore.Metal>
0.0000

> <Gold.Chemscore.Lipo>
100.1488

> <Gold.Chemscore.Internal_Hbond>
0.0000

> <Gold.Chemscore.DEClash>
0.1375

> <Gold.Chemscore.DEInternal>
0.9300

> <Gold.Chemscore.Rot>
1.6522

> <Gold.Chemscore.Internal.Correction>
   9.000000E+99

> <Gold.Chemscore.Hbonds>
donor molecule, donor type, donor heavy atom, donor atom, acceptor molecule, acceptor atom, score
      L1  H     9    31       P1  7948  0.78
      L1  H    12    32       P1  7948  1.00

> <Gold.Chemscore.Hbond.Weighted>
-6.4057

> <Gold.Chemscore.Metal.Weighted>
-0.0000

> <Gold.Chemscore.Lipo.Weighted>
-11.7174

> <Gold.Chemscore.Internal_Hbond.Weighted>
0.0000

> <Gold.Chemscore.DEClash.Weighted>
0.1375

> <Gold.Chemscore.DEInternal.Weighted>
0.9300

> <Gold.Chemscore.Rot.Weighted>
4.2295

> <Gold.Chemscore.Internal.Correction.Weighted>
   9.000000E+99

> <Gold.Protein.RotatedTorsions>
[ 6907 6896 6895 6894 ] final -143.17 input  -60.11 | X-H torsion
[ 7974 7965 7964 7962 ] final  154.73 input  175.53 | X-H torsion
[ 8008 7997 7996 7995 ] final   33.63 input   59.86 | X-H torsion
[ 10167 10162 10161 10158 ] final  -36.76 input  -65.29 | X-H torsion
[ 10718 10713 10712 10709 ] final   -2.18 input   66.30 | X-H torsion
[ 10763 10752 10751 10750 ] final -132.33 input  -60.55 | X-H torsion
[ 11005 11000 10999 10996 ] final  133.25 input  -57.11 | X-H torsion

> <Gold.Protein.ActiveResidues>
 VAL166  LYS551  ARG553  GLY616  TRP617  ASP618  TYR619  PRO620  LYS621  CYS622 
 ASP623  PHE694  ASN695  SER759  ASP760  ASP761  ALA762  ILE779  LEU786  VAL792 
 PHE793  MET794  SER795  GLU796  ALA797  LYS798  CYS799  TRP800  GLU811  SER814 

> <Gold.Protein.RotatedAtoms>
  151.0969  133.5273  159.2611 H   0  0  0  0  0  0  0  0  0  0  0  0  # atno 6907 bound_to 6896
  151.2119  135.0484  159.8924 H   0  0  0  0  0  0  0  0  0  0  0  0  # atno 6908 bound_to 6896
  152.5439  134.0783  159.8278 H   0  0  0  0  0  0  0  0  0  0  0  0  # atno 6909 bound_to 6896
  144.8070  139.6973  143.6158 H   0  0  0  0  0  0  0  0  0  0  0  0  # atno 7974 bound_to 7965
  155.1418  140.3267  155.4450 H   0  0  0  0  0  0  0  0  0  0  0  0  # atno 8008 bound_to 7997
  156.2602  140.1992  156.6483 H   0  0  0  0  0  0  0  0  0  0  0  0  # atno 8009 bound_to 7997
  154.6537  140.0555  156.9971 H   0  0  0  0  0  0  0  0  0  0  0  0  # atno 8010 bound_to 7997
  140.7135  143.3387  151.2405 H   0  0  0  0  0  0  0  0  0  0  0  0  # atno 10167 bound_to 10162
  156.7946  130.5373  149.5730 H   0  0  0  0  0  0  0  0  0  0  0  0  # atno 10718 bound_to 10713
  154.8744  135.3801  154.4393 H   0  0  0  0  0  0  0  0  0  0  0  0  # atno 10763 bound_to 10752
  153.5079  135.7030  153.5801 H   0  0  0  0  0  0  0  0  0  0  0  0  # atno 10764 bound_to 10752
  153.4104  135.3926  155.2013 H   0  0  0  0  0  0  0  0  0  0  0  0  # atno 10765 bound_to 10752
  139.9840  134.9538  156.9698 H   0  0  0  0  0  0  0  0  0  0  0  0  # atno 11005 bound_to 11000
  146.2362  139.5911  142.9522 LP  0  0  0  0  0  0  0  0  0  0  0  0  # atno 17320 bound_to 7965
  145.5415  141.0420  143.2328 LP  0  0  0  0  0  0  0  0  0  0  0  0  # atno 17321 bound_to 7965
  139.6889  143.9727  152.2848 LP  0  0  0  0  0  0  0  0  0  0  0  0  # atno 17342 bound_to 10162
  139.9381  144.6699  150.8294 LP  0  0  0  0  0  0  0  0  0  0  0  0  # atno 17343 bound_to 10162
  156.1138  130.6060  151.0089 LP  0  0  0  0  0  0  0  0  0  0  0  0  # atno 17370 bound_to 10713
  157.6584  131.0885  150.7895 LP  0  0  0  0  0  0  0  0  0  0  0  0  # atno 17371 bound_to 10713
  140.5039  134.1069  155.7256 LP  0  0  0  0  0  0  0  0  0  0  0  0  # atno 17394 bound_to 11000
  141.1508  133.8972  157.2103 LP  0  0  0  0  0  0  0  0  0  0  0  0  # atno 17395 bound_to 11000

$$$$
