AV-unprocessed.smi:859|AV-procd|sdf|3964|dock10
  -GOLD-   22720 1433D 1   1.00000     0.00000
 Structure written by MMmdl.
 35 36  0  0  0  0  0  0  0  0  1 V2000
  151.3386  140.6481  156.1309 O   0  0  0  0  0  0  0  0  0  0  0  0
  150.6366  141.6178  156.4198 C   0  0  0  0  0  0  0  0  0  0  0  0
  149.5977  142.0230  155.6726 N   0  0  0  0  0  0  0  0  0  0  0  0
  149.1959  141.4339  154.3984 C   0  0  0  0  0  0  0  0  0  0  0  0
  147.7658  140.8649  154.4575 C   0  0  0  0  0  0  0  0  0  0  0  0
  146.7632  141.8927  154.6711 N   0  0  0  0  0  0  0  0  0  0  0  0
  146.3413  142.8541  153.7618 C   0  0  0  0  0  0  0  0  0  0  0  0
  145.3729  143.5980  154.3970 C   0  0  0  0  0  0  0  0  0  0  0  0
  145.1899  143.1206  155.6927 N   0  0  0  0  0  0  0  0  0  0  0  0
  146.0472  142.1119  155.7825 C   0  0  0  0  0  0  0  0  0  0  0  0
  150.9458  142.4494  157.6712 C   0  0  0  0  0  0  0  0  0  0  0  0
  151.4582  143.8515  157.2761 C   0  0  0  0  0  0  0  0  0  0  0  0
  151.7952  144.6967  158.5151 C   0  0  0  0  0  0  0  0  0  0  0  0
  152.8112  143.9795  159.4179 C   0  0  0  0  0  0  0  0  0  0  0  0
  152.3121  142.5813  159.8150 C   0  0  0  0  0  0  0  0  0  0  0  0
  151.9754  141.7369  158.5747 C   0  0  0  0  0  0  0  0  0  0  0  0
  149.0730  142.8258  155.9888 H   0  0  0  0  0  0  0  0  0  0  0  0
  149.2910  142.1510  153.5811 H   0  0  0  0  0  0  0  0  0  0  0  0
  149.8938  140.6273  154.1739 H   0  0  0  0  0  0  0  0  0  0  0  0
  147.5320  140.3526  153.5236 H   0  0  0  0  0  0  0  0  0  0  0  0
  147.6834  140.1209  155.2508 H   0  0  0  0  0  0  0  0  0  0  0  0
  146.7475  142.9218  152.7634 H   0  0  0  0  0  0  0  0  0  0  0  0
  144.7989  144.4335  154.0245 H   0  0  0  0  0  0  0  0  0  0  0  0
  146.1529  141.5145  156.6762 H   0  0  0  0  0  0  0  0  0  0  0  0
  150.0225  142.5724  158.2403 H   0  0  0  0  0  0  0  0  0  0  0  0
  152.3475  143.7649  156.6494 H   0  0  0  0  0  0  0  0  0  0  0  0
  150.7095  144.3695  156.6750 H   0  0  0  0  0  0  0  0  0  0  0  0
  152.1905  145.6652  158.2073 H   0  0  0  0  0  0  0  0  0  0  0  0
  150.8841  144.8999  159.0794 H   0  0  0  0  0  0  0  0  0  0  0  0
  153.7648  143.8921  158.8960 H   0  0  0  0  0  0  0  0  0  0  0  0
  153.0007  144.5750  160.3115 H   0  0  0  0  0  0  0  0  0  0  0  0
  153.0683  142.0740  160.4148 H   0  0  0  0  0  0  0  0  0  0  0  0
  151.4275  142.6742  160.4463 H   0  0  0  0  0  0  0  0  0  0  0  0
  151.5911  140.7656  158.8889 H   0  0  0  0  0  0  0  0  0  0  0  0
  152.8931  141.5403  158.0180 H   0  0  0  0  0  0  0  0  0  0  0  0
  1  2  2  0  0  0  0
  2  3  1  0  0  0  0
  2 11  1  0  0  0  0
  3  4  1  0  0  0  0
  3 17  1  0  0  0  0
  4  5  1  0  0  0  0
  4 18  1  0  0  0  0
  4 19  1  0  0  0  0
  5  6  1  0  0  0  0
  5 20  1  0  0  0  0
  5 21  1  0  0  0  0
  6 10  1  0  0  0  0
  6  7  1  0  0  0  0
  7  8  2  0  0  0  0
  7 22  1  0  0  0  0
  8  9  1  0  0  0  0
  8 23  1  0  0  0  0
  9 10  2  0  0  0  0
 10 24  1  0  0  0  0
 11 16  1  0  0  0  0
 11 12  1  0  0  0  0
 11 25  1  0  0  0  0
 12 13  1  0  0  0  0
 12 26  1  0  0  0  0
 12 27  1  0  0  0  0
 13 14  1  0  0  0  0
 13 28  1  0  0  0  0
 13 29  1  0  0  0  0
 14 15  1  0  0  0  0
 14 30  1  0  0  0  0
 14 31  1  0  0  0  0
 15 16  1  0  0  0  0
 15 32  1  0  0  0  0
 15 33  1  0  0  0  0
 16 34  1  0  0  0  0
 16 35  1  0  0  0  0
M  END
> <s_m_source_file>
AV-unprocessed.smi

> <i_m_source_file_index>
859

> <i_lp_mmshare_version>
43012

> <i_f3d_flags>
0

> <s_epik_input>
W0NIMl0xW0NIMl1bQ0gyXVtDSDJdW0NIMl1bQ0hdMUMoPU8pW05IXVtDSDJdW0NIMl1uMltjSF1bY0hdbltjSF0y

> <s_epik_cmdline>
J2VwaWtfcHl0aG9uJywgJy1waCcsICc3LjAnLCAnLXRuJywgJzgnLCAnLW1hJywgJzIwMCcsICctbWV0YWxfYmluZGluZycsICctaW1hZScsICc8aW5maWxlLm1hZT4nLCAnLW9tYWUnLCAnPG91dGZpbGUubWFlPic=

> <r_lp_tautomer_probability>
1

> <r_epik_Ionization_Penalty>
0.600603

> <r_epik_Ionization_Penalty_Charging>
0.600603

> <r_epik_Ionization_Penalty_Neutral>
2.01201e-08

> <r_epik_State_Penalty>
0.614954

> <r_epik_Charging_Adjusted_Penalty>
1.21556

> <i_epik_Tot_Q>
0

> <i_epik_Tot_abs_Q>
0

> <r_epik_Metal_State_Penalty>
0.301281

> <b_epik_Metal_Only>
0

> <s_lp_Force_Field>
OPLS_2005

> <r_lp_Energy>
12.3333

> <b_lp_Chiralities_Consistent>
1

> <s_lp_Variant>
AV-unprocessed.smi:859-2

> <Gold.Version>
5.8.1

> <Gold.Id.Protein>
6NUR|6NUR_protein|mol2

> <Gold.PLP.Fitness>
41.2644

> <Gold.PLP.PLP>
-39.3747

> <Gold.PLP.part.hbond>
-1.0000

> <Gold.PLP.part.metal>
0.0000

> <Gold.PLP.part.buried>
-4.0342

> <Gold.PLP.part.nonpolar>
-34.2195

> <Gold.PLP.part.repulsive>
0.3092

> <Gold.PLP.ligand.clash>
0.0000

> <Gold.PLP.ligand.torsion>
0.3119

> <Gold.PLP.Chemscore.Hbond>
0.8320

> <Gold.PLP.Chemscore.CHOScore>
0.0000

> <Gold.PLP.Chemscore.Metal>
0.0000

> <Gold.Chemscore.Hbonds>
donor molecule, donor type, donor heavy atom, donor atom, acceptor molecule, acceptor atom, score
      L1  H     3    17       P1  8028  0.82

> <Gold.PLP.Chemscore.Internal.Correction>
0.0176

> <Gold.Rescore>
     Score         DG    S(hbond)    S(metal)    S(lipo)     H(rot)  DE(clash)    DE(int)     intcor
     14.41     -14.88       0.85        0.00      95.10       1.79       0.15       0.33       ----

> <Gold.Chemscore.Fitness>
14.4074

> <Gold.Chemscore.DG>
-14.8818

> <Gold.Chemscore.ZeroCoef>
-5.4800

> <Gold.Chemscore.Hbond>
0.8532

> <Gold.Chemscore.Metal>
0.0000

> <Gold.Chemscore.Lipo>
95.1036

> <Gold.Chemscore.Internal_Hbond>
0.0000

> <Gold.Chemscore.DEClash>
0.1478

> <Gold.Chemscore.DEInternal>
0.3266

> <Gold.Chemscore.Rot>
1.7872

> <Gold.Chemscore.Internal.Correction>
   9.000000E+99

> <Gold.Chemscore.Hbonds>
donor molecule, donor type, donor heavy atom, donor atom, acceptor molecule, acceptor atom, score
      L1  H     3    17       P1  8028  0.81

> <Gold.Chemscore.Hbond.Weighted>
-2.8498

> <Gold.Chemscore.Metal.Weighted>
-0.0000

> <Gold.Chemscore.Lipo.Weighted>
-11.1271

> <Gold.Chemscore.Internal_Hbond.Weighted>
0.0000

> <Gold.Chemscore.DEClash.Weighted>
0.1478

> <Gold.Chemscore.DEInternal.Weighted>
0.3266

> <Gold.Chemscore.Rot.Weighted>
4.5751

> <Gold.Chemscore.Internal.Correction.Weighted>
   9.000000E+99

> <Gold.Protein.RotatedTorsions>
[ 6907 6896 6895 6894 ] final  -77.79 input  -60.11 | X-H torsion
[ 7974 7965 7964 7962 ] final -128.14 input  175.53 | X-H torsion
[ 8008 7997 7996 7995 ] final  101.47 input   59.86 | X-H torsion
[ 10167 10162 10161 10158 ] final -116.06 input  -65.29 | X-H torsion
[ 10718 10713 10712 10709 ] final  -24.73 input   66.30 | X-H torsion
[ 10763 10752 10751 10750 ] final  145.65 input  -60.55 | X-H torsion
[ 11005 11000 10999 10996 ] final -158.81 input  -57.11 | X-H torsion

> <Gold.Protein.ActiveResidues>
 VAL166  LYS551  ARG553  GLY616  TRP617  ASP618  TYR619  PRO620  LYS621  CYS622 
 ASP623  PHE694  ASN695  SER759  ASP760  ASP761  ALA762  ILE779  LEU786  VAL792 
 PHE793  MET794  SER795  GLU796  ALA797  LYS798  CYS799  TRP800  GLU811  SER814 

> <Gold.Protein.RotatedAtoms>
  150.6989  134.4370  159.5274 H   0  0  0  0  0  0  0  0  0  0  0  0  # atno 6907 bound_to 6896
  152.2087  134.8519  160.0509 H   0  0  0  0  0  0  0  0  0  0  0  0  # atno 6908 bound_to 6896
  151.9412  133.3603  159.4003 H   0  0  0  0  0  0  0  0  0  0  0  0  # atno 6909 bound_to 6896
  144.9700  140.7536  143.4676 H   0  0  0  0  0  0  0  0  0  0  0  0  # atno 7974 bound_to 7965
  156.1302  140.3197  155.8337 H   0  0  0  0  0  0  0  0  0  0  0  0  # atno 8008 bound_to 7997
  155.4346  140.0521  157.3033 H   0  0  0  0  0  0  0  0  0  0  0  0  # atno 8009 bound_to 7997
  154.4893  140.2086  155.9596 H   0  0  0  0  0  0  0  0  0  0  0  0  # atno 8010 bound_to 7997
  140.0833  143.4767  152.1913 H   0  0  0  0  0  0  0  0  0  0  0  0  # atno 10167 bound_to 10162
  156.4738  130.4530  149.6853 H   0  0  0  0  0  0  0  0  0  0  0  0  # atno 10718 bound_to 10713
  154.0089  135.2916  155.3394 H   0  0  0  0  0  0  0  0  0  0  0  0  # atno 10763 bound_to 10752
  154.7115  135.5147  153.8676 H   0  0  0  0  0  0  0  0  0  0  0  0  # atno 10764 bound_to 10752
  153.0732  135.6654  154.0323 H   0  0  0  0  0  0  0  0  0  0  0  0  # atno 10765 bound_to 10752
  140.6495  134.4465  157.5235 H   0  0  0  0  0  0  0  0  0  0  0  0  # atno 11005 bound_to 11000
  145.2572  139.2007  143.4911 LP  0  0  0  0  0  0  0  0  0  0  0  0  # atno 17320 bound_to 7965
  146.3379  140.2496  142.8598 LP  0  0  0  0  0  0  0  0  0  0  0  0  # atno 17321 bound_to 7965
  139.5766  144.7490  151.3748 LP  0  0  0  0  0  0  0  0  0  0  0  0  # atno 17342 bound_to 10162
  140.7066  143.7498  150.7493 LP  0  0  0  0  0  0  0  0  0  0  0  0  # atno 17343 bound_to 10162
  156.3591  130.7472  151.2442 LP  0  0  0  0  0  0  0  0  0  0  0  0  # atno 17370 bound_to 10713
  157.7489  131.0355  150.4367 LP  0  0  0  0  0  0  0  0  0  0  0  0  # atno 17371 bound_to 10713
  139.9051  134.8468  156.1739 LP  0  0  0  0  0  0  0  0  0  0  0  0  # atno 17394 bound_to 11000
  141.0547  133.6871  156.1838 LP  0  0  0  0  0  0  0  0  0  0  0  0  # atno 17395 bound_to 11000

$$$$
