AV-unprocessed.smi:2528|AV-procd|sdf|9957|dock8
  -GOLD-   2272013593D 1   1.00000     0.00000
 Structure written by MMmdl.
 43 45  0  0  0  0  0  0  0  0  1 V2000
  148.1954  133.3254  155.5283 O   0  0  0  0  0  0  0  0  0  0  0  0
  148.3793  134.0978  154.5876 C   0  0  0  0  0  0  0  0  0  0  0  0
  149.0916  135.2296  154.6851 N   0  0  0  0  0  0  0  0  0  0  0  0
  149.7696  135.7030  155.8875 C   0  0  0  0  0  0  0  0  0  0  0  0
  151.2126  136.1557  155.5785 C   0  0  1  0  0  0  0  0  0  0  0  0
  151.3312  137.6693  155.3098 C   0  0  0  0  0  0  0  0  0  0  0  0
  151.2122  138.4741  156.5198 N   0  0  0  0  0  0  0  0  0  0  0  0
  151.3601  139.8980  156.2199 C   0  0  0  0  0  0  0  0  0  0  0  0
  151.2153  140.7815  157.4687 C   0  0  0  0  0  0  0  0  0  0  0  0
  152.2306  140.3582  158.5393 C   0  0  0  0  0  0  0  0  0  0  0  0
  152.1033  138.8527  158.8166 C   0  0  0  0  0  0  0  0  0  0  0  0
  152.2006  138.0377  157.5099 C   0  0  1  0  0  0  0  0  0  0  0  0
  152.0527  136.5330  157.8050 C   0  0  0  0  0  0  0  0  0  0  0  0
  152.1374  135.7765  156.5996 O   0  0  0  0  0  0  0  0  0  0  0  0
  147.9048  133.9293  153.3406 N   0  0  0  0  0  0  0  0  0  0  0  0
  147.1054  132.8666  152.8405 C   0  0  0  0  0  0  0  0  0  0  0  0
  146.7607  132.9687  151.4735 C   0  0  0  0  0  0  0  0  0  0  0  0
  145.9682  131.9661  150.8814 C   0  0  0  0  0  0  0  0  0  0  0  0
  145.5399  130.8853  151.6726 C   0  0  0  0  0  0  0  0  0  0  0  0
  145.9270  130.8595  153.0250 C   0  0  0  0  0  0  0  0  0  0  0  0
  146.6862  131.8194  153.5943 N   0  0  0  0  0  0  0  0  0  0  0  0
  149.1875  135.8017  153.8590 H   0  0  0  0  0  0  0  0  0  0  0  0
  149.1990  136.5525  156.2634 H   0  0  0  0  0  0  0  0  0  0  0  0
  149.7429  134.9546  156.6805 H   0  0  0  0  0  0  0  0  0  0  0  0
  151.5260  135.6390  154.6705 H   0  0  0  0  0  0  0  0  0  0  0  0
  152.2980  137.8638  154.8429 H   0  0  0  0  0  0  0  0  0  0  0  0
  150.5759  137.9738  154.5843 H   0  0  0  0  0  0  0  0  0  0  0  0
  152.3329  140.0803  155.7603 H   0  0  0  0  0  0  0  0  0  0  0  0
  150.6116  140.1966  155.4852 H   0  0  0  0  0  0  0  0  0  0  0  0
  151.3597  141.8301  157.2071 H   0  0  0  0  0  0  0  0  0  0  0  0
  150.2026  140.6944  157.8647 H   0  0  0  0  0  0  0  0  0  0  0  0
  153.2409  140.5831  158.1957 H   0  0  0  0  0  0  0  0  0  0  0  0
  152.0765  140.9276  159.4562 H   0  0  0  0  0  0  0  0  0  0  0  0
  152.8802  138.5399  159.5152 H   0  0  0  0  0  0  0  0  0  0  0  0
  151.1482  138.6541  159.3052 H   0  0  0  0  0  0  0  0  0  0  0  0
  153.1977  138.1941  157.0943 H   0  0  0  0  0  0  0  0  0  0  0  0
  152.8436  136.1986  158.4764 H   0  0  0  0  0  0  0  0  0  0  0  0
  151.1097  136.3317  158.3128 H   0  0  0  0  0  0  0  0  0  0  0  0
  148.1425  134.6455  152.6709 H   0  0  0  0  0  0  0  0  0  0  0  0
  147.0981  133.8061  150.8800 H   0  0  0  0  0  0  0  0  0  0  0  0
  145.6942  132.0260  149.8386 H   0  0  0  0  0  0  0  0  0  0  0  0
  144.9310  130.0973  151.2547 H   0  0  0  0  0  0  0  0  0  0  0  0
  145.6191  130.0477  153.6672 H   0  0  0  0  0  0  0  0  0  0  0  0
  1  2  2  0  0  0  0
  2  3  1  0  0  0  0
  2 15  1  0  0  0  0
  3  4  1  0  0  0  0
  3 22  1  0  0  0  0
  4  5  1  0  0  0  0
  4 23  1  0  0  0  0
  4 24  1  0  0  0  0
  5 14  1  0  0  0  0
  5  6  1  0  0  0  0
  5 25  1  0  0  0  0
  6  7  1  0  0  0  0
  6 26  1  0  0  0  0
  6 27  1  0  0  0  0
  7 12  1  0  0  0  0
  7  8  1  0  0  0  0
  8  9  1  0  0  0  0
  8 28  1  0  0  0  0
  8 29  1  0  0  0  0
  9 10  1  0  0  0  0
  9 30  1  0  0  0  0
  9 31  1  0  0  0  0
 10 11  1  0  0  0  0
 10 32  1  0  0  0  0
 10 33  1  0  0  0  0
 11 12  1  0  0  0  0
 11 34  1  0  0  0  0
 11 35  1  0  0  0  0
 12 13  1  0  0  0  0
 12 36  1  0  0  0  0
 13 14  1  0  0  0  0
 13 37  1  0  0  0  0
 13 38  1  0  0  0  0
 15 16  1  0  0  0  0
 15 39  1  0  0  0  0
 16 21  1  0  0  0  0
 16 17  2  0  0  0  0
 17 18  1  0  0  0  0
 17 40  1  0  0  0  0
 18 19  2  0  0  0  0
 18 41  1  0  0  0  0
 19 20  1  0  0  0  0
 19 42  1  0  0  0  0
 20 21  2  0  0  0  0
 20 43  1  0  0  0  0
M  END
> <s_m_source_file>
AV-unprocessed.smi

> <i_m_source_file_index>
2528

> <i_lp_mmshare_version>
43012

> <i_f3d_flags>
0

> <s_epik_input>
bjFbY0hdW2NIXVtjSF1bY0hdYzFbTkhdQyg9TylbTkhdW0NIMl1bQ0BIXShbQ0gyXTIpT1tDSDJdW0NAQEhdKE4yMylbQ0gyXVtDSDJdW0NIMl1bQ0gyXTM=

> <s_epik_cmdline>
J2VwaWtfcHl0aG9uJywgJy1waCcsICc3LjAnLCAnLXRuJywgJzgnLCAnLW1hJywgJzIwMCcsICctbWV0YWxfYmluZGluZycsICctaW1hZScsICc8aW5maWxlLm1hZT4nLCAnLW9tYWUnLCAnPG91dGZpbGUubWFlPic=

> <r_epik_Ionization_Penalty>
1.14192

> <r_epik_Ionization_Penalty_Charging>
0

> <r_epik_Ionization_Penalty_Neutral>
1.14192

> <r_epik_State_Penalty>
1.20248

> <r_epik_Charging_Adjusted_Penalty>
1.20248

> <i_epik_Tot_Q>
0

> <i_epik_Tot_abs_Q>
0

> <r_epik_Metal_State_Penalty>
1.20248

> <b_epik_Metal_Only>
0

> <s_lp_Force_Field>
OPLS_2005

> <r_lp_Energy>
38.6775

> <b_lp_Chiralities_Consistent>
1

> <s_lp_Variant>
AV-unprocessed.smi:2528-10

> <Gold.Version>
5.8.1

> <Gold.Id.Protein>
6NUR|6NUR_protein|mol2

> <Gold.PLP.Fitness>
39.8766

> <Gold.PLP.PLP>
-30.4462

> <Gold.PLP.part.hbond>
-3.0000

> <Gold.PLP.part.metal>
0.0000

> <Gold.PLP.part.buried>
-2.9745

> <Gold.PLP.part.nonpolar>
-25.1149

> <Gold.PLP.part.repulsive>
0.1691

> <Gold.PLP.ligand.clash>
0.0000

> <Gold.PLP.ligand.torsion>
0.5839

> <Gold.PLP.Chemscore.Hbond>
2.9440

> <Gold.PLP.Chemscore.CHOScore>
0.5859

> <Gold.PLP.Chemscore.Metal>
0.0000

> <Gold.Chemscore.Hbonds>
donor molecule, donor type, donor heavy atom, donor atom, acceptor molecule, acceptor atom, score
      L1  H     3    22       P1  7948  1.00
      L1  H    15    39       P1  7948  1.00
      P1  H 10752 10764       L1    14  0.15
      L1  C    20    43       P1 10956  0.74

> <Gold.PLP.Chemscore.Internal.Correction>
0.0085

> <Gold.Rescore>
     Score         DG    S(hbond)    S(metal)    S(lipo)     H(rot)  DE(clash)    DE(int)     intcor
     17.91     -19.81       2.43        0.00      80.87       1.27       0.05       1.85       ----

> <Gold.Chemscore.Fitness>
17.9149

> <Gold.Chemscore.DG>
-19.8073

> <Gold.Chemscore.ZeroCoef>
-5.4800

> <Gold.Chemscore.Hbond>
2.4297

> <Gold.Chemscore.Metal>
0.0000

> <Gold.Chemscore.Lipo>
80.8730

> <Gold.Chemscore.Internal_Hbond>
0.0000

> <Gold.Chemscore.DEClash>
0.0468

> <Gold.Chemscore.DEInternal>
1.8456

> <Gold.Chemscore.Rot>
1.2696

> <Gold.Chemscore.Internal.Correction>
   9.000000E+99

> <Gold.Chemscore.Hbonds>
donor molecule, donor type, donor heavy atom, donor atom, acceptor molecule, acceptor atom, score
      L1  H     3    22       P1  7948  0.72
      L1  H    15    39       P1  7948  0.55

> <Gold.Chemscore.Hbond.Weighted>
-8.1153

> <Gold.Chemscore.Metal.Weighted>
-0.0000

> <Gold.Chemscore.Lipo.Weighted>
-9.4621

> <Gold.Chemscore.Internal_Hbond.Weighted>
0.0000

> <Gold.Chemscore.DEClash.Weighted>
0.0468

> <Gold.Chemscore.DEInternal.Weighted>
1.8456

> <Gold.Chemscore.Rot.Weighted>
3.2502

> <Gold.Chemscore.Internal.Correction.Weighted>
   9.000000E+99

> <Gold.Protein.RotatedTorsions>
[ 6907 6896 6895 6894 ] final   33.55 input  -60.11 | X-H torsion
[ 7974 7965 7964 7962 ] final   40.42 input  175.53 | X-H torsion
[ 8008 7997 7996 7995 ] final   57.63 input   59.86 | X-H torsion
[ 10167 10162 10161 10158 ] final   40.94 input  -65.29 | X-H torsion
[ 10718 10713 10712 10709 ] final    9.12 input   66.30 | X-H torsion
[ 10763 10752 10751 10750 ] final  -22.62 input  -60.55 | X-H torsion
[ 11005 11000 10999 10996 ] final -154.95 input  -57.11 | X-H torsion

> <Gold.Protein.ActiveResidues>
 VAL166  LYS551  ARG553  GLY616  TRP617  ASP618  TYR619  PRO620  LYS621  CYS622 
 ASP623  PHE694  ASN695  SER759  ASP760  ASP761  ALA762  ILE779  LEU786  VAL792 
 PHE793  MET794  SER795  GLU796  ALA797  LYS798  CYS799  TRP800  GLU811  SER814 

> <Gold.Protein.RotatedAtoms>
  152.0900  134.9413  160.0571 H   0  0  0  0  0  0  0  0  0  0  0  0  # atno 6907 bound_to 6896
  152.0668  133.4083  159.4450 H   0  0  0  0  0  0  0  0  0  0  0  0  # atno 6908 bound_to 6896
  150.6837  134.3057  159.4768 H   0  0  0  0  0  0  0  0  0  0  0  0  # atno 6909 bound_to 6896
  146.0906  139.5536  142.9478 H   0  0  0  0  0  0  0  0  0  0  0  0  # atno 7974 bound_to 7965
  155.5369  140.3483  155.4438 H   0  0  0  0  0  0  0  0  0  0  0  0  # atno 8008 bound_to 7997
  156.0679  140.1356  156.9890 H   0  0  0  0  0  0  0  0  0  0  0  0  # atno 8009 bound_to 7997
  154.4513  140.0972  156.6599 H   0  0  0  0  0  0  0  0  0  0  0  0  # atno 8010 bound_to 7997
  140.3692  144.2127  150.6134 H   0  0  0  0  0  0  0  0  0  0  0  0  # atno 10167 bound_to 10162
  156.9616  130.5935  149.5662 H   0  0  0  0  0  0  0  0  0  0  0  0  # atno 10718 bound_to 10713
  153.6548  135.6979  153.5197 H   0  0  0  0  0  0  0  0  0  0  0  0  # atno 10763 bound_to 10752
  153.2678  135.4224  155.0957 H   0  0  0  0  0  0  0  0  0  0  0  0  # atno 10764 bound_to 10752
  154.8467  135.3571  154.6093 H   0  0  0  0  0  0  0  0  0  0  0  0  # atno 10765 bound_to 10752
  140.6918  134.4033  157.5218 H   0  0  0  0  0  0  0  0  0  0  0  0  # atno 11005 bound_to 11000
  145.6045  141.0350  143.2000 LP  0  0  0  0  0  0  0  0  0  0  0  0  # atno 17320 bound_to 7965
  144.7358  139.7591  143.7330 LP  0  0  0  0  0  0  0  0  0  0  0  0  # atno 17321 bound_to 7965
  140.5050  143.2307  151.8621 LP  0  0  0  0  0  0  0  0  0  0  0  0  # atno 17342 bound_to 10162
  139.4805  144.5016  151.9053 LP  0  0  0  0  0  0  0  0  0  0  0  0  # atno 17343 bound_to 10162
  156.0320  130.5410  150.8557 LP  0  0  0  0  0  0  0  0  0  0  0  0  # atno 17370 bound_to 10713
  157.5654  131.0946  150.9498 LP  0  0  0  0  0  0  0  0  0  0  0  0  # atno 17371 bound_to 10713
  139.8921  134.8762  156.2285 LP  0  0  0  0  0  0  0  0  0  0  0  0  # atno 17394 bound_to 11000
  141.0235  133.7028  156.1309 LP  0  0  0  0  0  0  0  0  0  0  0  0  # atno 17395 bound_to 11000

$$$$
