AV-unprocessed.smi:134|AV-procd|sdf|1168|dock7
  -GOLD-   2262018313D 1   1.00000     0.00000
 Structure written by MMmdl.
 51 54  0  0  0  0  0  0  0  0  1 V2000
  150.0812  140.2333  154.0314 O   0  0  0  0  0  0  0  0  0  0  0  0
  149.5379  139.5057  154.8609 C   0  0  0  0  0  0  0  0  0  0  0  0
  150.2030  139.3382  156.2402 C   0  0  0  0  0  0  0  0  0  0  0  0
  150.1675  140.5401  157.1074 N   0  0  0  0  0  0  0  0  0  0  0  0
  148.9071  141.0751  157.4742 C   0  0  0  0  0  0  0  0  0  0  0  0
  147.8584  140.5550  157.0913 O   0  0  0  0  0  0  0  0  0  0  0  0
  148.9475  142.2712  158.3074 C   0  0  0  0  0  0  0  0  0  0  0  0
  147.7990  142.8504  158.6964 F   0  0  0  0  0  0  0  0  0  0  0  0
  150.1223  142.8112  158.6906 C   0  0  0  0  0  0  0  0  0  0  0  0
  151.3460  142.2766  158.3296 N   0  0  0  0  0  0  0  0  0  0  0  0
  152.6499  142.9010  158.7820 C   0  0  1  0  0  0  0  0  0  0  0  0
  152.6817  144.3884  158.4200 C   0  0  0  0  0  0  0  0  0  0  0  0
  152.0819  145.0185  159.6567 C   0  0  0  0  0  0  0  0  0  0  0  0
  152.6295  144.1154  160.7571 C   0  0  0  0  0  0  0  0  0  0  0  0
  152.7449  142.8174  160.1751 O   0  0  0  0  0  0  0  0  0  0  0  0
  151.3908  141.1243  157.5147 C   0  0  0  0  0  0  0  0  0  0  0  0
  152.4711  140.6475  157.1610 O   0  0  0  0  0  0  0  0  0  0  0  0
  148.3763  138.8581  154.6480 N   0  0  0  0  0  0  0  0  0  0  0  0
  147.5669  138.8265  153.4794 C   0  0  0  0  0  0  0  0  0  0  0  0
  147.4972  139.9112  152.5717 C   0  0  0  0  0  0  0  0  0  0  0  0
  146.7074  139.8178  151.4095 C   0  0  0  0  0  0  0  0  0  0  0  0
  145.9893  138.6393  151.1357 C   0  0  0  0  0  0  0  0  0  0  0  0
  146.0650  137.5497  152.0226 C   0  0  0  0  0  0  0  0  0  0  0  0
  146.8519  137.6392  153.1884 C   0  0  0  0  0  0  0  0  0  0  0  0
  146.9173  136.2519  154.2838 S   0  0  0  0  0  0  0  0  0  0  0  0
  146.1999  135.0132  153.2561 C   0  0  0  0  0  0  0  0  0  0  0  0
  147.0158  134.0314  152.6597 C   0  0  0  0  0  0  0  0  0  0  0  0
  146.4417  133.0533  151.8252 C   0  0  0  0  0  0  0  0  0  0  0  0
  145.0522  133.0545  151.5913 C   0  0  0  0  0  0  0  0  0  0  0  0
  144.3492  131.8585  150.5657 Cl  0  0  0  0  0  0  0  0  0  0  0  0
  144.2365  134.0328  152.1942 C   0  0  0  0  0  0  0  0  0  0  0  0
  144.8099  135.0128  153.0278 C   0  0  0  0  0  0  0  0  0  0  0  0
  149.7275  138.4936  156.7411 H   0  0  0  0  0  0  0  0  0  0  0  0
  151.2278  138.9993  156.0815 H   0  0  0  0  0  0  0  0  0  0  0  0
  150.0870  143.7008  159.3013 H   0  0  0  0  0  0  0  0  0  0  0  0
  153.4408  142.3100  158.3171 H   0  0  0  0  0  0  0  0  0  0  0  0
  153.7204  144.6966  158.2957 H   0  0  0  0  0  0  0  0  0  0  0  0
  152.1357  144.6047  157.5039 H   0  0  0  0  0  0  0  0  0  0  0  0
  152.3611  146.0646  159.7834 H   0  0  0  0  0  0  0  0  0  0  0  0
  150.9935  144.9574  159.6200 H   0  0  0  0  0  0  0  0  0  0  0  0
  153.6230  144.4483  161.0597 H   0  0  0  0  0  0  0  0  0  0  0  0
  151.9929  144.1016  161.6419 H   0  0  0  0  0  0  0  0  0  0  0  0
  147.9882  138.3825  155.4497 H   0  0  0  0  0  0  0  0  0  0  0  0
  148.0559  140.8191  152.7391 H   0  0  0  0  0  0  0  0  0  0  0  0
  146.6598  140.6502  150.7230 H   0  0  0  0  0  0  0  0  0  0  0  0
  145.3855  138.5691  150.2428 H   0  0  0  0  0  0  0  0  0  0  0  0
  145.5153  136.6450  151.8076 H   0  0  0  0  0  0  0  0  0  0  0  0
  148.0805  134.0262  152.8370 H   0  0  0  0  0  0  0  0  0  0  0  0
  147.0686  132.3035  151.3654 H   0  0  0  0  0  0  0  0  0  0  0  0
  143.1710  134.0342  152.0165 H   0  0  0  0  0  0  0  0  0  0  0  0
  144.1829  135.7636  153.4862 H   0  0  0  0  0  0  0  0  0  0  0  0
  1  2  2  0  0  0  0
  2  3  1  0  0  0  0
  2 18  1  0  0  0  0
  3  4  1  0  0  0  0
  3 33  1  0  0  0  0
  3 34  1  0  0  0  0
  4 16  1  0  0  0  0
  4  5  1  0  0  0  0
  5  6  2  0  0  0  0
  5  7  1  0  0  0  0
  7  8  1  0  0  0  0
  7  9  2  0  0  0  0
  9 10  1  0  0  0  0
  9 35  1  0  0  0  0
 10 11  1  0  0  0  0
 10 16  1  0  0  0  0
 11 15  1  0  0  0  0
 11 12  1  0  0  0  0
 11 36  1  0  0  0  0
 12 13  1  0  0  0  0
 12 37  1  0  0  0  0
 12 38  1  0  0  0  0
 13 14  1  0  0  0  0
 13 39  1  0  0  0  0
 13 40  1  0  0  0  0
 14 15  1  0  0  0  0
 14 41  1  0  0  0  0
 14 42  1  0  0  0  0
 16 17  2  0  0  0  0
 18 19  1  0  0  0  0
 18 43  1  0  0  0  0
 19 24  1  0  0  0  0
 19 20  2  0  0  0  0
 20 21  1  0  0  0  0
 20 44  1  0  0  0  0
 21 22  2  0  0  0  0
 21 45  1  0  0  0  0
 22 23  1  0  0  0  0
 22 46  1  0  0  0  0
 23 24  2  0  0  0  0
 23 47  1  0  0  0  0
 24 25  1  0  0  0  0
 25 26  1  0  0  0  0
 26 32  1  0  0  0  0
 26 27  2  0  0  0  0
 27 28  1  0  0  0  0
 27 48  1  0  0  0  0
 28 29  2  0  0  0  0
 28 49  1  0  0  0  0
 29 30  1  0  0  0  0
 29 31  1  0  0  0  0
 31 32  2  0  0  0  0
 31 50  1  0  0  0  0
 32 51  1  0  0  0  0
M  END
> <s_m_source_file>
AV-unprocessed.smi

> <i_m_source_file_index>
134

> <i_lp_mmshare_version>
43012

> <i_f3d_flags>
0

> <s_epik_input>
TzFbQ0gyXVtDSDJdW0NIMl1bQ0BIXTFuKGMyPU8pW2NIXWMoRiljKD1PKW4yW0NIMl1DKD1PKVtOSF1jM1tjSF1bY0hdW2NIXVtjSF1jM1NjNFtjSF1bY0hdYyhDbClbY0hdW2NIXTQ=

> <s_epik_cmdline>
J2VwaWtfcHl0aG9uJywgJy1waCcsICc3LjAnLCAnLXRuJywgJzgnLCAnLW1hJywgJzIwMCcsICctbWV0YWxfYmluZGluZycsICctaW1hZScsICc8aW5maWxlLm1hZT4nLCAnLW9tYWUnLCAnPG91dGZpbGUubWFlPic=

> <r_lp_tautomer_probability>
1

> <r_epik_Ionization_Penalty>
2.01717e-06

> <r_epik_Ionization_Penalty_Charging>
3.88729e-08

> <r_epik_Ionization_Penalty_Neutral>
1.9783e-06

> <r_epik_State_Penalty>
-0

> <r_epik_Charging_Adjusted_Penalty>
3.88729e-08

> <i_epik_Tot_Q>
0

> <i_epik_Tot_abs_Q>
0

> <r_epik_Metal_State_Penalty>
-0

> <b_epik_Metal_Only>
0

> <s_epik_Chemistry_Notes>
This compound contains an acetal/aminal-like group ( X-CH(R)-Y where X, Y are N, S, or O) that may be acid/base labile, releasing an aldehyde.

> <s_lp_Force_Field>
OPLS_2005

> <r_lp_Energy>
34.7756

> <b_lp_Chiralities_Consistent>
1

> <s_lp_Variant>
AV-unprocessed.smi:134-2

> <Gold.Version>
5.8.1

> <Gold.Id.Protein>
6NUR|6NUR_protein|mol2

> <Gold.PLP.Fitness>
48.7461

> <Gold.PLP.PLP>
-45.3954

> <Gold.PLP.part.hbond>
-1.8846

> <Gold.PLP.part.metal>
0.0000

> <Gold.PLP.part.buried>
6.6397

> <Gold.PLP.part.nonpolar>
-51.2018

> <Gold.PLP.part.repulsive>
1.0356

> <Gold.PLP.ligand.clash>
0.0000

> <Gold.PLP.ligand.torsion>
0.7013

> <Gold.PLP.Chemscore.Hbond>
1.5540

> <Gold.PLP.Chemscore.CHOScore>
0.0000

> <Gold.PLP.Chemscore.Metal>
0.0000

> <Gold.Chemscore.Hbonds>
donor molecule, donor type, donor heavy atom, donor atom, acceptor molecule, acceptor atom, score
      P1  H  7989  7998       L1     1  0.86
      P1  H  7997  8010       L1    17  0.78

> <Gold.PLP.Chemscore.Internal.Correction>
0.0912

> <Gold.Rescore>
     Score         DG    S(hbond)    S(metal)    S(lipo)     H(rot)  DE(clash)    DE(int)     intcor
     14.56     -22.89       1.93        0.00     136.66       1.95       5.12       3.22       ----

> <Gold.Chemscore.Fitness>
14.5576

> <Gold.Chemscore.DG>
-22.8949

> <Gold.Chemscore.ZeroCoef>
-5.4800

> <Gold.Chemscore.Hbond>
1.9253

> <Gold.Chemscore.Metal>
0.0000

> <Gold.Chemscore.Lipo>
136.6591

> <Gold.Chemscore.Internal_Hbond>
0.0000

> <Gold.Chemscore.DEClash>
5.1200

> <Gold.Chemscore.DEInternal>
3.2173

> <Gold.Chemscore.Rot>
1.9549

> <Gold.Chemscore.Internal.Correction>
   9.000000E+99

> <Gold.Chemscore.Hbonds>
donor molecule, donor type, donor heavy atom, donor atom, acceptor molecule, acceptor atom, score
      P1  H  7989  7998       L1     1  0.85
      P1  H  7997  8010       L1    17  0.73

> <Gold.Chemscore.Hbond.Weighted>
-6.4305

> <Gold.Chemscore.Metal.Weighted>
-0.0000

> <Gold.Chemscore.Lipo.Weighted>
-15.9891

> <Gold.Chemscore.Internal_Hbond.Weighted>
0.0000

> <Gold.Chemscore.DEClash.Weighted>
5.1200

> <Gold.Chemscore.DEInternal.Weighted>
3.2173

> <Gold.Chemscore.Rot.Weighted>
5.0046

> <Gold.Chemscore.Internal.Correction.Weighted>
   9.000000E+99

> <Gold.Protein.RotatedTorsions>
[ 6907 6896 6895 6894 ] final  146.02 input  -60.11 | X-H torsion
[ 7974 7965 7964 7962 ] final -130.67 input  175.53 | X-H torsion
[ 8008 7997 7996 7995 ] final   62.99 input   59.86 | X-H torsion
[ 10167 10162 10161 10158 ] final -146.75 input  -65.29 | X-H torsion
[ 10718 10713 10712 10709 ] final  -45.36 input   66.30 | X-H torsion
[ 10763 10752 10751 10750 ] final   61.57 input  -60.55 | X-H torsion
[ 11005 11000 10999 10996 ] final   51.88 input  -57.11 | X-H torsion

> <Gold.Protein.ActiveResidues>
 VAL166  LYS551  ARG553  GLY616  TRP617  ASP618  TYR619  PRO620  LYS621  CYS622 
 ASP623  PHE694  ASN695  SER759  ASP760  ASP761  ALA762  ILE779  LEU786  VAL792 
 PHE793  MET794  SER795  GLU796  ALA797  LYS798  CYS799  TRP800  GLU811  SER814 

> <Gold.Protein.RotatedAtoms>
  152.1733  133.4658  159.4920 H   0  0  0  0  0  0  0  0  0  0  0  0  # atno 6907 bound_to 6896
  150.6923  134.1925  159.4300 H   0  0  0  0  0  0  0  0  0  0  0  0  # atno 6908 bound_to 6896
  151.9833  135.0017  160.0609 H   0  0  0  0  0  0  0  0  0  0  0  0  # atno 6909 bound_to 6896
  144.9452  140.7283  143.4822 H   0  0  0  0  0  0  0  0  0  0  0  0  # atno 7974 bound_to 7965
  155.6231  140.3496  155.4658 H   0  0  0  0  0  0  0  0  0  0  0  0  # atno 8008 bound_to 7997
  156.0063  140.1224  157.0522 H   0  0  0  0  0  0  0  0  0  0  0  0  # atno 8009 bound_to 7997
  154.4265  140.1090  156.5753 H   0  0  0  0  0  0  0  0  0  0  0  0  # atno 8010 bound_to 7997
  139.7685  143.8273  152.2620 H   0  0  0  0  0  0  0  0  0  0  0  0  # atno 10167 bound_to 10162
  156.2292  130.4171  149.8896 H   0  0  0  0  0  0  0  0  0  0  0  0  # atno 10718 bound_to 10713
  152.9954  135.5496  154.6054 H   0  0  0  0  0  0  0  0  0  0  0  0  # atno 10763 bound_to 10752
  154.5386  135.2818  155.1118 H   0  0  0  0  0  0  0  0  0  0  0  0  # atno 10764 bound_to 10752
  154.2404  135.6417  153.5258 H   0  0  0  0  0  0  0  0  0  0  0  0  # atno 10765 bound_to 10752
  140.0896  134.5228  155.8865 H   0  0  0  0  0  0  0  0  0  0  0  0  # atno 11005 bound_to 11000
  145.2929  139.1877  143.4731 LP  0  0  0  0  0  0  0  0  0  0  0  0  # atno 17320 bound_to 7965
  146.3301  140.2908  142.8615 LP  0  0  0  0  0  0  0  0  0  0  0  0  # atno 17321 bound_to 7965
  139.8300  144.7258  150.9463 LP  0  0  0  0  0  0  0  0  0  0  0  0  # atno 17342 bound_to 10162
  140.7812  143.4079  151.1041 LP  0  0  0  0  0  0  0  0  0  0  0  0  # atno 17343 bound_to 10162
  156.6516  130.8746  151.3532 LP  0  0  0  0  0  0  0  0  0  0  0  0  # atno 17370 bound_to 10713
  157.7125  130.9457  150.1138 LP  0  0  0  0  0  0  0  0  0  0  0  0  # atno 17371 bound_to 10713
  141.2073  133.6663  156.6300 LP  0  0  0  0  0  0  0  0  0  0  0  0  # atno 17394 bound_to 11000
  140.3371  134.7880  157.4370 LP  0  0  0  0  0  0  0  0  0  0  0  0  # atno 17395 bound_to 11000

$$$$
