AV-unprocessed.smi:223|AV-procd|sdf|1705|dock5
  -GOLD-   2262020163D 1   1.00000     0.00000
 Structure written by MMmdl.
 47 50  0  0  0  0  0  0  0  0  1 V2000
  152.3420  144.6459  160.2597 C   0  0  0  0  0  0  0  0  0  0  0  0
  151.7921  143.9356  159.0174 C   0  0  2  0  0  0  0  0  0  0  0  0
  150.4286  143.4377  159.2608 C   0  0  0  0  0  0  0  0  0  0  0  0
  149.3567  143.0471  159.4526 N   0  0  0  0  0  0  0  0  0  0  0  0
  152.7282  142.7986  158.5660 C   0  0  0  0  0  0  0  0  0  0  0  0
  152.0502  141.5053  158.4834 N   0  0  0  0  0  0  0  0  0  0  0  0
  151.6067  141.0366  157.2785 C   0  0  0  0  0  0  0  0  0  0  0  0
  152.4585  140.2550  156.5620 N   0  0  0  0  0  0  0  0  0  0  0  0
  152.1038  139.7475  155.3799 C   0  0  0  0  0  0  0  0  0  0  0  0
  150.9525  139.8897  154.7264 N   0  0  0  0  0  0  0  0  0  0  0  0
  150.0830  140.6712  155.4262 C   0  0  0  0  0  0  0  0  0  0  0  0
  150.3234  141.2857  156.6920 C   0  0  0  0  0  0  0  0  0  0  0  0
  149.1983  142.0206  157.0575 N   0  0  0  0  0  0  0  0  0  0  0  0
  148.3499  141.8398  156.0845 C   0  0  0  0  0  0  0  0  0  0  0  0
  148.7956  141.0312  155.0665 N   0  0  0  0  0  0  0  0  0  0  0  0
  148.0642  140.6583  153.8645 C   0  0  0  0  0  0  0  0  0  0  0  0
  147.7243  139.1506  153.7862 C   0  0  2  0  0  0  0  0  0  0  0  0
  148.9238  138.4117  153.6338 O   0  0  0  0  0  0  0  0  0  0  0  0
  146.8025  138.8107  152.6221 C   0  0  0  0  0  0  0  0  0  0  0  0
  146.0683  137.5755  153.1257 C   0  0  0  0  0  0  0  0  0  0  0  0
  145.8400  137.8763  154.4922 O   0  0  0  0  0  0  0  0  0  0  0  0
  146.9605  138.5922  155.0047 C   0  0  0  0  0  0  0  0  0  0  0  0
  152.4536  140.4967  159.4637 C   0  0  0  0  0  0  0  0  0  0  0  0
  153.8643  140.5108  160.0199 C   0  0  0  0  0  0  0  0  0  0  0  0
  153.4507  139.4317  159.0552 C   0  0  0  0  0  0  0  0  0  0  0  0
  151.6897  145.4653  160.5620 H   0  0  0  0  0  0  0  0  0  0  0  0
  153.3304  145.0635  160.0664 H   0  0  0  0  0  0  0  0  0  0  0  0
  152.4267  143.9586  161.1020 H   0  0  0  0  0  0  0  0  0  0  0  0
  151.6953  144.6759  158.2246 H   0  0  0  0  0  0  0  0  0  0  0  0
  153.2007  143.0295  157.6123 H   0  0  0  0  0  0  0  0  0  0  0  0
  153.5532  142.7288  159.2753 H   0  0  0  0  0  0  0  0  0  0  0  0
  152.8484  139.1383  154.8891 H   0  0  0  0  0  0  0  0  0  0  0  0
  147.3700  142.2944  156.0852 H   0  0  0  0  0  0  0  0  0  0  0  0
  147.1486  141.2501  153.8298 H   0  0  0  0  0  0  0  0  0  0  0  0
  148.6535  140.9579  152.9967 H   0  0  0  0  0  0  0  0  0  0  0  0
  148.8839  137.9400  152.8161 H   0  0  0  0  0  0  0  0  0  0  0  0
  146.0803  139.6128  152.4632 H   0  0  0  0  0  0  0  0  0  0  0  0
  147.3264  138.6447  151.6799 H   0  0  0  0  0  0  0  0  0  0  0  0
  145.1357  137.3905  152.5925 H   0  0  0  0  0  0  0  0  0  0  0  0
  146.6954  136.6863  153.0452 H   0  0  0  0  0  0  0  0  0  0  0  0
  147.5804  137.9371  155.6192 H   0  0  0  0  0  0  0  0  0  0  0  0
  146.5813  139.3827  155.6516 H   0  0  0  0  0  0  0  0  0  0  0  0
  151.6741  140.1774  160.1531 H   0  0  0  0  0  0  0  0  0  0  0  0
  154.5544  141.2669  159.6507 H   0  0  0  0  0  0  0  0  0  0  0  0
  153.9933  140.2327  161.0637 H   0  0  0  0  0  0  0  0  0  0  0  0
  153.3049  138.4299  159.4537 H   0  0  0  0  0  0  0  0  0  0  0  0
  153.8711  139.4772  158.0523 H   0  0  0  0  0  0  0  0  0  0  0  0
  1  2  1  0  0  0  0
  1 26  1  0  0  0  0
  1 27  1  0  0  0  0
  1 28  1  0  0  0  0
  2  3  1  0  0  0  0
  2  5  1  0  0  0  0
  2 29  1  0  0  0  0
  3  4  3  0  0  0  0
  5  6  1  0  0  0  0
  5 30  1  0  0  0  0
  5 31  1  0  0  0  0
  6  7  1  0  0  0  0
  6 23  1  0  0  0  0
  7 12  1  0  0  0  0
  7  8  2  0  0  0  0
  8  9  1  0  0  0  0
  9 10  2  0  0  0  0
  9 32  1  0  0  0  0
 10 11  1  0  0  0  0
 11 15  1  0  0  0  0
 11 12  2  0  0  0  0
 12 13  1  0  0  0  0
 13 14  2  0  0  0  0
 14 15  1  0  0  0  0
 14 33  1  0  0  0  0
 15 16  1  0  0  0  0
 16 17  1  0  0  0  0
 16 34  1  0  0  0  0
 16 35  1  0  0  0  0
 17 22  1  0  0  0  0
 17 18  1  0  0  0  0
 17 19  1  0  0  0  0
 18 36  1  0  0  0  0
 19 20  1  0  0  0  0
 19 37  1  0  0  0  0
 19 38  1  0  0  0  0
 20 21  1  0  0  0  0
 20 39  1  0  0  0  0
 20 40  1  0  0  0  0
 21 22  1  0  0  0  0
 22 41  1  0  0  0  0
 22 42  1  0  0  0  0
 23 25  1  0  0  0  0
 23 24  1  0  0  0  0
 23 43  1  0  0  0  0
 24 25  1  0  0  0  0
 24 44  1  0  0  0  0
 24 45  1  0  0  0  0
 25 46  1  0  0  0  0
 25 47  1  0  0  0  0
M  END
> <s_m_source_file>
AV-unprocessed.smi

> <i_m_source_file_index>
223

> <i_lp_mmshare_version>
43012

> <i_f3d_flags>
0

> <s_epik_input>
TiNDW0NAQEhdKFtDSDNdKVtDSDJdTihbQ0hdMVtDSDJdW0NIMl0xKWMobltjSF1uMiljKGMyMyluW2NIXW4zW0NIMl1bQ0BAXTQoW09IXSlbQ0gyXVtDSDJdT1tDSDJdNA==

> <s_epik_cmdline>
J2VwaWtfcHl0aG9uJywgJy1waCcsICc3LjAnLCAnLXRuJywgJzgnLCAnLW1hJywgJzIwMCcsICctbWV0YWxfYmluZGluZycsICctaW1hZScsICc8aW5maWxlLm1hZT4nLCAnLW9tYWUnLCAnPG91dGZpbGUubWFlPic=

> <r_lp_tautomer_probability>
1

> <r_epik_Ionization_Penalty>
0.000756152

> <r_epik_Ionization_Penalty_Charging>
0

> <r_epik_Ionization_Penalty_Neutral>
0.000756152

> <r_epik_State_Penalty>
0.00038036

> <r_epik_Charging_Adjusted_Penalty>
0.00038036

> <i_epik_Tot_Q>
0

> <i_epik_Tot_abs_Q>
0

> <r_epik_Metal_State_Penalty>
-0

> <b_epik_Metal_Only>
0

> <s_lp_Force_Field>
OPLS_2005

> <r_lp_Energy>
38.8251

> <b_lp_Chiralities_Consistent>
1

> <s_lp_Variant>
AV-unprocessed.smi:223-3

> <Gold.Version>
5.8.1

> <Gold.Id.Protein>
6NUR|6NUR_protein|mol2

> <Gold.PLP.Fitness>
48.0875

> <Gold.PLP.PLP>
-42.9940

> <Gold.PLP.part.hbond>
-4.9119

> <Gold.PLP.part.metal>
0.0000

> <Gold.PLP.part.buried>
1.8023

> <Gold.PLP.part.nonpolar>
-40.4150

> <Gold.PLP.part.repulsive>
2.4268

> <Gold.PLP.ligand.clash>
0.0000

> <Gold.PLP.ligand.torsion>
2.6696

> <Gold.PLP.Chemscore.Hbond>
2.9260

> <Gold.PLP.Chemscore.CHOScore>
0.0946

> <Gold.PLP.Chemscore.Metal>
0.0000

> <Gold.Chemscore.Hbonds>
donor molecule, donor type, donor heavy atom, donor atom, acceptor molecule, acceptor atom, score
      L1  H    18    36       P1  7948  0.99
      P1  H  6933  6944       L1     4  0.09
      P1  H  7989  7998       L1    10  0.70
      P1  H  7997  8009       L1     8  1.00
      L1  C    14    33       P1  8028  0.01

> <Gold.PLP.Chemscore.Internal.Correction>
1.3709

> <Gold.Rescore>
     Score         DG    S(hbond)    S(metal)    S(lipo)     H(rot)  DE(clash)    DE(int)     intcor
      8.60     -13.94       1.59        0.00      86.42       2.72       0.17       5.16       ----

> <Gold.Chemscore.Fitness>
8.6039

> <Gold.Chemscore.DG>
-13.9369

> <Gold.Chemscore.ZeroCoef>
-5.4800

> <Gold.Chemscore.Hbond>
1.5874

> <Gold.Chemscore.Metal>
0.0000

> <Gold.Chemscore.Lipo>
86.4160

> <Gold.Chemscore.Internal_Hbond>
0.0000

> <Gold.Chemscore.DEClash>
0.1709

> <Gold.Chemscore.DEInternal>
5.1621

> <Gold.Chemscore.Rot>
2.7171

> <Gold.Chemscore.Internal.Correction>
   9.000000E+99

> <Gold.Chemscore.Hbonds>
donor molecule, donor type, donor heavy atom, donor atom, acceptor molecule, acceptor atom, score
      L1  H    18    36       P1  7948  0.94
      P1  H  6933  6944       L1     4  0.09
      P1  H  7989  7998       L1    10  0.04
      P1  H  7997  8009       L1     8  0.43

> <Gold.Chemscore.Hbond.Weighted>
-5.3020

> <Gold.Chemscore.Metal.Weighted>
-0.0000

> <Gold.Chemscore.Lipo.Weighted>
-10.1107

> <Gold.Chemscore.Internal_Hbond.Weighted>
0.0000

> <Gold.Chemscore.DEClash.Weighted>
0.1709

> <Gold.Chemscore.DEInternal.Weighted>
5.1621

> <Gold.Chemscore.Rot.Weighted>
6.9558

> <Gold.Chemscore.Internal.Correction.Weighted>
   9.000000E+99

> <Gold.Protein.RotatedTorsions>
[ 6907 6896 6895 6894 ] final  -74.68 input  -60.11 | X-H torsion
[ 7974 7965 7964 7962 ] final  -76.05 input  175.53 | X-H torsion
[ 8008 7997 7996 7995 ] final -175.68 input   59.86 | X-H torsion
[ 10167 10162 10161 10158 ] final  172.03 input  -65.29 | X-H torsion
[ 10718 10713 10712 10709 ] final    9.56 input   66.30 | X-H torsion
[ 10763 10752 10751 10750 ] final -105.15 input  -60.55 | X-H torsion
[ 11005 11000 10999 10996 ] final   16.32 input  -57.11 | X-H torsion

> <Gold.Protein.ActiveResidues>
 VAL166  LYS551  ARG553  GLY616  TRP617  ASP618  TYR619  PRO620  LYS621  CYS622 
 ASP623  PHE694  ASN695  SER759  ASP760  ASP761  ALA762  ILE779  LEU786  VAL792 
 PHE793  MET794  SER795  GLU796  ALA797  LYS798  CYS799  TRP800  GLU811  SER814 

> <Gold.Protein.RotatedAtoms>
  150.7085  134.4834  159.5480 H   0  0  0  0  0  0  0  0  0  0  0  0  # atno 6907 bound_to 6896
  152.2466  134.8172  160.0461 H   0  0  0  0  0  0  0  0  0  0  0  0  # atno 6908 bound_to 6896
  151.8934  133.3486  159.3843 H   0  0  0  0  0  0  0  0  0  0  0  0  # atno 6909 bound_to 6896
  145.6180  140.9370  143.1153 H   0  0  0  0  0  0  0  0  0  0  0  0  # atno 7974 bound_to 7965
  155.9856  140.1190  157.0686 H   0  0  0  0  0  0  0  0  0  0  0  0  # atno 8008 bound_to 7997
  154.4196  140.1136  156.5563 H   0  0  0  0  0  0  0  0  0  0  0  0  # atno 8009 bound_to 7997
  155.6412  140.3473  155.4718 H   0  0  0  0  0  0  0  0  0  0  0  0  # atno 8010 bound_to 7997
  139.5064  144.3420  152.0009 H   0  0  0  0  0  0  0  0  0  0  0  0  # atno 10167 bound_to 10162
  156.9682  130.5959  149.5667 H   0  0  0  0  0  0  0  0  0  0  0  0  # atno 10718 bound_to 10713
  154.7927  135.4760  154.0089 H   0  0  0  0  0  0  0  0  0  0  0  0  # atno 10763 bound_to 10752
  153.1655  135.6816  153.8688 H   0  0  0  0  0  0  0  0  0  0  0  0  # atno 10764 bound_to 10752
  153.8288  135.3194  155.3395 H   0  0  0  0  0  0  0  0  0  0  0  0  # atno 10765 bound_to 10752
  140.4485  134.1249  155.7699 H   0  0  0  0  0  0  0  0  0  0  0  0  # atno 11005 bound_to 11000
  144.7242  139.7928  143.7371 LP  0  0  0  0  0  0  0  0  0  0  0  0  # atno 17320 bound_to 7965
  146.1453  139.4521  143.0083 LP  0  0  0  0  0  0  0  0  0  0  0  0  # atno 17321 bound_to 7965
  140.2858  144.3809  150.6104 LP  0  0  0  0  0  0  0  0  0  0  0  0  # atno 17342 bound_to 10162
  140.5984  143.2167  151.7120 LP  0  0  0  0  0  0  0  0  0  0  0  0  # atno 17343 bound_to 10162
  156.0294  130.5386  150.8493 LP  0  0  0  0  0  0  0  0  0  0  0  0  # atno 17370 bound_to 10713
  157.5611  131.0946  150.9557 LP  0  0  0  0  0  0  0  0  0  0  0  0  # atno 17371 bound_to 10713
  141.1674  133.8675  157.1672 LP  0  0  0  0  0  0  0  0  0  0  0  0  # atno 17394 bound_to 11000
  140.0022  135.0023  157.0216 LP  0  0  0  0  0  0  0  0  0  0  0  0  # atno 17395 bound_to 11000

$$$$
