AV-unprocessed.smi:1701|AV-procd|sdf|6836|dock3
  -GOLD-   22720 8 13D 1   1.00000     0.00000
 Structure written by MMmdl.
 54 56  0  0  0  0  0  0  0  0  2 V2000
  152.7833  125.9480  154.1776 C   0  0  0  0  0  0  0  0  0  0  0  0
  151.7366  126.8907  154.7888 C   0  0  0  0  0  0  0  0  0  0  0  0
  152.2786  128.2061  155.1307 N   0  0  0  0  0  0  0  0  0  0  0  0
  153.6741  128.3098  155.5650 C   0  0  0  0  0  0  0  0  0  0  0  0
  154.5307  129.1856  154.6375 C   0  0  0  0  0  0  0  0  0  0  0  0
  151.5229  129.3816  154.8942 C   0  0  0  0  0  0  0  0  0  0  0  0
  151.7694  130.5854  155.6019 C   0  0  0  0  0  0  0  0  0  0  0  0
  150.9901  131.7251  155.3264 C   0  0  0  0  0  0  0  0  0  0  0  0
  149.9706  131.6401  154.3513 C   0  0  0  0  0  0  0  0  0  0  0  0
  149.1299  132.7195  153.9678 N   0  0  0  0  0  0  0  0  0  0  0  0
  147.9952  132.6908  153.2414 C   0  0  0  0  0  0  0  0  0  0  0  0
  147.5084  131.6808  152.7389 O   0  0  0  0  0  0  0  0  0  0  0  0
  147.4219  133.8950  153.0690 N   0  0  0  0  0  0  0  0  0  0  0  0
  146.1938  134.2118  152.3383 C   0  0  1  0  0  0  0  0  0  0  0  0
  145.7921  135.6951  152.4005 C   0  0  0  0  0  0  0  0  0  0  0  0
  145.2783  136.0419  150.9892 C   0  0  0  0  0  0  0  0  0  0  0  0
  145.2843  134.7811  150.2129 N   0  3  2  0  0  0  0  0  0  0  0  0
  143.9432  134.1350  150.1835 C   0  0  0  0  0  0  0  0  0  0  0  0
  143.9955  132.7225  149.5877 C   0  0  0  0  0  0  0  0  0  0  0  0
  144.9670  131.8485  150.3849 C   0  0  0  0  0  0  0  0  0  0  0  0
  146.3593  132.4893  150.3733 C   0  0  0  0  0  0  0  0  0  0  0  0
  146.3543  133.9641  150.8348 C   0  0  2  0  0  0  0  0  0  0  0  0
  149.8059  130.4084  153.6899 C   0  0  0  0  0  0  0  0  0  0  0  0
  150.5506  129.3148  153.9517 N   0  0  0  0  0  0  0  0  0  0  0  0
  152.3234  125.0031  153.8883 H   0  0  0  0  0  0  0  0  0  0  0  0
  153.5763  125.7189  154.8883 H   0  0  0  0  0  0  0  0  0  0  0  0
  153.2425  126.3784  153.2875 H   0  0  0  0  0  0  0  0  0  0  0  0
  150.8782  126.9934  154.1252 H   0  0  0  0  0  0  0  0  0  0  0  0
  151.3373  126.4339  155.6948 H   0  0  0  0  0  0  0  0  0  0  0  0
  153.7218  128.6853  156.5875 H   0  0  0  0  0  0  0  0  0  0  0  0
  154.1074  127.3101  155.6031 H   0  0  0  0  0  0  0  0  0  0  0  0
  155.5598  129.2260  154.9944 H   0  0  0  0  0  0  0  0  0  0  0  0
  154.1582  130.2092  154.5951 H   0  0  0  0  0  0  0  0  0  0  0  0
  154.5518  128.7966  153.6205 H   0  0  0  0  0  0  0  0  0  0  0  0
  152.5367  130.6622  156.3564 H   0  0  0  0  0  0  0  0  0  0  0  0
  151.2010  132.6383  155.8601 H   0  0  0  0  0  0  0  0  0  0  0  0
  149.4541  133.6348  154.2432 H   0  0  0  0  0  0  0  0  0  0  0  0
  147.9100  134.6822  153.4716 H   0  0  0  0  0  0  0  0  0  0  0  0
  145.3727  133.5987  152.7137 H   0  0  0  0  0  0  0  0  0  0  0  0
  145.0256  135.8589  153.1588 H   0  0  0  0  0  0  0  0  0  0  0  0
  146.6421  136.3312  152.6524 H   0  0  0  0  0  0  0  0  0  0  0  0
  144.2973  136.5190  151.0078 H   0  0  0  0  0  0  0  0  0  0  0  0
  145.9671  136.7401  150.5120 H   0  0  0  0  0  0  0  0  0  0  0  0
  143.5313  134.0860  151.1928 H   0  0  0  0  0  0  0  0  0  0  0  0
  143.2629  134.7570  149.6006 H   0  0  0  0  0  0  0  0  0  0  0  0
  142.9999  132.2777  149.5991 H   0  0  0  0  0  0  0  0  0  0  0  0
  144.3045  132.7686  148.5425 H   0  0  0  0  0  0  0  0  0  0  0  0
  144.6123  131.7313  151.4094 H   0  0  0  0  0  0  0  0  0  0  0  0
  145.0124  130.8473  149.9553 H   0  0  0  0  0  0  0  0  0  0  0  0
  147.0474  131.9048  150.9849 H   0  0  0  0  0  0  0  0  0  0  0  0
  146.7510  132.4438  149.3563 H   0  0  0  0  0  0  0  0  0  0  0  0
  147.3024  134.4076  150.5231 H   0  0  0  0  0  0  0  0  0  0  0  0
  149.0502  130.2922  152.9268 H   0  0  0  0  0  0  0  0  0  0  0  0
  145.5418  134.9783  149.2561 H   0  0  0  0  0  0  0  0  0  0  0  0
  1  2  1  0  0  0  0
  1 25  1  0  0  0  0
  1 26  1  0  0  0  0
  1 27  1  0  0  0  0
  2  3  1  0  0  0  0
  2 28  1  0  0  0  0
  2 29  1  0  0  0  0
  3  4  1  0  0  0  0
  3  6  1  0  0  0  0
  4  5  1  0  0  0  0
  4 30  1  0  0  0  0
  4 31  1  0  0  0  0
  5 32  1  0  0  0  0
  5 33  1  0  0  0  0
  5 34  1  0  0  0  0
  6 24  1  0  0  0  0
  6  7  2  0  0  0  0
  7  8  1  0  0  0  0
  7 35  1  0  0  0  0
  8  9  2  0  0  0  0
  8 36  1  0  0  0  0
  9 10  1  0  0  0  0
  9 23  1  0  0  0  0
 10 11  1  0  0  0  0
 10 37  1  0  0  0  0
 11 12  2  0  0  0  0
 11 13  1  0  0  0  0
 13 14  1  0  0  0  0
 13 38  1  0  0  0  0
 14 22  1  0  0  0  0
 14 15  1  0  0  0  0
 14 39  1  0  0  0  0
 15 16  1  0  0  0  0
 15 40  1  0  0  0  0
 15 41  1  0  0  0  0
 16 17  1  0  0  0  0
 16 42  1  0  0  0  0
 16 43  1  0  0  0  0
 17 22  1  0  0  0  0
 17 18  1  0  0  0  0
 17 54  1  0  0  0  0
 18 19  1  0  0  0  0
 18 44  1  0  0  0  0
 18 45  1  0  0  0  0
 19 20  1  0  0  0  0
 19 46  1  0  0  0  0
 19 47  1  0  0  0  0
 20 21  1  0  0  0  0
 20 48  1  0  0  0  0
 20 49  1  0  0  0  0
 21 22  1  0  0  0  0
 21 50  1  0  0  0  0
 21 51  1  0  0  0  0
 22 52  1  0  0  0  0
 23 24  2  0  0  0  0
 23 53  1  0  0  0  0
M  CHG  1  17   1
M  END
> <s_m_source_file>
AV-unprocessed.smi

> <i_m_source_file_index>
1701

> <i_lp_mmshare_version>
43012

> <i_f3d_flags>
0

> <s_epik_input>
W0NIM11bQ0gyXU4oW0NIMl1bQ0gzXSljMVtjSF1bY0hdYyhbY0hdbjEpW05IXUMoPU8pW05IXVtDQEhdKFtDSDJdW0NIMl0yKVtDQEBIXShOMjMpW0NIMl1bQ0gyXVtDSDJdW0NIMl0z

> <s_epik_cmdline>
J2VwaWtfcHl0aG9uJywgJy1waCcsICc3LjAnLCAnLXRuJywgJzgnLCAnLW1hJywgJzIwMCcsICctbWV0YWxfYmluZGluZycsICctaW1hZScsICc8aW5maWxlLm1hZT4nLCAnLW9tYWUnLCAnPG91dGZpbGUubWFlPic=

> <r_lp_tautomer_probability>
1

> <r_epik_Ionization_Penalty>
0.56662

> <r_epik_Ionization_Penalty_Charging>
0.000974069

> <r_epik_Ionization_Penalty_Neutral>
0.565646

> <r_epik_State_Penalty>
2.0247

> <r_epik_Charging_Adjusted_Penalty>
2.02568

> <i_epik_Tot_Q>
1

> <i_epik_Tot_abs_Q>
1

> <r_epik_Metal_State_Penalty>
1.51504

> <b_epik_Metal_Only>
0

> <s_lp_Force_Field>
OPLS_2005

> <r_lp_Energy>
57.4509

> <b_lp_Chiralities_Consistent>
1

> <s_lp_Variant>
AV-unprocessed.smi:1701-16

> <Gold.Version>
5.8.1

> <Gold.Id.Protein>
6NUR|6NUR_protein|mol2

> <Gold.PLP.Fitness>
40.6037

> <Gold.PLP.PLP>
-37.9086

> <Gold.PLP.part.hbond>
-2.0000

> <Gold.PLP.part.metal>
0.0000

> <Gold.PLP.part.buried>
-2.2326

> <Gold.PLP.part.nonpolar>
-32.4482

> <Gold.PLP.part.repulsive>
0.6930

> <Gold.PLP.ligand.clash>
0.0000

> <Gold.PLP.ligand.torsion>
0.7162

> <Gold.PLP.Chemscore.Hbond>
1.0229

> <Gold.PLP.Chemscore.CHOScore>
0.3114

> <Gold.PLP.Chemscore.Metal>
0.0000

> <Gold.Chemscore.Hbonds>
donor molecule, donor type, donor heavy atom, donor atom, acceptor molecule, acceptor atom, score
      L1  H    17    54       P1  7921  1.00
      L1  C    23    53       P1 10747  0.55

> <Gold.PLP.Chemscore.Internal.Correction>
0.1248

> <Gold.Rescore>
     Score         DG    S(hbond)    S(metal)    S(lipo)     H(rot)  DE(clash)    DE(int)     intcor
     13.57     -17.39       1.14        0.00      97.41       1.28       0.30       3.53       ----

> <Gold.Chemscore.Fitness>
13.5662

> <Gold.Chemscore.DG>
-17.3932

> <Gold.Chemscore.ZeroCoef>
-5.4800

> <Gold.Chemscore.Hbond>
1.1385

> <Gold.Chemscore.Metal>
0.0000

> <Gold.Chemscore.Lipo>
97.4128

> <Gold.Chemscore.Internal_Hbond>
0.0000

> <Gold.Chemscore.DEClash>
0.3001

> <Gold.Chemscore.DEInternal>
3.5269

> <Gold.Chemscore.Rot>
1.2838

> <Gold.Chemscore.Internal.Correction>
   9.000000E+99

> <Gold.Chemscore.Hbonds>
donor molecule, donor type, donor heavy atom, donor atom, acceptor molecule, acceptor atom, score
      L1  H    13    38       P1  7948  0.02
      L1  H    17    54       P1  7921  1.00

> <Gold.Chemscore.Hbond.Weighted>
-3.8025

> <Gold.Chemscore.Metal.Weighted>
-0.0000

> <Gold.Chemscore.Lipo.Weighted>
-11.3973

> <Gold.Chemscore.Internal_Hbond.Weighted>
0.0000

> <Gold.Chemscore.DEClash.Weighted>
0.3001

> <Gold.Chemscore.DEInternal.Weighted>
3.5269

> <Gold.Chemscore.Rot.Weighted>
3.2865

> <Gold.Chemscore.Internal.Correction.Weighted>
   9.000000E+99

> <Gold.Protein.RotatedTorsions>
[ 6907 6896 6895 6894 ] final -179.59 input  -60.11 | X-H torsion
[ 7974 7965 7964 7962 ] final   78.53 input  175.53 | X-H torsion
[ 8008 7997 7996 7995 ] final  127.54 input   59.86 | X-H torsion
[ 10167 10162 10161 10158 ] final -174.98 input  -65.29 | X-H torsion
[ 10718 10713 10712 10709 ] final   61.90 input   66.30 | X-H torsion
[ 10763 10752 10751 10750 ] final    6.67 input  -60.55 | X-H torsion
[ 11005 11000 10999 10996 ] final -119.57 input  -57.11 | X-H torsion

> <Gold.Protein.ActiveResidues>
 VAL166  LYS551  ARG553  GLY616  TRP617  ASP618  TYR619  PRO620  LYS621  CYS622 
 ASP623  PHE694  ASN695  SER759  ASP760  ASP761  ALA762  ILE779  LEU786  VAL792 
 PHE793  MET794  SER795  GLU796  ALA797  LYS798  CYS799  TRP800  GLU811  SER814 

> <Gold.Protein.RotatedAtoms>
  151.6559  133.3319  159.3162 H   0  0  0  0  0  0  0  0  0  0  0  0  # atno 6907 bound_to 6896
  150.7937  134.6985  159.6546 H   0  0  0  0  0  0  0  0  0  0  0  0  # atno 6908 bound_to 6896
  152.4021  134.6272  160.0117 H   0  0  0  0  0  0  0  0  0  0  0  0  # atno 6909 bound_to 6896
  145.6759  139.2510  143.1841 H   0  0  0  0  0  0  0  0  0  0  0  0  # atno 7974 bound_to 7965
  156.2893  140.2666  156.2290 H   0  0  0  0  0  0  0  0  0  0  0  0  # atno 8008 bound_to 7997
  155.0091  140.0387  157.2410 H   0  0  0  0  0  0  0  0  0  0  0  0  # atno 8009 bound_to 7997
  154.7533  140.2747  155.6279 H   0  0  0  0  0  0  0  0  0  0  0  0  # atno 8010 bound_to 7997
  139.5605  144.1882  152.1230 H   0  0  0  0  0  0  0  0  0  0  0  0  # atno 10167 bound_to 10162
  157.5862  130.9020  149.9519 H   0  0  0  0  0  0  0  0  0  0  0  0  # atno 10718 bound_to 10713
  153.2450  135.6907  153.7741 H   0  0  0  0  0  0  0  0  0  0  0  0  # atno 10763 bound_to 10752
  153.6857  135.3321  155.3190 H   0  0  0  0  0  0  0  0  0  0  0  0  # atno 10764 bound_to 10752
  154.8371  135.4533  154.1386 H   0  0  0  0  0  0  0  0  0  0  0  0  # atno 10765 bound_to 10752
  141.0206  134.0130  157.3288 H   0  0  0  0  0  0  0  0  0  0  0  0  # atno 11005 bound_to 11000
  146.1005  140.7549  142.9551 LP  0  0  0  0  0  0  0  0  0  0  0  0  # atno 17320 bound_to 7965
  144.7041  140.3780  143.7132 LP  0  0  0  0  0  0  0  0  0  0  0  0  # atno 17321 bound_to 7965
  140.1394  144.5216  150.6753 LP  0  0  0  0  0  0  0  0  0  0  0  0  # atno 17342 bound_to 10162
  140.6884  143.2362  151.5198 LP  0  0  0  0  0  0  0  0  0  0  0  0  # atno 17343 bound_to 10162
  156.0911  130.3663  150.0393 LP  0  0  0  0  0  0  0  0  0  0  0  0  # atno 17370 bound_to 10713
  156.8524  130.9463  151.3624 LP  0  0  0  0  0  0  0  0  0  0  0  0  # atno 17371 bound_to 10713
  139.9143  135.0195  156.7820 LP  0  0  0  0  0  0  0  0  0  0  0  0  # atno 17394 bound_to 11000
  140.6580  133.9671  155.7789 LP  0  0  0  0  0  0  0  0  0  0  0  0  # atno 17395 bound_to 11000

$$$$
