AV-unprocessed.smi:3145|AV-procd|sdf|11981|dock3
  -GOLD-   2272017383D 1   1.00000     0.00000
 Structure written by MMmdl.
 34 34  0  0  0  0  0  0  0  0  1 V2000
  148.2461  141.2851  154.1151 C   0  0  0  0  0  0  0  0  0  0  0  0
  148.7625  139.8579  154.3447 C   0  0  2  0  0  0  0  0  0  0  0  0
  150.2974  139.8455  154.5256 C   0  0  0  0  0  0  0  0  0  0  0  0
  150.7424  140.5654  155.7067 N   0  0  0  0  0  0  0  0  0  0  0  0
  150.5993  141.9061  155.9954 C   0  0  0  0  0  0  0  0  0  0  0  0
  151.1616  142.1199  157.2213 C   0  0  0  0  0  0  0  0  0  0  0  0
  151.6326  140.8338  157.6067 C   0  0  0  0  0  0  0  0  0  0  0  0
  151.3829  139.9058  156.6974 N   0  0  0  0  0  0  0  0  0  0  0  0
  148.3861  139.0617  153.1807 N   0  0  0  0  0  0  0  0  0  0  0  0
  146.9317  138.9038  153.0579 C   0  0  0  0  0  0  0  0  0  0  0  0
  146.5658  138.0560  151.8434 C   0  0  0  0  0  0  0  0  0  0  0  0
  146.7971  138.4661  150.7066 O   0  0  0  0  0  0  0  0  0  0  0  0
  145.9875  136.8748  152.1034 N   0  0  0  0  0  0  0  0  0  0  0  0
  145.5538  135.9235  151.0918 C   0  0  0  0  0  0  0  0  0  0  0  0
  145.0647  134.6303  151.7520 C   0  0  0  0  0  0  0  0  0  0  0  0
  144.4650  133.6950  150.7887 C   0  0  0  0  0  0  0  0  0  0  0  0
  143.9931  132.9593  150.0307 N   0  0  0  0  0  0  0  0  0  0  0  0
  148.4853  141.9274  154.9632 H   0  0  0  0  0  0  0  0  0  0  0  0
  147.1625  141.2985  153.9917 H   0  0  0  0  0  0  0  0  0  0  0  0
  148.6892  141.7339  153.2252 H   0  0  0  0  0  0  0  0  0  0  0  0
  148.2811  139.4765  155.2474 H   0  0  0  0  0  0  0  0  0  0  0  0
  150.6711  138.8208  154.5698 H   0  0  0  0  0  0  0  0  0  0  0  0
  150.7746  140.3073  153.6605 H   0  0  0  0  0  0  0  0  0  0  0  0
  150.1101  142.5867  155.3139 H   0  0  0  0  0  0  0  0  0  0  0  0
  151.2263  143.0530  157.7607 H   0  0  0  0  0  0  0  0  0  0  0  0
  152.1447  140.5487  158.5138 H   0  0  0  0  0  0  0  0  0  0  0  0
  148.7768  139.4745  152.3458 H   0  0  0  0  0  0  0  0  0  0  0  0
  146.5196  138.4190  153.9431 H   0  0  0  0  0  0  0  0  0  0  0  0
  146.4624  139.8859  152.9853 H   0  0  0  0  0  0  0  0  0  0  0  0
  145.8445  136.6201  153.0706 H   0  0  0  0  0  0  0  0  0  0  0  0
  144.7531  136.3657  150.4969 H   0  0  0  0  0  0  0  0  0  0  0  0
  146.3817  135.7083  150.4140 H   0  0  0  0  0  0  0  0  0  0  0  0
  145.8903  134.1175  152.2462 H   0  0  0  0  0  0  0  0  0  0  0  0
  144.3161  134.8498  152.5138 H   0  0  0  0  0  0  0  0  0  0  0  0
  1  2  1  0  0  0  0
  1 18  1  0  0  0  0
  1 19  1  0  0  0  0
  1 20  1  0  0  0  0
  2  3  1  0  0  0  0
  2  9  1  0  0  0  0
  2 21  1  0  0  0  0
  3  4  1  0  0  0  0
  3 22  1  0  0  0  0
  3 23  1  0  0  0  0
  4  8  1  0  0  0  0
  4  5  1  0  0  0  0
  5  6  2  0  0  0  0
  5 24  1  0  0  0  0
  6  7  1  0  0  0  0
  6 25  1  0  0  0  0
  7  8  2  0  0  0  0
  7 26  1  0  0  0  0
  9 10  1  0  0  0  0
  9 27  1  0  0  0  0
 10 11  1  0  0  0  0
 10 28  1  0  0  0  0
 10 29  1  0  0  0  0
 11 12  2  0  0  0  0
 11 13  1  0  0  0  0
 13 14  1  0  0  0  0
 13 30  1  0  0  0  0
 14 15  1  0  0  0  0
 14 31  1  0  0  0  0
 14 32  1  0  0  0  0
 15 16  1  0  0  0  0
 15 33  1  0  0  0  0
 15 34  1  0  0  0  0
 16 17  3  0  0  0  0
M  END
> <s_m_source_file>
AV-unprocessed.smi

> <i_m_source_file_index>
3145

> <i_lp_mmshare_version>
43012

> <i_f3d_flags>
0

> <s_epik_input>
bjFbY0hdW2NIXVtjSF1uMVtDSDJdW0NAQEhdKFtDSDNdKVtOSF1bQ0gyXUMoPU8pW05IXVtDSDJdW0NIMl1DI04=

> <s_epik_cmdline>
J2VwaWtfcHl0aG9uJywgJy1waCcsICc3LjAnLCAnLXRuJywgJzgnLCAnLW1hJywgJzIwMCcsICctbWV0YWxfYmluZGluZycsICctaW1hZScsICc8aW5maWxlLm1hZT4nLCAnLW9tYWUnLCAnPG91dGZpbGUubWFlPic=

> <r_lp_tautomer_probability>
1

> <r_epik_Ionization_Penalty>
0.765991

> <r_epik_Ionization_Penalty_Charging>
0

> <r_epik_Ionization_Penalty_Neutral>
0.765991

> <r_epik_State_Penalty>
0.794192

> <r_epik_Charging_Adjusted_Penalty>
0.794192

> <i_epik_Tot_Q>
0

> <i_epik_Tot_abs_Q>
0

> <r_epik_Metal_State_Penalty>
0.806127

> <b_epik_Metal_Only>
0

> <s_lp_Force_Field>
OPLS_2005

> <r_lp_Energy>
5.26669

> <b_lp_Chiralities_Consistent>
1

> <s_lp_Variant>
AV-unprocessed.smi:3145-3

> <Gold.Version>
5.8.1

> <Gold.Id.Protein>
6NUR|6NUR_protein|mol2

> <Gold.PLP.Fitness>
42.1853

> <Gold.PLP.PLP>
-33.4744

> <Gold.PLP.part.hbond>
-3.6482

> <Gold.PLP.part.metal>
0.0000

> <Gold.PLP.part.buried>
-3.1233

> <Gold.PLP.part.nonpolar>
-28.9648

> <Gold.PLP.part.repulsive>
1.1153

> <Gold.PLP.ligand.clash>
0.0000

> <Gold.PLP.ligand.torsion>
0.0965

> <Gold.PLP.Chemscore.Hbond>
1.9440

> <Gold.PLP.Chemscore.CHOScore>
1.0000

> <Gold.PLP.Chemscore.Metal>
0.0000

> <Gold.Chemscore.Hbonds>
donor molecule, donor type, donor heavy atom, donor atom, acceptor molecule, acceptor atom, score
      L1  H     9    27       P1  7957  1.00
      P1  H  7954  7966       L1    12  0.93
      L1  C     5    24       P1  8028  1.00

> <Gold.PLP.Chemscore.Internal.Correction>
0.0720

> <Gold.Rescore>
     Score         DG    S(hbond)    S(metal)    S(lipo)     H(rot)  DE(clash)    DE(int)     intcor
     10.82     -11.38       1.97        0.00      55.52       2.80       0.44       0.11       ----

> <Gold.Chemscore.Fitness>
10.8237

> <Gold.Chemscore.DG>
-11.3801

> <Gold.Chemscore.ZeroCoef>
-5.4800

> <Gold.Chemscore.Hbond>
1.9681

> <Gold.Chemscore.Metal>
0.0000

> <Gold.Chemscore.Lipo>
55.5235

> <Gold.Chemscore.Internal_Hbond>
0.0000

> <Gold.Chemscore.DEClash>
0.4442

> <Gold.Chemscore.DEInternal>
0.1122

> <Gold.Chemscore.Rot>
2.8006

> <Gold.Chemscore.Internal.Correction>
   9.000000E+99

> <Gold.Chemscore.Hbonds>
donor molecule, donor type, donor heavy atom, donor atom, acceptor molecule, acceptor atom, score
      L1  H     9    27       P1  7957  0.94
      P1  H  7954  7966       L1    12  0.88

> <Gold.Chemscore.Hbond.Weighted>
-6.5735

> <Gold.Chemscore.Metal.Weighted>
-0.0000

> <Gold.Chemscore.Lipo.Weighted>
-6.4963

> <Gold.Chemscore.Internal_Hbond.Weighted>
0.0000

> <Gold.Chemscore.DEClash.Weighted>
0.4442

> <Gold.Chemscore.DEInternal.Weighted>
0.1122

> <Gold.Chemscore.Rot.Weighted>
7.1696

> <Gold.Chemscore.Internal.Correction.Weighted>
   9.000000E+99

> <Gold.Protein.RotatedTorsions>
[ 6907 6896 6895 6894 ] final  -50.69 input  -60.11 | X-H torsion
[ 7974 7965 7964 7962 ] final  131.57 input  175.53 | X-H torsion
[ 8008 7997 7996 7995 ] final  -33.67 input   59.86 | X-H torsion
[ 10167 10162 10161 10158 ] final  151.43 input  -65.29 | X-H torsion
[ 10718 10713 10712 10709 ] final  118.05 input   66.30 | X-H torsion
[ 10763 10752 10751 10750 ] final   80.89 input  -60.55 | X-H torsion
[ 11005 11000 10999 10996 ] final -167.95 input  -57.11 | X-H torsion

> <Gold.Protein.ActiveResidues>
 VAL166  LYS551  ARG553  GLY616  TRP617  ASP618  TYR619  PRO620  LYS621  CYS622 
 ASP623  PHE694  ASN695  SER759  ASP760  ASP761  ALA762  ILE779  LEU786  VAL792 
 PHE793  MET794  SER795  GLU796  ALA797  LYS798  CYS799  TRP800  GLU811  SER814 

> <Gold.Protein.RotatedAtoms>
  150.8683  134.8051  159.7135 H   0  0  0  0  0  0  0  0  0  0  0  0  # atno 6907 bound_to 6896
  152.4696  134.4988  159.9728 H   0  0  0  0  0  0  0  0  0  0  0  0  # atno 6908 bound_to 6896
  151.5081  133.3452  159.2916 H   0  0  0  0  0  0  0  0  0  0  0  0  # atno 6909 bound_to 6896
  145.0059  139.4267  143.5269 H   0  0  0  0  0  0  0  0  0  0  0  0  # atno 7974 bound_to 7965
  154.4142  140.1704  156.1925 H   0  0  0  0  0  0  0  0  0  0  0  0  # atno 8008 bound_to 7997
  155.9591  140.3395  155.6451 H   0  0  0  0  0  0  0  0  0  0  0  0  # atno 8009 bound_to 7997
  155.6771  140.0718  157.2489 H   0  0  0  0  0  0  0  0  0  0  0  0  # atno 8010 bound_to 7997
  139.4840  144.5441  151.7514 H   0  0  0  0  0  0  0  0  0  0  0  0  # atno 10167 bound_to 10162
  157.6056  131.1044  150.7702 H   0  0  0  0  0  0  0  0  0  0  0  0  # atno 10718 bound_to 10713
  153.1071  135.4786  154.8969 H   0  0  0  0  0  0  0  0  0  0  0  0  # atno 10763 bound_to 10752
  154.7441  135.3089  154.8678 H   0  0  0  0  0  0  0  0  0  0  0  0  # atno 10764 bound_to 10752
  153.9278  135.6848  153.4799 H   0  0  0  0  0  0  0  0  0  0  0  0  # atno 10765 bound_to 10752
  140.5475  134.5461  157.5114 H   0  0  0  0  0  0  0  0  0  0  0  0  # atno 11005 bound_to 11000
  146.3461  139.9475  142.8733 LP  0  0  0  0  0  0  0  0  0  0  0  0  # atno 17320 bound_to 7965
  145.2089  140.9887  143.4112 LP  0  0  0  0  0  0  0  0  0  0  0  0  # atno 17321 bound_to 7965
  140.4985  144.1205  150.5965 LP  0  0  0  0  0  0  0  0  0  0  0  0  # atno 17342 bound_to 10162
  140.4090  143.2666  151.9856 LP  0  0  0  0  0  0  0  0  0  0  0  0  # atno 17343 bound_to 10162
  156.8090  130.4946  149.5358 LP  0  0  0  0  0  0  0  0  0  0  0  0  # atno 17370 bound_to 10713
  156.1141  130.6062  151.0094 LP  0  0  0  0  0  0  0  0  0  0  0  0  # atno 17371 bound_to 10713
  139.9472  134.7681  156.0534 LP  0  0  0  0  0  0  0  0  0  0  0  0  # atno 17394 bound_to 11000
  141.1191  133.6618  156.3169 LP  0  0  0  0  0  0  0  0  0  0  0  0  # atno 17395 bound_to 11000

$$$$
