AV-unprocessed.smi:3229|AV-procd|sdf|12328|dock7
  -GOLD-   2272018183D 1   1.00000     0.00000
 Structure written by MMmdl.
 35 36  0  0  0  0  0  0  0  0  1 V2000
  151.0480  144.7532  161.1889 C   0  0  0  0  0  0  0  0  0  0  0  0
  151.6193  144.6738  159.7689 C   0  0  0  0  0  0  0  0  0  0  0  0
  151.4157  143.3417  159.1256 C   0  0  0  0  0  0  0  0  0  0  0  0
  150.7070  143.0624  157.9831 C   0  0  0  0  0  0  0  0  0  0  0  0
  150.7018  141.7091  157.6377 N   0  0  0  0  0  0  0  0  0  0  0  0
  151.4038  140.9617  158.4935 C   0  0  0  0  0  0  0  0  0  0  0  0
  151.5385  139.4770  158.3816 C   0  0  0  0  0  0  0  0  0  0  0  0
  150.6270  138.8537  157.3117 C   0  0  0  0  0  0  0  0  0  0  0  0
  149.6145  137.9888  157.9043 N   0  0  0  0  0  0  0  0  0  0  0  0
  149.8796  136.9242  158.6741 C   0  0  0  0  0  0  0  0  0  0  0  0
  151.0232  136.5716  158.9642 O   0  0  0  0  0  0  0  0  0  0  0  0
  148.6660  136.1525  159.2027 C   0  0  1  0  0  0  0  0  0  0  0  0
  148.6488  134.6653  158.8360 C   0  0  0  0  0  0  0  0  0  0  0  0
  147.8272  134.0875  159.9662 C   0  0  0  0  0  0  0  0  0  0  0  0
  148.2930  134.9205  161.1569 C   0  0  0  0  0  0  0  0  0  0  0  0
  148.6789  136.1866  160.6276 O   0  0  0  0  0  0  0  0  0  0  0  0
  152.1039  141.8924  159.8122 S   0  0  0  0  0  0  0  0  0  0  0  0
  151.2104  145.7419  161.6183 H   0  0  0  0  0  0  0  0  0  0  0  0
  151.5209  144.0234  161.8469 H   0  0  0  0  0  0  0  0  0  0  0  0
  149.9747  144.5609  161.1916 H   0  0  0  0  0  0  0  0  0  0  0  0
  151.1612  145.4491  159.1538 H   0  0  0  0  0  0  0  0  0  0  0  0
  152.6853  144.9018  159.7956 H   0  0  0  0  0  0  0  0  0  0  0  0
  150.1753  143.7638  157.3570 H   0  0  0  0  0  0  0  0  0  0  0  0
  152.5805  139.2356  158.1673 H   0  0  0  0  0  0  0  0  0  0  0  0
  151.3164  139.0360  159.3536 H   0  0  0  0  0  0  0  0  0  0  0  0
  150.1396  139.6423  156.7367 H   0  0  0  0  0  0  0  0  0  0  0  0
  151.2278  138.2715  156.6111 H   0  0  0  0  0  0  0  0  0  0  0  0
  148.6481  138.2213  157.7241 H   0  0  0  0  0  0  0  0  0  0  0  0
  147.7389  136.6195  158.8652 H   0  0  0  0  0  0  0  0  0  0  0  0
  148.2036  134.4780  157.8585 H   0  0  0  0  0  0  0  0  0  0  0  0
  149.6490  134.2293  158.8456 H   0  0  0  0  0  0  0  0  0  0  0  0
  146.7659  134.2583  159.7806 H   0  0  0  0  0  0  0  0  0  0  0  0
  147.9817  133.0174  160.1069 H   0  0  0  0  0  0  0  0  0  0  0  0
  147.5191  135.0259  161.9175 H   0  0  0  0  0  0  0  0  0  0  0  0
  149.1657  134.4621  161.6233 H   0  0  0  0  0  0  0  0  0  0  0  0
  1  2  1  0  0  0  0
  1 18  1  0  0  0  0
  1 19  1  0  0  0  0
  1 20  1  0  0  0  0
  2  3  1  0  0  0  0
  2 21  1  0  0  0  0
  2 22  1  0  0  0  0
  3 17  1  0  0  0  0
  3  4  2  0  0  0  0
  4  5  1  0  0  0  0
  4 23  1  0  0  0  0
  5  6  2  0  0  0  0
  6  7  1  0  0  0  0
  6 17  1  0  0  0  0
  7  8  1  0  0  0  0
  7 24  1  0  0  0  0
  7 25  1  0  0  0  0
  8  9  1  0  0  0  0
  8 26  1  0  0  0  0
  8 27  1  0  0  0  0
  9 10  1  0  0  0  0
  9 28  1  0  0  0  0
 10 11  2  0  0  0  0
 10 12  1  0  0  0  0
 12 16  1  0  0  0  0
 12 13  1  0  0  0  0
 12 29  1  0  0  0  0
 13 14  1  0  0  0  0
 13 30  1  0  0  0  0
 13 31  1  0  0  0  0
 14 15  1  0  0  0  0
 14 32  1  0  0  0  0
 14 33  1  0  0  0  0
 15 16  1  0  0  0  0
 15 34  1  0  0  0  0
 15 35  1  0  0  0  0
M  END
> <s_m_source_file>
AV-unprocessed.smi

> <i_m_source_file_index>
3229

> <i_lp_mmshare_version>
43012

> <i_f3d_flags>
0

> <s_epik_input>
W0NIM11bQ0gyXWMxW2NIXW5jKHMxKVtDSDJdW0NIMl1bTkhdQyg9TylbQ0BASF0yW0NIMl1bQ0gyXVtDSDJdTzI=

> <s_epik_cmdline>
J2VwaWtfcHl0aG9uJywgJy1waCcsICc3LjAnLCAnLXRuJywgJzgnLCAnLW1hJywgJzIwMCcsICctbWV0YWxfYmluZGluZycsICctaW1hZScsICc8aW5maWxlLm1hZT4nLCAnLW9tYWUnLCAnPG91dGZpbGUubWFlPic=

> <r_epik_Ionization_Penalty>
0.000508191

> <r_epik_Ionization_Penalty_Charging>
0

> <r_epik_Ionization_Penalty_Neutral>
0.000508191

> <r_epik_State_Penalty>
0.000316483

> <r_epik_Charging_Adjusted_Penalty>
0.000316483

> <i_epik_Tot_Q>
0

> <i_epik_Tot_abs_Q>
0

> <r_epik_Metal_State_Penalty>
-0

> <b_epik_Metal_Only>
0

> <s_lp_Force_Field>
OPLS_2005

> <r_lp_Energy>
10.5911

> <b_lp_Chiralities_Consistent>
1

> <s_lp_Variant>
AV-unprocessed.smi:3229-2

> <Gold.Version>
5.8.1

> <Gold.Id.Protein>
6NUR|6NUR_protein|mol2

> <Gold.PLP.Fitness>
45.4291

> <Gold.PLP.PLP>
-35.5334

> <Gold.PLP.part.hbond>
-2.9675

> <Gold.PLP.part.metal>
0.0000

> <Gold.PLP.part.buried>
-4.5544

> <Gold.PLP.part.nonpolar>
-28.7579

> <Gold.PLP.part.repulsive>
0.1607

> <Gold.PLP.ligand.clash>
0.0000

> <Gold.PLP.ligand.torsion>
0.4707

> <Gold.PLP.Chemscore.Hbond>
2.5996

> <Gold.PLP.Chemscore.CHOScore>
1.0000

> <Gold.PLP.Chemscore.Metal>
0.0000

> <Gold.Chemscore.Hbonds>
donor molecule, donor type, donor heavy atom, donor atom, acceptor molecule, acceptor atom, score
      P1  H  6896  6909       L1    11  0.98
      L1  C     4    23       P1  8028  1.00

> <Gold.PLP.Chemscore.Internal.Correction>
0.0382

> <Gold.Rescore>
     Score         DG    S(hbond)    S(metal)    S(lipo)     H(rot)  DE(clash)    DE(int)     intcor
     17.95     -18.54       1.90        0.00      92.59       1.60       0.00       0.59       ----

> <Gold.Chemscore.Fitness>
17.9514

> <Gold.Chemscore.DG>
-18.5420

> <Gold.Chemscore.ZeroCoef>
-5.4800

> <Gold.Chemscore.Hbond>
1.8967

> <Gold.Chemscore.Metal>
0.0000

> <Gold.Chemscore.Lipo>
92.5935

> <Gold.Chemscore.Internal_Hbond>
0.0000

> <Gold.Chemscore.DEClash>
0.0015

> <Gold.Chemscore.DEInternal>
0.5892

> <Gold.Chemscore.Rot>
1.6040

> <Gold.Chemscore.Internal.Correction>
   9.000000E+99

> <Gold.Chemscore.Hbonds>
donor molecule, donor type, donor heavy atom, donor atom, acceptor molecule, acceptor atom, score
      P1  H  6896  6909       L1    11  0.92
      P1  H  6931  6943       L1    16  0.05

> <Gold.Chemscore.Hbond.Weighted>
-6.3348

> <Gold.Chemscore.Metal.Weighted>
-0.0000

> <Gold.Chemscore.Lipo.Weighted>
-10.8334

> <Gold.Chemscore.Internal_Hbond.Weighted>
0.0000

> <Gold.Chemscore.DEClash.Weighted>
0.0015

> <Gold.Chemscore.DEInternal.Weighted>
0.5892

> <Gold.Chemscore.Rot.Weighted>
4.1062

> <Gold.Chemscore.Internal.Correction.Weighted>
   9.000000E+99

> <Gold.Protein.RotatedTorsions>
[ 6907 6896 6895 6894 ] final  104.52 input  -60.11 | X-H torsion
[ 7974 7965 7964 7962 ] final   21.94 input  175.53 | X-H torsion
[ 8008 7997 7996 7995 ] final  149.46 input   59.86 | X-H torsion
[ 10167 10162 10161 10158 ] final  140.81 input  -65.29 | X-H torsion
[ 10718 10713 10712 10709 ] final  -18.55 input   66.30 | X-H torsion
[ 10763 10752 10751 10750 ] final  114.17 input  -60.55 | X-H torsion
[ 11005 11000 10999 10996 ] final   30.68 input  -57.11 | X-H torsion

> <Gold.Protein.ActiveResidues>
 VAL166  LYS551  ARG553  GLY616  TRP617  ASP618  TYR619  PRO620  LYS621  CYS622 
 ASP623  PHE694  ASN695  SER759  ASP760  ASP761  ALA762  ILE779  LEU786  VAL792 
 PHE793  MET794  SER795  GLU796  ALA797  LYS798  CYS799  TRP800  GLU811  SER814 

> <Gold.Protein.RotatedAtoms>
  152.5261  133.9665  159.7741 H   0  0  0  0  0  0  0  0  0  0  0  0  # atno 6907 bound_to 6896
  150.9945  133.6108  159.2710 H   0  0  0  0  0  0  0  0  0  0  0  0  # atno 6908 bound_to 6896
  151.3239  135.0831  159.9368 H   0  0  0  0  0  0  0  0  0  0  0  0  # atno 6909 bound_to 6896
  146.2050  139.7956  142.8733 H   0  0  0  0  0  0  0  0  0  0  0  0  # atno 7974 bound_to 7965
  156.2754  140.2101  156.5861 H   0  0  0  0  0  0  0  0  0  0  0  0  # atno 8008 bound_to 7997
  154.7020  140.0520  157.0490 H   0  0  0  0  0  0  0  0  0  0  0  0  # atno 8009 bound_to 7997
  155.0722  140.3178  155.4630 H   0  0  0  0  0  0  0  0  0  0  0  0  # atno 8010 bound_to 7997
  139.5038  144.6211  151.6048 H   0  0  0  0  0  0  0  0  0  0  0  0  # atno 10167 bound_to 10162
  156.5581  130.4718  149.6420 H   0  0  0  0  0  0  0  0  0  0  0  0  # atno 10718 bound_to 10713
  153.5033  135.3633  155.2550 H   0  0  0  0  0  0  0  0  0  0  0  0  # atno 10763 bound_to 10752
  154.8746  135.4005  154.3453 H   0  0  0  0  0  0  0  0  0  0  0  0  # atno 10764 bound_to 10752
  153.4093  135.7077  153.6436 H   0  0  0  0  0  0  0  0  0  0  0  0  # atno 10765 bound_to 10752
  140.2918  134.2855  155.7774 H   0  0  0  0  0  0  0  0  0  0  0  0  # atno 11005 bound_to 11000
  145.3351  141.0275  143.3424 LP  0  0  0  0  0  0  0  0  0  0  0  0  # atno 17320 bound_to 7965
  144.8771  139.4955  143.6740 LP  0  0  0  0  0  0  0  0  0  0  0  0  # atno 17321 bound_to 7965
  140.5914  143.9773  150.6327 LP  0  0  0  0  0  0  0  0  0  0  0  0  # atno 17342 bound_to 10162
  140.2955  143.3295  152.1022 LP  0  0  0  0  0  0  0  0  0  0  0  0  # atno 17343 bound_to 10162
  156.2824  130.7078  151.1906 LP  0  0  0  0  0  0  0  0  0  0  0  0  # atno 17370 bound_to 10713
  157.7374  131.0552  150.5356 LP  0  0  0  0  0  0  0  0  0  0  0  0  # atno 17371 bound_to 10713
  141.2145  133.7590  156.9636 LP  0  0  0  0  0  0  0  0  0  0  0  0  # atno 17394 bound_to 11000
  140.1188  134.9430  157.2174 LP  0  0  0  0  0  0  0  0  0  0  0  0  # atno 17395 bound_to 11000

$$$$
