AV-unprocessed.smi:555|AV-procd|sdf|2911|dock3
  -GOLD-   2262023403D 1   1.00000     0.00000
 Structure written by MMmdl.
 50 51  0  0  0  0  0  0  0  0  2 V2000
  155.1326  139.4466  159.8853 C   0  0  0  0  0  0  0  0  0  0  0  0
  154.7476  139.4359  158.5218 O   0  0  0  0  0  0  0  0  0  0  0  0
  153.5154  138.7679  158.3113 C   0  0  0  0  0  0  0  0  0  0  0  0
  152.4176  139.4860  159.1106 C   0  0  0  0  0  0  0  0  0  0  0  0
  151.9069  140.6558  158.3893 N   0  0  0  0  0  0  0  0  0  0  0  0
  151.2183  140.3451  157.2291 N   0  0  0  0  0  0  0  0  0  0  0  0
  150.7271  141.2884  156.4921 C   0  0  0  0  0  0  0  0  0  0  0  0
  149.9869  140.9936  155.2339 C   0  0  0  0  0  0  0  0  0  0  0  0
  150.4222  140.2104  154.3887 O   0  0  0  0  0  0  0  0  0  0  0  0
  148.8144  141.6381  155.0949 N   0  0  0  0  0  0  0  0  0  0  0  0
  147.9022  141.5125  153.9597 C   0  0  2  0  0  0  0  0  0  0  0  0
  146.8284  142.6064  154.0106 C   0  0  0  0  0  0  0  0  0  0  0  0
  145.8359  142.3952  155.1690 C   0  0  0  0  0  0  0  0  0  0  0  0
  145.1893  141.0499  155.1243 N   0  3  2  0  0  0  0  0  0  0  0  0
  144.1530  140.8451  156.1901 C   0  0  0  0  0  0  0  0  0  0  0  0
  143.4657  139.4674  156.0795 C   0  0  0  0  0  0  0  0  0  0  0  0
  143.0600  141.9354  156.1818 C   0  0  0  0  0  0  0  0  0  0  0  0
  146.2184  139.9687  155.0952 C   0  0  0  0  0  0  0  0  0  0  0  0
  147.2105  140.1404  153.9314 C   0  0  0  0  0  0  0  0  0  0  0  0
  150.8849  142.6837  156.8655 C   0  0  0  0  0  0  0  0  0  0  0  0
  151.5630  142.9710  157.9984 C   0  0  0  0  0  0  0  0  0  0  0  0
  152.1344  141.9239  158.8468 C   0  0  0  0  0  0  0  0  0  0  0  0
  152.7665  142.1609  159.8756 O   0  0  0  0  0  0  0  0  0  0  0  0
  156.0837  139.9681  159.9933 H   0  0  0  0  0  0  0  0  0  0  0  0
  155.2595  138.4330  160.2678 H   0  0  0  0  0  0  0  0  0  0  0  0
  154.3943  139.9633  160.4997 H   0  0  0  0  0  0  0  0  0  0  0  0
  153.2708  138.7638  157.2479 H   0  0  0  0  0  0  0  0  0  0  0  0
  153.5969  137.7292  158.6356 H   0  0  0  0  0  0  0  0  0  0  0  0
  151.6010  138.7896  159.3101 H   0  0  0  0  0  0  0  0  0  0  0  0
  152.7967  139.7759  160.0921 H   0  0  0  0  0  0  0  0  0  0  0  0
  148.5395  142.2680  155.8351 H   0  0  0  0  0  0  0  0  0  0  0  0
  148.4790  141.6407  153.0421 H   0  0  0  0  0  0  0  0  0  0  0  0
  147.2959  143.5884  154.0944 H   0  0  0  0  0  0  0  0  0  0  0  0
  146.2790  142.6136  153.0682 H   0  0  0  0  0  0  0  0  0  0  0  0
  146.3375  142.5269  156.1291 H   0  0  0  0  0  0  0  0  0  0  0  0
  145.0925  143.1860  155.0886 H   0  0  0  0  0  0  0  0  0  0  0  0
  144.6548  140.8918  157.1582 H   0  0  0  0  0  0  0  0  0  0  0  0
  142.6330  139.3868  156.7790 H   0  0  0  0  0  0  0  0  0  0  0  0
  144.1372  138.6450  156.3227 H   0  0  0  0  0  0  0  0  0  0  0  0
  143.0682  139.3002  155.0779 H   0  0  0  0  0  0  0  0  0  0  0  0
  142.2563  141.6906  156.8770 H   0  0  0  0  0  0  0  0  0  0  0  0
  142.6139  142.0466  155.1928 H   0  0  0  0  0  0  0  0  0  0  0  0
  143.4412  142.9059  156.4988 H   0  0  0  0  0  0  0  0  0  0  0  0
  146.7509  139.9461  156.0474 H   0  0  0  0  0  0  0  0  0  0  0  0
  145.7542  138.9924  154.9713 H   0  0  0  0  0  0  0  0  0  0  0  0
  146.6745  140.0295  152.9878 H   0  0  0  0  0  0  0  0  0  0  0  0
  147.9503  139.3393  153.9506 H   0  0  0  0  0  0  0  0  0  0  0  0
  150.4730  143.4773  156.2585 H   0  0  0  0  0  0  0  0  0  0  0  0
  151.6881  144.0040  158.2885 H   0  0  0  0  0  0  0  0  0  0  0  0
  144.7006  141.0018  154.2414 H   0  0  0  0  0  0  0  0  0  0  0  0
  1  2  1  0  0  0  0
  1 24  1  0  0  0  0
  1 25  1  0  0  0  0
  1 26  1  0  0  0  0
  2  3  1  0  0  0  0
  3  4  1  0  0  0  0
  3 27  1  0  0  0  0
  3 28  1  0  0  0  0
  4  5  1  0  0  0  0
  4 29  1  0  0  0  0
  4 30  1  0  0  0  0
  5 22  1  0  0  0  0
  5  6  1  0  0  0  0
  6  7  2  0  0  0  0
  7  8  1  0  0  0  0
  7 20  1  0  0  0  0
  8  9  2  0  0  0  0
  8 10  1  0  0  0  0
 10 11  1  0  0  0  0
 10 31  1  0  0  0  0
 11 19  1  0  0  0  0
 11 12  1  0  0  0  0
 11 32  1  0  0  0  0
 12 13  1  0  0  0  0
 12 33  1  0  0  0  0
 12 34  1  0  0  0  0
 13 14  1  0  0  0  0
 13 35  1  0  0  0  0
 13 36  1  0  0  0  0
 14 15  1  0  0  0  0
 14 18  1  0  0  0  0
 14 50  1  0  0  0  0
 15 16  1  0  0  0  0
 15 17  1  0  0  0  0
 15 37  1  0  0  0  0
 16 38  1  0  0  0  0
 16 39  1  0  0  0  0
 16 40  1  0  0  0  0
 17 41  1  0  0  0  0
 17 42  1  0  0  0  0
 17 43  1  0  0  0  0
 18 19  1  0  0  0  0
 18 44  1  0  0  0  0
 18 45  1  0  0  0  0
 19 46  1  0  0  0  0
 19 47  1  0  0  0  0
 20 21  2  0  0  0  0
 20 48  1  0  0  0  0
 21 22  1  0  0  0  0
 21 49  1  0  0  0  0
 22 23  2  0  0  0  0
M  CHG  1  14   1
M  END
> <s_m_source_file>
AV-unprocessed.smi

> <i_m_source_file_index>
555

> <i_lp_mmshare_version>
43012

> <i_f3d_flags>
0

> <s_epik_input>
W0NIM11PW0NIMl1bQ0gyXW4xbmMoW2NIXVtjSF1jMT1PKUMoPU8pW05IXVtDSF0yW0NIMl1bQ0gyXU4oW0NIXShbQ0gzXSlbQ0gzXSlbQ0gyXVtDSDJdMg==

> <s_epik_cmdline>
J2VwaWtfcHl0aG9uJywgJy1waCcsICc3LjAnLCAnLXRuJywgJzgnLCAnLW1hJywgJzIwMCcsICctbWV0YWxfYmluZGluZycsICctaW1hZScsICc8aW5maWxlLm1hZT4nLCAnLW9tYWUnLCAnPG91dGZpbGUubWFlPic=

> <r_lp_tautomer_probability>
1

> <r_epik_Ionization_Penalty>
0.00560205

> <r_epik_Ionization_Penalty_Charging>
0.00559911

> <r_epik_Ionization_Penalty_Neutral>
2.94673e-06

> <r_epik_State_Penalty>
0.00410202

> <r_epik_Charging_Adjusted_Penalty>
0.00970113

> <i_epik_Tot_Q>
1

> <i_epik_Tot_abs_Q>
1

> <r_epik_Metal_State_Penalty>
-0

> <b_epik_Metal_Only>
0

> <s_lp_Force_Field>
OPLS_2005

> <r_lp_Energy>
41.3332

> <b_lp_Chiralities_Consistent>
1

> <s_lp_Variant>
AV-unprocessed.smi:555-2

> <Gold.Version>
5.8.1

> <Gold.Id.Protein>
6NUR|6NUR_protein|mol2

> <Gold.PLP.Fitness>
45.2670

> <Gold.PLP.PLP>
-35.3169

> <Gold.PLP.part.hbond>
-3.5081

> <Gold.PLP.part.metal>
0.0000

> <Gold.PLP.part.buried>
-5.1936

> <Gold.PLP.part.nonpolar>
-25.9894

> <Gold.PLP.part.repulsive>
0.2742

> <Gold.PLP.ligand.clash>
0.0000

> <Gold.PLP.ligand.torsion>
1.1253

> <Gold.PLP.Chemscore.Hbond>
4.0000

> <Gold.PLP.Chemscore.CHOScore>
0.0000

> <Gold.PLP.Chemscore.Metal>
0.0000

> <Gold.Chemscore.Hbonds>
donor molecule, donor type, donor heavy atom, donor atom, acceptor molecule, acceptor atom, score
      L1  H    14    50       P1 10175  1.72
      P1  H  7989  7998       L1     9  1.00
      P1  H  7997  8009       L1     2  0.68

> <Gold.PLP.Chemscore.Internal.Correction>
0.2007

> <Gold.Rescore>
     Score         DG    S(hbond)    S(metal)    S(lipo)     H(rot)  DE(clash)    DE(int)     intcor
     17.25     -18.28       2.86        0.00      65.87       1.74       0.00       1.03       ----

> <Gold.Chemscore.Fitness>
17.2513

> <Gold.Chemscore.DG>
-18.2840

> <Gold.Chemscore.ZeroCoef>
-5.4800

> <Gold.Chemscore.Hbond>
2.8628

> <Gold.Chemscore.Metal>
0.0000

> <Gold.Chemscore.Lipo>
65.8676

> <Gold.Chemscore.Internal_Hbond>
0.0000

> <Gold.Chemscore.DEClash>
0.0000

> <Gold.Chemscore.DEInternal>
1.0327

> <Gold.Chemscore.Rot>
1.7438

> <Gold.Chemscore.Internal.Correction>
   9.000000E+99

> <Gold.Chemscore.Hbonds>
donor molecule, donor type, donor heavy atom, donor atom, acceptor molecule, acceptor atom, score
      L1  H    10    31       P1  8028  0.01
      L1  H    14    50       P1 10175  0.76
      P1  H  7989  7998       L1     9  0.81
      P1  H  7997  8009       L1     2  0.60

> <Gold.Chemscore.Hbond.Weighted>
-9.5616

> <Gold.Chemscore.Metal.Weighted>
-0.0000

> <Gold.Chemscore.Lipo.Weighted>
-7.7065

> <Gold.Chemscore.Internal_Hbond.Weighted>
0.0000

> <Gold.Chemscore.DEClash.Weighted>
0.0000

> <Gold.Chemscore.DEInternal.Weighted>
1.0327

> <Gold.Chemscore.Rot.Weighted>
4.4642

> <Gold.Chemscore.Internal.Correction.Weighted>
   9.000000E+99

> <Gold.Protein.RotatedTorsions>
[ 6907 6896 6895 6894 ] final -160.88 input  -60.11 | X-H torsion
[ 7974 7965 7964 7962 ] final   70.76 input  175.53 | X-H torsion
[ 8008 7997 7996 7995 ] final  108.45 input   59.86 | X-H torsion
[ 10167 10162 10161 10158 ] final   67.76 input  -65.29 | X-H torsion
[ 10718 10713 10712 10709 ] final -119.76 input   66.30 | X-H torsion
[ 10763 10752 10751 10750 ] final   -1.43 input  -60.55 | X-H torsion
[ 11005 11000 10999 10996 ] final  -12.08 input  -57.11 | X-H torsion

> <Gold.Protein.ActiveResidues>
 VAL166  LYS551  ARG553  GLY616  TRP617  ASP618  TYR619  PRO620  LYS621  CYS622 
 ASP623  PHE694  ASN695  SER759  ASP760  ASP761  ALA762  ILE779  LEU786  VAL792 
 PHE793  MET794  SER795  GLU796  ALA797  LYS798  CYS799  TRP800  GLU811  SER814 

> <Gold.Protein.RotatedAtoms>
  151.3560  133.3907  159.2684 H   0  0  0  0  0  0  0  0  0  0  0  0  # atno 6907 bound_to 6896
  150.9763  134.9128  159.7828 H   0  0  0  0  0  0  0  0  0  0  0  0  # atno 6908 bound_to 6896
  152.5202  134.3523  159.9308 H   0  0  0  0  0  0  0  0  0  0  0  0  # atno 6909 bound_to 6896
  145.7741  139.2857  143.1303 H   0  0  0  0  0  0  0  0  0  0  0  0  # atno 7974 bound_to 7965
  156.1904  140.3076  155.9321 H   0  0  0  0  0  0  0  0  0  0  0  0  # atno 8008 bound_to 7997
  155.3186  140.0454  157.3055 H   0  0  0  0  0  0  0  0  0  0  0  0  # atno 8009 bound_to 7997
  154.5445  140.2272  155.8594 H   0  0  0  0  0  0  0  0  0  0  0  0  # atno 8010 bound_to 7997
  140.0860  144.5030  150.7130 H   0  0  0  0  0  0  0  0  0  0  0  0  # atno 10167 bound_to 10162
  156.1206  130.6320  150.9456 H   0  0  0  0  0  0  0  0  0  0  0  0  # atno 10718 bound_to 10713
  153.3448  135.6982  153.6837 H   0  0  0  0  0  0  0  0  0  0  0  0  # atno 10763 bound_to 10752
  153.5588  135.3539  155.2791 H   0  0  0  0  0  0  0  0  0  0  0  0  # atno 10764 bound_to 10752
  154.8643  135.4244  154.2669 H   0  0  0  0  0  0  0  0  0  0  0  0  # atno 10765 bound_to 10752
  140.7620  133.8507  155.9133 H   0  0  0  0  0  0  0  0  0  0  0  0  # atno 11005 bound_to 11000
  146.0140  140.8409  142.9957 LP  0  0  0  0  0  0  0  0  0  0  0  0  # atno 17320 bound_to 7965
  144.6807  140.2531  143.7329 LP  0  0  0  0  0  0  0  0  0  0  0  0  # atno 17321 bound_to 7965
  140.7053  143.2464  151.4744 LP  0  0  0  0  0  0  0  0  0  0  0  0  # atno 17342 bound_to 10162
  139.5752  144.1836  152.1893 LP  0  0  0  0  0  0  0  0  0  0  0  0  # atno 17343 bound_to 10162
  157.6389  131.0912  150.8292 LP  0  0  0  0  0  0  0  0  0  0  0  0  # atno 17370 bound_to 10713
  156.8389  130.5041  149.5323 LP  0  0  0  0  0  0  0  0  0  0  0  0  # atno 17371 bound_to 10713
  140.9654  134.1601  157.4620 LP  0  0  0  0  0  0  0  0  0  0  0  0  # atno 17394 bound_to 11000
  139.8769  134.9960  156.5771 LP  0  0  0  0  0  0  0  0  0  0  0  0  # atno 17395 bound_to 11000

$$$$
