AV-unprocessed.smi:1229|AV-procd|sdf|5151|dock10
  -GOLD-   22720 4223D 1   1.00000     0.00000
 Structure written by MMmdl.
 46 47  0  0  0  0  0  0  0  0  2 V2000
  152.7245  140.2301  159.6105 C   0  0  0  0  0  0  0  0  0  0  0  0
  152.3030  141.4910  158.8730 C   0  0  0  0  0  0  0  0  0  0  0  0
  152.7341  142.7469  159.3509 C   0  0  0  0  0  0  0  0  0  0  0  0
  152.3416  143.9119  158.6699 C   0  0  0  0  0  0  0  0  0  0  0  0
  151.5302  143.7706  157.5313 C   0  0  0  0  0  0  0  0  0  0  0  0
  151.1143  142.5745  157.0671 N   0  0  0  0  0  0  0  0  0  0  0  0
  151.4828  141.4400  157.7140 C   0  0  0  0  0  0  0  0  0  0  0  0
  151.0808  140.1446  157.2808 N   0  0  0  0  0  0  0  0  0  0  0  0
  151.1038  139.6355  156.0365 C   0  0  0  0  0  0  0  0  0  0  0  0
  151.4806  140.2313  155.0265 O   0  0  0  0  0  0  0  0  0  0  0  0
  150.6621  138.3691  156.0190 N   0  0  0  0  0  0  0  0  0  0  0  0
  150.5486  137.5423  154.8213 C   0  0  0  0  0  0  0  0  0  0  0  0
  150.1403  136.0914  155.1526 C   0  0  1  0  0  0  0  0  0  0  0  0
  150.6457  135.7745  156.4347 O   0  0  0  0  0  0  0  0  0  0  0  0
  148.6075  135.9320  155.2028 C   0  0  0  0  0  0  0  0  0  0  0  0
  148.1065  134.9399  154.2169 N   0  3  0  0  0  0  0  0  0  0  0  0
  148.7353  133.6045  154.3899 C   0  0  0  0  0  0  0  0  0  0  0  0
  148.3128  132.6406  153.2681 C   0  0  0  0  0  0  0  0  0  0  0  0
  146.7855  132.5186  153.1930 C   0  0  0  0  0  0  0  0  0  0  0  0
  146.1557  133.9102  153.0497 C   0  0  0  0  0  0  0  0  0  0  0  0
  146.6221  134.8446  154.1788 C   0  0  0  0  0  0  0  0  0  0  0  0
  153.3689  140.4635  160.4586 H   0  0  0  0  0  0  0  0  0  0  0  0
  153.2743  139.5629  158.9463 H   0  0  0  0  0  0  0  0  0  0  0  0
  151.8501  139.7002  159.9893 H   0  0  0  0  0  0  0  0  0  0  0  0
  153.3580  142.8201  160.2296 H   0  0  0  0  0  0  0  0  0  0  0  0
  152.6543  144.8877  159.0109 H   0  0  0  0  0  0  0  0  0  0  0  0
  151.2068  144.6395  156.9777 H   0  0  0  0  0  0  0  0  0  0  0  0
  150.7384  139.5347  158.0082 H   0  0  0  0  0  0  0  0  0  0  0  0
  150.3700  137.9522  156.8910 H   0  0  0  0  0  0  0  0  0  0  0  0
  149.8413  138.0006  154.1286 H   0  0  0  0  0  0  0  0  0  0  0  0
  151.5142  137.5524  154.3123 H   0  0  0  0  0  0  0  0  0  0  0  0
  150.5662  135.4049  154.4218 H   0  0  0  0  0  0  0  0  0  0  0  0
  151.5694  135.9761  156.4510 H   0  0  0  0  0  0  0  0  0  0  0  0
  148.3244  135.6316  156.2133 H   0  0  0  0  0  0  0  0  0  0  0  0
  148.1148  136.8892  155.0240 H   0  0  0  0  0  0  0  0  0  0  0  0
  149.8215  133.7043  154.3811 H   0  0  0  0  0  0  0  0  0  0  0  0
  148.4611  133.1953  155.3635 H   0  0  0  0  0  0  0  0  0  0  0  0
  148.6995  132.9984  152.3127 H   0  0  0  0  0  0  0  0  0  0  0  0
  148.7570  131.6584  153.4329 H   0  0  0  0  0  0  0  0  0  0  0  0
  146.4974  131.8850  152.3535 H   0  0  0  0  0  0  0  0  0  0  0  0
  146.4089  132.0339  154.0947 H   0  0  0  0  0  0  0  0  0  0  0  0
  146.4272  134.3385  152.0837 H   0  0  0  0  0  0  0  0  0  0  0  0
  145.0683  133.8291  153.0576 H   0  0  0  0  0  0  0  0  0  0  0  0
  146.2547  134.4807  155.1399 H   0  0  0  0  0  0  0  0  0  0  0  0
  146.1791  135.8280  154.0270 H   0  0  0  0  0  0  0  0  0  0  0  0
  148.4049  135.2743  153.3114 H   0  0  0  0  0  0  0  0  0  0  0  0
  1  2  1  0  0  0  0
  1 22  1  0  0  0  0
  1 23  1  0  0  0  0
  1 24  1  0  0  0  0
  2  7  1  0  0  0  0
  2  3  2  0  0  0  0
  3  4  1  0  0  0  0
  3 25  1  0  0  0  0
  4  5  2  0  0  0  0
  4 26  1  0  0  0  0
  5  6  1  0  0  0  0
  5 27  1  0  0  0  0
  6  7  2  0  0  0  0
  7  8  1  0  0  0  0
  8  9  1  0  0  0  0
  8 28  1  0  0  0  0
  9 10  2  0  0  0  0
  9 11  1  0  0  0  0
 11 12  1  0  0  0  0
 11 29  1  0  0  0  0
 12 13  1  0  0  0  0
 12 30  1  0  0  0  0
 12 31  1  0  0  0  0
 13 14  1  0  0  0  0
 13 15  1  0  0  0  0
 13 32  1  0  0  0  0
 14 33  1  0  0  0  0
 15 16  1  0  0  0  0
 15 34  1  0  0  0  0
 15 35  1  0  0  0  0
 16 21  1  0  0  0  0
 16 17  1  0  0  0  0
 16 46  1  0  0  0  0
 17 18  1  0  0  0  0
 17 36  1  0  0  0  0
 17 37  1  0  0  0  0
 18 19  1  0  0  0  0
 18 38  1  0  0  0  0
 18 39  1  0  0  0  0
 19 20  1  0  0  0  0
 19 40  1  0  0  0  0
 19 41  1  0  0  0  0
 20 21  1  0  0  0  0
 20 42  1  0  0  0  0
 20 43  1  0  0  0  0
 21 44  1  0  0  0  0
 21 45  1  0  0  0  0
M  CHG  1  16   1
M  END
> <s_m_source_file>
AV-unprocessed.smi

> <i_m_source_file_index>
1229

> <i_lp_mmshare_version>
43012

> <i_f3d_flags>
0

> <s_epik_input>
W0NIM11jMVtjSF1bY0hdW2NIXW5jMVtOSF1DKD1PKVtOSF1bQ0gyXVtDQEhdKFtPSF0pW0NIMl1OMltDSDJdW0NIMl1bQ0gyXVtDSDJdW0NIMl0y

> <s_epik_cmdline>
J2VwaWtfcHl0aG9uJywgJy1waCcsICc3LjAnLCAnLXRuJywgJzgnLCAnLW1hJywgJzIwMCcsICctbWV0YWxfYmluZGluZycsICctaW1hZScsICc8aW5maWxlLm1hZT4nLCAnLW9tYWUnLCAnPG91dGZpbGUubWFlPic=

> <r_epik_Ionization_Penalty>
0.00511007

> <r_epik_Ionization_Penalty_Charging>
0.00506051

> <r_epik_Ionization_Penalty_Neutral>
4.95577e-05

> <r_epik_State_Penalty>
0.00368188

> <r_epik_Charging_Adjusted_Penalty>
0.0087424

> <i_epik_Tot_Q>
1

> <i_epik_Tot_abs_Q>
1

> <r_epik_Metal_State_Penalty>
-0

> <b_epik_Metal_Only>
0

> <s_lp_Force_Field>
OPLS_2005

> <r_lp_Energy>
20.718

> <b_lp_Chiralities_Consistent>
1

> <s_lp_Variant>
AV-unprocessed.smi:1229-2

> <Gold.Version>
5.8.1

> <Gold.Id.Protein>
6NUR|6NUR_protein|mol2

> <Gold.PLP.Fitness>
46.4573

> <Gold.PLP.PLP>
-37.4545

> <Gold.PLP.part.hbond>
-2.0000

> <Gold.PLP.part.metal>
0.0000

> <Gold.PLP.part.buried>
-5.3729

> <Gold.PLP.part.nonpolar>
-31.1177

> <Gold.PLP.part.repulsive>
0.2504

> <Gold.PLP.ligand.clash>
0.0000

> <Gold.PLP.ligand.torsion>
1.5248

> <Gold.PLP.Chemscore.Hbond>
2.9920

> <Gold.PLP.Chemscore.CHOScore>
1.0000

> <Gold.PLP.Chemscore.Metal>
0.0000

> <Gold.Chemscore.Hbonds>
donor molecule, donor type, donor heavy atom, donor atom, acceptor molecule, acceptor atom, score
      L1  H    16    46       P1  7948  2.00
      P1  H  7989  7998       L1    10  1.00
      L1  C     5    27       P1  8028  0.65

> <Gold.PLP.Chemscore.Internal.Correction>
0.0762

> <Gold.Rescore>
     Score         DG    S(hbond)    S(metal)    S(lipo)     H(rot)  DE(clash)    DE(int)     intcor
     15.07     -16.64       1.93        0.00      90.82       2.31       0.01       1.55       ----

> <Gold.Chemscore.Fitness>
15.0745

> <Gold.Chemscore.DG>
-16.6382

> <Gold.Chemscore.ZeroCoef>
-5.4800

> <Gold.Chemscore.Hbond>
1.9297

> <Gold.Chemscore.Metal>
0.0000

> <Gold.Chemscore.Lipo>
90.8157

> <Gold.Chemscore.Internal_Hbond>
0.0000

> <Gold.Chemscore.DEClash>
0.0093

> <Gold.Chemscore.DEInternal>
1.5544

> <Gold.Chemscore.Rot>
2.3095

> <Gold.Chemscore.Internal.Correction>
   9.000000E+99

> <Gold.Chemscore.Hbonds>
donor molecule, donor type, donor heavy atom, donor atom, acceptor molecule, acceptor atom, score
      L1  H    16    46       P1  7948  0.97
      P1  H  7989  7998       L1    10  0.95

> <Gold.Chemscore.Hbond.Weighted>
-6.4452

> <Gold.Chemscore.Metal.Weighted>
-0.0000

> <Gold.Chemscore.Lipo.Weighted>
-10.6254

> <Gold.Chemscore.Internal_Hbond.Weighted>
0.0000

> <Gold.Chemscore.DEClash.Weighted>
0.0093

> <Gold.Chemscore.DEInternal.Weighted>
1.5544

> <Gold.Chemscore.Rot.Weighted>
5.9124

> <Gold.Chemscore.Internal.Correction.Weighted>
   9.000000E+99

> <Gold.Protein.RotatedTorsions>
[ 6907 6896 6895 6894 ] final  -89.80 input  -60.11 | X-H torsion
[ 7974 7965 7964 7962 ] final  138.65 input  175.53 | X-H torsion
[ 8008 7997 7996 7995 ] final  -53.33 input   59.86 | X-H torsion
[ 10167 10162 10161 10158 ] final   63.98 input  -65.29 | X-H torsion
[ 10718 10713 10712 10709 ] final   60.83 input   66.30 | X-H torsion
[ 10763 10752 10751 10750 ] final  -65.72 input  -60.55 | X-H torsion
[ 11005 11000 10999 10996 ] final -150.50 input  -57.11 | X-H torsion

> <Gold.Protein.ActiveResidues>
 VAL166  LYS551  ARG553  GLY616  TRP617  ASP618  TYR619  PRO620  LYS621  CYS622 
 ASP623  PHE694  ASN695  SER759  ASP760  ASP761  ALA762  ILE779  LEU786  VAL792 
 PHE793  MET794  SER795  GLU796  ALA797  LYS798  CYS799  TRP800  GLU811  SER814 

> <Gold.Protein.RotatedAtoms>
  150.6876  134.2530  159.4518 H   0  0  0  0  0  0  0  0  0  0  0  0  # atno 6907 bound_to 6896
  152.0466  134.9676  160.0583 H   0  0  0  0  0  0  0  0  0  0  0  0  # atno 6908 bound_to 6896
  152.1157  133.4290  159.4689 H   0  0  0  0  0  0  0  0  0  0  0  0  # atno 6909 bound_to 6896
  144.9353  139.4997  143.5598 H   0  0  0  0  0  0  0  0  0  0  0  0  # atno 7974 bound_to 7965
  154.4130  140.1202  156.5136 H   0  0  0  0  0  0  0  0  0  0  0  0  # atno 8008 bound_to 7997
  155.6774  140.3496  155.4822 H   0  0  0  0  0  0  0  0  0  0  0  0  # atno 8009 bound_to 7997
  155.9581  140.1117  157.0910 H   0  0  0  0  0  0  0  0  0  0  0  0  # atno 8010 bound_to 7997
  140.1271  144.4677  150.6886 H   0  0  0  0  0  0  0  0  0  0  0  0  # atno 10167 bound_to 10162
  157.5782  130.8960  149.9384 H   0  0  0  0  0  0  0  0  0  0  0  0  # atno 10718 bound_to 10713
  154.3492  135.6140  153.5634 H   0  0  0  0  0  0  0  0  0  0  0  0  # atno 10763 bound_to 10752
  152.9799  135.5788  154.4763 H   0  0  0  0  0  0  0  0  0  0  0  0  # atno 10764 bound_to 10752
  154.4481  135.2852  155.1778 H   0  0  0  0  0  0  0  0  0  0  0  0  # atno 10765 bound_to 10752
  140.7395  134.3530  157.5150 H   0  0  0  0  0  0  0  0  0  0  0  0  # atno 11005 bound_to 11000
  146.3264  139.8332  142.8904 LP  0  0  0  0  0  0  0  0  0  0  0  0  # atno 17320 bound_to 7965
  145.3077  141.0211  143.3572 LP  0  0  0  0  0  0  0  0  0  0  0  0  # atno 17321 bound_to 7965
  140.6838  143.2340  151.5313 LP  0  0  0  0  0  0  0  0  0  0  0  0  # atno 17342 bound_to 10162
  139.5539  144.2326  152.1578 LP  0  0  0  0  0  0  0  0  0  0  0  0  # atno 17343 bound_to 10162
  156.0827  130.3671  150.0548 LP  0  0  0  0  0  0  0  0  0  0  0  0  # atno 17370 bound_to 10713
  156.8691  130.9518  151.3611 LP  0  0  0  0  0  0  0  0  0  0  0  0  # atno 17371 bound_to 10713
  139.8809  134.9071  156.2938 LP  0  0  0  0  0  0  0  0  0  0  0  0  # atno 17394 bound_to 11000
  140.9849  133.7244  156.0727 LP  0  0  0  0  0  0  0  0  0  0  0  0  # atno 17395 bound_to 11000

$$$$
