AV-unprocessed.smi:234|AV-procd|sdf|1793|dock2
  -GOLD-   2262020353D 1   1.00000     0.00000
 Structure written by MMmdl.
 59 62  0  0  0  0  0  0  0  0  1 V2000
  152.9970  142.4981  161.8111 C   0  0  0  0  0  0  0  0  0  0  0  0
  153.6802  141.7567  160.6602 C   0  0  0  0  0  0  0  0  0  0  0  0
  153.1098  142.1868  159.4350 O   0  0  0  0  0  0  0  0  0  0  0  0
  151.7412  141.8230  159.2991 C   0  0  2  0  0  0  0  0  0  0  0  0
  151.5717  140.4520  158.6376 C   0  0  0  0  0  0  0  0  0  0  0  0
  151.5789  141.2006  157.2972 C   0  0  1  0  0  0  0  0  0  0  0  0
  150.6452  140.6630  156.3015 N   0  0  0  0  0  0  0  0  0  0  0  0
  150.0694  141.5923  155.3351 C   0  0  0  0  0  0  0  0  0  0  0  0
  150.9264  139.4569  155.7475 C   0  0  0  0  0  0  0  0  0  0  0  0
  151.1948  139.3597  154.4178 N   0  0  0  0  0  0  0  0  0  0  0  0
  151.4606  138.1702  153.8705 C   0  0  0  0  0  0  0  0  0  0  0  0
  151.5084  136.9730  154.4581 N   0  0  0  0  0  0  0  0  0  0  0  0
  151.2368  137.0648  155.7914 C   0  0  0  0  0  0  0  0  0  0  0  0
  150.9307  138.2555  156.5083 C   0  0  0  0  0  0  0  0  0  0  0  0
  150.7075  137.9601  157.8474 N   0  0  0  0  0  0  0  0  0  0  0  0
  150.8755  136.6677  157.9189 C   0  0  0  0  0  0  0  0  0  0  0  0
  151.2084  136.0511  156.7334 N   0  0  0  0  0  0  0  0  0  0  0  0
  151.4665  134.6333  156.5324 C   0  0  0  0  0  0  0  0  0  0  0  0
  150.1784  133.7806  156.4187 C   0  0  1  0  0  0  0  0  0  0  0  0
  149.4773  133.8673  157.6482 O   0  0  0  0  0  0  0  0  0  0  0  0
  149.2511  134.2811  155.3057 C   0  0  0  0  0  0  0  0  0  0  0  0
  149.2911  133.1719  154.2607 C   0  0  0  0  0  0  0  0  0  0  0  0
  149.4630  132.0051  155.0448 O   0  0  0  0  0  0  0  0  0  0  0  0
  150.4484  132.3054  156.0222 C   0  0  2  0  0  0  0  0  0  0  0  0
  150.4306  131.2594  157.1493 C   0  0  0  0  0  0  0  0  0  0  0  0
  151.0729  142.4609  158.0541 C   0  0  0  0  0  0  0  0  0  0  0  0
  149.5528  142.6501  158.1902 C   0  0  0  0  0  0  0  0  0  0  0  0
  151.6441  143.8092  157.6059 C   0  0  0  0  0  0  0  0  0  0  0  0
  153.4089  142.1895  162.7720 H   0  0  0  0  0  0  0  0  0  0  0  0
  151.9258  142.2952  161.8251 H   0  0  0  0  0  0  0  0  0  0  0  0
  153.1338  143.5758  161.7180 H   0  0  0  0  0  0  0  0  0  0  0  0
  154.7522  141.9564  160.6761 H   0  0  0  0  0  0  0  0  0  0  0  0
  153.5442  140.6809  160.7790 H   0  0  0  0  0  0  0  0  0  0  0  0
  151.1662  141.9569  160.2171 H   0  0  0  0  0  0  0  0  0  0  0  0
  152.4035  139.7604  158.7726 H   0  0  0  0  0  0  0  0  0  0  0  0
  150.6169  139.9803  158.8759 H   0  0  0  0  0  0  0  0  0  0  0  0
  152.5934  141.3338  156.9169 H   0  0  0  0  0  0  0  0  0  0  0  0
  150.3479  141.3405  154.3104 H   0  0  0  0  0  0  0  0  0  0  0  0
  150.4039  142.6124  155.5207 H   0  0  0  0  0  0  0  0  0  0  0  0
  148.9817  141.5767  155.4059 H   0  0  0  0  0  0  0  0  0  0  0  0
  151.6644  138.1792  152.8099 H   0  0  0  0  0  0  0  0  0  0  0  0
  150.7711  136.1249  158.8474 H   0  0  0  0  0  0  0  0  0  0  0  0
  152.0754  134.5223  155.6341 H   0  0  0  0  0  0  0  0  0  0  0  0
  152.0800  134.2766  157.3608 H   0  0  0  0  0  0  0  0  0  0  0  0
  148.6432  133.4347  157.5455 H   0  0  0  0  0  0  0  0  0  0  0  0
  148.2265  134.3893  155.6660 H   0  0  0  0  0  0  0  0  0  0  0  0
  149.5503  135.2442  154.8907 H   0  0  0  0  0  0  0  0  0  0  0  0
  148.3826  133.1250  153.6597 H   0  0  0  0  0  0  0  0  0  0  0  0
  150.1437  133.2952  153.5907 H   0  0  0  0  0  0  0  0  0  0  0  0
  151.4080  132.2416  155.5079 H   0  0  0  0  0  0  0  0  0  0  0  0
  151.1679  131.4934  157.9176 H   0  0  0  0  0  0  0  0  0  0  0  0
  150.6664  130.2696  156.7581 H   0  0  0  0  0  0  0  0  0  0  0  0
  149.4523  131.1979  157.6266 H   0  0  0  0  0  0  0  0  0  0  0  0
  149.1030  143.0034  157.2622 H   0  0  0  0  0  0  0  0  0  0  0  0
  149.3132  143.3798  158.9642 H   0  0  0  0  0  0  0  0  0  0  0  0
  149.0454  141.7232  158.4584 H   0  0  0  0  0  0  0  0  0  0  0  0
  151.1509  144.1811  156.7078 H   0  0  0  0  0  0  0  0  0  0  0  0
  152.7082  143.7411  157.3787 H   0  0  0  0  0  0  0  0  0  0  0  0
  151.5267  144.5666  158.3813 H   0  0  0  0  0  0  0  0  0  0  0  0
  1  2  1  0  0  0  0
  1 29  1  0  0  0  0
  1 30  1  0  0  0  0
  1 31  1  0  0  0  0
  2  3  1  0  0  0  0
  2 32  1  0  0  0  0
  2 33  1  0  0  0  0
  3  4  1  0  0  0  0
  4 26  1  0  0  0  0
  4  5  1  0  0  0  0
  4 34  1  0  0  0  0
  5  6  1  0  0  0  0
  5 35  1  0  0  0  0
  5 36  1  0  0  0  0
  6  7  1  0  0  0  0
  6 26  1  0  0  0  0
  6 37  1  0  0  0  0
  7  8  1  0  0  0  0
  7  9  1  0  0  0  0
  8 38  1  0  0  0  0
  8 39  1  0  0  0  0
  8 40  1  0  0  0  0
  9 14  1  0  0  0  0
  9 10  2  0  0  0  0
 10 11  1  0  0  0  0
 11 12  2  0  0  0  0
 11 41  1  0  0  0  0
 12 13  1  0  0  0  0
 13 17  1  0  0  0  0
 13 14  2  0  0  0  0
 14 15  1  0  0  0  0
 15 16  2  0  0  0  0
 16 17  1  0  0  0  0
 16 42  1  0  0  0  0
 17 18  1  0  0  0  0
 18 19  1  0  0  0  0
 18 43  1  0  0  0  0
 18 44  1  0  0  0  0
 19 24  1  0  0  0  0
 19 20  1  0  0  0  0
 19 21  1  0  0  0  0
 20 45  1  0  0  0  0
 21 22  1  0  0  0  0
 21 46  1  0  0  0  0
 21 47  1  0  0  0  0
 22 23  1  0  0  0  0
 22 48  1  0  0  0  0
 22 49  1  0  0  0  0
 23 24  1  0  0  0  0
 24 25  1  0  0  0  0
 24 50  1  0  0  0  0
 25 51  1  0  0  0  0
 25 52  1  0  0  0  0
 25 53  1  0  0  0  0
 26 27  1  0  0  0  0
 26 28  1  0  0  0  0
 27 54  1  0  0  0  0
 27 55  1  0  0  0  0
 27 56  1  0  0  0  0
 28 57  1  0  0  0  0
 28 58  1  0  0  0  0
 28 59  1  0  0  0  0
M  END
> <s_m_source_file>
AV-unprocessed.smi

> <i_m_source_file_index>
234

> <i_lp_mmshare_version>
43012

> <i_f3d_flags>
0

> <s_epik_input>
W0NIM11bQ0gyXU9bQ0BASF0oQzEoW0NIM10pW0NIM10pW0NIMl1bQ0BIXTFOKFtDSDNdKWMobltjSF1uMiljKGMyMyluW2NIXW4zW0NIMl1bQ0BAXTQoW09IXSlbQ0gyXVtDSDJdT1tDQEhdNFtDSDNd

> <s_epik_cmdline>
J2VwaWtfcHl0aG9uJywgJy1waCcsICc3LjAnLCAnLXRuJywgJzgnLCAnLW1hJywgJzIwMCcsICctbWV0YWxfYmluZGluZycsICctaW1hZScsICc8aW5maWxlLm1hZT4nLCAnLW9tYWUnLCAnPG91dGZpbGUubWFlPic=

> <r_lp_tautomer_probability>
1

> <r_epik_Ionization_Penalty>
0.00349132

> <r_epik_Ionization_Penalty_Charging>
0

> <r_epik_Ionization_Penalty_Neutral>
0.00349132

> <r_epik_State_Penalty>
0.00242418

> <r_epik_Charging_Adjusted_Penalty>
0.00242418

> <i_epik_Tot_Q>
0

> <i_epik_Tot_abs_Q>
0

> <r_epik_Metal_State_Penalty>
-0

> <b_epik_Metal_Only>
0

> <s_lp_Force_Field>
OPLS_2005

> <r_lp_Energy>
48.0221

> <b_lp_Chiralities_Consistent>
1

> <s_lp_Variant>
AV-unprocessed.smi:234-9

> <Gold.Version>
5.8.1

> <Gold.Id.Protein>
6NUR|6NUR_protein|mol2

> <Gold.PLP.Fitness>
53.3375

> <Gold.PLP.PLP>
-43.5410

> <Gold.PLP.part.hbond>
-3.0000

> <Gold.PLP.part.metal>
0.0000

> <Gold.PLP.part.buried>
-5.5179

> <Gold.PLP.part.nonpolar>
-33.9629

> <Gold.PLP.part.repulsive>
0.3354

> <Gold.PLP.ligand.clash>
0.0000

> <Gold.PLP.ligand.torsion>
1.1734

> <Gold.PLP.Chemscore.Hbond>
3.0000

> <Gold.PLP.Chemscore.CHOScore>
0.5763

> <Gold.PLP.Chemscore.Metal>
0.0000

> <Gold.Chemscore.Hbonds>
donor molecule, donor type, donor heavy atom, donor atom, acceptor molecule, acceptor atom, score
      P1  H  6896  6907       L1    20  0.91
      P1  H  7989  7998       L1    10  1.00
      P1  H 10752 10765       L1    12  1.00
      L1  C    11    41       P1  7949  0.64

> <Gold.PLP.Chemscore.Internal.Correction>
1.4144

> <Gold.Rescore>
     Score         DG    S(hbond)    S(metal)    S(lipo)     H(rot)  DE(clash)    DE(int)     intcor
     17.21     -20.20       2.72        0.00     105.60       2.62       0.51       2.47       ----

> <Gold.Chemscore.Fitness>
17.2129

> <Gold.Chemscore.DG>
-20.1956

> <Gold.Chemscore.ZeroCoef>
-5.4800

> <Gold.Chemscore.Hbond>
2.7162

> <Gold.Chemscore.Metal>
0.0000

> <Gold.Chemscore.Lipo>
105.6045

> <Gold.Chemscore.Internal_Hbond>
0.0000

> <Gold.Chemscore.DEClash>
0.5103

> <Gold.Chemscore.DEInternal>
2.4725

> <Gold.Chemscore.Rot>
2.6219

> <Gold.Chemscore.Internal.Correction>
   9.000000E+99

> <Gold.Chemscore.Hbonds>
donor molecule, donor type, donor heavy atom, donor atom, acceptor molecule, acceptor atom, score
      P1  H  6896  6907       L1    20  0.78
      P1  H  7989  7998       L1    10  0.94
      P1  H 10752 10765       L1    12  0.64

> <Gold.Chemscore.Hbond.Weighted>
-9.0720

> <Gold.Chemscore.Metal.Weighted>
-0.0000

> <Gold.Chemscore.Lipo.Weighted>
-12.3557

> <Gold.Chemscore.Internal_Hbond.Weighted>
0.0000

> <Gold.Chemscore.DEClash.Weighted>
0.5103

> <Gold.Chemscore.DEInternal.Weighted>
2.4725

> <Gold.Chemscore.Rot.Weighted>
6.7121

> <Gold.Chemscore.Internal.Correction.Weighted>
   9.000000E+99

> <Gold.Protein.RotatedTorsions>
[ 6907 6896 6895 6894 ] final -105.37 input  -60.11 | X-H torsion
[ 7974 7965 7964 7962 ] final  131.30 input  175.53 | X-H torsion
[ 8008 7997 7996 7995 ] final    7.18 input   59.86 | X-H torsion
[ 10167 10162 10161 10158 ] final  130.84 input  -65.29 | X-H torsion
[ 10718 10713 10712 10709 ] final -161.97 input   66.30 | X-H torsion
[ 10763 10752 10751 10750 ] final  158.44 input  -60.55 | X-H torsion
[ 11005 11000 10999 10996 ] final -162.52 input  -57.11 | X-H torsion

> <Gold.Protein.ActiveResidues>
 VAL166  LYS551  ARG553  GLY616  TRP617  ASP618  TYR619  PRO620  LYS621  CYS622 
 ASP623  PHE694  ASN695  SER759  ASP760  ASP761  ALA762  ILE779  LEU786  VAL792 
 PHE793  MET794  SER795  GLU796  ALA797  LYS798  CYS799  TRP800  GLU811  SER814 

> <Gold.Protein.RotatedAtoms>
  150.7334  134.0136  159.3677 H   0  0  0  0  0  0  0  0  0  0  0  0  # atno 6907 bound_to 6896
  151.8097  135.0682  160.0420 H   0  0  0  0  0  0  0  0  0  0  0  0  # atno 6908 bound_to 6896
  152.3081  133.5688  159.5699 H   0  0  0  0  0  0  0  0  0  0  0  0  # atno 6909 bound_to 6896
  145.0088  139.4240  143.5255 H   0  0  0  0  0  0  0  0  0  0  0  0  # atno 7974 bound_to 7965
  154.7506  140.2766  155.6296 H   0  0  0  0  0  0  0  0  0  0  0  0  # atno 8008 bound_to 7997
  156.2894  140.2679  156.2185 H   0  0  0  0  0  0  0  0  0  0  0  0  # atno 8009 bound_to 7997
  155.0142  140.0372  157.2401 H   0  0  0  0  0  0  0  0  0  0  0  0  # atno 8010 bound_to 7997
  139.5411  144.6731  151.4621 H   0  0  0  0  0  0  0  0  0  0  0  0  # atno 10167 bound_to 10162
  156.6038  130.8821  151.2920 H   0  0  0  0  0  0  0  0  0  0  0  0  # atno 10718 bound_to 10713
  154.2161  135.2784  155.2941 H   0  0  0  0  0  0  0  0  0  0  0  0  # atno 10763 bound_to 10752
  154.5740  135.5610  153.7125 H   0  0  0  0  0  0  0  0  0  0  0  0  # atno 10764 bound_to 10752
  153.0052  135.6328  154.2300 H   0  0  0  0  0  0  0  0  0  0  0  0  # atno 10765 bound_to 10752
  140.6083  134.4876  157.5213 H   0  0  0  0  0  0  0  0  0  0  0  0  # atno 11005 bound_to 11000
  146.3466  139.9520  142.8728 LP  0  0  0  0  0  0  0  0  0  0  0  0  # atno 17320 bound_to 7965
  145.2052  140.9872  143.4133 LP  0  0  0  0  0  0  0  0  0  0  0  0  # atno 17321 bound_to 7965
  140.6641  143.8435  150.6922 LP  0  0  0  0  0  0  0  0  0  0  0  0  # atno 17342 bound_to 10162
  140.1839  143.4092  152.1913 LP  0  0  0  0  0  0  0  0  0  0  0  0  # atno 17343 bound_to 10162
  157.7272  130.9640  150.1691 LP  0  0  0  0  0  0  0  0  0  0  0  0  # atno 17370 bound_to 10713
  156.2447  130.3694  149.8298 LP  0  0  0  0  0  0  0  0  0  0  0  0  # atno 17371 bound_to 10713
  139.9203  134.8162  156.1233 LP  0  0  0  0  0  0  0  0  0  0  0  0  # atno 17394 bound_to 11000
  141.0825  133.6748  156.2367 LP  0  0  0  0  0  0  0  0  0  0  0  0  # atno 17395 bound_to 11000

$$$$
