AV-unprocessed.smi:1005|AV-procd|sdf|4368|dock10
  -GOLD-   22720 2273D 1   1.00000     0.00000
 Structure written by MMmdl.
 57 59  0  0  0  0  0  0  0  0  3 V2000
  153.0214  143.0192  161.5844 C   0  0  0  0  0  0  0  0  0  0  0  0
  152.4743  142.6512  160.2165 C   0  0  0  0  0  0  0  0  0  0  0  0
  152.9293  141.4694  159.5895 C   0  0  0  0  0  0  0  0  0  0  0  0
  152.4460  141.0923  158.3175 C   0  0  0  0  0  0  0  0  0  0  0  0
  152.7502  139.9961  157.5286 N   0  0  0  0  0  0  0  0  0  0  0  0
  151.9787  140.2069  156.4668 C   0  0  0  0  0  0  0  0  0  0  0  0
  151.2117  141.3140  156.4717 N   0  0  0  0  0  0  0  0  0  0  0  0
  150.3003  141.7495  155.4283 C   0  0  0  0  0  0  0  0  0  0  0  0
  149.6331  140.5680  154.6984 C   0  0  2  0  0  0  0  0  0  0  0  0
  149.1752  140.9978  153.4308 O   0  0  0  0  0  0  0  0  0  0  0  0
  148.4322  140.0147  155.4906 C   0  0  0  0  0  0  0  0  0  0  0  0
  147.6674  138.9946  154.7232 N   0  3  2  0  0  0  0  0  0  0  0  0
  146.3137  138.7295  155.2673 C   0  0  0  0  0  0  0  0  0  0  0  0
  146.3806  137.8081  156.4969 C   0  0  0  0  0  0  0  0  0  0  0  0
  147.0370  136.5973  156.1406 O   0  0  0  0  0  0  0  0  0  0  0  0
  148.3845  136.8044  155.7289 C   0  0  1  0  0  0  0  0  0  0  0  0
  149.0034  135.4273  155.4215 C   0  0  0  0  0  0  0  0  0  0  0  0
  148.5546  134.8673  154.1205 N   0  3  0  0  0  0  0  0  0  0  0  0
  147.0809  134.8232  153.9732 C   0  0  0  0  0  0  0  0  0  0  0  0
  149.1648  133.5476  153.8442 C   0  0  0  0  0  0  0  0  0  0  0  0
  148.3915  137.7194  154.4820 C   0  0  0  0  0  0  0  0  0  0  0  0
  151.4867  141.9360  157.6851 C   0  0  0  0  0  0  0  0  0  0  0  0
  151.0265  143.1146  158.2984 C   0  0  0  0  0  0  0  0  0  0  0  0
  151.5198  143.4767  159.5694 C   0  0  0  0  0  0  0  0  0  0  0  0
  151.0168  144.7515  160.2234 C   0  0  0  0  0  0  0  0  0  0  0  0
  153.7408  142.2799  161.9379 H   0  0  0  0  0  0  0  0  0  0  0  0
  152.2149  143.0766  162.3156 H   0  0  0  0  0  0  0  0  0  0  0  0
  153.5256  143.9849  161.5474 H   0  0  0  0  0  0  0  0  0  0  0  0
  153.6564  140.8405  160.0822 H   0  0  0  0  0  0  0  0  0  0  0  0
  151.9725  139.5179  155.6347 H   0  0  0  0  0  0  0  0  0  0  0  0
  149.5416  142.3866  155.8849 H   0  0  0  0  0  0  0  0  0  0  0  0
  150.8489  142.3765  154.7240 H   0  0  0  0  0  0  0  0  0  0  0  0
  150.3805  139.7902  154.5440 H   0  0  0  0  0  0  0  0  0  0  0  0
  149.3227  140.3035  152.8056 H   0  0  0  0  0  0  0  0  0  0  0  0
  148.7643  139.5974  156.4410 H   0  0  0  0  0  0  0  0  0  0  0  0
  147.7780  140.8504  155.7446 H   0  0  0  0  0  0  0  0  0  0  0  0
  145.8021  139.6627  155.5063 H   0  0  0  0  0  0  0  0  0  0  0  0
  145.7196  138.2477  154.4895 H   0  0  0  0  0  0  0  0  0  0  0  0
  146.8968  138.2909  157.3281 H   0  0  0  0  0  0  0  0  0  0  0  0
  145.3739  137.5732  156.8427 H   0  0  0  0  0  0  0  0  0  0  0  0
  148.9404  137.2847  156.5334 H   0  0  0  0  0  0  0  0  0  0  0  0
  150.0891  135.5363  155.4129 H   0  0  0  0  0  0  0  0  0  0  0  0
  148.7740  134.7170  156.2175 H   0  0  0  0  0  0  0  0  0  0  0  0
  146.6303  134.1874  154.7365 H   0  0  0  0  0  0  0  0  0  0  0  0
  146.8059  134.4238  152.9964 H   0  0  0  0  0  0  0  0  0  0  0  0
  146.6378  135.8154  154.0495 H   0  0  0  0  0  0  0  0  0  0  0  0
  148.8580  132.8110  154.5883 H   0  0  0  0  0  0  0  0  0  0  0  0
  150.2534  133.6125  153.8548 H   0  0  0  0  0  0  0  0  0  0  0  0
  148.8684  133.1827  152.8601 H   0  0  0  0  0  0  0  0  0  0  0  0
  147.8951  137.2078  153.6561 H   0  0  0  0  0  0  0  0  0  0  0  0
  149.4119  137.9078  154.1499 H   0  0  0  0  0  0  0  0  0  0  0  0
  150.3008  143.7357  157.7945 H   0  0  0  0  0  0  0  0  0  0  0  0
  150.2846  145.2591  159.5947 H   0  0  0  0  0  0  0  0  0  0  0  0
  151.8424  145.4414  160.3993 H   0  0  0  0  0  0  0  0  0  0  0  0
  150.5404  144.5293  161.1785 H   0  0  0  0  0  0  0  0  0  0  0  0
  148.9041  135.4881  153.4037 H   0  0  0  0  0  0  0  0  0  0  0  0
  147.5180  139.4196  153.8183 H   0  0  0  0  0  0  0  0  0  0  0  0
  1  2  1  0  0  0  0
  1 26  1  0  0  0  0
  1 27  1  0  0  0  0
  1 28  1  0  0  0  0
  2 24  1  0  0  0  0
  2  3  2  0  0  0  0
  3  4  1  0  0  0  0
  3 29  1  0  0  0  0
  4 22  2  0  0  0  0
  4  5  1  0  0  0  0
  5  6  2  0  0  0  0
  6  7  1  0  0  0  0
  6 30  1  0  0  0  0
  7  8  1  0  0  0  0
  7 22  1  0  0  0  0
  8  9  1  0  0  0  0
  8 31  1  0  0  0  0
  8 32  1  0  0  0  0
  9 10  1  0  0  0  0
  9 11  1  0  0  0  0
  9 33  1  0  0  0  0
 10 34  1  0  0  0  0
 11 12  1  0  0  0  0
 11 35  1  0  0  0  0
 11 36  1  0  0  0  0
 12 21  1  0  0  0  0
 12 13  1  0  0  0  0
 12 57  1  0  0  0  0
 13 14  1  0  0  0  0
 13 37  1  0  0  0  0
 13 38  1  0  0  0  0
 14 15  1  0  0  0  0
 14 39  1  0  0  0  0
 14 40  1  0  0  0  0
 15 16  1  0  0  0  0
 16 17  1  0  0  0  0
 16 21  1  0  0  0  0
 16 41  1  0  0  0  0
 17 18  1  0  0  0  0
 17 42  1  0  0  0  0
 17 43  1  0  0  0  0
 18 19  1  0  0  0  0
 18 20  1  0  0  0  0
 18 56  1  0  0  0  0
 19 44  1  0  0  0  0
 19 45  1  0  0  0  0
 19 46  1  0  0  0  0
 20 47  1  0  0  0  0
 20 48  1  0  0  0  0
 20 49  1  0  0  0  0
 21 50  1  0  0  0  0
 21 51  1  0  0  0  0
 22 23  1  0  0  0  0
 23 24  2  0  0  0  0
 23 52  1  0  0  0  0
 24 25  1  0  0  0  0
 25 53  1  0  0  0  0
 25 54  1  0  0  0  0
 25 55  1  0  0  0  0
M  CHG  1  12   1
M  CHG  1  18   1
M  END
> <s_m_source_file>
AV-unprocessed.smi

> <i_m_source_file_index>
1005

> <i_lp_mmshare_version>
43012

> <i_f3d_flags>
0

> <s_epik_input>
W0NIM11jKFtjSF0xKWMoW0NIM10pW2NIXWMoYzEyKW4oW2NIXW4yKVtDSDJdW0NASF0oW09IXSlbQ0gyXU4zW0NIMl1bQ0gyXU9bQ0BIXShbQ0gyXTMpW0NIMl1OKFtDSDNdKVtDSDNd

> <s_epik_cmdline>
J2VwaWtfcHl0aG9uJywgJy1waCcsICc3LjAnLCAnLXRuJywgJzgnLCAnLW1hJywgJzIwMCcsICctbWV0YWxfYmluZGluZycsICctaW1hZScsICc8aW5maWxlLm1hZT4nLCAnLW9tYWUnLCAnPG91dGZpbGUubWFlPic=

> <r_epik_Ionization_Penalty>
1.0968

> <r_epik_Ionization_Penalty_Charging>
1.0096

> <r_epik_Ionization_Penalty_Neutral>
0.0871956

> <r_epik_State_Penalty>
1.31185

> <r_epik_Charging_Adjusted_Penalty>
2.32145

> <i_epik_Tot_Q>
2

> <i_epik_Tot_abs_Q>
2

> <r_epik_Metal_State_Penalty>
1.22442

> <b_epik_Metal_Only>
0

> <s_lp_Force_Field>
OPLS_2005

> <r_lp_Energy>
35.7023

> <b_lp_Chiralities_Consistent>
1

> <s_lp_Variant>
AV-unprocessed.smi:1005-7

> <Gold.Version>
5.8.1

> <Gold.Id.Protein>
6NUR|6NUR_protein|mol2

> <Gold.PLP.Fitness>
53.6866

> <Gold.PLP.PLP>
-41.2194

> <Gold.PLP.part.hbond>
-4.9714

> <Gold.PLP.part.metal>
0.0000

> <Gold.PLP.part.buried>
-3.2331

> <Gold.PLP.part.nonpolar>
-31.2636

> <Gold.PLP.part.repulsive>
0.0063

> <Gold.PLP.ligand.clash>
0.0000

> <Gold.PLP.ligand.torsion>
0.8314

> <Gold.PLP.Chemscore.Hbond>
4.6660

> <Gold.PLP.Chemscore.CHOScore>
0.0000

> <Gold.PLP.Chemscore.Metal>
0.0000

> <Gold.Chemscore.Hbonds>
donor molecule, donor type, donor heavy atom, donor atom, acceptor molecule, acceptor atom, score
      L1  H    10    34       P1  7957  0.83
      L1  H    18    56       P1  7948  2.00
      P1  H  7997  8010       L1     5  1.00
      P1  H  8011  8017       L1    10  0.80

> <Gold.PLP.Chemscore.Internal.Correction>
0.1321

> <Gold.Rescore>
     Score         DG    S(hbond)    S(metal)    S(lipo)     H(rot)  DE(clash)    DE(int)     intcor
     18.07     -20.66       2.58        0.00     110.48       2.48       0.35       2.25       ----

> <Gold.Chemscore.Fitness>
18.0660

> <Gold.Chemscore.DG>
-20.6619

> <Gold.Chemscore.ZeroCoef>
-5.4800

> <Gold.Chemscore.Hbond>
2.5773

> <Gold.Chemscore.Metal>
0.0000

> <Gold.Chemscore.Lipo>
110.4798

> <Gold.Chemscore.Internal_Hbond>
0.0000

> <Gold.Chemscore.DEClash>
0.3454

> <Gold.Chemscore.DEInternal>
2.2505

> <Gold.Chemscore.Rot>
2.4814

> <Gold.Chemscore.Internal.Correction>
   9.000000E+99

> <Gold.Chemscore.Hbonds>
donor molecule, donor type, donor heavy atom, donor atom, acceptor molecule, acceptor atom, score
      L1  H    10    34       P1  7957  0.81
      L1  H    18    56       P1  7948  0.78
      P1  H  7997  8010       L1     5  0.25
      P1  H  8011  8017       L1    10  0.12

> <Gold.Chemscore.Hbond.Weighted>
-8.6081

> <Gold.Chemscore.Metal.Weighted>
-0.0000

> <Gold.Chemscore.Lipo.Weighted>
-12.9261

> <Gold.Chemscore.Internal_Hbond.Weighted>
0.0000

> <Gold.Chemscore.DEClash.Weighted>
0.3454

> <Gold.Chemscore.DEInternal.Weighted>
2.2505

> <Gold.Chemscore.Rot.Weighted>
6.3524

> <Gold.Chemscore.Internal.Correction.Weighted>
   9.000000E+99

> <Gold.Protein.RotatedTorsions>
[ 6907 6896 6895 6894 ] final  163.44 input  -60.11 | X-H torsion
[ 7974 7965 7964 7962 ] final -162.68 input  175.53 | X-H torsion
[ 8008 7997 7996 7995 ] final   52.30 input   59.86 | X-H torsion
[ 10167 10162 10161 10158 ] final -148.40 input  -65.29 | X-H torsion
[ 10718 10713 10712 10709 ] final  126.17 input   66.30 | X-H torsion
[ 10763 10752 10751 10750 ] final  -14.77 input  -60.55 | X-H torsion
[ 11005 11000 10999 10996 ] final  162.32 input  -57.11 | X-H torsion

> <Gold.Protein.ActiveResidues>
 VAL166  LYS551  ARG553  GLY616  TRP617  ASP618  TYR619  PRO620  LYS621  CYS622 
 ASP623  PHE694  ASN695  SER759  ASP760  ASP761  ALA762  ILE779  LEU786  VAL792 
 PHE793  MET794  SER795  GLU796  ALA797  LYS798  CYS799  TRP800  GLU811  SER814 

> <Gold.Protein.RotatedAtoms>
  151.9252  133.3596  159.3910 H   0  0  0  0  0  0  0  0  0  0  0  0  # atno 6907 bound_to 6896
  150.7028  134.4594  159.5383 H   0  0  0  0  0  0  0  0  0  0  0  0  # atno 6908 bound_to 6896
  152.2225  134.8399  160.0535 H   0  0  0  0  0  0  0  0  0  0  0  0  # atno 6909 bound_to 6896
  144.7349  140.3217  143.6169 H   0  0  0  0  0  0  0  0  0  0  0  0  # atno 7974 bound_to 7965
  155.4495  140.3457  155.4299 H   0  0  0  0  0  0  0  0  0  0  0  0  # atno 8008 bound_to 7997
  156.1229  140.1492  156.9208 H   0  0  0  0  0  0  0  0  0  0  0  0  # atno 8009 bound_to 7997
  154.4836  140.0862  156.7415 H   0  0  0  0  0  0  0  0  0  0  0  0  # atno 8010 bound_to 7997
  139.7535  143.8483  152.2592 H   0  0  0  0  0  0  0  0  0  0  0  0  # atno 10167 bound_to 10162
  157.5441  131.1096  150.8810 H   0  0  0  0  0  0  0  0  0  0  0  0  # atno 10718 bound_to 10713
  153.5332  135.7014  153.5673 H   0  0  0  0  0  0  0  0  0  0  0  0  # atno 10763 bound_to 10752
  153.3671  135.3954  155.1761 H   0  0  0  0  0  0  0  0  0  0  0  0  # atno 10764 bound_to 10752
  154.8682  135.3803  154.4831 H   0  0  0  0  0  0  0  0  0  0  0  0  # atno 10765 bound_to 10752
  140.2246  134.8170  157.3255 H   0  0  0  0  0  0  0  0  0  0  0  0  # atno 11005 bound_to 11000
  145.7562  139.1809  143.2293 LP  0  0  0  0  0  0  0  0  0  0  0  0  # atno 17320 bound_to 7965
  146.1022  140.7529  142.9543 LP  0  0  0  0  0  0  0  0  0  0  0  0  # atno 17321 bound_to 7965
  139.8468  144.7183  150.9262 LP  0  0  0  0  0  0  0  0  0  0  0  0  # atno 17342 bound_to 10162
  140.7800  143.3934  151.1271 LP  0  0  0  0  0  0  0  0  0  0  0  0  # atno 17343 bound_to 10162
  156.9354  130.5365  149.5279 LP  0  0  0  0  0  0  0  0  0  0  0  0  # atno 17370 bound_to 10713
  156.0521  130.5589  150.9012 LP  0  0  0  0  0  0  0  0  0  0  0  0  # atno 17371 bound_to 10713
  140.1814  134.4485  155.7770 LP  0  0  0  0  0  0  0  0  0  0  0  0  # atno 17394 bound_to 11000
  141.2221  133.6985  156.7874 LP  0  0  0  0  0  0  0  0  0  0  0  0  # atno 17395 bound_to 11000

$$$$
