AV-unprocessed.smi:1302|AV-procd|sdf|5427|dock9
  -GOLD-   22720 4583D 1   1.00000     0.00000
 Structure written by MMmdl.
 43 44  0  0  0  0  0  0  0  0  1 V2000
  156.3002  143.5654  167.8377 C   0  0  0  0  0  0  0  0  0  0  0  0
  156.5373  142.2438  167.0947 C   0  0  0  0  0  0  0  0  0  0  0  0
  158.0355  141.9672  166.8926 C   0  0  0  0  0  0  0  0  0  0  0  0
  155.8467  142.2799  165.8088 N   0  0  0  0  0  0  0  0  0  0  0  0
  155.8208  141.2819  164.9097 C   0  0  0  0  0  0  0  0  0  0  0  0
  156.4125  140.2130  165.0618 O   0  0  0  0  0  0  0  0  0  0  0  0
  155.0681  141.5700  163.6428 C   0  0  0  0  0  0  0  0  0  0  0  0
  154.9154  140.5750  162.6546 C   0  0  0  0  0  0  0  0  0  0  0  0
  154.1853  140.8722  161.4879 C   0  0  0  0  0  0  0  0  0  0  0  0
  153.6165  142.1587  161.3378 C   0  0  0  0  0  0  0  0  0  0  0  0
  152.8848  142.4781  160.1740 N   0  0  0  0  0  0  0  0  0  0  0  0
  152.4231  143.8603  160.0809 C   0  0  0  0  0  0  0  0  0  0  0  0
  151.9340  144.1861  158.6558 C   0  0  1  0  0  0  0  0  0  0  0  0
  153.0790  144.3824  157.6459 C   0  0  0  0  0  0  0  0  0  0  0  0
  150.9904  143.2052  158.2194 O   0  0  0  0  0  0  0  0  0  0  0  0
  151.4647  141.8599  158.2591 C   0  0  2  0  0  0  0  0  0  0  0  0
  150.3384  140.9449  157.7676 C   0  0  0  0  0  0  0  0  0  0  0  0
  151.9031  141.5106  159.6922 C   0  0  0  0  0  0  0  0  0  0  0  0
  153.7482  143.1082  162.2967 N   0  0  0  0  0  0  0  0  0  0  0  0
  154.4492  142.8188  163.4132 C   0  0  0  0  0  0  0  0  0  0  0  0
  156.7820  143.5563  168.8158 H   0  0  0  0  0  0  0  0  0  0  0  0
  155.2358  143.7409  167.9975 H   0  0  0  0  0  0  0  0  0  0  0  0
  156.6985  144.4131  167.2790 H   0  0  0  0  0  0  0  0  0  0  0  0
  156.1143  141.4416  167.7025 H   0  0  0  0  0  0  0  0  0  0  0  0
  158.5597  141.9357  167.8481 H   0  0  0  0  0  0  0  0  0  0  0  0
  158.5035  142.7401  166.2819 H   0  0  0  0  0  0  0  0  0  0  0  0
  158.1986  141.0086  166.3991 H   0  0  0  0  0  0  0  0  0  0  0  0
  155.3521  143.1310  165.5841 H   0  0  0  0  0  0  0  0  0  0  0  0
  155.3504  139.5940  162.7807 H   0  0  0  0  0  0  0  0  0  0  0  0
  154.0583  140.1103  160.7334 H   0  0  0  0  0  0  0  0  0  0  0  0
  151.6022  143.9913  160.7871 H   0  0  0  0  0  0  0  0  0  0  0  0
  153.1966  144.5710  160.3688 H   0  0  0  0  0  0  0  0  0  0  0  0
  151.3900  145.1300  158.7009 H   0  0  0  0  0  0  0  0  0  0  0  0
  153.7069  145.2257  157.9341 H   0  0  0  0  0  0  0  0  0  0  0  0
  152.6878  144.5888  156.6496 H   0  0  0  0  0  0  0  0  0  0  0  0
  153.7259  143.5082  157.5783 H   0  0  0  0  0  0  0  0  0  0  0  0
  152.3103  141.7475  157.5803 H   0  0  0  0  0  0  0  0  0  0  0  0
  150.6524  139.9008  157.7679 H   0  0  0  0  0  0  0  0  0  0  0  0
  150.0433  141.2024  156.7502 H   0  0  0  0  0  0  0  0  0  0  0  0
  149.4554  141.0294  158.4021 H   0  0  0  0  0  0  0  0  0  0  0  0
  152.3261  140.5052  159.7048 H   0  0  0  0  0  0  0  0  0  0  0  0
  151.0414  141.5111  160.3614 H   0  0  0  0  0  0  0  0  0  0  0  0
  154.5098  143.6153  164.1405 H   0  0  0  0  0  0  0  0  0  0  0  0
  1  2  1  0  0  0  0
  1 21  1  0  0  0  0
  1 22  1  0  0  0  0
  1 23  1  0  0  0  0
  2  3  1  0  0  0  0
  2  4  1  0  0  0  0
  2 24  1  0  0  0  0
  3 25  1  0  0  0  0
  3 26  1  0  0  0  0
  3 27  1  0  0  0  0
  4  5  1  0  0  0  0
  4 28  1  0  0  0  0
  5  6  2  0  0  0  0
  5  7  1  0  0  0  0
  7 20  1  0  0  0  0
  7  8  2  0  0  0  0
  8  9  1  0  0  0  0
  8 29  1  0  0  0  0
  9 10  2  0  0  0  0
  9 30  1  0  0  0  0
 10 11  1  0  0  0  0
 10 19  1  0  0  0  0
 11 18  1  0  0  0  0
 11 12  1  0  0  0  0
 12 13  1  0  0  0  0
 12 31  1  0  0  0  0
 12 32  1  0  0  0  0
 13 14  1  0  0  0  0
 13 15  1  0  0  0  0
 13 33  1  0  0  0  0
 14 34  1  0  0  0  0
 14 35  1  0  0  0  0
 14 36  1  0  0  0  0
 15 16  1  0  0  0  0
 16 17  1  0  0  0  0
 16 18  1  0  0  0  0
 16 37  1  0  0  0  0
 17 38  1  0  0  0  0
 17 39  1  0  0  0  0
 17 40  1  0  0  0  0
 18 41  1  0  0  0  0
 18 42  1  0  0  0  0
 19 20  2  0  0  0  0
 20 43  1  0  0  0  0
M  END
> <s_m_source_file>
AV-unprocessed.smi

> <i_m_source_file_index>
1302

> <i_lp_mmshare_version>
43012

> <i_f3d_flags>
0

> <s_epik_input>
W0NIM11bQ0hdKFtDSDNdKVtOSF1DKD1PKWMxW2NIXVtjSF1jKG5bY0hdMSlOMltDSDJdW0NAQEhdKFtDSDNdKU9bQ0BASF0oW0NIM10pW0NIMl0y

> <s_epik_cmdline>
J2VwaWtfcHl0aG9uJywgJy1waCcsICc3LjAnLCAnLXRuJywgJzgnLCAnLW1hJywgJzIwMCcsICctbWV0YWxfYmluZGluZycsICctaW1hZScsICc8aW5maWxlLm1hZT4nLCAnLW9tYWUnLCAnPG91dGZpbGUubWFlPic=

> <r_lp_tautomer_probability>
1

> <r_epik_Ionization_Penalty>
2.23089e-05

> <r_epik_Ionization_Penalty_Charging>
0

> <r_epik_Ionization_Penalty_Neutral>
2.23089e-05

> <r_epik_State_Penalty>
-0

> <r_epik_Charging_Adjusted_Penalty>
0

> <i_epik_Tot_Q>
0

> <i_epik_Tot_abs_Q>
0

> <r_epik_Metal_State_Penalty>
-0

> <b_epik_Metal_Only>
0

> <s_lp_Force_Field>
OPLS_2005

> <r_lp_Energy>
20.4022

> <b_lp_Chiralities_Consistent>
1

> <s_lp_Variant>
AV-unprocessed.smi:1302-3

> <Gold.Version>
5.8.1

> <Gold.Id.Protein>
6NUR|6NUR_protein|mol2

> <Gold.PLP.Fitness>
39.6701

> <Gold.PLP.PLP>
-39.7382

> <Gold.PLP.part.hbond>
0.0000

> <Gold.PLP.part.metal>
0.0000

> <Gold.PLP.part.buried>
-1.9790

> <Gold.PLP.part.nonpolar>
-36.2573

> <Gold.PLP.part.repulsive>
0.2838

> <Gold.PLP.ligand.clash>
0.0000

> <Gold.PLP.ligand.torsion>
0.2015

> <Gold.PLP.Chemscore.Hbond>
0.0000

> <Gold.PLP.Chemscore.CHOScore>
0.0000

> <Gold.PLP.Chemscore.Metal>
0.0000

> <Gold.PLP.Chemscore.Internal.Correction>
0.3350

> <Gold.Rescore>
     Score         DG    S(hbond)    S(metal)    S(lipo)     H(rot)  DE(clash)    DE(int)     intcor
     15.11     -15.87       0.00        0.00     113.99       1.15       0.48       0.28       ----

> <Gold.Chemscore.Fitness>
15.1051

> <Gold.Chemscore.DG>
-15.8702

> <Gold.Chemscore.ZeroCoef>
-5.4800

> <Gold.Chemscore.Hbond>
0.0000

> <Gold.Chemscore.Metal>
0.0000

> <Gold.Chemscore.Lipo>
113.9855

> <Gold.Chemscore.Internal_Hbond>
0.0000

> <Gold.Chemscore.DEClash>
0.4850

> <Gold.Chemscore.DEInternal>
0.2801

> <Gold.Chemscore.Rot>
1.1508

> <Gold.Chemscore.Internal.Correction>
   9.000000E+99

> <Gold.Chemscore.Hbond.Weighted>
-0.0000

> <Gold.Chemscore.Metal.Weighted>
-0.0000

> <Gold.Chemscore.Lipo.Weighted>
-13.3363

> <Gold.Chemscore.Internal_Hbond.Weighted>
0.0000

> <Gold.Chemscore.DEClash.Weighted>
0.4850

> <Gold.Chemscore.DEInternal.Weighted>
0.2801

> <Gold.Chemscore.Rot.Weighted>
2.9461

> <Gold.Chemscore.Internal.Correction.Weighted>
   9.000000E+99

> <Gold.Protein.RotatedTorsions>
[ 6907 6896 6895 6894 ] final   33.43 input  -60.11 | X-H torsion
[ 7974 7965 7964 7962 ] final  -99.50 input  175.53 | X-H torsion
[ 8008 7997 7996 7995 ] final   15.33 input   59.86 | X-H torsion
[ 10167 10162 10161 10158 ] final -173.28 input  -65.29 | X-H torsion
[ 10718 10713 10712 10709 ] final  -21.82 input   66.30 | X-H torsion
[ 10763 10752 10751 10750 ] final -100.96 input  -60.55 | X-H torsion
[ 11005 11000 10999 10996 ] final  124.99 input  -57.11 | X-H torsion

> <Gold.Protein.ActiveResidues>
 VAL166  LYS551  ARG553  GLY616  TRP617  ASP618  TYR619  PRO620  LYS621  CYS622 
 ASP623  PHE694  ASN695  SER759  ASP760  ASP761  ALA762  ILE779  LEU786  VAL792 
 PHE793  MET794  SER795  GLU796  ALA797  LYS798  CYS799  TRP800  GLU811  SER814 

> <Gold.Protein.RotatedAtoms>
  152.0885  134.9423  160.0572 H   0  0  0  0  0  0  0  0  0  0  0  0  # atno 6907 bound_to 6896
  152.0684  133.4090  159.4457 H   0  0  0  0  0  0  0  0  0  0  0  0  # atno 6908 bound_to 6896
  150.6836  134.3039  159.4761 H   0  0  0  0  0  0  0  0  0  0  0  0  # atno 6909 bound_to 6896
  145.3067  140.9390  143.2792 H   0  0  0  0  0  0  0  0  0  0  0  0  # atno 7974 bound_to 7965
  154.8611  140.2944  155.5538 H   0  0  0  0  0  0  0  0  0  0  0  0  # atno 8008 bound_to 7997
  156.3019  140.2478  156.3518 H   0  0  0  0  0  0  0  0  0  0  0  0  # atno 8009 bound_to 7997
  154.8917  140.0394  157.1831 H   0  0  0  0  0  0  0  0  0  0  0  0  # atno 8010 bound_to 7997
  139.5697  144.1671  152.1365 H   0  0  0  0  0  0  0  0  0  0  0  0  # atno 10167 bound_to 10162
  156.5129  130.4614  149.6638 H   0  0  0  0  0  0  0  0  0  0  0  0  # atno 10718 bound_to 10713
  154.7620  135.4915  153.9483 H   0  0  0  0  0  0  0  0  0  0  0  0  # atno 10763 bound_to 10752
  153.1263  135.6743  153.9260 H   0  0  0  0  0  0  0  0  0  0  0  0  # atno 10764 bound_to 10752
  153.8977  135.3113  155.3427 H   0  0  0  0  0  0  0  0  0  0  0  0  # atno 10765 bound_to 10752
  139.9385  134.9637  156.8491 H   0  0  0  0  0  0  0  0  0  0  0  0  # atno 11005 bound_to 11000
  144.9049  139.4602  143.6615 LP  0  0  0  0  0  0  0  0  0  0  0  0  # atno 17320 bound_to 7965
  146.3132  139.7824  142.9003 LP  0  0  0  0  0  0  0  0  0  0  0  0  # atno 17321 bound_to 7965
  140.1201  144.5380  150.6868 LP  0  0  0  0  0  0  0  0  0  0  0  0  # atno 17342 bound_to 10162
  140.6981  143.2417  151.4943 LP  0  0  0  0  0  0  0  0  0  0  0  0  # atno 17343 bound_to 10162
  156.3223  130.7287  151.2201 LP  0  0  0  0  0  0  0  0  0  0  0  0  # atno 17370 bound_to 10713
  157.7448  131.0452  150.4832 LP  0  0  0  0  0  0  0  0  0  0  0  0  # atno 17371 bound_to 10713
  140.6014  134.0169  155.7538 LP  0  0  0  0  0  0  0  0  0  0  0  0  # atno 17394 bound_to 11000
  141.1009  133.9769  157.3080 LP  0  0  0  0  0  0  0  0  0  0  0  0  # atno 17395 bound_to 11000

$$$$
