AV-unprocessed.smi:2235|AV-procd|sdf|9044|dock1
  -GOLD-   2272012253D 1   1.00000     0.00000
 Structure written by MMmdl.
 36 37  0  0  0  0  0  0  0  0  1 V2000
  151.2088  142.9087  156.8879 O   0  0  0  0  0  0  0  0  0  0  0  0
  151.4730  141.8269  157.4125 C   0  0  0  0  0  0  0  0  0  0  0  0
  150.9500  140.5295  156.7952 C   0  0  0  0  0  0  0  0  0  0  0  0
  149.9672  140.8004  155.7615 N   0  0  0  0  0  0  0  0  0  0  0  0
  148.9512  141.7330  155.7684 C   0  0  0  0  0  0  0  0  0  0  0  0
  148.2827  141.6223  154.5819 C   0  0  0  0  0  0  0  0  0  0  0  0
  147.0977  142.4078  154.0921 C   0  0  0  0  0  0  0  0  0  0  0  0
  145.8553  142.1557  154.9569 C   0  0  0  0  0  0  0  0  0  0  0  0
  145.3924  140.8370  154.7601 O   0  0  0  0  0  0  0  0  0  0  0  0
  148.9775  140.5783  153.9075 C   0  0  0  0  0  0  0  0  0  0  0  0
  149.9833  140.0887  154.6140 N   0  0  0  0  0  0  0  0  0  0  0  0
  152.2103  141.7047  158.5271 N   0  0  0  0  0  0  0  0  0  0  0  0
  152.8012  142.8153  159.2682 C   0  0  0  0  0  0  0  0  0  0  0  0
  153.4699  142.3086  160.5585 C   0  0  0  0  0  0  0  0  0  0  0  0
  152.5597  142.7528  161.7035 C   0  0  0  0  0  0  0  0  0  0  0  0
  151.9540  144.0623  161.2090 C   0  0  0  0  0  0  0  0  0  0  0  0
  151.7340  143.8385  159.7116 C   0  0  0  0  0  0  0  0  0  0  0  0
  151.7762  139.9527  156.3762 H   0  0  0  0  0  0  0  0  0  0  0  0
  150.4862  139.9111  157.5649 H   0  0  0  0  0  0  0  0  0  0  0  0
  148.7906  142.3920  156.6091 H   0  0  0  0  0  0  0  0  0  0  0  0
  147.3244  143.4747  154.0893 H   0  0  0  0  0  0  0  0  0  0  0  0
  146.8722  142.1501  153.0564 H   0  0  0  0  0  0  0  0  0  0  0  0
  146.0856  142.2965  156.0134 H   0  0  0  0  0  0  0  0  0  0  0  0
  145.0577  142.8535  154.6998 H   0  0  0  0  0  0  0  0  0  0  0  0
  144.7714  140.8395  154.0476 H   0  0  0  0  0  0  0  0  0  0  0  0
  148.7806  140.1639  152.9298 H   0  0  0  0  0  0  0  0  0  0  0  0
  152.3786  140.7750  158.8841 H   0  0  0  0  0  0  0  0  0  0  0  0
  153.5569  143.3014  158.6482 H   0  0  0  0  0  0  0  0  0  0  0  0
  153.6435  141.2317  160.5645 H   0  0  0  0  0  0  0  0  0  0  0  0
  154.4429  142.7892  160.6702 H   0  0  0  0  0  0  0  0  0  0  0  0
  151.7698  142.0155  161.8536 H   0  0  0  0  0  0  0  0  0  0  0  0
  153.0954  142.8660  162.6465 H   0  0  0  0  0  0  0  0  0  0  0  0
  151.0349  144.3253  161.7331 H   0  0  0  0  0  0  0  0  0  0  0  0
  152.6670  144.8744  161.3581 H   0  0  0  0  0  0  0  0  0  0  0  0
  151.8007  144.7697  159.1483 H   0  0  0  0  0  0  0  0  0  0  0  0
  150.7296  143.4413  159.5558 H   0  0  0  0  0  0  0  0  0  0  0  0
  1  2  2  0  0  0  0
  2  3  1  0  0  0  0
  2 12  1  0  0  0  0
  3  4  1  0  0  0  0
  3 18  1  0  0  0  0
  3 19  1  0  0  0  0
  4 11  1  0  0  0  0
  4  5  1  0  0  0  0
  5  6  2  0  0  0  0
  5 20  1  0  0  0  0
  6  7  1  0  0  0  0
  6 10  1  0  0  0  0
  7  8  1  0  0  0  0
  7 21  1  0  0  0  0
  7 22  1  0  0  0  0
  8  9  1  0  0  0  0
  8 23  1  0  0  0  0
  8 24  1  0  0  0  0
  9 25  1  0  0  0  0
 10 11  2  0  0  0  0
 10 26  1  0  0  0  0
 12 13  1  0  0  0  0
 12 27  1  0  0  0  0
 13 17  1  0  0  0  0
 13 14  1  0  0  0  0
 13 28  1  0  0  0  0
 14 15  1  0  0  0  0
 14 29  1  0  0  0  0
 14 30  1  0  0  0  0
 15 16  1  0  0  0  0
 15 31  1  0  0  0  0
 15 32  1  0  0  0  0
 16 17  1  0  0  0  0
 16 33  1  0  0  0  0
 16 34  1  0  0  0  0
 17 35  1  0  0  0  0
 17 36  1  0  0  0  0
M  END
> <s_m_source_file>
AV-unprocessed.smi

> <i_m_source_file_index>
2235

> <i_lp_mmshare_version>
43012

> <i_f3d_flags>
0

> <s_epik_input>
W0NIMl0xW0NIMl1bQ0gyXVtDSDJdW0NIXTFbTkhdQyg9TylbQ0gyXW4yW2NIXWMoW2NIXW4yKVtDSDJdW0NIMl1bT0hd

> <s_epik_cmdline>
J2VwaWtfcHl0aG9uJywgJy1waCcsICc3LjAnLCAnLXRuJywgJzgnLCAnLW1hJywgJzIwMCcsICctbWV0YWxfYmluZGluZycsICctaW1hZScsICc8aW5maWxlLm1hZT4nLCAnLW9tYWUnLCAnPG91dGZpbGUubWFlPic=

> <r_lp_tautomer_probability>
1

> <r_epik_Ionization_Penalty>
3.35381e-05

> <r_epik_Ionization_Penalty_Charging>
0

> <r_epik_Ionization_Penalty_Neutral>
3.35381e-05

> <r_epik_State_Penalty>
-0

> <r_epik_Charging_Adjusted_Penalty>
0

> <i_epik_Tot_Q>
0

> <i_epik_Tot_abs_Q>
0

> <r_epik_Metal_State_Penalty>
-0

> <b_epik_Metal_Only>
0

> <s_lp_Force_Field>
OPLS_2005

> <r_lp_Energy>
18.0157

> <b_lp_Chiralities_Consistent>
1

> <s_lp_Variant>
AV-unprocessed.smi:2235-1

> <Gold.Version>
5.8.1

> <Gold.Id.Protein>
6NUR|6NUR_protein|mol2

> <Gold.PLP.Fitness>
45.9306

> <Gold.PLP.PLP>
-37.3994

> <Gold.PLP.part.hbond>
-1.9217

> <Gold.PLP.part.metal>
0.0000

> <Gold.PLP.part.buried>
-0.6209

> <Gold.PLP.part.nonpolar>
-34.9730

> <Gold.PLP.part.repulsive>
0.2985

> <Gold.PLP.ligand.clash>
0.0000

> <Gold.PLP.ligand.torsion>
0.4269

> <Gold.PLP.Chemscore.Hbond>
1.7800

> <Gold.PLP.Chemscore.CHOScore>
1.3242

> <Gold.PLP.Chemscore.Metal>
0.0000

> <Gold.Chemscore.Hbonds>
donor molecule, donor type, donor heavy atom, donor atom, acceptor molecule, acceptor atom, score
      L1  H     9    25       P1 10175  1.00
      P1  H  7989  7998       L1    11  0.71
      L1  C     5    20       P1  8028  0.51
      L1  C    10    26       P1  7957  0.81

> <Gold.PLP.Chemscore.Internal.Correction>
0.0724

> <Gold.Rescore>
     Score         DG    S(hbond)    S(metal)    S(lipo)     H(rot)  DE(clash)    DE(int)     intcor
     11.77     -13.75       1.00        0.00      96.00       2.46       0.28       1.70       ----

> <Gold.Chemscore.Fitness>
11.7714

> <Gold.Chemscore.DG>
-13.7529

> <Gold.Chemscore.ZeroCoef>
-5.4800

> <Gold.Chemscore.Hbond>
0.9983

> <Gold.Chemscore.Metal>
0.0000

> <Gold.Chemscore.Lipo>
95.9951

> <Gold.Chemscore.Internal_Hbond>
0.0000

> <Gold.Chemscore.DEClash>
0.2833

> <Gold.Chemscore.DEInternal>
1.6982

> <Gold.Chemscore.Rot>
2.4581

> <Gold.Chemscore.Internal.Correction>
   9.000000E+99

> <Gold.Chemscore.Hbonds>
donor molecule, donor type, donor heavy atom, donor atom, acceptor molecule, acceptor atom, score
      L1  H     9    25       P1 10175  0.95
      P1  H  7989  7998       L1    11  0.08

> <Gold.Chemscore.Hbond.Weighted>
-3.3343

> <Gold.Chemscore.Metal.Weighted>
-0.0000

> <Gold.Chemscore.Lipo.Weighted>
-11.2314

> <Gold.Chemscore.Internal_Hbond.Weighted>
0.0000

> <Gold.Chemscore.DEClash.Weighted>
0.2833

> <Gold.Chemscore.DEInternal.Weighted>
1.6982

> <Gold.Chemscore.Rot.Weighted>
6.2928

> <Gold.Chemscore.Internal.Correction.Weighted>
   9.000000E+99

> <Gold.Protein.RotatedTorsions>
[ 6907 6896 6895 6894 ] final   37.74 input  -60.11 | X-H torsion
[ 7974 7965 7964 7962 ] final   75.10 input  175.53 | X-H torsion
[ 8008 7997 7996 7995 ] final   40.50 input   59.86 | X-H torsion
[ 10167 10162 10161 10158 ] final   -1.30 input  -65.29 | X-H torsion
[ 10718 10713 10712 10709 ] final  -35.34 input   66.30 | X-H torsion
[ 10763 10752 10751 10750 ] final  163.09 input  -60.55 | X-H torsion
[ 11005 11000 10999 10996 ] final -116.08 input  -57.11 | X-H torsion

> <Gold.Protein.ActiveResidues>
 VAL166  LYS551  ARG553  GLY616  TRP617  ASP618  TYR619  PRO620  LYS621  CYS622 
 ASP623  PHE694  ASN695  SER759  ASP760  ASP761  ALA762  ILE779  LEU786  VAL792 
 PHE793  MET794  SER795  GLU796  ALA797  LYS798  CYS799  TRP800  GLU811  SER814 

> <Gold.Protein.RotatedAtoms>
  152.1472  134.9016  160.0550 H   0  0  0  0  0  0  0  0  0  0  0  0  # atno 6907 bound_to 6896
  152.0062  133.3839  159.4209 H   0  0  0  0  0  0  0  0  0  0  0  0  # atno 6908 bound_to 6896
  150.6871  134.3702  159.5032 H   0  0  0  0  0  0  0  0  0  0  0  0  # atno 6909 bound_to 6896
  145.7198  139.2644  143.1602 H   0  0  0  0  0  0  0  0  0  0  0  0  # atno 7974 bound_to 7965
  155.2542  140.3354  155.4279 H   0  0  0  0  0  0  0  0  0  0  0  0  # atno 8008 bound_to 7997
  156.2202  140.1806  156.7537 H   0  0  0  0  0  0  0  0  0  0  0  0  # atno 8009 bound_to 7997
  154.5814  140.0653  156.9095 H   0  0  0  0  0  0  0  0  0  0  0  0  # atno 8010 bound_to 7997
  140.6804  143.6792  150.8120 H   0  0  0  0  0  0  0  0  0  0  0  0  # atno 10167 bound_to 10162
  156.3398  130.4292  149.7797 H   0  0  0  0  0  0  0  0  0  0  0  0  # atno 10718 bound_to 10713
  154.2883  135.2761  155.2666 H   0  0  0  0  0  0  0  0  0  0  0  0  # atno 10763 bound_to 10752
  154.5156  135.5770  153.6643 H   0  0  0  0  0  0  0  0  0  0  0  0  # atno 10764 bound_to 10752
  152.9918  135.6192  154.3046 H   0  0  0  0  0  0  0  0  0  0  0  0  # atno 10765 bound_to 10752
  141.0446  133.9783  157.2939 H   0  0  0  0  0  0  0  0  0  0  0  0  # atno 11005 bound_to 11000
  146.0636  140.7944  142.9722 LP  0  0  0  0  0  0  0  0  0  0  0  0  # atno 17320 bound_to 7965
  144.6919  140.3234  143.7228 LP  0  0  0  0  0  0  0  0  0  0  0  0  # atno 17321 bound_to 7965
  140.0492  143.5267  152.2682 LP  0  0  0  0  0  0  0  0  0  0  0  0  # atno 17342 bound_to 10162
  139.6123  144.7611  151.2924 LP  0  0  0  0  0  0  0  0  0  0  0  0  # atno 17343 bound_to 10162
  156.5038  130.8141  151.3143 LP  0  0  0  0  0  0  0  0  0  0  0  0  # atno 17370 bound_to 10713
  157.7445  130.9936  150.2677 LP  0  0  0  0  0  0  0  0  0  0  0  0  # atno 17371 bound_to 10713
  139.9302  135.0200  156.8372 LP  0  0  0  0  0  0  0  0  0  0  0  0  # atno 17394 bound_to 11000
  140.6171  134.0028  155.7602 LP  0  0  0  0  0  0  0  0  0  0  0  0  # atno 17395 bound_to 11000

$$$$
