AV-unprocessed.smi:678|AV-procd|sdf|3318|dock4
  -GOLD-   22720 0283D 1   1.00000     0.00000
 Structure written by MMmdl.
 50 51  0  0  0  0  0  0  0  0  1 V2000
  151.9285  144.1221  158.8194 C   0  0  0  0  0  0  0  0  0  0  0  0
  152.4270  143.4596  160.0920 C   0  0  0  0  0  0  0  0  0  0  0  0
  152.1799  143.9927  161.3083 C   0  0  0  0  0  0  0  0  0  0  0  0
  152.6565  143.3562  162.5122 C   0  0  0  0  0  0  0  0  0  0  0  0
  153.3587  142.2205  162.3929 C   0  0  0  0  0  0  0  0  0  0  0  0
  153.6338  141.6468  161.1377 N   0  0  0  0  0  0  0  0  0  0  0  0
  154.4119  140.3963  161.1311 C   0  0  0  0  0  0  0  0  0  0  0  0
  153.5814  139.1696  160.7286 C   0  0  0  0  0  0  0  0  0  0  0  0
  153.4634  138.2108  161.4929 O   0  0  0  0  0  0  0  0  0  0  0  0
  153.0332  139.2065  159.5044 N   0  0  0  0  0  0  0  0  0  0  0  0
  152.2186  138.1515  158.9085 C   0  0  0  0  0  0  0  0  0  0  0  0
  151.6732  138.5496  157.5252 C   0  0  1  0  0  0  0  0  0  0  0  0
  150.6711  139.7242  157.5704 C   0  0  0  0  0  0  0  0  0  0  0  0
  150.2414  140.1351  156.2359 N   0  0  0  0  0  0  0  0  0  0  0  0
  149.3082  141.2628  156.2625 C   0  0  0  0  0  0  0  0  0  0  0  0
  148.4477  141.4590  154.9952 C   0  0  0  0  0  0  0  0  0  0  0  0
  149.2953  141.8997  153.7906 C   0  0  0  0  0  0  0  0  0  0  0  0
  147.3259  142.4728  155.2629 C   0  0  0  0  0  0  0  0  0  0  0  0
  151.4185  140.4536  155.4368 C   0  0  0  0  0  0  0  0  0  0  0  0
  152.4128  139.2826  155.3879 C   0  0  0  0  0  0  0  0  0  0  0  0
  152.7844  138.9209  156.7135 O   0  0  0  0  0  0  0  0  0  0  0  0
  153.1956  142.2068  159.9675 C   0  0  0  0  0  0  0  0  0  0  0  0
  153.4363  141.6871  158.8761 O   0  0  0  0  0  0  0  0  0  0  0  0
  151.3940  145.0478  159.0351 H   0  0  0  0  0  0  0  0  0  0  0  0
  151.2494  143.4573  158.2847 H   0  0  0  0  0  0  0  0  0  0  0  0
  152.7641  144.3622  158.1612 H   0  0  0  0  0  0  0  0  0  0  0  0
  151.6154  144.9101  161.3897 H   0  0  0  0  0  0  0  0  0  0  0  0
  152.4500  143.7813  163.4833 H   0  0  0  0  0  0  0  0  0  0  0  0
  153.7446  141.6773  163.2434 H   0  0  0  0  0  0  0  0  0  0  0  0
  155.2707  140.4914  160.4638 H   0  0  0  0  0  0  0  0  0  0  0  0
  154.8386  140.2063  162.1168 H   0  0  0  0  0  0  0  0  0  0  0  0
  153.1894  140.0304  158.9419 H   0  0  0  0  0  0  0  0  0  0  0  0
  152.7721  137.2131  158.8441 H   0  0  0  0  0  0  0  0  0  0  0  0
  151.3841  137.9635  159.5845 H   0  0  0  0  0  0  0  0  0  0  0  0
  151.1914  137.6799  157.0743 H   0  0  0  0  0  0  0  0  0  0  0  0
  149.8068  139.4204  158.1585 H   0  0  0  0  0  0  0  0  0  0  0  0
  151.1233  140.5700  158.0908 H   0  0  0  0  0  0  0  0  0  0  0  0
  148.6520  141.1630  157.1286 H   0  0  0  0  0  0  0  0  0  0  0  0
  149.8722  142.1825  156.4255 H   0  0  0  0  0  0  0  0  0  0  0  0
  147.9608  140.5180  154.7405 H   0  0  0  0  0  0  0  0  0  0  0  0
  149.8093  142.8403  153.9905 H   0  0  0  0  0  0  0  0  0  0  0  0
  148.6756  142.0404  152.9046 H   0  0  0  0  0  0  0  0  0  0  0  0
  150.0506  141.1534  153.5428 H   0  0  0  0  0  0  0  0  0  0  0  0
  147.7297  143.4527  155.5197 H   0  0  0  0  0  0  0  0  0  0  0  0
  146.6914  142.1478  156.0879 H   0  0  0  0  0  0  0  0  0  0  0  0
  146.6874  142.5949  154.3873 H   0  0  0  0  0  0  0  0  0  0  0  0
  151.1178  140.7112  154.4206 H   0  0  0  0  0  0  0  0  0  0  0  0
  151.9175  141.3332  155.8469 H   0  0  0  0  0  0  0  0  0  0  0  0
  151.9758  138.4238  154.8763 H   0  0  0  0  0  0  0  0  0  0  0  0
  153.3063  139.5670  154.8322 H   0  0  0  0  0  0  0  0  0  0  0  0
  1  2  1  0  0  0  0
  1 24  1  0  0  0  0
  1 25  1  0  0  0  0
  1 26  1  0  0  0  0
  2 22  1  0  0  0  0
  2  3  2  0  0  0  0
  3  4  1  0  0  0  0
  3 27  1  0  0  0  0
  4  5  2  0  0  0  0
  4 28  1  0  0  0  0
  5  6  1  0  0  0  0
  5 29  1  0  0  0  0
  6  7  1  0  0  0  0
  6 22  1  0  0  0  0
  7  8  1  0  0  0  0
  7 30  1  0  0  0  0
  7 31  1  0  0  0  0
  8  9  2  0  0  0  0
  8 10  1  0  0  0  0
 10 11  1  0  0  0  0
 10 32  1  0  0  0  0
 11 12  1  0  0  0  0
 11 33  1  0  0  0  0
 11 34  1  0  0  0  0
 12 21  1  0  0  0  0
 12 13  1  0  0  0  0
 12 35  1  0  0  0  0
 13 14  1  0  0  0  0
 13 36  1  0  0  0  0
 13 37  1  0  0  0  0
 14 15  1  0  0  0  0
 14 19  1  0  0  0  0
 15 16  1  0  0  0  0
 15 38  1  0  0  0  0
 15 39  1  0  0  0  0
 16 17  1  0  0  0  0
 16 18  1  0  0  0  0
 16 40  1  0  0  0  0
 17 41  1  0  0  0  0
 17 42  1  0  0  0  0
 17 43  1  0  0  0  0
 18 44  1  0  0  0  0
 18 45  1  0  0  0  0
 18 46  1  0  0  0  0
 19 20  1  0  0  0  0
 19 47  1  0  0  0  0
 19 48  1  0  0  0  0
 20 21  1  0  0  0  0
 20 49  1  0  0  0  0
 20 50  1  0  0  0  0
 22 23  2  0  0  0  0
M  END
> <s_m_source_file>
AV-unprocessed.smi

> <i_m_source_file_index>
678

> <i_lp_mmshare_version>
43012

> <i_f3d_flags>
0

> <s_epik_input>
W0NIM11jMVtjSF1bY0hdW2NIXW4oYzE9TylbQ0gyXUMoPU8pW05IXVtDSDJdW0NAQEhdMltDSDJdTihbQ0gyXVtDSDJdTzIpW0NIMl1bQ0hdKFtDSDNdKVtDSDNd

> <s_epik_cmdline>
J2VwaWtfcHl0aG9uJywgJy1waCcsICc3LjAnLCAnLXRuJywgJzgnLCAnLW1hJywgJzIwMCcsICctbWV0YWxfYmluZGluZycsICctaW1hZScsICc8aW5maWxlLm1hZT4nLCAnLW9tYWUnLCAnPG91dGZpbGUubWFlPic=

> <r_lp_tautomer_probability>
1

> <r_epik_Ionization_Penalty>
1.11669

> <r_epik_Ionization_Penalty_Charging>
7.32459e-07

> <r_epik_Ionization_Penalty_Neutral>
1.11669

> <r_epik_State_Penalty>
1.17516

> <r_epik_Charging_Adjusted_Penalty>
1.17516

> <i_epik_Tot_Q>
0

> <i_epik_Tot_abs_Q>
0

> <r_epik_Metal_State_Penalty>
1.17513

> <b_epik_Metal_Only>
0

> <s_lp_Force_Field>
OPLS_2005

> <r_lp_Energy>
33.1266

> <b_lp_Chiralities_Consistent>
1

> <s_lp_Variant>
AV-unprocessed.smi:678-6

> <Gold.Version>
5.8.1

> <Gold.Id.Protein>
6NUR|6NUR_protein|mol2

> <Gold.PLP.Fitness>
49.8888

> <Gold.PLP.PLP>
-47.4758

> <Gold.PLP.part.hbond>
-1.0000

> <Gold.PLP.part.metal>
0.0000

> <Gold.PLP.part.buried>
-2.0457

> <Gold.PLP.part.nonpolar>
-43.3020

> <Gold.PLP.part.repulsive>
0.0821

> <Gold.PLP.ligand.clash>
0.0000

> <Gold.PLP.ligand.torsion>
0.3325

> <Gold.PLP.Chemscore.Hbond>
1.0000

> <Gold.PLP.Chemscore.CHOScore>
0.0000

> <Gold.PLP.Chemscore.Metal>
0.0000

> <Gold.Chemscore.Hbonds>
donor molecule, donor type, donor heavy atom, donor atom, acceptor molecule, acceptor atom, score
      P1  H  7997  8009       L1    21  0.85

> <Gold.PLP.Chemscore.Internal.Correction>
0.0779

> <Gold.Rescore>
     Score         DG    S(hbond)    S(metal)    S(lipo)     H(rot)  DE(clash)    DE(int)     intcor
     12.61     -16.45       0.69        0.00     113.95       1.82       1.91       1.93       ----

> <Gold.Chemscore.Fitness>
12.6070

> <Gold.Chemscore.DG>
-16.4490

> <Gold.Chemscore.ZeroCoef>
-5.4800

> <Gold.Chemscore.Hbond>
0.6908

> <Gold.Chemscore.Metal>
0.0000

> <Gold.Chemscore.Lipo>
113.9484

> <Gold.Chemscore.Internal_Hbond>
0.0000

> <Gold.Chemscore.DEClash>
1.9118

> <Gold.Chemscore.DEInternal>
1.9302

> <Gold.Chemscore.Rot>
1.8243

> <Gold.Chemscore.Internal.Correction>
   9.000000E+99

> <Gold.Chemscore.Hbonds>
donor molecule, donor type, donor heavy atom, donor atom, acceptor molecule, acceptor atom, score
      P1  H  7997  8009       L1    21  0.13

> <Gold.Chemscore.Hbond.Weighted>
-2.3073

> <Gold.Chemscore.Metal.Weighted>
-0.0000

> <Gold.Chemscore.Lipo.Weighted>
-13.3320

> <Gold.Chemscore.Internal_Hbond.Weighted>
0.0000

> <Gold.Chemscore.DEClash.Weighted>
1.9118

> <Gold.Chemscore.DEInternal.Weighted>
1.9302

> <Gold.Chemscore.Rot.Weighted>
4.6703

> <Gold.Chemscore.Internal.Correction.Weighted>
   9.000000E+99

> <Gold.Protein.RotatedTorsions>
[ 6907 6896 6895 6894 ] final   52.93 input  -60.11 | X-H torsion
[ 7974 7965 7964 7962 ] final   -1.05 input  175.53 | X-H torsion
[ 8008 7997 7996 7995 ] final  166.80 input   59.86 | X-H torsion
[ 10167 10162 10161 10158 ] final -159.88 input  -65.29 | X-H torsion
[ 10718 10713 10712 10709 ] final  104.12 input   66.30 | X-H torsion
[ 10763 10752 10751 10750 ] final  103.32 input  -60.55 | X-H torsion
[ 11005 11000 10999 10996 ] final  -49.45 input  -57.11 | X-H torsion

> <Gold.Protein.ActiveResidues>
 VAL166  LYS551  ARG553  GLY616  TRP617  ASP618  TYR619  PRO620  LYS621  CYS622 
 ASP623  PHE694  ASN695  SER759  ASP760  ASP761  ALA762  ILE779  LEU786  VAL792 
 PHE793  MET794  SER795  GLU796  ALA797  LYS798  CYS799  TRP800  GLU811  SER814 

> <Gold.Protein.RotatedAtoms>
  152.3284  134.7290  160.0295 H   0  0  0  0  0  0  0  0  0  0  0  0  # atno 6907 bound_to 6896
  151.7715  133.3336  159.3454 H   0  0  0  0  0  0  0  0  0  0  0  0  # atno 6908 bound_to 6896
  150.7409  134.5946  159.6049 H   0  0  0  0  0  0  0  0  0  0  0  0  # atno 6909 bound_to 6896
  146.2421  140.1362  142.8336 H   0  0  0  0  0  0  0  0  0  0  0  0  # atno 7974 bound_to 7965
  156.1688  140.1634  156.8484 H   0  0  0  0  0  0  0  0  0  0  0  0  # atno 8008 bound_to 7997
  154.5235  140.0773  156.8250 H   0  0  0  0  0  0  0  0  0  0  0  0  # atno 8009 bound_to 7997
  155.3555  140.3392  155.4242 H   0  0  0  0  0  0  0  0  0  0  0  0  # atno 8010 bound_to 7997
  139.6582  143.9961  152.2208 H   0  0  0  0  0  0  0  0  0  0  0  0  # atno 10167 bound_to 10162
  157.6750  131.0796  150.5658 H   0  0  0  0  0  0  0  0  0  0  0  0  # atno 10718 bound_to 10713
  153.3511  135.3980  155.1647 H   0  0  0  0  0  0  0  0  0  0  0  0  # atno 10763 bound_to 10752
  154.8662  135.3657  154.5220 H   0  0  0  0  0  0  0  0  0  0  0  0  # atno 10764 bound_to 10752
  153.5672  135.7080  153.5580 H   0  0  0  0  0  0  0  0  0  0  0  0  # atno 10765 bound_to 10752
  141.0760  133.6666  156.3587 H   0  0  0  0  0  0  0  0  0  0  0  0  # atno 11005 bound_to 11000
  145.0285  140.8851  143.5124 LP  0  0  0  0  0  0  0  0  0  0  0  0  # atno 17320 bound_to 7965
  145.1422  139.2565  143.5484 LP  0  0  0  0  0  0  0  0  0  0  0  0  # atno 17321 bound_to 7965
  139.9693  144.6505  150.8004 LP  0  0  0  0  0  0  0  0  0  0  0  0  # atno 17342 bound_to 10162
  140.7568  143.3074  151.2929 LP  0  0  0  0  0  0  0  0  0  0  0  0  # atno 17343 bound_to 10162
  156.5960  130.4342  149.5917 LP  0  0  0  0  0  0  0  0  0  0  0  0  # atno 17370 bound_to 10713
  156.2545  130.6926  151.1675 LP  0  0  0  0  0  0  0  0  0  0  0  0  # atno 17371 bound_to 10713
  140.5573  134.5969  157.5424 LP  0  0  0  0  0  0  0  0  0  0  0  0  # atno 17394 bound_to 11000
  139.9572  134.7514  156.0316 LP  0  0  0  0  0  0  0  0  0  0  0  0  # atno 17395 bound_to 11000

$$$$
