AV-unprocessed.smi:1064|AV-procd|sdf|4664|dock6
  -GOLD-   22720 3173D 1   1.00000     0.00000
 Structure written by MMmdl.
 35 36  0  0  0  0  0  0  0  0  1 V2000
  150.6294  140.1994  157.4078 O   0  0  0  0  0  0  0  0  0  0  0  0
  150.2651  141.0352  156.5789 C   0  0  0  0  0  0  0  0  0  0  0  0
  150.1673  142.3416  156.8790 N   0  0  0  0  0  0  0  0  0  0  0  0
  150.4356  142.9235  158.1886 C   0  0  0  0  0  0  0  0  0  0  0  0
  151.9429  143.1185  158.4180 C   0  0  0  0  0  0  0  0  0  0  0  0
  152.2945  143.2014  159.8704 C   0  0  0  0  0  0  0  0  0  0  0  0
  151.9211  144.2042  160.6594 N   0  0  0  0  0  0  0  0  0  0  0  0
  152.4814  143.9096  161.8970 C   0  0  0  0  0  0  0  0  0  0  0  0
  153.1854  142.7333  161.8098 C   0  0  0  0  0  0  0  0  0  0  0  0
  153.0538  142.2830  160.5009 N   0  0  0  0  0  0  0  0  0  0  0  0
  153.6509  141.0819  159.9389 C   0  0  0  0  0  0  0  0  0  0  0  0
  154.3027  140.4115  160.8883 F   0  0  0  0  0  0  0  0  0  0  0  0
  152.7144  140.2995  159.4015 F   0  0  0  0  0  0  0  0  0  0  0  0
  149.9632  140.7231  155.2930 N   0  0  0  0  0  0  0  0  0  0  0  0
  149.0763  141.4936  154.4057 C   0  0  0  0  0  0  0  0  0  0  0  0
  147.6622  140.8920  154.4627 C   0  0  0  0  0  0  0  0  0  0  0  0
  147.6586  139.1777  153.8510 S   0  0  0  0  0  0  0  0  0  0  0  0
  149.0405  138.5002  154.8233 C   0  0  0  0  0  0  0  0  0  0  0  0
  150.2804  139.4059  154.7285 C   0  0  0  0  0  0  0  0  0  0  0  0
  149.8802  142.9755  156.1474 H   0  0  0  0  0  0  0  0  0  0  0  0
  149.9043  143.8710  158.2903 H   0  0  0  0  0  0  0  0  0  0  0  0
  150.0270  142.2572  158.9489 H   0  0  0  0  0  0  0  0  0  0  0  0
  152.4913  142.2840  157.9788 H   0  0  0  0  0  0  0  0  0  0  0  0
  152.2972  144.0113  157.9042 H   0  0  0  0  0  0  0  0  0  0  0  0
  152.3420  144.5636  162.7451 H   0  0  0  0  0  0  0  0  0  0  0  0
  153.7558  142.1960  162.5530 H   0  0  0  0  0  0  0  0  0  0  0  0
  154.3545  141.3369  159.1469 H   0  0  0  0  0  0  0  0  0  0  0  0
  149.0388  142.5545  154.6531 H   0  0  0  0  0  0  0  0  0  0  0  0
  149.4536  141.4583  153.3828 H   0  0  0  0  0  0  0  0  0  0  0  0
  147.2819  140.9080  155.4847 H   0  0  0  0  0  0  0  0  0  0  0  0
  146.9733  141.4798  153.8557 H   0  0  0  0  0  0  0  0  0  0  0  0
  148.7261  138.3922  155.8621 H   0  0  0  0  0  0  0  0  0  0  0  0
  149.2709  137.5009  154.4539 H   0  0  0  0  0  0  0  0  0  0  0  0
  150.5939  139.5075  153.6886 H   0  0  0  0  0  0  0  0  0  0  0  0
  151.1235  138.9389  155.2395 H   0  0  0  0  0  0  0  0  0  0  0  0
  1  2  2  0  0  0  0
  2  3  1  0  0  0  0
  2 14  1  0  0  0  0
  3  4  1  0  0  0  0
  3 20  1  0  0  0  0
  4  5  1  0  0  0  0
  4 21  1  0  0  0  0
  4 22  1  0  0  0  0
  5  6  1  0  0  0  0
  5 23  1  0  0  0  0
  5 24  1  0  0  0  0
  6 10  1  0  0  0  0
  6  7  2  0  0  0  0
  7  8  1  0  0  0  0
  8  9  2  0  0  0  0
  8 25  1  0  0  0  0
  9 10  1  0  0  0  0
  9 26  1  0  0  0  0
 10 11  1  0  0  0  0
 11 12  1  0  0  0  0
 11 13  1  0  0  0  0
 11 27  1  0  0  0  0
 14 19  1  0  0  0  0
 14 15  1  0  0  0  0
 15 16  1  0  0  0  0
 15 28  1  0  0  0  0
 15 29  1  0  0  0  0
 16 17  1  0  0  0  0
 16 30  1  0  0  0  0
 16 31  1  0  0  0  0
 17 18  1  0  0  0  0
 18 19  1  0  0  0  0
 18 32  1  0  0  0  0
 18 33  1  0  0  0  0
 19 34  1  0  0  0  0
 19 35  1  0  0  0  0
M  END
> <s_m_source_file>
AV-unprocessed.smi

> <i_m_source_file_index>
1064

> <i_lp_mmshare_version>
43012

> <i_f3d_flags>
0

> <s_epik_input>
W0NIMl0xW0NIMl1TW0NIMl1bQ0gyXU4xQyg9TylbTkhdW0NIMl1bQ0gyXWMybltjSF1bY0hdbjJbQ0hdKEYpRg==

> <s_epik_cmdline>
J2VwaWtfcHl0aG9uJywgJy1waCcsICc3LjAnLCAnLXRuJywgJzgnLCAnLW1hJywgJzIwMCcsICctbWV0YWxfYmluZGluZycsICctaW1hZScsICc8aW5maWxlLm1hZT4nLCAnLW9tYWUnLCAnPG91dGZpbGUubWFlPic=

> <r_lp_tautomer_probability>
1

> <r_epik_Ionization_Penalty>
0.100551

> <r_epik_Ionization_Penalty_Charging>
0.100507

> <r_epik_Ionization_Penalty_Neutral>
4.37624e-05

> <r_epik_State_Penalty>
0.0905262

> <r_epik_Charging_Adjusted_Penalty>
0.191033

> <i_epik_Tot_Q>
0

> <i_epik_Tot_abs_Q>
0

> <r_epik_Metal_State_Penalty>
0.077291

> <b_epik_Metal_Only>
0

> <s_lp_Force_Field>
OPLS_2005

> <r_lp_Energy>
25.4045

> <b_lp_Chiralities_Consistent>
1

> <s_lp_Variant>
AV-unprocessed.smi:1064-1

> <Gold.Version>
5.8.1

> <Gold.Id.Protein>
6NUR|6NUR_protein|mol2

> <Gold.PLP.Fitness>
46.3894

> <Gold.PLP.PLP>
-44.7775

> <Gold.PLP.part.hbond>
-1.0000

> <Gold.PLP.part.metal>
0.0000

> <Gold.PLP.part.buried>
-2.8362

> <Gold.PLP.part.nonpolar>
-40.2439

> <Gold.PLP.part.repulsive>
0.1376

> <Gold.PLP.ligand.clash>
0.4899

> <Gold.PLP.ligand.torsion>
0.4829

> <Gold.PLP.Chemscore.Hbond>
1.0000

> <Gold.PLP.Chemscore.CHOScore>
0.0000

> <Gold.PLP.Chemscore.Metal>
0.0000

> <Gold.Chemscore.Hbonds>
donor molecule, donor type, donor heavy atom, donor atom, acceptor molecule, acceptor atom, score
      L1  H     3    20       P1  8028  0.86

> <Gold.PLP.Chemscore.Internal.Correction>
0.0675

> <Gold.Rescore>
     Score         DG    S(hbond)    S(metal)    S(lipo)     H(rot)  DE(clash)    DE(int)     intcor
     13.97     -14.48       0.98        0.00      84.18       1.61       0.09       0.42       ----

> <Gold.Chemscore.Fitness>
13.9676

> <Gold.Chemscore.DG>
-14.4823

> <Gold.Chemscore.ZeroCoef>
-5.4800

> <Gold.Chemscore.Hbond>
0.9806

> <Gold.Chemscore.Metal>
0.0000

> <Gold.Chemscore.Lipo>
84.1759

> <Gold.Chemscore.Internal_Hbond>
0.0000

> <Gold.Chemscore.DEClash>
0.0945

> <Gold.Chemscore.DEInternal>
0.4201

> <Gold.Chemscore.Rot>
1.6100

> <Gold.Chemscore.Internal.Correction>
   9.000000E+99

> <Gold.Chemscore.Hbonds>
donor molecule, donor type, donor heavy atom, donor atom, acceptor molecule, acceptor atom, score
      L1  H     3    20       P1  8028  0.79

> <Gold.Chemscore.Hbond.Weighted>
-3.2753

> <Gold.Chemscore.Metal.Weighted>
-0.0000

> <Gold.Chemscore.Lipo.Weighted>
-9.8486

> <Gold.Chemscore.Internal_Hbond.Weighted>
0.0000

> <Gold.Chemscore.DEClash.Weighted>
0.0945

> <Gold.Chemscore.DEInternal.Weighted>
0.4201

> <Gold.Chemscore.Rot.Weighted>
4.1216

> <Gold.Chemscore.Internal.Correction.Weighted>
   9.000000E+99

> <Gold.Protein.RotatedTorsions>
[ 6907 6896 6895 6894 ] final  -13.66 input  -60.11 | X-H torsion
[ 7974 7965 7964 7962 ] final   87.18 input  175.53 | X-H torsion
[ 8008 7997 7996 7995 ] final   67.79 input   59.86 | X-H torsion
[ 10167 10162 10161 10158 ] final -154.47 input  -65.29 | X-H torsion
[ 10718 10713 10712 10709 ] final -178.13 input   66.30 | X-H torsion
[ 10763 10752 10751 10750 ] final   60.78 input  -60.55 | X-H torsion
[ 11005 11000 10999 10996 ] final -134.50 input  -57.11 | X-H torsion

> <Gold.Protein.ActiveResidues>
 VAL166  LYS551  ARG553  GLY616  TRP617  ASP618  TYR619  PRO620  LYS621  CYS622 
 ASP623  PHE694  ASN695  SER759  ASP760  ASP761  ALA762  ILE779  LEU786  VAL792 
 PHE793  MET794  SER795  GLU796  ALA797  LYS798  CYS799  TRP800  GLU811  SER814 

> <Gold.Protein.RotatedAtoms>
  151.3514  135.0885  159.9403 H   0  0  0  0  0  0  0  0  0  0  0  0  # atno 6907 bound_to 6896
  152.5186  133.9349  159.7608 H   0  0  0  0  0  0  0  0  0  0  0  0  # atno 6908 bound_to 6896
  150.9725  133.6275  159.2765 H   0  0  0  0  0  0  0  0  0  0  0  0  # atno 6909 bound_to 6896
  145.5623  139.2305  143.2452 H   0  0  0  0  0  0  0  0  0  0  0  0  # atno 7974 bound_to 7965
  155.6983  140.3495  155.4922 H   0  0  0  0  0  0  0  0  0  0  0  0  # atno 8008 bound_to 7997
  155.9463  140.1111  157.1036 H   0  0  0  0  0  0  0  0  0  0  0  0  # atno 8009 bound_to 7997
  154.4112  140.1203  156.4979 H   0  0  0  0  0  0  0  0  0  0  0  0  # atno 8010 bound_to 7997
  139.7011  143.9262  152.2429 H   0  0  0  0  0  0  0  0  0  0  0  0  # atno 10167 bound_to 10162
  156.8397  130.9682  151.3101 H   0  0  0  0  0  0  0  0  0  0  0  0  # atno 10718 bound_to 10713
  152.9931  135.5524  154.5928 H   0  0  0  0  0  0  0  0  0  0  0  0  # atno 10763 bound_to 10752
  154.5286  135.2812  155.1202 H   0  0  0  0  0  0  0  0  0  0  0  0  # atno 10764 bound_to 10752
  154.2527  135.6396  153.5298 H   0  0  0  0  0  0  0  0  0  0  0  0  # atno 10765 bound_to 10752
  140.8984  134.1721  157.4478 H   0  0  0  0  0  0  0  0  0  0  0  0  # atno 11005 bound_to 11000
  146.1842  140.6449  142.9175 LP  0  0  0  0  0  0  0  0  0  0  0  0  # atno 17320 bound_to 7965
  144.7477  140.5110  143.6824 LP  0  0  0  0  0  0  0  0  0  0  0  0  # atno 17321 bound_to 7965
  139.9104  144.6859  150.8568 LP  0  0  0  0  0  0  0  0  0  0  0  0  # atno 17342 bound_to 10162
  140.7710  143.3447  151.2135 LP  0  0  0  0  0  0  0  0  0  0  0  0  # atno 17343 bound_to 10162
  157.6362  130.8769  149.9364 LP  0  0  0  0  0  0  0  0  0  0  0  0  # atno 17370 bound_to 10713
  156.0888  130.3665  150.0436 LP  0  0  0  0  0  0  0  0  0  0  0  0  # atno 17371 bound_to 10713
  139.8739  134.9888  156.5428 LP  0  0  0  0  0  0  0  0  0  0  0  0  # atno 17394 bound_to 11000
  140.8260  133.8316  155.8939 LP  0  0  0  0  0  0  0  0  0  0  0  0  # atno 17395 bound_to 11000

$$$$
