AV-unprocessed.smi:1824|AV-procd|sdf|7402|dock1
  -GOLD-   22720 9 73D 1   1.00000     0.00000
 Structure written by MMmdl.
 45 47  0  0  0  0  0  0  0  0  2 V2000
  153.7709  138.8923  154.3002 C   0  0  0  0  0  0  0  0  0  0  0  0
  152.3645  138.4995  154.7647 C   0  0  1  0  0  0  0  0  0  0  0  0
  151.3548  138.4796  153.5968 C   0  0  0  0  0  0  0  0  0  0  0  0
  150.0267  137.9711  154.0262 N   0  3  2  0  0  0  0  0  0  0  0  0
  149.1845  138.9560  154.7582 C   0  0  0  0  0  0  0  0  0  0  0  0
  149.7634  140.3835  154.6975 C   0  0  1  0  0  0  0  0  0  0  0  0
  149.2062  141.0557  153.5837 O   0  0  0  0  0  0  0  0  0  0  0  0
  149.4598  141.1844  155.9783 C   0  0  0  0  0  0  0  0  0  0  0  0
  150.4371  140.9434  157.0247 N   0  0  0  0  0  0  0  0  0  0  0  0
  151.0567  139.7818  157.3104 C   0  0  0  0  0  0  0  0  0  0  0  0
  151.9179  139.7836  158.3237 N   0  0  0  0  0  0  0  0  0  0  0  0
  151.8534  141.1010  158.7436 C   0  0  0  0  0  0  0  0  0  0  0  0
  152.5317  141.7649  159.7906 C   0  0  0  0  0  0  0  0  0  0  0  0
  152.3039  143.1354  160.0344 C   0  0  0  0  0  0  0  0  0  0  0  0
  152.9642  143.7565  161.0402 F   0  0  0  0  0  0  0  0  0  0  0  0
  151.3941  143.8613  159.2368 C   0  0  0  0  0  0  0  0  0  0  0  0
  151.1814  145.1768  159.4771 F   0  0  0  0  0  0  0  0  0  0  0  0
  150.7045  143.2207  158.1896 C   0  0  0  0  0  0  0  0  0  0  0  0
  150.9364  141.8539  157.9495 C   0  0  0  0  0  0  0  0  0  0  0  0
  150.1692  136.6699  154.7238 C   0  0  0  0  0  0  0  0  0  0  0  0
  151.1934  136.7590  155.8730 C   0  0  1  0  0  0  0  0  0  0  0  0
  151.4196  135.4030  156.5508 C   0  0  0  0  0  0  0  0  0  0  0  0
  152.4387  137.2015  155.3447 O   0  0  0  0  0  0  0  0  0  0  0  0
  153.7740  139.8868  153.8534 H   0  0  0  0  0  0  0  0  0  0  0  0
  154.1527  138.1902  153.5583 H   0  0  0  0  0  0  0  0  0  0  0  0
  154.4688  138.9023  155.1379 H   0  0  0  0  0  0  0  0  0  0  0  0
  152.0482  139.2132  155.5263 H   0  0  0  0  0  0  0  0  0  0  0  0
  151.2709  139.4672  153.1451 H   0  0  0  0  0  0  0  0  0  0  0  0
  151.7258  137.8191  152.8116 H   0  0  0  0  0  0  0  0  0  0  0  0
  148.1821  138.9743  154.3276 H   0  0  0  0  0  0  0  0  0  0  0  0
  149.0585  138.6429  155.7947 H   0  0  0  0  0  0  0  0  0  0  0  0
  150.8441  140.3460  154.5627 H   0  0  0  0  0  0  0  0  0  0  0  0
  149.4737  140.6100  152.7940 H   0  0  0  0  0  0  0  0  0  0  0  0
  149.4302  142.2543  155.7664 H   0  0  0  0  0  0  0  0  0  0  0  0
  148.4761  140.9167  156.3663 H   0  0  0  0  0  0  0  0  0  0  0  0
  150.8607  138.8822  156.7452 H   0  0  0  0  0  0  0  0  0  0  0  0
  153.2299  141.2192  160.4079 H   0  0  0  0  0  0  0  0  0  0  0  0
  150.0077  143.7744  157.5784 H   0  0  0  0  0  0  0  0  0  0  0  0
  149.2016  136.3220  155.0874 H   0  0  0  0  0  0  0  0  0  0  0  0
  150.5034  135.9296  153.9955 H   0  0  0  0  0  0  0  0  0  0  0  0
  150.8488  137.4676  156.6281 H   0  0  0  0  0  0  0  0  0  0  0  0
  150.4941  135.0205  156.9821 H   0  0  0  0  0  0  0  0  0  0  0  0
  152.1506  135.4864  157.3554 H   0  0  0  0  0  0  0  0  0  0  0  0
  151.7899  134.6622  155.8414 H   0  0  0  0  0  0  0  0  0  0  0  0
  149.5088  137.7721  153.1815 H   0  0  0  0  0  0  0  0  0  0  0  0
  1  2  1  0  0  0  0
  1 24  1  0  0  0  0
  1 25  1  0  0  0  0
  1 26  1  0  0  0  0
  2 23  1  0  0  0  0
  2  3  1  0  0  0  0
  2 27  1  0  0  0  0
  3  4  1  0  0  0  0
  3 28  1  0  0  0  0
  3 29  1  0  0  0  0
  4  5  1  0  0  0  0
  4 20  1  0  0  0  0
  4 45  1  0  0  0  0
  5  6  1  0  0  0  0
  5 30  1  0  0  0  0
  5 31  1  0  0  0  0
  6  7  1  0  0  0  0
  6  8  1  0  0  0  0
  6 32  1  0  0  0  0
  7 33  1  0  0  0  0
  8  9  1  0  0  0  0
  8 34  1  0  0  0  0
  8 35  1  0  0  0  0
  9 19  1  0  0  0  0
  9 10  1  0  0  0  0
 10 11  2  0  0  0  0
 10 36  1  0  0  0  0
 11 12  1  0  0  0  0
 12 19  2  0  0  0  0
 12 13  1  0  0  0  0
 13 14  2  0  0  0  0
 13 37  1  0  0  0  0
 14 15  1  0  0  0  0
 14 16  1  0  0  0  0
 16 17  1  0  0  0  0
 16 18  2  0  0  0  0
 18 19  1  0  0  0  0
 18 38  1  0  0  0  0
 20 21  1  0  0  0  0
 20 39  1  0  0  0  0
 20 40  1  0  0  0  0
 21 22  1  0  0  0  0
 21 23  1  0  0  0  0
 21 41  1  0  0  0  0
 22 42  1  0  0  0  0
 22 43  1  0  0  0  0
 22 44  1  0  0  0  0
M  CHG  1   4   1
M  END
> <s_m_source_file>
AV-unprocessed.smi

> <i_m_source_file_index>
1824

> <i_lp_mmshare_version>
43012

> <i_f3d_flags>
0

> <s_epik_input>
W0NIM11bQ0BASF0xW0NIMl1OKFtDSDJdW0NASF0oTzEpW0NIM10pW0NIMl1bQ0BIXShbT0hdKVtDSDJdbihbY0hdbjIpYyhjMjMpW2NIXWMoRiljKEYpW2NIXTM=

> <s_epik_cmdline>
J2VwaWtfcHl0aG9uJywgJy1waCcsICc3LjAnLCAnLXRuJywgJzgnLCAnLW1hJywgJzIwMCcsICctbWV0YWxfYmluZGluZycsICctaW1hZScsICc8aW5maWxlLm1hZT4nLCAnLW9tYWUnLCAnPG91dGZpbGUubWFlPic=

> <r_epik_Ionization_Penalty>
0.61967

> <r_epik_Ionization_Penalty_Charging>
0.608065

> <r_epik_Ionization_Penalty_Neutral>
0.0116057

> <r_epik_State_Penalty>
0.664205

> <r_epik_Charging_Adjusted_Penalty>
1.27227

> <i_epik_Tot_Q>
1

> <i_epik_Tot_abs_Q>
1

> <r_epik_Metal_State_Penalty>
0.654947

> <b_epik_Metal_Only>
0

> <s_lp_Force_Field>
OPLS_2005

> <r_lp_Energy>
21.9473

> <b_lp_Chiralities_Consistent>
1

> <s_lp_Variant>
AV-unprocessed.smi:1824-10

> <Gold.Version>
5.8.1

> <Gold.Id.Protein>
6NUR|6NUR_protein|mol2

> <Gold.PLP.Fitness>
50.1830

> <Gold.PLP.PLP>
-43.4099

> <Gold.PLP.part.hbond>
-5.0000

> <Gold.PLP.part.metal>
0.0000

> <Gold.PLP.part.buried>
-4.4252

> <Gold.PLP.part.nonpolar>
-35.0662

> <Gold.PLP.part.repulsive>
0.0704

> <Gold.PLP.ligand.clash>
1.2827

> <Gold.PLP.ligand.torsion>
1.6740

> <Gold.PLP.Chemscore.Hbond>
3.7600

> <Gold.PLP.Chemscore.CHOScore>
0.0000

> <Gold.PLP.Chemscore.Metal>
0.0000

> <Gold.Chemscore.Hbonds>
donor molecule, donor type, donor heavy atom, donor atom, acceptor molecule, acceptor atom, score
      L1  H     4    45       P1  7948  1.57
      L1  H     7    33       P1  7957  1.00
      P1  H 10752 10764       L1    23  0.58

> <Gold.PLP.Chemscore.Internal.Correction>
0.1237

> <Gold.Rescore>
     Score         DG    S(hbond)    S(metal)    S(lipo)     H(rot)  DE(clash)    DE(int)     intcor
     18.72     -21.02       2.71        0.00     106.28       2.33       0.54       1.75       ----

> <Gold.Chemscore.Fitness>
18.7212

> <Gold.Chemscore.DG>
-21.0152

> <Gold.Chemscore.ZeroCoef>
-5.4800

> <Gold.Chemscore.Hbond>
2.7103

> <Gold.Chemscore.Metal>
0.0000

> <Gold.Chemscore.Lipo>
106.2828

> <Gold.Chemscore.Internal_Hbond>
0.0000

> <Gold.Chemscore.DEClash>
0.5395

> <Gold.Chemscore.DEInternal>
1.7546

> <Gold.Chemscore.Rot>
2.3251

> <Gold.Chemscore.Internal.Correction>
   9.000000E+99

> <Gold.Chemscore.Hbonds>
donor molecule, donor type, donor heavy atom, donor atom, acceptor molecule, acceptor atom, score
      L1  H     4    45       P1  7948  0.65
      L1  H     7    33       P1  7957  1.00
      P1  H 10752 10764       L1    23  0.10

> <Gold.Chemscore.Hbond.Weighted>
-9.0524

> <Gold.Chemscore.Metal.Weighted>
-0.0000

> <Gold.Chemscore.Lipo.Weighted>
-12.4351

> <Gold.Chemscore.Internal_Hbond.Weighted>
0.0000

> <Gold.Chemscore.DEClash.Weighted>
0.5395

> <Gold.Chemscore.DEInternal.Weighted>
1.7546

> <Gold.Chemscore.Rot.Weighted>
5.9523

> <Gold.Chemscore.Internal.Correction.Weighted>
   9.000000E+99

> <Gold.Protein.RotatedTorsions>
[ 6907 6896 6895 6894 ] final  106.30 input  -60.11 | X-H torsion
[ 7974 7965 7964 7962 ] final -155.71 input  175.53 | X-H torsion
[ 8008 7997 7996 7995 ] final    9.00 input   59.86 | X-H torsion
[ 10167 10162 10161 10158 ] final  117.13 input  -65.29 | X-H torsion
[ 10718 10713 10712 10709 ] final   55.63 input   66.30 | X-H torsion
[ 10763 10752 10751 10750 ] final  -41.86 input  -60.55 | X-H torsion
[ 11005 11000 10999 10996 ] final   24.63 input  -57.11 | X-H torsion

> <Gold.Protein.ActiveResidues>
 VAL166  LYS551  ARG553  GLY616  TRP617  ASP618  TYR619  PRO620  LYS621  CYS622 
 ASP623  PHE694  ASN695  SER759  ASP760  ASP761  ALA762  ILE779  LEU786  VAL792 
 PHE793  MET794  SER795  GLU796  ALA797  LYS798  CYS799  TRP800  GLU811  SER814 

> <Gold.Protein.RotatedAtoms>
  152.5199  133.9401  159.7622 H   0  0  0  0  0  0  0  0  0  0  0  0  # atno 6907 bound_to 6896
  150.9733  133.6313  159.2741 H   0  0  0  0  0  0  0  0  0  0  0  0  # atno 6908 bound_to 6896
  151.3516  135.0891  159.9458 H   0  0  0  0  0  0  0  0  0  0  0  0  # atno 6909 bound_to 6896
  144.7627  140.4211  143.5965 H   0  0  0  0  0  0  0  0  0  0  0  0  # atno 7974 bound_to 7965
  154.7743  140.2807  155.6113 H   0  0  0  0  0  0  0  0  0  0  0  0  # atno 8008 bound_to 7997
  156.2939  140.2635  156.2481 H   0  0  0  0  0  0  0  0  0  0  0  0  # atno 8009 bound_to 7997
  154.9861  140.0374  157.2289 H   0  0  0  0  0  0  0  0  0  0  0  0  # atno 8010 bound_to 7997
  139.6200  144.7099  151.2656 H   0  0  0  0  0  0  0  0  0  0  0  0  # atno 10167 bound_to 10162
  157.5362  130.8665  149.8756 H   0  0  0  0  0  0  0  0  0  0  0  0  # atno 10718 bound_to 10713
  153.9696  135.6730  153.4747 H   0  0  0  0  0  0  0  0  0  0  0  0  # atno 10763 bound_to 10752
  153.0799  135.4929  154.8478 H   0  0  0  0  0  0  0  0  0  0  0  0  # atno 10764 bound_to 10752
  154.7227  135.3120  154.8982 H   0  0  0  0  0  0  0  0  0  0  0  0  # atno 10765 bound_to 10752
  140.3566  134.2171  155.7675 H   0  0  0  0  0  0  0  0  0  0  0  0  # atno 11005 bound_to 11000
  145.6568  139.1574  143.2831 LP  0  0  0  0  0  0  0  0  0  0  0  0  # atno 17320 bound_to 7965
  146.1705  140.6652  142.9235 LP  0  0  0  0  0  0  0  0  0  0  0  0  # atno 17321 bound_to 7965
  140.7376  143.6674  150.8111 LP  0  0  0  0  0  0  0  0  0  0  0  0  # atno 17342 bound_to 10162
  140.0283  143.5470  152.2771 LP  0  0  0  0  0  0  0  0  0  0  0  0  # atno 17343 bound_to 10162
  156.0460  130.3728  150.1316 LP  0  0  0  0  0  0  0  0  0  0  0  0  # atno 17370 bound_to 10713
  156.9498  130.9771  151.3500 LP  0  0  0  0  0  0  0  0  0  0  0  0  # atno 17371 bound_to 10713
  141.1996  133.8006  157.0526 LP  0  0  0  0  0  0  0  0  0  0  0  0  # atno 17394 bound_to 11000
  140.0660  134.9729  157.1386 LP  0  0  0  0  0  0  0  0  0  0  0  0  # atno 17395 bound_to 11000

$$$$
