AV-unprocessed.smi:1134|AV-procd|sdf|4857|dock4
  -GOLD-   22720 3423D 1   1.00000     0.00000
 Structure written by MMmdl.
 35 36  0  0  0  0  0  0  0  0  3 V2000
  151.6152  136.3599  155.8064 O   0  0  0  0  0  0  0  0  0  0  0  0
  151.0271  136.6605  154.7684 C   0  0  0  0  0  0  0  0  0  0  0  0
  151.4645  137.9225  154.0041 C   0  0  0  0  0  0  0  0  0  0  0  0
  150.9733  139.1941  154.5656 N   0  0  0  0  0  0  0  0  0  0  0  0
  149.8005  139.7292  153.9972 C   0  0  0  0  0  0  0  0  0  0  0  0
  149.2565  140.8830  154.4307 C   0  0  0  0  0  0  0  0  0  0  0  0
  148.0474  141.4130  153.8399 N   0  3  0  0  0  0  0  0  0  0  0  0
  147.2371  140.6294  153.3558 O   0  0  0  0  0  0  0  0  0  0  0  0
  147.8677  142.6272  153.8394 O   0  5  0  0  0  0  0  0  0  0  0  0
  149.9225  141.5760  155.5165 C   0  0  0  0  0  0  0  0  0  0  0  0
  151.0422  141.0675  156.0674 C   0  0  0  0  0  0  0  0  0  0  0  0
  151.6286  139.8078  155.5983 C   0  0  0  0  0  0  0  0  0  0  0  0
  152.6424  139.3304  156.1071 O   0  0  0  0  0  0  0  0  0  0  0  0
  150.0186  135.9265  154.2677 N   0  0  0  0  0  0  0  0  0  0  0  0
  149.4942  134.7038  154.8608 C   0  0  0  0  0  0  0  0  0  0  0  0
  148.5462  135.0122  156.0338 C   0  0  0  0  0  0  0  0  0  0  0  0
  148.0733  133.7791  156.6747 N   0  0  0  0  0  0  0  0  0  0  0  0
  147.3025  132.8700  156.0347 C   0  0  0  0  0  0  0  0  0  0  0  0
  146.9227  132.9677  154.8680 O   0  0  0  0  0  0  0  0  0  0  0  0
  146.9055  131.6607  156.8902 C   0  0  0  0  0  0  0  0  0  0  0  0
  147.6489  131.9668  158.4949 S   0  0  0  0  0  0  0  0  0  0  0  0
  148.3394  133.4736  157.9559 C   0  0  0  0  0  0  0  0  0  0  0  0
  149.0045  134.1737  158.7189 O   0  0  0  0  0  0  0  0  0  0  0  0
  152.5543  137.9270  153.9443 H   0  0  0  0  0  0  0  0  0  0  0  0
  151.1313  137.8209  152.9702 H   0  0  0  0  0  0  0  0  0  0  0  0
  149.3791  139.1344  153.1994 H   0  0  0  0  0  0  0  0  0  0  0  0
  149.5279  142.5069  155.8966 H   0  0  0  0  0  0  0  0  0  0  0  0
  151.5215  141.6001  156.8757 H   0  0  0  0  0  0  0  0  0  0  0  0
  149.5846  136.2381  153.4110 H   0  0  0  0  0  0  0  0  0  0  0  0
  148.9891  134.1032  154.1023 H   0  0  0  0  0  0  0  0  0  0  0  0
  150.3417  134.1133  155.2100 H   0  0  0  0  0  0  0  0  0  0  0  0
  149.0543  135.6441  156.7646 H   0  0  0  0  0  0  0  0  0  0  0  0
  147.6980  135.6042  155.6856 H   0  0  0  0  0  0  0  0  0  0  0  0
  145.8214  131.5876  156.9771 H   0  0  0  0  0  0  0  0  0  0  0  0
  147.2926  130.7380  156.4577 H   0  0  0  0  0  0  0  0  0  0  0  0
  1  2  2  0  0  0  0
  2  3  1  0  0  0  0
  2 14  1  0  0  0  0
  3  4  1  0  0  0  0
  3 24  1  0  0  0  0
  3 25  1  0  0  0  0
  4 12  1  0  0  0  0
  4  5  1  0  0  0  0
  5  6  2  0  0  0  0
  5 26  1  0  0  0  0
  6  7  1  0  0  0  0
  6 10  1  0  0  0  0
  7  8  2  0  0  0  0
  7  9  1  0  0  0  0
 10 11  2  0  0  0  0
 10 27  1  0  0  0  0
 11 12  1  0  0  0  0
 11 28  1  0  0  0  0
 12 13  2  0  0  0  0
 14 15  1  0  0  0  0
 14 29  1  0  0  0  0
 15 16  1  0  0  0  0
 15 30  1  0  0  0  0
 15 31  1  0  0  0  0
 16 17  1  0  0  0  0
 16 32  1  0  0  0  0
 16 33  1  0  0  0  0
 17 22  1  0  0  0  0
 17 18  1  0  0  0  0
 18 19  2  0  0  0  0
 18 20  1  0  0  0  0
 20 21  1  0  0  0  0
 20 34  1  0  0  0  0
 20 35  1  0  0  0  0
 21 22  1  0  0  0  0
 22 23  2  0  0  0  0
M  CHG  1   7   1
M  CHG  1   9  -1
M  END
> <s_m_source_file>
AV-unprocessed.smi

> <i_m_source_file_index>
1134

> <i_lp_mmshare_version>
43012

> <i_f3d_flags>
0

> <s_epik_input>
Tz1jMVtjSF1bY0hdYyhbTitdKD1PKVtPLV0pW2NIXW4xW0NIMl1DKD1PKVtOSF1bQ0gyXVtDSDJdTjJDKD1PKVtDSDJdU0MyPU8=

> <s_epik_cmdline>
J2VwaWtfcHl0aG9uJywgJy1waCcsICc3LjAnLCAnLXRuJywgJzgnLCAnLW1hJywgJzIwMCcsICctbWV0YWxfYmluZGluZycsICctaW1hZScsICc8aW5maWxlLm1hZT4nLCAnLW9tYWUnLCAnPG91dGZpbGUubWFlPic=

> <r_lp_tautomer_probability>
1

> <r_epik_Ionization_Penalty>
5.49556e-08

> <r_epik_Ionization_Penalty_Charging>
6.94392e-11

> <r_epik_Ionization_Penalty_Neutral>
5.48861e-08

> <r_epik_State_Penalty>
-0

> <r_epik_Charging_Adjusted_Penalty>
6.94392e-11

> <i_epik_Tot_Q>
0

> <i_epik_Tot_abs_Q>
2

> <r_epik_Metal_State_Penalty>
-0

> <b_epik_Metal_Only>
0

> <s_lp_Force_Field>
OPLS_2005

> <r_lp_Energy>
19.8089

> <b_lp_Chiralities_Consistent>
1

> <s_lp_Variant>
AV-unprocessed.smi:1134-1

> <Gold.Version>
5.8.1

> <Gold.Id.Protein>
6NUR|6NUR_protein|mol2

> <Gold.PLP.Fitness>
45.7407

> <Gold.PLP.PLP>
-30.4291

> <Gold.PLP.part.hbond>
-6.6568

> <Gold.PLP.part.metal>
0.0000

> <Gold.PLP.part.buried>
2.9207

> <Gold.PLP.part.nonpolar>
-27.5988

> <Gold.PLP.part.repulsive>
4.3556

> <Gold.PLP.ligand.clash>
0.0000

> <Gold.PLP.ligand.torsion>
1.0909

> <Gold.PLP.Chemscore.Hbond>
4.9833

> <Gold.PLP.Chemscore.CHOScore>
0.8254

> <Gold.PLP.Chemscore.Metal>
0.0000

> <Gold.Chemscore.Hbonds>
donor molecule, donor type, donor heavy atom, donor atom, acceptor molecule, acceptor atom, score
      L1  H    14    29       P1  7948  1.00
      P1  H  6896  6908       L1    23  1.00
      P1  H  7997  8008       L1    13  1.00
      P1  H  8022  8030       L1     9  0.34
      P1  H 10752 10763       L1     1  0.93
      L1  C     5    26       P1  7957  0.69

> <Gold.PLP.Chemscore.Internal.Correction>
0.0675

> <Gold.Rescore>
     Score         DG    S(hbond)    S(metal)    S(lipo)     H(rot)  DE(clash)    DE(int)     intcor
     13.82     -15.30       3.49        0.00      44.29       2.74       0.03       1.45       ----

> <Gold.Chemscore.Fitness>
13.8207

> <Gold.Chemscore.DG>
-15.3031

> <Gold.Chemscore.ZeroCoef>
-5.4800

> <Gold.Chemscore.Hbond>
3.4880

> <Gold.Chemscore.Metal>
0.0000

> <Gold.Chemscore.Lipo>
44.2878

> <Gold.Chemscore.Internal_Hbond>
0.0000

> <Gold.Chemscore.DEClash>
0.0321

> <Gold.Chemscore.DEInternal>
1.4502

> <Gold.Chemscore.Rot>
2.7377

> <Gold.Chemscore.Internal.Correction>
   9.000000E+99

> <Gold.Chemscore.Hbonds>
donor molecule, donor type, donor heavy atom, donor atom, acceptor molecule, acceptor atom, score
      L1  H    14    29       P1  7948  0.39
      P1  H  6896  6908       L1    23  1.00
      P1  H  7997  8008       L1    13  1.00
      P1  H  8022  8030       L1     9  0.34
      P1  H 10752 10763       L1     1  0.39

> <Gold.Chemscore.Hbond.Weighted>
-11.6499

> <Gold.Chemscore.Metal.Weighted>
-0.0000

> <Gold.Chemscore.Lipo.Weighted>
-5.1817

> <Gold.Chemscore.Internal_Hbond.Weighted>
0.0000

> <Gold.Chemscore.DEClash.Weighted>
0.0321

> <Gold.Chemscore.DEInternal.Weighted>
1.4502

> <Gold.Chemscore.Rot.Weighted>
7.0085

> <Gold.Chemscore.Internal.Correction.Weighted>
   9.000000E+99

> <Gold.Protein.RotatedTorsions>
[ 6907 6896 6895 6894 ] final  133.15 input  -60.11 | X-H torsion
[ 7974 7965 7964 7962 ] final -149.88 input  175.53 | X-H torsion
[ 8008 7997 7996 7995 ] final  -46.64 input   59.86 | X-H torsion
[ 10167 10162 10161 10158 ] final   -6.90 input  -65.29 | X-H torsion
[ 10718 10713 10712 10709 ] final  -62.05 input   66.30 | X-H torsion
[ 10763 10752 10751 10750 ] final  100.67 input  -60.55 | X-H torsion
[ 11005 11000 10999 10996 ] final  -25.46 input  -57.11 | X-H torsion

> <Gold.Protein.ActiveResidues>
 VAL166  LYS551  ARG553  GLY616  TRP617  ASP618  TYR619  PRO620  LYS621  CYS622 
 ASP623  PHE694  ASN695  SER759  ASP760  ASP761  ALA762  ILE779  LEU786  VAL792 
 PHE793  MET794  SER795  GLU796  ALA797  LYS798  CYS799  TRP800  GLU811  SER814 

> <Gold.Protein.RotatedAtoms>
  152.3249  133.5894  159.5769 H   0  0  0  0  0  0  0  0  0  0  0  0  # atno 6907 bound_to 6896
  150.7391  133.9955  159.3630 H   0  0  0  0  0  0  0  0  0  0  0  0  # atno 6908 bound_to 6896
  151.7836  135.0755  160.0428 H   0  0  0  0  0  0  0  0  0  0  0  0  # atno 6909 bound_to 6896
  144.7941  140.5006  143.5752 H   0  0  0  0  0  0  0  0  0  0  0  0  # atno 7974 bound_to 7965
  154.4009  140.1366  156.4044 H   0  0  0  0  0  0  0  0  0  0  0  0  # atno 8008 bound_to 7997
  155.7794  140.3482  155.5269 H   0  0  0  0  0  0  0  0  0  0  0  0  # atno 8009 bound_to 7997
  155.8689  140.0968  157.1554 H   0  0  0  0  0  0  0  0  0  0  0  0  # atno 8010 bound_to 7997
  140.7012  143.6142  150.8675 H   0  0  0  0  0  0  0  0  0  0  0  0  # atno 10167 bound_to 10162
  156.0881  130.4205  150.1080 H   0  0  0  0  0  0  0  0  0  0  0  0  # atno 10718 bound_to 10713
  153.3169  135.4071  155.1384 H   0  0  0  0  0  0  0  0  0  0  0  0  # atno 10763 bound_to 10752
  154.8590  135.3578  154.5648 H   0  0  0  0  0  0  0  0  0  0  0  0  # atno 10764 bound_to 10752
  153.6079  135.7069  153.5417 H   0  0  0  0  0  0  0  0  0  0  0  0  # atno 10765 bound_to 10752
  140.8939  133.7569  156.0456 H   0  0  0  0  0  0  0  0  0  0  0  0  # atno 11005 bound_to 11000
  145.5719  139.1484  143.3284 LP  0  0  0  0  0  0  0  0  0  0  0  0  # atno 17320 bound_to 7965
  146.2203  140.5852  142.9020 LP  0  0  0  0  0  0  0  0  0  0  0  0  # atno 17321 bound_to 7965
  139.9864  143.5895  152.2925 LP  0  0  0  0  0  0  0  0  0  0  0  0  # atno 17342 bound_to 10162
  139.6534  144.7661  151.2103 LP  0  0  0  0  0  0  0  0  0  0  0  0  # atno 17343 bound_to 10162
  156.9096  130.9647  151.3565 LP  0  0  0  0  0  0  0  0  0  0  0  0  # atno 17370 bound_to 10713
  157.6022  130.8521  149.8819 LP  0  0  0  0  0  0  0  0  0  0  0  0  # atno 17371 bound_to 10713
  140.8313  134.3175  157.5348 LP  0  0  0  0  0  0  0  0  0  0  0  0  # atno 17394 bound_to 11000
  139.8733  134.9365  156.3661 LP  0  0  0  0  0  0  0  0  0  0  0  0  # atno 17395 bound_to 11000

$$$$
