AV-unprocessed.smi:2310|AV-procd|sdf|9259|dock9
  -GOLD-   2272012483D 1   1.00000     0.00000
 Structure written by MMmdl.
 45 46  0  0  0  0  0  0  0  0  3 V2000
  148.4091  137.5220  155.0169 C   0  0  0  0  0  0  0  0  0  0  0  0
  149.0008  136.2228  155.5987 C   0  0  0  0  0  0  0  0  0  0  0  0
  150.2287  135.6637  154.8448 C   0  0  2  0  0  0  0  0  0  0  0  0
  150.7113  134.3486  155.4828 C   0  0  0  0  0  0  0  0  0  0  0  0
  149.9137  133.1666  155.1095 C   0  0  0  0  0  0  0  0  0  0  0  0
  149.2908  132.2354  154.8143 N   0  0  0  0  0  0  0  0  0  0  0  0
  151.3213  136.6434  154.8903 N   0  5  0  0  0  0  0  0  0  0  0  0
  151.5020  137.5686  155.8706 C   0  0  0  0  0  0  0  0  0  0  0  0
  151.9607  137.3890  157.0046 O   0  0  0  0  0  0  0  0  0  0  0  0
  151.0939  138.7920  155.4922 N   0  0  0  0  0  0  0  0  0  0  0  0
  151.1423  140.0087  156.2251 C   0  0  0  0  0  0  0  0  0  0  0  0
  151.9665  140.1814  157.3642 C   0  0  0  0  0  0  0  0  0  0  0  0
  151.9872  141.4247  158.0268 C   0  0  0  0  0  0  0  0  0  0  0  0
  151.1925  142.4856  157.5358 C   0  0  0  0  0  0  0  0  0  0  0  0
  151.1464  143.7603  158.1176 N   0  0  0  0  0  0  0  0  0  0  0  0
  152.4146  144.4698  158.1237 C   0  0  0  0  0  0  0  0  0  0  0  0
  152.2507  145.5975  159.1455 C   0  0  0  0  0  0  0  0  0  0  0  0
  151.1000  145.1442  160.0519 C   0  0  0  0  0  0  0  0  0  0  0  0
  150.6625  143.7895  159.4880 C   0  0  0  0  0  0  0  0  0  0  0  0
  150.4342  142.2850  156.4365 N   0  3  0  0  0  0  0  0  0  0  0  0
  150.3818  141.1110  155.7683 C   0  0  0  0  0  0  0  0  0  0  0  0
  149.4844  141.0390  154.5467 C   0  0  0  0  0  0  0  0  0  0  0  0
  147.5264  137.8201  155.5829 H   0  0  0  0  0  0  0  0  0  0  0  0
  148.0991  137.4027  153.9773 H   0  0  0  0  0  0  0  0  0  0  0  0
  149.1134  138.3542  155.0653 H   0  0  0  0  0  0  0  0  0  0  0  0
  149.2503  136.3770  156.6495 H   0  0  0  0  0  0  0  0  0  0  0  0
  148.2145  135.4672  155.5905 H   0  0  0  0  0  0  0  0  0  0  0  0
  149.9168  135.4323  153.8250 H   0  0  0  0  0  0  0  0  0  0  0  0
  151.7512  134.1508  155.2204 H   0  0  0  0  0  0  0  0  0  0  0  0
  150.6686  134.4241  156.5695 H   0  0  0  0  0  0  0  0  0  0  0  0
  150.6233  138.8350  154.6002 H   0  0  0  0  0  0  0  0  0  0  0  0
  152.5938  139.3825  157.7298 H   0  0  0  0  0  0  0  0  0  0  0  0
  152.6139  141.5566  158.8964 H   0  0  0  0  0  0  0  0  0  0  0  0
  153.2260  143.8061  158.4252 H   0  0  0  0  0  0  0  0  0  0  0  0
  152.6501  144.8591  157.1326 H   0  0  0  0  0  0  0  0  0  0  0  0
  153.1726  145.7729  159.7007 H   0  0  0  0  0  0  0  0  0  0  0  0
  151.9833  146.5282  158.6436 H   0  0  0  0  0  0  0  0  0  0  0  0
  151.4022  145.0635  161.0966 H   0  0  0  0  0  0  0  0  0  0  0  0
  150.2807  145.8621  159.9982 H   0  0  0  0  0  0  0  0  0  0  0  0
  149.5786  143.6745  159.5217 H   0  0  0  0  0  0  0  0  0  0  0  0
  151.1039  142.9805  160.0713 H   0  0  0  0  0  0  0  0  0  0  0  0
  150.0716  140.8020  153.6588 H   0  0  0  0  0  0  0  0  0  0  0  0
  148.9715  141.9855  154.3723 H   0  0  0  0  0  0  0  0  0  0  0  0
  148.7290  140.2634  154.6773 H   0  0  0  0  0  0  0  0  0  0  0  0
  149.8706  143.0614  156.0903 H   0  0  0  0  0  0  0  0  0  0  0  0
  1  2  1  0  0  0  0
  1 23  1  0  0  0  0
  1 24  1  0  0  0  0
  1 25  1  0  0  0  0
  2  3  1  0  0  0  0
  2 26  1  0  0  0  0
  2 27  1  0  0  0  0
  3  4  1  0  0  0  0
  3  7  1  0  0  0  0
  3 28  1  0  0  0  0
  4  5  1  0  0  0  0
  4 29  1  0  0  0  0
  4 30  1  0  0  0  0
  5  6  3  0  0  0  0
  7  8  1  0  0  0  0
  8  9  2  0  0  0  0
  8 10  1  0  0  0  0
 10 11  1  0  0  0  0
 10 31  1  0  0  0  0
 11 21  1  0  0  0  0
 11 12  2  0  0  0  0
 12 13  1  0  0  0  0
 12 32  1  0  0  0  0
 13 14  2  0  0  0  0
 13 33  1  0  0  0  0
 14 15  1  0  0  0  0
 14 20  1  0  0  0  0
 15 19  1  0  0  0  0
 15 16  1  0  0  0  0
 16 17  1  0  0  0  0
 16 34  1  0  0  0  0
 16 35  1  0  0  0  0
 17 18  1  0  0  0  0
 17 36  1  0  0  0  0
 17 37  1  0  0  0  0
 18 19  1  0  0  0  0
 18 38  1  0  0  0  0
 18 39  1  0  0  0  0
 19 40  1  0  0  0  0
 19 41  1  0  0  0  0
 20 21  2  0  0  0  0
 20 45  1  0  0  0  0
 21 22  1  0  0  0  0
 22 42  1  0  0  0  0
 22 43  1  0  0  0  0
 22 44  1  0  0  0  0
M  CHG  1   7  -1
M  CHG  1  20   1
M  END
> <s_m_source_file>
AV-unprocessed.smi

> <i_m_source_file_index>
2310

> <i_lp_mmshare_version>
43012

> <i_f3d_flags>
0

> <s_epik_input>
TiNDW0NIMl1bQ0BASF0oW0NIMl1bQ0gzXSlbTkhdQyg9TylbTkhdYzFbY0hdW2NIXWMobmMxW0NIM10pTjJbQ0gyXVtDSDJdW0NIMl1bQ0gyXTI=

> <s_epik_cmdline>
J2VwaWtfcHl0aG9uJywgJy1waCcsICc3LjAnLCAnLXRuJywgJzgnLCAnLW1hJywgJzIwMCcsICctbWV0YWxfYmluZGluZycsICctaW1hZScsICc8aW5maWxlLm1hZT4nLCAnLW9tYWUnLCAnPG91dGZpbGUubWFlPic=

> <r_lp_tautomer_probability>
0.999994

> <r_epik_Ionization_Penalty>
7.34515

> <r_epik_Ionization_Penalty_Charging>
7.34514

> <r_epik_Ionization_Penalty_Neutral>
2.56118e-06

> <r_epik_State_Penalty>
6.99243

> <r_epik_Charging_Adjusted_Penalty>
14.3376

> <i_epik_Tot_Q>
0

> <i_epik_Tot_abs_Q>
2

> <r_epik_Metal_State_Penalty>
3.10684

> <b_epik_Metal_Only>
1

> <s_lp_Force_Field>
OPLS_2005

> <r_lp_Energy>
38.8935

> <b_lp_Chiralities_Consistent>
1

> <s_lp_Variant>
AV-unprocessed.smi:2310-5

> <Gold.Version>
5.8.1

> <Gold.Id.Protein>
6NUR|6NUR_protein|mol2

> <Gold.PLP.Fitness>
48.8577

> <Gold.PLP.PLP>
-39.4422

> <Gold.PLP.part.hbond>
-2.0000

> <Gold.PLP.part.metal>
0.0000

> <Gold.PLP.part.buried>
-5.5856

> <Gold.PLP.part.nonpolar>
-31.7403

> <Gold.PLP.part.repulsive>
0.4589

> <Gold.PLP.ligand.clash>
0.0000

> <Gold.PLP.ligand.torsion>
1.3189

> <Gold.PLP.Chemscore.Hbond>
4.0000

> <Gold.PLP.Chemscore.CHOScore>
0.0000

> <Gold.PLP.Chemscore.Metal>
0.0000

> <Gold.Chemscore.Hbonds>
donor molecule, donor type, donor heavy atom, donor atom, acceptor molecule, acceptor atom, score
      L1  H    20    45       P1  8028  2.00
      P1  H 10752 10763       L1     7  2.00

> <Gold.PLP.Chemscore.Internal.Correction>
0.0533

> <Gold.Rescore>
     Score         DG    S(hbond)    S(metal)    S(lipo)     H(rot)  DE(clash)    DE(int)     intcor
     14.05     -16.77       1.23        0.00      97.47       1.65       0.09       2.63       ----

> <Gold.Chemscore.Fitness>
14.0450

> <Gold.Chemscore.DG>
-16.7735

> <Gold.Chemscore.ZeroCoef>
-5.4800

> <Gold.Chemscore.Hbond>
1.2327

> <Gold.Chemscore.Metal>
0.0000

> <Gold.Chemscore.Lipo>
97.4686

> <Gold.Chemscore.Internal_Hbond>
0.0000

> <Gold.Chemscore.DEClash>
0.0946

> <Gold.Chemscore.DEInternal>
2.6339

> <Gold.Chemscore.Rot>
1.6514

> <Gold.Chemscore.Internal.Correction>
   9.000000E+99

> <Gold.Chemscore.Hbonds>
donor molecule, donor type, donor heavy atom, donor atom, acceptor molecule, acceptor atom, score
      L1  H    20    45       P1  8028  0.98
      P1  H 10752 10763       L1     7  0.44

> <Gold.Chemscore.Hbond.Weighted>
-4.1173

> <Gold.Chemscore.Metal.Weighted>
-0.0000

> <Gold.Chemscore.Lipo.Weighted>
-11.4038

> <Gold.Chemscore.Internal_Hbond.Weighted>
0.0000

> <Gold.Chemscore.DEClash.Weighted>
0.0946

> <Gold.Chemscore.DEInternal.Weighted>
2.6339

> <Gold.Chemscore.Rot.Weighted>
4.2276

> <Gold.Chemscore.Internal.Correction.Weighted>
   9.000000E+99

> <Gold.Protein.RotatedTorsions>
[ 6907 6896 6895 6894 ] final  -58.86 input  -60.11 | X-H torsion
[ 7974 7965 7964 7962 ] final -104.44 input  175.53 | X-H torsion
[ 8008 7997 7996 7995 ] final -100.15 input   59.86 | X-H torsion
[ 10167 10162 10161 10158 ] final  -70.95 input  -65.29 | X-H torsion
[ 10718 10713 10712 10709 ] final  122.17 input   66.30 | X-H torsion
[ 10763 10752 10751 10750 ] final   53.35 input  -60.55 | X-H torsion
[ 11005 11000 10999 10996 ] final   56.49 input  -57.11 | X-H torsion

> <Gold.Protein.ActiveResidues>
 VAL166  LYS551  ARG553  GLY616  TRP617  ASP618  TYR619  PRO620  LYS621  CYS622 
 ASP623  PHE694  ASN695  SER759  ASP760  ASP761  ALA762  ILE779  LEU786  VAL792 
 PHE793  MET794  SER795  GLU796  ALA797  LYS798  CYS799  TRP800  GLU811  SER814 

> <Gold.Protein.RotatedAtoms>
  150.7974  134.7043  159.6567 H   0  0  0  0  0  0  0  0  0  0  0  0  # atno 6907 bound_to 6896
  152.4088  134.6158  160.0047 H   0  0  0  0  0  0  0  0  0  0  0  0  # atno 6908 bound_to 6896
  151.6407  133.3289  159.3165 H   0  0  0  0  0  0  0  0  0  0  0  0  # atno 6909 bound_to 6896
  145.2432  140.9212  143.3138 H   0  0  0  0  0  0  0  0  0  0  0  0  # atno 7974 bound_to 7965
  154.8247  140.0443  157.1435 H   0  0  0  0  0  0  0  0  0  0  0  0  # atno 8008 bound_to 7997
  154.9220  140.3028  155.5191 H   0  0  0  0  0  0  0  0  0  0  0  0  # atno 8009 bound_to 7997
  156.2983  140.2339  156.4271 H   0  0  0  0  0  0  0  0  0  0  0  0  # atno 8010 bound_to 7997
  140.5312  143.2321  151.7259 H   0  0  0  0  0  0  0  0  0  0  0  0  # atno 10167 bound_to 10162
  157.5762  131.1079  150.8274 H   0  0  0  0  0  0  0  0  0  0  0  0  # atno 10718 bound_to 10713
  152.9795  135.5782  154.4726 H   0  0  0  0  0  0  0  0  0  0  0  0  # atno 10763 bound_to 10752
  154.4287  135.2773  155.1929 H   0  0  0  0  0  0  0  0  0  0  0  0  # atno 10764 bound_to 10752
  154.3647  135.6181  153.5762 H   0  0  0  0  0  0  0  0  0  0  0  0  # atno 10765 bound_to 10752
  140.0525  134.5717  155.9247 H   0  0  0  0  0  0  0  0  0  0  0  0  # atno 11005 bound_to 11000
  144.9570  139.4020  143.6374 LP  0  0  0  0  0  0  0  0  0  0  0  0  # atno 17320 bound_to 7965
  146.3323  139.8605  142.8857 LP  0  0  0  0  0  0  0  0  0  0  0  0  # atno 17321 bound_to 7965
  139.4955  144.4111  152.0079 LP  0  0  0  0  0  0  0  0  0  0  0  0  # atno 17342 bound_to 10162
  140.3214  144.3424  150.6009 LP  0  0  0  0  0  0  0  0  0  0  0  0  # atno 17343 bound_to 10162
  156.8732  130.5153  149.5295 LP  0  0  0  0  0  0  0  0  0  0  0  0  # atno 17370 bound_to 10713
  156.0807  130.5818  150.9558 LP  0  0  0  0  0  0  0  0  0  0  0  0  # atno 17371 bound_to 10713
  141.1937  133.6580  156.5559 LP  0  0  0  0  0  0  0  0  0  0  0  0  # atno 17394 bound_to 11000
  140.3895  134.7452  157.4713 LP  0  0  0  0  0  0  0  0  0  0  0  0  # atno 17395 bound_to 11000

$$$$
