AV-unprocessed.smi:264|AV-procd|sdf|2008|dock10
  -GOLD-   2262021203D 1   1.00000     0.00000
 Structure written by MMmdl.
 52 56  0  0  0  0  0  0  0  0  1 V2000
  152.6300  138.7088  155.9689 C   0  0  0  0  0  0  0  0  0  0  0  0
  151.1300  138.8537  155.6652 C   0  0  1  0  0  0  0  0  0  0  0  0
  150.8889  140.0048  154.8690 O   0  0  0  0  0  0  0  0  0  0  0  0
  149.5942  139.8607  154.3145 C   0  0  0  0  0  0  0  0  0  0  0  0
  149.5805  138.4048  153.8645 C   0  0  0  0  0  0  0  0  0  0  0  0
  150.4462  137.6864  154.9046 C   0  0  1  0  0  0  0  0  0  0  0  0
  151.3901  136.8844  154.2137 O   0  0  0  0  0  0  0  0  0  0  0  0
  149.6075  136.7648  155.8245 C   0  0  0  0  0  0  0  0  0  0  0  0
  148.8246  135.7748  155.0993 N   0  0  0  0  0  0  0  0  0  0  0  0
  147.6315  135.9853  154.4453 C   0  0  0  0  0  0  0  0  0  0  0  0
  147.1248  134.9358  153.8588 N   0  0  0  0  0  0  0  0  0  0  0  0
  148.0287  133.9186  154.1409 C   0  0  0  0  0  0  0  0  0  0  0  0
  148.0987  132.5352  153.8115 C   0  0  0  0  0  0  0  0  0  0  0  0
  147.1442  131.9069  153.0793 N   0  0  0  0  0  0  0  0  0  0  0  0
  147.1419  130.4535  153.1879 C   0  0  0  0  0  0  0  0  0  0  0  0
  145.8288  129.8910  152.6266 C   0  0  0  0  0  0  0  0  0  0  0  0
  145.6284  130.3476  151.2894 O   0  0  0  0  0  0  0  0  0  0  0  0
  145.5984  131.7713  151.1479 C   0  0  1  0  0  0  0  0  0  0  0  0
  145.4499  132.0885  149.6631 C   0  0  0  0  0  0  0  0  0  0  0  0
  144.5678  133.3276  149.6570 C   0  0  0  0  0  0  0  0  0  0  0  0
  143.6303  133.0341  150.6756 O   0  0  0  0  0  0  0  0  0  0  0  0
  144.3243  132.4103  151.7498 C   0  0  0  0  0  0  0  0  0  0  0  0
  146.9051  132.3734  151.7163 C   0  0  0  0  0  0  0  0  0  0  0  0
  149.1784  131.8407  154.2609 N   0  0  0  0  0  0  0  0  0  0  0  0
  150.1173  132.4488  154.9915 C   0  0  0  0  0  0  0  0  0  0  0  0
  150.1765  133.7239  155.3790 N   0  0  0  0  0  0  0  0  0  0  0  0
  149.1038  134.4306  154.9214 C   0  0  0  0  0  0  0  0  0  0  0  0
  152.8274  137.8149  156.5608 H   0  0  0  0  0  0  0  0  0  0  0  0
  152.9920  139.5664  156.5360 H   0  0  0  0  0  0  0  0  0  0  0  0
  153.2204  138.6470  155.0545 H   0  0  0  0  0  0  0  0  0  0  0  0
  150.6040  139.0283  156.6041 H   0  0  0  0  0  0  0  0  0  0  0  0
  148.8403  140.0412  155.0825 H   0  0  0  0  0  0  0  0  0  0  0  0
  149.4265  140.5581  153.4935 H   0  0  0  0  0  0  0  0  0  0  0  0
  148.5678  138.0068  153.7908 H   0  0  0  0  0  0  0  0  0  0  0  0
  150.0274  138.3417  152.8707 H   0  0  0  0  0  0  0  0  0  0  0  0
  151.0257  136.6474  153.3749 H   0  0  0  0  0  0  0  0  0  0  0  0
  150.2610  136.2398  156.5227 H   0  0  0  0  0  0  0  0  0  0  0  0
  148.9253  137.3568  156.4362 H   0  0  0  0  0  0  0  0  0  0  0  0
  147.1493  136.9514  154.4090 H   0  0  0  0  0  0  0  0  0  0  0  0
  147.9881  130.0555  152.6261 H   0  0  0  0  0  0  0  0  0  0  0  0
  147.2655  130.1258  154.2193 H   0  0  0  0  0  0  0  0  0  0  0  0
  145.8621  128.8016  152.6226 H   0  0  0  0  0  0  0  0  0  0  0  0
  144.9902  130.1736  153.2631 H   0  0  0  0  0  0  0  0  0  0  0  0
  146.3992  132.2388  149.1480 H   0  0  0  0  0  0  0  0  0  0  0  0
  144.9242  131.2780  149.1557 H   0  0  0  0  0  0  0  0  0  0  0  0
  145.1373  134.2201  149.9214 H   0  0  0  0  0  0  0  0  0  0  0  0
  144.0807  133.4962  148.6964 H   0  0  0  0  0  0  0  0  0  0  0  0
  143.6617  131.6825  152.2175 H   0  0  0  0  0  0  0  0  0  0  0  0
  144.5713  133.1619  152.5004 H   0  0  0  0  0  0  0  0  0  0  0  0
  146.8570  133.4631  151.6912 H   0  0  0  0  0  0  0  0  0  0  0  0
  147.7511  132.0755  151.0947 H   0  0  0  0  0  0  0  0  0  0  0  0
  150.9382  131.8241  155.3112 H   0  0  0  0  0  0  0  0  0  0  0  0
  1  2  1  0  0  0  0
  1 28  1  0  0  0  0
  1 29  1  0  0  0  0
  1 30  1  0  0  0  0
  2  6  1  0  0  0  0
  2  3  1  0  0  0  0
  2 31  1  0  0  0  0
  3  4  1  0  0  0  0
  4  5  1  0  0  0  0
  4 32  1  0  0  0  0
  4 33  1  0  0  0  0
  5  6  1  0  0  0  0
  5 34  1  0  0  0  0
  5 35  1  0  0  0  0
  6  7  1  0  0  0  0
  6  8  1  0  0  0  0
  7 36  1  0  0  0  0
  8  9  1  0  0  0  0
  8 37  1  0  0  0  0
  8 38  1  0  0  0  0
  9 27  1  0  0  0  0
  9 10  1  0  0  0  0
 10 11  2  0  0  0  0
 10 39  1  0  0  0  0
 11 12  1  0  0  0  0
 12 27  2  0  0  0  0
 12 13  1  0  0  0  0
 13 14  1  0  0  0  0
 13 24  2  0  0  0  0
 14 23  1  0  0  0  0
 14 15  1  0  0  0  0
 15 16  1  0  0  0  0
 15 40  1  0  0  0  0
 15 41  1  0  0  0  0
 16 17  1  0  0  0  0
 16 42  1  0  0  0  0
 16 43  1  0  0  0  0
 17 18  1  0  0  0  0
 18 22  1  0  0  0  0
 18 19  1  0  0  0  0
 18 23  1  0  0  0  0
 19 20  1  0  0  0  0
 19 44  1  0  0  0  0
 19 45  1  0  0  0  0
 20 21  1  0  0  0  0
 20 46  1  0  0  0  0
 20 47  1  0  0  0  0
 21 22  1  0  0  0  0
 22 48  1  0  0  0  0
 22 49  1  0  0  0  0
 23 50  1  0  0  0  0
 23 51  1  0  0  0  0
 24 25  1  0  0  0  0
 25 26  2  0  0  0  0
 25 52  1  0  0  0  0
 26 27  1  0  0  0  0
M  END
> <s_m_source_file>
AV-unprocessed.smi

> <i_m_source_file_index>
264

> <i_lp_mmshare_version>
43012

> <i_f3d_flags>
0

> <s_epik_input>
W0NIMl0xW0NIMl1PW0NAQEhdKFtDSDNdKVtDQEBdMShbT0hdKVtDSDJdbihbY0hdbjIpYyhjMjMpbltjSF1uYzNOKFtDSDJdNClbQ0gyXVtDSDJdT1tDQF00NVtDSDJdW0NIMl1PW0NIMl01

> <s_epik_cmdline>
J2VwaWtfcHl0aG9uJywgJy1waCcsICc3LjAnLCAnLXRuJywgJzgnLCAnLW1hJywgJzIwMCcsICctbWV0YWxfYmluZGluZycsICctaW1hZScsICc8aW5maWxlLm1hZT4nLCAnLW9tYWUnLCAnPG91dGZpbGUubWFlPic=

> <r_lp_tautomer_probability>
1

> <r_epik_Ionization_Penalty>
0.00539389

> <r_epik_Ionization_Penalty_Charging>
0

> <r_epik_Ionization_Penalty_Neutral>
0.00539389

> <r_epik_State_Penalty>
0.00375441

> <r_epik_Charging_Adjusted_Penalty>
0.00375441

> <i_epik_Tot_Q>
0

> <i_epik_Tot_abs_Q>
0

> <r_epik_Metal_State_Penalty>
-0

> <b_epik_Metal_Only>
0

> <s_lp_Force_Field>
OPLS_2005

> <r_lp_Energy>
54.8303

> <b_lp_Chiralities_Consistent>
1

> <s_lp_Variant>
AV-unprocessed.smi:264-2

> <Gold.Version>
5.8.1

> <Gold.Id.Protein>
6NUR|6NUR_protein|mol2

> <Gold.PLP.Fitness>
43.4724

> <Gold.PLP.PLP>
-35.2634

> <Gold.PLP.part.hbond>
-3.0000

> <Gold.PLP.part.metal>
0.0000

> <Gold.PLP.part.buried>
0.8963

> <Gold.PLP.part.nonpolar>
-33.9282

> <Gold.PLP.part.repulsive>
1.5406

> <Gold.PLP.ligand.clash>
0.0000

> <Gold.PLP.ligand.torsion>
0.5297

> <Gold.PLP.Chemscore.Hbond>
2.9920

> <Gold.PLP.Chemscore.CHOScore>
0.0000

> <Gold.PLP.Chemscore.Metal>
0.0000

> <Gold.Chemscore.Hbonds>
donor molecule, donor type, donor heavy atom, donor atom, acceptor molecule, acceptor atom, score
      L1  H     7    36       P1  7949  1.00
      P1  H  7989  7998       L1     3  0.90
      P1  H 10752 10765       L1     7  1.00

> <Gold.PLP.Chemscore.Internal.Correction>
0.2924

> <Gold.Rescore>
     Score         DG    S(hbond)    S(metal)    S(lipo)     H(rot)  DE(clash)    DE(int)     intcor
     15.34     -16.61       1.63        0.00      94.63       2.11       0.80       0.47       ----

> <Gold.Chemscore.Fitness>
15.3420

> <Gold.Chemscore.DG>
-16.6052

> <Gold.Chemscore.ZeroCoef>
-5.4800

> <Gold.Chemscore.Hbond>
1.6306

> <Gold.Chemscore.Metal>
0.0000

> <Gold.Chemscore.Lipo>
94.6264

> <Gold.Chemscore.Internal_Hbond>
0.0000

> <Gold.Chemscore.DEClash>
0.7965

> <Gold.Chemscore.DEInternal>
0.4666

> <Gold.Chemscore.Rot>
2.1063

> <Gold.Chemscore.Internal.Correction>
   9.000000E+99

> <Gold.Chemscore.Hbonds>
donor molecule, donor type, donor heavy atom, donor atom, acceptor molecule, acceptor atom, score
      L1  H     7    36       P1  7949  0.28
      P1  H  7989  7998       L1     3  0.18
      P1  H 10752 10765       L1     7  0.34

> <Gold.Chemscore.Hbond.Weighted>
-5.4460

> <Gold.Chemscore.Metal.Weighted>
-0.0000

> <Gold.Chemscore.Lipo.Weighted>
-11.0713

> <Gold.Chemscore.Internal_Hbond.Weighted>
0.0000

> <Gold.Chemscore.DEClash.Weighted>
0.7965

> <Gold.Chemscore.DEInternal.Weighted>
0.4666

> <Gold.Chemscore.Rot.Weighted>
5.3921

> <Gold.Chemscore.Internal.Correction.Weighted>
   9.000000E+99

> <Gold.Protein.RotatedTorsions>
[ 6907 6896 6895 6894 ] final  -89.62 input  -60.11 | X-H torsion
[ 7974 7965 7964 7962 ] final  -45.51 input  175.53 | X-H torsion
[ 8008 7997 7996 7995 ] final  106.54 input   59.86 | X-H torsion
[ 10167 10162 10161 10158 ] final  -12.12 input  -65.29 | X-H torsion
[ 10718 10713 10712 10709 ] final   22.47 input   66.30 | X-H torsion
[ 10763 10752 10751 10750 ] final  165.50 input  -60.55 | X-H torsion
[ 11005 11000 10999 10996 ] final -106.30 input  -57.11 | X-H torsion

> <Gold.Protein.ActiveResidues>
 VAL166  LYS551  ARG553  GLY616  TRP617  ASP618  TYR619  PRO620  LYS621  CYS622 
 ASP623  PHE694  ASN695  SER759  ASP760  ASP761  ALA762  ILE779  LEU786  VAL792 
 PHE793  MET794  SER795  GLU796  ALA797  LYS798  CYS799  TRP800  GLU811  SER814 

> <Gold.Protein.RotatedAtoms>
  150.6875  134.2558  159.4528 H   0  0  0  0  0  0  0  0  0  0  0  0  # atno 6907 bound_to 6896
  152.0492  134.9662  160.0584 H   0  0  0  0  0  0  0  0  0  0  0  0  # atno 6908 bound_to 6896
  152.1133  133.4278  159.4678 H   0  0  0  0  0  0  0  0  0  0  0  0  # atno 6909 bound_to 6896
  145.9813  140.7280  142.9362 H   0  0  0  0  0  0  0  0  0  0  0  0  # atno 7974 bound_to 7965
  156.1751  140.3111  155.9044 H   0  0  0  0  0  0  0  0  0  0  0  0  # atno 8008 bound_to 7997
  155.3505  140.0471  157.3063 H   0  0  0  0  0  0  0  0  0  0  0  0  # atno 8009 bound_to 7997
  154.5282  140.2221  155.8863 H   0  0  0  0  0  0  0  0  0  0  0  0  # atno 8010 bound_to 7997
  140.7154  143.5566  150.9241 H   0  0  0  0  0  0  0  0  0  0  0  0  # atno 10167 bound_to 10162
  157.1527  130.6682  149.6017 H   0  0  0  0  0  0  0  0  0  0  0  0  # atno 10718 bound_to 10713
  154.3250  135.2755  155.2501 H   0  0  0  0  0  0  0  0  0  0  0  0  # atno 10763 bound_to 10752
  154.4838  135.5851  153.6412 H   0  0  0  0  0  0  0  0  0  0  0  0  # atno 10764 bound_to 10752
  152.9872  135.6118  154.3437 H   0  0  0  0  0  0  0  0  0  0  0  0  # atno 10765 bound_to 10752
  141.1011  133.8882  157.1839 H   0  0  0  0  0  0  0  0  0  0  0  0  # atno 11005 bound_to 11000
  144.6862  140.2913  143.7277 LP  0  0  0  0  0  0  0  0  0  0  0  0  # atno 17320 bound_to 7965
  145.7765  139.1876  143.2182 LP  0  0  0  0  0  0  0  0  0  0  0  0  # atno 17321 bound_to 7965
  139.9291  143.6514  152.3080 LP  0  0  0  0  0  0  0  0  0  0  0  0  # atno 17342 bound_to 10162
  139.6958  144.7641  151.1358 LP  0  0  0  0  0  0  0  0  0  0  0  0  # atno 17343 bound_to 10162
  155.9767  130.4739  150.6548 LP  0  0  0  0  0  0  0  0  0  0  0  0  # atno 17370 bound_to 10713
  157.4205  131.0836  151.1135 LP  0  0  0  0  0  0  0  0  0  0  0  0  # atno 17371 bound_to 10713
  139.9863  135.0081  156.9870 LP  0  0  0  0  0  0  0  0  0  0  0  0  # atno 17394 bound_to 11000
  140.5019  134.1088  155.7252 LP  0  0  0  0  0  0  0  0  0  0  0  0  # atno 17395 bound_to 11000

$$$$
