AV-unprocessed.smi:2528|AV-procd|sdf|9955|dock6
  -GOLD-   2272013593D 1   1.00000     0.00000
 Structure written by MMmdl.
 44 46  0  0  0  0  0  0  0  0  2 V2000
  150.3790  140.6756  156.0415 O   0  0  0  0  0  0  0  0  0  0  0  0
  150.0834  141.8600  155.8787 C   0  0  0  0  0  0  0  0  0  0  0  0
  149.2192  142.2799  154.9433 N   0  0  0  0  0  0  0  0  0  0  0  0
  148.5057  141.4098  154.0140 C   0  0  0  0  0  0  0  0  0  0  0  0
  146.9956  141.7065  153.9901 C   0  0  1  0  0  0  0  0  0  0  0  0
  146.2543  141.0164  155.1494 C   0  0  0  0  0  0  0  0  0  0  0  0
  144.8155  141.3668  155.1242 N   0  3  1  0  0  0  0  0  0  0  0  0
  144.0470  140.6856  156.1964 C   0  0  0  0  0  0  0  0  0  0  0  0
  142.5458  140.9938  156.0803 C   0  0  0  0  0  0  0  0  0  0  0  0
  142.2976  142.5076  156.1014 C   0  0  0  0  0  0  0  0  0  0  0  0
  143.1240  143.1914  155.0036 C   0  0  0  0  0  0  0  0  0  0  0  0
  144.6203  142.8424  155.1301 C   0  0  2  0  0  0  0  0  0  0  0  0
  145.4431  143.4870  153.9967 C   0  0  0  0  0  0  0  0  0  0  0  0
  146.8097  143.1126  154.1145 O   0  0  0  0  0  0  0  0  0  0  0  0
  150.5700  142.8902  156.5927 N   0  0  0  0  0  0  0  0  0  0  0  0
  151.4917  142.8524  157.6732 C   0  0  0  0  0  0  0  0  0  0  0  0
  151.5958  141.6041  158.3279 C   0  0  0  0  0  0  0  0  0  0  0  0
  152.4858  141.4613  159.4102 C   0  0  0  0  0  0  0  0  0  0  0  0
  153.2492  142.5720  159.8115 C   0  0  0  0  0  0  0  0  0  0  0  0
  153.0840  143.7789  159.1073 C   0  0  0  0  0  0  0  0  0  0  0  0
  152.2317  143.9181  158.0697 N   0  0  0  0  0  0  0  0  0  0  0  0
  149.0349  143.2700  154.8730 H   0  0  0  0  0  0  0  0  0  0  0  0
  148.9300  141.5224  153.0149 H   0  0  0  0  0  0  0  0  0  0  0  0
  148.6804  140.3746  154.3086 H   0  0  0  0  0  0  0  0  0  0  0  0
  146.5745  141.3647  153.0428 H   0  0  0  0  0  0  0  0  0  0  0  0
  146.3659  139.9343  155.0698 H   0  0  0  0  0  0  0  0  0  0  0  0
  146.6870  141.3148  156.1059 H   0  0  0  0  0  0  0  0  0  0  0  0
  144.2035  139.6083  156.1298 H   0  0  0  0  0  0  0  0  0  0  0  0
  144.4202  141.0012  157.1720 H   0  0  0  0  0  0  0  0  0  0  0  0
  142.1546  140.5696  155.1545 H   0  0  0  0  0  0  0  0  0  0  0  0
  142.0018  140.5148  156.8948 H   0  0  0  0  0  0  0  0  0  0  0  0
  141.2370  142.7180  155.9612 H   0  0  0  0  0  0  0  0  0  0  0  0
  142.5716  142.9133  157.0760 H   0  0  0  0  0  0  0  0  0  0  0  0
  142.7534  142.8818  154.0251 H   0  0  0  0  0  0  0  0  0  0  0  0
  142.9852  144.2718  155.0582 H   0  0  0  0  0  0  0  0  0  0  0  0
  144.9890  143.2279  156.0825 H   0  0  0  0  0  0  0  0  0  0  0  0
  145.0604  143.1968  153.0165 H   0  0  0  0  0  0  0  0  0  0  0  0
  145.3750  144.5737  154.0540 H   0  0  0  0  0  0  0  0  0  0  0  0
  150.2347  143.8086  156.3420 H   0  0  0  0  0  0  0  0  0  0  0  0
  151.0029  140.7600  158.0065 H   0  0  0  0  0  0  0  0  0  0  0  0
  152.5806  140.5154  159.9226 H   0  0  0  0  0  0  0  0  0  0  0  0
  153.9421  142.5014  160.6370 H   0  0  0  0  0  0  0  0  0  0  0  0
  153.6501  144.6559  159.3841 H   0  0  0  0  0  0  0  0  0  0  0  0
  144.4501  141.0288  154.2451 H   0  0  0  0  0  0  0  0  0  0  0  0
  1  2  2  0  0  0  0
  2  3  1  0  0  0  0
  2 15  1  0  0  0  0
  3  4  1  0  0  0  0
  3 22  1  0  0  0  0
  4  5  1  0  0  0  0
  4 23  1  0  0  0  0
  4 24  1  0  0  0  0
  5 14  1  0  0  0  0
  5  6  1  0  0  0  0
  5 25  1  0  0  0  0
  6  7  1  0  0  0  0
  6 26  1  0  0  0  0
  6 27  1  0  0  0  0
  7 12  1  0  0  0  0
  7  8  1  0  0  0  0
  7 44  1  0  0  0  0
  8  9  1  0  0  0  0
  8 28  1  0  0  0  0
  8 29  1  0  0  0  0
  9 10  1  0  0  0  0
  9 30  1  0  0  0  0
  9 31  1  0  0  0  0
 10 11  1  0  0  0  0
 10 32  1  0  0  0  0
 10 33  1  0  0  0  0
 11 12  1  0  0  0  0
 11 34  1  0  0  0  0
 11 35  1  0  0  0  0
 12 13  1  0  0  0  0
 12 36  1  0  0  0  0
 13 14  1  0  0  0  0
 13 37  1  0  0  0  0
 13 38  1  0  0  0  0
 15 16  1  0  0  0  0
 15 39  1  0  0  0  0
 16 21  1  0  0  0  0
 16 17  2  0  0  0  0
 17 18  1  0  0  0  0
 17 40  1  0  0  0  0
 18 19  2  0  0  0  0
 18 41  1  0  0  0  0
 19 20  1  0  0  0  0
 19 42  1  0  0  0  0
 20 21  2  0  0  0  0
 20 43  1  0  0  0  0
M  CHG  1   7   1
M  END
> <s_m_source_file>
AV-unprocessed.smi

> <i_m_source_file_index>
2528

> <i_lp_mmshare_version>
43012

> <i_f3d_flags>
0

> <s_epik_input>
bjFbY0hdW2NIXVtjSF1bY0hdYzFbTkhdQyg9TylbTkhdW0NIMl1bQ0BIXShbQ0gyXTIpT1tDSDJdW0NAQEhdKE4yMylbQ0gyXVtDSDJdW0NIMl1bQ0gyXTM=

> <s_epik_cmdline>
J2VwaWtfcHl0aG9uJywgJy1waCcsICc3LjAnLCAnLXRuJywgJzgnLCAnLW1hJywgJzIwMCcsICctbWV0YWxfYmluZGluZycsICctaW1hZScsICc8aW5maWxlLm1hZT4nLCAnLW9tYWUnLCAnPG91dGZpbGUubWFlPic=

> <r_epik_Ionization_Penalty>
0.0932337

> <r_epik_Ionization_Penalty_Charging>
0.0931942

> <r_epik_Ionization_Penalty_Neutral>
3.9565e-05

> <r_epik_State_Penalty>
0.0834605

> <r_epik_Charging_Adjusted_Penalty>
0.176655

> <i_epik_Tot_Q>
1

> <i_epik_Tot_abs_Q>
1

> <r_epik_Metal_State_Penalty>
0.0834607

> <b_epik_Metal_Only>
0

> <s_lp_Force_Field>
OPLS_2005

> <r_lp_Energy>
24.376

> <b_lp_Chiralities_Consistent>
1

> <s_lp_Variant>
AV-unprocessed.smi:2528-8

> <Gold.Version>
5.8.1

> <Gold.Id.Protein>
6NUR|6NUR_protein|mol2

> <Gold.PLP.Fitness>
46.2076

> <Gold.PLP.PLP>
-35.0218

> <Gold.PLP.part.hbond>
-3.3720

> <Gold.PLP.part.metal>
0.0000

> <Gold.PLP.part.buried>
-5.8449

> <Gold.PLP.part.nonpolar>
-28.2237

> <Gold.PLP.part.repulsive>
1.5287

> <Gold.PLP.ligand.clash>
0.0000

> <Gold.PLP.ligand.torsion>
0.3712

> <Gold.PLP.Chemscore.Hbond>
3.9760

> <Gold.PLP.Chemscore.CHOScore>
0.0000

> <Gold.PLP.Chemscore.Metal>
0.0000

> <Gold.Chemscore.Hbonds>
donor molecule, donor type, donor heavy atom, donor atom, acceptor molecule, acceptor atom, score
      L1  H     3    22       P1  8028  0.98
      L1  H     7    44       P1 10175  2.00
      L1  H    15    39       P1  8028  0.93

> <Gold.PLP.Chemscore.Internal.Correction>
0.0002

> <Gold.Rescore>
     Score         DG    S(hbond)    S(metal)    S(lipo)     H(rot)  DE(clash)    DE(int)     intcor
     18.24     -20.31       2.88        0.00      72.63       1.29       0.23       1.85       ----

> <Gold.Chemscore.Fitness>
18.2388

> <Gold.Chemscore.DG>
-20.3095

> <Gold.Chemscore.ZeroCoef>
-5.4800

> <Gold.Chemscore.Hbond>
2.8822

> <Gold.Chemscore.Metal>
0.0000

> <Gold.Chemscore.Lipo>
72.6301

> <Gold.Chemscore.Internal_Hbond>
0.0000

> <Gold.Chemscore.DEClash>
0.2254

> <Gold.Chemscore.DEInternal>
1.8452

> <Gold.Chemscore.Rot>
1.2870

> <Gold.Chemscore.Internal.Correction>
   9.000000E+99

> <Gold.Chemscore.Hbonds>
donor molecule, donor type, donor heavy atom, donor atom, acceptor molecule, acceptor atom, score
      L1  H     3    22       P1  8028  0.93
      L1  H     7    44       P1 10175  0.86
      L1  H    15    39       P1  8028  0.90
      P1  H  8022  8030       L1    14  0.02

> <Gold.Chemscore.Hbond.Weighted>
-9.6266

> <Gold.Chemscore.Metal.Weighted>
-0.0000

> <Gold.Chemscore.Lipo.Weighted>
-8.4977

> <Gold.Chemscore.Internal_Hbond.Weighted>
0.0000

> <Gold.Chemscore.DEClash.Weighted>
0.2254

> <Gold.Chemscore.DEInternal.Weighted>
1.8452

> <Gold.Chemscore.Rot.Weighted>
3.2948

> <Gold.Chemscore.Internal.Correction.Weighted>
   9.000000E+99

> <Gold.Protein.RotatedTorsions>
[ 6907 6896 6895 6894 ] final  145.15 input  -60.11 | X-H torsion
[ 7974 7965 7964 7962 ] final   50.68 input  175.53 | X-H torsion
[ 8008 7997 7996 7995 ] final   28.81 input   59.86 | X-H torsion
[ 10167 10162 10161 10158 ] final  -68.29 input  -65.29 | X-H torsion
[ 10718 10713 10712 10709 ] final -121.88 input   66.30 | X-H torsion
[ 10763 10752 10751 10750 ] final -120.88 input  -60.55 | X-H torsion
[ 11005 11000 10999 10996 ] final  174.90 input  -57.11 | X-H torsion

> <Gold.Protein.ActiveResidues>
 VAL166  LYS551  ARG553  GLY616  TRP617  ASP618  TYR619  PRO620  LYS621  CYS622 
 ASP623  PHE694  ASN695  SER759  ASP760  ASP761  ALA762  ILE779  LEU786  VAL792 
 PHE793  MET794  SER795  GLU796  ALA797  LYS798  CYS799  TRP800  GLU811  SER814 

> <Gold.Protein.RotatedAtoms>
  152.1846  133.4731  159.4975 H   0  0  0  0  0  0  0  0  0  0  0  0  # atno 6907 bound_to 6896
  150.6940  134.1790  159.4250 H   0  0  0  0  0  0  0  0  0  0  0  0  # atno 6908 bound_to 6896
  151.9702  135.0080  160.0603 H   0  0  0  0  0  0  0  0  0  0  0  0  # atno 6909 bound_to 6896
  145.9988  139.4417  143.0028 H   0  0  0  0  0  0  0  0  0  0  0  0  # atno 7974 bound_to 7965
  155.0645  140.3194  155.4650 H   0  0  0  0  0  0  0  0  0  0  0  0  # atno 8008 bound_to 7997
  156.2805  140.2123  156.5717 H   0  0  0  0  0  0  0  0  0  0  0  0  # atno 8009 bound_to 7997
  154.7105  140.0498  157.0532 H   0  0  0  0  0  0  0  0  0  0  0  0  # atno 8010 bound_to 7997
  140.5518  143.2312  151.6896 H   0  0  0  0  0  0  0  0  0  0  0  0  # atno 10167 bound_to 10162
  156.1373  130.6440  150.9716 H   0  0  0  0  0  0  0  0  0  0  0  0  # atno 10718 bound_to 10713
  154.8655  135.4187  154.2530 H   0  0  0  0  0  0  0  0  0  0  0  0  # atno 10763 bound_to 10752
  153.3473  135.6997  153.6823 H   0  0  0  0  0  0  0  0  0  0  0  0  # atno 10764 bound_to 10752
  153.5777  135.3579  155.2835 H   0  0  0  0  0  0  0  0  0  0  0  0  # atno 10765 bound_to 10752
  140.3564  134.7151  157.4302 H   0  0  0  0  0  0  0  0  0  0  0  0  # atno 11005 bound_to 11000
  145.7519  140.9969  143.1246 LP  0  0  0  0  0  0  0  0  0  0  0  0  # atno 17320 bound_to 7965
  144.6912  139.9224  143.7468 LP  0  0  0  0  0  0  0  0  0  0  0  0  # atno 17321 bound_to 7965
  139.5031  144.3805  152.0381 LP  0  0  0  0  0  0  0  0  0  0  0  0  # atno 17342 bound_to 10162
  140.2923  144.3740  150.6085 LP  0  0  0  0  0  0  0  0  0  0  0  0  # atno 17343 bound_to 10162
  157.6544  131.0892  150.7980 LP  0  0  0  0  0  0  0  0  0  0  0  0  # atno 17370 bound_to 10713
  156.8059  130.4936  149.5363 LP  0  0  0  0  0  0  0  0  0  0  0  0  # atno 17371 bound_to 10713
  140.0662  134.5926  155.8693 LP  0  0  0  0  0  0  0  0  0  0  0  0  # atno 17394 bound_to 11000
  141.1997  133.6608  156.5858 LP  0  0  0  0  0  0  0  0  0  0  0  0  # atno 17395 bound_to 11000

$$$$
