AV-unprocessed.smi:3004|AV-procd|sdf|11440|dock7
  -GOLD-   2272016373D 1   1.00000     0.00000
 Structure written by MMmdl.
 47 48  0  0  0  0  0  0  0  0  2 V2000
  149.7086  133.8093  154.1668 C   0  0  0  0  0  0  0  0  0  0  0  0
  149.9851  135.0422  154.9754 C   0  0  0  0  0  0  0  0  0  0  0  0
  149.2450  135.5609  156.0745 C   0  0  0  0  0  0  0  0  0  0  0  0
  149.9211  136.6928  156.4333 C   0  0  0  0  0  0  0  0  0  0  0  0
  149.6409  137.6788  157.5195 C   0  0  0  0  0  0  0  0  0  0  0  0
  150.9985  136.8063  155.5722 N   0  0  0  0  0  0  0  0  0  0  0  0
  152.0343  137.8279  155.5258 C   0  0  0  0  0  0  0  0  0  0  0  0
  151.4374  139.2265  155.3560 C   0  0  0  0  0  0  0  0  0  0  0  0
  150.7119  139.4734  154.3929 O   0  0  0  0  0  0  0  0  0  0  0  0
  151.7463  140.1332  156.2965 N   0  0  0  0  0  0  0  0  0  0  0  0
  151.2602  141.5066  156.3264 C   0  0  0  0  0  0  0  0  0  0  0  0
  150.6435  141.8548  157.6961 C   0  0  0  0  0  0  0  0  0  0  0  0
  150.8920  143.2608  158.1157 N   0  3  1  0  0  0  0  0  0  0  0  0
  150.0163  143.6669  159.2486 C   0  0  0  0  0  0  0  0  0  0  0  0
  150.1192  145.1751  159.5255 C   0  0  0  0  0  0  0  0  0  0  0  0
  151.5716  145.5899  159.7838 C   0  0  0  0  0  0  0  0  0  0  0  0
  152.4566  145.1439  158.6117 C   0  0  0  0  0  0  0  0  0  0  0  0
  152.3275  143.6326  158.3238 C   0  0  1  0  0  0  0  0  0  0  0  0
  153.0414  142.7737  159.3898 C   0  0  0  0  0  0  0  0  0  0  0  0
  151.0353  135.7908  154.6817 N   0  0  0  0  0  0  0  0  0  0  0  0
  148.8902  133.2311  154.5967 H   0  0  0  0  0  0  0  0  0  0  0  0
  150.5843  133.1615  154.1233 H   0  0  0  0  0  0  0  0  0  0  0  0
  149.4315  134.0660  153.1442 H   0  0  0  0  0  0  0  0  0  0  0  0
  148.3499  135.1626  156.5293 H   0  0  0  0  0  0  0  0  0  0  0  0
  148.7475  137.3992  158.0780 H   0  0  0  0  0  0  0  0  0  0  0  0
  149.4810  138.6756  157.1084 H   0  0  0  0  0  0  0  0  0  0  0  0
  150.4722  137.7298  158.2228 H   0  0  0  0  0  0  0  0  0  0  0  0
  152.6266  137.7911  156.4416 H   0  0  0  0  0  0  0  0  0  0  0  0
  152.7122  137.6053  154.7009 H   0  0  0  0  0  0  0  0  0  0  0  0
  152.3508  139.8420  157.0520 H   0  0  0  0  0  0  0  0  0  0  0  0
  152.1156  142.1457  156.1112 H   0  0  0  0  0  0  0  0  0  0  0  0
  150.5364  141.6655  155.5251 H   0  0  0  0  0  0  0  0  0  0  0  0
  149.5642  141.7113  157.6306 H   0  0  0  0  0  0  0  0  0  0  0  0
  150.9882  141.1604  158.4625 H   0  0  0  0  0  0  0  0  0  0  0  0
  148.9788  143.4256  159.0141 H   0  0  0  0  0  0  0  0  0  0  0  0
  150.2705  143.0969  160.1429 H   0  0  0  0  0  0  0  0  0  0  0  0
  149.7256  145.7312  158.6735 H   0  0  0  0  0  0  0  0  0  0  0  0
  149.4979  145.4407  160.3815 H   0  0  0  0  0  0  0  0  0  0  0  0
  151.6357  146.6708  159.9120 H   0  0  0  0  0  0  0  0  0  0  0  0
  151.9264  145.1462  160.7146 H   0  0  0  0  0  0  0  0  0  0  0  0
  152.1697  145.7033  157.7198 H   0  0  0  0  0  0  0  0  0  0  0  0
  153.4968  145.4059  158.8087 H   0  0  0  0  0  0  0  0  0  0  0  0
  152.8525  143.4699  157.3833 H   0  0  0  0  0  0  0  0  0  0  0  0
  154.0743  143.0997  159.5162 H   0  0  0  0  0  0  0  0  0  0  0  0
  153.0794  141.7226  159.1053 H   0  0  0  0  0  0  0  0  0  0  0  0
  152.5605  142.8383  160.3655 H   0  0  0  0  0  0  0  0  0  0  0  0
  150.5830  143.8241  157.3363 H   0  0  0  0  0  0  0  0  0  0  0  0
  1  2  1  0  0  0  0
  1 21  1  0  0  0  0
  1 22  1  0  0  0  0
  1 23  1  0  0  0  0
  2 20  2  0  0  0  0
  2  3  1  0  0  0  0
  3  4  2  0  0  0  0
  3 24  1  0  0  0  0
  4  5  1  0  0  0  0
  4  6  1  0  0  0  0
  5 25  1  0  0  0  0
  5 26  1  0  0  0  0
  5 27  1  0  0  0  0
  6  7  1  0  0  0  0
  6 20  1  0  0  0  0
  7  8  1  0  0  0  0
  7 28  1  0  0  0  0
  7 29  1  0  0  0  0
  8  9  2  0  0  0  0
  8 10  1  0  0  0  0
 10 11  1  0  0  0  0
 10 30  1  0  0  0  0
 11 12  1  0  0  0  0
 11 31  1  0  0  0  0
 11 32  1  0  0  0  0
 12 13  1  0  0  0  0
 12 33  1  0  0  0  0
 12 34  1  0  0  0  0
 13 18  1  0  0  0  0
 13 14  1  0  0  0  0
 13 47  1  0  0  0  0
 14 15  1  0  0  0  0
 14 35  1  0  0  0  0
 14 36  1  0  0  0  0
 15 16  1  0  0  0  0
 15 37  1  0  0  0  0
 15 38  1  0  0  0  0
 16 17  1  0  0  0  0
 16 39  1  0  0  0  0
 16 40  1  0  0  0  0
 17 18  1  0  0  0  0
 17 41  1  0  0  0  0
 17 42  1  0  0  0  0
 18 19  1  0  0  0  0
 18 43  1  0  0  0  0
 19 44  1  0  0  0  0
 19 45  1  0  0  0  0
 19 46  1  0  0  0  0
M  CHG  1  13   1
M  END
> <s_m_source_file>
AV-unprocessed.smi

> <i_m_source_file_index>
3004

> <i_lp_mmshare_version>
43012

> <i_f3d_flags>
0

> <s_epik_input>
W0NIM11jMVtjSF1jKFtDSDNdKW4objEpW0NIMl1DKD1PKVtOSF1bQ0gyXVtDSDJdTjJbQ0gyXVtDSDJdW0NIMl1bQ0gyXVtDQEhdMltDSDNd

> <s_epik_cmdline>
J2VwaWtfcHl0aG9uJywgJy1waCcsICc3LjAnLCAnLXRuJywgJzgnLCAnLW1hJywgJzIwMCcsICctbWV0YWxfYmluZGluZycsICctaW1hZScsICc8aW5maWxlLm1hZT4nLCAnLW9tYWUnLCAnPG91dGZpbGUubWFlPic=

> <r_lp_tautomer_probability>
1

> <r_epik_Ionization_Penalty>
0.00303644

> <r_epik_Ionization_Penalty_Charging>
0.00284254

> <r_epik_Ionization_Penalty_Neutral>
0.000193908

> <r_epik_State_Penalty>
-0

> <r_epik_Charging_Adjusted_Penalty>
0.00284254

> <i_epik_Tot_Q>
1

> <i_epik_Tot_abs_Q>
1

> <r_epik_Metal_State_Penalty>
-0

> <b_epik_Metal_Only>
0

> <s_lp_Force_Field>
OPLS_2005

> <r_lp_Energy>
17.9546

> <b_lp_Chiralities_Consistent>
1

> <s_lp_Variant>
AV-unprocessed.smi:3004-2

> <Gold.Version>
5.8.1

> <Gold.Id.Protein>
6NUR|6NUR_protein|mol2

> <Gold.PLP.Fitness>
44.1492

> <Gold.PLP.PLP>
-38.7805

> <Gold.PLP.part.hbond>
-2.0000

> <Gold.PLP.part.metal>
0.0000

> <Gold.PLP.part.buried>
-7.2815

> <Gold.PLP.part.nonpolar>
-30.3091

> <Gold.PLP.part.repulsive>
0.4890

> <Gold.PLP.ligand.clash>
0.0000

> <Gold.PLP.ligand.torsion>
0.3472

> <Gold.PLP.Chemscore.Hbond>
2.0000

> <Gold.PLP.Chemscore.CHOScore>
0.0000

> <Gold.PLP.Chemscore.Metal>
0.0000

> <Gold.Chemscore.Hbonds>
donor molecule, donor type, donor heavy atom, donor atom, acceptor molecule, acceptor atom, score
      P1  H  7989  7998       L1     9  1.00
      P1  H 10752 10764       L1    20  1.00

> <Gold.PLP.Chemscore.Internal.Correction>
0.0632

> <Gold.Rescore>
     Score         DG    S(hbond)    S(metal)    S(lipo)     H(rot)  DE(clash)    DE(int)     intcor
     18.64     -19.00       1.89        0.00      97.97       1.67       0.01       0.35       ----

> <Gold.Chemscore.Fitness>
18.6363

> <Gold.Chemscore.DG>
-19.0001

> <Gold.Chemscore.ZeroCoef>
-5.4800

> <Gold.Chemscore.Hbond>
1.8927

> <Gold.Chemscore.Metal>
0.0000

> <Gold.Chemscore.Lipo>
97.9699

> <Gold.Chemscore.Internal_Hbond>
0.0000

> <Gold.Chemscore.DEClash>
0.0111

> <Gold.Chemscore.DEInternal>
0.3527

> <Gold.Chemscore.Rot>
1.6657

> <Gold.Chemscore.Internal.Correction>
   9.000000E+99

> <Gold.Chemscore.Hbonds>
donor molecule, donor type, donor heavy atom, donor atom, acceptor molecule, acceptor atom, score
      L1  H    13    47       P1  8028  0.01
      P1  H  7989  7998       L1     9  0.45
      P1  H 10752 10764       L1    20  0.34

> <Gold.Chemscore.Hbond.Weighted>
-6.3217

> <Gold.Chemscore.Metal.Weighted>
-0.0000

> <Gold.Chemscore.Lipo.Weighted>
-11.4625

> <Gold.Chemscore.Internal_Hbond.Weighted>
0.0000

> <Gold.Chemscore.DEClash.Weighted>
0.0111

> <Gold.Chemscore.DEInternal.Weighted>
0.3527

> <Gold.Chemscore.Rot.Weighted>
4.2641

> <Gold.Chemscore.Internal.Correction.Weighted>
   9.000000E+99

> <Gold.Protein.RotatedTorsions>
[ 6907 6896 6895 6894 ] final   94.41 input  -60.11 | X-H torsion
[ 7974 7965 7964 7962 ] final  -25.61 input  175.53 | X-H torsion
[ 8008 7997 7996 7995 ] final -132.20 input   59.86 | X-H torsion
[ 10167 10162 10161 10158 ] final   64.89 input  -65.29 | X-H torsion
[ 10718 10713 10712 10709 ] final -147.24 input   66.30 | X-H torsion
[ 10763 10752 10751 10750 ] final  -73.87 input  -60.55 | X-H torsion
[ 11005 11000 10999 10996 ] final   82.19 input  -57.11 | X-H torsion

> <Gold.Protein.ActiveResidues>
 VAL166  LYS551  ARG553  GLY616  TRP617  ASP618  TYR619  PRO620  LYS621  CYS622 
 ASP623  PHE694  ASN695  SER759  ASP760  ASP761  ALA762  ILE779  LEU786  VAL792 
 PHE793  MET794  SER795  GLU796  ALA797  LYS798  CYS799  TRP800  GLU811  SER814 

> <Gold.Protein.RotatedAtoms>
  152.5449  134.1198  159.8393 H   0  0  0  0  0  0  0  0  0  0  0  0  # atno 6907 bound_to 6896
  151.1256  133.5066  159.2608 H   0  0  0  0  0  0  0  0  0  0  0  0  # atno 6908 bound_to 6896
  151.1731  135.0337  159.8815 H   0  0  0  0  0  0  0  0  0  0  0  0  # atno 6909 bound_to 6896
  146.1480  140.4909  142.8623 H   0  0  0  0  0  0  0  0  0  0  0  0  # atno 7974 bound_to 7965
  155.3249  140.0464  157.3040 H   0  0  0  0  0  0  0  0  0  0  0  0  # atno 8008 bound_to 7997
  154.5360  140.2272  155.8688 H   0  0  0  0  0  0  0  0  0  0  0  0  # atno 8009 bound_to 7997
  156.1835  140.3068  155.9200 H   0  0  0  0  0  0  0  0  0  0  0  0  # atno 8010 bound_to 7997
  140.1172  144.4764  150.6942 H   0  0  0  0  0  0  0  0  0  0  0  0  # atno 10167 bound_to 10162
  156.4051  130.7953  151.2167 H   0  0  0  0  0  0  0  0  0  0  0  0  # atno 10718 bound_to 10713
  154.4653  135.5883  153.6284 H   0  0  0  0  0  0  0  0  0  0  0  0  # atno 10763 bound_to 10752
  152.9828  135.6054  154.3434 H   0  0  0  0  0  0  0  0  0  0  0  0  # atno 10764 bound_to 10752
  154.3311  135.2842  155.2450 H   0  0  0  0  0  0  0  0  0  0  0  0  # atno 10765 bound_to 10752
  139.9072  134.8053  156.2142 H   0  0  0  0  0  0  0  0  0  0  0  0  # atno 11005 bound_to 11000
  144.7869  140.5954  143.6567 LP  0  0  0  0  0  0  0  0  0  0  0  0  # atno 17320 bound_to 7965
  145.4892  139.1490  143.3719 LP  0  0  0  0  0  0  0  0  0  0  0  0  # atno 17321 bound_to 7965
  140.6892  143.2366  151.5177 LP  0  0  0  0  0  0  0  0  0  0  0  0  # atno 17342 bound_to 10162
  139.5587  144.2209  152.1656 LP  0  0  0  0  0  0  0  0  0  0  0  0  # atno 17343 bound_to 10162
  157.7505  131.0275  150.4008 LP  0  0  0  0  0  0  0  0  0  0  0  0  # atno 17370 bound_to 10713
  156.4295  130.3969  149.6770 LP  0  0  0  0  0  0  0  0  0  0  0  0  # atno 17371 bound_to 10713
  141.0446  133.6920  156.1660 LP  0  0  0  0  0  0  0  0  0  0  0  0  # atno 17394 bound_to 11000
  140.6903  134.4673  157.5588 LP  0  0  0  0  0  0  0  0  0  0  0  0  # atno 17395 bound_to 11000

$$$$
