AV-unprocessed.smi:1413|AV-procd|sdf|5750|dock4
  -GOLD-   22720 5383D 1   1.00000     0.00000
 Structure written by MMmdl.
 53 55  0  0  0  0  0  0  0  0  1 V2000
  154.2011  141.4413  159.5087 C   0  0  0  0  0  0  0  0  0  0  0  0
  152.7099  141.5902  159.8594 C   0  0  2  0  0  0  0  0  0  0  0  0
  151.7874  140.6788  159.0250 C   0  0  0  0  0  0  0  0  0  0  0  0
  151.6499  141.1889  157.6675 N   0  0  0  0  0  0  0  0  0  0  0  0
  150.9263  140.3345  156.8254 C   0  0  0  0  0  0  0  0  0  0  0  0
  151.4709  139.8519  155.6136 C   0  0  0  0  0  0  0  0  0  0  0  0
  150.6867  138.9997  154.8135 C   0  0  0  0  0  0  0  0  0  0  0  0
  149.3853  138.6631  155.2364 C   0  0  0  0  0  0  0  0  0  0  0  0
  148.6221  137.7891  154.4160 N   0  0  0  0  0  0  0  0  0  0  0  0
  147.3532  137.3791  154.5845 C   0  0  0  0  0  0  0  0  0  0  0  0
  146.6138  137.7191  155.5075 O   0  0  0  0  0  0  0  0  0  0  0  0
  146.9791  136.5556  153.5947 N   0  0  0  0  0  0  0  0  0  0  0  0
  145.6700  135.9209  153.4559 C   0  0  1  0  0  0  0  0  0  0  0  0
  144.5848  137.0074  153.5193 C   0  0  0  0  0  0  0  0  0  0  0  0
  145.6283  135.1184  152.1406 C   0  0  2  0  0  0  0  0  0  0  0  0
  144.2937  134.4249  151.8606 C   0  0  0  0  0  0  0  0  0  0  0  0
  144.7181  133.2918  150.9557 C   0  0  0  0  0  0  0  0  0  0  0  0
  146.0462  132.8788  151.5807 C   0  0  0  0  0  0  0  0  0  0  0  0
  146.5838  134.0585  152.1728 O   0  0  0  0  0  0  0  0  0  0  0  0
  148.9381  139.1894  156.4729 C   0  0  0  0  0  0  0  0  0  0  0  0
  149.6858  140.0061  157.2456 N   0  0  0  0  0  0  0  0  0  0  0  0
  151.1945  142.5709  157.6350 C   0  0  0  0  0  0  0  0  0  0  0  0
  152.1563  143.4598  158.4435 C   0  0  1  0  0  0  0  0  0  0  0  0
  151.6601  144.9069  158.5303 C   0  0  0  0  0  0  0  0  0  0  0  0
  152.2698  142.9488  159.7725 O   0  0  0  0  0  0  0  0  0  0  0  0
  154.5436  140.4252  159.7055 H   0  0  0  0  0  0  0  0  0  0  0  0
  154.8107  142.1167  160.1092 H   0  0  0  0  0  0  0  0  0  0  0  0
  154.4029  141.6519  158.4587 H   0  0  0  0  0  0  0  0  0  0  0  0
  152.6027  141.3016  160.9052 H   0  0  0  0  0  0  0  0  0  0  0  0
  152.1756  139.6593  159.0053 H   0  0  0  0  0  0  0  0  0  0  0  0
  150.8024  140.6356  159.4919 H   0  0  0  0  0  0  0  0  0  0  0  0
  152.4665  140.1274  155.2985 H   0  0  0  0  0  0  0  0  0  0  0  0
  151.0812  138.6162  153.8840 H   0  0  0  0  0  0  0  0  0  0  0  0
  149.0763  137.4861  153.5669 H   0  0  0  0  0  0  0  0  0  0  0  0
  147.6596  136.3386  152.8817 H   0  0  0  0  0  0  0  0  0  0  0  0
  145.4965  135.2280  154.2812 H   0  0  0  0  0  0  0  0  0  0  0  0
  143.5851  136.5754  153.4724 H   0  0  0  0  0  0  0  0  0  0  0  0
  144.6808  137.7150  152.6950 H   0  0  0  0  0  0  0  0  0  0  0  0
  144.6501  137.5711  154.4506 H   0  0  0  0  0  0  0  0  0  0  0  0
  145.8796  135.7618  151.2955 H   0  0  0  0  0  0  0  0  0  0  0  0
  143.8658  134.0246  152.7812 H   0  0  0  0  0  0  0  0  0  0  0  0
  143.5586  135.0847  151.3990 H   0  0  0  0  0  0  0  0  0  0  0  0
  143.9935  132.4781  150.9155 H   0  0  0  0  0  0  0  0  0  0  0  0
  144.8770  133.6613  149.9419 H   0  0  0  0  0  0  0  0  0  0  0  0
  145.8842  132.1413  152.3676 H   0  0  0  0  0  0  0  0  0  0  0  0
  146.7335  132.4504  150.8508 H   0  0  0  0  0  0  0  0  0  0  0  0
  147.9699  138.9470  156.8819 H   0  0  0  0  0  0  0  0  0  0  0  0
  151.1414  142.9162  156.6017 H   0  0  0  0  0  0  0  0  0  0  0  0
  150.1883  142.6380  158.0510 H   0  0  0  0  0  0  0  0  0  0  0  0
  153.1371  143.4666  157.9674 H   0  0  0  0  0  0  0  0  0  0  0  0
  151.5624  145.3481  157.5380 H   0  0  0  0  0  0  0  0  0  0  0  0
  152.3550  145.5233  159.1012 H   0  0  0  0  0  0  0  0  0  0  0  0
  150.6867  144.9614  159.0189 H   0  0  0  0  0  0  0  0  0  0  0  0
  1  2  1  0  0  0  0
  1 26  1  0  0  0  0
  1 27  1  0  0  0  0
  1 28  1  0  0  0  0
  2 25  1  0  0  0  0
  2  3  1  0  0  0  0
  2 29  1  0  0  0  0
  3  4  1  0  0  0  0
  3 30  1  0  0  0  0
  3 31  1  0  0  0  0
  4  5  1  0  0  0  0
  4 22  1  0  0  0  0
  5 21  1  0  0  0  0
  5  6  2  0  0  0  0
  6  7  1  0  0  0  0
  6 32  1  0  0  0  0
  7  8  2  0  0  0  0
  7 33  1  0  0  0  0
  8  9  1  0  0  0  0
  8 20  1  0  0  0  0
  9 10  1  0  0  0  0
  9 34  1  0  0  0  0
 10 11  2  0  0  0  0
 10 12  1  0  0  0  0
 12 13  1  0  0  0  0
 12 35  1  0  0  0  0
 13 14  1  0  0  0  0
 13 15  1  0  0  0  0
 13 36  1  0  0  0  0
 14 37  1  0  0  0  0
 14 38  1  0  0  0  0
 14 39  1  0  0  0  0
 15 19  1  0  0  0  0
 15 16  1  0  0  0  0
 15 40  1  0  0  0  0
 16 17  1  0  0  0  0
 16 41  1  0  0  0  0
 16 42  1  0  0  0  0
 17 18  1  0  0  0  0
 17 43  1  0  0  0  0
 17 44  1  0  0  0  0
 18 19  1  0  0  0  0
 18 45  1  0  0  0  0
 18 46  1  0  0  0  0
 20 21  2  0  0  0  0
 20 47  1  0  0  0  0
 22 23  1  0  0  0  0
 22 48  1  0  0  0  0
 22 49  1  0  0  0  0
 23 24  1  0  0  0  0
 23 25  1  0  0  0  0
 23 50  1  0  0  0  0
 24 51  1  0  0  0  0
 24 52  1  0  0  0  0
 24 53  1  0  0  0  0
M  END
> <s_m_source_file>
AV-unprocessed.smi

> <i_m_source_file_index>
1413

> <i_lp_mmshare_version>
43012

> <i_f3d_flags>
0

> <s_epik_input>
W0NIM11bQ0BASF0xW0NIMl1OKFtDSDJdW0NASF0oTzEpW0NIM10pYzJbY0hdW2NIXWMoW2NIXW4yKVtOSF1DKD1PKVtOSF1bQ0BIXShbQ0gzXSlbQ0BASF0zW0NIMl1bQ0gyXVtDSDJdTzM=

> <s_epik_cmdline>
J2VwaWtfcHl0aG9uJywgJy1waCcsICc3LjAnLCAnLXRuJywgJzgnLCAnLW1hJywgJzIwMCcsICctbWV0YWxfYmluZGluZycsICctaW1hZScsICc8aW5maWxlLm1hZT4nLCAnLW9tYWUnLCAnPG91dGZpbGUubWFlPic=

> <r_lp_tautomer_probability>
1

> <r_epik_Ionization_Penalty>
0.00271172

> <r_epik_Ionization_Penalty_Charging>
0

> <r_epik_Ionization_Penalty_Neutral>
0.00271172

> <r_epik_State_Penalty>
0.00186503

> <r_epik_Charging_Adjusted_Penalty>
0.00186503

> <i_epik_Tot_Q>
0

> <i_epik_Tot_abs_Q>
0

> <r_epik_Metal_State_Penalty>
-0

> <b_epik_Metal_Only>
0

> <s_lp_Force_Field>
OPLS_2005

> <r_lp_Energy>
38.8285

> <b_lp_Chiralities_Consistent>
1

> <s_lp_Variant>
AV-unprocessed.smi:1413-3

> <Gold.Version>
5.8.1

> <Gold.Id.Protein>
6NUR|6NUR_protein|mol2

> <Gold.PLP.Fitness>
46.3222

> <Gold.PLP.PLP>
-41.0868

> <Gold.PLP.part.hbond>
-1.9514

> <Gold.PLP.part.metal>
0.0000

> <Gold.PLP.part.buried>
-6.0461

> <Gold.PLP.part.nonpolar>
-34.2717

> <Gold.PLP.part.repulsive>
0.7167

> <Gold.PLP.ligand.clash>
0.0000

> <Gold.PLP.ligand.torsion>
0.2231

> <Gold.PLP.Chemscore.Hbond>
1.8553

> <Gold.PLP.Chemscore.CHOScore>
0.0000

> <Gold.PLP.Chemscore.Metal>
0.0000

> <Gold.Chemscore.Hbonds>
donor molecule, donor type, donor heavy atom, donor atom, acceptor molecule, acceptor atom, score
      L1  H     9    34       P1  7948  0.78
      L1  H    12    35       P1  7948  1.00

> <Gold.PLP.Chemscore.Internal.Correction>
0.1158

> <Gold.Rescore>
     Score         DG    S(hbond)    S(metal)    S(lipo)     H(rot)  DE(clash)    DE(int)     intcor
     19.41     -21.01       1.89        0.00     108.09       1.35       0.12       1.48       ----

> <Gold.Chemscore.Fitness>
19.4095

> <Gold.Chemscore.DG>
-21.0063

> <Gold.Chemscore.ZeroCoef>
-5.4800

> <Gold.Chemscore.Hbond>
1.8948

> <Gold.Chemscore.Metal>
0.0000

> <Gold.Chemscore.Lipo>
108.0860

> <Gold.Chemscore.Internal_Hbond>
0.0000

> <Gold.Chemscore.DEClash>
0.1213

> <Gold.Chemscore.DEInternal>
1.4755

> <Gold.Chemscore.Rot>
1.3471

> <Gold.Chemscore.Internal.Correction>
   9.000000E+99

> <Gold.Chemscore.Hbonds>
donor molecule, donor type, donor heavy atom, donor atom, acceptor molecule, acceptor atom, score
      L1  H     9    34       P1  7948  0.73
      L1  H    12    35       P1  7948  1.00

> <Gold.Chemscore.Hbond.Weighted>
-6.3288

> <Gold.Chemscore.Metal.Weighted>
-0.0000

> <Gold.Chemscore.Lipo.Weighted>
-12.6461

> <Gold.Chemscore.Internal_Hbond.Weighted>
0.0000

> <Gold.Chemscore.DEClash.Weighted>
0.1213

> <Gold.Chemscore.DEInternal.Weighted>
1.4755

> <Gold.Chemscore.Rot.Weighted>
3.4485

> <Gold.Chemscore.Internal.Correction.Weighted>
   9.000000E+99

> <Gold.Protein.RotatedTorsions>
[ 6907 6896 6895 6894 ] final   25.17 input  -60.11 | X-H torsion
[ 7974 7965 7964 7962 ] final   48.17 input  175.53 | X-H torsion
[ 8008 7997 7996 7995 ] final  163.05 input   59.86 | X-H torsion
[ 10167 10162 10161 10158 ] final -161.61 input  -65.29 | X-H torsion
[ 10718 10713 10712 10709 ] final   23.35 input   66.30 | X-H torsion
[ 10763 10752 10751 10750 ] final -143.66 input  -60.55 | X-H torsion
[ 11005 11000 10999 10996 ] final   74.98 input  -57.11 | X-H torsion

> <Gold.Protein.ActiveResidues>
 VAL166  LYS551  ARG553  GLY616  TRP617  ASP618  TYR619  PRO620  LYS621  CYS622 
 ASP623  PHE694  ASN695  SER759  ASP760  ASP761  ALA762  ILE779  LEU786  VAL792 
 PHE793  MET794  SER795  GLU796  ALA797  LYS798  CYS799  TRP800  GLU811  SER814 

> <Gold.Protein.RotatedAtoms>
  151.9684  135.0089  160.0551 H   0  0  0  0  0  0  0  0  0  0  0  0  # atno 6907 bound_to 6896
  152.1805  133.4699  159.4964 H   0  0  0  0  0  0  0  0  0  0  0  0  # atno 6908 bound_to 6896
  150.6916  134.1757  159.4272 H   0  0  0  0  0  0  0  0  0  0  0  0  # atno 6909 bound_to 6896
  146.0229  139.4673  142.9885 H   0  0  0  0  0  0  0  0  0  0  0  0  # atno 7974 bound_to 7965
  156.1986  140.1734  156.7947 H   0  0  0  0  0  0  0  0  0  0  0  0  # atno 8008 bound_to 7997
  154.5562  140.0708  156.8778 H   0  0  0  0  0  0  0  0  0  0  0  0  # atno 8009 bound_to 7997
  155.2935  140.3357  155.4253 H   0  0  0  0  0  0  0  0  0  0  0  0  # atno 8010 bound_to 7997
  139.6452  144.0185  152.2122 H   0  0  0  0  0  0  0  0  0  0  0  0  # atno 10167 bound_to 10162
  157.1649  130.6733  149.6057 H   0  0  0  0  0  0  0  0  0  0  0  0  # atno 10718 bound_to 10713
  154.8461  135.3462  154.6222 H   0  0  0  0  0  0  0  0  0  0  0  0  # atno 10763 bound_to 10752
  153.6831  135.6979  153.5116 H   0  0  0  0  0  0  0  0  0  0  0  0  # atno 10764 bound_to 10752
  153.2653  135.4310  155.0890 H   0  0  0  0  0  0  0  0  0  0  0  0  # atno 10765 bound_to 10752
  139.9365  134.7479  156.1215 H   0  0  0  0  0  0  0  0  0  0  0  0  # atno 11005 bound_to 11000
  145.7164  141.0089  143.1426 LP  0  0  0  0  0  0  0  0  0  0  0  0  # atno 17320 bound_to 7965
  144.6997  139.8818  143.7447 LP  0  0  0  0  0  0  0  0  0  0  0  0  # atno 17321 bound_to 7965
  139.9885  144.6378  150.7836 LP  0  0  0  0  0  0  0  0  0  0  0  0  # atno 17342 bound_to 10162
  140.7511  143.2967  151.3187 LP  0  0  0  0  0  0  0  0  0  0  0  0  # atno 17343 bound_to 10162
  155.9747  130.4699  150.6411 LP  0  0  0  0  0  0  0  0  0  0  0  0  # atno 17370 bound_to 10713
  157.4098  131.0822  151.1232 LP  0  0  0  0  0  0  0  0  0  0  0  0  # atno 17371 bound_to 10713
  141.0981  133.6688  156.2691 LP  0  0  0  0  0  0  0  0  0  0  0  0  # atno 17394 bound_to 11000
  140.6062  134.5504  157.5526 LP  0  0  0  0  0  0  0  0  0  0  0  0  # atno 17395 bound_to 11000

$$$$
