AV-unprocessed.smi:2922|AV-procd|sdf|11201|dock7
  -GOLD-   2272016 93D 1   1.00000     0.00000
 Structure written by MMmdl.
 30 31  0  0  0  0  0  0  0  0  1 V2000
  148.7658  142.1312  155.6399 N   0  0  0  0  0  0  0  0  0  0  0  0
  149.1200  141.2387  154.7104 C   0  0  0  0  0  0  0  0  0  0  0  0
  149.2527  141.5515  153.5288 O   0  0  0  0  0  0  0  0  0  0  0  0
  149.3321  139.7836  155.1654 C   0  0  1  0  0  0  0  0  0  0  0  0
  149.9413  138.8709  154.0819 C   0  0  0  0  0  0  0  0  0  0  0  0
  151.2232  138.3533  154.7125 C   0  0  0  0  0  0  0  0  0  0  0  0
  151.5554  139.4326  155.7356 C   0  0  2  0  0  0  0  0  0  0  0  0
  152.4937  138.9596  156.8567 C   0  0  0  0  0  0  0  0  0  0  0  0
  152.1601  139.5651  158.1390 N   0  0  0  0  0  0  0  0  0  0  0  0
  152.0764  140.9274  158.3643 C   0  0  0  0  0  0  0  0  0  0  0  0
  151.3553  141.6718  157.5167 N   0  0  0  0  0  0  0  0  0  0  0  0
  151.2998  142.9998  157.7569 C   0  0  0  0  0  0  0  0  0  0  0  0
  151.9682  143.5782  158.8540 C   0  0  0  0  0  0  0  0  0  0  0  0
  151.9040  145.2738  159.1654 Cl  0  0  0  0  0  0  0  0  0  0  0  0
  152.6923  142.6986  159.6832 C   0  0  0  0  0  0  0  0  0  0  0  0
  152.7431  141.3714  159.4334 N   0  0  0  0  0  0  0  0  0  0  0  0
  150.2658  139.7415  156.2445 O   0  0  0  0  0  0  0  0  0  0  0  0
  148.6207  143.0966  155.3822 H   0  0  0  0  0  0  0  0  0  0  0  0
  148.6488  141.8340  156.5981 H   0  0  0  0  0  0  0  0  0  0  0  0
  148.3787  139.3874  155.5165 H   0  0  0  0  0  0  0  0  0  0  0  0
  149.2711  138.0547  153.8105 H   0  0  0  0  0  0  0  0  0  0  0  0
  150.1777  139.4167  153.1672 H   0  0  0  0  0  0  0  0  0  0  0  0
  151.0300  137.4049  155.2161 H   0  0  0  0  0  0  0  0  0  0  0  0
  152.0212  138.1956  153.9863 H   0  0  0  0  0  0  0  0  0  0  0  0
  151.9704  140.3053  155.2272 H   0  0  0  0  0  0  0  0  0  0  0  0
  152.4980  137.8714  156.9299 H   0  0  0  0  0  0  0  0  0  0  0  0
  153.5153  139.2560  156.6186 H   0  0  0  0  0  0  0  0  0  0  0  0
  152.2099  138.9755  158.9572 H   0  0  0  0  0  0  0  0  0  0  0  0
  150.7211  143.6005  157.0707 H   0  0  0  0  0  0  0  0  0  0  0  0
  153.2331  143.0581  160.5461 H   0  0  0  0  0  0  0  0  0  0  0  0
  1  2  1  0  0  0  0
  1 18  1  0  0  0  0
  1 19  1  0  0  0  0
  2  3  2  0  0  0  0
  2  4  1  0  0  0  0
  4 17  1  0  0  0  0
  4  5  1  0  0  0  0
  4 20  1  0  0  0  0
  5  6  1  0  0  0  0
  5 21  1  0  0  0  0
  5 22  1  0  0  0  0
  6  7  1  0  0  0  0
  6 23  1  0  0  0  0
  6 24  1  0  0  0  0
  7  8  1  0  0  0  0
  7 17  1  0  0  0  0
  7 25  1  0  0  0  0
  8  9  1  0  0  0  0
  8 26  1  0  0  0  0
  8 27  1  0  0  0  0
  9 10  1  0  0  0  0
  9 28  1  0  0  0  0
 10 16  1  0  0  0  0
 10 11  2  0  0  0  0
 11 12  1  0  0  0  0
 12 13  2  0  0  0  0
 12 29  1  0  0  0  0
 13 14  1  0  0  0  0
 13 15  1  0  0  0  0
 15 16  2  0  0  0  0
 15 30  1  0  0  0  0
M  END
> <s_m_source_file>
AV-unprocessed.smi

> <i_m_source_file_index>
2922

> <i_lp_mmshare_version>
43012

> <i_f3d_flags>
0

> <s_epik_input>
W05IMl1DKD1PKVtDQEBIXTFbQ0gyXVtDSDJdW0NASF0oTzEpW0NIMl1bTkhdYzJuW2NIXWMoQ2wpW2NIXW4y

> <s_epik_cmdline>
J2VwaWtfcHl0aG9uJywgJy1waCcsICc3LjAnLCAnLXRuJywgJzgnLCAnLW1hJywgJzIwMCcsICctbWV0YWxfYmluZGluZycsICctaW1hZScsICc8aW5maWxlLm1hZT4nLCAnLW9tYWUnLCAnPG91dGZpbGUubWFlPic=

> <r_lp_tautomer_probability>
1

> <r_epik_Ionization_Penalty>
6.13883e-06

> <r_epik_Ionization_Penalty_Charging>
0

> <r_epik_Ionization_Penalty_Neutral>
6.13883e-06

> <r_epik_State_Penalty>
-0

> <r_epik_Charging_Adjusted_Penalty>
0

> <i_epik_Tot_Q>
0

> <i_epik_Tot_abs_Q>
0

> <r_epik_Metal_State_Penalty>
-0

> <b_epik_Metal_Only>
0

> <s_lp_Force_Field>
OPLS_2005

> <r_lp_Energy>
9.79995

> <b_lp_Chiralities_Consistent>
1

> <s_lp_Variant>
AV-unprocessed.smi:2922-4

> <Gold.Version>
5.8.1

> <Gold.Id.Protein>
6NUR|6NUR_protein|mol2

> <Gold.PLP.Fitness>
39.9816

> <Gold.PLP.PLP>
-33.4582

> <Gold.PLP.part.hbond>
-2.8369

> <Gold.PLP.part.metal>
0.0000

> <Gold.PLP.part.buried>
-3.5662

> <Gold.PLP.part.nonpolar>
-28.5907

> <Gold.PLP.part.repulsive>
2.3676

> <Gold.PLP.ligand.clash>
0.0000

> <Gold.PLP.ligand.torsion>
1.0004

> <Gold.PLP.Chemscore.Hbond>
1.8320

> <Gold.PLP.Chemscore.CHOScore>
1.0000

> <Gold.PLP.Chemscore.Metal>
0.0000

> <Gold.Chemscore.Hbonds>
donor molecule, donor type, donor heavy atom, donor atom, acceptor molecule, acceptor atom, score
      L1  H     1    18       P1  8028  1.00
      P1  H  8011  8017       L1     3  0.82
      L1  C    12    29       P1  8028  0.94

> <Gold.PLP.Chemscore.Internal.Correction>
0.0281

> <Gold.Rescore>
     Score         DG    S(hbond)    S(metal)    S(lipo)     H(rot)  DE(clash)    DE(int)     intcor
     11.88     -15.87       1.72        0.00      81.76       1.91       0.36       3.63       ----

> <Gold.Chemscore.Fitness>
11.8848

> <Gold.Chemscore.DG>
-15.8747

> <Gold.Chemscore.ZeroCoef>
-5.4800

> <Gold.Chemscore.Hbond>
1.7154

> <Gold.Chemscore.Metal>
0.0000

> <Gold.Chemscore.Lipo>
81.7579

> <Gold.Chemscore.Internal_Hbond>
0.0000

> <Gold.Chemscore.DEClash>
0.3585

> <Gold.Chemscore.DEInternal>
3.6314

> <Gold.Chemscore.Rot>
1.9142

> <Gold.Chemscore.Internal.Correction>
   9.000000E+99

> <Gold.Chemscore.Hbonds>
donor molecule, donor type, donor heavy atom, donor atom, acceptor molecule, acceptor atom, score
      L1  H     1    18       P1  8028  0.95
      P1  H  8011  8017       L1     3  0.79

> <Gold.Chemscore.Hbond.Weighted>
-5.7293

> <Gold.Chemscore.Metal.Weighted>
-0.0000

> <Gold.Chemscore.Lipo.Weighted>
-9.5657

> <Gold.Chemscore.Internal_Hbond.Weighted>
0.0000

> <Gold.Chemscore.DEClash.Weighted>
0.3585

> <Gold.Chemscore.DEInternal.Weighted>
3.6314

> <Gold.Chemscore.Rot.Weighted>
4.9002

> <Gold.Chemscore.Internal.Correction.Weighted>
   9.000000E+99

> <Gold.Protein.RotatedTorsions>
[ 6907 6896 6895 6894 ] final  -54.92 input  -60.11 | X-H torsion
[ 7974 7965 7964 7962 ] final -159.27 input  175.53 | X-H torsion
[ 8008 7997 7996 7995 ] final  100.36 input   59.86 | X-H torsion
[ 10167 10162 10161 10158 ] final   88.78 input  -65.29 | X-H torsion
[ 10718 10713 10712 10709 ] final  -90.24 input   66.30 | X-H torsion
[ 10763 10752 10751 10750 ] final  -82.33 input  -60.55 | X-H torsion
[ 11005 11000 10999 10996 ] final  174.36 input  -57.11 | X-H torsion

> <Gold.Protein.ActiveResidues>
 VAL166  LYS551  ARG553  GLY616  TRP617  ASP618  TYR619  PRO620  LYS621  CYS622 
 ASP623  PHE694  ASN695  SER759  ASP760  ASP761  ALA762  ILE779  LEU786  VAL792 
 PHE793  MET794  SER795  GLU796  ALA797  LYS798  CYS799  TRP800  GLU811  SER814 

> <Gold.Protein.RotatedAtoms>
  150.8296  134.7543  159.6841 H   0  0  0  0  0  0  0  0  0  0  0  0  # atno 6907 bound_to 6896
  152.4402  134.5603  159.9902 H   0  0  0  0  0  0  0  0  0  0  0  0  # atno 6908 bound_to 6896
  151.5767  133.3345  159.3036 H   0  0  0  0  0  0  0  0  0  0  0  0  # atno 6909 bound_to 6896
  144.7472  140.3709  143.6076 H   0  0  0  0  0  0  0  0  0  0  0  0  # atno 7974 bound_to 7965
  156.1195  140.3214  155.8188 H   0  0  0  0  0  0  0  0  0  0  0  0  # atno 8008 bound_to 7997
  155.4530  140.0534  157.3016 H   0  0  0  0  0  0  0  0  0  0  0  0  # atno 8009 bound_to 7997
  154.4817  140.2056  155.9762 H   0  0  0  0  0  0  0  0  0  0  0  0  # atno 8010 bound_to 7997
  139.8639  144.6529  150.9027 H   0  0  0  0  0  0  0  0  0  0  0  0  # atno 10167 bound_to 10162
  155.9987  130.4902  150.5293 H   0  0  0  0  0  0  0  0  0  0  0  0  # atno 10718 bound_to 10713
  154.5744  135.5595  153.7125 H   0  0  0  0  0  0  0  0  0  0  0  0  # atno 10763 bound_to 10752
  153.0059  135.6305  154.2069 H   0  0  0  0  0  0  0  0  0  0  0  0  # atno 10764 bound_to 10752
  154.2009  135.2878  155.2971 H   0  0  0  0  0  0  0  0  0  0  0  0  # atno 10765 bound_to 10752
  140.3505  134.7199  157.4264 H   0  0  0  0  0  0  0  0  0  0  0  0  # atno 11005 bound_to 11000
  145.7079  139.1677  143.2556 LP  0  0  0  0  0  0  0  0  0  0  0  0  # atno 17320 bound_to 7965
  146.1368  140.7111  142.9386 LP  0  0  0  0  0  0  0  0  0  0  0  0  # atno 17321 bound_to 7965
  140.7771  143.3721  151.1630 LP  0  0  0  0  0  0  0  0  0  0  0  0  # atno 17342 bound_to 10162
  139.7348  143.9016  152.3031 LP  0  0  0  0  0  0  0  0  0  0  0  0  # atno 17343 bound_to 10162
  157.3244  131.0688  151.1908 LP  0  0  0  0  0  0  0  0  0  0  0  0  # atno 17370 bound_to 10713
  157.2810  130.6750  149.6066 LP  0  0  0  0  0  0  0  0  0  0  0  0  # atno 17371 bound_to 10713
  140.0707  134.5867  155.8645 LP  0  0  0  0  0  0  0  0  0  0  0  0  # atno 17394 bound_to 11000
  141.2013  133.6618  156.5945 LP  0  0  0  0  0  0  0  0  0  0  0  0  # atno 17395 bound_to 11000

$$$$
