AV-unprocessed.smi:52|AV-procd|sdf|508|dock9
  -GOLD-   2262016383D 1   1.00000     0.00000
 Structure written by MMmdl.
 27 28  0  0  0  0  0  0  0  0  3 V2000
  151.6288  135.1895  156.2553 O   0  0  0  0  0  0  0  0  0  0  0  0
  150.8508  134.2193  156.3869 C   0  0  0  0  0  0  0  0  0  0  0  0
  151.1184  133.2525  157.1336 O   0  5  0  0  0  0  0  0  0  0  0  0
  149.5728  134.2132  155.6302 C   0  0  0  0  0  0  0  0  0  0  0  0
  148.9127  133.1152  155.1389 C   0  0  0  0  0  0  0  0  0  0  0  0
  147.7643  133.5225  154.5152 O   0  0  0  0  0  0  0  0  0  0  0  0
  147.7735  134.8763  154.6499 C   0  0  0  0  0  0  0  0  0  0  0  0
  146.6315  135.6665  154.1027 C   0  0  0  0  0  0  0  0  0  0  0  0
  146.6795  135.4140  152.6422 N   0  3  1  0  0  0  0  0  0  0  0  0
  146.2950  134.0466  152.2186 C   0  0  0  0  0  0  0  0  0  0  0  0
  145.7785  134.1999  150.7918 C   0  0  0  0  0  0  0  0  0  0  0  0
  145.0534  135.5395  150.8524 C   0  0  2  0  0  0  0  0  0  0  0  0
  144.9613  136.1488  149.5825 O   0  0  0  0  0  0  0  0  0  0  0  0
  145.8865  136.3726  151.8361 C   0  0  0  0  0  0  0  0  0  0  0  0
  148.8337  135.3429  155.3041 N   0  0  0  0  0  0  0  0  0  0  0  0
  144.0509  135.3915  151.2567 H   0  0  0  0  0  0  0  0  0  0  0  0
  149.1124  132.0538  155.1546 H   0  0  0  0  0  0  0  0  0  0  0  0
  145.6860  135.3499  154.5449 H   0  0  0  0  0  0  0  0  0  0  0  0
  146.7879  136.7229  154.3236 H   0  0  0  0  0  0  0  0  0  0  0  0
  147.1323  133.3507  152.2835 H   0  0  0  0  0  0  0  0  0  0  0  0
  145.4941  133.6699  152.8570 H   0  0  0  0  0  0  0  0  0  0  0  0
  146.6214  134.2511  150.1006 H   0  0  0  0  0  0  0  0  0  0  0  0
  145.1331  133.3777  150.4805 H   0  0  0  0  0  0  0  0  0  0  0  0
  144.6055  137.0182  149.6882 H   0  0  0  0  0  0  0  0  0  0  0  0
  145.2439  137.0063  152.4491 H   0  0  0  0  0  0  0  0  0  0  0  0
  146.5869  137.0244  151.3120 H   0  0  0  0  0  0  0  0  0  0  0  0
  147.6392  135.5431  152.3545 H   0  0  0  0  0  0  0  0  0  0  0  0
  1  2  2  0  0  0  0
  2  3  1  0  0  0  0
  2  4  1  0  0  0  0
  4 15  1  0  0  0  0
  4  5  2  0  0  0  0
  5  6  1  0  0  0  0
  5 17  1  0  0  0  0
  6  7  1  0  0  0  0
  7  8  1  0  0  0  0
  7 15  2  0  0  0  0
  8  9  1  0  0  0  0
  8 18  1  0  0  0  0
  8 19  1  0  0  0  0
  9 14  1  0  0  0  0
  9 10  1  0  0  0  0
  9 27  1  0  0  0  0
 10 11  1  0  0  0  0
 10 20  1  0  0  0  0
 10 21  1  0  0  0  0
 11 12  1  0  0  0  0
 11 22  1  0  0  0  0
 11 23  1  0  0  0  0
 12 16  1  0  0  0  0
 12 13  1  0  0  0  0
 12 14  1  0  0  0  0
 13 24  1  0  0  0  0
 14 25  1  0  0  0  0
 14 26  1  0  0  0  0
M  CHG  1   3  -1
M  CHG  1   9   1
M  END
> <s_m_source_file>
AV-unprocessed.smi

> <i_m_source_file_index>
52

> <i_lp_mmshare_version>
43012

> <i_f3d_flags>
0

> <s_epik_input>
Tz1DKFtPSF0pYzFbY0hdb2MobjEpW0NIMl1OMltDSDJdW0NIMl1bQ0BIXShbT0hdKVtDSDJdMg==

> <s_epik_cmdline>
J2VwaWtfcHl0aG9uJywgJy1waCcsICc3LjAnLCAnLXRuJywgJzgnLCAnLW1hJywgJzIwMCcsICctbWV0YWxfYmluZGluZycsICctaW1hZScsICc8aW5maWxlLm1hZT4nLCAnLW9tYWUnLCAnPG91dGZpbGUubWFlPic=

> <r_epik_Ionization_Penalty>
0.0376014

> <r_epik_Ionization_Penalty_Charging>
0.0376013

> <r_epik_Ionization_Penalty_Neutral>
1.78687e-08

> <r_epik_State_Penalty>
0.0314164

> <r_epik_Charging_Adjusted_Penalty>
0.0690177

> <i_epik_Tot_Q>
0

> <i_epik_Tot_abs_Q>
2

> <r_epik_Metal_State_Penalty>
0.0314164

> <b_epik_Metal_Only>
0

> <s_lp_Force_Field>
OPLS_2005

> <r_lp_Energy>
18.2584

> <b_lp_Chiralities_Consistent>
1

> <s_lp_Variant>
AV-unprocessed.smi:52-2

> <Gold.Version>
5.8.1

> <Gold.Id.Protein>
6NUR|6NUR_protein|mol2

> <Gold.PLP.Fitness>
39.4574

> <Gold.PLP.PLP>
-20.4994

> <Gold.PLP.part.hbond>
-4.9724

> <Gold.PLP.part.metal>
0.0000

> <Gold.PLP.part.buried>
-2.1593

> <Gold.PLP.part.nonpolar>
-13.5971

> <Gold.PLP.part.repulsive>
0.1593

> <Gold.PLP.ligand.clash>
0.0000

> <Gold.PLP.ligand.torsion>
0.5221

> <Gold.PLP.Chemscore.Hbond>
6.6640

> <Gold.PLP.Chemscore.CHOScore>
0.0000

> <Gold.PLP.Chemscore.Metal>
0.0000

> <Gold.Chemscore.Hbonds>
donor molecule, donor type, donor heavy atom, donor atom, acceptor molecule, acceptor atom, score
      L1  H     9    27       P1  7948  2.00
      L1  H    13    24       P1 10171  1.00
      P1  H  6896  6908       L1     3  1.43
      P1  H 10752 10763       L1     1  2.00

> <Gold.PLP.Chemscore.Internal.Correction>
0.0102

> <Gold.Rescore>
     Score         DG    S(hbond)    S(metal)    S(lipo)     H(rot)  DE(clash)    DE(int)     intcor
     14.76     -16.78       3.75        0.00      33.09       1.99       0.07       1.95       ----

> <Gold.Chemscore.Fitness>
14.7558

> <Gold.Chemscore.DG>
-16.7819

> <Gold.Chemscore.ZeroCoef>
-5.4800

> <Gold.Chemscore.Hbond>
3.7515

> <Gold.Chemscore.Metal>
0.0000

> <Gold.Chemscore.Lipo>
33.0860

> <Gold.Chemscore.Internal_Hbond>
0.0000

> <Gold.Chemscore.DEClash>
0.0727

> <Gold.Chemscore.DEInternal>
1.9533

> <Gold.Chemscore.Rot>
1.9919

> <Gold.Chemscore.Internal.Correction>
   9.000000E+99

> <Gold.Chemscore.Hbonds>
donor molecule, donor type, donor heavy atom, donor atom, acceptor molecule, acceptor atom, score
      L1  H     9    27       P1  7948  0.94
      L1  H    13    24       P1 10171  1.00
      P1  H  6896  6908       L1     3  0.69
      P1  H 10752 10763       L1     1  0.95

> <Gold.Chemscore.Hbond.Weighted>
-12.5299

> <Gold.Chemscore.Metal.Weighted>
-0.0000

> <Gold.Chemscore.Lipo.Weighted>
-3.8711

> <Gold.Chemscore.Internal_Hbond.Weighted>
0.0000

> <Gold.Chemscore.DEClash.Weighted>
0.0727

> <Gold.Chemscore.DEInternal.Weighted>
1.9533

> <Gold.Chemscore.Rot.Weighted>
5.0991

> <Gold.Chemscore.Internal.Correction.Weighted>
   9.000000E+99

> <Gold.Protein.RotatedTorsions>
[ 6907 6896 6895 6894 ] final   86.37 input  -60.11 | X-H torsion
[ 7974 7965 7964 7962 ] final   59.46 input  175.53 | X-H torsion
[ 8008 7997 7996 7995 ] final   82.46 input   59.86 | X-H torsion
[ 10167 10162 10161 10158 ] final  -60.51 input  -65.29 | X-H torsion
[ 10718 10713 10712 10709 ] final  132.65 input   66.30 | X-H torsion
[ 10763 10752 10751 10750 ] final   99.16 input  -60.55 | X-H torsion
[ 11005 11000 10999 10996 ] final -167.26 input  -57.11 | X-H torsion

> <Gold.Protein.ActiveResidues>
 VAL166  LYS551  ARG553  GLY616  TRP617  ASP618  TYR619  PRO620  LYS621  CYS622 
 ASP623  PHE694  ASN695  SER759  ASP760  ASP761  ALA762  ILE779  LEU786  VAL792 
 PHE793  MET794  SER795  GLU796  ALA797  LYS798  CYS799  TRP800  GLU811  SER814 

> <Gold.Protein.RotatedAtoms>
  152.5393  134.2441  159.8873 H   0  0  0  0  0  0  0  0  0  0  0  0  # atno 6907 bound_to 6896
  151.2407  133.4394  159.2615 H   0  0  0  0  0  0  0  0  0  0  0  0  # atno 6908 bound_to 6896
  151.0629  134.9762  159.8326 H   0  0  0  0  0  0  0  0  0  0  0  0  # atno 6909 bound_to 6896
  145.9069  139.3624  143.0559 H   0  0  0  0  0  0  0  0  0  0  0  0  # atno 7974 bound_to 7965
  155.9109  140.3427  155.6098 H   0  0  0  0  0  0  0  0  0  0  0  0  # atno 8008 bound_to 7997
  155.7389  140.0805  157.2274 H   0  0  0  0  0  0  0  0  0  0  0  0  # atno 8009 bound_to 7997
  154.4055  140.1574  156.2580 H   0  0  0  0  0  0  0  0  0  0  0  0  # atno 8010 bound_to 7997
  140.6066  143.2375  151.5806 H   0  0  0  0  0  0  0  0  0  0  0  0  # atno 10167 bound_to 10162
  157.4851  131.1088  150.9631 H   0  0  0  0  0  0  0  0  0  0  0  0  # atno 10718 bound_to 10713
  153.2980  135.4123  155.1227 H   0  0  0  0  0  0  0  0  0  0  0  0  # atno 10763 bound_to 10752
  154.8540  135.3534  154.5891 H   0  0  0  0  0  0  0  0  0  0  0  0  # atno 10764 bound_to 10752
  153.6315  135.7060  153.5332 H   0  0  0  0  0  0  0  0  0  0  0  0  # atno 10765 bound_to 10752
  140.5552  134.5388  157.5131 H   0  0  0  0  0  0  0  0  0  0  0  0  # atno 11005 bound_to 11000
  145.8720  140.9414  143.0645 LP  0  0  0  0  0  0  0  0  0  0  0  0  # atno 17320 bound_to 7965
  144.6740  140.0667  143.7474 LP  0  0  0  0  0  0  0  0  0  0  0  0  # atno 17321 bound_to 7965
  139.5330  144.2862  152.1189 LP  0  0  0  0  0  0  0  0  0  0  0  0  # atno 17342 bound_to 10162
  140.2053  144.4617  150.6411 LP  0  0  0  0  0  0  0  0  0  0  0  0  # atno 17343 bound_to 10162
  157.0352  130.5727  149.5348 LP  0  0  0  0  0  0  0  0  0  0  0  0  # atno 17370 bound_to 10713
  156.0142  130.5235  150.8083 LP  0  0  0  0  0  0  0  0  0  0  0  0  # atno 17371 bound_to 10713
  139.9435  134.7744  156.0620 LP  0  0  0  0  0  0  0  0  0  0  0  0  # atno 17394 bound_to 11000
  141.1147  133.6631  156.3066 LP  0  0  0  0  0  0  0  0  0  0  0  0  # atno 17395 bound_to 11000

$$$$
