AV-unprocessed.smi:1513|AV-procd|sdf|6110|dock3
  -GOLD-   22720 6243D 1   1.00000     0.00000
 Structure written by MMmdl.
 34 35  0  0  0  0  0  0  0  0  3 V2000
  152.8881  137.0346  157.2738 N   0  0  0  0  0  0  0  0  0  0  0  0
  152.8519  138.4652  156.3242 S   0  0  0  0  0  0  0  0  0  0  0  0
  153.9661  138.3500  155.3700 O   0  0  0  0  0  0  0  0  0  0  0  0
  151.4810  138.5670  155.7981 O   0  0  0  0  0  0  0  0  0  0  0  0
  153.1511  139.4874  157.5424 N   0  5  0  0  0  0  0  0  0  0  0  0
  152.0358  139.9972  158.3201 C   0  0  0  0  0  0  0  0  0  0  0  0
  151.9319  141.5247  158.2229 C   0  0  0  0  0  0  0  0  0  0  0  0
  152.8805  142.3114  158.9242 C   0  0  0  0  0  0  0  0  0  0  0  0
  152.8276  143.7172  158.8505 C   0  0  0  0  0  0  0  0  0  0  0  0
  151.8246  144.3235  158.0748 C   0  0  0  0  0  0  0  0  0  0  0  0
  150.9314  143.5555  157.4185 N   0  3  0  0  0  0  0  0  0  0  0  0
  150.9305  142.1986  157.4522 C   0  0  0  0  0  0  0  0  0  0  0  0
  149.9123  141.5461  156.7266 N   0  0  0  0  0  0  0  0  0  0  0  0
  148.5729  141.8198  157.2307 C   0  0  0  0  0  0  0  0  0  0  0  0
  147.5457  140.9380  156.5007 C   0  0  0  0  0  0  0  0  0  0  0  0
  147.6627  141.1304  155.0934 O   0  0  0  0  0  0  0  0  0  0  0  0
  148.9549  140.7740  154.6100 C   0  0  0  0  0  0  0  0  0  0  0  0
  150.0150  141.6652  155.2786 C   0  0  0  0  0  0  0  0  0  0  0  0
  151.9662  136.7860  157.6308 H   0  0  0  0  0  0  0  0  0  0  0  0
  153.6110  137.0655  157.9918 H   0  0  0  0  0  0  0  0  0  0  0  0
  151.0927  139.5483  158.0069 H   0  0  0  0  0  0  0  0  0  0  0  0
  152.1316  139.7561  159.3794 H   0  0  0  0  0  0  0  0  0  0  0  0
  153.6575  141.8580  159.5251 H   0  0  0  0  0  0  0  0  0  0  0  0
  153.5477  144.3205  159.3837 H   0  0  0  0  0  0  0  0  0  0  0  0
  151.7071  145.3915  157.9627 H   0  0  0  0  0  0  0  0  0  0  0  0
  148.5345  141.6278  158.3038 H   0  0  0  0  0  0  0  0  0  0  0  0
  148.3324  142.8732  157.0806 H   0  0  0  0  0  0  0  0  0  0  0  0
  147.6904  139.8855  156.7471 H   0  0  0  0  0  0  0  0  0  0  0  0
  146.5353  141.2007  156.8137 H   0  0  0  0  0  0  0  0  0  0  0  0
  149.1515  139.7189  154.8087 H   0  0  0  0  0  0  0  0  0  0  0  0
  148.9797  140.9058  153.5283 H   0  0  0  0  0  0  0  0  0  0  0  0
  149.8686  142.7038  154.9793 H   0  0  0  0  0  0  0  0  0  0  0  0
  151.0135  141.3696  154.9543 H   0  0  0  0  0  0  0  0  0  0  0  0
  150.2097  144.0220  156.8690 H   0  0  0  0  0  0  0  0  0  0  0  0
  1  2  1  0  0  0  0
  1 19  1  0  0  0  0
  1 20  1  0  0  0  0
  2  3  2  0  0  0  0
  2  4  2  0  0  0  0
  2  5  1  0  0  0  0
  5  6  1  0  0  0  0
  6  7  1  0  0  0  0
  6 21  1  0  0  0  0
  6 22  1  0  0  0  0
  7 12  1  0  0  0  0
  7  8  2  0  0  0  0
  8  9  1  0  0  0  0
  8 23  1  0  0  0  0
  9 10  2  0  0  0  0
  9 24  1  0  0  0  0
 10 11  1  0  0  0  0
 10 25  1  0  0  0  0
 11 12  2  0  0  0  0
 11 34  1  0  0  0  0
 12 13  1  0  0  0  0
 13 18  1  0  0  0  0
 13 14  1  0  0  0  0
 14 15  1  0  0  0  0
 14 26  1  0  0  0  0
 14 27  1  0  0  0  0
 15 16  1  0  0  0  0
 15 28  1  0  0  0  0
 15 29  1  0  0  0  0
 16 17  1  0  0  0  0
 17 18  1  0  0  0  0
 17 30  1  0  0  0  0
 17 31  1  0  0  0  0
 18 32  1  0  0  0  0
 18 33  1  0  0  0  0
M  CHG  1   5  -1
M  CHG  1  11   1
M  END
> <s_m_source_file>
AV-unprocessed.smi

> <i_m_source_file_index>
1513

> <i_lp_mmshare_version>
43012

> <i_f3d_flags>
0

> <s_epik_input>
W05IMl1TKD1PKSg9TylbTkhdW0NIMl1jMVtjSF1bY0hdW2NIXW5jMU4yW0NIMl1bQ0gyXU9bQ0gyXVtDSDJdMg==

> <s_epik_cmdline>
J2VwaWtfcHl0aG9uJywgJy1waCcsICc3LjAnLCAnLXRuJywgJzgnLCAnLW1hJywgJzIwMCcsICctbWV0YWxfYmluZGluZycsICctaW1hZScsICc8aW5maWxlLm1hZT4nLCAnLW9tYWUnLCAnPG91dGZpbGUubWFlPic=

> <r_epik_Ionization_Penalty>
1.53449

> <r_epik_Ionization_Penalty_Charging>
1.53276

> <r_epik_Ionization_Penalty_Neutral>
0.00173209

> <r_epik_State_Penalty>
2.14469

> <r_epik_Charging_Adjusted_Penalty>
3.67745

> <i_epik_Tot_Q>
0

> <i_epik_Tot_abs_Q>
2

> <r_epik_Metal_State_Penalty>
2.50812

> <b_epik_Metal_Only>
0

> <s_lp_Force_Field>
OPLS_2005

> <r_lp_Energy>
20.3057

> <b_lp_Chiralities_Consistent>
1

> <s_lp_Variant>
AV-unprocessed.smi:1513-3

> <Gold.Version>
5.8.1

> <Gold.Id.Protein>
6NUR|6NUR_protein|mol2

> <Gold.PLP.Fitness>
43.1676

> <Gold.PLP.PLP>
-31.2530

> <Gold.PLP.part.hbond>
-3.3335

> <Gold.PLP.part.metal>
0.0000

> <Gold.PLP.part.buried>
-4.0167

> <Gold.PLP.part.nonpolar>
-23.3069

> <Gold.PLP.part.repulsive>
0.1745

> <Gold.PLP.ligand.clash>
0.0000

> <Gold.PLP.ligand.torsion>
0.7172

> <Gold.PLP.Chemscore.Hbond>
4.0786

> <Gold.PLP.Chemscore.CHOScore>
0.0000

> <Gold.PLP.Chemscore.Metal>
0.0000

> <Gold.Chemscore.Hbonds>
donor molecule, donor type, donor heavy atom, donor atom, acceptor molecule, acceptor atom, score
      L1  H    11    34       P1  8028  2.00
      P1  H  7997  8009       L1     5  1.89
      P1  H  7997  8010       L1     3  0.18

> <Gold.PLP.Chemscore.Internal.Correction>
1.1131

> <Gold.Rescore>
     Score         DG    S(hbond)    S(metal)    S(lipo)     H(rot)  DE(clash)    DE(int)     intcor
     13.97     -14.71       1.82        0.00      68.63       1.91       0.00       0.74       ----

> <Gold.Chemscore.Fitness>
13.9672

> <Gold.Chemscore.DG>
-14.7089

> <Gold.Chemscore.ZeroCoef>
-5.4800

> <Gold.Chemscore.Hbond>
1.8245

> <Gold.Chemscore.Metal>
0.0000

> <Gold.Chemscore.Lipo>
68.6334

> <Gold.Chemscore.Internal_Hbond>
0.0000

> <Gold.Chemscore.DEClash>
0.0048

> <Gold.Chemscore.DEInternal>
0.7369

> <Gold.Chemscore.Rot>
1.9121

> <Gold.Chemscore.Internal.Correction>
   9.000000E+99

> <Gold.Chemscore.Hbonds>
donor molecule, donor type, donor heavy atom, donor atom, acceptor molecule, acceptor atom, score
      L1  H    11    34       P1  8028  0.98
      P1  H  7997  8009       L1     5  0.23
      P1  H  7997  8010       L1     3  0.09

> <Gold.Chemscore.Hbond.Weighted>
-6.0939

> <Gold.Chemscore.Metal.Weighted>
-0.0000

> <Gold.Chemscore.Lipo.Weighted>
-8.0301

> <Gold.Chemscore.Internal_Hbond.Weighted>
0.0000

> <Gold.Chemscore.DEClash.Weighted>
0.0048

> <Gold.Chemscore.DEInternal.Weighted>
0.7369

> <Gold.Chemscore.Rot.Weighted>
4.8950

> <Gold.Chemscore.Internal.Correction.Weighted>
   9.000000E+99

> <Gold.Protein.RotatedTorsions>
[ 6907 6896 6895 6894 ] final   95.80 input  -60.11 | X-H torsion
[ 7974 7965 7964 7962 ] final   65.74 input  175.53 | X-H torsion
[ 8008 7997 7996 7995 ] final  145.16 input   59.86 | X-H torsion
[ 10167 10162 10161 10158 ] final   85.72 input  -65.29 | X-H torsion
[ 10718 10713 10712 10709 ] final -178.67 input   66.30 | X-H torsion
[ 10763 10752 10751 10750 ] final   10.39 input  -60.55 | X-H torsion
[ 11005 11000 10999 10996 ] final -116.47 input  -57.11 | X-H torsion

> <Gold.Protein.ActiveResidues>
 VAL166  LYS551  ARG553  GLY616  TRP617  ASP618  TYR619  PRO620  LYS621  CYS622 
 ASP623  PHE694  ASN695  SER759  ASP760  ASP761  ALA762  ILE779  LEU786  VAL792 
 PHE793  MET794  SER795  GLU796  ALA797  LYS798  CYS799  TRP800  GLU811  SER814 

> <Gold.Protein.RotatedAtoms>
  152.5441  134.0984  159.8307 H   0  0  0  0  0  0  0  0  0  0  0  0  # atno 6907 bound_to 6896
  151.1065  133.5197  159.2615 H   0  0  0  0  0  0  0  0  0  0  0  0  # atno 6908 bound_to 6896
  151.1932  135.0420  159.8895 H   0  0  0  0  0  0  0  0  0  0  0  0  # atno 6909 bound_to 6896
  145.8349  139.3161  143.0966 H   0  0  0  0  0  0  0  0  0  0  0  0  # atno 7974 bound_to 7965
  156.2890  140.2216  156.5170 H   0  0  0  0  0  0  0  0  0  0  0  0  # atno 8008 bound_to 7997
  154.7561  140.0477  157.0956 H   0  0  0  0  0  0  0  0  0  0  0  0  # atno 8009 bound_to 7997
  155.0049  140.3106  155.4855 H   0  0  0  0  0  0  0  0  0  0  0  0  # atno 8010 bound_to 7997
  139.8949  144.6364  150.8699 H   0  0  0  0  0  0  0  0  0  0  0  0  # atno 10167 bound_to 10162
  156.8477  130.9708  151.3095 H   0  0  0  0  0  0  0  0  0  0  0  0  # atno 10718 bound_to 10713
  153.2037  135.6859  153.8199 H   0  0  0  0  0  0  0  0  0  0  0  0  # atno 10763 bound_to 10752
  153.7456  135.3231  155.3313 H   0  0  0  0  0  0  0  0  0  0  0  0  # atno 10764 bound_to 10752
  154.8185  135.4668  154.0815 H   0  0  0  0  0  0  0  0  0  0  0  0  # atno 10765 bound_to 10752
  141.0420  133.9821  157.2979 H   0  0  0  0  0  0  0  0  0  0  0  0  # atno 11005 bound_to 11000
  145.9530  140.8894  143.0249 LP  0  0  0  0  0  0  0  0  0  0  0  0  # atno 17320 bound_to 7965
  144.6737  140.1706  143.7414 LP  0  0  0  0  0  0  0  0  0  0  0  0  # atno 17321 bound_to 7965
  140.7719  143.3481  151.2069 LP  0  0  0  0  0  0  0  0  0  0  0  0  # atno 17342 bound_to 10162
  139.7077  143.9428  152.2934 LP  0  0  0  0  0  0  0  0  0  0  0  0  # atno 17343 bound_to 10162
  157.6321  130.8737  149.9292 LP  0  0  0  0  0  0  0  0  0  0  0  0  # atno 17370 bound_to 10713
  156.0845  130.3669  150.0514 LP  0  0  0  0  0  0  0  0  0  0  0  0  # atno 17371 bound_to 10713
  139.9283  135.0201  156.8311 LP  0  0  0  0  0  0  0  0  0  0  0  0  # atno 17394 bound_to 11000
  140.6217  133.9988  155.7621 LP  0  0  0  0  0  0  0  0  0  0  0  0  # atno 17395 bound_to 11000

$$$$
