AV-unprocessed.smi:1701|AV-procd|sdf|6823|dock3
  -GOLD-   22720 8 03D 1   1.00000     0.00000
 Structure written by MMmdl.
 55 57  0  0  0  0  0  0  0  0  3 V2000
  153.1653  141.4461  159.4312 C   0  0  0  0  0  0  0  0  0  0  0  0
  151.7643  141.0105  158.9743 C   0  0  0  0  0  0  0  0  0  0  0  0
  151.5149  141.2890  157.5602 N   0  0  0  0  0  0  0  0  0  0  0  0
  151.0715  142.6424  157.2176 C   0  0  0  0  0  0  0  0  0  0  0  0
  151.8290  143.7371  157.9863 C   0  0  0  0  0  0  0  0  0  0  0  0
  151.0031  140.1992  156.8199 C   0  0  0  0  0  0  0  0  0  0  0  0
  151.1609  140.1012  155.4176 C   0  0  0  0  0  0  0  0  0  0  0  0
  150.6482  138.9825  154.7303 C   0  0  0  0  0  0  0  0  0  0  0  0
  149.9848  137.9615  155.4428 C   0  0  0  0  0  0  0  0  0  0  0  0
  149.4877  136.8588  154.6944 N   0  0  0  0  0  0  0  0  0  0  0  0
  149.0191  135.6715  155.1291 C   0  0  0  0  0  0  0  0  0  0  0  0
  148.9338  135.3374  156.3078 O   0  0  0  0  0  0  0  0  0  0  0  0
  148.6378  134.8373  154.1453 N   0  0  0  0  0  0  0  0  0  0  0  0
  148.0895  133.4860  154.2682 C   0  0  2  0  0  0  0  0  0  0  0  0
  149.1579  132.3760  154.3286 C   0  0  0  0  0  0  0  0  0  0  0  0
  148.5859  131.2100  153.4972 C   0  0  0  0  0  0  0  0  0  0  0  0
  147.2258  131.6347  153.1155 N   0  3  2  0  0  0  0  0  0  0  0  0
  146.6363  131.0113  151.9106 C   0  0  0  0  0  0  0  0  0  0  0  0
  145.1943  131.5263  151.7262 C   0  0  0  0  0  0  0  0  0  0  0  0
  145.1334  133.0677  151.7146 C   0  0  0  0  0  0  0  0  0  0  0  0
  145.8440  133.6620  152.9460 C   0  0  0  0  0  0  0  0  0  0  0  0
  147.2732  133.1024  153.0339 C   0  0  1  0  0  0  0  0  0  0  0  0
  149.8456  138.1092  156.8442 C   0  0  0  0  0  0  0  0  0  0  0  0
  150.3514  139.1986  157.4616 N   0  3  0  0  0  0  0  0  0  0  0  0
  153.3193  141.2018  160.4824 H   0  0  0  0  0  0  0  0  0  0  0  0
  153.3051  142.5219  159.3199 H   0  0  0  0  0  0  0  0  0  0  0  0
  153.9462  140.9452  158.8583 H   0  0  0  0  0  0  0  0  0  0  0  0
  151.6515  139.9385  159.1392 H   0  0  0  0  0  0  0  0  0  0  0  0
  151.0079  141.4799  159.6017 H   0  0  0  0  0  0  0  0  0  0  0  0
  151.1652  142.8025  156.1428 H   0  0  0  0  0  0  0  0  0  0  0  0
  150.0082  142.7341  157.4420 H   0  0  0  0  0  0  0  0  0  0  0  0
  151.4441  144.7233  157.7262 H   0  0  0  0  0  0  0  0  0  0  0  0
  152.8962  143.7361  157.7661 H   0  0  0  0  0  0  0  0  0  0  0  0
  151.7102  143.6112  159.0628 H   0  0  0  0  0  0  0  0  0  0  0  0
  151.6603  140.8783  154.8579 H   0  0  0  0  0  0  0  0  0  0  0  0
  150.7683  138.9128  153.6589 H   0  0  0  0  0  0  0  0  0  0  0  0
  149.5202  136.9729  153.6922 H   0  0  0  0  0  0  0  0  0  0  0  0
  148.7319  135.1886  153.2029 H   0  0  0  0  0  0  0  0  0  0  0  0
  147.4447  133.4178  155.1469 H   0  0  0  0  0  0  0  0  0  0  0  0
  150.1029  132.7078  153.8960 H   0  0  0  0  0  0  0  0  0  0  0  0
  149.3562  132.0789  155.3590 H   0  0  0  0  0  0  0  0  0  0  0  0
  149.1942  131.0550  152.6047 H   0  0  0  0  0  0  0  0  0  0  0  0
  148.5580  130.2736  154.0550 H   0  0  0  0  0  0  0  0  0  0  0  0
  147.2417  131.2479  151.0343 H   0  0  0  0  0  0  0  0  0  0  0  0
  146.6375  129.9264  152.0211 H   0  0  0  0  0  0  0  0  0  0  0  0
  144.7702  131.1278  150.8042 H   0  0  0  0  0  0  0  0  0  0  0  0
  144.5710  131.1495  152.5383 H   0  0  0  0  0  0  0  0  0  0  0  0
  145.6082  133.4414  150.8066 H   0  0  0  0  0  0  0  0  0  0  0  0
  144.0961  133.4023  151.6807 H   0  0  0  0  0  0  0  0  0  0  0  0
  145.8666  134.7502  152.8769 H   0  0  0  0  0  0  0  0  0  0  0  0
  145.2859  133.4156  153.8504 H   0  0  0  0  0  0  0  0  0  0  0  0
  147.8283  133.3814  152.1348 H   0  0  0  0  0  0  0  0  0  0  0  0
  149.3515  137.4132  157.5041 H   0  0  0  0  0  0  0  0  0  0  0  0
  146.6239  131.4103  153.8949 H   0  0  0  0  0  0  0  0  0  0  0  0
  150.2373  139.2704  158.4729 H   0  0  0  0  0  0  0  0  0  0  0  0
  1  2  1  0  0  0  0
  1 25  1  0  0  0  0
  1 26  1  0  0  0  0
  1 27  1  0  0  0  0
  2  3  1  0  0  0  0
  2 28  1  0  0  0  0
  2 29  1  0  0  0  0
  3  4  1  0  0  0  0
  3  6  1  0  0  0  0
  4  5  1  0  0  0  0
  4 30  1  0  0  0  0
  4 31  1  0  0  0  0
  5 32  1  0  0  0  0
  5 33  1  0  0  0  0
  5 34  1  0  0  0  0
  6 24  1  0  0  0  0
  6  7  2  0  0  0  0
  7  8  1  0  0  0  0
  7 35  1  0  0  0  0
  8  9  2  0  0  0  0
  8 36  1  0  0  0  0
  9 10  1  0  0  0  0
  9 23  1  0  0  0  0
 10 11  1  0  0  0  0
 10 37  1  0  0  0  0
 11 12  2  0  0  0  0
 11 13  1  0  0  0  0
 13 14  1  0  0  0  0
 13 38  1  0  0  0  0
 14 22  1  0  0  0  0
 14 15  1  0  0  0  0
 14 39  1  0  0  0  0
 15 16  1  0  0  0  0
 15 40  1  0  0  0  0
 15 41  1  0  0  0  0
 16 17  1  0  0  0  0
 16 42  1  0  0  0  0
 16 43  1  0  0  0  0
 17 22  1  0  0  0  0
 17 18  1  0  0  0  0
 17 54  1  0  0  0  0
 18 19  1  0  0  0  0
 18 44  1  0  0  0  0
 18 45  1  0  0  0  0
 19 20  1  0  0  0  0
 19 46  1  0  0  0  0
 19 47  1  0  0  0  0
 20 21  1  0  0  0  0
 20 48  1  0  0  0  0
 20 49  1  0  0  0  0
 21 22  1  0  0  0  0
 21 50  1  0  0  0  0
 21 51  1  0  0  0  0
 22 52  1  0  0  0  0
 23 24  2  0  0  0  0
 23 53  1  0  0  0  0
 24 55  1  0  0  0  0
M  CHG  1  17   1
M  CHG  1  24   1
M  END
> <s_m_source_file>
AV-unprocessed.smi

> <i_m_source_file_index>
1701

> <i_lp_mmshare_version>
43012

> <i_f3d_flags>
0

> <s_epik_input>
W0NIM11bQ0gyXU4oW0NIMl1bQ0gzXSljMVtjSF1bY0hdYyhbY0hdbjEpW05IXUMoPU8pW05IXVtDQEhdKFtDSDJdW0NIMl0yKVtDQEBIXShOMjMpW0NIMl1bQ0gyXVtDSDJdW0NIMl0z

> <s_epik_cmdline>
J2VwaWtfcHl0aG9uJywgJy1waCcsICc3LjAnLCAnLXRuJywgJzgnLCAnLW1hJywgJzIwMCcsICctbWV0YWxfYmluZGluZycsICctaW1hZScsICc8aW5maWxlLm1hZT4nLCAnLW9tYWUnLCAnPG91dGZpbGUubWFlPic=

> <r_lp_tautomer_probability>
0.999994

> <r_epik_Ionization_Penalty>
0.302862

> <r_epik_Ionization_Penalty_Charging>
0.302842

> <r_epik_Ionization_Penalty_Neutral>
1.95166e-05

> <r_epik_State_Penalty>
0.019791

> <r_epik_Charging_Adjusted_Penalty>
0.322633

> <i_epik_Tot_Q>
2

> <i_epik_Tot_abs_Q>
2

> <r_epik_Metal_State_Penalty>
0.0536763

> <b_epik_Metal_Only>
0

> <s_lp_Force_Field>
OPLS_2005

> <r_lp_Energy>
62.5639

> <b_lp_Chiralities_Consistent>
1

> <s_lp_Variant>
AV-unprocessed.smi:1701-3

> <Gold.Version>
5.8.1

> <Gold.Id.Protein>
6NUR|6NUR_protein|mol2

> <Gold.PLP.Fitness>
41.5042

> <Gold.PLP.PLP>
-37.5266

> <Gold.PLP.part.hbond>
-2.0000

> <Gold.PLP.part.metal>
0.0000

> <Gold.PLP.part.buried>
-1.6505

> <Gold.PLP.part.nonpolar>
-34.0659

> <Gold.PLP.part.repulsive>
0.0755

> <Gold.PLP.ligand.clash>
0.0000

> <Gold.PLP.ligand.torsion>
1.4042

> <Gold.PLP.Chemscore.Hbond>
1.9600

> <Gold.PLP.Chemscore.CHOScore>
0.0000

> <Gold.PLP.Chemscore.Metal>
0.0000

> <Gold.Chemscore.Hbonds>
donor molecule, donor type, donor heavy atom, donor atom, acceptor molecule, acceptor atom, score
      L1  H    10    37       P1  7948  0.94
      L1  H    13    38       P1  7948  1.00

> <Gold.PLP.Chemscore.Internal.Correction>
0.9060

> <Gold.Rescore>
     Score         DG    S(hbond)    S(metal)    S(lipo)     H(rot)  DE(clash)    DE(int)     intcor
     17.46     -20.04       1.87        0.00      99.66       1.30       0.06       2.52       ----

> <Gold.Chemscore.Fitness>
17.4648

> <Gold.Chemscore.DG>
-20.0406

> <Gold.Chemscore.ZeroCoef>
-5.4800

> <Gold.Chemscore.Hbond>
1.8663

> <Gold.Chemscore.Metal>
0.0000

> <Gold.Chemscore.Lipo>
99.6608

> <Gold.Chemscore.Internal_Hbond>
0.0000

> <Gold.Chemscore.DEClash>
0.0598

> <Gold.Chemscore.DEInternal>
2.5160

> <Gold.Chemscore.Rot>
1.3020

> <Gold.Chemscore.Internal.Correction>
   9.000000E+99

> <Gold.Chemscore.Hbonds>
donor molecule, donor type, donor heavy atom, donor atom, acceptor molecule, acceptor atom, score
      L1  H    10    37       P1  7948  0.75
      L1  H    13    38       P1  7948  0.65

> <Gold.Chemscore.Hbond.Weighted>
-6.2334

> <Gold.Chemscore.Metal.Weighted>
-0.0000

> <Gold.Chemscore.Lipo.Weighted>
-11.6603

> <Gold.Chemscore.Internal_Hbond.Weighted>
0.0000

> <Gold.Chemscore.DEClash.Weighted>
0.0598

> <Gold.Chemscore.DEInternal.Weighted>
2.5160

> <Gold.Chemscore.Rot.Weighted>
3.3330

> <Gold.Chemscore.Internal.Correction.Weighted>
   9.000000E+99

> <Gold.Protein.RotatedTorsions>
[ 6907 6896 6895 6894 ] final   -1.09 input  -60.11 | X-H torsion
[ 7974 7965 7964 7962 ] final   39.96 input  175.53 | X-H torsion
[ 8008 7997 7996 7995 ] final  -58.20 input   59.86 | X-H torsion
[ 10167 10162 10161 10158 ] final    4.98 input  -65.29 | X-H torsion
[ 10718 10713 10712 10709 ] final  -26.66 input   66.30 | X-H torsion
[ 10763 10752 10751 10750 ] final  137.86 input  -60.55 | X-H torsion
[ 11005 11000 10999 10996 ] final  -98.25 input  -57.11 | X-H torsion

> <Gold.Protein.ActiveResidues>
 VAL166  LYS551  ARG553  GLY616  TRP617  ASP618  TYR619  PRO620  LYS621  CYS622 
 ASP623  PHE694  ASN695  SER759  ASP760  ASP761  ALA762  ILE779  LEU786  VAL792 
 PHE793  MET794  SER795  GLU796  ALA797  LYS798  CYS799  TRP800  GLU811  SER814 

> <Gold.Protein.RotatedAtoms>
  151.5518  135.1067  159.9951 H   0  0  0  0  0  0  0  0  0  0  0  0  # atno 6907 bound_to 6896
  152.4488  133.7584  159.6743 H   0  0  0  0  0  0  0  0  0  0  0  0  # atno 6908 bound_to 6896
  150.8410  133.7868  159.3085 H   0  0  0  0  0  0  0  0  0  0  0  0  # atno 6909 bound_to 6896
  146.0943  139.5589  142.9455 H   0  0  0  0  0  0  0  0  0  0  0  0  # atno 7974 bound_to 7965
  154.4299  140.1089  156.5919 H   0  0  0  0  0  0  0  0  0  0  0  0  # atno 8008 bound_to 7997
  155.6003  140.3493  155.4573 H   0  0  0  0  0  0  0  0  0  0  0  0  # atno 8009 bound_to 7997
  156.0178  140.1233  157.0378 H   0  0  0  0  0  0  0  0  0  0  0  0  # atno 8010 bound_to 7997
  140.6506  143.7553  150.7569 H   0  0  0  0  0  0  0  0  0  0  0  0  # atno 10167 bound_to 10162
  156.4482  130.4478  149.7007 H   0  0  0  0  0  0  0  0  0  0  0  0  # atno 10718 bound_to 10713
  153.8800  135.3045  155.3445 H   0  0  0  0  0  0  0  0  0  0  0  0  # atno 10763 bound_to 10752
  154.7766  135.4858  153.9759 H   0  0  0  0  0  0  0  0  0  0  0  0  # atno 10764 bound_to 10752
  153.1357  135.6813  153.9204 H   0  0  0  0  0  0  0  0  0  0  0  0  # atno 10765 bound_to 10752
  141.1351  133.8231  157.0814 H   0  0  0  0  0  0  0  0  0  0  0  0  # atno 11005 bound_to 11000
  145.5979  141.0360  143.2034 LP  0  0  0  0  0  0  0  0  0  0  0  0  # atno 17320 bound_to 7965
  144.7383  139.7521  143.7320 LP  0  0  0  0  0  0  0  0  0  0  0  0  # atno 17321 bound_to 7965
  140.1203  143.4618  152.2317 LP  0  0  0  0  0  0  0  0  0  0  0  0  # atno 17342 bound_to 10162
  139.5721  144.7468  151.3862 LP  0  0  0  0  0  0  0  0  0  0  0  0  # atno 17343 bound_to 10162
  156.3844  130.7595  151.2591 LP  0  0  0  0  0  0  0  0  0  0  0  0  # atno 17370 bound_to 10713
  157.7504  131.0286  150.4057 LP  0  0  0  0  0  0  0  0  0  0  0  0  # atno 17371 bound_to 10713
  140.0449  134.9835  157.1030 LP  0  0  0  0  0  0  0  0  0  0  0  0  # atno 17394 bound_to 11000
  140.4078  134.2013  155.7163 LP  0  0  0  0  0  0  0  0  0  0  0  0  # atno 17395 bound_to 11000

$$$$
