AV-unprocessed.smi:1120|AV-procd|sdf|4819|dock9
  -GOLD-   22720 3373D 1   1.00000     0.00000
 Structure written by MMmdl.
 48 49  0  0  0  0  0  0  0  0  1 V2000
  146.4377  133.1519  152.1583 C   0  0  0  0  0  0  0  0  0  0  0  0
  147.2775  133.2567  153.4391 C   0  0  2  0  0  0  0  0  0  0  0  0
  147.0479  134.6002  154.1544 C   0  0  0  0  0  0  0  0  0  0  0  0
  147.8685  134.7073  155.4509 C   0  0  0  0  0  0  0  0  0  0  0  0
  149.3681  134.4340  155.2259 C   0  0  2  0  0  0  0  0  0  0  0  0
  150.0172  135.5782  154.5792 N   0  0  0  0  0  0  0  0  0  0  0  0
  150.8808  136.7853  155.4617 S   0  0  0  0  0  0  0  0  0  0  0  0
  151.8870  136.0778  156.2678 O   0  0  0  0  0  0  0  0  0  0  0  0
  151.2902  137.8353  154.5155 O   0  0  0  0  0  0  0  0  0  0  0  0
  149.5930  137.4407  156.6177 C   0  0  0  0  0  0  0  0  0  0  0  0
  149.6035  138.9687  156.6531 C   0  0  0  0  0  0  0  0  0  0  0  0
  148.7513  139.6064  156.0353 O   0  0  0  0  0  0  0  0  0  0  0  0
  150.5789  139.5441  157.3732 N   0  0  0  0  0  0  0  0  0  0  0  0
  150.7654  140.9818  157.5321 C   0  0  0  0  0  0  0  0  0  0  0  0
  152.0937  141.3073  158.2347 C   0  0  0  0  0  0  0  0  0  0  0  0
  152.0374  142.6185  158.9952 C   0  0  0  0  0  0  0  0  0  0  0  0
  152.2461  142.6520  160.3904 C   0  0  0  0  0  0  0  0  0  0  0  0
  152.1812  143.8954  161.0489 C   0  0  0  0  0  0  0  0  0  0  0  0
  151.9104  145.0513  160.2912 C   0  0  0  0  0  0  0  0  0  0  0  0
  151.7153  144.9111  158.9027 C   0  0  0  0  0  0  0  0  0  0  0  0
  151.7754  143.7238  158.2615 N   0  0  0  0  0  0  0  0  0  0  0  0
  149.6232  133.1421  154.4270 C   0  0  0  0  0  0  0  0  0  0  0  0
  148.7760  133.0618  153.1462 C   0  0  0  0  0  0  0  0  0  0  0  0
  146.7113  133.9247  151.4396 H   0  0  0  0  0  0  0  0  0  0  0  0
  145.3749  133.2605  152.3758 H   0  0  0  0  0  0  0  0  0  0  0  0
  146.5769  132.1840  151.6759 H   0  0  0  0  0  0  0  0  0  0  0  0
  146.9564  132.4574  154.1087 H   0  0  0  0  0  0  0  0  0  0  0  0
  147.3125  135.4224  153.4883 H   0  0  0  0  0  0  0  0  0  0  0  0
  145.9893  134.7232  154.3859 H   0  0  0  0  0  0  0  0  0  0  0  0
  147.7212  135.6855  155.9102 H   0  0  0  0  0  0  0  0  0  0  0  0
  147.4845  133.9794  156.1664 H   0  0  0  0  0  0  0  0  0  0  0  0
  149.8323  134.3118  156.2042 H   0  0  0  0  0  0  0  0  0  0  0  0
  149.7042  135.8331  153.6425 H   0  0  0  0  0  0  0  0  0  0  0  0
  148.6197  137.0451  156.3265 H   0  0  0  0  0  0  0  0  0  0  0  0
  149.8177  137.0644  157.6159 H   0  0  0  0  0  0  0  0  0  0  0  0
  151.2393  138.9445  157.8463 H   0  0  0  0  0  0  0  0  0  0  0  0
  150.7483  141.4344  156.5402 H   0  0  0  0  0  0  0  0  0  0  0  0
  149.9266  141.4109  158.0831 H   0  0  0  0  0  0  0  0  0  0  0  0
  152.3632  140.5057  158.9239 H   0  0  0  0  0  0  0  0  0  0  0  0
  152.8988  141.3642  157.5022 H   0  0  0  0  0  0  0  0  0  0  0  0
  152.4506  141.7476  160.9444 H   0  0  0  0  0  0  0  0  0  0  0  0
  152.3362  143.9610  162.1156 H   0  0  0  0  0  0  0  0  0  0  0  0
  151.8533  146.0213  160.7625 H   0  0  0  0  0  0  0  0  0  0  0  0
  151.5055  145.7757  158.2904 H   0  0  0  0  0  0  0  0  0  0  0  0
  150.6828  133.0442  154.1881 H   0  0  0  0  0  0  0  0  0  0  0  0
  149.3767  132.2867  155.0568 H   0  0  0  0  0  0  0  0  0  0  0  0
  148.9394  132.0972  152.6645 H   0  0  0  0  0  0  0  0  0  0  0  0
  149.1142  133.8189  152.4377 H   0  0  0  0  0  0  0  0  0  0  0  0
  1  2  1  0  0  0  0
  1 24  1  0  0  0  0
  1 25  1  0  0  0  0
  1 26  1  0  0  0  0
  2 23  1  0  0  0  0
  2  3  1  0  0  0  0
  2 27  1  0  0  0  0
  3  4  1  0  0  0  0
  3 28  1  0  0  0  0
  3 29  1  0  0  0  0
  4  5  1  0  0  0  0
  4 30  1  0  0  0  0
  4 31  1  0  0  0  0
  5  6  1  0  0  0  0
  5 22  1  0  0  0  0
  5 32  1  0  0  0  0
  6  7  1  0  0  0  0
  6 33  1  0  0  0  0
  7  8  2  0  0  0  0
  7  9  2  0  0  0  0
  7 10  1  0  0  0  0
 10 11  1  0  0  0  0
 10 34  1  0  0  0  0
 10 35  1  0  0  0  0
 11 12  2  0  0  0  0
 11 13  1  0  0  0  0
 13 14  1  0  0  0  0
 13 36  1  0  0  0  0
 14 15  1  0  0  0  0
 14 37  1  0  0  0  0
 14 38  1  0  0  0  0
 15 16  1  0  0  0  0
 15 39  1  0  0  0  0
 15 40  1  0  0  0  0
 16 21  1  0  0  0  0
 16 17  2  0  0  0  0
 17 18  1  0  0  0  0
 17 41  1  0  0  0  0
 18 19  2  0  0  0  0
 18 42  1  0  0  0  0
 19 20  1  0  0  0  0
 19 43  1  0  0  0  0
 20 21  2  0  0  0  0
 20 44  1  0  0  0  0
 22 23  1  0  0  0  0
 22 45  1  0  0  0  0
 22 46  1  0  0  0  0
 23 47  1  0  0  0  0
 23 48  1  0  0  0  0
M  END
> <s_m_source_file>
AV-unprocessed.smi

> <i_m_source_file_index>
1120

> <i_lp_mmshare_version>
43012

> <i_f3d_flags>
0

> <s_epik_input>
W0NIM11bQ0BASF0xW0NIMl1bQ0gyXVtDQEhdKFtDSDJdW0NIMl0xKVtOSF1TKD1PKSg9TylbQ0gyXUMoPU8pW05IXVtDSDJdW0NIMl1jMltjSF1bY0hdW2NIXVtjSF1uMg==

> <s_epik_cmdline>
J2VwaWtfcHl0aG9uJywgJy1waCcsICc3LjAnLCAnLXRuJywgJzgnLCAnLW1hJywgJzIwMCcsICctbWV0YWxfYmluZGluZycsICctaW1hZScsICc8aW5maWxlLm1hZT4nLCAnLW9tYWUnLCAnPG91dGZpbGUubWFlPic=

> <r_epik_Ionization_Penalty>
0.0216068

> <r_epik_Ionization_Penalty_Charging>
0

> <r_epik_Ionization_Penalty_Neutral>
0.0216068

> <r_epik_State_Penalty>
0.01735

> <r_epik_Charging_Adjusted_Penalty>
0.01735

> <i_epik_Tot_Q>
0

> <i_epik_Tot_abs_Q>
0

> <r_epik_Metal_State_Penalty>
0.0535325

> <b_epik_Metal_Only>
0

> <s_lp_Force_Field>
OPLS_2005

> <r_lp_Energy>
6.87343

> <b_lp_Chiralities_Consistent>
1

> <s_lp_Variant>
AV-unprocessed.smi:1120-2

> <Gold.Version>
5.8.1

> <Gold.Id.Protein>
6NUR|6NUR_protein|mol2

> <Gold.PLP.Fitness>
44.1950

> <Gold.PLP.PLP>
-40.4506

> <Gold.PLP.part.hbond>
-2.3066

> <Gold.PLP.part.metal>
0.0000

> <Gold.PLP.part.buried>
-7.3035

> <Gold.PLP.part.nonpolar>
-32.5729

> <Gold.PLP.part.repulsive>
0.3430

> <Gold.PLP.ligand.clash>
0.0000

> <Gold.PLP.ligand.torsion>
1.4860

> <Gold.PLP.Chemscore.Hbond>
1.8500

> <Gold.PLP.Chemscore.CHOScore>
0.0000

> <Gold.PLP.Chemscore.Metal>
0.0000

> <Gold.Chemscore.Hbonds>
donor molecule, donor type, donor heavy atom, donor atom, acceptor molecule, acceptor atom, score
      L1  H     6    33       P1  7948  0.90
      P1  H 10752 10764       L1     8  0.95

> <Gold.PLP.Chemscore.Internal.Correction>
1.1664

> <Gold.Rescore>
     Score         DG    S(hbond)    S(metal)    S(lipo)     H(rot)  DE(clash)    DE(int)     intcor
     17.17     -18.71       1.86        0.00     102.01       1.92       0.05       1.48       ----

> <Gold.Chemscore.Fitness>
17.1746

> <Gold.Chemscore.DG>
-18.7088

> <Gold.Chemscore.ZeroCoef>
-5.4800

> <Gold.Chemscore.Hbond>
1.8619

> <Gold.Chemscore.Metal>
0.0000

> <Gold.Chemscore.Lipo>
102.0147

> <Gold.Chemscore.Internal_Hbond>
0.0000

> <Gold.Chemscore.DEClash>
0.0507

> <Gold.Chemscore.DEInternal>
1.4834

> <Gold.Chemscore.Rot>
1.9241

> <Gold.Chemscore.Internal.Correction>
   9.000000E+99

> <Gold.Chemscore.Hbonds>
donor molecule, donor type, donor heavy atom, donor atom, acceptor molecule, acceptor atom, score
      L1  H     6    33       P1  7948  0.18
      P1  H 10752 10764       L1     8  0.21

> <Gold.Chemscore.Hbond.Weighted>
-6.2187

> <Gold.Chemscore.Metal.Weighted>
-0.0000

> <Gold.Chemscore.Lipo.Weighted>
-11.9357

> <Gold.Chemscore.Internal_Hbond.Weighted>
0.0000

> <Gold.Chemscore.DEClash.Weighted>
0.0507

> <Gold.Chemscore.DEInternal.Weighted>
1.4834

> <Gold.Chemscore.Rot.Weighted>
4.9256

> <Gold.Chemscore.Internal.Correction.Weighted>
   9.000000E+99

> <Gold.Protein.RotatedTorsions>
[ 6907 6896 6895 6894 ] final  -51.30 input  -60.11 | X-H torsion
[ 7974 7965 7964 7962 ] final   29.38 input  175.53 | X-H torsion
[ 8008 7997 7996 7995 ] final -152.36 input   59.86 | X-H torsion
[ 10167 10162 10161 10158 ] final  142.83 input  -65.29 | X-H torsion
[ 10718 10713 10712 10709 ] final -126.90 input   66.30 | X-H torsion
[ 10763 10752 10751 10750 ] final  -43.81 input  -60.55 | X-H torsion
[ 11005 11000 10999 10996 ] final -162.81 input  -57.11 | X-H torsion

> <Gold.Protein.ActiveResidues>
 VAL166  LYS551  ARG553  GLY616  TRP617  ASP618  TYR619  PRO620  LYS621  CYS622 
 ASP623  PHE694  ASN695  SER759  ASP760  ASP761  ALA762  ILE779  LEU786  VAL792 
 PHE793  MET794  SER795  GLU796  ALA797  LYS798  CYS799  TRP800  GLU811  SER814 

> <Gold.Protein.RotatedAtoms>
  150.8625  134.7980  159.7092 H   0  0  0  0  0  0  0  0  0  0  0  0  # atno 6907 bound_to 6896
  152.4657  134.5077  159.9754 H   0  0  0  0  0  0  0  0  0  0  0  0  # atno 6908 bound_to 6896
  151.5179  133.3434  159.2932 H   0  0  0  0  0  0  0  0  0  0  0  0  # atno 6909 bound_to 6896
  146.1674  139.6929  142.8991 H   0  0  0  0  0  0  0  0  0  0  0  0  # atno 7974 bound_to 7965
  155.6539  140.0715  157.2577 H   0  0  0  0  0  0  0  0  0  0  0  0  # atno 8008 bound_to 7997
  154.4156  140.1728  156.1754 H   0  0  0  0  0  0  0  0  0  0  0  0  # atno 8009 bound_to 7997
  155.9754  140.3358  155.6617 H   0  0  0  0  0  0  0  0  0  0  0  0  # atno 8010 bound_to 7997
  139.4984  144.6081  151.6333 H   0  0  0  0  0  0  0  0  0  0  0  0  # atno 10167 bound_to 10162
  156.1807  130.6730  151.0301 H   0  0  0  0  0  0  0  0  0  0  0  0  # atno 10718 bound_to 10713
  154.0017  135.6692  153.4759 H   0  0  0  0  0  0  0  0  0  0  0  0  # atno 10763 bound_to 10752
  153.0660  135.5001  154.8196 H   0  0  0  0  0  0  0  0  0  0  0  0  # atno 10764 bound_to 10752
  154.7049  135.3086  154.9249 H   0  0  0  0  0  0  0  0  0  0  0  0  # atno 10765 bound_to 10752
  140.6051  134.4908  157.5209 H   0  0  0  0  0  0  0  0  0  0  0  0  # atno 11005 bound_to 11000
  145.4430  141.0423  143.2847 LP  0  0  0  0  0  0  0  0  0  0  0  0  # atno 17320 bound_to 7965
  144.8113  139.5957  143.7028 LP  0  0  0  0  0  0  0  0  0  0  0  0  # atno 17321 bound_to 7965
  140.5748  144.0047  150.6236 LP  0  0  0  0  0  0  0  0  0  0  0  0  # atno 17342 bound_to 10162
  140.3176  143.3157  152.0816 LP  0  0  0  0  0  0  0  0  0  0  0  0  # atno 17343 bound_to 10162
  157.6866  131.0823  150.7224 LP  0  0  0  0  0  0  0  0  0  0  0  0  # atno 17370 bound_to 10713
  156.7282  130.4701  149.5506 LP  0  0  0  0  0  0  0  0  0  0  0  0  # atno 17371 bound_to 10713
  139.9216  134.8138  156.1194 LP  0  0  0  0  0  0  0  0  0  0  0  0  # atno 17394 bound_to 11000
  141.0846  133.6739  156.2409 LP  0  0  0  0  0  0  0  0  0  0  0  0  # atno 17395 bound_to 11000

$$$$
