AV-unprocessed.smi:667|AV-procd|sdf|3258|dock2
  -GOLD-   22720 0213D 1   1.00000     0.00000
 Structure written by MMmdl.
 48 49  0  0  0  0  0  0  0  0  1 V2000
  148.2915  133.9815  157.6036 C   0  0  0  0  0  0  0  0  0  0  0  0
  147.7422  134.4698  158.9139 C   0  0  0  0  0  0  0  0  0  0  0  0
  147.2304  133.6010  159.7698 N   0  0  0  0  0  0  0  0  0  0  0  0
  146.8400  134.3455  160.8239 N   0  0  0  0  0  0  0  0  0  0  0  0
  146.2266  133.6955  161.9658 C   0  0  0  0  0  0  0  0  0  0  0  0
  147.1078  135.6873  160.6346 C   0  0  0  0  0  0  0  0  0  0  0  0
  146.7753  136.7204  161.6622 C   0  0  0  0  0  0  0  0  0  0  0  0
  147.6938  135.8084  159.4030 C   0  0  0  0  0  0  0  0  0  0  0  0
  148.1849  137.0561  158.7085 C   0  0  0  0  0  0  0  0  0  0  0  0
  149.7107  137.0545  158.5627 C   0  0  0  0  0  0  0  0  0  0  0  0
  150.4136  136.7259  159.5177 O   0  0  0  0  0  0  0  0  0  0  0  0
  150.2150  137.4553  157.3843 N   0  0  0  0  0  0  0  0  0  0  0  0
  151.6322  137.6153  157.0829 C   0  0  0  0  0  0  0  0  0  0  0  0
  151.8669  138.6525  155.9651 C   0  0  1  0  0  0  0  0  0  0  0  0
  151.6567  138.0713  154.5685 C   0  0  0  0  0  0  0  0  0  0  0  0
  150.4293  138.8026  154.0369 C   0  0  0  0  0  0  0  0  0  0  0  0
  150.5159  140.0714  154.6589 O   0  0  0  0  0  0  0  0  0  0  0  0
  150.8873  139.8474  156.0121 C   0  0  2  0  0  0  0  0  0  0  0  0
  151.4247  141.1464  156.6573 C   0  0  0  0  0  0  0  0  0  0  0  0
  151.9959  140.8676  158.0561 C   0  0  0  0  0  0  0  0  0  0  0  0
  150.3812  142.2773  156.7149 C   0  0  0  0  0  0  0  0  0  0  0  0
  149.2965  134.3680  157.4348 H   0  0  0  0  0  0  0  0  0  0  0  0
  147.6666  134.3101  156.7733 H   0  0  0  0  0  0  0  0  0  0  0  0
  148.3478  132.8931  157.5672 H   0  0  0  0  0  0  0  0  0  0  0  0
  145.2751  134.1753  162.1952 H   0  0  0  0  0  0  0  0  0  0  0  0
  146.8853  133.7778  162.8306 H   0  0  0  0  0  0  0  0  0  0  0  0
  146.0462  132.6401  161.7570 H   0  0  0  0  0  0  0  0  0  0  0  0
  147.1402  137.7038  161.3658 H   0  0  0  0  0  0  0  0  0  0  0  0
  147.2287  136.4734  162.6224 H   0  0  0  0  0  0  0  0  0  0  0  0
  145.6968  136.7918  161.8039 H   0  0  0  0  0  0  0  0  0  0  0  0
  147.7512  137.1516  157.7128 H   0  0  0  0  0  0  0  0  0  0  0  0
  147.8817  137.9512  159.2529 H   0  0  0  0  0  0  0  0  0  0  0  0
  149.5636  137.6989  156.6521 H   0  0  0  0  0  0  0  0  0  0  0  0
  152.1751  137.8995  157.9860 H   0  0  0  0  0  0  0  0  0  0  0  0
  152.0259  136.6437  156.7824 H   0  0  0  0  0  0  0  0  0  0  0  0
  152.8989  138.9958  156.0276 H   0  0  0  0  0  0  0  0  0  0  0  0
  152.5199  138.3042  153.9434 H   0  0  0  0  0  0  0  0  0  0  0  0
  151.5267  136.9885  154.5589 H   0  0  0  0  0  0  0  0  0  0  0  0
  150.4243  138.8844  152.9499 H   0  0  0  0  0  0  0  0  0  0  0  0
  149.5109  138.3031  154.3502 H   0  0  0  0  0  0  0  0  0  0  0  0
  149.9839  139.5354  156.5400 H   0  0  0  0  0  0  0  0  0  0  0  0
  152.2550  141.5021  156.0473 H   0  0  0  0  0  0  0  0  0  0  0  0
  151.2215  140.5121  158.7365 H   0  0  0  0  0  0  0  0  0  0  0  0
  152.4325  141.7677  158.4896 H   0  0  0  0  0  0  0  0  0  0  0  0
  152.7794  140.1101  158.0195 H   0  0  0  0  0  0  0  0  0  0  0  0
  149.5139  141.9899  157.3100 H   0  0  0  0  0  0  0  0  0  0  0  0
  150.0258  142.5588  155.7245 H   0  0  0  0  0  0  0  0  0  0  0  0
  150.8059  143.1738  157.1672 H   0  0  0  0  0  0  0  0  0  0  0  0
  1  2  1  0  0  0  0
  1 22  1  0  0  0  0
  1 23  1  0  0  0  0
  1 24  1  0  0  0  0
  2  8  1  0  0  0  0
  2  3  2  0  0  0  0
  3  4  1  0  0  0  0
  4  5  1  0  0  0  0
  4  6  1  0  0  0  0
  5 25  1  0  0  0  0
  5 26  1  0  0  0  0
  5 27  1  0  0  0  0
  6  7  1  0  0  0  0
  6  8  2  0  0  0  0
  7 28  1  0  0  0  0
  7 29  1  0  0  0  0
  7 30  1  0  0  0  0
  8  9  1  0  0  0  0
  9 10  1  0  0  0  0
  9 31  1  0  0  0  0
  9 32  1  0  0  0  0
 10 11  2  0  0  0  0
 10 12  1  0  0  0  0
 12 13  1  0  0  0  0
 12 33  1  0  0  0  0
 13 14  1  0  0  0  0
 13 34  1  0  0  0  0
 13 35  1  0  0  0  0
 14 18  1  0  0  0  0
 14 15  1  0  0  0  0
 14 36  1  0  0  0  0
 15 16  1  0  0  0  0
 15 37  1  0  0  0  0
 15 38  1  0  0  0  0
 16 17  1  0  0  0  0
 16 39  1  0  0  0  0
 16 40  1  0  0  0  0
 17 18  1  0  0  0  0
 18 19  1  0  0  0  0
 18 41  1  0  0  0  0
 19 20  1  0  0  0  0
 19 21  1  0  0  0  0
 19 42  1  0  0  0  0
 20 43  1  0  0  0  0
 20 44  1  0  0  0  0
 20 45  1  0  0  0  0
 21 46  1  0  0  0  0
 21 47  1  0  0  0  0
 21 48  1  0  0  0  0
M  END
> <s_m_source_file>
AV-unprocessed.smi

> <i_m_source_file_index>
667

> <i_lp_mmshare_version>
43012

> <i_f3d_flags>
0

> <s_epik_input>
W0NIM11jMW5uKFtDSDNdKWMoW0NIM10pYzFbQ0gyXUMoPU8pW05IXVtDSDJdW0NAQEhdMltDSDJdW0NIMl1PW0NASF0yW0NIXShbQ0gzXSlbQ0gzXQ==

> <s_epik_cmdline>
J2VwaWtfcHl0aG9uJywgJy1waCcsICc3LjAnLCAnLXRuJywgJzgnLCAnLW1hJywgJzIwMCcsICctbWV0YWxfYmluZGluZycsICctaW1hZScsICc8aW5maWxlLm1hZT4nLCAnLW9tYWUnLCAnPG91dGZpbGUubWFlPic=

> <r_lp_tautomer_probability>
1

> <r_epik_Ionization_Penalty>
0.00315488

> <r_epik_Ionization_Penalty_Charging>
0

> <r_epik_Ionization_Penalty_Neutral>
0.00315488

> <r_epik_State_Penalty>
0.00222269

> <r_epik_Charging_Adjusted_Penalty>
0.00222269

> <i_epik_Tot_Q>
0

> <i_epik_Tot_abs_Q>
0

> <r_epik_Metal_State_Penalty>
-0

> <b_epik_Metal_Only>
0

> <s_lp_Force_Field>
OPLS_2005

> <r_lp_Energy>
15.0171

> <b_lp_Chiralities_Consistent>
1

> <s_lp_Variant>
AV-unprocessed.smi:667-4

> <Gold.Version>
5.8.1

> <Gold.Id.Protein>
6NUR|6NUR_protein|mol2

> <Gold.PLP.Fitness>
40.1933

> <Gold.PLP.PLP>
-35.5423

> <Gold.PLP.part.hbond>
-2.0000

> <Gold.PLP.part.metal>
0.0000

> <Gold.PLP.part.buried>
-2.4318

> <Gold.PLP.part.nonpolar>
-30.1981

> <Gold.PLP.part.repulsive>
0.1122

> <Gold.PLP.ligand.clash>
0.0000

> <Gold.PLP.ligand.torsion>
0.6981

> <Gold.PLP.Chemscore.Hbond>
2.0000

> <Gold.PLP.Chemscore.CHOScore>
0.0000

> <Gold.PLP.Chemscore.Metal>
0.0000

> <Gold.Chemscore.Hbonds>
donor molecule, donor type, donor heavy atom, donor atom, acceptor molecule, acceptor atom, score
      P1  H  6896  6909       L1    11  1.00
      P1  H  7989  7998       L1    17  0.95

> <Gold.PLP.Chemscore.Internal.Correction>
0.0473

> <Gold.Rescore>
     Score         DG    S(hbond)    S(metal)    S(lipo)     H(rot)  DE(clash)    DE(int)     intcor
     17.28     -18.32       1.81        0.00      91.45       1.52       0.11       0.94       ----

> <Gold.Chemscore.Fitness>
17.2757

> <Gold.Chemscore.DG>
-18.3198

> <Gold.Chemscore.ZeroCoef>
-5.4800

> <Gold.Chemscore.Hbond>
1.8068

> <Gold.Chemscore.Metal>
0.0000

> <Gold.Chemscore.Lipo>
91.4496

> <Gold.Chemscore.Internal_Hbond>
0.0000

> <Gold.Chemscore.DEClash>
0.1058

> <Gold.Chemscore.DEInternal>
0.9384

> <Gold.Chemscore.Rot>
1.5213

> <Gold.Chemscore.Internal.Correction>
   9.000000E+99

> <Gold.Chemscore.Hbonds>
donor molecule, donor type, donor heavy atom, donor atom, acceptor molecule, acceptor atom, score
      P1  H  6896  6909       L1    11  1.00
      P1  H  7989  7998       L1    17  0.21

> <Gold.Chemscore.Hbond.Weighted>
-6.0347

> <Gold.Chemscore.Metal.Weighted>
-0.0000

> <Gold.Chemscore.Lipo.Weighted>
-10.6996

> <Gold.Chemscore.Internal_Hbond.Weighted>
0.0000

> <Gold.Chemscore.DEClash.Weighted>
0.1058

> <Gold.Chemscore.DEInternal.Weighted>
0.9384

> <Gold.Chemscore.Rot.Weighted>
3.8945

> <Gold.Chemscore.Internal.Correction.Weighted>
   9.000000E+99

> <Gold.Protein.RotatedTorsions>
[ 6907 6896 6895 6894 ] final   89.35 input  -60.11 | X-H torsion
[ 7974 7965 7964 7962 ] final  160.70 input  175.53 | X-H torsion
[ 8008 7997 7996 7995 ] final  -20.97 input   59.86 | X-H torsion
[ 10167 10162 10161 10158 ] final  155.73 input  -65.29 | X-H torsion
[ 10718 10713 10712 10709 ] final -141.37 input   66.30 | X-H torsion
[ 10763 10752 10751 10750 ] final  -19.96 input  -60.55 | X-H torsion
[ 11005 11000 10999 10996 ] final  -37.52 input  -57.11 | X-H torsion

> <Gold.Protein.ActiveResidues>
 VAL166  LYS551  ARG553  GLY616  TRP617  ASP618  TYR619  PRO620  LYS621  CYS622 
 ASP623  PHE694  ASN695  SER759  ASP760  ASP761  ALA762  ILE779  LEU786  VAL792 
 PHE793  MET794  SER795  GLU796  ALA797  LYS798  CYS799  TRP800  GLU811  SER814 

> <Gold.Protein.RotatedAtoms>
  152.5435  134.1980  159.8700 H   0  0  0  0  0  0  0  0  0  0  0  0  # atno 6907 bound_to 6896
  151.1971  133.4626  159.2603 H   0  0  0  0  0  0  0  0  0  0  0  0  # atno 6908 bound_to 6896
  151.1026  134.9993  159.8511 H   0  0  0  0  0  0  0  0  0  0  0  0  # atno 6909 bound_to 6896
  144.7723  139.7795  143.6292 H   0  0  0  0  0  0  0  0  0  0  0  0  # atno 7974 bound_to 7965
  154.4735  140.2047  155.9935 H   0  0  0  0  0  0  0  0  0  0  0  0  # atno 8008 bound_to 7997
  156.1051  140.3238  155.7965 H   0  0  0  0  0  0  0  0  0  0  0  0  # atno 8009 bound_to 7997
  155.4731  140.0533  157.2967 H   0  0  0  0  0  0  0  0  0  0  0  0  # atno 8010 bound_to 7997
  139.4821  144.5072  151.8079 H   0  0  0  0  0  0  0  0  0  0  0  0  # atno 10167 bound_to 10162
  156.3332  130.7597  151.1719 H   0  0  0  0  0  0  0  0  0  0  0  0  # atno 10718 bound_to 10713
  153.6130  135.6995  153.5339 H   0  0  0  0  0  0  0  0  0  0  0  0  # atno 10763 bound_to 10752
  153.3001  135.4131  155.1244 H   0  0  0  0  0  0  0  0  0  0  0  0  # atno 10764 bound_to 10752
  154.8559  135.3646  154.5669 H   0  0  0  0  0  0  0  0  0  0  0  0  # atno 10765 bound_to 10752
  140.9958  133.6981  156.1932 H   0  0  0  0  0  0  0  0  0  0  0  0  # atno 11005 bound_to 11000
  146.1878  139.5103  142.9824 LP  0  0  0  0  0  0  0  0  0  0  0  0  # atno 17320 bound_to 7965
  145.6287  141.0308  143.1875 LP  0  0  0  0  0  0  0  0  0  0  0  0  # atno 17321 bound_to 7965
  140.4572  144.1773  150.5902 LP  0  0  0  0  0  0  0  0  0  0  0  0  # atno 17342 bound_to 10162
  140.4523  143.2482  151.9331 LP  0  0  0  0  0  0  0  0  0  0  0  0  # atno 17343 bound_to 10162
  157.7434  131.0475  150.4949 LP  0  0  0  0  0  0  0  0  0  0  0  0  # atno 17370 bound_to 10713
  156.5118  130.4141  149.6297 LP  0  0  0  0  0  0  0  0  0  0  0  0  # atno 17371 bound_to 10713
  140.6968  134.4607  157.5587 LP  0  0  0  0  0  0  0  0  0  0  0  0  # atno 17394 bound_to 11000
  139.9014  134.8547  156.1881 LP  0  0  0  0  0  0  0  0  0  0  0  0  # atno 17395 bound_to 11000

$$$$
