AV-unprocessed.smi:2202|AV-procd|sdf|8930|dock3
  -GOLD-   2272012143D 1   1.00000     0.00000
 Structure written by MMmdl.
 42 44  0  0  0  0  0  0  0  0  1 V2000
  148.6277  139.0970  157.0444 O   0  0  0  0  0  0  0  0  0  0  0  0
  149.7236  138.5532  157.1895 C   0  0  0  0  0  0  0  0  0  0  0  0
  151.0183  139.2591  156.7621 C   0  0  0  0  0  0  0  0  0  0  0  0
  151.2733  140.4990  157.5063 N   0  0  0  0  0  0  0  0  0  0  0  0
  150.4099  141.5311  157.5834 C   0  0  0  0  0  0  0  0  0  0  0  0
  149.3493  141.6620  156.9732 O   0  0  0  0  0  0  0  0  0  0  0  0
  150.9061  142.5133  158.6338 C   0  0  2  0  0  0  0  0  0  0  0  0
  150.7344  144.0311  158.4981 C   0  0  0  0  0  0  0  0  0  0  0  0
  151.5728  144.7035  159.5907 C   0  0  0  0  0  0  0  0  0  0  0  0
  152.5406  144.0671  160.2953 C   0  0  0  0  0  0  0  0  0  0  0  0
  152.9452  142.6082  160.0582 C   0  0  0  0  0  0  0  0  0  0  0  0
  152.3819  142.1748  158.6996 C   0  0  1  0  0  0  0  0  0  0  0  0
  152.3859  140.7278  158.2314 C   0  0  0  0  0  0  0  0  0  0  0  0
  153.3064  139.9404  158.4495 O   0  0  0  0  0  0  0  0  0  0  0  0
  149.8702  137.3263  157.7110 N   0  0  0  0  0  0  0  0  0  0  0  0
  148.7791  136.4852  158.1893 C   0  0  0  0  0  0  0  0  0  0  0  0
  147.9544  137.1921  159.2785 C   0  0  0  0  0  0  0  0  0  0  0  0
  147.8789  136.3817  160.5585 C   0  0  0  0  0  0  0  0  0  0  0  0
  147.9271  134.9718  160.5229 C   0  0  0  0  0  0  0  0  0  0  0  0
  147.8475  134.2671  161.7397 C   0  0  0  0  0  0  0  0  0  0  0  0
  147.7218  134.9953  162.9385 C   0  0  0  0  0  0  0  0  0  0  0  0
  147.6809  136.4021  162.8669 C   0  0  0  0  0  0  0  0  0  0  0  0
  147.7567  137.0873  161.7056 N   0  0  0  0  0  0  0  0  0  0  0  0
  151.8600  138.5761  156.8921 H   0  0  0  0  0  0  0  0  0  0  0  0
  150.9637  139.4633  155.6914 H   0  0  0  0  0  0  0  0  0  0  0  0
  150.4218  142.2076  159.5644 H   0  0  0  0  0  0  0  0  0  0  0  0
  151.0522  144.3877  157.5179 H   0  0  0  0  0  0  0  0  0  0  0  0
  149.6870  144.3048  158.6264 H   0  0  0  0  0  0  0  0  0  0  0  0
  151.3580  145.7419  159.7957 H   0  0  0  0  0  0  0  0  0  0  0  0
  153.0747  144.5979  161.0698 H   0  0  0  0  0  0  0  0  0  0  0  0
  154.0328  142.5289  160.0581 H   0  0  0  0  0  0  0  0  0  0  0  0
  152.5678  141.9849  160.8697 H   0  0  0  0  0  0  0  0  0  0  0  0
  152.9175  142.7309  157.9263 H   0  0  0  0  0  0  0  0  0  0  0  0
  150.8044  136.9506  157.7865 H   0  0  0  0  0  0  0  0  0  0  0  0
  148.1414  136.1917  157.3537 H   0  0  0  0  0  0  0  0  0  0  0  0
  149.2101  135.5666  158.5886 H   0  0  0  0  0  0  0  0  0  0  0  0
  148.3864  138.1694  159.4975 H   0  0  0  0  0  0  0  0  0  0  0  0
  146.9397  137.3797  158.9241 H   0  0  0  0  0  0  0  0  0  0  0  0
  148.0221  134.4409  159.5869 H   0  0  0  0  0  0  0  0  0  0  0  0
  147.8812  133.1877  161.7531 H   0  0  0  0  0  0  0  0  0  0  0  0
  147.6577  134.4886  163.8899 H   0  0  0  0  0  0  0  0  0  0  0  0
  147.5844  136.9926  163.7660 H   0  0  0  0  0  0  0  0  0  0  0  0
  1  2  2  0  0  0  0
  2  3  1  0  0  0  0
  2 15  1  0  0  0  0
  3  4  1  0  0  0  0
  3 24  1  0  0  0  0
  3 25  1  0  0  0  0
  4 13  1  0  0  0  0
  4  5  1  0  0  0  0
  5  6  2  0  0  0  0
  5  7  1  0  0  0  0
  7 12  1  0  0  0  0
  7  8  1  0  0  0  0
  7 26  1  0  0  0  0
  8  9  1  0  0  0  0
  8 27  1  0  0  0  0
  8 28  1  0  0  0  0
  9 10  2  0  0  0  0
  9 29  1  0  0  0  0
 10 11  1  0  0  0  0
 10 30  1  0  0  0  0
 11 12  1  0  0  0  0
 11 31  1  0  0  0  0
 11 32  1  0  0  0  0
 12 13  1  0  0  0  0
 12 33  1  0  0  0  0
 13 14  2  0  0  0  0
 15 16  1  0  0  0  0
 15 34  1  0  0  0  0
 16 17  1  0  0  0  0
 16 35  1  0  0  0  0
 16 36  1  0  0  0  0
 17 18  1  0  0  0  0
 17 37  1  0  0  0  0
 17 38  1  0  0  0  0
 18 23  1  0  0  0  0
 18 19  2  0  0  0  0
 19 20  1  0  0  0  0
 19 39  1  0  0  0  0
 20 21  2  0  0  0  0
 20 40  1  0  0  0  0
 21 22  1  0  0  0  0
 21 41  1  0  0  0  0
 22 23  2  0  0  0  0
 22 42  1  0  0  0  0
M  END
> <s_m_source_file>
AV-unprocessed.smi

> <i_m_source_file_index>
2202

> <i_lp_mmshare_version>
43012

> <i_f3d_flags>
0

> <s_epik_input>
W0NIMl0xW0NIXT1bQ0hdW0NIMl1bQ0BIXShbQ0BIXTEyKUMoPU8pTihDMj1PKVtDSDJdQyg9TylbTkhdW0NIMl1bQ0gyXWMzW2NIXVtjSF1bY0hdW2NIXW4z

> <s_epik_cmdline>
J2VwaWtfcHl0aG9uJywgJy1waCcsICc3LjAnLCAnLXRuJywgJzgnLCAnLW1hJywgJzIwMCcsICctbWV0YWxfYmluZGluZycsICctaW1hZScsICc8aW5maWxlLm1hZT4nLCAnLW9tYWUnLCAnPG91dGZpbGUubWFlPic=

> <r_lp_tautomer_probability>
1

> <r_epik_Ionization_Penalty>
0.0244696

> <r_epik_Ionization_Penalty_Charging>
0

> <r_epik_Ionization_Penalty_Neutral>
0.0244696

> <r_epik_State_Penalty>
0.0198648

> <r_epik_Charging_Adjusted_Penalty>
0.0198648

> <i_epik_Tot_Q>
0

> <i_epik_Tot_abs_Q>
0

> <r_epik_Metal_State_Penalty>
0.0190699

> <b_epik_Metal_Only>
0

> <s_lp_Force_Field>
OPLS_2005

> <r_lp_Energy>
19.074

> <b_lp_Chiralities_Consistent>
1

> <s_lp_Variant>
AV-unprocessed.smi:2202-2

> <Gold.Version>
5.8.1

> <Gold.Id.Protein>
6NUR|6NUR_protein|mol2

> <Gold.PLP.Fitness>
52.1588

> <Gold.PLP.PLP>
-45.3421

> <Gold.PLP.part.hbond>
-3.0000

> <Gold.PLP.part.metal>
0.0000

> <Gold.PLP.part.buried>
-6.2771

> <Gold.PLP.part.nonpolar>
-35.9580

> <Gold.PLP.part.repulsive>
0.1720

> <Gold.PLP.ligand.clash>
0.0000

> <Gold.PLP.ligand.torsion>
0.7669

> <Gold.PLP.Chemscore.Hbond>
2.7673

> <Gold.PLP.Chemscore.CHOScore>
0.0000

> <Gold.PLP.Chemscore.Metal>
0.0000

> <Gold.Chemscore.Hbonds>
donor molecule, donor type, donor heavy atom, donor atom, acceptor molecule, acceptor atom, score
      P1  H  6931  6943       L1    23  1.00
      P1  H  6934  6947       L1    23  0.49
      P1  H  7997  8008       L1    14  1.00

> <Gold.PLP.Chemscore.Internal.Correction>
0.0488

> <Gold.Rescore>
     Score         DG    S(hbond)    S(metal)    S(lipo)     H(rot)  DE(clash)    DE(int)     intcor
     16.80     -20.12       1.80        0.00     114.16       1.85       0.04       3.28       ----

> <Gold.Chemscore.Fitness>
16.7968

> <Gold.Chemscore.DG>
-20.1157

> <Gold.Chemscore.ZeroCoef>
-5.4800

> <Gold.Chemscore.Hbond>
1.8038

> <Gold.Chemscore.Metal>
0.0000

> <Gold.Chemscore.Lipo>
114.1648

> <Gold.Chemscore.Internal_Hbond>
0.0000

> <Gold.Chemscore.DEClash>
0.0376

> <Gold.Chemscore.DEInternal>
3.2813

> <Gold.Chemscore.Rot>
1.8540

> <Gold.Chemscore.Internal.Correction>
   9.000000E+99

> <Gold.Chemscore.Hbonds>
donor molecule, donor type, donor heavy atom, donor atom, acceptor molecule, acceptor atom, score
      P1  H  6931  6943       L1    23  0.46
      P1  H  6934  6947       L1    23  0.15
      P1  H  7997  8008       L1    14  0.57

> <Gold.Chemscore.Hbond.Weighted>
-6.0246

> <Gold.Chemscore.Metal.Weighted>
-0.0000

> <Gold.Chemscore.Lipo.Weighted>
-13.3573

> <Gold.Chemscore.Internal_Hbond.Weighted>
0.0000

> <Gold.Chemscore.DEClash.Weighted>
0.0376

> <Gold.Chemscore.DEInternal.Weighted>
3.2813

> <Gold.Chemscore.Rot.Weighted>
4.7462

> <Gold.Chemscore.Internal.Correction.Weighted>
   9.000000E+99

> <Gold.Protein.RotatedTorsions>
[ 6907 6896 6895 6894 ] final  -41.61 input  -60.11 | X-H torsion
[ 7974 7965 7964 7962 ] final -158.88 input  175.53 | X-H torsion
[ 8008 7997 7996 7995 ] final  -78.84 input   59.86 | X-H torsion
[ 10167 10162 10161 10158 ] final  -57.44 input  -65.29 | X-H torsion
[ 10718 10713 10712 10709 ] final   73.61 input   66.30 | X-H torsion
[ 10763 10752 10751 10750 ] final -116.49 input  -60.55 | X-H torsion
[ 11005 11000 10999 10996 ] final  138.84 input  -57.11 | X-H torsion

> <Gold.Protein.ActiveResidues>
 VAL166  LYS551  ARG553  GLY616  TRP617  ASP618  TYR619  PRO620  LYS621  CYS622 
 ASP623  PHE694  ASN695  SER759  ASP760  ASP761  ALA762  ILE779  LEU786  VAL792 
 PHE793  MET794  SER795  GLU796  ALA797  LYS798  CYS799  TRP800  GLU811  SER814 

> <Gold.Protein.RotatedAtoms>
  150.9648  134.9030  159.7752 H   0  0  0  0  0  0  0  0  0  0  0  0  # atno 6907 bound_to 6896
  152.5169  134.3622  159.9299 H   0  0  0  0  0  0  0  0  0  0  0  0  # atno 6908 bound_to 6896
  151.3633  133.3841  159.2726 H   0  0  0  0  0  0  0  0  0  0  0  0  # atno 6909 bound_to 6896
  144.7487  140.3765  143.6064 H   0  0  0  0  0  0  0  0  0  0  0  0  # atno 7974 bound_to 7965
  154.5728  140.0688  156.8989 H   0  0  0  0  0  0  0  0  0  0  0  0  # atno 8008 bound_to 7997
  155.2604  140.3358  155.4255 H   0  0  0  0  0  0  0  0  0  0  0  0  # atno 8009 bound_to 7997
  156.2131  140.1767  156.7635 H   0  0  0  0  0  0  0  0  0  0  0  0  # atno 8010 bound_to 7997
  140.6257  143.2437  151.5368 H   0  0  0  0  0  0  0  0  0  0  0  0  # atno 10167 bound_to 10162
  157.6556  130.9637  150.1094 H   0  0  0  0  0  0  0  0  0  0  0  0  # atno 10718 bound_to 10713
  154.8521  135.4343  154.1830 H   0  0  0  0  0  0  0  0  0  0  0  0  # atno 10763 bound_to 10752
  153.2916  135.6962  153.7294 H   0  0  0  0  0  0  0  0  0  0  0  0  # atno 10764 bound_to 10752
  153.6459  135.3460  155.3060 H   0  0  0  0  0  0  0  0  0  0  0  0  # atno 10765 bound_to 10752
  140.0212  134.9396  157.0477 H   0  0  0  0  0  0  0  0  0  0  0  0  # atno 11005 bound_to 11000
  145.7023  139.1664  143.2586 LP  0  0  0  0  0  0  0  0  0  0  0  0  # atno 17320 bound_to 7965
  146.1407  140.7062  142.9368 LP  0  0  0  0  0  0  0  0  0  0  0  0  # atno 17321 bound_to 7965
  139.5478  144.2474  152.1475 LP  0  0  0  0  0  0  0  0  0  0  0  0  # atno 17342 bound_to 10162
  140.1705  144.4940  150.6582 LP  0  0  0  0  0  0  0  0  0  0  0  0  # atno 17343 bound_to 10162
  156.1995  130.3659  149.8806 LP  0  0  0  0  0  0  0  0  0  0  0  0  # atno 17370 bound_to 10713
  156.6714  130.8821  151.3562 LP  0  0  0  0  0  0  0  0  0  0  0  0  # atno 17371 bound_to 10713
  140.4384  134.1707  155.7172 LP  0  0  0  0  0  0  0  0  0  0  0  0  # atno 17394 bound_to 11000
  141.1775  133.8484  157.1373 LP  0  0  0  0  0  0  0  0  0  0  0  0  # atno 17395 bound_to 11000

$$$$
