AV-unprocessed.smi:2774|AV-procd|sdf|10687|dock3
  -GOLD-   2272015133D 1   1.00000     0.00000
 Structure written by MMmdl.
 34 35  0  0  0  0  0  0  0  0  1 V2000
  150.1528  141.9545  154.8392 O   0  0  0  0  0  0  0  0  0  0  0  0
  150.3585  141.1267  155.9674 C   0  0  1  0  0  0  0  0  0  0  0  0
  149.1382  141.2269  156.9035 C   0  0  0  0  0  0  0  0  0  0  0  0
  149.0907  142.5089  157.6113 N   0  0  0  0  0  0  0  0  0  0  0  0
  150.0935  142.6979  158.6626 C   0  0  1  0  0  0  0  0  0  0  0  0
  151.4941  142.9933  158.0755 C   0  0  0  0  0  0  0  0  0  0  0  0
  152.5739  143.1589  159.1577 C   0  0  0  0  0  0  0  0  0  0  0  0
  152.2770  144.3191  160.1164 C   0  0  0  0  0  0  0  0  0  0  0  0
  150.7309  144.0365  161.0163 S   0  0  0  0  0  0  0  0  0  0  0  0
  149.6304  143.8377  159.5892 C   0  0  0  0  0  0  0  0  0  0  0  0
  150.7420  139.6934  155.6179 C   0  0  0  0  0  0  0  0  0  0  0  0
  151.8868  139.0767  156.1701 C   0  0  0  0  0  0  0  0  0  0  0  0
  152.1859  137.7515  155.7965 C   0  0  0  0  0  0  0  0  0  0  0  0
  151.4311  137.0347  154.9365 N   0  0  0  0  0  0  0  0  0  0  0  0
  150.3391  137.6289  154.4105 C   0  0  0  0  0  0  0  0  0  0  0  0
  149.9526  138.9491  154.7162 C   0  0  0  0  0  0  0  0  0  0  0  0
  150.0978  142.8506  155.1339 H   0  0  0  0  0  0  0  0  0  0  0  0
  151.2093  141.5642  156.4913 H   0  0  0  0  0  0  0  0  0  0  0  0
  148.2296  141.1121  156.3114 H   0  0  0  0  0  0  0  0  0  0  0  0
  149.1594  140.3915  157.6024 H   0  0  0  0  0  0  0  0  0  0  0  0
  149.1526  143.2660  156.9378 H   0  0  0  0  0  0  0  0  0  0  0  0
  150.1516  141.7853  159.2577 H   0  0  0  0  0  0  0  0  0  0  0  0
  151.8108  142.1849  157.4180 H   0  0  0  0  0  0  0  0  0  0  0  0
  151.4553  143.8917  157.4576 H   0  0  0  0  0  0  0  0  0  0  0  0
  152.6738  142.2315  159.7228 H   0  0  0  0  0  0  0  0  0  0  0  0
  153.5383  143.3291  158.6782 H   0  0  0  0  0  0  0  0  0  0  0  0
  153.0865  144.4301  160.8378 H   0  0  0  0  0  0  0  0  0  0  0  0
  152.2046  145.2588  159.5677 H   0  0  0  0  0  0  0  0  0  0  0  0
  149.5835  144.7821  159.0453 H   0  0  0  0  0  0  0  0  0  0  0  0
  148.6262  143.6367  159.9647 H   0  0  0  0  0  0  0  0  0  0  0  0
  152.5304  139.6048  156.8580 H   0  0  0  0  0  0  0  0  0  0  0  0
  153.0561  137.2545  156.1989 H   0  0  0  0  0  0  0  0  0  0  0  0
  149.7546  137.0345  153.7238 H   0  0  0  0  0  0  0  0  0  0  0  0
  149.0703  139.3788  154.2647 H   0  0  0  0  0  0  0  0  0  0  0  0
  1  2  1  0  0  0  0
  1 17  1  0  0  0  0
  2  3  1  0  0  0  0
  2 11  1  0  0  0  0
  2 18  1  0  0  0  0
  3  4  1  0  0  0  0
  3 19  1  0  0  0  0
  3 20  1  0  0  0  0
  4  5  1  0  0  0  0
  4 21  1  0  0  0  0
  5 10  1  0  0  0  0
  5  6  1  0  0  0  0
  5 22  1  0  0  0  0
  6  7  1  0  0  0  0
  6 23  1  0  0  0  0
  6 24  1  0  0  0  0
  7  8  1  0  0  0  0
  7 25  1  0  0  0  0
  7 26  1  0  0  0  0
  8  9  1  0  0  0  0
  8 27  1  0  0  0  0
  8 28  1  0  0  0  0
  9 10  1  0  0  0  0
 10 29  1  0  0  0  0
 10 30  1  0  0  0  0
 11 16  1  0  0  0  0
 11 12  2  0  0  0  0
 12 13  1  0  0  0  0
 12 31  1  0  0  0  0
 13 14  2  0  0  0  0
 13 32  1  0  0  0  0
 14 15  1  0  0  0  0
 15 16  2  0  0  0  0
 15 33  1  0  0  0  0
 16 34  1  0  0  0  0
M  END
> <s_m_source_file>
AV-unprocessed.smi

> <i_m_source_file_index>
2774

> <i_lp_mmshare_version>
43012

> <i_f3d_flags>
0

> <s_epik_input>
W2NIXTFbY0hdbltjSF1bY0hdYzFbQ0BIXShbT0hdKVtDSDJdW05IXVtDQEBIXTJbQ0gyXVtDSDJdW0NIMl1TW0NIMl0y

> <s_epik_cmdline>
J2VwaWtfcHl0aG9uJywgJy1waCcsICc3LjAnLCAnLXRuJywgJzgnLCAnLW1hJywgJzIwMCcsICctbWV0YWxfYmluZGluZycsICctaW1hZScsICc8aW5maWxlLm1hZT4nLCAnLW9tYWUnLCAnPG91dGZpbGUubWFlPic=

> <r_epik_Ionization_Penalty>
2.08116

> <r_epik_Ionization_Penalty_Charging>
0

> <r_epik_Ionization_Penalty_Neutral>
2.08116

> <r_epik_State_Penalty>
2.1944

> <r_epik_Charging_Adjusted_Penalty>
2.1944

> <i_epik_Tot_Q>
0

> <i_epik_Tot_abs_Q>
0

> <r_epik_Metal_State_Penalty>
2.1769

> <b_epik_Metal_Only>
0

> <s_lp_Force_Field>
OPLS_2005

> <r_lp_Energy>
17.4731

> <b_lp_Chiralities_Consistent>
1

> <s_lp_Variant>
AV-unprocessed.smi:2774-8

> <Gold.Version>
5.8.1

> <Gold.Id.Protein>
6NUR|6NUR_protein|mol2

> <Gold.PLP.Fitness>
50.0742

> <Gold.PLP.PLP>
-39.8080

> <Gold.PLP.part.hbond>
-4.6847

> <Gold.PLP.part.metal>
0.0000

> <Gold.PLP.part.buried>
-1.3465

> <Gold.PLP.part.nonpolar>
-34.3770

> <Gold.PLP.part.repulsive>
0.1233

> <Gold.PLP.ligand.clash>
0.0000

> <Gold.PLP.ligand.torsion>
0.5359

> <Gold.PLP.Chemscore.Hbond>
2.6739

> <Gold.PLP.Chemscore.CHOScore>
1.0791

> <Gold.PLP.Chemscore.Metal>
0.0000

> <Gold.Chemscore.Hbonds>
donor molecule, donor type, donor heavy atom, donor atom, acceptor molecule, acceptor atom, score
      L1  H     1    17       P1  8028  0.37
      L1  H     4    21       P1  8028  1.00
      P1  H  7989  7998       L1     1  0.09
      P1  H 10752 10764       L1    14  0.66
      L1  C    15    33       P1  7948  1.00

> <Gold.PLP.Chemscore.Internal.Correction>
0.0787

> <Gold.Rescore>
     Score         DG    S(hbond)    S(metal)    S(lipo)     H(rot)  DE(clash)    DE(int)     intcor
     19.77     -20.52       2.26        0.00     105.37       1.89       0.12       0.62       ----

> <Gold.Chemscore.Fitness>
19.7705

> <Gold.Chemscore.DG>
-20.5171

> <Gold.Chemscore.ZeroCoef>
-5.4800

> <Gold.Chemscore.Hbond>
2.2617

> <Gold.Chemscore.Metal>
0.0000

> <Gold.Chemscore.Lipo>
105.3718

> <Gold.Chemscore.Internal_Hbond>
0.0000

> <Gold.Chemscore.DEClash>
0.1221

> <Gold.Chemscore.DEInternal>
0.6245

> <Gold.Chemscore.Rot>
1.8928

> <Gold.Chemscore.Internal.Correction>
   9.000000E+99

> <Gold.Chemscore.Hbonds>
donor molecule, donor type, donor heavy atom, donor atom, acceptor molecule, acceptor atom, score
      L1  H     1    17       P1  8028  0.35
      L1  H     4    21       P1  8028  0.90
      P1  H  7989  7998       L1     1  0.01
      P1  H 10752 10764       L1    14  0.11

> <Gold.Chemscore.Hbond.Weighted>
-7.5542

> <Gold.Chemscore.Metal.Weighted>
-0.0000

> <Gold.Chemscore.Lipo.Weighted>
-12.3285

> <Gold.Chemscore.Internal_Hbond.Weighted>
0.0000

> <Gold.Chemscore.DEClash.Weighted>
0.1221

> <Gold.Chemscore.DEInternal.Weighted>
0.6245

> <Gold.Chemscore.Rot.Weighted>
4.8455

> <Gold.Chemscore.Internal.Correction.Weighted>
   9.000000E+99

> <Gold.Protein.RotatedTorsions>
[ 6907 6896 6895 6894 ] final -160.30 input  -60.11 | X-H torsion
[ 7974 7965 7964 7962 ] final -117.35 input  175.53 | X-H torsion
[ 8008 7997 7996 7995 ] final  -41.33 input   59.86 | X-H torsion
[ 10167 10162 10161 10158 ] final   51.33 input  -65.29 | X-H torsion
[ 10718 10713 10712 10709 ] final -147.71 input   66.30 | X-H torsion
[ 10763 10752 10751 10750 ] final  -73.64 input  -60.55 | X-H torsion
[ 11005 11000 10999 10996 ] final  120.29 input  -57.11 | X-H torsion

> <Gold.Protein.ActiveResidues>
 VAL166  LYS551  ARG553  GLY616  TRP617  ASP618  TYR619  PRO620  LYS621  CYS622 
 ASP623  PHE694  ASN695  SER759  ASP760  ASP761  ALA762  ILE779  LEU786  VAL792 
 PHE793  MET794  SER795  GLU796  ALA797  LYS798  CYS799  TRP800  GLU811  SER814 

> <Gold.Protein.RotatedAtoms>
  151.3470  133.3940  159.2676 H   0  0  0  0  0  0  0  0  0  0  0  0  # atno 6907 bound_to 6896
  150.9832  134.9184  159.7867 H   0  0  0  0  0  0  0  0  0  0  0  0  # atno 6908 bound_to 6896
  152.5224  134.3434  159.9277 H   0  0  0  0  0  0  0  0  0  0  0  0  # atno 6909 bound_to 6896
  145.0862  140.8459  143.4010 H   0  0  0  0  0  0  0  0  0  0  0  0  # atno 7974 bound_to 7965
  154.4005  140.1502  156.3174 H   0  0  0  0  0  0  0  0  0  0  0  0  # atno 8008 bound_to 7997
  155.8561  140.3455  155.5703 H   0  0  0  0  0  0  0  0  0  0  0  0  # atno 8009 bound_to 7997
  155.7932  140.0859  157.1988 H   0  0  0  0  0  0  0  0  0  0  0  0  # atno 8010 bound_to 7997
  140.2630  144.3351  150.6312 H   0  0  0  0  0  0  0  0  0  0  0  0  # atno 10167 bound_to 10162
  156.4110  130.7981  151.2199 H   0  0  0  0  0  0  0  0  0  0  0  0  # atno 10718 bound_to 10713
  154.4622  135.5890  153.6264 H   0  0  0  0  0  0  0  0  0  0  0  0  # atno 10763 bound_to 10752
  152.9824  135.6047  154.3471 H   0  0  0  0  0  0  0  0  0  0  0  0  # atno 10764 bound_to 10752
  154.3344  135.2842  155.2434 H   0  0  0  0  0  0  0  0  0  0  0  0  # atno 10765 bound_to 10752
  139.9179  134.9634  156.7785 H   0  0  0  0  0  0  0  0  0  0  0  0  # atno 11005 bound_to 11000
  145.1120  139.2751  143.5632 LP  0  0  0  0  0  0  0  0  0  0  0  0  # atno 17320 bound_to 7965
  146.3531  140.0718  142.8623 LP  0  0  0  0  0  0  0  0  0  0  0  0  # atno 17321 bound_to 7965
  140.5951  143.2167  151.7180 LP  0  0  0  0  0  0  0  0  0  0  0  0  # atno 17342 bound_to 10162
  139.5011  144.3880  152.0308 LP  0  0  0  0  0  0  0  0  0  0  0  0  # atno 17343 bound_to 10162
  157.7507  131.0257  150.3932 LP  0  0  0  0  0  0  0  0  0  0  0  0  # atno 17370 bound_to 10713
  156.4231  130.3957  149.6811 LP  0  0  0  0  0  0  0  0  0  0  0  0  # atno 17371 bound_to 10713
  140.6563  133.9685  155.7781 LP  0  0  0  0  0  0  0  0  0  0  0  0  # atno 17394 bound_to 11000
  141.0674  134.0257  157.3575 LP  0  0  0  0  0  0  0  0  0  0  0  0  # atno 17395 bound_to 11000

$$$$
