AV-unprocessed.smi:1893|AV-procd|sdf|7678|dock3
  -GOLD-   22720 9413D 1   1.00000     0.00000
 Structure written by MMmdl.
 43 44  0  0  0  0  0  0  0  0  2 V2000
  145.1694  135.8153  151.2443 C   0  0  0  0  0  0  0  0  0  0  0  0
  145.5084  134.4738  151.9288 C   0  0  1  0  0  0  0  0  0  0  0  0
  145.9310  133.4647  150.8368 C   0  0  0  0  0  0  0  0  0  0  0  0
  146.2932  132.0978  151.4212 C   0  0  0  0  0  0  0  0  0  0  0  0
  147.3854  132.2748  152.4746 C   0  0  0  0  0  0  0  0  0  0  0  0
  146.9317  133.2656  153.5547 C   0  0  0  0  0  0  0  0  0  0  0  0
  146.5704  134.5957  152.9825 N   0  3  2  0  0  0  0  0  0  0  0  0
  146.2602  135.5848  154.0555 C   0  0  0  0  0  0  0  0  0  0  0  0
  147.4942  135.9674  154.8928 C   0  0  0  0  0  0  0  0  0  0  0  0
  148.1163  137.1734  154.3650 N   0  0  0  0  0  0  0  0  0  0  0  0
  148.5124  138.2122  155.1161 C   0  0  0  0  0  0  0  0  0  0  0  0
  148.3702  138.2469  156.3389 O   0  0  0  0  0  0  0  0  0  0  0  0
  149.1736  139.3787  154.3656 C   0  0  1  0  0  0  0  0  0  0  0  0
  148.5175  140.7382  154.6713 C   0  0  0  0  0  0  0  0  0  0  0  0
  150.6019  139.4117  154.6482 N   0  0  0  0  0  0  0  0  0  0  0  0
  151.3283  140.2471  155.3964 C   0  0  0  0  0  0  0  0  0  0  0  0
  152.6202  139.9520  155.4301 N   0  0  0  0  0  0  0  0  0  0  0  0
  152.6230  138.8481  154.6255 C   0  0  0  0  0  0  0  0  0  0  0  0
  151.4395  138.4786  154.1356 N   0  0  0  0  0  0  0  0  0  0  0  0
  144.5407  135.6562  150.3676 H   0  0  0  0  0  0  0  0  0  0  0  0
  146.0698  136.3320  150.9105 H   0  0  0  0  0  0  0  0  0  0  0  0
  144.6083  136.4866  151.8930 H   0  0  0  0  0  0  0  0  0  0  0  0
  144.6021  134.0986  152.4073 H   0  0  0  0  0  0  0  0  0  0  0  0
  145.1270  133.3398  150.1103 H   0  0  0  0  0  0  0  0  0  0  0  0
  146.7852  133.8579  150.2830 H   0  0  0  0  0  0  0  0  0  0  0  0
  145.4120  131.6365  151.8690 H   0  0  0  0  0  0  0  0  0  0  0  0
  146.6337  131.4266  150.6320 H   0  0  0  0  0  0  0  0  0  0  0  0
  147.6246  131.3123  152.9278 H   0  0  0  0  0  0  0  0  0  0  0  0
  148.3023  132.6331  152.0042 H   0  0  0  0  0  0  0  0  0  0  0  0
  146.0761  132.8586  154.0961 H   0  0  0  0  0  0  0  0  0  0  0  0
  147.7403  133.3602  154.2768 H   0  0  0  0  0  0  0  0  0  0  0  0
  145.8853  136.5133  153.6318 H   0  0  0  0  0  0  0  0  0  0  0  0
  145.4638  135.1974  154.6931 H   0  0  0  0  0  0  0  0  0  0  0  0
  147.2335  136.1586  155.9332 H   0  0  0  0  0  0  0  0  0  0  0  0
  148.2156  135.1485  154.8832 H   0  0  0  0  0  0  0  0  0  0  0  0
  148.2675  137.2212  153.3675 H   0  0  0  0  0  0  0  0  0  0  0  0
  149.0450  139.1887  153.2983 H   0  0  0  0  0  0  0  0  0  0  0  0
  147.4517  140.7237  154.4407 H   0  0  0  0  0  0  0  0  0  0  0  0
  148.9698  141.5294  154.0728 H   0  0  0  0  0  0  0  0  0  0  0  0
  148.6276  141.0160  155.7205 H   0  0  0  0  0  0  0  0  0  0  0  0
  150.9029  141.0853  155.9290 H   0  0  0  0  0  0  0  0  0  0  0  0
  153.5237  138.2969  154.3975 H   0  0  0  0  0  0  0  0  0  0  0  0
  147.3920  134.9416  152.5075 H   0  0  0  0  0  0  0  0  0  0  0  0
  1  2  1  0  0  0  0
  1 20  1  0  0  0  0
  1 21  1  0  0  0  0
  1 22  1  0  0  0  0
  2  7  1  0  0  0  0
  2  3  1  0  0  0  0
  2 23  1  0  0  0  0
  3  4  1  0  0  0  0
  3 24  1  0  0  0  0
  3 25  1  0  0  0  0
  4  5  1  0  0  0  0
  4 26  1  0  0  0  0
  4 27  1  0  0  0  0
  5  6  1  0  0  0  0
  5 28  1  0  0  0  0
  5 29  1  0  0  0  0
  6  7  1  0  0  0  0
  6 30  1  0  0  0  0
  6 31  1  0  0  0  0
  7  8  1  0  0  0  0
  7 43  1  0  0  0  0
  8  9  1  0  0  0  0
  8 32  1  0  0  0  0
  8 33  1  0  0  0  0
  9 10  1  0  0  0  0
  9 34  1  0  0  0  0
  9 35  1  0  0  0  0
 10 11  1  0  0  0  0
 10 36  1  0  0  0  0
 11 12  2  0  0  0  0
 11 13  1  0  0  0  0
 13 14  1  0  0  0  0
 13 15  1  0  0  0  0
 13 37  1  0  0  0  0
 14 38  1  0  0  0  0
 14 39  1  0  0  0  0
 14 40  1  0  0  0  0
 15 19  1  0  0  0  0
 15 16  1  0  0  0  0
 16 17  2  0  0  0  0
 16 41  1  0  0  0  0
 17 18  1  0  0  0  0
 18 19  2  0  0  0  0
 18 42  1  0  0  0  0
M  CHG  1   7   1
M  END
> <s_m_source_file>
AV-unprocessed.smi

> <i_m_source_file_index>
1893

> <i_lp_mmshare_version>
43012

> <i_f3d_flags>
0

> <s_epik_input>
W0NIM11bQ0BASF0xW0NIMl1bQ0gyXVtDSDJdW0NIMl1OMVtDSDJdW0NIMl1bTkhdQyg9TylbQ0BIXShbQ0gzXSluMltjSF1uW2NIXW4y

> <s_epik_cmdline>
J2VwaWtfcHl0aG9uJywgJy1waCcsICc3LjAnLCAnLXRuJywgJzgnLCAnLW1hJywgJzIwMCcsICctbWV0YWxfYmluZGluZycsICctaW1hZScsICc8aW5maWxlLm1hZT4nLCAnLW9tYWUnLCAnPG91dGZpbGUubWFlPic=

> <r_lp_tautomer_probability>
1

> <r_epik_Ionization_Penalty>
0.00266409

> <r_epik_Ionization_Penalty_Charging>
0.00265606

> <r_epik_Ionization_Penalty_Neutral>
8.02794e-06

> <r_epik_State_Penalty>
0.00184955

> <r_epik_Charging_Adjusted_Penalty>
0.00450561

> <i_epik_Tot_Q>
1

> <i_epik_Tot_abs_Q>
1

> <r_epik_Metal_State_Penalty>
-0

> <b_epik_Metal_Only>
0

> <s_lp_Force_Field>
OPLS_2005

> <r_lp_Energy>
26.1161

> <b_lp_Chiralities_Consistent>
1

> <s_lp_Variant>
AV-unprocessed.smi:1893-8

> <Gold.Version>
5.8.1

> <Gold.Id.Protein>
6NUR|6NUR_protein|mol2

> <Gold.PLP.Fitness>
43.0914

> <Gold.PLP.PLP>
-32.8134

> <Gold.PLP.part.hbond>
-3.0000

> <Gold.PLP.part.metal>
0.0000

> <Gold.PLP.part.buried>
-1.8282

> <Gold.PLP.part.nonpolar>
-27.9656

> <Gold.PLP.part.repulsive>
0.1445

> <Gold.PLP.ligand.clash>
0.0000

> <Gold.PLP.ligand.torsion>
0.9340

> <Gold.PLP.Chemscore.Hbond>
4.0000

> <Gold.PLP.Chemscore.CHOScore>
0.0000

> <Gold.PLP.Chemscore.Metal>
0.0000

> <Gold.Chemscore.Hbonds>
donor molecule, donor type, donor heavy atom, donor atom, acceptor molecule, acceptor atom, score
      L1  H     7    43       P1  7948  1.69
      L1  H    10    36       P1  7948  0.86
      P1  H  7997  8008       L1    17  0.75

> <Gold.PLP.Chemscore.Internal.Correction>
0.1460

> <Gold.Rescore>
     Score         DG    S(hbond)    S(metal)    S(lipo)     H(rot)  DE(clash)    DE(int)     intcor
     14.03     -14.91       2.90        0.00      53.22       2.54       0.36       0.52       ----

> <Gold.Chemscore.Fitness>
14.0323

> <Gold.Chemscore.DG>
-14.9125

> <Gold.Chemscore.ZeroCoef>
-5.4800

> <Gold.Chemscore.Hbond>
2.9047

> <Gold.Chemscore.Metal>
0.0000

> <Gold.Chemscore.Lipo>
53.2250

> <Gold.Chemscore.Internal_Hbond>
0.0000

> <Gold.Chemscore.DEClash>
0.3622

> <Gold.Chemscore.DEInternal>
0.5180

> <Gold.Chemscore.Rot>
2.5377

> <Gold.Chemscore.Internal.Correction>
   9.000000E+99

> <Gold.Chemscore.Hbonds>
donor molecule, donor type, donor heavy atom, donor atom, acceptor molecule, acceptor atom, score
      L1  H     7    43       P1  7948  0.81
      L1  H    10    36       P1  7948  0.84
      P1  H  7997  8008       L1    17  0.57

> <Gold.Chemscore.Hbond.Weighted>
-9.7018

> <Gold.Chemscore.Metal.Weighted>
-0.0000

> <Gold.Chemscore.Lipo.Weighted>
-6.2273

> <Gold.Chemscore.Internal_Hbond.Weighted>
0.0000

> <Gold.Chemscore.DEClash.Weighted>
0.3622

> <Gold.Chemscore.DEInternal.Weighted>
0.5180

> <Gold.Chemscore.Rot.Weighted>
6.4966

> <Gold.Chemscore.Internal.Correction.Weighted>
   9.000000E+99

> <Gold.Protein.RotatedTorsions>
[ 6907 6896 6895 6894 ] final  118.07 input  -60.11 | X-H torsion
[ 7974 7965 7964 7962 ] final  -63.17 input  175.53 | X-H torsion
[ 8008 7997 7996 7995 ] final  -54.11 input   59.86 | X-H torsion
[ 10167 10162 10161 10158 ] final   94.36 input  -65.29 | X-H torsion
[ 10718 10713 10712 10709 ] final  -80.59 input   66.30 | X-H torsion
[ 10763 10752 10751 10750 ] final  154.31 input  -60.55 | X-H torsion
[ 11005 11000 10999 10996 ] final  -34.59 input  -57.11 | X-H torsion

> <Gold.Protein.ActiveResidues>
 VAL166  LYS551  ARG553  GLY616  TRP617  ASP618  TYR619  PRO620  LYS621  CYS622 
 ASP623  PHE694  ASN695  SER759  ASP760  ASP761  ALA762  ILE779  LEU786  VAL792 
 PHE793  MET794  SER795  GLU796  ALA797  LYS798  CYS799  TRP800  GLU811  SER814 

> <Gold.Protein.RotatedAtoms>
  152.4569  133.7741  159.6814 H   0  0  0  0  0  0  0  0  0  0  0  0  # atno 6907 bound_to 6896
  150.8498  133.7795  159.3036 H   0  0  0  0  0  0  0  0  0  0  0  0  # atno 6908 bound_to 6896
  151.5393  135.1071  159.9974 H   0  0  0  0  0  0  0  0  0  0  0  0  # atno 6909 bound_to 6896
  145.7824  140.8755  143.0323 H   0  0  0  0  0  0  0  0  0  0  0  0  # atno 7974 bound_to 7965
  154.4153  140.1184  156.5263 H   0  0  0  0  0  0  0  0  0  0  0  0  # atno 8008 bound_to 7997
  155.6651  140.3496  155.4778 H   0  0  0  0  0  0  0  0  0  0  0  0  # atno 8009 bound_to 7997
  155.9680  140.1136  157.0827 H   0  0  0  0  0  0  0  0  0  0  0  0  # atno 8010 bound_to 7997
  139.8091  144.6781  150.9664 H   0  0  0  0  0  0  0  0  0  0  0  0  # atno 10167 bound_to 10162
  156.0067  130.4578  150.3823 H   0  0  0  0  0  0  0  0  0  0  0  0  # atno 10718 bound_to 10713
  154.1502  135.2815  155.3137 H   0  0  0  0  0  0  0  0  0  0  0  0  # atno 10763 bound_to 10752
  154.6223  135.5463  153.7592 H   0  0  0  0  0  0  0  0  0  0  0  0  # atno 10764 bound_to 10752
  153.0223  135.6442  154.1647 H   0  0  0  0  0  0  0  0  0  0  0  0  # atno 10765 bound_to 10752
  140.9728  133.7100  156.1552 H   0  0  0  0  0  0  0  0  0  0  0  0  # atno 11005 bound_to 11000
  144.6794  140.0007  143.7484 LP  0  0  0  0  0  0  0  0  0  0  0  0  # atno 17320 bound_to 7965
  146.0061  139.3131  143.0898 LP  0  0  0  0  0  0  0  0  0  0  0  0  # atno 17321 bound_to 7965
  140.7818  143.4204  151.0851 LP  0  0  0  0  0  0  0  0  0  0  0  0  # atno 17342 bound_to 10162
  139.7871  143.8271  152.3146 LP  0  0  0  0  0  0  0  0  0  0  0  0  # atno 17343 bound_to 10162
  157.1902  131.0413  151.2704 LP  0  0  0  0  0  0  0  0  0  0  0  0  # atno 17370 bound_to 10713
  157.4068  130.7363  149.6808 LP  0  0  0  0  0  0  0  0  0  0  0  0  # atno 17371 bound_to 10713
  140.7303  134.4262  157.5566 LP  0  0  0  0  0  0  0  0  0  0  0  0  # atno 17394 bound_to 11000
  139.8919  134.8769  156.2298 LP  0  0  0  0  0  0  0  0  0  0  0  0  # atno 17395 bound_to 11000

$$$$
