AV-unprocessed.smi:288|AV-procd|sdf|2212|dock3
  -GOLD-   2262022 43D 1   1.00000     0.00000
 Structure written by MMmdl.
 33 34  0  0  0  0  0  0  0  0  1 V2000
  153.0785  139.9508  157.7951 O   0  0  0  0  0  0  0  0  0  0  0  0
  152.1374  140.0330  157.0041 C   0  0  0  0  0  0  0  0  0  0  0  0
  152.0558  139.2560  155.7717 C   0  0  0  0  0  0  0  0  0  0  0  0
  153.0554  138.4181  155.4480 F   0  0  0  0  0  0  0  0  0  0  0  0
  150.9904  139.3620  154.9483 C   0  0  0  0  0  0  0  0  0  0  0  0
  149.9159  140.1978  155.2068 N   0  0  0  0  0  0  0  0  0  0  0  0
  148.7274  140.2919  154.2737 C   0  0  1  0  0  0  0  0  0  0  0  0
  147.4133  140.0894  155.0503 C   0  0  0  0  0  0  0  0  0  0  0  0
  146.5781  141.2725  154.6049 C   0  0  0  0  0  0  0  0  0  0  0  0
  147.6441  142.3210  154.3250 C   0  0  0  0  0  0  0  0  0  0  0  0
  148.6734  141.5666  153.6984 O   0  0  0  0  0  0  0  0  0  0  0  0
  149.9100  140.9864  156.3776 C   0  0  0  0  0  0  0  0  0  0  0  0
  148.9545  141.7216  156.6385 O   0  0  0  0  0  0  0  0  0  0  0  0
  151.0333  140.8899  157.2326 N   0  0  0  0  0  0  0  0  0  0  0  0
  151.0343  141.6962  158.4422 C   0  0  0  0  0  0  0  0  0  0  0  0
  151.1876  143.2096  158.1686 C   0  0  1  0  0  0  0  0  0  0  0  0
  149.9050  143.8060  158.1978 O   0  0  0  0  0  0  0  0  0  0  0  0
  152.0611  143.9124  159.2262 C   0  0  0  0  0  0  0  0  0  0  0  0
  151.5141  143.7835  160.4354 F   0  0  0  0  0  0  0  0  0  0  0  0
  153.2964  143.4094  159.2380 F   0  0  0  0  0  0  0  0  0  0  0  0
  152.1343  145.2141  158.9475 F   0  0  0  0  0  0  0  0  0  0  0  0
  150.9952  138.7557  154.0557 H   0  0  0  0  0  0  0  0  0  0  0  0
  148.9029  139.5524  153.4904 H   0  0  0  0  0  0  0  0  0  0  0  0
  146.9614  139.1261  154.8121 H   0  0  0  0  0  0  0  0  0  0  0  0
  147.5986  140.1395  156.1247 H   0  0  0  0  0  0  0  0  0  0  0  0
  146.0418  141.0297  153.6866 H   0  0  0  0  0  0  0  0  0  0  0  0
  145.8520  141.5903  155.3536 H   0  0  0  0  0  0  0  0  0  0  0  0
  147.2876  143.1255  153.6817 H   0  0  0  0  0  0  0  0  0  0  0  0
  148.0102  142.7588  155.2547 H   0  0  0  0  0  0  0  0  0  0  0  0
  150.1399  141.4648  159.0232 H   0  0  0  0  0  0  0  0  0  0  0  0
  151.8518  141.3203  159.0595 H   0  0  0  0  0  0  0  0  0  0  0  0
  151.6272  143.3788  157.1846 H   0  0  0  0  0  0  0  0  0  0  0  0
  149.7407  144.2080  157.3584 H   0  0  0  0  0  0  0  0  0  0  0  0
  1  2  2  0  0  0  0
  2 14  1  0  0  0  0
  2  3  1  0  0  0  0
  3  4  1  0  0  0  0
  3  5  2  0  0  0  0
  5  6  1  0  0  0  0
  5 22  1  0  0  0  0
  6  7  1  0  0  0  0
  6 12  1  0  0  0  0
  7 11  1  0  0  0  0
  7  8  1  0  0  0  0
  7 23  1  0  0  0  0
  8  9  1  0  0  0  0
  8 24  1  0  0  0  0
  8 25  1  0  0  0  0
  9 10  1  0  0  0  0
  9 26  1  0  0  0  0
  9 27  1  0  0  0  0
 10 11  1  0  0  0  0
 10 28  1  0  0  0  0
 10 29  1  0  0  0  0
 12 13  2  0  0  0  0
 12 14  1  0  0  0  0
 14 15  1  0  0  0  0
 15 16  1  0  0  0  0
 15 30  1  0  0  0  0
 15 31  1  0  0  0  0
 16 17  1  0  0  0  0
 16 18  1  0  0  0  0
 16 32  1  0  0  0  0
 17 33  1  0  0  0  0
 18 19  1  0  0  0  0
 18 20  1  0  0  0  0
 18 21  1  0  0  0  0
M  END
> <s_m_source_file>
AV-unprocessed.smi

> <i_m_source_file_index>
288

> <i_lp_mmshare_version>
43012

> <i_f3d_flags>
0

> <s_epik_input>
TzFbQ0gyXVtDSDJdW0NIMl1bQ0BIXTFuKFtjSF1jKEYpYzI9TyljKD1PKW4yW0NIMl1bQ0BIXShbT0hdKUMoRikoRilG

> <s_epik_cmdline>
J2VwaWtfcHl0aG9uJywgJy1waCcsICc3LjAnLCAnLXRuJywgJzgnLCAnLW1hJywgJzIwMCcsICctbWV0YWxfYmluZGluZycsICctaW1hZScsICc8aW5maWxlLm1hZT4nLCAnLW9tYWUnLCAnPG91dGZpbGUubWFlPic=

> <r_lp_tautomer_probability>
1

> <r_epik_Ionization_Penalty>
0.000551119

> <r_epik_Ionization_Penalty_Charging>
2.51184e-08

> <r_epik_Ionization_Penalty_Neutral>
0.000551094

> <r_epik_State_Penalty>
0.000345115

> <r_epik_Charging_Adjusted_Penalty>
0.00034514

> <i_epik_Tot_Q>
0

> <i_epik_Tot_abs_Q>
0

> <r_epik_Metal_State_Penalty>
-0

> <b_epik_Metal_Only>
0

> <s_epik_Chemistry_Notes>
This compound contains an acetal/aminal-like group ( X-CH(R)-Y where X, Y are N, S, or O) that may be acid/base labile, releasing an aldehyde.

> <s_lp_Force_Field>
OPLS_2005

> <r_lp_Energy>
35.613

> <b_lp_Chiralities_Consistent>
1

> <s_lp_Variant>
AV-unprocessed.smi:288-4

> <Gold.Version>
5.8.1

> <Gold.Id.Protein>
6NUR|6NUR_protein|mol2

> <Gold.PLP.Fitness>
50.1344

> <Gold.PLP.PLP>
-44.3134

> <Gold.PLP.part.hbond>
-3.7884

> <Gold.PLP.part.metal>
0.0000

> <Gold.PLP.part.buried>
-1.1351

> <Gold.PLP.part.nonpolar>
-39.8571

> <Gold.PLP.part.repulsive>
0.5068

> <Gold.PLP.ligand.clash>
0.8885

> <Gold.PLP.ligand.torsion>
0.7103

> <Gold.PLP.Chemscore.Hbond>
2.7040

> <Gold.PLP.Chemscore.CHOScore>
0.0000

> <Gold.PLP.Chemscore.Metal>
0.0000

> <Gold.Chemscore.Hbonds>
donor molecule, donor type, donor heavy atom, donor atom, acceptor molecule, acceptor atom, score
      L1  H    17    33       P1  8028  1.00
      P1  H  7997  8010       L1     1  1.00
      P1  H  8011  8017       L1    11  0.69

> <Gold.PLP.Chemscore.Internal.Correction>
0.0179

> <Gold.Rescore>
     Score         DG    S(hbond)    S(metal)    S(lipo)     H(rot)  DE(clash)    DE(int)     intcor
      8.41     -13.19       2.27        0.00      57.22       2.57       0.05       4.72       ----

> <Gold.Chemscore.Fitness>
8.4112

> <Gold.Chemscore.DG>
-13.1864

> <Gold.Chemscore.ZeroCoef>
-5.4800

> <Gold.Chemscore.Hbond>
2.2694

> <Gold.Chemscore.Metal>
0.0000

> <Gold.Chemscore.Lipo>
57.2165

> <Gold.Chemscore.Internal_Hbond>
0.0000

> <Gold.Chemscore.DEClash>
0.0519

> <Gold.Chemscore.DEInternal>
4.7233

> <Gold.Chemscore.Rot>
2.5656

> <Gold.Chemscore.Internal.Correction>
   9.000000E+99

> <Gold.Chemscore.Hbonds>
donor molecule, donor type, donor heavy atom, donor atom, acceptor molecule, acceptor atom, score
      L1  H    17    33       P1  8028  0.39
      P1  H  7997  8010       L1     1  0.60
      P1  H  8011  8017       L1    11  0.67

> <Gold.Chemscore.Hbond.Weighted>
-7.5799

> <Gold.Chemscore.Metal.Weighted>
-0.0000

> <Gold.Chemscore.Lipo.Weighted>
-6.6943

> <Gold.Chemscore.Internal_Hbond.Weighted>
0.0000

> <Gold.Chemscore.DEClash.Weighted>
0.0519

> <Gold.Chemscore.DEInternal.Weighted>
4.7233

> <Gold.Chemscore.Rot.Weighted>
6.5679

> <Gold.Chemscore.Internal.Correction.Weighted>
   9.000000E+99

> <Gold.Protein.RotatedTorsions>
[ 6907 6896 6895 6894 ] final   68.75 input  -60.11 | X-H torsion
[ 7974 7965 7964 7962 ] final  -96.97 input  175.53 | X-H torsion
[ 8008 7997 7996 7995 ] final   44.49 input   59.86 | X-H torsion
[ 10167 10162 10161 10158 ] final  175.00 input  -65.29 | X-H torsion
[ 10718 10713 10712 10709 ] final   53.44 input   66.30 | X-H torsion
[ 10763 10752 10751 10750 ] final  -59.87 input  -60.55 | X-H torsion
[ 11005 11000 10999 10996 ] final -138.18 input  -57.11 | X-H torsion

> <Gold.Protein.ActiveResidues>
 VAL166  LYS551  ARG553  GLY616  TRP617  ASP618  TYR619  PRO620  LYS621  CYS622 
 ASP623  PHE694  ASN695  SER759  ASP760  ASP761  ALA762  ILE779  LEU786  VAL792 
 PHE793  MET794  SER795  GLU796  ALA797  LYS798  CYS799  TRP800  GLU811  SER814 

> <Gold.Protein.RotatedAtoms>
  152.4641  134.5117  159.9755 H   0  0  0  0  0  0  0  0  0  0  0  0  # atno 6907 bound_to 6896
  151.5159  133.3470  159.2901 H   0  0  0  0  0  0  0  0  0  0  0  0  # atno 6908 bound_to 6896
  150.8617  134.7999  159.7150 H   0  0  0  0  0  0  0  0  0  0  0  0  # atno 6909 bound_to 6896
  145.3399  140.9458  143.2614 H   0  0  0  0  0  0  0  0  0  0  0  0  # atno 7974 bound_to 7965
  155.3201  140.3396  155.4241 H   0  0  0  0  0  0  0  0  0  0  0  0  # atno 8008 bound_to 7997
  156.1913  140.1699  156.8123 H   0  0  0  0  0  0  0  0  0  0  0  0  # atno 8009 bound_to 7997
  154.5445  140.0718  156.8550 H   0  0  0  0  0  0  0  0  0  0  0  0  # atno 8010 bound_to 7997
  139.5161  144.3082  152.0316 H   0  0  0  0  0  0  0  0  0  0  0  0  # atno 10167 bound_to 10162
  157.5167  130.8537  149.8504 H   0  0  0  0  0  0  0  0  0  0  0  0  # atno 10718 bound_to 10713
  154.2604  135.6309  153.5272 H   0  0  0  0  0  0  0  0  0  0  0  0  # atno 10763 bound_to 10752
  152.9897  135.5586  154.5710 H   0  0  0  0  0  0  0  0  0  0  0  0  # atno 10764 bound_to 10752
  154.5258  135.2885  155.1198 H   0  0  0  0  0  0  0  0  0  0  0  0  # atno 10765 bound_to 10752
  140.8641  134.2133  157.4690 H   0  0  0  0  0  0  0  0  0  0  0  0  # atno 11005 bound_to 11000
  144.8799  139.4919  143.6728 LP  0  0  0  0  0  0  0  0  0  0  0  0  # atno 17320 bound_to 7965
  146.3012  139.7432  142.9090 LP  0  0  0  0  0  0  0  0  0  0  0  0  # atno 17321 bound_to 7965
  140.2527  144.4152  150.6215 LP  0  0  0  0  0  0  0  0  0  0  0  0  # atno 17342 bound_to 10162
  140.6213  143.2176  151.6688 LP  0  0  0  0  0  0  0  0  0  0  0  0  # atno 17343 bound_to 10162
  156.0325  130.3760  150.1649 LP  0  0  0  0  0  0  0  0  0  0  0  0  # atno 17370 bound_to 10713
  156.9838  130.9872  151.3431 LP  0  0  0  0  0  0  0  0  0  0  0  0  # atno 17371 bound_to 10713
  139.8708  134.9743  156.4842 LP  0  0  0  0  0  0  0  0  0  0  0  0  # atno 17394 bound_to 11000
  140.8649  133.8031  155.9304 LP  0  0  0  0  0  0  0  0  0  0  0  0  # atno 17395 bound_to 11000

$$$$
