AV-unprocessed.smi:3031|AV-procd|sdf|11552|dock4
  -GOLD-   2272016513D 1   1.00000     0.00000
 Structure written by MMmdl.
 48 49  0  0  0  0  0  0  0  0  3 V2000
  144.5791  132.0805  150.0810 C   0  0  0  0  0  0  0  0  0  0  0  0
  144.3118  133.3908  150.7639 C   0  0  0  0  0  0  0  0  0  0  0  0
  144.5740  134.6996  150.2703 C   0  0  0  0  0  0  0  0  0  0  0  0
  144.2179  135.6489  151.1196 N   0  0  0  0  0  0  0  0  0  0  0  0
  143.7282  134.9841  152.1888 N   0  0  0  0  0  0  0  0  0  0  0  0
  143.2118  135.7168  153.3345 C   0  0  0  0  0  0  0  0  0  0  0  0
  142.8997  137.2098  153.0568 C   0  0  1  0  0  0  0  0  0  0  0  0
  142.3800  137.8894  154.3313 C   0  0  0  0  0  0  0  0  0  0  0  0
  144.0754  137.9674  152.5618 N   0  3  0  0  0  0  0  0  0  0  0  0
  145.3929  137.5611  153.0986 C   0  0  0  0  0  0  0  0  0  0  0  0
  146.5287  138.4520  152.5644 C   0  0  1  0  0  0  0  0  0  0  0  0
  146.0160  139.2435  151.5114 O   0  0  0  0  0  0  0  0  0  0  0  0
  147.0781  139.4128  153.6407 C   0  0  0  0  0  0  0  0  0  0  0  0
  146.1504  140.5296  153.9573 N   0  3  0  0  0  0  0  0  0  0  0  0
  145.5559  140.4452  155.3145 C   0  0  0  0  0  0  0  0  0  0  0  0
  144.5872  141.6169  155.5525 C   0  0  0  0  0  0  0  0  0  0  0  0
  145.2692  142.8494  155.3582 O   0  0  0  0  0  0  0  0  0  0  0  0
  145.7626  142.9806  154.0313 C   0  0  0  0  0  0  0  0  0  0  0  0
  146.7739  141.8578  153.7459 C   0  0  0  0  0  0  0  0  0  0  0  0
  143.7550  133.6192  151.9905 C   0  0  0  0  0  0  0  0  0  0  0  0
  144.2705  132.1021  149.0355 H   0  0  0  0  0  0  0  0  0  0  0  0
  144.0434  131.2578  150.5553 H   0  0  0  0  0  0  0  0  0  0  0  0
  145.6391  131.8270  150.0989 H   0  0  0  0  0  0  0  0  0  0  0  0
  145.0082  134.9858  149.3237 H   0  0  0  0  0  0  0  0  0  0  0  0
  142.3024  135.2035  153.6502 H   0  0  0  0  0  0  0  0  0  0  0  0
  143.9172  135.6237  154.1614 H   0  0  0  0  0  0  0  0  0  0  0  0
  142.1038  137.2914  152.3156 H   0  0  0  0  0  0  0  0  0  0  0  0
  141.4794  137.3976  154.7006 H   0  0  0  0  0  0  0  0  0  0  0  0
  142.1278  138.9340  154.1466 H   0  0  0  0  0  0  0  0  0  0  0  0
  143.1237  137.8620  155.1288 H   0  0  0  0  0  0  0  0  0  0  0  0
  144.1091  137.8312  151.5616 H   0  0  0  0  0  0  0  0  0  0  0  0
  145.3770  137.6016  154.1872 H   0  0  0  0  0  0  0  0  0  0  0  0
  145.5810  136.5249  152.8157 H   0  0  0  0  0  0  0  0  0  0  0  0
  147.3295  137.8349  152.1568 H   0  0  0  0  0  0  0  0  0  0  0  0
  145.3580  138.7473  151.0474 H   0  0  0  0  0  0  0  0  0  0  0  0
  147.3125  138.8705  154.5585 H   0  0  0  0  0  0  0  0  0  0  0  0
  148.0234  139.8238  153.2819 H   0  0  0  0  0  0  0  0  0  0  0  0
  145.0199  139.5049  155.4391 H   0  0  0  0  0  0  0  0  0  0  0  0
  146.3490  140.4632  156.0639 H   0  0  0  0  0  0  0  0  0  0  0  0
  143.7267  141.5543  154.8844 H   0  0  0  0  0  0  0  0  0  0  0  0
  144.2015  141.5845  156.5718 H   0  0  0  0  0  0  0  0  0  0  0  0
  144.9374  142.9529  153.3179 H   0  0  0  0  0  0  0  0  0  0  0  0
  146.2420  143.9538  153.9261 H   0  0  0  0  0  0  0  0  0  0  0  0
  147.6436  141.9626  154.3967 H   0  0  0  0  0  0  0  0  0  0  0  0
  147.1296  141.9409  152.7180 H   0  0  0  0  0  0  0  0  0  0  0  0
  143.3858  132.9282  152.7345 H   0  0  0  0  0  0  0  0  0  0  0  0
  143.9379  138.9527  152.7387 H   0  0  0  0  0  0  0  0  0  0  0  0
  145.3886  140.4733  153.2966 H   0  0  0  0  0  0  0  0  0  0  0  0
  1  2  1  0  0  0  0
  1 21  1  0  0  0  0
  1 22  1  0  0  0  0
  1 23  1  0  0  0  0
  2 20  2  0  0  0  0
  2  3  1  0  0  0  0
  3  4  2  0  0  0  0
  3 24  1  0  0  0  0
  4  5  1  0  0  0  0
  5  6  1  0  0  0  0
  5 20  1  0  0  0  0
  6  7  1  0  0  0  0
  6 25  1  0  0  0  0
  6 26  1  0  0  0  0
  7  8  1  0  0  0  0
  7  9  1  0  0  0  0
  7 27  1  0  0  0  0
  8 28  1  0  0  0  0
  8 29  1  0  0  0  0
  8 30  1  0  0  0  0
  9 10  1  0  0  0  0
  9 31  1  0  0  0  0
  9 47  1  0  0  0  0
 10 11  1  0  0  0  0
 10 32  1  0  0  0  0
 10 33  1  0  0  0  0
 11 12  1  0  0  0  0
 11 13  1  0  0  0  0
 11 34  1  0  0  0  0
 12 35  1  0  0  0  0
 13 14  1  0  0  0  0
 13 36  1  0  0  0  0
 13 37  1  0  0  0  0
 14 19  1  0  0  0  0
 14 15  1  0  0  0  0
 14 48  1  0  0  0  0
 15 16  1  0  0  0  0
 15 38  1  0  0  0  0
 15 39  1  0  0  0  0
 16 17  1  0  0  0  0
 16 40  1  0  0  0  0
 16 41  1  0  0  0  0
 17 18  1  0  0  0  0
 18 19  1  0  0  0  0
 18 42  1  0  0  0  0
 18 43  1  0  0  0  0
 19 44  1  0  0  0  0
 19 45  1  0  0  0  0
 20 46  1  0  0  0  0
M  CHG  1   9   1
M  CHG  1  14   1
M  END
> <s_m_source_file>
AV-unprocessed.smi

> <i_m_source_file_index>
3031

> <i_lp_mmshare_version>
43012

> <i_f3d_flags>
0

> <s_epik_input>
W0NIM11jMVtjSF1ubihbY0hdMSlbQ0gyXVtDQEhdKFtDSDNdKVtOSF1bQ0gyXVtDQEhdKFtPSF0pW0NIMl1OMltDSDJdW0NIMl1PW0NIMl1bQ0gyXTI=

> <s_epik_cmdline>
J2VwaWtfcHl0aG9uJywgJy1waCcsICc3LjAnLCAnLXRuJywgJzgnLCAnLW1hJywgJzIwMCcsICctbWV0YWxfYmluZGluZycsICctaW1hZScsICc8aW5maWxlLm1hZT4nLCAnLW9tYWUnLCAnPG91dGZpbGUubWFlPic=

> <r_lp_tautomer_probability>
1

> <r_epik_Ionization_Penalty>
1.76542

> <r_epik_Ionization_Penalty_Charging>
1.76348

> <r_epik_Ionization_Penalty_Neutral>
0.00194017

> <r_epik_State_Penalty>
1.49348

> <r_epik_Charging_Adjusted_Penalty>
3.25696

> <i_epik_Tot_Q>
2

> <i_epik_Tot_abs_Q>
2

> <r_epik_Metal_State_Penalty>
1.49349

> <b_epik_Metal_Only>
0

> <s_lp_Force_Field>
OPLS_2005

> <r_lp_Energy>
29.0022

> <b_lp_Chiralities_Consistent>
1

> <s_lp_Variant>
AV-unprocessed.smi:3031-12

> <Gold.Version>
5.8.1

> <Gold.Id.Protein>
6NUR|6NUR_protein|mol2

> <Gold.PLP.Fitness>
57.6999

> <Gold.PLP.PLP>
-37.6581

> <Gold.PLP.part.hbond>
-4.8679

> <Gold.PLP.part.metal>
0.0000

> <Gold.PLP.part.buried>
-7.0730

> <Gold.PLP.part.nonpolar>
-27.6193

> <Gold.PLP.part.repulsive>
0.4194

> <Gold.PLP.ligand.clash>
0.0000

> <Gold.PLP.ligand.torsion>
2.0694

> <Gold.PLP.Chemscore.Hbond>
6.0000

> <Gold.PLP.Chemscore.CHOScore>
2.0000

> <Gold.PLP.Chemscore.Metal>
0.0000

> <Gold.Chemscore.Hbonds>
donor molecule, donor type, donor heavy atom, donor atom, acceptor molecule, acceptor atom, score
      L1  H     9    31       P1 10171  0.94
      L1  H     9    47       P1 10175  2.00
      L1  H    12    35       P1 10171  1.00
      L1  H    14    48       P1 10175  2.00
      L1  C     3    24       P1  7921  1.00
      L1  C    20    46       P1 10957  1.00

> <Gold.PLP.Chemscore.Internal.Correction>
0.1807

> <Gold.Rescore>
     Score         DG    S(hbond)    S(metal)    S(lipo)     H(rot)  DE(clash)    DE(int)     intcor
     18.18     -20.11       3.82        0.00      76.10       2.74       0.03       1.89       ----

> <Gold.Chemscore.Fitness>
18.1839

> <Gold.Chemscore.DG>
-20.1080

> <Gold.Chemscore.ZeroCoef>
-5.4800

> <Gold.Chemscore.Hbond>
3.8167

> <Gold.Chemscore.Metal>
0.0000

> <Gold.Chemscore.Lipo>
76.0977

> <Gold.Chemscore.Internal_Hbond>
0.0000

> <Gold.Chemscore.DEClash>
0.0300

> <Gold.Chemscore.DEInternal>
1.8940

> <Gold.Chemscore.Rot>
2.7434

> <Gold.Chemscore.Internal.Correction>
   9.000000E+99

> <Gold.Chemscore.Hbonds>
donor molecule, donor type, donor heavy atom, donor atom, acceptor molecule, acceptor atom, score
      L1  H     9    31       P1 10171  0.91
      L1  H     9    47       P1 10175  0.93
      L1  H    12    35       P1 10171  0.96
      L1  H    14    48       P1 10175  0.97

> <Gold.Chemscore.Hbond.Weighted>
-12.7476

> <Gold.Chemscore.Metal.Weighted>
-0.0000

> <Gold.Chemscore.Lipo.Weighted>
-8.9034

> <Gold.Chemscore.Internal_Hbond.Weighted>
0.0000

> <Gold.Chemscore.DEClash.Weighted>
0.0300

> <Gold.Chemscore.DEInternal.Weighted>
1.8940

> <Gold.Chemscore.Rot.Weighted>
7.0231

> <Gold.Chemscore.Internal.Correction.Weighted>
   9.000000E+99

> <Gold.Protein.RotatedTorsions>
[ 6907 6896 6895 6894 ] final  -21.87 input  -60.11 | X-H torsion
[ 7974 7965 7964 7962 ] final   86.76 input  175.53 | X-H torsion
[ 8008 7997 7996 7995 ] final -165.06 input   59.86 | X-H torsion
[ 10167 10162 10161 10158 ] final -160.11 input  -65.29 | X-H torsion
[ 10718 10713 10712 10709 ] final  -89.05 input   66.30 | X-H torsion
[ 10763 10752 10751 10750 ] final   35.72 input  -60.55 | X-H torsion
[ 11005 11000 10999 10996 ] final  177.38 input  -57.11 | X-H torsion

> <Gold.Protein.ActiveResidues>
 VAL166  LYS551  ARG553  GLY616  TRP617  ASP618  TYR619  PRO620  LYS621  CYS622 
 ASP623  PHE694  ASN695  SER759  ASP760  ASP761  ALA762  ILE779  LEU786  VAL792 
 PHE793  MET794  SER795  GLU796  ALA797  LYS798  CYS799  TRP800  GLU811  SER814 

> <Gold.Protein.RotatedAtoms>
  151.2269  135.0540  159.8971 H   0  0  0  0  0  0  0  0  0  0  0  0  # atno 6907 bound_to 6896
  152.5409  134.0579  159.8149 H   0  0  0  0  0  0  0  0  0  0  0  0  # atno 6908 bound_to 6896
  151.0754  133.5384  159.2656 H   0  0  0  0  0  0  0  0  0  0  0  0  # atno 6909 bound_to 6896
  145.5680  139.2310  143.2422 H   0  0  0  0  0  0  0  0  0  0  0  0  # atno 7974 bound_to 7965
  155.8445  140.0953  157.1713 H   0  0  0  0  0  0  0  0  0  0  0  0  # atno 8008 bound_to 7997
  154.3983  140.1395  156.3831 H   0  0  0  0  0  0  0  0  0  0  0  0  # atno 8009 bound_to 7997
  155.8028  140.3452  155.5415 H   0  0  0  0  0  0  0  0  0  0  0  0  # atno 8010 bound_to 7997
  139.6564  143.9991  152.2197 H   0  0  0  0  0  0  0  0  0  0  0  0  # atno 10167 bound_to 10162
  155.9984  130.4858  150.5113 H   0  0  0  0  0  0  0  0  0  0  0  0  # atno 10718 bound_to 10713
  153.0107  135.6325  154.1871 H   0  0  0  0  0  0  0  0  0  0  0  0  # atno 10763 bound_to 10752
  154.1613  135.2823  155.3109 H   0  0  0  0  0  0  0  0  0  0  0  0  # atno 10764 bound_to 10752
  154.5979  135.5597  153.7405 H   0  0  0  0  0  0  0  0  0  0  0  0  # atno 10765 bound_to 10752
  140.3835  134.6925  157.4465 H   0  0  0  0  0  0  0  0  0  0  0  0  # atno 11005 bound_to 11000
  146.1804  140.6506  142.9192 LP  0  0  0  0  0  0  0  0  0  0  0  0  # atno 17320 bound_to 7965
  144.7451  140.5046  143.6841 LP  0  0  0  0  0  0  0  0  0  0  0  0  # atno 17321 bound_to 7965
  139.9718  144.6488  150.7982 LP  0  0  0  0  0  0  0  0  0  0  0  0  # atno 17342 bound_to 10162
  140.7561  143.3059  151.2963 LP  0  0  0  0  0  0  0  0  0  0  0  0  # atno 17343 bound_to 10162
  157.3086  131.0659  151.2017 LP  0  0  0  0  0  0  0  0  0  0  0  0  # atno 17370 bound_to 10713
  157.2972  130.6825  149.6144 LP  0  0  0  0  0  0  0  0  0  0  0  0  # atno 17371 bound_to 10713
  140.0460  134.6198  155.8920 LP  0  0  0  0  0  0  0  0  0  0  0  0  # atno 17394 bound_to 11000
  141.1915  133.6572  156.5461 LP  0  0  0  0  0  0  0  0  0  0  0  0  # atno 17395 bound_to 11000

$$$$
