AV-unprocessed.smi:984|AV-procd|sdf|4317|dock4
  -GOLD-   22720 2223D 1   1.00000     0.00000
 Structure written by MMmdl.
 34 34  0  0  0  0  0  0  0  0  1 V2000
  152.5909  143.2766  161.6704 C   0  0  0  0  0  0  0  0  0  0  0  0
  152.6349  143.1560  160.1438 C   0  0  0  0  0  0  0  0  0  0  0  0
  152.3355  144.4899  159.4357 C   0  0  0  0  0  0  0  0  0  0  0  0
  152.1099  144.3698  157.9161 C   0  0  0  0  0  0  0  0  0  0  0  0
  150.8534  143.6977  157.5989 N   0  0  0  0  0  0  0  0  0  0  0  0
  150.7097  142.3782  157.4030 C   0  0  0  0  0  0  0  0  0  0  0  0
  151.6283  141.5701  157.5420 O   0  0  0  0  0  0  0  0  0  0  0  0
  149.3199  141.8972  156.9767 C   0  0  0  0  0  0  0  0  0  0  0  0
  149.4401  140.7593  156.0726 N   0  0  0  0  0  0  0  0  0  0  0  0
  149.3062  140.7964  154.7373 C   0  0  0  0  0  0  0  0  0  0  0  0
  149.1929  141.8374  154.0912 O   0  0  0  0  0  0  0  0  0  0  0  0
  149.2633  139.4429  154.0274 C   0  0  0  0  0  0  0  0  0  0  0  0
  150.4830  138.6947  154.2824 N   0  0  0  0  0  0  0  0  0  0  0  0
  150.8252  137.4504  153.9412 C   0  0  0  0  0  0  0  0  0  0  0  0
  152.0245  137.0870  154.3742 N   0  0  0  0  0  0  0  0  0  0  0  0
  152.3922  138.2346  155.0181 C   0  0  0  0  0  0  0  0  0  0  0  0
  151.5046  139.2291  154.9933 N   0  0  0  0  0  0  0  0  0  0  0  0
  152.8013  142.3163  162.1416 H   0  0  0  0  0  0  0  0  0  0  0  0
  151.6094  143.6062  162.0121 H   0  0  0  0  0  0  0  0  0  0  0  0
  153.3306  143.9923  162.0299 H   0  0  0  0  0  0  0  0  0  0  0  0
  153.6193  142.7883  159.8532 H   0  0  0  0  0  0  0  0  0  0  0  0
  151.9163  142.4014  159.8221 H   0  0  0  0  0  0  0  0  0  0  0  0
  151.4435  144.9322  159.8806 H   0  0  0  0  0  0  0  0  0  0  0  0
  153.1470  145.1931  159.6275 H   0  0  0  0  0  0  0  0  0  0  0  0
  152.1627  145.3525  157.4447 H   0  0  0  0  0  0  0  0  0  0  0  0
  152.9173  143.7827  157.4781 H   0  0  0  0  0  0  0  0  0  0  0  0
  150.0420  144.2858  157.4740 H   0  0  0  0  0  0  0  0  0  0  0  0
  148.7361  141.6371  157.8610 H   0  0  0  0  0  0  0  0  0  0  0  0
  148.7797  142.6943  156.4644 H   0  0  0  0  0  0  0  0  0  0  0  0
  149.5351  139.8515  156.5047 H   0  0  0  0  0  0  0  0  0  0  0  0
  148.4133  138.8575  154.3807 H   0  0  0  0  0  0  0  0  0  0  0  0
  149.1370  139.5883  152.9534 H   0  0  0  0  0  0  0  0  0  0  0  0
  150.1800  136.7953  153.3740 H   0  0  0  0  0  0  0  0  0  0  0  0
  153.3413  138.3389  155.5229 H   0  0  0  0  0  0  0  0  0  0  0  0
  1  2  1  0  0  0  0
  1 18  1  0  0  0  0
  1 19  1  0  0  0  0
  1 20  1  0  0  0  0
  2  3  1  0  0  0  0
  2 21  1  0  0  0  0
  2 22  1  0  0  0  0
  3  4  1  0  0  0  0
  3 23  1  0  0  0  0
  3 24  1  0  0  0  0
  4  5  1  0  0  0  0
  4 25  1  0  0  0  0
  4 26  1  0  0  0  0
  5  6  1  0  0  0  0
  5 27  1  0  0  0  0
  6  7  2  0  0  0  0
  6  8  1  0  0  0  0
  8  9  1  0  0  0  0
  8 28  1  0  0  0  0
  8 29  1  0  0  0  0
  9 10  1  0  0  0  0
  9 30  1  0  0  0  0
 10 11  2  0  0  0  0
 10 12  1  0  0  0  0
 12 13  1  0  0  0  0
 12 31  1  0  0  0  0
 12 32  1  0  0  0  0
 13 17  1  0  0  0  0
 13 14  1  0  0  0  0
 14 15  2  0  0  0  0
 14 33  1  0  0  0  0
 15 16  1  0  0  0  0
 16 17  2  0  0  0  0
 16 34  1  0  0  0  0
M  END
> <s_m_source_file>
AV-unprocessed.smi

> <i_m_source_file_index>
984

> <i_lp_mmshare_version>
43012

> <i_f3d_flags>
0

> <s_epik_input>
W0NIM11bQ0gyXVtDSDJdW0NIMl1bTkhdQyg9TylbQ0gyXVtOSF1DKD1PKVtDSDJdbjFbY0hdbltjSF1uMQ==

> <s_epik_cmdline>
J2VwaWtfcHl0aG9uJywgJy1waCcsICc3LjAnLCAnLXRuJywgJzgnLCAnLW1hJywgJzIwMCcsICctbWV0YWxfYmluZGluZycsICctaW1hZScsICc8aW5maWxlLm1hZT4nLCAnLW9tYWUnLCAnPG91dGZpbGUubWFlPic=

> <r_lp_tautomer_probability>
1

> <r_epik_Ionization_Penalty>
7.27004e-06

> <r_epik_Ionization_Penalty_Charging>
0

> <r_epik_Ionization_Penalty_Neutral>
7.27004e-06

> <r_epik_State_Penalty>
-0

> <r_epik_Charging_Adjusted_Penalty>
0

> <i_epik_Tot_Q>
0

> <i_epik_Tot_abs_Q>
0

> <r_epik_Metal_State_Penalty>
-0

> <b_epik_Metal_Only>
0

> <s_lp_Force_Field>
OPLS_2005

> <r_lp_Energy>
2.39519

> <b_lp_Chiralities_Consistent>
1

> <s_lp_Variant>
AV-unprocessed.smi:984-1

> <Gold.Version>
5.8.1

> <Gold.Id.Protein>
6NUR|6NUR_protein|mol2

> <Gold.PLP.Fitness>
46.0405

> <Gold.PLP.PLP>
-36.4617

> <Gold.PLP.part.hbond>
-4.0000

> <Gold.PLP.part.metal>
0.0000

> <Gold.PLP.part.buried>
-4.1502

> <Gold.PLP.part.nonpolar>
-29.6333

> <Gold.PLP.part.repulsive>
0.3381

> <Gold.PLP.ligand.clash>
0.0000

> <Gold.PLP.ligand.torsion>
0.7472

> <Gold.PLP.Chemscore.Hbond>
2.7456

> <Gold.PLP.Chemscore.CHOScore>
0.9080

> <Gold.PLP.Chemscore.Metal>
0.0000

> <Gold.Chemscore.Hbonds>
donor molecule, donor type, donor heavy atom, donor atom, acceptor molecule, acceptor atom, score
      L1  H     5    27       P1  8028  0.42
      P1  H  7989  7998       L1    17  0.24
      P1  H  8011  8017       L1    11  0.50
      P1  H 10752 10764       L1    15  0.51
      L1  C    14    33       P1  7948  0.56

> <Gold.PLP.Chemscore.Internal.Correction>
0.1123

> <Gold.Rescore>
     Score         DG    S(hbond)    S(metal)    S(lipo)     H(rot)  DE(clash)    DE(int)     intcor
      9.39     -11.63       2.40        0.00      63.02       3.61       0.13       2.11       ----

> <Gold.Chemscore.Fitness>
9.3886

> <Gold.Chemscore.DG>
-11.6316

> <Gold.Chemscore.ZeroCoef>
-5.4800

> <Gold.Chemscore.Hbond>
2.4020

> <Gold.Chemscore.Metal>
0.0000

> <Gold.Chemscore.Lipo>
63.0191

> <Gold.Chemscore.Internal_Hbond>
0.0000

> <Gold.Chemscore.DEClash>
0.1317

> <Gold.Chemscore.DEInternal>
2.1113

> <Gold.Chemscore.Rot>
3.6111

> <Gold.Chemscore.Internal.Correction>
   9.000000E+99

> <Gold.Chemscore.Hbonds>
donor molecule, donor type, donor heavy atom, donor atom, acceptor molecule, acceptor atom, score
      L1  H     5    27       P1  8028  0.19
      P1  H  7989  7998       L1    17  0.01
      P1  H  8011  8017       L1    11  0.50
      P1  H 10752 10764       L1    15  0.45

> <Gold.Chemscore.Hbond.Weighted>
-8.0228

> <Gold.Chemscore.Metal.Weighted>
-0.0000

> <Gold.Chemscore.Lipo.Weighted>
-7.3732

> <Gold.Chemscore.Internal_Hbond.Weighted>
0.0000

> <Gold.Chemscore.DEClash.Weighted>
0.1317

> <Gold.Chemscore.DEInternal.Weighted>
2.1113

> <Gold.Chemscore.Rot.Weighted>
9.2444

> <Gold.Chemscore.Internal.Correction.Weighted>
   9.000000E+99

> <Gold.Protein.RotatedTorsions>
[ 6907 6896 6895 6894 ] final   17.53 input  -60.11 | X-H torsion
[ 7974 7965 7964 7962 ] final  177.02 input  175.53 | X-H torsion
[ 8008 7997 7996 7995 ] final -122.29 input   59.86 | X-H torsion
[ 10167 10162 10161 10158 ] final    0.11 input  -65.29 | X-H torsion
[ 10718 10713 10712 10709 ] final -106.06 input   66.30 | X-H torsion
[ 10763 10752 10751 10750 ] final  -42.27 input  -60.55 | X-H torsion
[ 11005 11000 10999 10996 ] final  135.94 input  -57.11 | X-H torsion

> <Gold.Protein.ActiveResidues>
 VAL166  LYS551  ARG553  GLY616  TRP617  ASP618  TYR619  PRO620  LYS621  CYS622 
 ASP623  PHE694  ASN695  SER759  ASP760  ASP761  ALA762  ILE779  LEU786  VAL792 
 PHE793  MET794  SER795  GLU796  ALA797  LYS798  CYS799  TRP800  GLU811  SER814 

> <Gold.Protein.RotatedAtoms>
  151.8510  135.0557  160.0458 H   0  0  0  0  0  0  0  0  0  0  0  0  # atno 6907 bound_to 6896
  152.2736  133.5401  159.5463 H   0  0  0  0  0  0  0  0  0  0  0  0  # atno 6908 bound_to 6896
  150.7161  134.0579  159.3863 H   0  0  0  0  0  0  0  0  0  0  0  0  # atno 6909 bound_to 6896
  144.7175  140.0184  143.6440 H   0  0  0  0  0  0  0  0  0  0  0  0  # atno 7974 bound_to 7965
  155.1619  140.0406  157.2844 H   0  0  0  0  0  0  0  0  0  0  0  0  # atno 8008 bound_to 7997
  154.6330  140.2529  155.7384 H   0  0  0  0  0  0  0  0  0  0  0  0  # atno 8009 bound_to 7997
  156.2494  140.2871  156.0691 H   0  0  0  0  0  0  0  0  0  0  0  0  # atno 8010 bound_to 7997
  140.6743  143.6960  150.7989 H   0  0  0  0  0  0  0  0  0  0  0  0  # atno 10167 bound_to 10162
  156.0373  130.5594  150.7627 H   0  0  0  0  0  0  0  0  0  0  0  0  # atno 10718 bound_to 10713
  153.9762  135.6722  153.4748 H   0  0  0  0  0  0  0  0  0  0  0  0  # atno 10763 bound_to 10752
  153.0769  135.4944  154.8420 H   0  0  0  0  0  0  0  0  0  0  0  0  # atno 10764 bound_to 10752
  154.7191  135.3113  154.9038 H   0  0  0  0  0  0  0  0  0  0  0  0  # atno 10765 bound_to 10752
  140.0013  134.9477  157.0077 H   0  0  0  0  0  0  0  0  0  0  0  0  # atno 11005 bound_to 11000
  146.0201  139.3244  143.0818 LP  0  0  0  0  0  0  0  0  0  0  0  0  # atno 17320 bound_to 7965
  145.8578  140.9492  143.0716 LP  0  0  0  0  0  0  0  0  0  0  0  0  # atno 17321 bound_to 7965
  140.0651  143.5116  152.2608 LP  0  0  0  0  0  0  0  0  0  0  0  0  # atno 17342 bound_to 10162
  139.6027  144.7587  151.3134 LP  0  0  0  0  0  0  0  0  0  0  0  0  # atno 17343 bound_to 10162
  157.5142  131.0927  151.0160 LP  0  0  0  0  0  0  0  0  0  0  0  0  # atno 17370 bound_to 10713
  157.0507  130.5786  149.5370 LP  0  0  0  0  0  0  0  0  0  0  0  0  # atno 17371 bound_to 10713
  140.4723  134.1374  155.7205 LP  0  0  0  0  0  0  0  0  0  0  0  0  # atno 17394 bound_to 11000
  141.1644  133.8732  157.1758 LP  0  0  0  0  0  0  0  0  0  0  0  0  # atno 17395 bound_to 11000

$$$$
