AV-unprocessed.smi:1174|AV-procd|sdf|4948|dock4
  -GOLD-   22720 3533D 1   1.00000     0.00000
 Structure written by MMmdl.
 41 42  0  0  0  0  0  0  0  0  1 V2000
  150.8413  140.5095  156.7737 C   0  0  0  0  0  0  0  0  0  0  0  0
  150.4284  141.9758  156.5892 C   0  0  2  0  0  0  0  0  0  0  0  0
  150.2998  142.6987  157.9479 C   0  0  0  0  0  0  0  0  0  0  0  0
  151.4892  142.5650  158.7709 N   0  0  0  0  0  0  0  0  0  0  0  0
  152.3916  143.5414  159.1378 C   0  0  0  0  0  0  0  0  0  0  0  0
  153.3587  142.9390  159.8898 C   0  0  0  0  0  0  0  0  0  0  0  0
  152.9513  141.5763  159.9340 C   0  0  0  0  0  0  0  0  0  0  0  0
  151.8299  141.3563  159.2669 N   0  0  0  0  0  0  0  0  0  0  0  0
  149.1643  142.0233  155.8548 N   0  0  0  0  0  0  0  0  0  0  0  0
  148.9558  141.5386  154.6198 C   0  0  0  0  0  0  0  0  0  0  0  0
  149.8254  140.9531  153.9744 O   0  0  0  0  0  0  0  0  0  0  0  0
  147.5587  141.7827  154.0192 C   0  0  1  0  0  0  0  0  0  0  0  0
  146.8504  140.4567  153.6476 C   0  0  0  0  0  0  0  0  0  0  0  0
  146.2120  139.7454  154.8575 C   0  0  0  0  0  0  0  0  0  0  0  0
  145.3503  140.7210  155.6768 C   0  0  0  0  0  0  0  0  0  0  0  0
  146.1781  141.8662  156.0948 N   0  0  0  0  0  0  0  0  0  0  0  0
  146.5277  142.1869  157.3671 C   0  0  0  0  0  0  0  0  0  0  0  0
  146.9280  143.4489  157.5509 N   0  0  0  0  0  0  0  0  0  0  0  0
  146.4824  141.3968  158.3086 O   0  0  0  0  0  0  0  0  0  0  0  0
  146.6505  142.6410  154.9357 C   0  0  0  0  0  0  0  0  0  0  0  0
  151.7978  140.4343  157.2916 H   0  0  0  0  0  0  0  0  0  0  0  0
  150.9491  140.0076  155.8114 H   0  0  0  0  0  0  0  0  0  0  0  0
  150.1027  139.9582  157.3571 H   0  0  0  0  0  0  0  0  0  0  0  0
  151.2148  142.4595  156.0067 H   0  0  0  0  0  0  0  0  0  0  0  0
  150.0956  143.7600  157.7992 H   0  0  0  0  0  0  0  0  0  0  0  0
  149.4549  142.2968  158.5089 H   0  0  0  0  0  0  0  0  0  0  0  0
  152.2776  144.5692  158.8260 H   0  0  0  0  0  0  0  0  0  0  0  0
  154.2264  143.4003  160.3371 H   0  0  0  0  0  0  0  0  0  0  0  0
  153.4345  140.7458  160.4273 H   0  0  0  0  0  0  0  0  0  0  0  0
  148.3935  142.4874  156.3126 H   0  0  0  0  0  0  0  0  0  0  0  0
  147.7048  142.3420  153.0935 H   0  0  0  0  0  0  0  0  0  0  0  0
  146.0670  140.6756  152.9211 H   0  0  0  0  0  0  0  0  0  0  0  0
  147.5408  139.7793  153.1427 H   0  0  0  0  0  0  0  0  0  0  0  0
  145.6030  138.9093  154.5131 H   0  0  0  0  0  0  0  0  0  0  0  0
  146.9854  139.3150  155.4942 H   0  0  0  0  0  0  0  0  0  0  0  0
  144.5246  141.0871  155.0651 H   0  0  0  0  0  0  0  0  0  0  0  0
  144.8812  140.1865  156.5023 H   0  0  0  0  0  0  0  0  0  0  0  0
  147.2103  143.7584  158.4690 H   0  0  0  0  0  0  0  0  0  0  0  0
  146.9523  144.0842  156.7668 H   0  0  0  0  0  0  0  0  0  0  0  0
  147.1759  143.5525  155.2252 H   0  0  0  0  0  0  0  0  0  0  0  0
  145.7821  142.9822  154.3706 H   0  0  0  0  0  0  0  0  0  0  0  0
  1  2  1  0  0  0  0
  1 21  1  0  0  0  0
  1 22  1  0  0  0  0
  1 23  1  0  0  0  0
  2  3  1  0  0  0  0
  2  9  1  0  0  0  0
  2 24  1  0  0  0  0
  3  4  1  0  0  0  0
  3 25  1  0  0  0  0
  3 26  1  0  0  0  0
  4  8  1  0  0  0  0
  4  5  1  0  0  0  0
  5  6  2  0  0  0  0
  5 27  1  0  0  0  0
  6  7  1  0  0  0  0
  6 28  1  0  0  0  0
  7  8  2  0  0  0  0
  7 29  1  0  0  0  0
  9 10  1  0  0  0  0
  9 30  1  0  0  0  0
 10 11  2  0  0  0  0
 10 12  1  0  0  0  0
 12 20  1  0  0  0  0
 12 13  1  0  0  0  0
 12 31  1  0  0  0  0
 13 14  1  0  0  0  0
 13 32  1  0  0  0  0
 13 33  1  0  0  0  0
 14 15  1  0  0  0  0
 14 34  1  0  0  0  0
 14 35  1  0  0  0  0
 15 16  1  0  0  0  0
 15 36  1  0  0  0  0
 15 37  1  0  0  0  0
 16 17  1  0  0  0  0
 16 20  1  0  0  0  0
 17 18  1  0  0  0  0
 17 19  2  0  0  0  0
 18 38  1  0  0  0  0
 18 39  1  0  0  0  0
 20 40  1  0  0  0  0
 20 41  1  0  0  0  0
M  END
> <s_m_source_file>
AV-unprocessed.smi

> <i_m_source_file_index>
1174

> <i_lp_mmshare_version>
43012

> <i_f3d_flags>
0

> <s_epik_input>
bjFbY0hdW2NIXVtjSF1uMVtDSDJdW0NAQEhdKFtDSDNdKVtOSF1DKD1PKVtDQEBIXTJbQ0gyXVtDSDJdW0NIMl1OKFtDSDJdMilDKD1PKVtOSDJd

> <s_epik_cmdline>
J2VwaWtfcHl0aG9uJywgJy1waCcsICc3LjAnLCAnLXRuJywgJzgnLCAnLW1hJywgJzIwMCcsICctbWV0YWxfYmluZGluZycsICctaW1hZScsICc8aW5maWxlLm1hZT4nLCAnLW9tYWUnLCAnPG91dGZpbGUubWFlPic=

> <r_lp_tautomer_probability>
1

> <r_epik_Ionization_Penalty>
0.000372452

> <r_epik_Ionization_Penalty_Charging>
0

> <r_epik_Ionization_Penalty_Neutral>
0.000372452

> <r_epik_State_Penalty>
-0

> <r_epik_Charging_Adjusted_Penalty>
0

> <i_epik_Tot_Q>
0

> <i_epik_Tot_abs_Q>
0

> <r_epik_Metal_State_Penalty>
-0

> <b_epik_Metal_Only>
0

> <s_lp_Force_Field>
OPLS_2005

> <r_lp_Energy>
23.1922

> <b_lp_Chiralities_Consistent>
1

> <s_lp_Variant>
AV-unprocessed.smi:1174-3

> <Gold.Version>
5.8.1

> <Gold.Id.Protein>
6NUR|6NUR_protein|mol2

> <Gold.PLP.Fitness>
39.1873

> <Gold.PLP.PLP>
-36.1730

> <Gold.PLP.part.hbond>
-5.3446

> <Gold.PLP.part.metal>
0.0000

> <Gold.PLP.part.buried>
-2.3543

> <Gold.PLP.part.nonpolar>
-29.7373

> <Gold.PLP.part.repulsive>
1.3247

> <Gold.PLP.ligand.clash>
0.1117

> <Gold.PLP.ligand.torsion>
0.2808

> <Gold.PLP.Chemscore.Hbond>
1.2102

> <Gold.PLP.Chemscore.CHOScore>
0.0000

> <Gold.PLP.Chemscore.Metal>
0.0000

> <Gold.Chemscore.Hbonds>
donor molecule, donor type, donor heavy atom, donor atom, acceptor molecule, acceptor atom, score
      P1  H  7989  7998       L1    11  0.46
      P1  H  8011  8017       L1    11  0.35

> <Gold.PLP.Chemscore.Internal.Correction>
0.0572

> <Gold.Rescore>
     Score         DG    S(hbond)    S(metal)    S(lipo)     H(rot)  DE(clash)    DE(int)     intcor
      9.46     -13.44       1.15        0.00      74.95       1.82       0.49       3.48       ----

> <Gold.Chemscore.Fitness>
9.4633

> <Gold.Chemscore.DG>
-13.4369

> <Gold.Chemscore.ZeroCoef>
-5.4800

> <Gold.Chemscore.Hbond>
1.1522

> <Gold.Chemscore.Metal>
0.0000

> <Gold.Chemscore.Lipo>
74.9510

> <Gold.Chemscore.Internal_Hbond>
0.0000

> <Gold.Chemscore.DEClash>
0.4938

> <Gold.Chemscore.DEInternal>
3.4798

> <Gold.Chemscore.Rot>
1.8206

> <Gold.Chemscore.Internal.Correction>
   9.000000E+99

> <Gold.Chemscore.Hbonds>
donor molecule, donor type, donor heavy atom, donor atom, acceptor molecule, acceptor atom, score
      L1  H     9    30       P1  8028  0.01
      P1  H  6934  6946       L1    19  0.01
      P1  H  7989  7998       L1    11  0.46
      P1  H  8011  8017       L1    11  0.04

> <Gold.Chemscore.Hbond.Weighted>
-3.8483

> <Gold.Chemscore.Metal.Weighted>
-0.0000

> <Gold.Chemscore.Lipo.Weighted>
-8.7693

> <Gold.Chemscore.Internal_Hbond.Weighted>
0.0000

> <Gold.Chemscore.DEClash.Weighted>
0.4938

> <Gold.Chemscore.DEInternal.Weighted>
3.4798

> <Gold.Chemscore.Rot.Weighted>
4.6607

> <Gold.Chemscore.Internal.Correction.Weighted>
   9.000000E+99

> <Gold.Protein.RotatedTorsions>
[ 6907 6896 6895 6894 ] final  -56.72 input  -60.11 | X-H torsion
[ 7974 7965 7964 7962 ] final    1.05 input  175.53 | X-H torsion
[ 8008 7997 7996 7995 ] final   35.17 input   59.86 | X-H torsion
[ 10167 10162 10161 10158 ] final  -69.98 input  -65.29 | X-H torsion
[ 10718 10713 10712 10709 ] final   71.98 input   66.30 | X-H torsion
[ 10763 10752 10751 10750 ] final   11.03 input  -60.55 | X-H torsion
[ 11005 11000 10999 10996 ] final  151.43 input  -57.11 | X-H torsion

> <Gold.Protein.ActiveResidues>
 VAL166  LYS551  ARG553  GLY616  TRP617  ASP618  TYR619  PRO620  LYS621  CYS622 
 ASP623  PHE694  ASN695  SER759  ASP760  ASP761  ALA762  ILE779  LEU786  VAL792 
 PHE793  MET794  SER795  GLU796  ALA797  LYS798  CYS799  TRP800  GLU811  SER814 

> <Gold.Protein.RotatedAtoms>
  150.8144  134.7317  159.6716 H   0  0  0  0  0  0  0  0  0  0  0  0  # atno 6907 bound_to 6896
  152.4263  134.5859  159.9970 H   0  0  0  0  0  0  0  0  0  0  0  0  # atno 6908 bound_to 6896
  151.6059  133.3314  159.3093 H   0  0  0  0  0  0  0  0  0  0  0  0  # atno 6909 bound_to 6896
  146.2438  140.1045  142.8346 H   0  0  0  0  0  0  0  0  0  0  0  0  # atno 7974 bound_to 7965
  155.1667  140.3288  155.4400 H   0  0  0  0  0  0  0  0  0  0  0  0  # atno 8008 bound_to 7997
  156.2524  140.1950  156.6723 H   0  0  0  0  0  0  0  0  0  0  0  0  # atno 8009 bound_to 7997
  154.6366  140.0575  156.9782 H   0  0  0  0  0  0  0  0  0  0  0  0  # atno 8010 bound_to 7997
  140.5389  143.2316  151.7127 H   0  0  0  0  0  0  0  0  0  0  0  0  # atno 10167 bound_to 10162
  157.6478  130.9555  150.0865 H   0  0  0  0  0  0  0  0  0  0  0  0  # atno 10718 bound_to 10713
  153.1969  135.6850  153.8280 H   0  0  0  0  0  0  0  0  0  0  0  0  # atno 10763 bound_to 10752
  153.7560  135.3217  155.3330 H   0  0  0  0  0  0  0  0  0  0  0  0  # atno 10764 bound_to 10752
  154.8150  135.4692  154.0718 H   0  0  0  0  0  0  0  0  0  0  0  0  # atno 10765 bound_to 10752
  140.1218  134.8858  157.2083 H   0  0  0  0  0  0  0  0  0  0  0  0  # atno 11005 bound_to 11000
  145.0540  140.9038  143.4978 LP  0  0  0  0  0  0  0  0  0  0  0  0  # atno 17320 bound_to 7965
  145.1148  139.2733  143.5619 LP  0  0  0  0  0  0  0  0  0  0  0  0  # atno 17321 bound_to 7965
  139.4981  144.4000  152.0191 LP  0  0  0  0  0  0  0  0  0  0  0  0  # atno 17342 bound_to 10162
  140.3108  144.3540  150.6034 LP  0  0  0  0  0  0  0  0  0  0  0  0  # atno 17343 bound_to 10162
  156.1826  130.3651  149.9015 LP  0  0  0  0  0  0  0  0  0  0  0  0  # atno 17370 bound_to 10713
  156.6964  130.8916  151.3594 LP  0  0  0  0  0  0  0  0  0  0  0  0  # atno 17371 bound_to 10713
  140.2955  134.3192  155.7303 LP  0  0  0  0  0  0  0  0  0  0  0  0  # atno 17394 bound_to 11000
  141.2153  133.7560  156.9564 LP  0  0  0  0  0  0  0  0  0  0  0  0  # atno 17395 bound_to 11000

$$$$
