AV-unprocessed.smi:2703|AV-procd|sdf|10440|dock6
  -GOLD-   2272014483D 1   1.00000     0.00000
 Structure written by MMmdl.
 43 45  0  0  0  0  0  0  0  0  4 V2000
  151.9207  145.0872  160.3825 C   0  0  0  0  0  0  0  0  0  0  0  0
  151.7603  143.7996  159.5925 C   0  0  0  0  0  0  0  0  0  0  0  0
  151.0840  143.8485  158.3528 C   0  0  0  0  0  0  0  0  0  0  0  0
  150.9514  142.6540  157.6548 C   0  0  0  0  0  0  0  0  0  0  0  0
  150.3439  142.3746  156.4291 N   0  3  0  0  0  0  0  0  0  0  0  0
  150.4658  141.0468  156.1537 C   0  0  0  0  0  0  0  0  0  0  0  0
  151.1445  140.4738  157.1843 N   0  0  0  0  0  0  0  0  0  0  0  0
  151.5368  139.0706  157.3810 C   0  0  0  0  0  0  0  0  0  0  0  0
  151.1227  138.5223  158.7606 C   0  0  2  0  0  0  0  0  0  0  0  0
  152.2707  138.3126  159.5608 O   0  0  0  0  0  0  0  0  0  0  0  0
  150.3389  137.2052  158.6406 C   0  0  0  0  0  0  0  0  0  0  0  0
  148.5692  137.4245  158.9893 S   0  0  0  0  0  0  0  0  0  0  0  0
  147.9850  135.9707  159.8279 C   0  0  0  0  0  0  0  0  0  0  0  0
  148.0554  134.6867  159.2430 C   0  0  0  0  0  0  0  0  0  0  0  0
  147.5788  133.5723  159.9503 C   0  0  0  0  0  0  0  0  0  0  0  0
  147.0399  133.7625  161.2311 C   0  0  0  0  0  0  0  0  0  0  0  0
  146.9889  135.0601  161.7750 C   0  0  0  0  0  0  0  0  0  0  0  0
  147.4533  136.1469  161.0846 N   0  3  0  0  0  0  0  0  0  0  0  0
  147.3827  137.3130  161.6257 O   0  5  0  0  0  0  0  0  0  0  0  0
  151.4666  141.4386  158.1467 C   0  0  0  0  0  0  0  0  0  0  0  0
  152.1353  141.3735  159.3673 C   0  0  0  0  0  0  0  0  0  0  0  0
  152.2780  142.5773  160.0938 C   0  0  0  0  0  0  0  0  0  0  0  0
  153.0000  142.5354  161.4298 C   0  0  0  0  0  0  0  0  0  0  0  0
  151.4828  145.9360  159.8562 H   0  0  0  0  0  0  0  0  0  0  0  0
  152.9757  145.3071  160.5478 H   0  0  0  0  0  0  0  0  0  0  0  0
  151.4274  145.0054  161.3512 H   0  0  0  0  0  0  0  0  0  0  0  0
  150.6858  144.7751  157.9658 H   0  0  0  0  0  0  0  0  0  0  0  0
  150.0910  140.5396  155.2764 H   0  0  0  0  0  0  0  0  0  0  0  0
  151.0517  138.4924  156.5936 H   0  0  0  0  0  0  0  0  0  0  0  0
  152.6094  138.9671  157.2164 H   0  0  0  0  0  0  0  0  0  0  0  0
  150.4983  139.2638  159.2606 H   0  0  0  0  0  0  0  0  0  0  0  0
  152.2426  137.4331  159.9049 H   0  0  0  0  0  0  0  0  0  0  0  0
  150.4369  136.8123  157.6283 H   0  0  0  0  0  0  0  0  0  0  0  0
  150.7495  136.4566  159.3193 H   0  0  0  0  0  0  0  0  0  0  0  0
  148.4688  134.5416  158.2573 H   0  0  0  0  0  0  0  0  0  0  0  0
  147.6253  132.5846  159.5150 H   0  0  0  0  0  0  0  0  0  0  0  0
  146.6661  132.9212  161.7958 H   0  0  0  0  0  0  0  0  0  0  0  0
  146.5879  135.2836  162.7532 H   0  0  0  0  0  0  0  0  0  0  0  0
  152.5270  140.4442  159.7527 H   0  0  0  0  0  0  0  0  0  0  0  0
  153.3301  141.5252  161.6738 H   0  0  0  0  0  0  0  0  0  0  0  0
  152.3427  142.8731  162.2314 H   0  0  0  0  0  0  0  0  0  0  0  0
  153.8809  143.1775  161.4094 H   0  0  0  0  0  0  0  0  0  0  0  0
  149.8779  143.0385  155.8239 H   0  0  0  0  0  0  0  0  0  0  0  0
  1  2  1  0  0  0  0
  1 24  1  0  0  0  0
  1 25  1  0  0  0  0
  1 26  1  0  0  0  0
  2 22  1  0  0  0  0
  2  3  2  0  0  0  0
  3  4  1  0  0  0  0
  3 27  1  0  0  0  0
  4 20  2  0  0  0  0
  4  5  1  0  0  0  0
  5  6  2  0  0  0  0
  5 43  1  0  0  0  0
  6  7  1  0  0  0  0
  6 28  1  0  0  0  0
  7  8  1  0  0  0  0
  7 20  1  0  0  0  0
  8  9  1  0  0  0  0
  8 29  1  0  0  0  0
  8 30  1  0  0  0  0
  9 10  1  0  0  0  0
  9 11  1  0  0  0  0
  9 31  1  0  0  0  0
 10 32  1  0  0  0  0
 11 12  1  0  0  0  0
 11 33  1  0  0  0  0
 11 34  1  0  0  0  0
 12 13  1  0  0  0  0
 13 18  1  0  0  0  0
 13 14  2  0  0  0  0
 14 15  1  0  0  0  0
 14 35  1  0  0  0  0
 15 16  2  0  0  0  0
 15 36  1  0  0  0  0
 16 17  1  0  0  0  0
 16 37  1  0  0  0  0
 17 18  2  0  0  0  0
 17 38  1  0  0  0  0
 18 19  1  0  0  0  0
 20 21  1  0  0  0  0
 21 22  2  0  0  0  0
 21 39  1  0  0  0  0
 22 23  1  0  0  0  0
 23 40  1  0  0  0  0
 23 41  1  0  0  0  0
 23 42  1  0  0  0  0
M  CHG  1   5   1
M  CHG  1  18   1
M  CHG  1  19  -1
M  END
> <s_m_source_file>
AV-unprocessed.smi

> <i_m_source_file_index>
2703

> <i_lp_mmshare_version>
43012

> <i_f3d_flags>
0

> <s_epik_input>
W0NIM11jKFtjSF0xKWMoW0NIM10pW2NIXWMoYzEyKW4oW2NIXW4yKVtDSDJdW0NASF0oW09IXSlbQ0gyXVNjM1tjSF1bY0hdW2NIXVtjSF1bbitdM1tPLV0=

> <s_epik_cmdline>
J2VwaWtfcHl0aG9uJywgJy1waCcsICc3LjAnLCAnLXRuJywgJzgnLCAnLW1hJywgJzIwMCcsICctbWV0YWxfYmluZGluZycsICctaW1hZScsICc8aW5maWxlLm1hZT4nLCAnLW9tYWUnLCAnPG91dGZpbGUubWFlPic=

> <r_epik_Ionization_Penalty>
1.07182

> <r_epik_Ionization_Penalty_Charging>
1.07181

> <r_epik_Ionization_Penalty_Neutral>
2.88913e-06

> <r_epik_State_Penalty>
1.12646

> <r_epik_Charging_Adjusted_Penalty>
2.19828

> <i_epik_Tot_Q>
1

> <i_epik_Tot_abs_Q>
3

> <r_epik_Metal_State_Penalty>
5.12345

> <b_epik_Metal_Only>
0

> <s_lp_Force_Field>
OPLS_2005

> <r_lp_Energy>
22.2033

> <b_lp_Chiralities_Consistent>
1

> <s_lp_Variant>
AV-unprocessed.smi:2703-3

> <Gold.Version>
5.8.1

> <Gold.Id.Protein>
6NUR|6NUR_protein|mol2

> <Gold.PLP.Fitness>
58.4564

> <Gold.PLP.PLP>
-50.8174

> <Gold.PLP.part.hbond>
-3.0000

> <Gold.PLP.part.metal>
0.0000

> <Gold.PLP.part.buried>
-6.3036

> <Gold.PLP.part.nonpolar>
-41.5621

> <Gold.PLP.part.repulsive>
0.0728

> <Gold.PLP.ligand.clash>
0.0000

> <Gold.PLP.ligand.torsion>
1.7108

> <Gold.PLP.Chemscore.Hbond>
3.6800

> <Gold.PLP.Chemscore.CHOScore>
0.0000

> <Gold.PLP.Chemscore.Metal>
0.0000

> <Gold.Chemscore.Hbonds>
donor molecule, donor type, donor heavy atom, donor atom, acceptor molecule, acceptor atom, score
      L1  H     5    43       P1  8028  1.92
      P1  H  6931  6943       L1    19  0.85
      P1  H  6934  6947       L1    19  0.83

> <Gold.PLP.Chemscore.Internal.Correction>
0.0205

> <Gold.Rescore>
     Score         DG    S(hbond)    S(metal)    S(lipo)     H(rot)  DE(clash)    DE(int)     intcor
     21.12     -22.81       2.71        0.00     121.79       2.33       0.02       1.68       ----

> <Gold.Chemscore.Fitness>
21.1153

> <Gold.Chemscore.DG>
-22.8135

> <Gold.Chemscore.ZeroCoef>
-5.4800

> <Gold.Chemscore.Hbond>
2.7074

> <Gold.Chemscore.Metal>
0.0000

> <Gold.Chemscore.Lipo>
121.7872

> <Gold.Chemscore.Internal_Hbond>
0.0000

> <Gold.Chemscore.DEClash>
0.0197

> <Gold.Chemscore.DEInternal>
1.6785

> <Gold.Chemscore.Rot>
2.3274

> <Gold.Chemscore.Internal.Correction>
   9.000000E+99

> <Gold.Chemscore.Hbonds>
donor molecule, donor type, donor heavy atom, donor atom, acceptor molecule, acceptor atom, score
      L1  H     5    43       P1  8028  0.91
      P1  H  6931  6943       L1    19  0.81
      P1  H  6934  6947       L1    19  0.83

> <Gold.Chemscore.Hbond.Weighted>
-9.0426

> <Gold.Chemscore.Metal.Weighted>
-0.0000

> <Gold.Chemscore.Lipo.Weighted>
-14.2491

> <Gold.Chemscore.Internal_Hbond.Weighted>
0.0000

> <Gold.Chemscore.DEClash.Weighted>
0.0197

> <Gold.Chemscore.DEInternal.Weighted>
1.6785

> <Gold.Chemscore.Rot.Weighted>
5.9583

> <Gold.Chemscore.Internal.Correction.Weighted>
   9.000000E+99

> <Gold.Protein.RotatedTorsions>
[ 6907 6896 6895 6894 ] final  -73.78 input  -60.11 | X-H torsion
[ 7974 7965 7964 7962 ] final   33.77 input  175.53 | X-H torsion
[ 8008 7997 7996 7995 ] final  147.08 input   59.86 | X-H torsion
[ 10167 10162 10161 10158 ] final  -23.51 input  -65.29 | X-H torsion
[ 10718 10713 10712 10709 ] final  -67.85 input   66.30 | X-H torsion
[ 10763 10752 10751 10750 ] final -125.19 input  -60.55 | X-H torsion
[ 11005 11000 10999 10996 ] final    8.91 input  -57.11 | X-H torsion

> <Gold.Protein.ActiveResidues>
 VAL166  LYS551  ARG553  GLY616  TRP617  ASP618  TYR619  PRO620  LYS621  CYS622 
 ASP623  PHE694  ASN695  SER759  ASP760  ASP761  ALA762  ILE779  LEU786  VAL792 
 PHE793  MET794  SER795  GLU796  ALA797  LYS798  CYS799  TRP800  GLU811  SER814 

> <Gold.Protein.RotatedAtoms>
  150.7117  134.4966  159.5540 H   0  0  0  0  0  0  0  0  0  0  0  0  # atno 6907 bound_to 6896
  152.2572  134.8069  160.0445 H   0  0  0  0  0  0  0  0  0  0  0  0  # atno 6908 bound_to 6896
  151.8795  133.3457  159.3798 H   0  0  0  0  0  0  0  0  0  0  0  0  # atno 6909 bound_to 6896
  146.1398  139.6354  142.9171 H   0  0  0  0  0  0  0  0  0  0  0  0  # atno 7974 bound_to 7965
  156.2836  140.2165  156.5480 H   0  0  0  0  0  0  0  0  0  0  0  0  # atno 8008 bound_to 7997
  154.7315  140.0495  157.0753 H   0  0  0  0  0  0  0  0  0  0  0  0  # atno 8009 bound_to 7997
  155.0348  140.3139  155.4748 H   0  0  0  0  0  0  0  0  0  0  0  0  # atno 8010 bound_to 7997
  140.7288  143.4437  151.0619 H   0  0  0  0  0  0  0  0  0  0  0  0  # atno 10167 bound_to 10162
  156.0535  130.4285  150.1915 H   0  0  0  0  0  0  0  0  0  0  0  0  # atno 10718 bound_to 10713
  154.8733  135.4038  154.3228 H   0  0  0  0  0  0  0  0  0  0  0  0  # atno 10763 bound_to 10752
  153.4053  135.7019  153.6402 H   0  0  0  0  0  0  0  0  0  0  0  0  # atno 10764 bound_to 10752
  153.5127  135.3704  155.2565 H   0  0  0  0  0  0  0  0  0  0  0  0  # atno 10765 bound_to 10752
  140.5317  134.0460  155.7875 H   0  0  0  0  0  0  0  0  0  0  0  0  # atno 11005 bound_to 11000
  145.5073  141.0436  143.2507 LP  0  0  0  0  0  0  0  0  0  0  0  0  # atno 17320 bound_to 7965
  144.7779  139.6589  143.7167 LP  0  0  0  0  0  0  0  0  0  0  0  0  # atno 17321 bound_to 7965
  139.8106  143.7956  152.3171 LP  0  0  0  0  0  0  0  0  0  0  0  0  # atno 17342 bound_to 10162
  139.8004  144.7376  150.9832 LP  0  0  0  0  0  0  0  0  0  0  0  0  # atno 17343 bound_to 10162
  156.9995  130.9918  151.3394 LP  0  0  0  0  0  0  0  0  0  0  0  0  # atno 17370 bound_to 10713
  157.5485  130.8166  149.8115 LP  0  0  0  0  0  0  0  0  0  0  0  0  # atno 17371 bound_to 10713
  141.1278  133.9354  157.2600 LP  0  0  0  0  0  0  0  0  0  0  0  0  # atno 17394 bound_to 11000
  139.9551  135.0167  156.9104 LP  0  0  0  0  0  0  0  0  0  0  0  0  # atno 17395 bound_to 11000

$$$$
