AV-unprocessed.smi:3284|AV-procd|sdf|12575|dock4
  -GOLD-   2272018493D 1   1.00000     0.00000
 Structure written by MMmdl.
 44 45  0  0  0  0  0  0  0  0  2 V2000
  153.8962  140.4929  160.4445 C   0  0  0  0  0  0  0  0  0  0  0  0
  153.2253  141.8361  160.6753 C   0  0  0  0  0  0  0  0  0  0  0  0
  153.1343  142.3706  161.9090 C   0  0  0  0  0  0  0  0  0  0  0  0
  152.5203  143.7231  162.2217 C   0  0  0  0  0  0  0  0  0  0  0  0
  151.8175  144.3587  161.0112 C   0  0  0  0  0  0  0  0  0  0  0  0
  152.5827  144.0838  159.7041 C   0  0  2  0  0  0  0  0  0  0  0  0
  152.0353  144.9195  158.5349 C   0  0  0  0  0  0  0  0  0  0  0  0
  152.7032  142.5539  159.4283 C   0  0  2  0  0  0  0  0  0  0  0  0
  151.3973  141.8769  158.9380 C   0  0  0  0  0  0  0  0  0  0  0  0
  151.0484  142.2598  157.5559 N   0  3  0  0  0  0  0  0  0  0  0  0
  149.9452  141.4738  156.9676 C   0  0  0  0  0  0  0  0  0  0  0  0
  150.0757  141.3733  155.4402 C   0  0  0  0  0  0  0  0  0  0  0  0
  150.7856  140.1315  154.9901 C   0  0  0  0  0  0  0  0  0  0  0  0
  152.0871  139.9229  155.1671 N   0  0  0  0  0  0  0  0  0  0  0  0
  152.3204  138.6596  154.6341 C   0  0  0  0  0  0  0  0  0  0  0  0
  151.1402  138.1417  154.1579 C   0  0  0  0  0  0  0  0  0  0  0  0
  150.1604  139.0961  154.3973 N   0  0  0  0  0  0  0  0  0  0  0  0
  148.7542  138.9738  154.0650 C   0  0  0  0  0  0  0  0  0  0  0  0
  154.7301  140.6017  159.7507 H   0  0  0  0  0  0  0  0  0  0  0  0
  153.1987  139.7657  160.0307 H   0  0  0  0  0  0  0  0  0  0  0  0
  154.2890  140.0817  161.3752 H   0  0  0  0  0  0  0  0  0  0  0  0
  153.5410  141.8352  162.7546 H   0  0  0  0  0  0  0  0  0  0  0  0
  151.8202  143.6217  163.0515 H   0  0  0  0  0  0  0  0  0  0  0  0
  153.3235  144.3755  162.5653 H   0  0  0  0  0  0  0  0  0  0  0  0
  150.8009  143.9735  160.9339 H   0  0  0  0  0  0  0  0  0  0  0  0
  151.7183  145.4321  161.1779 H   0  0  0  0  0  0  0  0  0  0  0  0
  153.6008  144.4445  159.8616 H   0  0  0  0  0  0  0  0  0  0  0  0
  150.9717  144.7440  158.3736 H   0  0  0  0  0  0  0  0  0  0  0  0
  152.5652  144.6985  157.6081 H   0  0  0  0  0  0  0  0  0  0  0  0
  152.1570  145.9851  158.7322 H   0  0  0  0  0  0  0  0  0  0  0  0
  153.4637  142.4211  158.6570 H   0  0  0  0  0  0  0  0  0  0  0  0
  151.5002  140.7924  158.9462 H   0  0  0  0  0  0  0  0  0  0  0  0
  150.5682  142.1090  159.6063 H   0  0  0  0  0  0  0  0  0  0  0  0
  150.7820  143.2340  157.5532 H   0  0  0  0  0  0  0  0  0  0  0  0
  149.9308  140.4760  157.4083 H   0  0  0  0  0  0  0  0  0  0  0  0
  148.9981  141.9510  157.2222 H   0  0  0  0  0  0  0  0  0  0  0  0
  149.0874  141.4140  154.9822 H   0  0  0  0  0  0  0  0  0  0  0  0
  150.6163  142.2400  155.0572 H   0  0  0  0  0  0  0  0  0  0  0  0
  153.3089  138.2243  154.6360 H   0  0  0  0  0  0  0  0  0  0  0  0
  150.9229  137.1963  153.6823 H   0  0  0  0  0  0  0  0  0  0  0  0
  148.5495  137.9854  153.6522 H   0  0  0  0  0  0  0  0  0  0  0  0
  148.4834  139.7265  153.3240 H   0  0  0  0  0  0  0  0  0  0  0  0
  148.1479  139.1140  154.9603 H   0  0  0  0  0  0  0  0  0  0  0  0
  151.8675  142.1507  156.9741 H   0  0  0  0  0  0  0  0  0  0  0  0
  1  2  1  0  0  0  0
  1 19  1  0  0  0  0
  1 20  1  0  0  0  0
  1 21  1  0  0  0  0
  2  8  1  0  0  0  0
  2  3  2  0  0  0  0
  3  4  1  0  0  0  0
  3 22  1  0  0  0  0
  4  5  1  0  0  0  0
  4 23  1  0  0  0  0
  4 24  1  0  0  0  0
  5  6  1  0  0  0  0
  5 25  1  0  0  0  0
  5 26  1  0  0  0  0
  6  7  1  0  0  0  0
  6  8  1  0  0  0  0
  6 27  1  0  0  0  0
  7 28  1  0  0  0  0
  7 29  1  0  0  0  0
  7 30  1  0  0  0  0
  8  9  1  0  0  0  0
  8 31  1  0  0  0  0
  9 10  1  0  0  0  0
  9 32  1  0  0  0  0
  9 33  1  0  0  0  0
 10 11  1  0  0  0  0
 10 34  1  0  0  0  0
 10 44  1  0  0  0  0
 11 12  1  0  0  0  0
 11 35  1  0  0  0  0
 11 36  1  0  0  0  0
 12 13  1  0  0  0  0
 12 37  1  0  0  0  0
 12 38  1  0  0  0  0
 13 17  1  0  0  0  0
 13 14  2  0  0  0  0
 14 15  1  0  0  0  0
 15 16  2  0  0  0  0
 15 39  1  0  0  0  0
 16 17  1  0  0  0  0
 16 40  1  0  0  0  0
 17 18  1  0  0  0  0
 18 41  1  0  0  0  0
 18 42  1  0  0  0  0
 18 43  1  0  0  0  0
M  CHG  1  10   1
M  END
> <s_m_source_file>
AV-unprocessed.smi

> <i_m_source_file_index>
3284

> <i_lp_mmshare_version>
43012

> <i_f3d_flags>
0

> <s_epik_input>
W0NIM11DMT1bQ0hdW0NIMl1bQ0gyXVtDQEBIXShbQ0gzXSlbQ0BIXTFbQ0gyXVtOSF1bQ0gyXVtDSDJdYzJuW2NIXVtjSF1uMltDSDNd

> <s_epik_cmdline>
J2VwaWtfcHl0aG9uJywgJy1waCcsICc3LjAnLCAnLXRuJywgJzgnLCAnLW1hJywgJzIwMCcsICctbWV0YWxfYmluZGluZycsICctaW1hZScsICc8aW5maWxlLm1hZT4nLCAnLW9tYWUnLCAnPG91dGZpbGUubWFlPic=

> <r_lp_tautomer_probability>
1

> <r_epik_Ionization_Penalty>
0.150779

> <r_epik_Ionization_Penalty_Charging>
0.150779

> <r_epik_Ionization_Penalty_Neutral>
1.39452e-13

> <r_epik_State_Penalty>
0.349447

> <r_epik_Charging_Adjusted_Penalty>
0.500226

> <i_epik_Tot_Q>
1

> <i_epik_Tot_abs_Q>
1

> <r_epik_Metal_State_Penalty>
0.000470967

> <b_epik_Metal_Only>
0

> <s_lp_Force_Field>
OPLS_2005

> <r_lp_Energy>
16.0755

> <b_lp_Chiralities_Consistent>
1

> <s_lp_Variant>
AV-unprocessed.smi:3284-4

> <Gold.Version>
5.8.1

> <Gold.Id.Protein>
6NUR|6NUR_protein|mol2

> <Gold.PLP.Fitness>
54.9073

> <Gold.PLP.PLP>
-52.7676

> <Gold.PLP.part.hbond>
-1.0000

> <Gold.PLP.part.metal>
0.0000

> <Gold.PLP.part.buried>
-3.3510

> <Gold.PLP.part.nonpolar>
-48.3032

> <Gold.PLP.part.repulsive>
0.0518

> <Gold.PLP.ligand.clash>
0.0000

> <Gold.PLP.ligand.torsion>
0.6411

> <Gold.PLP.Chemscore.Hbond>
0.0000

> <Gold.PLP.Chemscore.CHOScore>
1.0997

> <Gold.PLP.Chemscore.Metal>
0.0000

> <Gold.Chemscore.Hbonds>
donor molecule, donor type, donor heavy atom, donor atom, acceptor molecule, acceptor atom, score
      L1  C    16    40       P1  7948  0.12
      L1  C    16    40       P1  7949  0.99

> <Gold.PLP.Chemscore.Internal.Correction>
0.1227

> <Gold.Rescore>
     Score         DG    S(hbond)    S(metal)    S(lipo)     H(rot)  DE(clash)    DE(int)     intcor
     16.62     -17.45       0.03        0.00     136.55       1.61       0.11       0.72       ----

> <Gold.Chemscore.Fitness>
16.6200

> <Gold.Chemscore.DG>
-17.4482

> <Gold.Chemscore.ZeroCoef>
-5.4800

> <Gold.Chemscore.Hbond>
0.0342

> <Gold.Chemscore.Metal>
0.0000

> <Gold.Chemscore.Lipo>
136.5546

> <Gold.Chemscore.Internal_Hbond>
0.0000

> <Gold.Chemscore.DEClash>
0.1064

> <Gold.Chemscore.DEInternal>
0.7218

> <Gold.Chemscore.Rot>
1.6105

> <Gold.Chemscore.Internal.Correction>
   9.000000E+99

> <Gold.Chemscore.Hbond.Weighted>
-0.1143

> <Gold.Chemscore.Metal.Weighted>
-0.0000

> <Gold.Chemscore.Lipo.Weighted>
-15.9769

> <Gold.Chemscore.Internal_Hbond.Weighted>
0.0000

> <Gold.Chemscore.DEClash.Weighted>
0.1064

> <Gold.Chemscore.DEInternal.Weighted>
0.7218

> <Gold.Chemscore.Rot.Weighted>
4.1230

> <Gold.Chemscore.Internal.Correction.Weighted>
   9.000000E+99

> <Gold.Protein.RotatedTorsions>
[ 6907 6896 6895 6894 ] final  163.14 input  -60.11 | X-H torsion
[ 7974 7965 7964 7962 ] final  -39.07 input  175.53 | X-H torsion
[ 8008 7997 7996 7995 ] final -138.44 input   59.86 | X-H torsion
[ 10167 10162 10161 10158 ] final -149.15 input  -65.29 | X-H torsion
[ 10718 10713 10712 10709 ] final -111.86 input   66.30 | X-H torsion
[ 10763 10752 10751 10750 ] final  124.23 input  -60.55 | X-H torsion
[ 11005 11000 10999 10996 ] final  101.72 input  -57.11 | X-H torsion

> <Gold.Protein.ActiveResidues>
 VAL166  LYS551  ARG553  GLY616  TRP617  ASP618  TYR619  PRO620  LYS621  CYS622 
 ASP623  PHE694  ASN695  SER759  ASP760  ASP761  ALA762  ILE779  LEU786  VAL792 
 PHE793  MET794  SER795  GLU796  ALA797  LYS798  CYS799  TRP800  GLU811  SER814 

> <Gold.Protein.RotatedAtoms>
  151.9298  133.3608  159.3926 H   0  0  0  0  0  0  0  0  0  0  0  0  # atno 6907 bound_to 6896
  150.7019  134.4549  159.5363 H   0  0  0  0  0  0  0  0  0  0  0  0  # atno 6908 bound_to 6896
  152.2187  134.8433  160.0539 H   0  0  0  0  0  0  0  0  0  0  0  0  # atno 6909 bound_to 6896
  146.0429  140.6584  142.9078 H   0  0  0  0  0  0  0  0  0  0  0  0  # atno 7974 bound_to 7965
  155.4283  140.0523  157.3020 H   0  0  0  0  0  0  0  0  0  0  0  0  # atno 8008 bound_to 7997
  154.4871  140.2105  155.9589 H   0  0  0  0  0  0  0  0  0  0  0  0  # atno 8009 bound_to 7997
  156.1290  140.3175  155.8326 H   0  0  0  0  0  0  0  0  0  0  0  0  # atno 8010 bound_to 7997
  139.7468  143.8578  152.2576 H   0  0  0  0  0  0  0  0  0  0  0  0  # atno 10167 bound_to 10162
  156.0671  130.5889  150.8430 H   0  0  0  0  0  0  0  0  0  0  0  0  # atno 10718 bound_to 10713
  153.6581  135.3351  155.3119 H   0  0  0  0  0  0  0  0  0  0  0  0  # atno 10763 bound_to 10752
  154.8521  135.4357  154.1833 H   0  0  0  0  0  0  0  0  0  0  0  0  # atno 10764 bound_to 10752
  153.2793  135.7007  153.7477 H   0  0  0  0  0  0  0  0  0  0  0  0  # atno 10765 bound_to 10752
  139.8774  134.9195  156.4950 H   0  0  0  0  0  0  0  0  0  0  0  0  # atno 11005 bound_to 11000
  144.7083  140.3942  143.7100 LP  0  0  0  0  0  0  0  0  0  0  0  0  # atno 17320 bound_to 7965
  145.6853  139.1627  143.2677 LP  0  0  0  0  0  0  0  0  0  0  0  0  # atno 17321 bound_to 7965
  139.8545  144.7148  150.9174 LP  0  0  0  0  0  0  0  0  0  0  0  0  # atno 17342 bound_to 10162
  140.7793  143.3870  151.1376 LP  0  0  0  0  0  0  0  0  0  0  0  0  # atno 17343 bound_to 10162
  157.5720  131.0946  150.9403 LP  0  0  0  0  0  0  0  0  0  0  0  0  # atno 17370 bound_to 10713
  156.9617  130.5457  149.5286 LP  0  0  0  0  0  0  0  0  0  0  0  0  # atno 17371 bound_to 10713
  140.8631  133.8045  155.9286 LP  0  0  0  0  0  0  0  0  0  0  0  0  # atno 17394 bound_to 11000
  140.9029  134.2356  157.5031 LP  0  0  0  0  0  0  0  0  0  0  0  0  # atno 17395 bound_to 11000

$$$$
