AV-unprocessed.smi:2079|AV-procd|sdf|8480|dock9
  -GOLD-   2272011183D 1   1.00000     0.00000
 Structure written by MMmdl.
 41 42  0  0  0  0  0  0  0  0  3 V2000
  152.4907  141.2520  159.0033 C   0  0  0  0  0  0  0  0  0  0  0  0
  152.0820  140.7427  157.6634 C   0  0  0  0  0  0  0  0  0  0  0  0
  151.1002  141.1161  156.7902 C   0  0  0  0  0  0  0  0  0  0  0  0
  151.2707  140.2142  155.7047 C   0  0  0  0  0  0  0  0  0  0  0  0
  150.5226  140.1728  154.5913 N   0  5  0  0  0  0  0  0  0  0  0  0
  149.2012  139.8958  154.6687 C   0  0  0  0  0  0  0  0  0  0  0  0
  148.4714  140.0677  155.6477 O   0  0  0  0  0  0  0  0  0  0  0  0
  148.6928  139.3819  153.5413 N   0  0  0  0  0  0  0  0  0  0  0  0
  147.3064  138.9775  153.3557 C   0  0  0  0  0  0  0  0  0  0  0  0
  147.0704  137.5892  153.9724 C   0  0  0  0  0  0  0  0  0  0  0  0
  146.7483  136.5396  152.9679 N   0  3  1  0  0  0  0  0  0  0  0  0
  146.5993  135.2000  153.5990 C   0  0  0  0  0  0  0  0  0  0  0  0
  146.4768  134.0892  152.5443 C   0  0  0  0  0  0  0  0  0  0  0  0
  145.3160  134.3685  151.5844 C   0  0  0  0  0  0  0  0  0  0  0  0
  145.4853  135.7581  150.9564 C   0  0  0  0  0  0  0  0  0  0  0  0
  145.6361  136.8672  152.0196 C   0  0  1  0  0  0  0  0  0  0  0  0
  144.2988  137.1882  152.7208 C   0  0  0  0  0  0  0  0  0  0  0  0
  152.2583  139.3587  155.9080 N   0  0  0  0  0  0  0  0  0  0  0  0
  152.7887  139.6956  157.1591 O   0  0  0  0  0  0  0  0  0  0  0  0
  151.6587  141.1987  159.7053 H   0  0  0  0  0  0  0  0  0  0  0  0
  152.8124  142.2913  158.9383 H   0  0  0  0  0  0  0  0  0  0  0  0
  153.3155  140.6679  159.4124 H   0  0  0  0  0  0  0  0  0  0  0  0
  150.3765  141.9086  156.9073 H   0  0  0  0  0  0  0  0  0  0  0  0
  149.3212  139.2601  152.7607 H   0  0  0  0  0  0  0  0  0  0  0  0
  146.6669  139.7243  153.8266 H   0  0  0  0  0  0  0  0  0  0  0  0
  147.0732  138.9672  152.2900 H   0  0  0  0  0  0  0  0  0  0  0  0
  147.9820  137.2934  154.4943 H   0  0  0  0  0  0  0  0  0  0  0  0
  146.2915  137.6346  154.7342 H   0  0  0  0  0  0  0  0  0  0  0  0
  147.4677  134.9931  154.2258 H   0  0  0  0  0  0  0  0  0  0  0  0
  145.7322  135.1929  154.2603 H   0  0  0  0  0  0  0  0  0  0  0  0
  147.4084  134.0144  151.9814 H   0  0  0  0  0  0  0  0  0  0  0  0
  146.3326  133.1250  153.0327 H   0  0  0  0  0  0  0  0  0  0  0  0
  145.2814  133.6062  150.8057 H   0  0  0  0  0  0  0  0  0  0  0  0
  144.3673  134.3090  152.1191 H   0  0  0  0  0  0  0  0  0  0  0  0
  146.3708  135.7521  150.3193 H   0  0  0  0  0  0  0  0  0  0  0  0
  144.6434  135.9754  150.2980 H   0  0  0  0  0  0  0  0  0  0  0  0
  145.9248  137.7597  151.4659 H   0  0  0  0  0  0  0  0  0  0  0  0
  143.5204  137.3957  151.9863 H   0  0  0  0  0  0  0  0  0  0  0  0
  144.3755  138.0735  153.3517 H   0  0  0  0  0  0  0  0  0  0  0  0
  143.9473  136.3648  153.3413 H   0  0  0  0  0  0  0  0  0  0  0  0
  147.5742  136.4674  152.3908 H   0  0  0  0  0  0  0  0  0  0  0  0
  1  2  1  0  0  0  0
  1 20  1  0  0  0  0
  1 21  1  0  0  0  0
  1 22  1  0  0  0  0
  2 19  1  0  0  0  0
  2  3  2  0  0  0  0
  3  4  1  0  0  0  0
  3 23  1  0  0  0  0
  4  5  1  0  0  0  0
  4 18  2  0  0  0  0
  5  6  1  0  0  0  0
  6  7  2  0  0  0  0
  6  8  1  0  0  0  0
  8  9  1  0  0  0  0
  8 24  1  0  0  0  0
  9 10  1  0  0  0  0
  9 25  1  0  0  0  0
  9 26  1  0  0  0  0
 10 11  1  0  0  0  0
 10 27  1  0  0  0  0
 10 28  1  0  0  0  0
 11 16  1  0  0  0  0
 11 12  1  0  0  0  0
 11 41  1  0  0  0  0
 12 13  1  0  0  0  0
 12 29  1  0  0  0  0
 12 30  1  0  0  0  0
 13 14  1  0  0  0  0
 13 31  1  0  0  0  0
 13 32  1  0  0  0  0
 14 15  1  0  0  0  0
 14 33  1  0  0  0  0
 14 34  1  0  0  0  0
 15 16  1  0  0  0  0
 15 35  1  0  0  0  0
 15 36  1  0  0  0  0
 16 17  1  0  0  0  0
 16 37  1  0  0  0  0
 17 38  1  0  0  0  0
 17 39  1  0  0  0  0
 17 40  1  0  0  0  0
 18 19  1  0  0  0  0
M  CHG  1   5  -1
M  CHG  1  11   1
M  END
> <s_m_source_file>
AV-unprocessed.smi

> <i_m_source_file_index>
2079

> <i_lp_mmshare_version>
43012

> <i_f3d_flags>
0

> <s_epik_input>
W0NIM11jMVtjSF1jKG5vMSlbTkhdQyg9TylbTkhdW0NIMl1bQ0gyXU4yW0NIMl1bQ0gyXVtDSDJdW0NIMl1bQ0BIXTJbQ0gzXQ==

> <s_epik_cmdline>
J2VwaWtfcHl0aG9uJywgJy1waCcsICc3LjAnLCAnLXRuJywgJzgnLCAnLW1hJywgJzIwMCcsICctbWV0YWxfYmluZGluZycsICctaW1hZScsICc8aW5maWxlLm1hZT4nLCAnLW9tYWUnLCAnPG91dGZpbGUubWFlPic=

> <r_epik_Ionization_Penalty>
6.22371

> <r_epik_Ionization_Penalty_Charging>
6.22362

> <r_epik_Ionization_Penalty_Neutral>
9.40454e-05

> <r_epik_State_Penalty>
6.22363

> <r_epik_Charging_Adjusted_Penalty>
12.4472

> <i_epik_Tot_Q>
0

> <i_epik_Tot_abs_Q>
2

> <r_epik_Metal_State_Penalty>
2.16675

> <b_epik_Metal_Only>
1

> <s_lp_Force_Field>
OPLS_2005

> <r_lp_Energy>
9.70106

> <b_lp_Chiralities_Consistent>
1

> <s_lp_Variant>
AV-unprocessed.smi:2079-6

> <Gold.Version>
5.8.1

> <Gold.Id.Protein>
6NUR|6NUR_protein|mol2

> <Gold.PLP.Fitness>
41.7418

> <Gold.PLP.PLP>
-29.9724

> <Gold.PLP.part.hbond>
-4.0325

> <Gold.PLP.part.metal>
0.0000

> <Gold.PLP.part.buried>
-3.0187

> <Gold.PLP.part.nonpolar>
-22.9468

> <Gold.PLP.part.repulsive>
0.2302

> <Gold.PLP.ligand.clash>
0.0000

> <Gold.PLP.ligand.torsion>
1.2496

> <Gold.PLP.Chemscore.Hbond>
4.7340

> <Gold.PLP.Chemscore.CHOScore>
0.0000

> <Gold.PLP.Chemscore.Metal>
0.0000

> <Gold.Chemscore.Hbonds>
donor molecule, donor type, donor heavy atom, donor atom, acceptor molecule, acceptor atom, score
      L1  H     8    24       P1  7957  0.75
      L1  H    11    41       P1  7948  1.79
      P1  H  7989  7998       L1     5  0.95
      P1  H  7997  8009       L1    19  1.00

> <Gold.PLP.Chemscore.Internal.Correction>
0.0667

> <Gold.Rescore>
     Score         DG    S(hbond)    S(metal)    S(lipo)     H(rot)  DE(clash)    DE(int)     intcor
     16.00     -17.46       2.76        0.00      57.41       1.54       0.12       1.34       ----

> <Gold.Chemscore.Fitness>
15.9963

> <Gold.Chemscore.DG>
-17.4599

> <Gold.Chemscore.ZeroCoef>
-5.4800

> <Gold.Chemscore.Hbond>
2.7566

> <Gold.Chemscore.Metal>
0.0000

> <Gold.Chemscore.Lipo>
57.4143

> <Gold.Chemscore.Internal_Hbond>
0.0000

> <Gold.Chemscore.DEClash>
0.1187

> <Gold.Chemscore.DEInternal>
1.3448

> <Gold.Chemscore.Rot>
1.5409

> <Gold.Chemscore.Internal.Correction>
   9.000000E+99

> <Gold.Chemscore.Hbonds>
donor molecule, donor type, donor heavy atom, donor atom, acceptor molecule, acceptor atom, score
      L1  H     8    24       P1  7957  0.76
      L1  H    11    41       P1  7948  0.86
      P1  H  7989  7998       L1     5  0.21
      P1  H  7997  8009       L1    19  0.31

> <Gold.Chemscore.Hbond.Weighted>
-9.2071

> <Gold.Chemscore.Metal.Weighted>
-0.0000

> <Gold.Chemscore.Lipo.Weighted>
-6.7175

> <Gold.Chemscore.Internal_Hbond.Weighted>
0.0000

> <Gold.Chemscore.DEClash.Weighted>
0.1187

> <Gold.Chemscore.DEInternal.Weighted>
1.3448

> <Gold.Chemscore.Rot.Weighted>
3.9446

> <Gold.Chemscore.Internal.Correction.Weighted>
   9.000000E+99

> <Gold.Protein.RotatedTorsions>
[ 6907 6896 6895 6894 ] final   72.57 input  -60.11 | X-H torsion
[ 7974 7965 7964 7962 ] final  116.79 input  175.53 | X-H torsion
[ 8008 7997 7996 7995 ] final  171.96 input   59.86 | X-H torsion
[ 10167 10162 10161 10158 ] final -176.39 input  -65.29 | X-H torsion
[ 10718 10713 10712 10709 ] final   61.65 input   66.30 | X-H torsion
[ 10763 10752 10751 10750 ] final  177.81 input  -60.55 | X-H torsion
[ 11005 11000 10999 10996 ] final  -80.21 input  -57.11 | X-H torsion

> <Gold.Protein.ActiveResidues>
 VAL166  LYS551  ARG553  GLY616  TRP617  ASP618  TYR619  PRO620  LYS621  CYS622 
 ASP623  PHE694  ASN695  SER759  ASP760  ASP761  ALA762  ILE779  LEU786  VAL792 
 PHE793  MET794  SER795  GLU796  ALA797  LYS798  CYS799  TRP800  GLU811  SER814 

> <Gold.Protein.RotatedAtoms>
  152.4875  134.4552  159.9587 H   0  0  0  0  0  0  0  0  0  0  0  0  # atno 6907 bound_to 6896
  151.4545  133.3602  159.2808 H   0  0  0  0  0  0  0  0  0  0  0  0  # atno 6908 bound_to 6896
  150.8998  134.8434  159.7413 H   0  0  0  0  0  0  0  0  0  0  0  0  # atno 6909 bound_to 6896
  145.1753  139.3079  143.4446 H   0  0  0  0  0  0  0  0  0  0  0  0  # atno 7974 bound_to 7965
  156.1221  140.1498  156.9190 H   0  0  0  0  0  0  0  0  0  0  0  0  # atno 8008 bound_to 7997
  154.4843  140.0870  156.7492 H   0  0  0  0  0  0  0  0  0  0  0  0  # atno 8009 bound_to 7997
  155.4410  140.3431  155.4292 H   0  0  0  0  0  0  0  0  0  0  0  0  # atno 8010 bound_to 7997
  139.5532  144.2055  152.1114 H   0  0  0  0  0  0  0  0  0  0  0  0  # atno 10167 bound_to 10162
  157.5843  130.9006  149.9488 H   0  0  0  0  0  0  0  0  0  0  0  0  # atno 10718 bound_to 10713
  154.4994  135.2783  155.1433 H   0  0  0  0  0  0  0  0  0  0  0  0  # atno 10763 bound_to 10752
  154.3073  135.6236  153.5454 H   0  0  0  0  0  0  0  0  0  0  0  0  # atno 10764 bound_to 10752
  152.9900  135.5711  154.5433 H   0  0  0  0  0  0  0  0  0  0  0  0  # atno 10765 bound_to 10752
  141.1668  133.7140  156.8238 H   0  0  0  0  0  0  0  0  0  0  0  0  # atno 11005 bound_to 11000
  146.3462  140.1913  142.8589 LP  0  0  0  0  0  0  0  0  0  0  0  0  # atno 17320 bound_to 7965
  145.0191  140.8779  143.5177 LP  0  0  0  0  0  0  0  0  0  0  0  0  # atno 17321 bound_to 7965
  140.1554  144.5075  150.6663 LP  0  0  0  0  0  0  0  0  0  0  0  0  # atno 17342 bound_to 10162
  140.6800  143.2322  151.5410 LP  0  0  0  0  0  0  0  0  0  0  0  0  # atno 17343 bound_to 10162
  156.0891  130.3665  150.0429 LP  0  0  0  0  0  0  0  0  0  0  0  0  # atno 17370 bound_to 10713
  156.8563  130.9476  151.3621 LP  0  0  0  0  0  0  0  0  0  0  0  0  # atno 17371 bound_to 10713
  140.2100  134.8834  157.3264 LP  0  0  0  0  0  0  0  0  0  0  0  0  # atno 17394 bound_to 11000
  140.2097  134.4154  155.7619 LP  0  0  0  0  0  0  0  0  0  0  0  0  # atno 17395 bound_to 11000

$$$$
