AV-unprocessed.smi:1018|AV-procd|sdf|4441|dock4
  -GOLD-   22720 2403D 1   1.00000     0.00000
 Structure written by MMmdl.
 52 53  0  0  0  0  0  0  0  0  1 V2000
  151.4938  144.9326  158.8320 C   0  0  0  0  0  0  0  0  0  0  0  0
  152.1000  143.6028  158.3721 C   0  0  2  0  0  0  0  0  0  0  0  0
  151.0750  142.7261  157.6276 C   0  0  0  0  0  0  0  0  0  0  0  0
  151.6641  141.4344  157.3033 N   0  0  0  0  0  0  0  0  0  0  0  0
  150.8314  140.6354  156.5087 C   0  0  0  0  0  0  0  0  0  0  0  0
  149.4819  140.3961  156.8550 C   0  0  0  0  0  0  0  0  0  0  0  0
  148.7010  139.5874  156.0081 C   0  0  0  0  0  0  0  0  0  0  0  0
  149.2860  139.0365  154.8504 C   0  0  0  0  0  0  0  0  0  0  0  0
  148.4691  138.2361  154.0069 N   0  0  0  0  0  0  0  0  0  0  0  0
  147.1277  138.1889  153.9420 C   0  0  0  0  0  0  0  0  0  0  0  0
  146.3574  138.8710  154.6173 O   0  0  0  0  0  0  0  0  0  0  0  0
  146.7209  137.3111  153.0142 N   0  0  0  0  0  0  0  0  0  0  0  0
  145.3297  137.0201  152.6641 C   0  0  0  0  0  0  0  0  0  0  0  0
  145.0185  135.5019  152.5284 C   0  0  0  0  0  0  0  0  0  0  0  0
  145.8876  134.7407  153.5516 C   0  0  0  0  0  0  0  0  0  0  0  0
  143.5305  135.2278  152.8636 C   0  0  0  0  0  0  0  0  0  0  0  0
  145.4015  135.0060  151.1096 C   0  0  0  0  0  0  0  0  0  0  0  0
  144.8229  135.5741  150.0464 N   0  0  0  0  0  0  0  0  0  0  0  0
  146.2292  134.1064  150.9733 O   0  0  0  0  0  0  0  0  0  0  0  0
  150.6409  139.3509  154.5842 C   0  0  0  0  0  0  0  0  0  0  0  0
  151.3946  140.1278  155.3913 N   0  0  0  0  0  0  0  0  0  0  0  0
  152.2057  140.7557  158.4734 C   0  0  0  0  0  0  0  0  0  0  0  0
  153.2126  141.6728  159.1929 C   0  0  2  0  0  0  0  0  0  0  0  0
  153.7441  141.0446  160.4853 C   0  0  0  0  0  0  0  0  0  0  0  0
  152.5668  142.9010  159.5230 O   0  0  0  0  0  0  0  0  0  0  0  0
  151.1305  145.5124  157.9832 H   0  0  0  0  0  0  0  0  0  0  0  0
  152.2345  145.5379  159.3551 H   0  0  0  0  0  0  0  0  0  0  0  0
  150.6561  144.7709  159.5107 H   0  0  0  0  0  0  0  0  0  0  0  0
  152.9465  143.8149  157.7164 H   0  0  0  0  0  0  0  0  0  0  0  0
  150.1885  142.5782  158.2461 H   0  0  0  0  0  0  0  0  0  0  0  0
  150.7509  143.2227  156.7120 H   0  0  0  0  0  0  0  0  0  0  0  0
  149.0481  140.8248  157.7464 H   0  0  0  0  0  0  0  0  0  0  0  0
  147.6665  139.3914  156.2494 H   0  0  0  0  0  0  0  0  0  0  0  0
  148.9654  137.6744  153.3307 H   0  0  0  0  0  0  0  0  0  0  0  0
  147.4277  136.8003  152.5053 H   0  0  0  0  0  0  0  0  0  0  0  0
  144.7064  137.4606  153.4434 H   0  0  0  0  0  0  0  0  0  0  0  0
  145.0515  137.5426  151.7470 H   0  0  0  0  0  0  0  0  0  0  0  0
  145.6494  135.0412  154.5726 H   0  0  0  0  0  0  0  0  0  0  0  0
  146.9517  134.9282  153.4009 H   0  0  0  0  0  0  0  0  0  0  0  0
  145.7324  133.6628  153.4862 H   0  0  0  0  0  0  0  0  0  0  0  0
  143.2752  135.6181  153.8493 H   0  0  0  0  0  0  0  0  0  0  0  0
  143.3106  134.1594  152.8760 H   0  0  0  0  0  0  0  0  0  0  0  0
  142.8514  135.6949  152.1498 H   0  0  0  0  0  0  0  0  0  0  0  0
  145.0648  135.2641  149.1164 H   0  0  0  0  0  0  0  0  0  0  0  0
  144.1483  136.3138  150.1779 H   0  0  0  0  0  0  0  0  0  0  0  0
  151.1468  139.0003  153.6983 H   0  0  0  0  0  0  0  0  0  0  0  0
  151.3972  140.4876  159.1548 H   0  0  0  0  0  0  0  0  0  0  0  0
  152.6927  139.8289  158.1671 H   0  0  0  0  0  0  0  0  0  0  0  0
  154.0581  141.8792  158.5340 H   0  0  0  0  0  0  0  0  0  0  0  0
  154.2566  140.1042  160.2816 H   0  0  0  0  0  0  0  0  0  0  0  0
  152.9348  140.8406  161.1868 H   0  0  0  0  0  0  0  0  0  0  0  0
  154.4532  141.7097  160.9787 H   0  0  0  0  0  0  0  0  0  0  0  0
  1  2  1  0  0  0  0
  1 26  1  0  0  0  0
  1 27  1  0  0  0  0
  1 28  1  0  0  0  0
  2 25  1  0  0  0  0
  2  3  1  0  0  0  0
  2 29  1  0  0  0  0
  3  4  1  0  0  0  0
  3 30  1  0  0  0  0
  3 31  1  0  0  0  0
  4  5  1  0  0  0  0
  4 22  1  0  0  0  0
  5 21  1  0  0  0  0
  5  6  2  0  0  0  0
  6  7  1  0  0  0  0
  6 32  1  0  0  0  0
  7  8  2  0  0  0  0
  7 33  1  0  0  0  0
  8  9  1  0  0  0  0
  8 20  1  0  0  0  0
  9 10  1  0  0  0  0
  9 34  1  0  0  0  0
 10 11  2  0  0  0  0
 10 12  1  0  0  0  0
 12 13  1  0  0  0  0
 12 35  1  0  0  0  0
 13 14  1  0  0  0  0
 13 36  1  0  0  0  0
 13 37  1  0  0  0  0
 14 15  1  0  0  0  0
 14 16  1  0  0  0  0
 14 17  1  0  0  0  0
 15 38  1  0  0  0  0
 15 39  1  0  0  0  0
 15 40  1  0  0  0  0
 16 41  1  0  0  0  0
 16 42  1  0  0  0  0
 16 43  1  0  0  0  0
 17 18  1  0  0  0  0
 17 19  2  0  0  0  0
 18 44  1  0  0  0  0
 18 45  1  0  0  0  0
 20 21  2  0  0  0  0
 20 46  1  0  0  0  0
 22 23  1  0  0  0  0
 22 47  1  0  0  0  0
 22 48  1  0  0  0  0
 23 24  1  0  0  0  0
 23 25  1  0  0  0  0
 23 49  1  0  0  0  0
 24 50  1  0  0  0  0
 24 51  1  0  0  0  0
 24 52  1  0  0  0  0
M  END
> <s_m_source_file>
AV-unprocessed.smi

> <i_m_source_file_index>
1018

> <i_lp_mmshare_version>
43012

> <i_f3d_flags>
0

> <s_epik_input>
W0NIM11bQ0BASF0xW0NIMl1OKFtDSDJdW0NASF0oTzEpW0NIM10pYzJbY0hdW2NIXWMoW2NIXW4yKVtOSF1DKD1PKVtOSF1bQ0gyXUMoW0NIM10pKFtDSDNdKUMoPU8pW05IMl0=

> <s_epik_cmdline>
J2VwaWtfcHl0aG9uJywgJy1waCcsICc3LjAnLCAnLXRuJywgJzgnLCAnLW1hJywgJzIwMCcsICctbWV0YWxfYmluZGluZycsICctaW1hZScsICc8aW5maWxlLm1hZT4nLCAnLW9tYWUnLCAnPG91dGZpbGUubWFlPic=

> <r_lp_tautomer_probability>
1

> <r_epik_Ionization_Penalty>
0.002562

> <r_epik_Ionization_Penalty_Charging>
0

> <r_epik_Ionization_Penalty_Neutral>
0.002562

> <r_epik_State_Penalty>
0.00175377

> <r_epik_Charging_Adjusted_Penalty>
0.00175377

> <i_epik_Tot_Q>
0

> <i_epik_Tot_abs_Q>
0

> <r_epik_Metal_State_Penalty>
-0

> <b_epik_Metal_Only>
0

> <s_lp_Force_Field>
OPLS_2005

> <r_lp_Energy>
23.1449

> <b_lp_Chiralities_Consistent>
1

> <s_lp_Variant>
AV-unprocessed.smi:1018-2

> <Gold.Version>
5.8.1

> <Gold.Id.Protein>
6NUR|6NUR_protein|mol2

> <Gold.PLP.Fitness>
53.3976

> <Gold.PLP.PLP>
-43.2681

> <Gold.PLP.part.hbond>
-5.0211

> <Gold.PLP.part.metal>
0.0000

> <Gold.PLP.part.buried>
-5.5959

> <Gold.PLP.part.nonpolar>
-33.2179

> <Gold.PLP.part.repulsive>
0.5549

> <Gold.PLP.ligand.clash>
0.0000

> <Gold.PLP.ligand.torsion>
1.0093

> <Gold.PLP.Chemscore.Hbond>
4.0000

> <Gold.PLP.Chemscore.CHOScore>
0.0000

> <Gold.PLP.Chemscore.Metal>
0.0000

> <Gold.Chemscore.Hbonds>
donor molecule, donor type, donor heavy atom, donor atom, acceptor molecule, acceptor atom, score
      L1  H     9    34       P1  7948  0.98
      L1  H    12    35       P1  7948  1.00
      L1  H    18    44       P1  7921  1.00
      L1  H    18    45       P1 10171  0.27

> <Gold.PLP.Chemscore.Internal.Correction>
0.1480

> <Gold.Rescore>
     Score         DG    S(hbond)    S(metal)    S(lipo)     H(rot)  DE(clash)    DE(int)     intcor
     22.15     -24.78       3.92        0.00      98.77       2.09       0.43       2.20       ----

> <Gold.Chemscore.Fitness>
22.1546

> <Gold.Chemscore.DG>
-24.7806

> <Gold.Chemscore.ZeroCoef>
-5.4800

> <Gold.Chemscore.Hbond>
3.9243

> <Gold.Chemscore.Metal>
0.0000

> <Gold.Chemscore.Lipo>
98.7679

> <Gold.Chemscore.Internal_Hbond>
0.0000

> <Gold.Chemscore.DEClash>
0.4288

> <Gold.Chemscore.DEInternal>
2.1972

> <Gold.Chemscore.Rot>
2.0947

> <Gold.Chemscore.Internal.Correction>
   9.000000E+99

> <Gold.Chemscore.Hbonds>
donor molecule, donor type, donor heavy atom, donor atom, acceptor molecule, acceptor atom, score
      L1  H     9    34       P1  7948  0.88
      L1  H    12    35       P1  7948  1.00
      L1  H    18    44       P1  7921  0.99
      L1  H    18    45       P1 10171  0.27

> <Gold.Chemscore.Hbond.Weighted>
-13.1071

> <Gold.Chemscore.Metal.Weighted>
-0.0000

> <Gold.Chemscore.Lipo.Weighted>
-11.5558

> <Gold.Chemscore.Internal_Hbond.Weighted>
0.0000

> <Gold.Chemscore.DEClash.Weighted>
0.4288

> <Gold.Chemscore.DEInternal.Weighted>
2.1972

> <Gold.Chemscore.Rot.Weighted>
5.3624

> <Gold.Chemscore.Internal.Correction.Weighted>
   9.000000E+99

> <Gold.Protein.RotatedTorsions>
[ 6907 6896 6895 6894 ] final   75.05 input  -60.11 | X-H torsion
[ 7974 7965 7964 7962 ] final  158.62 input  175.53 | X-H torsion
[ 8008 7997 7996 7995 ] final  -13.13 input   59.86 | X-H torsion
[ 10167 10162 10161 10158 ] final  162.11 input  -65.29 | X-H torsion
[ 10718 10713 10712 10709 ] final -166.41 input   66.30 | X-H torsion
[ 10763 10752 10751 10750 ] final  -89.96 input  -60.55 | X-H torsion
[ 11005 11000 10999 10996 ] final -153.79 input  -57.11 | X-H torsion

> <Gold.Protein.ActiveResidues>
 VAL166  LYS551  ARG553  GLY616  TRP617  ASP618  TYR619  PRO620  LYS621  CYS622 
 ASP623  PHE694  ASN695  SER759  ASP760  ASP761  ALA762  ILE779  LEU786  VAL792 
 PHE793  MET794  SER795  GLU796  ALA797  LYS798  CYS799  TRP800  GLU811  SER814 

> <Gold.Protein.RotatedAtoms>
  152.5006  134.4179  159.9470 H   0  0  0  0  0  0  0  0  0  0  0  0  # atno 6907 bound_to 6896
  151.4151  133.3709  159.2756 H   0  0  0  0  0  0  0  0  0  0  0  0  # atno 6908 bound_to 6896
  150.9263  134.8702  159.7581 H   0  0  0  0  0  0  0  0  0  0  0  0  # atno 6909 bound_to 6896
  144.7835  139.7504  143.6250 H   0  0  0  0  0  0  0  0  0  0  0  0  # atno 7974 bound_to 7965
  154.5318  140.2257  155.8791 H   0  0  0  0  0  0  0  0  0  0  0  0  # atno 8008 bound_to 7997
  156.1771  140.3108  155.9043 H   0  0  0  0  0  0  0  0  0  0  0  0  # atno 8009 bound_to 7997
  155.3436  140.0452  157.3036 H   0  0  0  0  0  0  0  0  0  0  0  0  # atno 8010 bound_to 7997
  139.4857  144.4470  151.8879 H   0  0  0  0  0  0  0  0  0  0  0  0  # atno 10167 bound_to 10162
  156.6675  130.9070  151.3038 H   0  0  0  0  0  0  0  0  0  0  0  0  # atno 10718 bound_to 10713
  154.6607  135.5322  153.8015 H   0  0  0  0  0  0  0  0  0  0  0  0  # atno 10763 bound_to 10752
  153.0440  135.6505  154.0876 H   0  0  0  0  0  0  0  0  0  0  0  0  # atno 10764 bound_to 10752
  154.0784  135.2949  155.3275 H   0  0  0  0  0  0  0  0  0  0  0  0  # atno 10765 bound_to 10752
  140.7043  134.3903  157.5206 H   0  0  0  0  0  0  0  0  0  0  0  0  # atno 11005 bound_to 11000
  146.2056  139.5378  142.9715 LP  0  0  0  0  0  0  0  0  0  0  0  0  # atno 17320 bound_to 7965
  145.5984  141.0359  143.2031 LP  0  0  0  0  0  0  0  0  0  0  0  0  # atno 17321 bound_to 7965
  140.3924  144.2598  150.5898 LP  0  0  0  0  0  0  0  0  0  0  0  0  # atno 17342 bound_to 10162
  140.5133  143.2285  151.8501 LP  0  0  0  0  0  0  0  0  0  0  0  0  # atno 17343 bound_to 10162
  157.7089  130.9416  150.1021 LP  0  0  0  0  0  0  0  0  0  0  0  0  # atno 17370 bound_to 10713
  156.1964  130.3657  149.8844 LP  0  0  0  0  0  0  0  0  0  0  0  0  # atno 17371 bound_to 10713
  139.8888  134.8846  156.2453 LP  0  0  0  0  0  0  0  0  0  0  0  0  # atno 17394 bound_to 11000
  141.0138  133.7080  156.1154 LP  0  0  0  0  0  0  0  0  0  0  0  0  # atno 17395 bound_to 11000

$$$$
