AV-unprocessed.smi:3222|AV-procd|sdf|12306|dock8
  -GOLD-   2272018153D 1   1.00000     0.00000
 Structure written by MMmdl.
 41 42  0  0  0  0  0  0  0  0  2 V2000
  144.2159  135.9997  152.2282 C   0  0  0  0  0  0  0  0  0  0  0  0
  145.6770  135.8188  151.7862 C   0  0  1  0  0  0  0  0  0  0  0  0
  146.5446  136.7348  152.5621 N   0  3  0  0  0  0  0  0  0  0  0  0
  146.2608  138.1710  152.3790 C   0  0  0  0  0  0  0  0  0  0  0  0
  147.4235  139.0273  152.9036 C   0  0  0  0  0  0  0  0  0  0  0  0
  146.9684  140.0267  153.8661 N   0  0  0  0  0  0  0  0  0  0  0  0
  147.1167  141.4457  153.5899 C   0  0  0  0  0  0  0  0  0  0  0  0
  146.6945  142.1508  154.8869 C   0  0  0  0  0  0  0  0  0  0  0  0
  145.9919  141.0833  155.7330 C   0  0  0  0  0  0  0  0  0  0  0  0
  146.3390  139.7864  155.0222 C   0  0  0  0  0  0  0  0  0  0  0  0
  146.0613  138.6784  155.4785 O   0  0  0  0  0  0  0  0  0  0  0  0
  146.1610  134.3495  151.9010 C   0  0  1  0  0  0  0  0  0  0  0  0
  146.2880  133.8722  153.3603 C   0  0  0  0  0  0  0  0  0  0  0  0
  145.3744  133.4228  151.0922 N   0  0  0  0  0  0  0  0  0  0  0  0
  145.8275  132.5175  150.1539 C   0  0  0  0  0  0  0  0  0  0  0  0
  144.7359  131.8824  149.6353 C   0  0  0  0  0  0  0  0  0  0  0  0
  143.6413  132.4753  150.3231 C   0  0  0  0  0  0  0  0  0  0  0  0
  144.0250  133.3995  151.1886 N   0  0  0  0  0  0  0  0  0  0  0  0
  143.5540  135.3303  151.6780 H   0  0  0  0  0  0  0  0  0  0  0  0
  143.8761  137.0194  152.0443 H   0  0  0  0  0  0  0  0  0  0  0  0
  144.0856  135.7965  153.2917 H   0  0  0  0  0  0  0  0  0  0  0  0
  145.7269  136.0948  150.7313 H   0  0  0  0  0  0  0  0  0  0  0  0
  146.4549  136.5088  153.5422 H   0  0  0  0  0  0  0  0  0  0  0  0
  146.0946  138.3661  151.3188 H   0  0  0  0  0  0  0  0  0  0  0  0
  145.3395  138.4248  152.9053 H   0  0  0  0  0  0  0  0  0  0  0  0
  148.1731  138.3889  153.3737 H   0  0  0  0  0  0  0  0  0  0  0  0
  147.9245  139.5310  152.0751 H   0  0  0  0  0  0  0  0  0  0  0  0
  148.1420  141.6921  153.3111 H   0  0  0  0  0  0  0  0  0  0  0  0
  146.4607  141.7228  152.7634 H   0  0  0  0  0  0  0  0  0  0  0  0
  147.5737  142.5226  155.4147 H   0  0  0  0  0  0  0  0  0  0  0  0
  146.0464  143.0050  154.6878 H   0  0  0  0  0  0  0  0  0  0  0  0
  146.3425  141.0789  156.7656 H   0  0  0  0  0  0  0  0  0  0  0  0
  144.9102  141.2211  155.7299 H   0  0  0  0  0  0  0  0  0  0  0  0
  147.1716  134.3232  151.4902 H   0  0  0  0  0  0  0  0  0  0  0  0
  146.9495  134.5266  153.9284 H   0  0  0  0  0  0  0  0  0  0  0  0
  146.7052  132.8656  153.4065 H   0  0  0  0  0  0  0  0  0  0  0  0
  145.3250  133.8537  153.8713 H   0  0  0  0  0  0  0  0  0  0  0  0
  146.8788  132.4022  149.9340 H   0  0  0  0  0  0  0  0  0  0  0  0
  144.7211  131.1119  148.8785 H   0  0  0  0  0  0  0  0  0  0  0  0
  142.5870  132.2662  150.2173 H   0  0  0  0  0  0  0  0  0  0  0  0
  147.5011  136.5624  152.2845 H   0  0  0  0  0  0  0  0  0  0  0  0
  1  2  1  0  0  0  0
  1 19  1  0  0  0  0
  1 20  1  0  0  0  0
  1 21  1  0  0  0  0
  2  3  1  0  0  0  0
  2 12  1  0  0  0  0
  2 22  1  0  0  0  0
  3  4  1  0  0  0  0
  3 23  1  0  0  0  0
  3 41  1  0  0  0  0
  4  5  1  0  0  0  0
  4 24  1  0  0  0  0
  4 25  1  0  0  0  0
  5  6  1  0  0  0  0
  5 26  1  0  0  0  0
  5 27  1  0  0  0  0
  6 10  1  0  0  0  0
  6  7  1  0  0  0  0
  7  8  1  0  0  0  0
  7 28  1  0  0  0  0
  7 29  1  0  0  0  0
  8  9  1  0  0  0  0
  8 30  1  0  0  0  0
  8 31  1  0  0  0  0
  9 10  1  0  0  0  0
  9 32  1  0  0  0  0
  9 33  1  0  0  0  0
 10 11  2  0  0  0  0
 12 13  1  0  0  0  0
 12 14  1  0  0  0  0
 12 34  1  0  0  0  0
 13 35  1  0  0  0  0
 13 36  1  0  0  0  0
 13 37  1  0  0  0  0
 14 18  1  0  0  0  0
 14 15  1  0  0  0  0
 15 16  2  0  0  0  0
 15 38  1  0  0  0  0
 16 17  1  0  0  0  0
 16 39  1  0  0  0  0
 17 18  2  0  0  0  0
 17 40  1  0  0  0  0
M  CHG  1   3   1
M  END
> <s_m_source_file>
AV-unprocessed.smi

> <i_m_source_file_index>
3222

> <i_lp_mmshare_version>
43012

> <i_f3d_flags>
0

> <s_epik_input>
bjFbY0hdW2NIXVtjSF1uMVtDQEBIXShbQ0gzXSlbQ0BIXShbQ0gzXSlbTkhdW0NIMl1bQ0gyXU4yW0NIMl1bQ0gyXVtDSDJdQzI9Tw==

> <s_epik_cmdline>
J2VwaWtfcHl0aG9uJywgJy1waCcsICc3LjAnLCAnLXRuJywgJzgnLCAnLW1hJywgJzIwMCcsICctbWV0YWxfYmluZGluZycsICctaW1hZScsICc8aW5maWxlLm1hZT4nLCAnLW9tYWUnLCAnPG91dGZpbGUubWFlPic=

> <r_lp_tautomer_probability>
1

> <r_epik_Ionization_Penalty>
0.0064019

> <r_epik_Ionization_Penalty_Charging>
0.00639164

> <r_epik_Ionization_Penalty_Neutral>
1.02567e-05

> <r_epik_State_Penalty>
0.00472531

> <r_epik_Charging_Adjusted_Penalty>
0.011117

> <i_epik_Tot_Q>
1

> <i_epik_Tot_abs_Q>
1

> <r_epik_Metal_State_Penalty>
-0

> <b_epik_Metal_Only>
0

> <s_lp_Force_Field>
OPLS_2005

> <r_lp_Energy>
25.7217

> <b_lp_Chiralities_Consistent>
1

> <s_lp_Variant>
AV-unprocessed.smi:3222-4

> <Gold.Version>
5.8.1

> <Gold.Id.Protein>
6NUR|6NUR_protein|mol2

> <Gold.PLP.Fitness>
42.4523

> <Gold.PLP.PLP>
-30.8314

> <Gold.PLP.part.hbond>
-1.0000

> <Gold.PLP.part.metal>
0.0000

> <Gold.PLP.part.buried>
-3.7589

> <Gold.PLP.part.nonpolar>
-27.7598

> <Gold.PLP.part.repulsive>
0.2658

> <Gold.PLP.ligand.clash>
0.0000

> <Gold.PLP.ligand.torsion>
0.7302

> <Gold.PLP.Chemscore.Hbond>
2.0000

> <Gold.PLP.Chemscore.CHOScore>
2.2850

> <Gold.PLP.Chemscore.Metal>
0.0000

> <Gold.Chemscore.Hbonds>
donor molecule, donor type, donor heavy atom, donor atom, acceptor molecule, acceptor atom, score
      L1  H     3    41       P1  7948  2.00
      L1  C    15    38       P1 10747  0.79
      L1  C    17    40       P1 10186  0.33
      L1  C    17    40       P1 10952  0.63

> <Gold.PLP.Chemscore.Internal.Correction>
0.2263

> <Gold.Rescore>
     Score         DG    S(hbond)    S(metal)    S(lipo)     H(rot)  DE(clash)    DE(int)     intcor
     11.01     -12.93       0.98        0.00      79.40       1.99       0.09       1.83       ----

> <Gold.Chemscore.Fitness>
11.0130

> <Gold.Chemscore.DG>
-12.9280

> <Gold.Chemscore.ZeroCoef>
-5.4800

> <Gold.Chemscore.Hbond>
0.9755

> <Gold.Chemscore.Metal>
0.0000

> <Gold.Chemscore.Lipo>
79.4026

> <Gold.Chemscore.Internal_Hbond>
0.0000

> <Gold.Chemscore.DEClash>
0.0883

> <Gold.Chemscore.DEInternal>
1.8268

> <Gold.Chemscore.Rot>
1.9922

> <Gold.Chemscore.Internal.Correction>
   9.000000E+99

> <Gold.Chemscore.Hbonds>
donor molecule, donor type, donor heavy atom, donor atom, acceptor molecule, acceptor atom, score
      L1  H     3    41       P1  7948  0.93

> <Gold.Chemscore.Hbond.Weighted>
-3.2580

> <Gold.Chemscore.Metal.Weighted>
-0.0000

> <Gold.Chemscore.Lipo.Weighted>
-9.2901

> <Gold.Chemscore.Internal_Hbond.Weighted>
0.0000

> <Gold.Chemscore.DEClash.Weighted>
0.0883

> <Gold.Chemscore.DEInternal.Weighted>
1.8268

> <Gold.Chemscore.Rot.Weighted>
5.1002

> <Gold.Chemscore.Internal.Correction.Weighted>
   9.000000E+99

> <Gold.Protein.RotatedTorsions>
[ 6907 6896 6895 6894 ] final   -0.97 input  -60.11 | X-H torsion
[ 7974 7965 7964 7962 ] final   17.48 input  175.53 | X-H torsion
[ 8008 7997 7996 7995 ] final -137.87 input   59.86 | X-H torsion
[ 10167 10162 10161 10158 ] final   93.33 input  -65.29 | X-H torsion
[ 10718 10713 10712 10709 ] final   70.31 input   66.30 | X-H torsion
[ 10763 10752 10751 10750 ] final  -55.93 input  -60.55 | X-H torsion
[ 11005 11000 10999 10996 ] final  150.79 input  -57.11 | X-H torsion

> <Gold.Protein.ActiveResidues>
 VAL166  LYS551  ARG553  GLY616  TRP617  ASP618  TYR619  PRO620  LYS621  CYS622 
 ASP623  PHE694  ASN695  SER759  ASP760  ASP761  ALA762  ILE779  LEU786  VAL792 
 PHE793  MET794  SER795  GLU796  ALA797  LYS798  CYS799  TRP800  GLU811  SER814 

> <Gold.Protein.RotatedAtoms>
  151.5537  135.1067  159.9955 H   0  0  0  0  0  0  0  0  0  0  0  0  # atno 6907 bound_to 6896
  152.4479  133.7568  159.6735 H   0  0  0  0  0  0  0  0  0  0  0  0  # atno 6908 bound_to 6896
  150.8400  133.7884  159.3089 H   0  0  0  0  0  0  0  0  0  0  0  0  # atno 6909 bound_to 6896
  146.2217  139.8595  142.8607 H   0  0  0  0  0  0  0  0  0  0  0  0  # atno 7974 bound_to 7965
  155.4190  140.0517  157.3027 H   0  0  0  0  0  0  0  0  0  0  0  0  # atno 8008 bound_to 7997
  154.4911  140.2120  155.9506 H   0  0  0  0  0  0  0  0  0  0  0  0  # atno 8009 bound_to 7997
  156.1343  140.3166  155.8402 H   0  0  0  0  0  0  0  0  0  0  0  0  # atno 8010 bound_to 7997
  139.8190  144.6740  150.9543 H   0  0  0  0  0  0  0  0  0  0  0  0  # atno 10167 bound_to 10162
  157.6393  130.9470  150.0633 H   0  0  0  0  0  0  0  0  0  0  0  0  # atno 10718 bound_to 10713
  154.1986  135.6415  153.5080 H   0  0  0  0  0  0  0  0  0  0  0  0  # atno 10763 bound_to 10752
  153.0017  135.5446  154.6340 H   0  0  0  0  0  0  0  0  0  0  0  0  # atno 10764 bound_to 10752
  154.5747  135.2920  155.0766 H   0  0  0  0  0  0  0  0  0  0  0  0  # atno 10765 bound_to 10752
  140.1162  134.8893  157.2007 H   0  0  0  0  0  0  0  0  0  0  0  0  # atno 11005 bound_to 11000
  145.2719  141.0111  143.3767 LP  0  0  0  0  0  0  0  0  0  0  0  0  # atno 17320 bound_to 7965
  144.9217  139.4403  143.6538 LP  0  0  0  0  0  0  0  0  0  0  0  0  # atno 17321 bound_to 7965
  140.7814  143.4110  151.0992 LP  0  0  0  0  0  0  0  0  0  0  0  0  # atno 17342 bound_to 10162
  139.7772  143.8408  152.3131 LP  0  0  0  0  0  0  0  0  0  0  0  0  # atno 17343 bound_to 10162
  156.1659  130.3645  149.9233 LP  0  0  0  0  0  0  0  0  0  0  0  0  # atno 17370 bound_to 10713
  156.7220  130.9010  151.3619 LP  0  0  0  0  0  0  0  0  0  0  0  0  # atno 17371 bound_to 10713
  140.3025  134.3115  155.7286 LP  0  0  0  0  0  0  0  0  0  0  0  0  # atno 17394 bound_to 11000
  141.2142  133.7601  156.9661 LP  0  0  0  0  0  0  0  0  0  0  0  0  # atno 17395 bound_to 11000

$$$$
