AV-unprocessed.smi:1677|AV-procd|sdf|6726|dock8
  -GOLD-   22720 7473D 1   1.00000     0.00000
 Structure written by MMmdl.
 36 37  0  0  0  0  0  0  0  0  1 V2000
  153.0408  137.6353  159.4635 C   0  0  0  0  0  0  0  0  0  0  0  0
  152.1914  138.2999  158.3720 C   0  0  2  0  0  0  0  0  0  0  0  0
  152.9175  138.2896  157.0101 C   0  0  0  0  0  0  0  0  0  0  0  0
  152.0347  138.6088  155.9028 N   0  0  0  0  0  0  0  0  0  0  0  0
  151.6300  137.7590  154.8821 C   0  0  0  0  0  0  0  0  0  0  0  0
  150.7899  138.4896  154.0727 C   0  0  0  0  0  0  0  0  0  0  0  0
  150.6689  139.7852  154.5695 N   0  0  0  0  0  0  0  0  0  0  0  0
  151.4361  139.7814  155.6516 C   0  0  0  0  0  0  0  0  0  0  0  0
  151.8775  139.6681  158.7815 N   0  0  0  0  0  0  0  0  0  0  0  0
  152.7729  140.6133  159.1106 C   0  0  0  0  0  0  0  0  0  0  0  0
  153.9908  140.4372  159.0676 O   0  0  0  0  0  0  0  0  0  0  0  0
  152.2039  141.9586  159.5777 C   0  0  1  0  0  0  0  0  0  0  0  0
  152.6671  142.2823  161.0166 C   0  0  0  0  0  0  0  0  0  0  0  0
  152.3376  143.7097  161.4164 C   0  0  0  0  0  0  0  0  0  0  0  0
  152.0055  144.6668  160.5332 C   0  0  0  0  0  0  0  0  0  0  0  0
  151.9263  144.4310  159.0352 C   0  0  0  0  0  0  0  0  0  0  0  0
  152.5858  143.1029  158.6174 C   0  0  0  0  0  0  0  0  0  0  0  0
  153.2678  136.6002  159.2070 H   0  0  0  0  0  0  0  0  0  0  0  0
  152.5167  137.6288  160.4199 H   0  0  0  0  0  0  0  0  0  0  0  0
  153.9873  138.1583  159.6047 H   0  0  0  0  0  0  0  0  0  0  0  0
  151.2722  137.7180  158.2821 H   0  0  0  0  0  0  0  0  0  0  0  0
  153.7500  138.9949  157.0124 H   0  0  0  0  0  0  0  0  0  0  0  0
  153.3447  137.3041  156.8208 H   0  0  0  0  0  0  0  0  0  0  0  0
  151.9584  136.7318  154.8225 H   0  0  0  0  0  0  0  0  0  0  0  0
  150.2675  138.1851  153.1777 H   0  0  0  0  0  0  0  0  0  0  0  0
  151.5574  140.6497  156.2825 H   0  0  0  0  0  0  0  0  0  0  0  0
  150.8987  139.9076  158.8464 H   0  0  0  0  0  0  0  0  0  0  0  0
  151.1146  141.8842  159.5817 H   0  0  0  0  0  0  0  0  0  0  0  0
  152.1847  141.6032  161.7206 H   0  0  0  0  0  0  0  0  0  0  0  0
  153.7431  142.1415  161.1291 H   0  0  0  0  0  0  0  0  0  0  0  0
  152.3919  143.9457  162.4691 H   0  0  0  0  0  0  0  0  0  0  0  0
  151.7687  145.6612  160.8826 H   0  0  0  0  0  0  0  0  0  0  0  0
  150.8745  144.4360  158.7482 H   0  0  0  0  0  0  0  0  0  0  0  0
  152.4021  145.2617  158.5137 H   0  0  0  0  0  0  0  0  0  0  0  0
  153.6697  143.2300  158.6148 H   0  0  0  0  0  0  0  0  0  0  0  0
  152.3028  142.8596  157.5923 H   0  0  0  0  0  0  0  0  0  0  0  0
  1  2  1  0  0  0  0
  1 18  1  0  0  0  0
  1 19  1  0  0  0  0
  1 20  1  0  0  0  0
  2  3  1  0  0  0  0
  2  9  1  0  0  0  0
  2 21  1  0  0  0  0
  3  4  1  0  0  0  0
  3 22  1  0  0  0  0
  3 23  1  0  0  0  0
  4  8  1  0  0  0  0
  4  5  1  0  0  0  0
  5  6  2  0  0  0  0
  5 24  1  0  0  0  0
  6  7  1  0  0  0  0
  6 25  1  0  0  0  0
  7  8  2  0  0  0  0
  8 26  1  0  0  0  0
  9 10  1  0  0  0  0
  9 27  1  0  0  0  0
 10 11  2  0  0  0  0
 10 12  1  0  0  0  0
 12 17  1  0  0  0  0
 12 13  1  0  0  0  0
 12 28  1  0  0  0  0
 13 14  1  0  0  0  0
 13 29  1  0  0  0  0
 13 30  1  0  0  0  0
 14 15  2  0  0  0  0
 14 31  1  0  0  0  0
 15 16  1  0  0  0  0
 15 32  1  0  0  0  0
 16 17  1  0  0  0  0
 16 33  1  0  0  0  0
 16 34  1  0  0  0  0
 17 35  1  0  0  0  0
 17 36  1  0  0  0  0
M  END
> <s_m_source_file>
AV-unprocessed.smi

> <i_m_source_file_index>
1677

> <i_lp_mmshare_version>
43012

> <i_f3d_flags>
0

> <s_epik_input>
W2NIXTFuW2NIXVtjSF1uMVtDSDJdW0NAQEhdKFtDSDNdKVtOSF1DKD1PKVtDQEBIXTJbQ0gyXVtDSF09W0NIXVtDSDJdW0NIMl0y

> <s_epik_cmdline>
J2VwaWtfcHl0aG9uJywgJy1waCcsICc3LjAnLCAnLXRuJywgJzgnLCAnLW1hJywgJzIwMCcsICctbWV0YWxfYmluZGluZycsICctaW1hZScsICc8aW5maWxlLm1hZT4nLCAnLW9tYWUnLCAnPG91dGZpbGUubWFlPic=

> <r_lp_tautomer_probability>
1

> <r_epik_Ionization_Penalty>
0.640435

> <r_epik_Ionization_Penalty_Charging>
0.640435

> <r_epik_Ionization_Penalty_Neutral>
2.11108e-08

> <r_epik_State_Penalty>
0.658069

> <r_epik_Charging_Adjusted_Penalty>
1.2985

> <i_epik_Tot_Q>
0

> <i_epik_Tot_abs_Q>
0

> <r_epik_Metal_State_Penalty>
0.311689

> <b_epik_Metal_Only>
0

> <s_lp_Force_Field>
OPLS_2005

> <r_lp_Energy>
9.94345

> <b_lp_Chiralities_Consistent>
1

> <s_lp_Variant>
AV-unprocessed.smi:1677-7

> <Gold.Version>
5.8.1

> <Gold.Id.Protein>
6NUR|6NUR_protein|mol2

> <Gold.PLP.Fitness>
48.8249

> <Gold.PLP.PLP>
-39.9174

> <Gold.PLP.part.hbond>
-2.0000

> <Gold.PLP.part.metal>
0.0000

> <Gold.PLP.part.buried>
-3.7058

> <Gold.PLP.part.nonpolar>
-33.6188

> <Gold.PLP.part.repulsive>
0.2165

> <Gold.PLP.ligand.clash>
0.0000

> <Gold.PLP.ligand.torsion>
0.1840

> <Gold.PLP.Chemscore.Hbond>
1.7500

> <Gold.PLP.Chemscore.CHOScore>
1.3331

> <Gold.PLP.Chemscore.Metal>
0.0000

> <Gold.Chemscore.Hbonds>
donor molecule, donor type, donor heavy atom, donor atom, acceptor molecule, acceptor atom, score
      P1  H  7989  7998       L1     7  1.00
      P1  H  7997  8010       L1    11  0.75
      L1  C     6    25       P1  7948  0.69
      L1  C     6    25       P1  7949  0.02
      L1  C     6    25       P1  7957  0.28

> <Gold.PLP.Chemscore.Internal.Correction>
0.0263

> <Gold.Rescore>
     Score         DG    S(hbond)    S(metal)    S(lipo)     H(rot)  DE(clash)    DE(int)     intcor
     14.84     -16.06       0.98        0.00     100.75       1.75       0.08       1.13       ----

> <Gold.Chemscore.Fitness>
14.8388

> <Gold.Chemscore.DG>
-16.0578

> <Gold.Chemscore.ZeroCoef>
-5.4800

> <Gold.Chemscore.Hbond>
0.9772

> <Gold.Chemscore.Metal>
0.0000

> <Gold.Chemscore.Lipo>
100.7484

> <Gold.Chemscore.Internal_Hbond>
0.0000

> <Gold.Chemscore.DEClash>
0.0842

> <Gold.Chemscore.DEInternal>
1.1348

> <Gold.Chemscore.Rot>
1.7475

> <Gold.Chemscore.Internal.Correction>
   9.000000E+99

> <Gold.Chemscore.Hbonds>
donor molecule, donor type, donor heavy atom, donor atom, acceptor molecule, acceptor atom, score
      P1  H  7989  7998       L1     7  0.18
      P1  H  7997  8010       L1    11  0.69

> <Gold.Chemscore.Hbond.Weighted>
-3.2638

> <Gold.Chemscore.Metal.Weighted>
-0.0000

> <Gold.Chemscore.Lipo.Weighted>
-11.7876

> <Gold.Chemscore.Internal_Hbond.Weighted>
0.0000

> <Gold.Chemscore.DEClash.Weighted>
0.0842

> <Gold.Chemscore.DEInternal.Weighted>
1.1348

> <Gold.Chemscore.Rot.Weighted>
4.4735

> <Gold.Chemscore.Internal.Correction.Weighted>
   9.000000E+99

> <Gold.Protein.RotatedTorsions>
[ 6907 6896 6895 6894 ] final  122.33 input  -60.11 | X-H torsion
[ 7974 7965 7964 7962 ] final    6.26 input  175.53 | X-H torsion
[ 8008 7997 7996 7995 ] final   14.22 input   59.86 | X-H torsion
[ 10167 10162 10161 10158 ] final  -92.78 input  -65.29 | X-H torsion
[ 10718 10713 10712 10709 ] final   41.25 input   66.30 | X-H torsion
[ 10763 10752 10751 10750 ] final   -7.71 input  -60.55 | X-H torsion
[ 11005 11000 10999 10996 ] final  133.07 input  -57.11 | X-H torsion

> <Gold.Protein.ActiveResidues>
 VAL166  LYS551  ARG553  GLY616  TRP617  ASP618  TYR619  PRO620  LYS621  CYS622 
 ASP623  PHE694  ASN695  SER759  ASP760  ASP761  ALA762  ILE779  LEU786  VAL792 
 PHE793  MET794  SER795  GLU796  ALA797  LYS798  CYS799  TRP800  GLU811  SER814 

> <Gold.Protein.RotatedAtoms>
  152.4252  133.7182  159.6517 H   0  0  0  0  0  0  0  0  0  0  0  0  # atno 6907 bound_to 6896
  150.8128  133.8380  159.3180 H   0  0  0  0  0  0  0  0  0  0  0  0  # atno 6908 bound_to 6896
  151.6085  135.1044  160.0127 H   0  0  0  0  0  0  0  0  0  0  0  0  # atno 6909 bound_to 6896
  146.2436  140.0260  142.8394 H   0  0  0  0  0  0  0  0  0  0  0  0  # atno 7974 bound_to 7965
  154.8454  140.2921  155.5633 H   0  0  0  0  0  0  0  0  0  0  0  0  # atno 8008 bound_to 7997
  156.3014  140.2506  156.3335 H   0  0  0  0  0  0  0  0  0  0  0  0  # atno 8009 bound_to 7997
  154.9080  140.0389  157.1919 H   0  0  0  0  0  0  0  0  0  0  0  0  # atno 8010 bound_to 7997
  140.3313  143.2993  151.9938 H   0  0  0  0  0  0  0  0  0  0  0  0  # atno 10167 bound_to 10162
  157.3914  130.7808  149.7272 H   0  0  0  0  0  0  0  0  0  0  0  0  # atno 10718 bound_to 10713
  153.4302  135.7012  153.6236 H   0  0  0  0  0  0  0  0  0  0  0  0  # atno 10763 bound_to 10752
  153.4654  135.3727  155.2362 H   0  0  0  0  0  0  0  0  0  0  0  0  # atno 10764 bound_to 10752
  154.8725  135.4030  154.3684 H   0  0  0  0  0  0  0  0  0  0  0  0  # atno 10765 bound_to 10752
  139.9829  134.9542  156.9672 H   0  0  0  0  0  0  0  0  0  0  0  0  # atno 11005 bound_to 11000
  145.1198  140.9455  143.4607 LP  0  0  0  0  0  0  0  0  0  0  0  0  # atno 17320 bound_to 7965
  145.0493  139.3195  143.5937 LP  0  0  0  0  0  0  0  0  0  0  0  0  # atno 17321 bound_to 7965
  139.4856  144.6232  151.7214 LP  0  0  0  0  0  0  0  0  0  0  0  0  # atno 17342 bound_to 10162
  140.5394  144.0603  150.6082 LP  0  0  0  0  0  0  0  0  0  0  0  0  # atno 17343 bound_to 10162
  155.9799  130.4035  150.3559 LP  0  0  0  0  0  0  0  0  0  0  0  0  # atno 17370 bound_to 10713
  157.1675  131.0360  151.2811 LP  0  0  0  0  0  0  0  0  0  0  0  0  # atno 17371 bound_to 10713
  140.5061  134.1049  155.7260 LP  0  0  0  0  0  0  0  0  0  0  0  0  # atno 17394 bound_to 11000
  141.1498  133.8989  157.2125 LP  0  0  0  0  0  0  0  0  0  0  0  0  # atno 17395 bound_to 11000

$$$$
