AV-unprocessed.smi:445|AV-procd|sdf|2589|dock2
  -GOLD-   2262022583D 1   1.00000     0.00000
 Structure written by MMmdl.
 44 45  0  0  0  0  0  0  0  0  3 V2000
  151.7675  145.3679  159.7400 C   0  0  0  0  0  0  0  0  0  0  0  0
  151.9073  143.9120  160.2205 C   0  0  2  0  0  0  0  0  0  0  0  0
  152.4419  143.8691  161.6666 C   0  0  0  0  0  0  0  0  0  0  0  0
  152.5845  142.4293  162.1820 C   0  0  0  0  0  0  0  0  0  0  0  0
  153.4831  141.5994  161.2555 C   0  0  0  0  0  0  0  0  0  0  0  0
  152.9548  141.6193  159.8140 C   0  0  0  0  0  0  0  0  0  0  0  0
  152.7993  143.0602  159.2828 C   0  0  1  0  0  0  0  0  0  0  0  0
  152.2374  143.0314  157.9342 N   0  0  0  0  0  0  0  0  0  0  0  0
  151.0072  142.6037  157.6125 C   0  0  0  0  0  0  0  0  0  0  0  0
  150.1931  142.2001  158.4440 O   0  0  0  0  0  0  0  0  0  0  0  0
  150.6430  142.6666  156.1225 C   0  0  0  0  0  0  0  0  0  0  0  0
  150.4336  141.3370  155.5212 N   0  0  0  0  0  0  0  0  0  0  0  0
  151.4867  140.4150  155.6558 C   0  0  0  0  0  0  0  0  0  0  0  0
  151.4218  139.1725  155.1462 C   0  0  0  0  0  0  0  0  0  0  0  0
  152.5223  138.2440  155.2923 N   0  3  0  0  0  0  0  0  0  0  0  0
  153.5388  138.6201  155.8672 O   0  0  0  0  0  0  0  0  0  0  0  0
  152.4092  137.1094  154.8377 O   0  5  0  0  0  0  0  0  0  0  0  0
  150.2149  138.7924  154.4414 C   0  0  0  0  0  0  0  0  0  0  0  0
  149.1875  139.6676  154.2942 C   0  0  0  0  0  0  0  0  0  0  0  0
  147.9365  139.3217  153.5821 C   0  0  0  0  0  0  0  0  0  0  0  0
  147.9960  138.1793  152.8860 N   0  0  0  0  0  0  0  0  0  0  0  0
  146.8873  139.9655  153.5742 O   0  0  0  0  0  0  0  0  0  0  0  0
  149.2727  141.0436  154.8554 C   0  0  0  0  0  0  0  0  0  0  0  0
  148.3901  141.9006  154.7571 O   0  0  0  0  0  0  0  0  0  0  0  0
  152.7397  145.8578  159.6771 H   0  0  0  0  0  0  0  0  0  0  0  0
  151.1474  145.9480  160.4238 H   0  0  0  0  0  0  0  0  0  0  0  0
  151.3021  145.4262  158.7559 H   0  0  0  0  0  0  0  0  0  0  0  0
  150.9080  143.4732  160.2271 H   0  0  0  0  0  0  0  0  0  0  0  0
  153.4109  144.3681  161.7156 H   0  0  0  0  0  0  0  0  0  0  0  0
  151.7761  144.4258  162.3270 H   0  0  0  0  0  0  0  0  0  0  0  0
  152.9962  142.4349  163.1917 H   0  0  0  0  0  0  0  0  0  0  0  0
  151.5999  141.9648  162.2511 H   0  0  0  0  0  0  0  0  0  0  0  0
  154.4992  141.9949  161.2788 H   0  0  0  0  0  0  0  0  0  0  0  0
  153.5418  140.5720  161.6160 H   0  0  0  0  0  0  0  0  0  0  0  0
  153.6313  141.0523  159.1731 H   0  0  0  0  0  0  0  0  0  0  0  0
  151.9928  141.1060  159.7758 H   0  0  0  0  0  0  0  0  0  0  0  0
  153.7868  143.5248  159.2457 H   0  0  0  0  0  0  0  0  0  0  0  0
  152.8370  143.3505  157.1870 H   0  0  0  0  0  0  0  0  0  0  0  0
  149.7471  143.2806  156.0202 H   0  0  0  0  0  0  0  0  0  0  0  0
  151.4183  143.2109  155.5796 H   0  0  0  0  0  0  0  0  0  0  0  0
  152.3468  140.7917  156.1904 H   0  0  0  0  0  0  0  0  0  0  0  0
  150.1591  137.7928  154.0379 H   0  0  0  0  0  0  0  0  0  0  0  0
  147.1913  137.8590  152.3673 H   0  0  0  0  0  0  0  0  0  0  0  0
  148.8500  137.6403  152.8837 H   0  0  0  0  0  0  0  0  0  0  0  0
  1  2  1  0  0  0  0
  1 25  1  0  0  0  0
  1 26  1  0  0  0  0
  1 27  1  0  0  0  0
  2  7  1  0  0  0  0
  2  3  1  0  0  0  0
  2 28  1  0  0  0  0
  3  4  1  0  0  0  0
  3 29  1  0  0  0  0
  3 30  1  0  0  0  0
  4  5  1  0  0  0  0
  4 31  1  0  0  0  0
  4 32  1  0  0  0  0
  5  6  1  0  0  0  0
  5 33  1  0  0  0  0
  5 34  1  0  0  0  0
  6  7  1  0  0  0  0
  6 35  1  0  0  0  0
  6 36  1  0  0  0  0
  7  8  1  0  0  0  0
  7 37  1  0  0  0  0
  8  9  1  0  0  0  0
  8 38  1  0  0  0  0
  9 10  2  0  0  0  0
  9 11  1  0  0  0  0
 11 12  1  0  0  0  0
 11 39  1  0  0  0  0
 11 40  1  0  0  0  0
 12 23  1  0  0  0  0
 12 13  1  0  0  0  0
 13 14  2  0  0  0  0
 13 41  1  0  0  0  0
 14 15  1  0  0  0  0
 14 18  1  0  0  0  0
 15 16  2  0  0  0  0
 15 17  1  0  0  0  0
 18 19  2  0  0  0  0
 18 42  1  0  0  0  0
 19 20  1  0  0  0  0
 19 23  1  0  0  0  0
 20 21  1  0  0  0  0
 20 22  2  0  0  0  0
 21 43  1  0  0  0  0
 21 44  1  0  0  0  0
 23 24  2  0  0  0  0
M  CHG  1  15   1
M  CHG  1  17  -1
M  END
> <s_m_source_file>
AV-unprocessed.smi

> <i_m_source_file_index>
445

> <i_lp_mmshare_version>
43012

> <i_f3d_flags>
0

> <s_epik_input>
W0NIM11bQ0BASF0xW0NIMl1bQ0gyXVtDSDJdW0NIMl1bQ0BIXTFbTkhdQyg9TylbQ0gyXW4yW2NIXWMoW04rXSg9TylbTy1dKVtjSF1jKGMyPU8pQyg9TylbTkgyXQ==

> <s_epik_cmdline>
J2VwaWtfcHl0aG9uJywgJy1waCcsICc3LjAnLCAnLXRuJywgJzgnLCAnLW1hJywgJzIwMCcsICctbWV0YWxfYmluZGluZycsICctaW1hZScsICc8aW5maWxlLm1hZT4nLCAnLW9tYWUnLCAnPG91dGZpbGUubWFlPic=

> <r_lp_tautomer_probability>
1

> <r_epik_Ionization_Penalty>
2.81321e-06

> <r_epik_Ionization_Penalty_Charging>
2.43777e-12

> <r_epik_Ionization_Penalty_Neutral>
2.81321e-06

> <r_epik_State_Penalty>
-0

> <r_epik_Charging_Adjusted_Penalty>
2.43777e-12

> <i_epik_Tot_Q>
0

> <i_epik_Tot_abs_Q>
2

> <r_epik_Metal_State_Penalty>
-0

> <b_epik_Metal_Only>
0

> <s_lp_Force_Field>
OPLS_2005

> <r_lp_Energy>
28.5082

> <b_lp_Chiralities_Consistent>
1

> <s_lp_Variant>
AV-unprocessed.smi:445-1

> <Gold.Version>
5.8.1

> <Gold.Id.Protein>
6NUR|6NUR_protein|mol2

> <Gold.PLP.Fitness>
59.6783

> <Gold.PLP.PLP>
-52.8834

> <Gold.PLP.part.hbond>
-3.6410

> <Gold.PLP.part.metal>
0.0000

> <Gold.PLP.part.buried>
-1.7858

> <Gold.PLP.part.nonpolar>
-49.3121

> <Gold.PLP.part.repulsive>
1.8759

> <Gold.PLP.ligand.clash>
0.0000

> <Gold.PLP.ligand.torsion>
0.1494

> <Gold.PLP.Chemscore.Hbond>
2.3520

> <Gold.PLP.Chemscore.CHOScore>
0.0000

> <Gold.PLP.Chemscore.Metal>
0.0000

> <Gold.Chemscore.Hbonds>
donor molecule, donor type, donor heavy atom, donor atom, acceptor molecule, acceptor atom, score
      L1  H    21    44       P1  7948  0.40
      P1  H  7997  8009       L1    16  0.80
      P1  H 10752 10764       L1    17  0.61

> <Gold.PLP.Chemscore.Internal.Correction>
0.0377

> <Gold.Rescore>
     Score         DG    S(hbond)    S(metal)    S(lipo)     H(rot)  DE(clash)    DE(int)     intcor
     18.23     -22.63       2.50        0.00     112.59       1.71       1.82       2.58       ----

> <Gold.Chemscore.Fitness>
18.2298

> <Gold.Chemscore.DG>
-22.6345

> <Gold.Chemscore.ZeroCoef>
-5.4800

> <Gold.Chemscore.Hbond>
2.5043

> <Gold.Chemscore.Metal>
0.0000

> <Gold.Chemscore.Lipo>
112.5947

> <Gold.Chemscore.Internal_Hbond>
0.0000

> <Gold.Chemscore.DEClash>
1.8199

> <Gold.Chemscore.DEInternal>
2.5848

> <Gold.Chemscore.Rot>
1.7123

> <Gold.Chemscore.Internal.Correction>
   9.000000E+99

> <Gold.Chemscore.Hbonds>
donor molecule, donor type, donor heavy atom, donor atom, acceptor molecule, acceptor atom, score
      L1  H    21    44       P1  7948  0.40
      P1  H  7997  8009       L1    16  0.80
      P1  H 10752 10764       L1    17  0.60

> <Gold.Chemscore.Hbond.Weighted>
-8.3644

> <Gold.Chemscore.Metal.Weighted>
-0.0000

> <Gold.Chemscore.Lipo.Weighted>
-13.1736

> <Gold.Chemscore.Internal_Hbond.Weighted>
0.0000

> <Gold.Chemscore.DEClash.Weighted>
1.8199

> <Gold.Chemscore.DEInternal.Weighted>
2.5848

> <Gold.Chemscore.Rot.Weighted>
4.3835

> <Gold.Chemscore.Internal.Correction.Weighted>
   9.000000E+99

> <Gold.Protein.RotatedTorsions>
[ 6907 6896 6895 6894 ] final -171.79 input  -60.11 | X-H torsion
[ 7974 7965 7964 7962 ] final -135.66 input  175.53 | X-H torsion
[ 8008 7997 7996 7995 ] final -147.65 input   59.86 | X-H torsion
[ 10167 10162 10161 10158 ] final   93.04 input  -65.29 | X-H torsion
[ 10718 10713 10712 10709 ] final   21.40 input   66.30 | X-H torsion
[ 10763 10752 10751 10750 ] final  -83.10 input  -60.55 | X-H torsion
[ 11005 11000 10999 10996 ] final   76.78 input  -57.11 | X-H torsion

> <Gold.Protein.ActiveResidues>
 VAL166  LYS551  ARG553  GLY616  TRP617  ASP618  TYR619  PRO620  LYS621  CYS622 
 ASP623  PHE694  ASN695  SER759  ASP760  ASP761  ALA762  ILE779  LEU786  VAL792 
 PHE793  MET794  SER795  GLU796  ALA797  LYS798  CYS799  TRP800  GLU811  SER814 

> <Gold.Protein.RotatedAtoms>
  151.5296  133.3451  159.2915 H   0  0  0  0  0  0  0  0  0  0  0  0  # atno 6907 bound_to 6896
  150.8602  134.7954  159.7088 H   0  0  0  0  0  0  0  0  0  0  0  0  # atno 6908 bound_to 6896
  152.4623  134.5163  159.9821 H   0  0  0  0  0  0  0  0  0  0  0  0  # atno 6909 bound_to 6896
  144.8995  140.6751  143.5094 H   0  0  0  0  0  0  0  0  0  0  0  0  # atno 7974 bound_to 7965
  155.5789  140.0641  157.2788 H   0  0  0  0  0  0  0  0  0  0  0  0  # atno 8008 bound_to 7997
  154.4338  140.1855  156.1002 H   0  0  0  0  0  0  0  0  0  0  0  0  # atno 8009 bound_to 7997
  156.0320  140.3305  155.7154 H   0  0  0  0  0  0  0  0  0  0  0  0  # atno 8010 bound_to 7997
  139.8218  144.6727  150.9509 H   0  0  0  0  0  0  0  0  0  0  0  0  # atno 10167 bound_to 10162
  157.1379  130.6620  149.5972 H   0  0  0  0  0  0  0  0  0  0  0  0  # atno 10718 bound_to 10713
  154.5837  135.5568  153.7210 H   0  0  0  0  0  0  0  0  0  0  0  0  # atno 10763 bound_to 10752
  153.0091  135.6326  154.1946 H   0  0  0  0  0  0  0  0  0  0  0  0  # atno 10764 bound_to 10752
  154.1887  135.2883  155.3009 H   0  0  0  0  0  0  0  0  0  0  0  0  # atno 10765 bound_to 10752
  139.9283  134.7629  156.1439 H   0  0  0  0  0  0  0  0  0  0  0  0  # atno 11005 bound_to 11000
  145.3642  139.1674  143.4367 LP  0  0  0  0  0  0  0  0  0  0  0  0  # atno 17320 bound_to 7965
  146.3100  140.3707  142.8674 LP  0  0  0  0  0  0  0  0  0  0  0  0  # atno 17321 bound_to 7965
  140.7813  143.4084  151.1033 LP  0  0  0  0  0  0  0  0  0  0  0  0  # atno 17342 bound_to 10162
  139.7744  143.8447  152.3126 LP  0  0  0  0  0  0  0  0  0  0  0  0  # atno 17343 bound_to 10162
  155.9794  130.4788  150.6715 LP  0  0  0  0  0  0  0  0  0  0  0  0  # atno 17370 bound_to 10713
  157.4333  131.0852  151.1016 LP  0  0  0  0  0  0  0  0  0  0  0  0  # atno 17371 bound_to 10713
  141.0855  133.6736  156.2427 LP  0  0  0  0  0  0  0  0  0  0  0  0  # atno 17394 bound_to 11000
  140.6274  134.5299  157.5555 LP  0  0  0  0  0  0  0  0  0  0  0  0  # atno 17395 bound_to 11000

$$$$
