AV-unprocessed.smi:2839|AV-procd|sdf|10930|dock7
  -GOLD-   2272015373D 1   1.00000     0.00000
 Structure written by MMmdl.
 32 33  0  0  0  0  0  0  0  0  1 V2000
  152.6114  139.1295  153.7917 C   0  0  0  0  0  0  0  0  0  0  0  0
  152.0509  139.6454  155.0339 N   0  0  0  0  0  0  0  0  0  0  0  0
  152.5688  139.3582  156.2759 C   0  0  0  0  0  0  0  0  0  0  0  0
  151.8914  139.9185  157.2187 N   0  0  0  0  0  0  0  0  0  0  0  0
  150.9158  140.5796  156.5407 N   0  0  0  0  0  0  0  0  0  0  0  0
  149.9328  141.3691  157.2848 C   0  0  0  0  0  0  0  0  0  0  0  0
  150.5615  142.2631  158.3624 C   0  0  0  0  0  0  0  0  0  0  0  0
  149.8607  142.8440  159.1926 O   0  0  0  0  0  0  0  0  0  0  0  0
  151.8979  142.3739  158.3243 N   0  0  0  0  0  0  0  0  0  0  0  0
  152.7017  143.1692  159.2488 C   0  0  0  0  0  0  0  0  0  0  0  0
  152.6464  142.5786  160.6711 C   0  0  0  0  0  0  0  0  0  0  0  0
  152.3325  143.7487  161.6052 C   0  0  0  0  0  0  0  0  0  0  0  0
  151.5228  144.7129  160.7444 C   0  0  0  0  0  0  0  0  0  0  0  0
  152.1689  144.6117  159.3627 C   0  0  0  0  0  0  0  0  0  0  0  0
  150.9872  140.4212  155.2113 C   0  0  0  0  0  0  0  0  0  0  0  0
  150.2389  140.8862  154.3519 O   0  0  0  0  0  0  0  0  0  0  0  0
  153.6527  138.8270  153.9130 H   0  0  0  0  0  0  0  0  0  0  0  0
  152.5747  139.8882  153.0088 H   0  0  0  0  0  0  0  0  0  0  0  0
  152.0416  138.2636  153.4532 H   0  0  0  0  0  0  0  0  0  0  0  0
  153.4511  138.7217  156.3612 H   0  0  0  0  0  0  0  0  0  0  0  0
  149.3722  141.9889  156.5830 H   0  0  0  0  0  0  0  0  0  0  0  0
  149.2073  140.7084  157.7616 H   0  0  0  0  0  0  0  0  0  0  0  0
  152.3959  141.8669  157.6072 H   0  0  0  0  0  0  0  0  0  0  0  0
  153.7380  143.1906  158.9059 H   0  0  0  0  0  0  0  0  0  0  0  0
  151.8485  141.8386  160.7509 H   0  0  0  0  0  0  0  0  0  0  0  0
  153.5757  142.0783  160.9449 H   0  0  0  0  0  0  0  0  0  0  0  0
  151.7991  143.4380  162.5040 H   0  0  0  0  0  0  0  0  0  0  0  0
  153.2604  144.2292  161.9179 H   0  0  0  0  0  0  0  0  0  0  0  0
  150.4863  144.3768  160.6912 H   0  0  0  0  0  0  0  0  0  0  0  0
  151.5253  145.7305  161.1357 H   0  0  0  0  0  0  0  0  0  0  0  0
  153.0068  145.3075  159.3067 H   0  0  0  0  0  0  0  0  0  0  0  0
  151.4743  144.8850  158.5669 H   0  0  0  0  0  0  0  0  0  0  0  0
  1  2  1  0  0  0  0
  1 17  1  0  0  0  0
  1 18  1  0  0  0  0
  1 19  1  0  0  0  0
  2 15  1  0  0  0  0
  2  3  1  0  0  0  0
  3  4  2  0  0  0  0
  3 20  1  0  0  0  0
  4  5  1  0  0  0  0
  5  6  1  0  0  0  0
  5 15  1  0  0  0  0
  6  7  1  0  0  0  0
  6 21  1  0  0  0  0
  6 22  1  0  0  0  0
  7  8  2  0  0  0  0
  7  9  1  0  0  0  0
  9 10  1  0  0  0  0
  9 23  1  0  0  0  0
 10 14  1  0  0  0  0
 10 11  1  0  0  0  0
 10 24  1  0  0  0  0
 11 12  1  0  0  0  0
 11 25  1  0  0  0  0
 11 26  1  0  0  0  0
 12 13  1  0  0  0  0
 12 27  1  0  0  0  0
 12 28  1  0  0  0  0
 13 14  1  0  0  0  0
 13 29  1  0  0  0  0
 13 30  1  0  0  0  0
 14 31  1  0  0  0  0
 14 32  1  0  0  0  0
 15 16  2  0  0  0  0
M  END
> <s_m_source_file>
AV-unprocessed.smi

> <i_m_source_file_index>
2839

> <i_lp_mmshare_version>
43012

> <i_f3d_flags>
0

> <s_epik_input>
W0NIM11uMVtjSF1ubihjMT1PKVtDSDJdQyg9TylbTkhdW0NIXTJbQ0gyXVtDSDJdW0NIMl1bQ0gyXTI=

> <s_epik_cmdline>
J2VwaWtfcHl0aG9uJywgJy1waCcsICc3LjAnLCAnLXRuJywgJzgnLCAnLW1hJywgJzIwMCcsICctbWV0YWxfYmluZGluZycsICctaW1hZScsICc8aW5maWxlLm1hZT4nLCAnLW9tYWUnLCAnPG91dGZpbGUubWFlPic=

> <r_lp_tautomer_probability>
1

> <r_epik_Ionization_Penalty>
1.58668e-07

> <r_epik_Ionization_Penalty_Charging>
8.23952e-09

> <r_epik_Ionization_Penalty_Neutral>
1.50429e-07

> <r_epik_State_Penalty>
-0

> <r_epik_Charging_Adjusted_Penalty>
8.23952e-09

> <i_epik_Tot_Q>
0

> <i_epik_Tot_abs_Q>
0

> <r_epik_Metal_State_Penalty>
-0

> <b_epik_Metal_Only>
0

> <s_lp_Force_Field>
OPLS_2005

> <r_lp_Energy>
35.3478

> <b_lp_Chiralities_Consistent>
1

> <s_lp_Variant>
AV-unprocessed.smi:2839-1

> <Gold.Version>
5.8.1

> <Gold.Id.Protein>
6NUR|6NUR_protein|mol2

> <Gold.PLP.Fitness>
41.3135

> <Gold.PLP.PLP>
-38.9650

> <Gold.PLP.part.hbond>
-1.2556

> <Gold.PLP.part.metal>
0.0000

> <Gold.PLP.part.buried>
-4.3765

> <Gold.PLP.part.nonpolar>
-32.7054

> <Gold.PLP.part.repulsive>
0.3017

> <Gold.PLP.ligand.clash>
0.0000

> <Gold.PLP.ligand.torsion>
0.3277

> <Gold.PLP.Chemscore.Hbond>
1.0000

> <Gold.PLP.Chemscore.CHOScore>
0.0000

> <Gold.PLP.Chemscore.Metal>
0.0000

> <Gold.Chemscore.Hbonds>
donor molecule, donor type, donor heavy atom, donor atom, acceptor molecule, acceptor atom, score
      P1  H  7989  7998       L1    16  0.07

> <Gold.PLP.Chemscore.Internal.Correction>
0.0038

> <Gold.Rescore>
     Score         DG    S(hbond)    S(metal)    S(lipo)     H(rot)  DE(clash)    DE(int)     intcor
     10.52     -13.11       0.98        0.00      74.97       1.72       0.03       2.56       ----

> <Gold.Chemscore.Fitness>
10.5240

> <Gold.Chemscore.DG>
-13.1138

> <Gold.Chemscore.ZeroCoef>
-5.4800

> <Gold.Chemscore.Hbond>
0.9777

> <Gold.Chemscore.Metal>
0.0000

> <Gold.Chemscore.Lipo>
74.9705

> <Gold.Chemscore.Internal_Hbond>
0.0000

> <Gold.Chemscore.DEClash>
0.0280

> <Gold.Chemscore.DEInternal>
2.5618

> <Gold.Chemscore.Rot>
1.7201

> <Gold.Chemscore.Internal.Correction>
   9.000000E+99

> <Gold.Chemscore.Hbond.Weighted>
-3.2656

> <Gold.Chemscore.Metal.Weighted>
-0.0000

> <Gold.Chemscore.Lipo.Weighted>
-8.7715

> <Gold.Chemscore.Internal_Hbond.Weighted>
0.0000

> <Gold.Chemscore.DEClash.Weighted>
0.0280

> <Gold.Chemscore.DEInternal.Weighted>
2.5618

> <Gold.Chemscore.Rot.Weighted>
4.4033

> <Gold.Chemscore.Internal.Correction.Weighted>
   9.000000E+99

> <Gold.Protein.RotatedTorsions>
[ 6907 6896 6895 6894 ] final   96.74 input  -60.11 | X-H torsion
[ 7974 7965 7964 7962 ] final -177.86 input  175.53 | X-H torsion
[ 8008 7997 7996 7995 ] final -153.71 input   59.86 | X-H torsion
[ 10167 10162 10161 10158 ] final  -45.46 input  -65.29 | X-H torsion
[ 10718 10713 10712 10709 ] final  140.87 input   66.30 | X-H torsion
[ 10763 10752 10751 10750 ] final   97.26 input  -60.55 | X-H torsion
[ 11005 11000 10999 10996 ] final  132.32 input  -57.11 | X-H torsion

> <Gold.Protein.ActiveResidues>
 VAL166  LYS551  ARG553  GLY616  TRP617  ASP618  TYR619  PRO620  LYS621  CYS622 
 ASP623  PHE694  ASN695  SER759  ASP760  ASP761  ALA762  ILE779  LEU786  VAL792 
 PHE793  MET794  SER795  GLU796  ALA797  LYS798  CYS799  TRP800  GLU811  SER814 

> <Gold.Protein.RotatedAtoms>
  152.5431  134.0839  159.8247 H   0  0  0  0  0  0  0  0  0  0  0  0  # atno 6907 bound_to 6896
  151.0937  133.5288  159.2621 H   0  0  0  0  0  0  0  0  0  0  0  0  # atno 6908 bound_to 6896
  151.2070  135.0474  159.8950 H   0  0  0  0  0  0  0  0  0  0  0  0  # atno 6909 bound_to 6896
  144.7129  140.0956  143.6419 H   0  0  0  0  0  0  0  0  0  0  0  0  # atno 7974 bound_to 7965
  155.6751  140.0738  157.2506 H   0  0  0  0  0  0  0  0  0  0  0  0  # atno 8008 bound_to 7997
  154.4116  140.1692  156.1973 H   0  0  0  0  0  0  0  0  0  0  0  0  # atno 8009 bound_to 7997
  155.9583  140.3372  155.6471 H   0  0  0  0  0  0  0  0  0  0  0  0  # atno 8010 bound_to 7997
  140.6857  143.2878  151.3642 H   0  0  0  0  0  0  0  0  0  0  0  0  # atno 10167 bound_to 10162
  157.3984  131.1013  151.0576 H   0  0  0  0  0  0  0  0  0  0  0  0  # atno 10718 bound_to 10713
  153.2748  135.4189  155.1023 H   0  0  0  0  0  0  0  0  0  0  0  0  # atno 10763 bound_to 10752
  154.8469  135.3481  154.6193 H   0  0  0  0  0  0  0  0  0  0  0  0  # atno 10764 bound_to 10752
  153.6614  135.7048  153.5234 H   0  0  0  0  0  0  0  0  0  0  0  0  # atno 10765 bound_to 10752
  139.9783  134.9556  156.9565 H   0  0  0  0  0  0  0  0  0  0  0  0  # atno 11005 bound_to 11000
  145.9582  139.2782  143.1171 LP  0  0  0  0  0  0  0  0  0  0  0  0  # atno 17320 bound_to 7965
  145.9249  140.9089  143.0386 LP  0  0  0  0  0  0  0  0  0  0  0  0  # atno 17321 bound_to 7965
  139.6214  144.0900  152.2394 LP  0  0  0  0  0  0  0  0  0  0  0  0  # atno 17342 bound_to 10162
  140.0345  144.6055  150.7460 LP  0  0  0  0  0  0  0  0  0  0  0  0  # atno 17343 bound_to 10162
  157.1584  130.6215  149.5603 LP  0  0  0  0  0  0  0  0  0  0  0  0  # atno 17370 bound_to 10713
  155.9816  130.4825  150.6840 LP  0  0  0  0  0  0  0  0  0  0  0  0  # atno 17371 bound_to 10713
  140.5149  134.0965  155.7278 LP  0  0  0  0  0  0  0  0  0  0  0  0  # atno 17394 bound_to 11000
  141.1458  133.9058  157.2219 LP  0  0  0  0  0  0  0  0  0  0  0  0  # atno 17395 bound_to 11000

$$$$
