AV-unprocessed.smi:705|AV-procd|sdf|3446|dock1
  -GOLD-   22720 0433D 1   1.00000     0.00000
 Structure written by MMmdl.
 29 30  0  0  0  0  0  0  0  0  2 V2000
  151.3478  137.4519  158.4356 N   0  0  0  0  0  0  0  0  0  0  0  0
  152.2734  137.7669  159.3464 C   0  0  0  0  0  0  0  0  0  0  0  0
  152.8194  136.9160  160.0458 O   0  0  0  0  0  0  0  0  0  0  0  0
  152.6467  139.1928  159.4520 C   0  0  0  0  0  0  0  0  0  0  0  0
  152.0280  140.2418  158.8337 C   0  0  0  0  0  0  0  0  0  0  0  0
  152.7725  141.3680  159.2999 C   0  0  0  0  0  0  0  0  0  0  0  0
  152.5598  142.8166  158.9407 C   0  0  2  0  0  0  0  0  0  0  0  0
  152.2678  143.6821  160.1820 C   0  0  0  0  0  0  0  0  0  0  0  0
  152.0533  145.1480  159.7754 C   0  0  0  0  0  0  0  0  0  0  0  0
  150.9596  145.2650  158.7005 C   0  0  0  0  0  0  0  0  0  0  0  0
  151.2838  144.4228  157.5282 N   0  3  0  0  0  0  0  0  0  0  0  0
  151.4604  142.9945  157.8723 C   0  0  0  0  0  0  0  0  0  0  0  0
  153.7487  141.0266  160.1400 N   0  0  0  0  0  0  0  0  0  0  0  0
  153.6590  139.6855  160.2358 N   0  0  0  0  0  0  0  0  0  0  0  0
  154.2800  139.1395  160.8165 H   0  0  0  0  0  0  0  0  0  0  0  0
  151.0629  136.4899  158.3223 H   0  0  0  0  0  0  0  0  0  0  0  0
  150.9403  138.1748  157.8610 H   0  0  0  0  0  0  0  0  0  0  0  0
  151.1864  140.2190  158.1570 H   0  0  0  0  0  0  0  0  0  0  0  0
  153.4893  143.1873  158.5056 H   0  0  0  0  0  0  0  0  0  0  0  0
  151.3773  143.3150  160.6945 H   0  0  0  0  0  0  0  0  0  0  0  0
  153.0897  143.6101  160.8953 H   0  0  0  0  0  0  0  0  0  0  0  0
  151.7823  145.7410  160.6494 H   0  0  0  0  0  0  0  0  0  0  0  0
  152.9879  145.5647  159.3971 H   0  0  0  0  0  0  0  0  0  0  0  0
  149.9942  144.9593  159.1061 H   0  0  0  0  0  0  0  0  0  0  0  0
  150.8566  146.3011  158.3770 H   0  0  0  0  0  0  0  0  0  0  0  0
  150.5409  144.5062  156.8490 H   0  0  0  0  0  0  0  0  0  0  0  0
  151.7171  142.4439  156.9668 H   0  0  0  0  0  0  0  0  0  0  0  0
  150.5079  142.5983  158.2271 H   0  0  0  0  0  0  0  0  0  0  0  0
  152.1413  144.7621  157.1168 H   0  0  0  0  0  0  0  0  0  0  0  0
  1  2  1  0  0  0  0
  1 16  1  0  0  0  0
  1 17  1  0  0  0  0
  2  3  2  0  0  0  0
  2  4  1  0  0  0  0
  4 14  1  0  0  0  0
  4  5  2  0  0  0  0
  5  6  1  0  0  0  0
  5 18  1  0  0  0  0
  6  7  1  0  0  0  0
  6 13  2  0  0  0  0
  7 12  1  0  0  0  0
  7  8  1  0  0  0  0
  7 19  1  0  0  0  0
  8  9  1  0  0  0  0
  8 20  1  0  0  0  0
  8 21  1  0  0  0  0
  9 10  1  0  0  0  0
  9 22  1  0  0  0  0
  9 23  1  0  0  0  0
 10 11  1  0  0  0  0
 10 24  1  0  0  0  0
 10 25  1  0  0  0  0
 11 12  1  0  0  0  0
 11 26  1  0  0  0  0
 11 29  1  0  0  0  0
 12 27  1  0  0  0  0
 12 28  1  0  0  0  0
 13 14  1  0  0  0  0
 14 15  1  0  0  0  0
M  CHG  1  11   1
M  END
> <s_m_source_file>
AV-unprocessed.smi

> <i_m_source_file_index>
705

> <i_lp_mmshare_version>
43012

> <i_f3d_flags>
0

> <s_epik_input>
W05IMl1DKD1PKWMxW2NIXWMoW25IXW4xKVtDQEBIXTJbQ0gyXVtDSDJdW0NIMl1bTkhdW0NIMl0y

> <s_epik_cmdline>
J2VwaWtfcHl0aG9uJywgJy1waCcsICc3LjAnLCAnLXRuJywgJzgnLCAnLW1hJywgJzIwMCcsICctbWV0YWxfYmluZGluZycsICctaW1hZScsICc8aW5maWxlLm1hZT4nLCAnLW9tYWUnLCAnPG91dGZpbGUubWFlPic=

> <r_lp_tautomer_probability>
0.5

> <r_epik_Ionization_Penalty>
0.000242638

> <r_epik_Ionization_Penalty_Charging>
0.000157527

> <r_epik_Ionization_Penalty_Neutral>
8.51112e-05

> <r_epik_State_Penalty>
0.41068

> <r_epik_Charging_Adjusted_Penalty>
0.410837

> <i_epik_Tot_Q>
1

> <i_epik_Tot_abs_Q>
1

> <r_epik_Metal_State_Penalty>
0.446108

> <b_epik_Metal_Only>
0

> <s_lp_Force_Field>
OPLS_2005

> <r_lp_Energy>
10.1374

> <b_lp_Chiralities_Consistent>
1

> <s_lp_Variant>
AV-unprocessed.smi:705-1

> <Gold.Version>
5.8.1

> <Gold.Id.Protein>
6NUR|6NUR_protein|mol2

> <Gold.PLP.Fitness>
37.7945

> <Gold.PLP.PLP>
-28.9224

> <Gold.PLP.part.hbond>
-1.9337

> <Gold.PLP.part.metal>
0.0000

> <Gold.PLP.part.buried>
-5.6207

> <Gold.PLP.part.nonpolar>
-22.1294

> <Gold.PLP.part.repulsive>
0.2049

> <Gold.PLP.ligand.clash>
0.0000

> <Gold.PLP.ligand.torsion>
0.0429

> <Gold.PLP.Chemscore.Hbond>
2.9750

> <Gold.PLP.Chemscore.CHOScore>
0.0000

> <Gold.PLP.Chemscore.Metal>
0.0000

> <Gold.Chemscore.Hbonds>
donor molecule, donor type, donor heavy atom, donor atom, acceptor molecule, acceptor atom, score
      L1  H    11    26       P1  8028  2.00
      P1  H  6896  6907       L1     3  1.00

> <Gold.PLP.Chemscore.Internal.Correction>
0.0328

> <Gold.Rescore>
     Score         DG    S(hbond)    S(metal)    S(lipo)     H(rot)  DE(clash)    DE(int)     intcor
     18.43     -18.47       1.92        0.00      78.10       1.00       0.00       0.04       ----

> <Gold.Chemscore.Fitness>
18.4320

> <Gold.Chemscore.DG>
-18.4749

> <Gold.Chemscore.ZeroCoef>
-5.4800

> <Gold.Chemscore.Hbond>
1.9213

> <Gold.Chemscore.Metal>
0.0000

> <Gold.Chemscore.Lipo>
78.1017

> <Gold.Chemscore.Internal_Hbond>
0.0000

> <Gold.Chemscore.DEClash>
0.0029

> <Gold.Chemscore.DEInternal>
0.0400

> <Gold.Chemscore.Rot>
1.0000

> <Gold.Chemscore.Internal.Correction>
   9.000000E+99

> <Gold.Chemscore.Hbonds>
donor molecule, donor type, donor heavy atom, donor atom, acceptor molecule, acceptor atom, score
      L1  H    11    26       P1  8028  0.88
      P1  H  6896  6907       L1     3  0.90

> <Gold.Chemscore.Hbond.Weighted>
-6.4171

> <Gold.Chemscore.Metal.Weighted>
-0.0000

> <Gold.Chemscore.Lipo.Weighted>
-9.1379

> <Gold.Chemscore.Internal_Hbond.Weighted>
0.0000

> <Gold.Chemscore.DEClash.Weighted>
0.0029

> <Gold.Chemscore.DEInternal.Weighted>
0.0400

> <Gold.Chemscore.Rot.Weighted>
2.5600

> <Gold.Chemscore.Internal.Correction.Weighted>
   9.000000E+99

> <Gold.Protein.RotatedTorsions>
[ 6907 6896 6895 6894 ] final   27.51 input  -60.11 | X-H torsion
[ 7974 7965 7964 7962 ] final    4.91 input  175.53 | X-H torsion
[ 8008 7997 7996 7995 ] final   26.85 input   59.86 | X-H torsion
[ 10167 10162 10161 10158 ] final   24.53 input  -65.29 | X-H torsion
[ 10718 10713 10712 10709 ] final  -70.82 input   66.30 | X-H torsion
[ 10763 10752 10751 10750 ] final  110.09 input  -60.55 | X-H torsion
[ 11005 11000 10999 10996 ] final  -99.04 input  -57.11 | X-H torsion

> <Gold.Protein.ActiveResidues>
 VAL166  LYS551  ARG553  GLY616  TRP617  ASP618  TYR619  PRO620  LYS621  CYS622 
 ASP623  PHE694  ASN695  SER759  ASP760  ASP761  ALA762  ILE779  LEU786  VAL792 
 PHE793  MET794  SER795  GLU796  ALA797  LYS798  CYS799  TRP800  GLU811  SER814 

> <Gold.Protein.RotatedAtoms>
  152.0034  134.9916  160.0565 H   0  0  0  0  0  0  0  0  0  0  0  0  # atno 6907 bound_to 6896
  152.1498  133.4510  159.4816 H   0  0  0  0  0  0  0  0  0  0  0  0  # atno 6908 bound_to 6896
  150.6874  134.2121  159.4406 H   0  0  0  0  0  0  0  0  0  0  0  0  # atno 6909 bound_to 6896
  146.2442  140.0463  142.8378 H   0  0  0  0  0  0  0  0  0  0  0  0  # atno 7974 bound_to 7965
  155.0337  140.3161  155.4749 H   0  0  0  0  0  0  0  0  0  0  0  0  # atno 8008 bound_to 7997
  156.2869  140.2175  156.5402 H   0  0  0  0  0  0  0  0  0  0  0  0  # atno 8009 bound_to 7997
  154.7348  140.0478  157.0747 H   0  0  0  0  0  0  0  0  0  0  0  0  # atno 8010 bound_to 7997
  140.5180  144.0049  150.6403 H   0  0  0  0  0  0  0  0  0  0  0  0  # atno 10167 bound_to 10162
  156.0391  130.4339  150.2351 H   0  0  0  0  0  0  0  0  0  0  0  0  # atno 10718 bound_to 10713
  153.4440  135.3759  155.2245 H   0  0  0  0  0  0  0  0  0  0  0  0  # atno 10763 bound_to 10752
  154.8754  135.3869  154.4118 H   0  0  0  0  0  0  0  0  0  0  0  0  # atno 10764 bound_to 10752
  153.4668  135.7087  153.6081 H   0  0  0  0  0  0  0  0  0  0  0  0  # atno 10765 bound_to 10752
  141.1323  133.8291  157.0919 H   0  0  0  0  0  0  0  0  0  0  0  0  # atno 11005 bound_to 11000
  145.1024  140.9354  143.4705 LP  0  0  0  0  0  0  0  0  0  0  0  0  # atno 17320 bound_to 7965
  145.0659  139.3069  143.5857 LP  0  0  0  0  0  0  0  0  0  0  0  0  # atno 17321 bound_to 7965
  140.3390  143.3031  152.0608 LP  0  0  0  0  0  0  0  0  0  0  0  0  # atno 17342 bound_to 10162
  139.4915  144.6456  151.6786 LP  0  0  0  0  0  0  0  0  0  0  0  0  # atno 17343 bound_to 10162
  157.0448  131.0045  151.3272 LP  0  0  0  0  0  0  0  0  0  0  0  0  # atno 17370 bound_to 10713
  157.5183  130.7982  149.7781 LP  0  0  0  0  0  0  0  0  0  0  0  0  # atno 17371 bound_to 10713
  140.0387  134.9865  157.0920 LP  0  0  0  0  0  0  0  0  0  0  0  0  # atno 17394 bound_to 11000
  140.4169  134.1921  155.7163 LP  0  0  0  0  0  0  0  0  0  0  0  0  # atno 17395 bound_to 11000

$$$$
