AV-unprocessed.smi:2341|AV-procd|sdf|9353|dock1
  -GOLD-   2272012573D 1   1.00000     0.00000
 Structure written by MMmdl.
 52 54  0  0  0  0  0  0  0  0  2 V2000
  151.1400  142.2127  156.4228 C   0  0  0  0  0  0  0  0  0  0  0  0
  150.3968  141.2292  155.5433 C   0  0  0  0  0  0  0  0  0  0  0  0
  150.9983  140.0294  155.1182 C   0  0  0  0  0  0  0  0  0  0  0  0
  150.2596  139.1533  154.2996 C   0  0  0  0  0  0  0  0  0  0  0  0
  148.9406  139.4960  153.9257 C   0  0  0  0  0  0  0  0  0  0  0  0
  148.2836  138.5459  153.0990 N   0  0  0  0  0  0  0  0  0  0  0  0
  146.9619  138.3469  152.9506 C   0  0  0  0  0  0  0  0  0  0  0  0
  146.0759  138.9726  153.5338 O   0  0  0  0  0  0  0  0  0  0  0  0
  146.7133  137.3628  152.0736 N   0  0  0  0  0  0  0  0  0  0  0  0
  145.3830  136.9093  151.6781 C   0  0  2  0  0  0  0  0  0  0  0  0
  144.6516  136.2462  152.8623 C   0  0  0  0  0  0  0  0  0  0  0  0
  143.3123  135.6208  152.4206 C   0  0  0  0  0  0  0  0  0  0  0  0
  143.4807  134.6556  151.2951 N   0  3  2  0  0  0  0  0  0  0  0  0
  144.0779  133.3333  151.6882 C   0  0  0  0  0  0  0  0  0  0  0  0
  145.5320  133.4514  152.2213 C   0  0  0  0  0  0  0  0  0  0  0  0
  146.1488  132.0867  152.5663 C   0  0  0  0  0  0  0  0  0  0  0  0
  146.1155  131.1381  151.3635 C   0  0  0  0  0  0  0  0  0  0  0  0
  144.6820  130.9814  150.8454 C   0  0  0  0  0  0  0  0  0  0  0  0
  144.0625  132.3432  150.4937 C   0  0  0  0  0  0  0  0  0  0  0  0
  144.1129  135.3519  150.1378 C   0  0  0  0  0  0  0  0  0  0  0  0
  145.4954  135.9231  150.5032 C   0  0  0  0  0  0  0  0  0  0  0  0
  148.3700  140.6544  154.3408 N   0  0  0  0  0  0  0  0  0  0  0  0
  149.0783  141.4934  155.1254 C   0  0  0  0  0  0  0  0  0  0  0  0
  152.1057  141.8143  156.7349 H   0  0  0  0  0  0  0  0  0  0  0  0
  150.5579  142.4356  157.3174 H   0  0  0  0  0  0  0  0  0  0  0  0
  151.3121  143.1443  155.8833 H   0  0  0  0  0  0  0  0  0  0  0  0
  152.0077  139.7805  155.4111 H   0  0  0  0  0  0  0  0  0  0  0  0
  150.7061  138.2280  153.9648 H   0  0  0  0  0  0  0  0  0  0  0  0
  148.8916  137.9518  152.5553 H   0  0  0  0  0  0  0  0  0  0  0  0
  147.5008  136.9018  151.6416 H   0  0  0  0  0  0  0  0  0  0  0  0
  144.7998  137.7688  151.3413 H   0  0  0  0  0  0  0  0  0  0  0  0
  145.2876  135.4875  153.3186 H   0  0  0  0  0  0  0  0  0  0  0  0
  144.4629  136.9854  153.6417 H   0  0  0  0  0  0  0  0  0  0  0  0
  142.8062  135.1741  153.2731 H   0  0  0  0  0  0  0  0  0  0  0  0
  142.6471  136.4172  152.0838 H   0  0  0  0  0  0  0  0  0  0  0  0
  143.4784  132.9085  152.4931 H   0  0  0  0  0  0  0  0  0  0  0  0
  146.1580  133.9558  151.4837 H   0  0  0  0  0  0  0  0  0  0  0  0
  145.5672  134.0515  153.1301 H   0  0  0  0  0  0  0  0  0  0  0  0
  147.1770  132.2194  152.9048 H   0  0  0  0  0  0  0  0  0  0  0  0
  145.6051  131.6400  153.3999 H   0  0  0  0  0  0  0  0  0  0  0  0
  146.7556  131.5251  150.5695 H   0  0  0  0  0  0  0  0  0  0  0  0
  146.5204  130.1651  151.6432 H   0  0  0  0  0  0  0  0  0  0  0  0
  144.6749  130.3328  149.9688 H   0  0  0  0  0  0  0  0  0  0  0  0
  144.0711  130.4852  151.6009 H   0  0  0  0  0  0  0  0  0  0  0  0
  143.0493  132.1556  150.1435 H   0  0  0  0  0  0  0  0  0  0  0  0
  144.6022  132.7775  149.6507 H   0  0  0  0  0  0  0  0  0  0  0  0
  144.1642  134.7196  149.2532 H   0  0  0  0  0  0  0  0  0  0  0  0
  143.4603  136.1751  149.8431 H   0  0  0  0  0  0  0  0  0  0  0  0
  145.9234  136.4282  149.6364 H   0  0  0  0  0  0  0  0  0  0  0  0
  146.1802  135.1121  150.7546 H   0  0  0  0  0  0  0  0  0  0  0  0
  148.5773  142.4016  155.4269 H   0  0  0  0  0  0  0  0  0  0  0  0
  142.5469  134.4283  150.9839 H   0  0  0  0  0  0  0  0  0  0  0  0
  1  2  1  0  0  0  0
  1 24  1  0  0  0  0
  1 25  1  0  0  0  0
  1 26  1  0  0  0  0
  2 23  1  0  0  0  0
  2  3  2  0  0  0  0
  3  4  1  0  0  0  0
  3 27  1  0  0  0  0
  4  5  2  0  0  0  0
  4 28  1  0  0  0  0
  5  6  1  0  0  0  0
  5 22  1  0  0  0  0
  6  7  1  0  0  0  0
  6 29  1  0  0  0  0
  7  8  2  0  0  0  0
  7  9  1  0  0  0  0
  9 10  1  0  0  0  0
  9 30  1  0  0  0  0
 10 21  1  0  0  0  0
 10 11  1  0  0  0  0
 10 31  1  0  0  0  0
 11 12  1  0  0  0  0
 11 32  1  0  0  0  0
 11 33  1  0  0  0  0
 12 13  1  0  0  0  0
 12 34  1  0  0  0  0
 12 35  1  0  0  0  0
 13 14  1  0  0  0  0
 13 20  1  0  0  0  0
 13 52  1  0  0  0  0
 14 19  1  0  0  0  0
 14 15  1  0  0  0  0
 14 36  1  0  0  0  0
 15 16  1  0  0  0  0
 15 37  1  0  0  0  0
 15 38  1  0  0  0  0
 16 17  1  0  0  0  0
 16 39  1  0  0  0  0
 16 40  1  0  0  0  0
 17 18  1  0  0  0  0
 17 41  1  0  0  0  0
 17 42  1  0  0  0  0
 18 19  1  0  0  0  0
 18 43  1  0  0  0  0
 18 44  1  0  0  0  0
 19 45  1  0  0  0  0
 19 46  1  0  0  0  0
 20 21  1  0  0  0  0
 20 47  1  0  0  0  0
 20 48  1  0  0  0  0
 21 49  1  0  0  0  0
 21 50  1  0  0  0  0
 22 23  2  0  0  0  0
 23 51  1  0  0  0  0
M  CHG  1  13   1
M  END
> <s_m_source_file>
AV-unprocessed.smi

> <i_m_source_file_index>
2341

> <i_lp_mmshare_version>
43012

> <i_f3d_flags>
0

> <s_epik_input>
W0NIM11jMVtjSF1bY0hdYyhuW2NIXTEpW05IXUMoPU8pW05IXVtDSF0yW0NIMl1bQ0gyXU4oW0NIMl1bQ0gyXTIpW0NIXTNbQ0gyXVtDSDJdW0NIMl1bQ0gyXVtDSDJdMw==

> <s_epik_cmdline>
J2VwaWtfcHl0aG9uJywgJy1waCcsICc3LjAnLCAnLXRuJywgJzgnLCAnLW1hJywgJzIwMCcsICctbWV0YWxfYmluZGluZycsICctaW1hZScsICc8aW5maWxlLm1hZT4nLCAnLW9tYWUnLCAnPG91dGZpbGUubWFlPic=

> <r_epik_Ionization_Penalty>
0.00176486

> <r_epik_Ionization_Penalty_Charging>
0.00171891

> <r_epik_Ionization_Penalty_Neutral>
4.59494e-05

> <r_epik_State_Penalty>
0.00116222

> <r_epik_Charging_Adjusted_Penalty>
0.00288114

> <i_epik_Tot_Q>
1

> <i_epik_Tot_abs_Q>
1

> <r_epik_Metal_State_Penalty>
-0

> <b_epik_Metal_Only>
0

> <s_lp_Force_Field>
OPLS_2005

> <r_lp_Energy>
32.471

> <b_lp_Chiralities_Consistent>
1

> <s_lp_Variant>
AV-unprocessed.smi:2341-2

> <Gold.Version>
5.8.1

> <Gold.Id.Protein>
6NUR|6NUR_protein|mol2

> <Gold.PLP.Fitness>
51.6755

> <Gold.PLP.PLP>
-39.0274

> <Gold.PLP.part.hbond>
-3.8500

> <Gold.PLP.part.metal>
0.0000

> <Gold.PLP.part.buried>
1.3705

> <Gold.PLP.part.nonpolar>
-36.4733

> <Gold.PLP.part.repulsive>
0.7114

> <Gold.PLP.ligand.clash>
0.0186

> <Gold.PLP.ligand.torsion>
0.2087

> <Gold.PLP.Chemscore.Hbond>
3.3281

> <Gold.PLP.Chemscore.CHOScore>
1.0000

> <Gold.PLP.Chemscore.Metal>
0.0000

> <Gold.Chemscore.Hbonds>
donor molecule, donor type, donor heavy atom, donor atom, acceptor molecule, acceptor atom, score
      L1  H     6    29       P1  7948  0.83
      L1  H     9    30       P1  7948  0.96
      L1  H    13    52       P1 10186  1.38
      L1  C    23    51       P1  8028  1.00

> <Gold.PLP.Chemscore.Internal.Correction>
0.0998

> <Gold.Rescore>
     Score         DG    S(hbond)    S(metal)    S(lipo)     H(rot)  DE(clash)    DE(int)     intcor
     16.14     -21.37       1.78        0.00     111.14       1.19       1.76       3.47       ----

> <Gold.Chemscore.Fitness>
16.1447

> <Gold.Chemscore.DG>
-21.3745

> <Gold.Chemscore.ZeroCoef>
-5.4800

> <Gold.Chemscore.Hbond>
1.7792

> <Gold.Chemscore.Metal>
0.0000

> <Gold.Chemscore.Lipo>
111.1385

> <Gold.Chemscore.Internal_Hbond>
0.0000

> <Gold.Chemscore.DEClash>
1.7580

> <Gold.Chemscore.DEInternal>
3.4718

> <Gold.Chemscore.Rot>
1.1918

> <Gold.Chemscore.Internal.Correction>
   9.000000E+99

> <Gold.Chemscore.Hbonds>
donor molecule, donor type, donor heavy atom, donor atom, acceptor molecule, acceptor atom, score
      L1  H     6    29       P1  7948  0.83
      L1  H     9    30       P1  7948  0.90
      L1  H    13    52       P1 10186  0.10

> <Gold.Chemscore.Hbond.Weighted>
-5.9424

> <Gold.Chemscore.Metal.Weighted>
-0.0000

> <Gold.Chemscore.Lipo.Weighted>
-13.0032

> <Gold.Chemscore.Internal_Hbond.Weighted>
0.0000

> <Gold.Chemscore.DEClash.Weighted>
1.7580

> <Gold.Chemscore.DEInternal.Weighted>
3.4718

> <Gold.Chemscore.Rot.Weighted>
3.0511

> <Gold.Chemscore.Internal.Correction.Weighted>
   9.000000E+99

> <Gold.Protein.RotatedTorsions>
[ 6907 6896 6895 6894 ] final  169.86 input  -60.11 | X-H torsion
[ 7974 7965 7964 7962 ] final  121.00 input  175.53 | X-H torsion
[ 8008 7997 7996 7995 ] final   -3.22 input   59.86 | X-H torsion
[ 10167 10162 10161 10158 ] final  -32.95 input  -65.29 | X-H torsion
[ 10718 10713 10712 10709 ] final -142.33 input   66.30 | X-H torsion
[ 10763 10752 10751 10750 ] final  103.30 input  -60.55 | X-H torsion
[ 11005 11000 10999 10996 ] final  106.08 input  -57.11 | X-H torsion

> <Gold.Protein.ActiveResidues>
 VAL166  LYS551  ARG553  GLY616  TRP617  ASP618  TYR619  PRO620  LYS621  CYS622 
 ASP623  PHE694  ASN695  SER759  ASP760  ASP761  ALA762  ILE779  LEU786  VAL792 
 PHE793  MET794  SER795  GLU796  ALA797  LYS798  CYS799  TRP800  GLU811  SER814 

> <Gold.Protein.RotatedAtoms>
  151.8253  133.3400  159.3596 H   0  0  0  0  0  0  0  0  0  0  0  0  # atno 6907 bound_to 6896
  150.7281  134.5535  159.5816 H   0  0  0  0  0  0  0  0  0  0  0  0  # atno 6908 bound_to 6896
  152.2976  134.7650  160.0416 H   0  0  0  0  0  0  0  0  0  0  0  0  # atno 6909 bound_to 6896
  145.1245  139.3367  143.4697 H   0  0  0  0  0  0  0  0  0  0  0  0  # atno 7974 bound_to 7965
  154.6273  140.2515  155.7476 H   0  0  0  0  0  0  0  0  0  0  0  0  # atno 8008 bound_to 7997
  156.2460  140.2914  156.0528 H   0  0  0  0  0  0  0  0  0  0  0  0  # atno 8009 bound_to 7997
  155.1801  140.0389  157.2871 H   0  0  0  0  0  0  0  0  0  0  0  0  # atno 8010 bound_to 7997
  140.7213  143.3656  151.1877 H   0  0  0  0  0  0  0  0  0  0  0  0  # atno 10167 bound_to 10162
  156.3446  130.7656  151.1798 H   0  0  0  0  0  0  0  0  0  0  0  0  # atno 10718 bound_to 10713
  153.3509  135.3981  155.1645 H   0  0  0  0  0  0  0  0  0  0  0  0  # atno 10763 bound_to 10752
  154.8662  135.3656  154.5224 H   0  0  0  0  0  0  0  0  0  0  0  0  # atno 10764 bound_to 10752
  153.5675  135.7079  153.5579 H   0  0  0  0  0  0  0  0  0  0  0  0  # atno 10765 bound_to 10752
  139.8809  134.9357  156.5612 H   0  0  0  0  0  0  0  0  0  0  0  0  # atno 11005 bound_to 11000
  146.3518  140.1218  142.8600 LP  0  0  0  0  0  0  0  0  0  0  0  0  # atno 17320 bound_to 7965
  145.0704  140.9151  143.4885 LP  0  0  0  0  0  0  0  0  0  0  0  0  # atno 17321 bound_to 7965
  139.7217  143.9212  152.2988 LP  0  0  0  0  0  0  0  0  0  0  0  0  # atno 17342 bound_to 10162
  139.8971  144.6932  150.8706 LP  0  0  0  0  0  0  0  0  0  0  0  0  # atno 17343 bound_to 10162
  157.7452  131.0445  150.4795 LP  0  0  0  0  0  0  0  0  0  0  0  0  # atno 17370 bound_to 10713
  156.4980  130.4110  149.6369 LP  0  0  0  0  0  0  0  0  0  0  0  0  # atno 17371 bound_to 10713
  140.8168  133.8385  155.8859 LP  0  0  0  0  0  0  0  0  0  0  0  0  # atno 17394 bound_to 11000
  140.9456  134.1845  157.4766 LP  0  0  0  0  0  0  0  0  0  0  0  0  # atno 17395 bound_to 11000

$$$$
