AV-unprocessed.smi:910|AV-procd|sdf|4130|dock7
  -GOLD-   22720 2 33D 1   1.00000     0.00000
 Structure written by MMmdl.
 47 48  0  0  0  0  0  0  0  0  2 V2000
  144.7198  135.1421  151.0199 C   0  0  0  0  0  0  0  0  0  0  0  0
  145.2013  136.3681  151.7302 C   0  0  0  0  0  0  0  0  0  0  0  0
  146.4728  136.8898  151.7770 N   0  3  0  0  0  0  0  0  0  0  0  0
  146.4742  137.9913  152.5234 C   0  0  0  0  0  0  0  0  0  0  0  0
  147.6169  138.7881  152.7618 N   0  0  0  0  0  0  0  0  0  0  0  0
  147.7726  139.6270  153.7964 C   0  0  0  0  0  0  0  0  0  0  0  0
  147.0099  139.6920  154.7612 O   0  0  0  0  0  0  0  0  0  0  0  0
  148.8554  140.4049  153.6475 N   0  0  0  0  0  0  0  0  0  0  0  0
  149.2058  141.5192  154.5235 C   0  0  0  0  0  0  0  0  0  0  0  0
  149.2692  141.0697  155.9918 C   0  0  0  0  0  0  0  0  0  0  0  0
  150.0851  141.9784  156.7146 O   0  0  0  0  0  0  0  0  0  0  0  0
  150.0026  141.8737  158.1299 C   0  0  2  0  0  0  0  0  0  0  0  0
  150.3541  143.2553  158.7118 C   0  0  0  0  0  0  0  0  0  0  0  0
  151.8167  143.6407  158.4306 C   0  0  0  0  0  0  0  0  0  0  0  0
  152.7856  142.5653  158.9438 C   0  0  0  0  0  0  0  0  0  0  0  0
  152.4482  141.1848  158.3594 C   0  0  0  0  0  0  0  0  0  0  0  0
  150.9843  140.7914  158.6437 C   0  0  2  0  0  0  0  0  0  0  0  0
  150.6631  139.3874  158.1093 C   0  0  0  0  0  0  0  0  0  0  0  0
  145.2253  138.2514  152.9947 O   0  0  0  0  0  0  0  0  0  0  0  0
  144.4433  137.2327  152.4909 C   0  0  0  0  0  0  0  0  0  0  0  0
  142.9954  137.2555  152.8464 C   0  0  0  0  0  0  0  0  0  0  0  0
  144.2090  134.4650  151.7049 H   0  0  0  0  0  0  0  0  0  0  0  0
  145.5471  134.5926  150.5701 H   0  0  0  0  0  0  0  0  0  0  0  0
  144.0207  135.3980  150.2235 H   0  0  0  0  0  0  0  0  0  0  0  0
  147.2603  136.4685  151.3009 H   0  0  0  0  0  0  0  0  0  0  0  0
  149.4357  140.2715  152.8322 H   0  0  0  0  0  0  0  0  0  0  0  0
  150.1489  141.9759  154.2185 H   0  0  0  0  0  0  0  0  0  0  0  0
  148.4398  142.2864  154.4108 H   0  0  0  0  0  0  0  0  0  0  0  0
  148.2696  141.0601  156.4281 H   0  0  0  0  0  0  0  0  0  0  0  0
  149.6604  140.0535  156.0538 H   0  0  0  0  0  0  0  0  0  0  0  0
  148.9861  141.6239  158.4409 H   0  0  0  0  0  0  0  0  0  0  0  0
  149.6853  144.0127  158.3022 H   0  0  0  0  0  0  0  0  0  0  0  0
  150.1849  143.2478  159.7894 H   0  0  0  0  0  0  0  0  0  0  0  0
  151.9610  143.7798  157.3583 H   0  0  0  0  0  0  0  0  0  0  0  0
  152.0441  144.5993  158.8978 H   0  0  0  0  0  0  0  0  0  0  0  0
  153.8104  142.8365  158.6886 H   0  0  0  0  0  0  0  0  0  0  0  0
  152.7393  142.5221  160.0326 H   0  0  0  0  0  0  0  0  0  0  0  0
  152.6308  141.1899  157.2846 H   0  0  0  0  0  0  0  0  0  0  0  0
  153.1231  140.4389  158.7802 H   0  0  0  0  0  0  0  0  0  0  0  0
  150.8674  140.7449  159.7275 H   0  0  0  0  0  0  0  0  0  0  0  0
  150.8048  139.3271  157.0305 H   0  0  0  0  0  0  0  0  0  0  0  0
  149.6323  139.1090  158.3295 H   0  0  0  0  0  0  0  0  0  0  0  0
  151.3104  138.6388  158.5672 H   0  0  0  0  0  0  0  0  0  0  0  0
  142.4329  136.5352  152.2523 H   0  0  0  0  0  0  0  0  0  0  0  0
  142.5692  138.2431  152.6688 H   0  0  0  0  0  0  0  0  0  0  0  0
  142.8536  137.0094  153.8987 H   0  0  0  0  0  0  0  0  0  0  0  0
  148.3328  138.7782  152.0506 H   0  0  0  0  0  0  0  0  0  0  0  0
  1 22  1  0  0  0  0
  1 23  1  0  0  0  0
  1 24  1  0  0  0  0
  1  2  1  0  0  0  0
  2  3  1  0  0  0  0
  2 20  2  0  0  0  0
  3 25  1  0  0  0  0
  3  4  2  0  0  0  0
  4 19  1  0  0  0  0
  4  5  1  0  0  0  0
  5  6  1  0  0  0  0
  5 47  1  0  0  0  0
  6  8  1  0  0  0  0
  6  7  2  0  0  0  0
  8  9  1  0  0  0  0
  8 26  1  0  0  0  0
  9 10  1  0  0  0  0
  9 27  1  0  0  0  0
  9 28  1  0  0  0  0
 10 11  1  0  0  0  0
 10 29  1  0  0  0  0
 10 30  1  0  0  0  0
 11 12  1  0  0  0  0
 12 17  1  0  0  0  0
 12 13  1  0  0  0  0
 12 31  1  0  0  0  0
 13 14  1  0  0  0  0
 13 32  1  0  0  0  0
 13 33  1  0  0  0  0
 14 15  1  0  0  0  0
 14 34  1  0  0  0  0
 14 35  1  0  0  0  0
 15 16  1  0  0  0  0
 15 36  1  0  0  0  0
 15 37  1  0  0  0  0
 16 17  1  0  0  0  0
 16 38  1  0  0  0  0
 16 39  1  0  0  0  0
 17 18  1  0  0  0  0
 17 40  1  0  0  0  0
 18 41  1  0  0  0  0
 18 42  1  0  0  0  0
 18 43  1  0  0  0  0
 19 20  1  0  0  0  0
 20 21  1  0  0  0  0
 21 44  1  0  0  0  0
 21 45  1  0  0  0  0
 21 46  1  0  0  0  0
M  CHG  1   3   1
M  END
> <s_m_source_file>
AV-unprocessed.smi

> <i_m_source_file_index>
910

> <i_lp_mmshare_version>
43012

> <i_f3d_flags>
0

> <s_epik_input>
W0NIM11jMW5jKG9jMVtDSDNdKVtOSF1DKD1PKVtOSF1bQ0gyXVtDSDJdT1tDQEBIXTJbQ0gyXVtDSDJdW0NIMl1bQ0gyXVtDQEhdMltDSDNd

> <s_epik_cmdline>
J2VwaWtfcHl0aG9uJywgJy1waCcsICc3LjAnLCAnLXRuJywgJzgnLCAnLW1hJywgJzIwMCcsICctbWV0YWxfYmluZGluZycsICctaW1hZScsICc8aW5maWxlLm1hZT4nLCAnLW9tYWUnLCAnPG91dGZpbGUubWFlPic=

> <r_epik_Ionization_Penalty>
7.32931

> <r_epik_Ionization_Penalty_Charging>
7.12214

> <r_epik_Ionization_Penalty_Neutral>
0.207166

> <r_epik_State_Penalty>
2.61278

> <r_epik_Charging_Adjusted_Penalty>
9.73492

> <i_epik_Tot_Q>
1

> <i_epik_Tot_abs_Q>
1

> <r_epik_Metal_State_Penalty>
2.64585

> <b_epik_Metal_Only>
0

> <s_lp_Force_Field>
OPLS_2005

> <r_lp_Energy>
15.8254

> <b_lp_Chiralities_Consistent>
1

> <s_lp_Variant>
AV-unprocessed.smi:910-15

> <Gold.Version>
5.8.1

> <Gold.Id.Protein>
6NUR|6NUR_protein|mol2

> <Gold.PLP.Fitness>
42.6432

> <Gold.PLP.PLP>
-34.3549

> <Gold.PLP.part.hbond>
-3.8896

> <Gold.PLP.part.metal>
0.0000

> <Gold.PLP.part.buried>
-4.3800

> <Gold.PLP.part.nonpolar>
-28.1349

> <Gold.PLP.part.repulsive>
2.5112

> <Gold.PLP.ligand.clash>
0.0000

> <Gold.PLP.ligand.torsion>
0.5884

> <Gold.PLP.Chemscore.Hbond>
3.1440

> <Gold.PLP.Chemscore.CHOScore>
0.0000

> <Gold.PLP.Chemscore.Metal>
0.0000

> <Gold.Chemscore.Hbonds>
donor molecule, donor type, donor heavy atom, donor atom, acceptor molecule, acceptor atom, score
      L1  H     3    25       P1  7948  1.28
      L1  H     5    47       P1  7957  0.82
      L1  H     8    26       P1  7957  1.00

> <Gold.PLP.Chemscore.Internal.Correction>
0.0331

> <Gold.Rescore>
     Score         DG    S(hbond)    S(metal)    S(lipo)     H(rot)  DE(clash)    DE(int)     intcor
     16.09     -19.32       2.40        0.00      86.75       1.69       0.08       3.15       ----

> <Gold.Chemscore.Fitness>
16.0915

> <Gold.Chemscore.DG>
-19.3201

> <Gold.Chemscore.ZeroCoef>
-5.4800

> <Gold.Chemscore.Hbond>
2.4041

> <Gold.Chemscore.Metal>
0.0000

> <Gold.Chemscore.Lipo>
86.7462

> <Gold.Chemscore.Internal_Hbond>
0.0000

> <Gold.Chemscore.DEClash>
0.0767

> <Gold.Chemscore.DEInternal>
3.1520

> <Gold.Chemscore.Rot>
1.6949

> <Gold.Chemscore.Internal.Correction>
   9.000000E+99

> <Gold.Chemscore.Hbonds>
donor molecule, donor type, donor heavy atom, donor atom, acceptor molecule, acceptor atom, score
      L1  H     3    25       P1  7948  0.64
      L1  H     5    47       P1  7957  0.74
      L1  H     8    26       P1  7957  0.95

> <Gold.Chemscore.Hbond.Weighted>
-8.0298

> <Gold.Chemscore.Metal.Weighted>
-0.0000

> <Gold.Chemscore.Lipo.Weighted>
-10.1493

> <Gold.Chemscore.Internal_Hbond.Weighted>
0.0000

> <Gold.Chemscore.DEClash.Weighted>
0.0767

> <Gold.Chemscore.DEInternal.Weighted>
3.1520

> <Gold.Chemscore.Rot.Weighted>
4.3390

> <Gold.Chemscore.Internal.Correction.Weighted>
   9.000000E+99

> <Gold.Protein.RotatedTorsions>
[ 6907 6896 6895 6894 ] final    2.78 input  -60.11 | X-H torsion
[ 7974 7965 7964 7962 ] final -104.15 input  175.53 | X-H torsion
[ 8008 7997 7996 7995 ] final    0.84 input   59.86 | X-H torsion
[ 10167 10162 10161 10158 ] final -122.18 input  -65.29 | X-H torsion
[ 10718 10713 10712 10709 ] final    8.83 input   66.30 | X-H torsion
[ 10763 10752 10751 10750 ] final  164.51 input  -60.55 | X-H torsion
[ 11005 11000 10999 10996 ] final   -9.56 input  -57.11 | X-H torsion

> <Gold.Protein.ActiveResidues>
 VAL166  LYS551  ARG553  GLY616  TRP617  ASP618  TYR619  PRO620  LYS621  CYS622 
 ASP623  PHE694  ASN695  SER759  ASP760  ASP761  ALA762  ILE779  LEU786  VAL792 
 PHE793  MET794  SER795  GLU796  ALA797  LYS798  CYS799  TRP800  GLU811  SER814 

> <Gold.Protein.RotatedAtoms>
  151.6144  135.1037  160.0087 H   0  0  0  0  0  0  0  0  0  0  0  0  # atno 6907 bound_to 6896
  152.4191  133.7083  159.6474 H   0  0  0  0  0  0  0  0  0  0  0  0  # atno 6908 bound_to 6896
  150.8079  133.8402  159.3218 H   0  0  0  0  0  0  0  0  0  0  0  0  # atno 6909 bound_to 6896
  145.2468  140.9224  143.3118 H   0  0  0  0  0  0  0  0  0  0  0  0  # atno 7974 bound_to 7965
  154.6727  140.2615  155.6990 H   0  0  0  0  0  0  0  0  0  0  0  0  # atno 8008 bound_to 7997
  156.2665  140.2826  156.1164 H   0  0  0  0  0  0  0  0  0  0  0  0  # atno 8009 bound_to 7997
  155.1145  140.0376  157.2723 H   0  0  0  0  0  0  0  0  0  0  0  0  # atno 8010 bound_to 7997
  140.0170  143.5383  152.2238 H   0  0  0  0  0  0  0  0  0  0  0  0  # atno 10167 bound_to 10162
  156.9574  130.5920  149.5660 H   0  0  0  0  0  0  0  0  0  0  0  0  # atno 10718 bound_to 10713
  154.3100  135.2757  155.2570 H   0  0  0  0  0  0  0  0  0  0  0  0  # atno 10763 bound_to 10752
  154.4969  135.5818  153.6505 H   0  0  0  0  0  0  0  0  0  0  0  0  # atno 10764 bound_to 10752
  152.9889  135.6148  154.3277 H   0  0  0  0  0  0  0  0  0  0  0  0  # atno 10765 bound_to 10752
  140.7354  133.8714  155.8926 H   0  0  0  0  0  0  0  0  0  0  0  0  # atno 11005 bound_to 11000
  144.9539  139.4052  143.6389 LP  0  0  0  0  0  0  0  0  0  0  0  0  # atno 17320 bound_to 7965
  146.3314  139.8560  142.8864 LP  0  0  0  0  0  0  0  0  0  0  0  0  # atno 17321 bound_to 7965
  139.6166  144.7620  151.2833 LP  0  0  0  0  0  0  0  0  0  0  0  0  # atno 17342 bound_to 10162
  140.7358  143.6726  150.8069 LP  0  0  0  0  0  0  0  0  0  0  0  0  # atno 17343 bound_to 10162
  156.0336  130.5426  150.8598 LP  0  0  0  0  0  0  0  0  0  0  0  0  # atno 17370 bound_to 10713
  157.5681  131.0946  150.9459 LP  0  0  0  0  0  0  0  0  0  0  0  0  # atno 17371 bound_to 10713
  140.9884  134.1312  157.4431 LP  0  0  0  0  0  0  0  0  0  0  0  0  # atno 17394 bound_to 11000
  139.8817  135.0032  156.6176 LP  0  0  0  0  0  0  0  0  0  0  0  0  # atno 17395 bound_to 11000

$$$$
