AV-unprocessed.smi:232|AV-procd|sdf|1771|dock5
  -GOLD-   2262020313D 1   1.00000     0.00000
 Structure written by MMmdl.
 52 55  0  0  0  0  0  0  0  0  1 V2000
  151.7282  143.6257  159.2299 C   0  0  0  0  0  0  0  0  0  0  0  0
  150.7530  143.0815  158.1777 C   0  0  0  0  0  0  0  0  0  0  0  0
  150.7122  141.5414  158.1317 C   0  0  2  0  0  0  0  0  0  0  0  0
  152.1016  140.9280  157.8442 C   0  0  0  0  0  0  0  0  0  0  0  0
  151.9692  140.2174  156.4933 C   0  0  0  0  0  0  0  0  0  0  0  0
  150.6906  140.8153  155.9107 C   0  0  1  0  0  0  0  0  0  0  0  0
  150.0634  140.0006  154.7629 C   0  0  0  0  0  0  0  0  0  0  0  0
  149.8290  141.0630  157.0658 N   0  0  0  0  0  0  0  0  0  0  0  0
  148.9642  140.0769  157.4120 C   0  0  0  0  0  0  0  0  0  0  0  0
  147.6252  140.2279  157.2272 N   0  0  0  0  0  0  0  0  0  0  0  0
  146.7853  139.2554  157.5946 C   0  0  0  0  0  0  0  0  0  0  0  0
  147.0664  138.0771  158.1558 N   0  0  0  0  0  0  0  0  0  0  0  0
  148.4089  137.9251  158.3424 C   0  0  0  0  0  0  0  0  0  0  0  0
  149.4182  138.8677  158.0013 C   0  0  0  0  0  0  0  0  0  0  0  0
  150.6703  138.3715  158.3412 N   0  0  0  0  0  0  0  0  0  0  0  0
  150.4156  137.1998  158.8577 C   0  0  0  0  0  0  0  0  0  0  0  0
  149.0839  136.8536  158.8996 N   0  0  0  0  0  0  0  0  0  0  0  0
  148.5268  135.6193  159.4246 C   0  0  0  0  0  0  0  0  0  0  0  0
  148.0625  135.7599  160.8875 C   0  0  1  0  0  0  0  0  0  0  0  0
  147.8420  137.1267  161.1784 O   0  0  0  0  0  0  0  0  0  0  0  0
  146.7653  134.9779  161.1639 C   0  0  2  0  0  0  0  0  0  0  0  0
  146.3440  134.9406  162.6347 C   0  0  0  0  0  0  0  0  0  0  0  0
  145.5299  133.6605  162.7474 C   0  0  0  0  0  0  0  0  0  0  0  0
  145.8473  132.9017  161.4566 C   0  0  0  0  0  0  0  0  0  0  0  0
  146.9421  133.5985  160.8796 O   0  0  0  0  0  0  0  0  0  0  0  0
  151.7492  144.7153  159.2111 H   0  0  0  0  0  0  0  0  0  0  0  0
  152.7423  143.2698  159.0471 H   0  0  0  0  0  0  0  0  0  0  0  0
  151.4412  143.3186  160.2360 H   0  0  0  0  0  0  0  0  0  0  0  0
  149.7558  143.4832  158.3609 H   0  0  0  0  0  0  0  0  0  0  0  0
  151.0573  143.4592  157.2010 H   0  0  0  0  0  0  0  0  0  0  0  0
  150.3668  141.1898  159.1056 H   0  0  0  0  0  0  0  0  0  0  0  0
  152.8728  141.6979  157.7967 H   0  0  0  0  0  0  0  0  0  0  0  0
  152.3954  140.2245  158.6239 H   0  0  0  0  0  0  0  0  0  0  0  0
  152.8348  140.3704  155.8484 H   0  0  0  0  0  0  0  0  0  0  0  0
  151.8519  139.1440  156.6484 H   0  0  0  0  0  0  0  0  0  0  0  0
  150.9343  141.7977  155.5042 H   0  0  0  0  0  0  0  0  0  0  0  0
  150.7516  139.9335  153.9201 H   0  0  0  0  0  0  0  0  0  0  0  0
  149.1479  140.4700  154.4017 H   0  0  0  0  0  0  0  0  0  0  0  0
  149.8235  138.9813  155.0679 H   0  0  0  0  0  0  0  0  0  0  0  0
  145.7381  139.4501  157.4159 H   0  0  0  0  0  0  0  0  0  0  0  0
  151.1972  136.5521  159.2278 H   0  0  0  0  0  0  0  0  0  0  0  0
  147.6993  135.3060  158.7864 H   0  0  0  0  0  0  0  0  0  0  0  0
  149.2904  134.8449  159.3437 H   0  0  0  0  0  0  0  0  0  0  0  0
  148.8492  135.3982  161.5511 H   0  0  0  0  0  0  0  0  0  0  0  0
  147.0093  137.2090  161.6176 H   0  0  0  0  0  0  0  0  0  0  0  0
  145.9472  135.3629  160.5514 H   0  0  0  0  0  0  0  0  0  0  0  0
  147.2222  134.8702  163.2780 H   0  0  0  0  0  0  0  0  0  0  0  0
  145.7822  135.8267  162.9317 H   0  0  0  0  0  0  0  0  0  0  0  0
  145.8228  133.0923  163.6308 H   0  0  0  0  0  0  0  0  0  0  0  0
  144.4617  133.8683  162.8202 H   0  0  0  0  0  0  0  0  0  0  0  0
  146.0966  131.8557  161.6351 H   0  0  0  0  0  0  0  0  0  0  0  0
  144.9988  132.9379  160.7720 H   0  0  0  0  0  0  0  0  0  0  0  0
  1  2  1  0  0  0  0
  1 26  1  0  0  0  0
  1 27  1  0  0  0  0
  1 28  1  0  0  0  0
  2  3  1  0  0  0  0
  2 29  1  0  0  0  0
  2 30  1  0  0  0  0
  3  8  1  0  0  0  0
  3  4  1  0  0  0  0
  3 31  1  0  0  0  0
  4  5  1  0  0  0  0
  4 32  1  0  0  0  0
  4 33  1  0  0  0  0
  5  6  1  0  0  0  0
  5 34  1  0  0  0  0
  5 35  1  0  0  0  0
  6  7  1  0  0  0  0
  6  8  1  0  0  0  0
  6 36  1  0  0  0  0
  7 37  1  0  0  0  0
  7 38  1  0  0  0  0
  7 39  1  0  0  0  0
  8  9  1  0  0  0  0
  9 14  1  0  0  0  0
  9 10  2  0  0  0  0
 10 11  1  0  0  0  0
 11 12  2  0  0  0  0
 11 40  1  0  0  0  0
 12 13  1  0  0  0  0
 13 17  1  0  0  0  0
 13 14  2  0  0  0  0
 14 15  1  0  0  0  0
 15 16  2  0  0  0  0
 16 17  1  0  0  0  0
 16 41  1  0  0  0  0
 17 18  1  0  0  0  0
 18 19  1  0  0  0  0
 18 42  1  0  0  0  0
 18 43  1  0  0  0  0
 19 20  1  0  0  0  0
 19 21  1  0  0  0  0
 19 44  1  0  0  0  0
 20 45  1  0  0  0  0
 21 25  1  0  0  0  0
 21 22  1  0  0  0  0
 21 46  1  0  0  0  0
 22 23  1  0  0  0  0
 22 47  1  0  0  0  0
 22 48  1  0  0  0  0
 23 24  1  0  0  0  0
 23 49  1  0  0  0  0
 23 50  1  0  0  0  0
 24 25  1  0  0  0  0
 24 51  1  0  0  0  0
 24 52  1  0  0  0  0
M  END
> <s_m_source_file>
AV-unprocessed.smi

> <i_m_source_file_index>
232

> <i_lp_mmshare_version>
43012

> <i_f3d_flags>
0

> <s_epik_input>
W0NIM11bQ0gyXVtDQEBIXTFbQ0gyXVtDSDJdW0NAQEhdKFtDSDNdKU4xYyhuW2NIXW4yKWMoYzIzKW5bY0hdbjNbQ0gyXVtDQEhdKFtPSF0pW0NAQEhdNFtDSDJdW0NIMl1bQ0gyXU80

> <s_epik_cmdline>
J2VwaWtfcHl0aG9uJywgJy1waCcsICc3LjAnLCAnLXRuJywgJzgnLCAnLW1hJywgJzIwMCcsICctbWV0YWxfYmluZGluZycsICctaW1hZScsICc8aW5maWxlLm1hZT4nLCAnLW9tYWUnLCAnPG91dGZpbGUubWFlPic=

> <r_lp_tautomer_probability>
1

> <r_epik_Ionization_Penalty>
0.00258048

> <r_epik_Ionization_Penalty_Charging>
0

> <r_epik_Ionization_Penalty_Neutral>
0.00258048

> <r_epik_State_Penalty>
0.00168551

> <r_epik_Charging_Adjusted_Penalty>
0.00168551

> <i_epik_Tot_Q>
0

> <i_epik_Tot_abs_Q>
0

> <r_epik_Metal_State_Penalty>
-0

> <b_epik_Metal_Only>
0

> <s_lp_Force_Field>
OPLS_2005

> <r_lp_Energy>
56.5001

> <b_lp_Chiralities_Consistent>
1

> <s_lp_Variant>
AV-unprocessed.smi:232-5

> <Gold.Version>
5.8.1

> <Gold.Id.Protein>
6NUR|6NUR_protein|mol2

> <Gold.PLP.Fitness>
38.1515

> <Gold.PLP.PLP>
-37.1623

> <Gold.PLP.part.hbond>
-2.0000

> <Gold.PLP.part.metal>
0.0000

> <Gold.PLP.part.buried>
-4.4332

> <Gold.PLP.part.nonpolar>
-31.2490

> <Gold.PLP.part.repulsive>
0.0566

> <Gold.PLP.ligand.clash>
0.0000

> <Gold.PLP.ligand.torsion>
1.0375

> <Gold.PLP.Chemscore.Hbond>
0.9920

> <Gold.PLP.Chemscore.CHOScore>
0.0000

> <Gold.PLP.Chemscore.Metal>
0.0000

> <Gold.Chemscore.Hbonds>
donor molecule, donor type, donor heavy atom, donor atom, acceptor molecule, acceptor atom, score
      P1  H  6931  6943       L1    20  1.00

> <Gold.PLP.Chemscore.Internal.Correction>
0.0881

> <Gold.Rescore>
     Score         DG    S(hbond)    S(metal)    S(lipo)     H(rot)  DE(clash)    DE(int)     intcor
      9.61     -12.92       0.81        0.00      93.63       2.43       0.13       3.18       ----

> <Gold.Chemscore.Fitness>
9.6116

> <Gold.Chemscore.DG>
-12.9153

> <Gold.Chemscore.ZeroCoef>
-5.4800

> <Gold.Chemscore.Hbond>
0.8056

> <Gold.Chemscore.Metal>
0.0000

> <Gold.Chemscore.Lipo>
93.6336

> <Gold.Chemscore.Internal_Hbond>
0.0000

> <Gold.Chemscore.DEClash>
0.1263

> <Gold.Chemscore.DEInternal>
3.1774

> <Gold.Chemscore.Rot>
2.4260

> <Gold.Chemscore.Internal.Correction>
   9.000000E+99

> <Gold.Chemscore.Hbonds>
donor molecule, donor type, donor heavy atom, donor atom, acceptor molecule, acceptor atom, score
      P1  H  6931  6943       L1    20  0.70

> <Gold.Chemscore.Hbond.Weighted>
-2.6908

> <Gold.Chemscore.Metal.Weighted>
-0.0000

> <Gold.Chemscore.Lipo.Weighted>
-10.9551

> <Gold.Chemscore.Internal_Hbond.Weighted>
0.0000

> <Gold.Chemscore.DEClash.Weighted>
0.1263

> <Gold.Chemscore.DEInternal.Weighted>
3.1774

> <Gold.Chemscore.Rot.Weighted>
6.2107

> <Gold.Chemscore.Internal.Correction.Weighted>
   9.000000E+99

> <Gold.Protein.RotatedTorsions>
[ 6907 6896 6895 6894 ] final  -77.50 input  -60.11 | X-H torsion
[ 7974 7965 7964 7962 ] final  -17.67 input  175.53 | X-H torsion
[ 8008 7997 7996 7995 ] final   84.91 input   59.86 | X-H torsion
[ 10167 10162 10161 10158 ] final  105.15 input  -65.29 | X-H torsion
[ 10718 10713 10712 10709 ] final  105.68 input   66.30 | X-H torsion
[ 10763 10752 10751 10750 ] final  -24.00 input  -60.55 | X-H torsion
[ 11005 11000 10999 10996 ] final -166.32 input  -57.11 | X-H torsion

> <Gold.Protein.ActiveResidues>
 VAL166  LYS551  ARG553  GLY616  TRP617  ASP618  TYR619  PRO620  LYS621  CYS622 
 ASP623  PHE694  ASN695  SER759  ASP760  ASP761  ALA762  ILE779  LEU786  VAL792 
 PHE793  MET794  SER795  GLU796  ALA797  LYS798  CYS799  TRP800  GLU811  SER814 

> <Gold.Protein.RotatedAtoms>
  150.6997  134.4414  159.5293 H   0  0  0  0  0  0  0  0  0  0  0  0  # atno 6907 bound_to 6896
  152.2123  134.8487  160.0505 H   0  0  0  0  0  0  0  0  0  0  0  0  # atno 6908 bound_to 6896
  151.9368  133.3591  159.3987 H   0  0  0  0  0  0  0  0  0  0  0  0  # atno 6909 bound_to 6896
  146.1929  140.3813  142.8451 H   0  0  0  0  0  0  0  0  0  0  0  0  # atno 7974 bound_to 7965
  155.9432  140.3406  155.6345 H   0  0  0  0  0  0  0  0  0  0  0  0  # atno 8008 bound_to 7997
  155.7014  140.0760  157.2427 H   0  0  0  0  0  0  0  0  0  0  0  0  # atno 8009 bound_to 7997
  154.4106  140.1639  156.2182 H   0  0  0  0  0  0  0  0  0  0  0  0  # atno 8010 bound_to 7997
  139.7117  144.7076  151.1016 H   0  0  0  0  0  0  0  0  0  0  0  0  # atno 10167 bound_to 10162
  157.6696  131.0833  150.5893 H   0  0  0  0  0  0  0  0  0  0  0  0  # atno 10718 bound_to 10713
  153.6767  135.6969  153.5130 H   0  0  0  0  0  0  0  0  0  0  0  0  # atno 10763 bound_to 10752
  153.2516  135.4273  155.0802 H   0  0  0  0  0  0  0  0  0  0  0  0  # atno 10764 bound_to 10752
  154.8411  135.3533  154.6311 H   0  0  0  0  0  0  0  0  0  0  0  0  # atno 10765 bound_to 10752
  140.5658  134.5287  157.5152 H   0  0  0  0  0  0  0  0  0  0  0  0  # atno 11005 bound_to 11000
  144.8523  140.7019  143.6160 LP  0  0  0  0  0  0  0  0  0  0  0  0  # atno 17320 bound_to 7965
  145.3734  139.1653  143.4319 LP  0  0  0  0  0  0  0  0  0  0  0  0  # atno 17321 bound_to 7965
  140.7734  143.5284  150.9452 LP  0  0  0  0  0  0  0  0  0  0  0  0  # atno 17342 bound_to 10162
  139.8969  143.6884  152.3137 LP  0  0  0  0  0  0  0  0  0  0  0  0  # atno 17343 bound_to 10162
  156.6194  130.4401  149.5828 LP  0  0  0  0  0  0  0  0  0  0  0  0  # atno 17370 bound_to 10713
  156.2368  130.6827  151.1517 LP  0  0  0  0  0  0  0  0  0  0  0  0  # atno 17371 bound_to 10713
  139.9385  134.7830  156.0739 LP  0  0  0  0  0  0  0  0  0  0  0  0  # atno 17394 bound_to 11000
  141.1086  133.6651  156.2924 LP  0  0  0  0  0  0  0  0  0  0  0  0  # atno 17395 bound_to 11000

$$$$
