AV-unprocessed.smi:2062|AV-procd|sdf|8396|dock4
  -GOLD-   2272011 83D 1   1.00000     0.00000
 Structure written by MMmdl.
 43 44  0  0  0  0  0  0  0  0  2 V2000
  147.9203  127.2052  150.9802 C   0  0  0  0  0  0  0  0  0  0  0  0
  147.8185  128.0826  152.2368 C   0  0  0  0  0  0  0  0  0  0  0  0
  147.7536  127.2057  153.4987 C   0  0  0  0  0  0  0  0  0  0  0  0
  146.6076  129.0345  152.1368 C   0  0  0  0  0  0  0  0  0  0  0  0
  147.0000  130.4609  152.0023 N   0  3  1  0  0  0  0  0  0  0  0  0
  145.9335  131.3202  151.4317 C   0  0  0  0  0  0  0  0  0  0  0  0
  146.4297  132.7680  151.2904 C   0  0  0  0  0  0  0  0  0  0  0  0
  146.8661  133.2466  152.5564 O   0  0  0  0  0  0  0  0  0  0  0  0
  147.9582  132.4930  153.0708 C   0  0  1  0  0  0  0  0  0  0  0  0
  148.4224  133.1703  154.3749 C   0  0  0  0  0  0  0  0  0  0  0  0
  149.0008  134.4917  154.1499 N   0  0  0  0  0  0  0  0  0  0  0  0
  149.8749  135.0948  154.9683 C   0  0  0  0  0  0  0  0  0  0  0  0
  150.2784  134.5894  156.0160 O   0  0  0  0  0  0  0  0  0  0  0  0
  150.2347  136.3014  154.4970 N   0  0  0  0  0  0  0  0  0  0  0  0
  151.1234  137.2408  155.0828 C   0  0  0  0  0  0  0  0  0  0  0  0
  152.0778  136.9268  155.9668 N   0  0  0  0  0  0  0  0  0  0  0  0
  152.8025  138.0485  156.3769 C   0  0  0  0  0  0  0  0  0  0  0  0
  152.3814  139.2173  155.7933 C   0  0  0  0  0  0  0  0  0  0  0  0
  151.0516  138.9541  154.6971 S   0  0  0  0  0  0  0  0  0  0  0  0
  147.5012  131.0331  153.2744 C   0  0  0  0  0  0  0  0  0  0  0  0
  147.0392  126.5731  150.8645 H   0  0  0  0  0  0  0  0  0  0  0  0
  148.7935  126.5534  151.0251 H   0  0  0  0  0  0  0  0  0  0  0  0
  148.0133  127.8143  150.0803 H   0  0  0  0  0  0  0  0  0  0  0  0
  148.7343  128.6713  152.2836 H   0  0  0  0  0  0  0  0  0  0  0  0
  146.8545  126.5886  153.5066 H   0  0  0  0  0  0  0  0  0  0  0  0
  147.7511  127.8095  154.4064 H   0  0  0  0  0  0  0  0  0  0  0  0
  148.6139  126.5384  153.5561 H   0  0  0  0  0  0  0  0  0  0  0  0
  145.9673  128.7582  151.2975 H   0  0  0  0  0  0  0  0  0  0  0  0
  145.9997  128.9072  153.0341 H   0  0  0  0  0  0  0  0  0  0  0  0
  145.6239  130.9498  150.4549 H   0  0  0  0  0  0  0  0  0  0  0  0
  145.0546  131.2919  152.0776 H   0  0  0  0  0  0  0  0  0  0  0  0
  147.2386  132.8353  150.5610 H   0  0  0  0  0  0  0  0  0  0  0  0
  145.6234  133.4074  150.9310 H   0  0  0  0  0  0  0  0  0  0  0  0
  148.7724  132.5220  152.3443 H   0  0  0  0  0  0  0  0  0  0  0  0
  147.5868  133.2551  155.0717 H   0  0  0  0  0  0  0  0  0  0  0  0
  149.1719  132.5515  154.8688 H   0  0  0  0  0  0  0  0  0  0  0  0
  148.7252  134.9730  153.3062 H   0  0  0  0  0  0  0  0  0  0  0  0
  149.8253  136.5825  153.6183 H   0  0  0  0  0  0  0  0  0  0  0  0
  153.6043  137.9238  157.0896 H   0  0  0  0  0  0  0  0  0  0  0  0
  152.7720  140.2131  155.9411 H   0  0  0  0  0  0  0  0  0  0  0  0
  146.7172  130.9833  154.0320 H   0  0  0  0  0  0  0  0  0  0  0  0
  148.3357  130.4305  153.6348 H   0  0  0  0  0  0  0  0  0  0  0  0
  147.7783  130.4853  151.3585 H   0  0  0  0  0  0  0  0  0  0  0  0
  1  2  1  0  0  0  0
  1 21  1  0  0  0  0
  1 22  1  0  0  0  0
  1 23  1  0  0  0  0
  2  3  1  0  0  0  0
  2  4  1  0  0  0  0
  2 24  1  0  0  0  0
  3 25  1  0  0  0  0
  3 26  1  0  0  0  0
  3 27  1  0  0  0  0
  4  5  1  0  0  0  0
  4 28  1  0  0  0  0
  4 29  1  0  0  0  0
  5 20  1  0  0  0  0
  5  6  1  0  0  0  0
  5 43  1  0  0  0  0
  6  7  1  0  0  0  0
  6 30  1  0  0  0  0
  6 31  1  0  0  0  0
  7  8  1  0  0  0  0
  7 32  1  0  0  0  0
  7 33  1  0  0  0  0
  8  9  1  0  0  0  0
  9 10  1  0  0  0  0
  9 20  1  0  0  0  0
  9 34  1  0  0  0  0
 10 11  1  0  0  0  0
 10 35  1  0  0  0  0
 10 36  1  0  0  0  0
 11 12  1  0  0  0  0
 11 37  1  0  0  0  0
 12 13  2  0  0  0  0
 12 14  1  0  0  0  0
 14 15  1  0  0  0  0
 14 38  1  0  0  0  0
 15 19  1  0  0  0  0
 15 16  2  0  0  0  0
 16 17  1  0  0  0  0
 17 18  2  0  0  0  0
 17 39  1  0  0  0  0
 18 19  1  0  0  0  0
 18 40  1  0  0  0  0
 20 41  1  0  0  0  0
 20 42  1  0  0  0  0
M  CHG  1   5   1
M  END
> <s_m_source_file>
AV-unprocessed.smi

> <i_m_source_file_index>
2062

> <i_lp_mmshare_version>
43012

> <i_f3d_flags>
0

> <s_epik_input>
W0NIM11bQ0hdKFtDSDNdKVtDSDJdTjFbQ0gyXVtDSDJdT1tDQEhdKFtDSDJdMSlbQ0gyXVtOSF1DKD1PKVtOSF1jMm5bY0hdW2NIXXMy

> <s_epik_cmdline>
J2VwaWtfcHl0aG9uJywgJy1waCcsICc3LjAnLCAnLXRuJywgJzgnLCAnLW1hJywgJzIwMCcsICctbWV0YWxfYmluZGluZycsICctaW1hZScsICc8aW5maWxlLm1hZT4nLCAnLW9tYWUnLCAnPG91dGZpbGUubWFlPic=

> <r_lp_tautomer_probability>
0.999

> <r_epik_Ionization_Penalty>
0.0985527

> <r_epik_Ionization_Penalty_Charging>
0.098413

> <r_epik_Ionization_Penalty_Neutral>
0.000139681

> <r_epik_State_Penalty>
0.0884988

> <r_epik_Charging_Adjusted_Penalty>
0.186912

> <i_epik_Tot_Q>
1

> <i_epik_Tot_abs_Q>
1

> <r_epik_Metal_State_Penalty>
0.141792

> <b_epik_Metal_Only>
0

> <s_lp_Force_Field>
OPLS_2005

> <r_lp_Energy>
15.1925

> <b_lp_Chiralities_Consistent>
1

> <s_lp_Variant>
AV-unprocessed.smi:2062-1

> <Gold.Version>
5.8.1

> <Gold.Id.Protein>
6NUR|6NUR_protein|mol2

> <Gold.PLP.Fitness>
49.4645

> <Gold.PLP.PLP>
-39.8593

> <Gold.PLP.part.hbond>
-4.9029

> <Gold.PLP.part.metal>
0.0000

> <Gold.PLP.part.buried>
-3.7609

> <Gold.PLP.part.nonpolar>
-31.9469

> <Gold.PLP.part.repulsive>
0.2766

> <Gold.PLP.ligand.clash>
0.0000

> <Gold.PLP.ligand.torsion>
1.1836

> <Gold.PLP.Chemscore.Hbond>
3.9440

> <Gold.PLP.Chemscore.CHOScore>
0.0000

> <Gold.PLP.Chemscore.Metal>
0.0000

> <Gold.Chemscore.Hbonds>
donor molecule, donor type, donor heavy atom, donor atom, acceptor molecule, acceptor atom, score
      L1  H     5    43       P1 10747  1.00
      L1  H    11    37       P1  7948  1.00
      L1  H    14    38       P1  7948  1.00
      P1  H 10752 10764       L1    16  1.00

> <Gold.PLP.Chemscore.Internal.Correction>
0.1403

> <Gold.Rescore>
     Score         DG    S(hbond)    S(metal)    S(lipo)     H(rot)  DE(clash)    DE(int)     intcor
     20.94     -22.33       3.42        0.00      84.90       1.76       0.05       1.34       ----

> <Gold.Chemscore.Fitness>
20.9423

> <Gold.Chemscore.DG>
-22.3328

> <Gold.Chemscore.ZeroCoef>
-5.4800

> <Gold.Chemscore.Hbond>
3.4205

> <Gold.Chemscore.Metal>
0.0000

> <Gold.Chemscore.Lipo>
84.9036

> <Gold.Chemscore.Internal_Hbond>
0.0000

> <Gold.Chemscore.DEClash>
0.0458

> <Gold.Chemscore.DEInternal>
1.3447

> <Gold.Chemscore.Rot>
1.7599

> <Gold.Chemscore.Internal.Correction>
   9.000000E+99

> <Gold.Chemscore.Hbonds>
donor molecule, donor type, donor heavy atom, donor atom, acceptor molecule, acceptor atom, score
      L1  H     5    43       P1 10747  1.00
      L1  H    11    37       P1  7948  0.54
      L1  H    14    38       P1  7948  0.33
      P1  H 10752 10764       L1    16  0.26

> <Gold.Chemscore.Hbond.Weighted>
-11.4246

> <Gold.Chemscore.Metal.Weighted>
-0.0000

> <Gold.Chemscore.Lipo.Weighted>
-9.9337

> <Gold.Chemscore.Internal_Hbond.Weighted>
0.0000

> <Gold.Chemscore.DEClash.Weighted>
0.0458

> <Gold.Chemscore.DEInternal.Weighted>
1.3447

> <Gold.Chemscore.Rot.Weighted>
4.5054

> <Gold.Chemscore.Internal.Correction.Weighted>
   9.000000E+99

> <Gold.Protein.RotatedTorsions>
[ 6907 6896 6895 6894 ] final   47.80 input  -60.11 | X-H torsion
[ 7974 7965 7964 7962 ] final  152.20 input  175.53 | X-H torsion
[ 8008 7997 7996 7995 ] final -102.74 input   59.86 | X-H torsion
[ 10167 10162 10161 10158 ] final   71.48 input  -65.29 | X-H torsion
[ 10718 10713 10712 10709 ] final   46.71 input   66.30 | X-H torsion
[ 10763 10752 10751 10750 ] final  -36.90 input  -60.55 | X-H torsion
[ 11005 11000 10999 10996 ] final  138.45 input  -57.11 | X-H torsion

> <Gold.Protein.ActiveResidues>
 VAL166  LYS551  ARG553  GLY616  TRP617  ASP618  TYR619  PRO620  LYS621  CYS622 
 ASP623  PHE694  ASN695  SER759  ASP760  ASP761  ALA762  ILE779  LEU786  VAL792 
 PHE793  MET794  SER795  GLU796  ALA797  LYS798  CYS799  TRP800  GLU811  SER814 

> <Gold.Protein.RotatedAtoms>
  152.2722  134.7921  160.0411 H   0  0  0  0  0  0  0  0  0  0  0  0  # atno 6907 bound_to 6896
  151.8529  133.3438  159.3687 H   0  0  0  0  0  0  0  0  0  0  0  0  # atno 6908 bound_to 6896
  150.7156  134.5209  159.5697 H   0  0  0  0  0  0  0  0  0  0  0  0  # atno 6909 bound_to 6896
  144.8239  139.6638  143.6088 H   0  0  0  0  0  0  0  0  0  0  0  0  # atno 7974 bound_to 7965
  154.8609  140.0426  157.1665 H   0  0  0  0  0  0  0  0  0  0  0  0  # atno 8008 bound_to 7997
  154.8841  140.2977  155.5388 H   0  0  0  0  0  0  0  0  0  0  0  0  # atno 8009 bound_to 7997
  156.2998  140.2406  156.3847 H   0  0  0  0  0  0  0  0  0  0  0  0  # atno 8010 bound_to 7997
  140.0456  144.5354  150.7401 H   0  0  0  0  0  0  0  0  0  0  0  0  # atno 10167 bound_to 10162
  157.4509  130.8138  149.7787 H   0  0  0  0  0  0  0  0  0  0  0  0  # atno 10718 bound_to 10713
  153.8874  135.6815  153.4763 H   0  0  0  0  0  0  0  0  0  0  0  0  # atno 10763 bound_to 10752
  153.1200  135.4744  154.9177 H   0  0  0  0  0  0  0  0  0  0  0  0  # atno 10764 bound_to 10752
  154.7639  135.3218  154.8277 H   0  0  0  0  0  0  0  0  0  0  0  0  # atno 10765 bound_to 10752
  140.0185  134.9407  157.0425 H   0  0  0  0  0  0  0  0  0  0  0  0  # atno 11005 bound_to 11000
  146.2544  139.6270  142.9405 LP  0  0  0  0  0  0  0  0  0  0  0  0  # atno 17320 bound_to 7965
  145.5044  141.0437  143.2522 LP  0  0  0  0  0  0  0  0  0  0  0  0  # atno 17321 bound_to 7965
  140.7240  143.2617  151.4183 LP  0  0  0  0  0  0  0  0  0  0  0  0  # atno 17342 bound_to 10162
  139.5986  144.1345  152.2172 LP  0  0  0  0  0  0  0  0  0  0  0  0  # atno 17343 bound_to 10162
  155.9987  130.3893  150.2693 LP  0  0  0  0  0  0  0  0  0  0  0  0  # atno 17370 bound_to 10713
  157.0865  131.0158  151.3137 LP  0  0  0  0  0  0  0  0  0  0  0  0  # atno 17371 bound_to 10713
  140.4429  134.1662  155.7175 LP  0  0  0  0  0  0  0  0  0  0  0  0  # atno 17394 bound_to 11000
  141.1758  133.8516  157.1424 LP  0  0  0  0  0  0  0  0  0  0  0  0  # atno 17395 bound_to 11000

$$$$
