AV-unprocessed.smi:446|AV-procd|sdf|2593|dock5
  -GOLD-   2262022593D 1   1.00000     0.00000
 Structure written by MMmdl.
 35 37  0  0  0  0  0  0  0  0  1 V2000
  151.8591  137.8705  155.4999 C   0  0  0  0  0  0  0  0  0  0  0  0
  150.6919  138.6772  155.0268 C   0  0  0  0  0  0  0  0  0  0  0  0
  149.6694  138.1289  154.3698 N   0  0  0  0  0  0  0  0  0  0  0  0
  148.8416  139.2110  154.1400 C   0  0  0  0  0  0  0  0  0  0  0  0
  147.5924  139.2905  153.4836 C   0  0  0  0  0  0  0  0  0  0  0  0
  146.9219  140.5265  153.3723 C   0  0  0  0  0  0  0  0  0  0  0  0
  147.4889  141.6981  153.9146 C   0  0  0  0  0  0  0  0  0  0  0  0
  148.7333  141.6415  154.5711 C   0  0  0  0  0  0  0  0  0  0  0  0
  149.3989  140.4057  154.6781 C   0  0  0  0  0  0  0  0  0  0  0  0
  150.6082  140.0134  155.2420 N   0  0  0  0  0  0  0  0  0  0  0  0
  151.5609  140.8845  155.9169 C   0  0  0  0  0  0  0  0  0  0  0  0
  150.8794  141.8402  156.9164 C   0  0  2  0  0  0  0  0  0  0  0  0
  150.7154  143.1169  156.3299 O   0  0  0  0  0  0  0  0  0  0  0  0
  151.6424  141.9038  158.2301 C   0  0  0  0  0  0  0  0  0  0  0  0
  152.0604  140.7111  158.8589 C   0  0  0  0  0  0  0  0  0  0  0  0
  152.7725  140.7602  160.0733 C   0  0  0  0  0  0  0  0  0  0  0  0
  153.0729  142.0022  160.6646 C   0  0  0  0  0  0  0  0  0  0  0  0
  153.7570  142.0491  161.8321 F   0  0  0  0  0  0  0  0  0  0  0  0
  152.6625  143.1955  160.0399 C   0  0  0  0  0  0  0  0  0  0  0  0
  151.9508  143.1474  158.8254 C   0  0  0  0  0  0  0  0  0  0  0  0
  151.7669  136.8346  155.1718 H   0  0  0  0  0  0  0  0  0  0  0  0
  151.9074  137.8822  156.5890 H   0  0  0  0  0  0  0  0  0  0  0  0
  152.7886  138.2747  155.0993 H   0  0  0  0  0  0  0  0  0  0  0  0
  147.1498  138.3988  153.0651 H   0  0  0  0  0  0  0  0  0  0  0  0
  145.9674  140.5754  152.8690 H   0  0  0  0  0  0  0  0  0  0  0  0
  146.9683  142.6404  153.8262 H   0  0  0  0  0  0  0  0  0  0  0  0
  149.1718  142.5364  154.9873 H   0  0  0  0  0  0  0  0  0  0  0  0
  152.2769  140.2507  156.4416 H   0  0  0  0  0  0  0  0  0  0  0  0
  152.1367  141.4442  155.1797 H   0  0  0  0  0  0  0  0  0  0  0  0
  149.8758  141.4690  157.1276 H   0  0  0  0  0  0  0  0  0  0  0  0
  149.8101  143.2160  156.0773 H   0  0  0  0  0  0  0  0  0  0  0  0
  151.8373  139.7532  158.4119 H   0  0  0  0  0  0  0  0  0  0  0  0
  153.0887  139.8443  160.5507 H   0  0  0  0  0  0  0  0  0  0  0  0
  152.8948  144.1485  160.4917 H   0  0  0  0  0  0  0  0  0  0  0  0
  151.6441  144.0684  158.3516 H   0  0  0  0  0  0  0  0  0  0  0  0
  1  2  1  0  0  0  0
  1 21  1  0  0  0  0
  1 22  1  0  0  0  0
  1 23  1  0  0  0  0
  2 10  1  0  0  0  0
  2  3  2  0  0  0  0
  3  4  1  0  0  0  0
  4  9  2  0  0  0  0
  4  5  1  0  0  0  0
  5  6  2  0  0  0  0
  5 24  1  0  0  0  0
  6  7  1  0  0  0  0
  6 25  1  0  0  0  0
  7  8  2  0  0  0  0
  7 26  1  0  0  0  0
  8  9  1  0  0  0  0
  8 27  1  0  0  0  0
  9 10  1  0  0  0  0
 10 11  1  0  0  0  0
 11 12  1  0  0  0  0
 11 28  1  0  0  0  0
 11 29  1  0  0  0  0
 12 13  1  0  0  0  0
 12 14  1  0  0  0  0
 12 30  1  0  0  0  0
 13 31  1  0  0  0  0
 14 20  1  0  0  0  0
 14 15  2  0  0  0  0
 15 16  1  0  0  0  0
 15 32  1  0  0  0  0
 16 17  2  0  0  0  0
 16 33  1  0  0  0  0
 17 18  1  0  0  0  0
 17 19  1  0  0  0  0
 19 20  2  0  0  0  0
 19 34  1  0  0  0  0
 20 35  1  0  0  0  0
M  END
> <s_m_source_file>
AV-unprocessed.smi

> <i_m_source_file_index>
446

> <i_lp_mmshare_version>
43012

> <i_f3d_flags>
0

> <s_epik_input>
W2NIXTFbY0hdW2NIXVtjSF1jKGMxMiluKGMobjIpW0NIM10pW0NIMl1bQ0BIXShbT0hdKWMzW2NIXVtjSF1jKEYpW2NIXVtjSF0z

> <s_epik_cmdline>
J2VwaWtfcHl0aG9uJywgJy1waCcsICc3LjAnLCAnLXRuJywgJzgnLCAnLW1hJywgJzIwMCcsICctbWV0YWxfYmluZGluZycsICctaW1hZScsICc8aW5maWxlLm1hZT4nLCAnLW9tYWUnLCAnPG91dGZpbGUubWFlPic=

> <r_epik_Ionization_Penalty>
0.129663

> <r_epik_Ionization_Penalty_Charging>
0

> <r_epik_Ionization_Penalty_Neutral>
0.129663

> <r_epik_State_Penalty>
0.119073

> <r_epik_Charging_Adjusted_Penalty>
0.119073

> <i_epik_Tot_Q>
0

> <i_epik_Tot_abs_Q>
0

> <r_epik_Metal_State_Penalty>
0.000131867

> <b_epik_Metal_Only>
0

> <s_lp_Force_Field>
OPLS_2005

> <r_lp_Energy>
11.4063

> <b_lp_Chiralities_Consistent>
1

> <s_lp_Variant>
AV-unprocessed.smi:446-1

> <Gold.Version>
5.8.1

> <Gold.Id.Protein>
6NUR|6NUR_protein|mol2

> <Gold.PLP.Fitness>
46.8171

> <Gold.PLP.PLP>
-46.8610

> <Gold.PLP.part.hbond>
-1.0000

> <Gold.PLP.part.metal>
0.0000

> <Gold.PLP.part.buried>
-1.5394

> <Gold.PLP.part.nonpolar>
-43.0367

> <Gold.PLP.part.repulsive>
0.2223

> <Gold.PLP.ligand.clash>
0.0000

> <Gold.PLP.ligand.torsion>
0.9691

> <Gold.PLP.Chemscore.Hbond>
0.6240

> <Gold.PLP.Chemscore.CHOScore>
0.0000

> <Gold.PLP.Chemscore.Metal>
0.0000

> <Gold.Chemscore.Hbonds>
donor molecule, donor type, donor heavy atom, donor atom, acceptor molecule, acceptor atom, score
      L1  H    13    31       P1  8028  0.58

> <Gold.PLP.Chemscore.Internal.Correction>
0.0223

> <Gold.Rescore>
     Score         DG    S(hbond)    S(metal)    S(lipo)     H(rot)  DE(clash)    DE(int)     intcor
     16.85     -17.92       0.96        0.00     118.06       1.79       0.23       0.83       ----

> <Gold.Chemscore.Fitness>
16.8494

> <Gold.Chemscore.DG>
-17.9156

> <Gold.Chemscore.ZeroCoef>
-5.4800

> <Gold.Chemscore.Hbond>
0.9616

> <Gold.Chemscore.Metal>
0.0000

> <Gold.Chemscore.Lipo>
118.0587

> <Gold.Chemscore.Internal_Hbond>
0.0000

> <Gold.Chemscore.DEClash>
0.2314

> <Gold.Chemscore.DEInternal>
0.8348

> <Gold.Chemscore.Rot>
1.7926

> <Gold.Chemscore.Internal.Correction>
   9.000000E+99

> <Gold.Chemscore.Hbonds>
donor molecule, donor type, donor heavy atom, donor atom, acceptor molecule, acceptor atom, score
      L1  H    13    31       P1  8028  0.58

> <Gold.Chemscore.Hbond.Weighted>
-3.2117

> <Gold.Chemscore.Metal.Weighted>
-0.0000

> <Gold.Chemscore.Lipo.Weighted>
-13.8129

> <Gold.Chemscore.Internal_Hbond.Weighted>
0.0000

> <Gold.Chemscore.DEClash.Weighted>
0.2314

> <Gold.Chemscore.DEInternal.Weighted>
0.8348

> <Gold.Chemscore.Rot.Weighted>
4.5890

> <Gold.Chemscore.Internal.Correction.Weighted>
   9.000000E+99

> <Gold.Protein.RotatedTorsions>
[ 6907 6896 6895 6894 ] final   -6.44 input  -60.11 | X-H torsion
[ 7974 7965 7964 7962 ] final   97.84 input  175.53 | X-H torsion
[ 8008 7997 7996 7995 ] final    8.88 input   59.86 | X-H torsion
[ 10167 10162 10161 10158 ] final  -87.60 input  -65.29 | X-H torsion
[ 10718 10713 10712 10709 ] final   62.10 input   66.30 | X-H torsion
[ 10763 10752 10751 10750 ] final -103.91 input  -60.55 | X-H torsion
[ 11005 11000 10999 10996 ] final  -47.66 input  -57.11 | X-H torsion

> <Gold.Protein.ActiveResidues>
 VAL166  LYS551  ARG553  GLY616  TRP617  ASP618  TYR619  PRO620  LYS621  CYS622 
 ASP623  PHE694  ASN695  SER759  ASP760  ASP761  ALA762  ILE779  LEU786  VAL792 
 PHE793  MET794  SER795  GLU796  ALA797  LYS798  CYS799  TRP800  GLU811  SER814 

> <Gold.Protein.RotatedAtoms>
  151.4655  135.1042  159.9736 H   0  0  0  0  0  0  0  0  0  0  0  0  # atno 6907 bound_to 6896
  152.4836  133.8313  159.7115 H   0  0  0  0  0  0  0  0  0  0  0  0  # atno 6908 bound_to 6896
  150.8928  133.7160  159.2927 H   0  0  0  0  0  0  0  0  0  0  0  0  # atno 6909 bound_to 6896
  145.4201  139.2322  143.3201 H   0  0  0  0  0  0  0  0  0  0  0  0  # atno 7974 bound_to 7965
  154.7726  140.2804  155.6126 H   0  0  0  0  0  0  0  0  0  0  0  0  # atno 8008 bound_to 7997
  156.2936  140.2638  156.2460 H   0  0  0  0  0  0  0  0  0  0  0  0  # atno 8009 bound_to 7997
  154.9881  140.0374  157.2297 H   0  0  0  0  0  0  0  0  0  0  0  0  # atno 8010 bound_to 7997
  140.3829  143.2740  151.9361 H   0  0  0  0  0  0  0  0  0  0  0  0  # atno 10167 bound_to 10162
  157.5876  130.9031  149.9544 H   0  0  0  0  0  0  0  0  0  0  0  0  # atno 10718 bound_to 10713
  154.7841  135.4806  153.9907 H   0  0  0  0  0  0  0  0  0  0  0  0  # atno 10763 bound_to 10752
  153.1535  135.6795  153.8854 H   0  0  0  0  0  0  0  0  0  0  0  0  # atno 10764 bound_to 10752
  153.8491  135.3169  155.3409 H   0  0  0  0  0  0  0  0  0  0  0  0  # atno 10765 bound_to 10752
  141.0654  133.6695  156.3330 H   0  0  0  0  0  0  0  0  0  0  0  0  # atno 11005 bound_to 11000
  146.2661  140.4924  142.8833 LP  0  0  0  0  0  0  0  0  0  0  0  0  # atno 17320 bound_to 7965
  144.8251  140.6615  143.6327 LP  0  0  0  0  0  0  0  0  0  0  0  0  # atno 17321 bound_to 7965
  139.4794  144.5801  151.7946 LP  0  0  0  0  0  0  0  0  0  0  0  0  # atno 17342 bound_to 10162
  140.4919  144.1297  150.5952 LP  0  0  0  0  0  0  0  0  0  0  0  0  # atno 17343 bound_to 10162
  156.0927  130.3662  150.0365 LP  0  0  0  0  0  0  0  0  0  0  0  0  # atno 17370 bound_to 10713
  156.8493  130.9453  151.3626 LP  0  0  0  0  0  0  0  0  0  0  0  0  # atno 17371 bound_to 10713
  140.5783  134.5771  157.5474 LP  0  0  0  0  0  0  0  0  0  0  0  0  # atno 17394 bound_to 11000
  139.9472  134.7682  156.0535 LP  0  0  0  0  0  0  0  0  0  0  0  0  # atno 17395 bound_to 11000

$$$$
