AV-unprocessed.smi:864|AV-procd|sdf|3989|dock10
  -GOLD-   22720 1463D 1   1.00000     0.00000
 Structure written by MMmdl.
 45 47  0  0  0  0  0  0  0  0  2 V2000
  151.6362  143.6367  158.3703 C   0  0  0  0  0  0  0  0  0  0  0  0
  151.3009  142.3785  157.5984 C   0  0  0  0  0  0  0  0  0  0  0  0
  151.7411  141.1021  158.0089 C   0  0  0  0  0  0  0  0  0  0  0  0
  151.4059  139.9755  157.2299 C   0  0  0  0  0  0  0  0  0  0  0  0
  150.6385  140.1466  156.0560 C   0  0  0  0  0  0  0  0  0  0  0  0
  150.3158  138.9620  155.1600 C   0  0  0  0  0  0  0  0  0  0  0  0
  148.9911  138.2559  155.5195 C   0  0  0  0  0  0  0  0  0  0  0  0
  148.5507  137.3340  154.4736 N   0  0  0  0  0  0  0  0  0  0  0  0
  147.3985  136.6474  154.4856 C   0  0  0  0  0  0  0  0  0  0  0  0
  146.6039  136.6470  155.4265 O   0  0  0  0  0  0  0  0  0  0  0  0
  147.1844  136.0086  153.3278 N   0  0  0  0  0  0  0  0  0  0  0  0
  145.9536  135.2972  152.9925 C   0  0  1  0  0  0  0  0  0  0  0  0
  145.1159  136.0342  151.9332 C   0  0  0  0  0  0  0  0  0  0  0  0
  144.7708  134.9495  150.9298 C   0  0  0  0  0  0  0  0  0  0  0  0
  143.9747  135.1286  150.0091 O   0  0  0  0  0  0  0  0  0  0  0  0
  145.4284  133.8149  151.1936 N   0  0  0  0  0  0  0  0  0  0  0  0
  145.2235  132.5727  150.5079 C   0  0  0  0  0  0  0  0  0  0  0  0
  144.4561  132.5168  149.2008 C   0  0  0  0  0  0  0  0  0  0  0  0
  143.8251  132.0000  150.4705 C   0  0  0  0  0  0  0  0  0  0  0  0
  146.2616  133.9171  152.3842 C   0  0  0  0  0  0  0  0  0  0  0  0
  150.2132  141.4456  155.7042 C   0  0  0  0  0  0  0  0  0  0  0  0
  150.5582  142.4999  156.4752 N   0  3  0  0  0  0  0  0  0  0  0  0
  152.2079  143.4056  159.2696 H   0  0  0  0  0  0  0  0  0  0  0  0
  150.7247  144.1548  158.6699 H   0  0  0  0  0  0  0  0  0  0  0  0
  152.2307  144.3120  157.7541 H   0  0  0  0  0  0  0  0  0  0  0  0
  152.3372  140.9862  158.9024 H   0  0  0  0  0  0  0  0  0  0  0  0
  151.7519  138.9949  157.5222 H   0  0  0  0  0  0  0  0  0  0  0  0
  150.2779  139.3000  154.1236 H   0  0  0  0  0  0  0  0  0  0  0  0
  151.1381  138.2476  155.2141 H   0  0  0  0  0  0  0  0  0  0  0  0
  149.1168  137.6913  156.4435 H   0  0  0  0  0  0  0  0  0  0  0  0
  148.2157  138.9967  155.7224 H   0  0  0  0  0  0  0  0  0  0  0  0
  149.1384  137.2623  153.6555 H   0  0  0  0  0  0  0  0  0  0  0  0
  147.8938  136.0612  152.6112 H   0  0  0  0  0  0  0  0  0  0  0  0
  145.3560  135.1620  153.8963 H   0  0  0  0  0  0  0  0  0  0  0  0
  144.2159  136.4783  152.3601 H   0  0  0  0  0  0  0  0  0  0  0  0
  145.6801  136.8173  151.4251 H   0  0  0  0  0  0  0  0  0  0  0  0
  146.0324  131.8492  150.5986 H   0  0  0  0  0  0  0  0  0  0  0  0
  144.0408  133.4313  148.7830 H   0  0  0  0  0  0  0  0  0  0  0  0
  144.7747  131.7798  148.4665 H   0  0  0  0  0  0  0  0  0  0  0  0
  143.7226  130.9224  150.5804 H   0  0  0  0  0  0  0  0  0  0  0  0
  143.0225  132.5912  150.9073 H   0  0  0  0  0  0  0  0  0  0  0  0
  147.3093  133.8254  152.0920 H   0  0  0  0  0  0  0  0  0  0  0  0
  146.0359  133.1180  153.0917 H   0  0  0  0  0  0  0  0  0  0  0  0
  149.6343  141.6752  154.8215 H   0  0  0  0  0  0  0  0  0  0  0  0
  150.2515  143.4309  156.1920 H   0  0  0  0  0  0  0  0  0  0  0  0
  1  2  1  0  0  0  0
  1 23  1  0  0  0  0
  1 24  1  0  0  0  0
  1 25  1  0  0  0  0
  2 22  1  0  0  0  0
  2  3  2  0  0  0  0
  3  4  1  0  0  0  0
  3 26  1  0  0  0  0
  4  5  2  0  0  0  0
  4 27  1  0  0  0  0
  5  6  1  0  0  0  0
  5 21  1  0  0  0  0
  6  7  1  0  0  0  0
  6 28  1  0  0  0  0
  6 29  1  0  0  0  0
  7  8  1  0  0  0  0
  7 30  1  0  0  0  0
  7 31  1  0  0  0  0
  8  9  1  0  0  0  0
  8 32  1  0  0  0  0
  9 10  2  0  0  0  0
  9 11  1  0  0  0  0
 11 12  1  0  0  0  0
 11 33  1  0  0  0  0
 12 20  1  0  0  0  0
 12 13  1  0  0  0  0
 12 34  1  0  0  0  0
 13 14  1  0  0  0  0
 13 35  1  0  0  0  0
 13 36  1  0  0  0  0
 14 15  2  0  0  0  0
 14 16  1  0  0  0  0
 16 17  1  0  0  0  0
 16 20  1  0  0  0  0
 17 19  1  0  0  0  0
 17 18  1  0  0  0  0
 17 37  1  0  0  0  0
 18 19  1  0  0  0  0
 18 38  1  0  0  0  0
 18 39  1  0  0  0  0
 19 40  1  0  0  0  0
 19 41  1  0  0  0  0
 20 42  1  0  0  0  0
 20 43  1  0  0  0  0
 21 22  2  0  0  0  0
 21 44  1  0  0  0  0
 22 45  1  0  0  0  0
M  CHG  1  22   1
M  END
> <s_m_source_file>
AV-unprocessed.smi

> <i_m_source_file_index>
864

> <i_lp_mmshare_version>
43012

> <i_f3d_flags>
0

> <s_epik_input>
W0NIM11jMVtjSF1bY0hdYyhbY0hdbjEpW0NIMl1bQ0gyXVtOSF1DKD1PKVtOSF1bQ0BASF0yW0NIMl1DKD1PKU4oW0NIMl0yKVtDSF0zW0NIMl1bQ0gyXTM=

> <s_epik_cmdline>
J2VwaWtfcHl0aG9uJywgJy1waCcsICc3LjAnLCAnLXRuJywgJzgnLCAnLW1hJywgJzIwMCcsICctbWV0YWxfYmluZGluZycsICctaW1hZScsICc8aW5maWxlLm1hZT4nLCAnLW9tYWUnLCAnPG91dGZpbGUubWFlPic=

> <r_epik_Ionization_Penalty>
1.42657

> <r_epik_Ionization_Penalty_Charging>
1.42653

> <r_epik_Ionization_Penalty_Neutral>
4.57062e-05

> <r_epik_State_Penalty>
1.51075

> <r_epik_Charging_Adjusted_Penalty>
2.93728

> <i_epik_Tot_Q>
1

> <i_epik_Tot_abs_Q>
1

> <r_epik_Metal_State_Penalty>
1.56242

> <b_epik_Metal_Only>
0

> <s_lp_Force_Field>
OPLS_2005

> <r_lp_Energy>
39.135

> <b_lp_Chiralities_Consistent>
1

> <s_lp_Variant>
AV-unprocessed.smi:864-4

> <Gold.Version>
5.8.1

> <Gold.Id.Protein>
6NUR|6NUR_protein|mol2

> <Gold.PLP.Fitness>
46.2873

> <Gold.PLP.PLP>
-38.0802

> <Gold.PLP.part.hbond>
-2.3082

> <Gold.PLP.part.metal>
0.0000

> <Gold.PLP.part.buried>
-6.4432

> <Gold.PLP.part.nonpolar>
-32.0609

> <Gold.PLP.part.repulsive>
0.8452

> <Gold.PLP.ligand.clash>
0.0000

> <Gold.PLP.ligand.torsion>
0.6934

> <Gold.PLP.Chemscore.Hbond>
3.1396

> <Gold.PLP.Chemscore.CHOScore>
0.0000

> <Gold.PLP.Chemscore.Metal>
0.0000

> <Gold.Chemscore.Hbonds>
donor molecule, donor type, donor heavy atom, donor atom, acceptor molecule, acceptor atom, score
      L1  H     8    32       P1  7948  0.64
      L1  H    11    33       P1  7948  0.42
      L1  H    22    45       P1  8028  2.00

> <Gold.PLP.Chemscore.Internal.Correction>
0.1751

> <Gold.Rescore>
     Score         DG    S(hbond)    S(metal)    S(lipo)     H(rot)  DE(clash)    DE(int)     intcor
     17.85     -20.24       2.57        0.00      93.06       1.84       0.26       2.13       ----

> <Gold.Chemscore.Fitness>
17.8474

> <Gold.Chemscore.DG>
-20.2385

> <Gold.Chemscore.ZeroCoef>
-5.4800

> <Gold.Chemscore.Hbond>
2.5677

> <Gold.Chemscore.Metal>
0.0000

> <Gold.Chemscore.Lipo>
93.0586

> <Gold.Chemscore.Internal_Hbond>
0.0000

> <Gold.Chemscore.DEClash>
0.2595

> <Gold.Chemscore.DEInternal>
2.1315

> <Gold.Chemscore.Rot>
1.8381

> <Gold.Chemscore.Internal.Correction>
   9.000000E+99

> <Gold.Chemscore.Hbonds>
donor molecule, donor type, donor heavy atom, donor atom, acceptor molecule, acceptor atom, score
      L1  H     8    32       P1  7948  0.60
      L1  H    11    33       P1  7948  0.44
      L1  H    22    45       P1  8028  0.97

> <Gold.Chemscore.Hbond.Weighted>
-8.5761

> <Gold.Chemscore.Metal.Weighted>
-0.0000

> <Gold.Chemscore.Lipo.Weighted>
-10.8879

> <Gold.Chemscore.Internal_Hbond.Weighted>
0.0000

> <Gold.Chemscore.DEClash.Weighted>
0.2595

> <Gold.Chemscore.DEInternal.Weighted>
2.1315

> <Gold.Chemscore.Rot.Weighted>
4.7054

> <Gold.Chemscore.Internal.Correction.Weighted>
   9.000000E+99

> <Gold.Protein.RotatedTorsions>
[ 6907 6896 6895 6894 ] final  -21.06 input  -60.11 | X-H torsion
[ 7974 7965 7964 7962 ] final -178.24 input  175.53 | X-H torsion
[ 8008 7997 7996 7995 ] final  114.14 input   59.86 | X-H torsion
[ 10167 10162 10161 10158 ] final  -73.77 input  -65.29 | X-H torsion
[ 10718 10713 10712 10709 ] final   93.76 input   66.30 | X-H torsion
[ 10763 10752 10751 10750 ] final  146.86 input  -60.55 | X-H torsion
[ 11005 11000 10999 10996 ] final  -24.73 input  -57.11 | X-H torsion

> <Gold.Protein.ActiveResidues>
 VAL166  LYS551  ARG553  GLY616  TRP617  ASP618  TYR619  PRO620  LYS621  CYS622 
 ASP623  PHE694  ASN695  SER759  ASP760  ASP761  ALA762  ILE779  LEU786  VAL792 
 PHE793  MET794  SER795  GLU796  ALA797  LYS798  CYS799  TRP800  GLU811  SER814 

> <Gold.Protein.RotatedAtoms>
  151.2390  135.0582  159.9017 H   0  0  0  0  0  0  0  0  0  0  0  0  # atno 6907 bound_to 6896
  152.5395  134.0455  159.8097 H   0  0  0  0  0  0  0  0  0  0  0  0  # atno 6908 bound_to 6896
  151.0646  133.5467  159.2663 H   0  0  0  0  0  0  0  0  0  0  0  0  # atno 6909 bound_to 6896
  144.7130  140.0898  143.6422 H   0  0  0  0  0  0  0  0  0  0  0  0  # atno 7974 bound_to 7965
  156.2302  140.2965  156.0169 H   0  0  0  0  0  0  0  0  0  0  0  0  # atno 8008 bound_to 7997
  155.2245  140.0417  157.2970 H   0  0  0  0  0  0  0  0  0  0  0  0  # atno 8009 bound_to 7997
  154.5983  140.2420  155.7834 H   0  0  0  0  0  0  0  0  0  0  0  0  # atno 8010 bound_to 7997
  140.5083  143.2349  151.7637 H   0  0  0  0  0  0  0  0  0  0  0  0  # atno 10167 bound_to 10162
  157.6952  131.0489  150.4082 H   0  0  0  0  0  0  0  0  0  0  0  0  # atno 10718 bound_to 10713
  154.0289  135.2899  155.3371 H   0  0  0  0  0  0  0  0  0  0  0  0  # atno 10763 bound_to 10752
  154.7000  135.5192  153.8516 H   0  0  0  0  0  0  0  0  0  0  0  0  # atno 10764 bound_to 10752
  153.0649  135.6627  154.0504 H   0  0  0  0  0  0  0  0  0  0  0  0  # atno 10765 bound_to 10752
  140.8872  133.7613  156.0376 H   0  0  0  0  0  0  0  0  0  0  0  0  # atno 11005 bound_to 11000
  145.9630  139.2814  143.1144 LP  0  0  0  0  0  0  0  0  0  0  0  0  # atno 17320 bound_to 7965
  145.9200  140.9122  143.0410 LP  0  0  0  0  0  0  0  0  0  0  0  0  # atno 17321 bound_to 7965
  139.4889  144.4427  151.9746 LP  0  0  0  0  0  0  0  0  0  0  0  0  # atno 17342 bound_to 10162
  140.3518  144.3080  150.5948 LP  0  0  0  0  0  0  0  0  0  0  0  0  # atno 17343 bound_to 10162
  156.4469  130.4003  149.6661 LP  0  0  0  0  0  0  0  0  0  0  0  0  # atno 17370 bound_to 10713
  156.3824  130.7586  151.2580 LP  0  0  0  0  0  0  0  0  0  0  0  0  # atno 17371 bound_to 10713
  140.8390  134.3089  157.5320 LP  0  0  0  0  0  0  0  0  0  0  0  0  # atno 17394 bound_to 11000
  139.8725  134.9405  156.3772 LP  0  0  0  0  0  0  0  0  0  0  0  0  # atno 17395 bound_to 11000

$$$$
