AV-unprocessed.smi:980|AV-procd|sdf|4312|dock9
  -GOLD-   22720 2223D 1   1.00000     0.00000
 Structure written by MMmdl.
 44 45  0  0  0  0  0  0  0  0  1 V2000
  152.5613  144.6615  158.0689 C   0  0  0  0  0  0  0  0  0  0  0  0
  151.7364  144.2955  159.3214 C   0  0  0  0  0  0  0  0  0  0  0  0
  151.4770  145.5913  160.1150 C   0  0  0  0  0  0  0  0  0  0  0  0
  150.3985  143.6922  158.8499 C   0  0  0  0  0  0  0  0  0  0  0  0
  152.4748  143.2960  160.1898 C   0  0  0  0  0  0  0  0  0  0  0  0
  152.8039  143.4080  161.5218 C   0  0  0  0  0  0  0  0  0  0  0  0
  153.6749  142.0184  162.1086 S   0  0  0  0  0  0  0  0  0  0  0  0
  153.5494  141.3048  160.5085 C   0  0  0  0  0  0  0  0  0  0  0  0
  154.1475  139.9858  160.1519 C   0  0  0  0  0  0  0  0  0  0  0  0
  153.1158  138.8471  160.1983 C   0  0  0  0  0  0  0  0  0  0  0  0
  152.1047  138.9868  159.1570 N   0  0  0  0  0  0  0  0  0  0  0  0
  152.3261  138.8505  157.8404 C   0  0  0  0  0  0  0  0  0  0  0  0
  153.4342  138.6010  157.3647 O   0  0  0  0  0  0  0  0  0  0  0  0
  151.1081  139.0154  156.9214 C   0  0  1  0  0  0  0  0  0  0  0  0
  150.5878  140.4709  156.9343 C   0  0  0  0  0  0  0  0  0  0  0  0
  149.5498  140.7164  155.8530 C   0  0  0  0  0  0  0  0  0  0  0  0
  149.3614  139.8921  154.8081 C   0  0  0  0  0  0  0  0  0  0  0  0
  150.1694  138.6257  154.5861 C   0  0  0  0  0  0  0  0  0  0  0  0
  151.4237  138.5706  155.4788 C   0  0  0  0  0  0  0  0  0  0  0  0
  152.9163  142.0881  159.6327 N   0  0  0  0  0  0  0  0  0  0  0  0
  152.0340  145.3820  157.4426 H   0  0  0  0  0  0  0  0  0  0  0  0
  152.7637  143.7850  157.4519 H   0  0  0  0  0  0  0  0  0  0  0  0
  153.5197  145.1078  158.3373 H   0  0  0  0  0  0  0  0  0  0  0  0
  152.4105  146.0391  160.4583 H   0  0  0  0  0  0  0  0  0  0  0  0
  150.8584  145.4080  160.9943 H   0  0  0  0  0  0  0  0  0  0  0  0
  150.9602  146.3339  159.5060 H   0  0  0  0  0  0  0  0  0  0  0  0
  149.8525  144.3861  158.2099 H   0  0  0  0  0  0  0  0  0  0  0  0
  149.7487  143.4482  159.6910 H   0  0  0  0  0  0  0  0  0  0  0  0
  150.5565  142.7753  158.2808 H   0  0  0  0  0  0  0  0  0  0  0  0
  152.5948  144.2245  162.1966 H   0  0  0  0  0  0  0  0  0  0  0  0
  154.5791  140.0606  159.1532 H   0  0  0  0  0  0  0  0  0  0  0  0
  154.9736  139.7829  160.8347 H   0  0  0  0  0  0  0  0  0  0  0  0
  153.6111  137.8785  160.1102 H   0  0  0  0  0  0  0  0  0  0  0  0
  152.6062  138.8486  161.1622 H   0  0  0  0  0  0  0  0  0  0  0  0
  151.1634  139.1903  159.4602 H   0  0  0  0  0  0  0  0  0  0  0  0
  150.3109  138.3702  157.2959 H   0  0  0  0  0  0  0  0  0  0  0  0
  150.1388  140.6930  157.9031 H   0  0  0  0  0  0  0  0  0  0  0  0
  151.3999  141.1851  156.7899 H   0  0  0  0  0  0  0  0  0  0  0  0
  148.9522  141.6115  155.9450 H   0  0  0  0  0  0  0  0  0  0  0  0
  148.5952  140.1146  154.0799 H   0  0  0  0  0  0  0  0  0  0  0  0
  149.5227  137.7724  154.7922 H   0  0  0  0  0  0  0  0  0  0  0  0
  150.4568  138.5608  153.5364 H   0  0  0  0  0  0  0  0  0  0  0  0
  152.1896  139.2232  155.0560 H   0  0  0  0  0  0  0  0  0  0  0  0
  151.8388  137.5617  155.4655 H   0  0  0  0  0  0  0  0  0  0  0  0
  1  2  1  0  0  0  0
  1 21  1  0  0  0  0
  1 22  1  0  0  0  0
  1 23  1  0  0  0  0
  2  3  1  0  0  0  0
  2  4  1  0  0  0  0
  2  5  1  0  0  0  0
  3 24  1  0  0  0  0
  3 25  1  0  0  0  0
  3 26  1  0  0  0  0
  4 27  1  0  0  0  0
  4 28  1  0  0  0  0
  4 29  1  0  0  0  0
  5 20  1  0  0  0  0
  5  6  2  0  0  0  0
  6  7  1  0  0  0  0
  6 30  1  0  0  0  0
  7  8  1  0  0  0  0
  8  9  1  0  0  0  0
  8 20  2  0  0  0  0
  9 10  1  0  0  0  0
  9 31  1  0  0  0  0
  9 32  1  0  0  0  0
 10 11  1  0  0  0  0
 10 33  1  0  0  0  0
 10 34  1  0  0  0  0
 11 12  1  0  0  0  0
 11 35  1  0  0  0  0
 12 13  2  0  0  0  0
 12 14  1  0  0  0  0
 14 19  1  0  0  0  0
 14 15  1  0  0  0  0
 14 36  1  0  0  0  0
 15 16  1  0  0  0  0
 15 37  1  0  0  0  0
 15 38  1  0  0  0  0
 16 17  2  0  0  0  0
 16 39  1  0  0  0  0
 17 18  1  0  0  0  0
 17 40  1  0  0  0  0
 18 19  1  0  0  0  0
 18 41  1  0  0  0  0
 18 42  1  0  0  0  0
 19 43  1  0  0  0  0
 19 44  1  0  0  0  0
M  END
> <s_m_source_file>
AV-unprocessed.smi

> <i_m_source_file_index>
980

> <i_lp_mmshare_version>
43012

> <i_f3d_flags>
0

> <s_epik_input>
W0NIM11DKFtDSDNdKShbQ0gzXSljMVtjSF1zYyhuMSlbQ0gyXVtDSDJdW05IXUMoPU8pW0NAQEhdMltDSDJdW0NIXT1bQ0hdW0NIMl1bQ0gyXTI=

> <s_epik_cmdline>
J2VwaWtfcHl0aG9uJywgJy1waCcsICc3LjAnLCAnLXRuJywgJzgnLCAnLW1hJywgJzIwMCcsICctbWV0YWxfYmluZGluZycsICctaW1hZScsICc8aW5maWxlLm1hZT4nLCAnLW9tYWUnLCAnPG91dGZpbGUubWFlPic=

> <r_epik_Ionization_Penalty>
0.000809238

> <r_epik_Ionization_Penalty_Charging>
0

> <r_epik_Ionization_Penalty_Neutral>
0.000809238

> <r_epik_State_Penalty>
0.000520038

> <r_epik_Charging_Adjusted_Penalty>
0.000520038

> <i_epik_Tot_Q>
0

> <i_epik_Tot_abs_Q>
0

> <r_epik_Metal_State_Penalty>
-0

> <b_epik_Metal_Only>
0

> <s_lp_Force_Field>
OPLS_2005

> <r_lp_Energy>
-0.741004

> <b_lp_Chiralities_Consistent>
1

> <s_lp_Variant>
AV-unprocessed.smi:980-2

> <Gold.Version>
5.8.1

> <Gold.Id.Protein>
6NUR|6NUR_protein|mol2

> <Gold.PLP.Fitness>
52.5096

> <Gold.PLP.PLP>
-50.6980

> <Gold.PLP.part.hbond>
-0.9762

> <Gold.PLP.part.metal>
0.0000

> <Gold.PLP.part.buried>
-5.3807

> <Gold.PLP.part.nonpolar>
-44.1714

> <Gold.PLP.part.repulsive>
0.0901

> <Gold.PLP.ligand.clash>
0.0000

> <Gold.PLP.ligand.torsion>
0.5984

> <Gold.PLP.Chemscore.Hbond>
0.9920

> <Gold.PLP.Chemscore.CHOScore>
0.0000

> <Gold.PLP.Chemscore.Metal>
0.0000

> <Gold.Chemscore.Hbonds>
donor molecule, donor type, donor heavy atom, donor atom, acceptor molecule, acceptor atom, score
      P1  H  7997  8008       L1    13  1.00

> <Gold.PLP.Chemscore.Internal.Correction>
0.0324

> <Gold.Rescore>
     Score         DG    S(hbond)    S(metal)    S(lipo)     H(rot)  DE(clash)    DE(int)     intcor
     22.05     -22.82       0.93        0.00     152.39       1.41       0.36       0.40       ----

> <Gold.Chemscore.Fitness>
22.0540

> <Gold.Chemscore.DG>
-22.8226

> <Gold.Chemscore.ZeroCoef>
-5.4800

> <Gold.Chemscore.Hbond>
0.9345

> <Gold.Chemscore.Metal>
0.0000

> <Gold.Chemscore.Lipo>
152.3939

> <Gold.Chemscore.Internal_Hbond>
0.0000

> <Gold.Chemscore.DEClash>
0.3638

> <Gold.Chemscore.DEInternal>
0.4048

> <Gold.Chemscore.Rot>
1.4097

> <Gold.Chemscore.Internal.Correction>
   9.000000E+99

> <Gold.Chemscore.Hbonds>
donor molecule, donor type, donor heavy atom, donor atom, acceptor molecule, acceptor atom, score
      P1  H  7997  8008       L1    13  0.94

> <Gold.Chemscore.Hbond.Weighted>
-3.1213

> <Gold.Chemscore.Metal.Weighted>
-0.0000

> <Gold.Chemscore.Lipo.Weighted>
-17.8301

> <Gold.Chemscore.Internal_Hbond.Weighted>
0.0000

> <Gold.Chemscore.DEClash.Weighted>
0.3638

> <Gold.Chemscore.DEInternal.Weighted>
0.4048

> <Gold.Chemscore.Rot.Weighted>
3.6087

> <Gold.Chemscore.Internal.Correction.Weighted>
   9.000000E+99

> <Gold.Protein.RotatedTorsions>
[ 6907 6896 6895 6894 ] final  -53.88 input  -60.11 | X-H torsion
[ 7974 7965 7964 7962 ] final -104.11 input  175.53 | X-H torsion
[ 8008 7997 7996 7995 ] final  -78.88 input   59.86 | X-H torsion
[ 10167 10162 10161 10158 ] final   99.80 input  -65.29 | X-H torsion
[ 10718 10713 10712 10709 ] final  -10.71 input   66.30 | X-H torsion
[ 10763 10752 10751 10750 ] final  139.35 input  -60.55 | X-H torsion
[ 11005 11000 10999 10996 ] final  -60.99 input  -57.11 | X-H torsion

> <Gold.Protein.ActiveResidues>
 VAL166  LYS551  ARG553  GLY616  TRP617  ASP618  TYR619  PRO620  LYS621  CYS622 
 ASP623  PHE694  ASN695  SER759  ASP760  ASP761  ALA762  ILE779  LEU786  VAL792 
 PHE793  MET794  SER795  GLU796  ALA797  LYS798  CYS799  TRP800  GLU811  SER814 

> <Gold.Protein.RotatedAtoms>
  150.8387  134.7670  159.6913 H   0  0  0  0  0  0  0  0  0  0  0  0  # atno 6907 bound_to 6896
  152.4479  134.5453  159.9861 H   0  0  0  0  0  0  0  0  0  0  0  0  # atno 6908 bound_to 6896
  151.5598  133.3367  159.3004 H   0  0  0  0  0  0  0  0  0  0  0  0  # atno 6909 bound_to 6896
  145.2473  140.9226  143.3115 H   0  0  0  0  0  0  0  0  0  0  0  0  # atno 7974 bound_to 7965
  154.5731  140.0687  156.8994 H   0  0  0  0  0  0  0  0  0  0  0  0  # atno 8008 bound_to 7997
  155.2597  140.3357  155.4256 H   0  0  0  0  0  0  0  0  0  0  0  0  # atno 8009 bound_to 7997
  156.2134  140.1768  156.7630 H   0  0  0  0  0  0  0  0  0  0  0  0  # atno 8010 bound_to 7997
  139.7585  144.6962  151.0327 H   0  0  0  0  0  0  0  0  0  0  0  0  # atno 10167 bound_to 10162
  156.6695  130.5005  149.6005 H   0  0  0  0  0  0  0  0  0  0  0  0  # atno 10718 bound_to 10713
  153.9047  135.3018  155.3448 H   0  0  0  0  0  0  0  0  0  0  0  0  # atno 10763 bound_to 10752
  154.7653  135.4913  153.9545 H   0  0  0  0  0  0  0  0  0  0  0  0  # atno 10764 bound_to 10752
  153.1225  135.6785  153.9412 H   0  0  0  0  0  0  0  0  0  0  0  0  # atno 10765 bound_to 10752
  141.1308  133.6626  156.5308 H   0  0  0  0  0  0  0  0  0  0  0  0  # atno 11005 bound_to 11000
  144.9535  139.4057  143.6391 LP  0  0  0  0  0  0  0  0  0  0  0  0  # atno 17320 bound_to 7965
  146.3312  139.8553  142.8866 LP  0  0  0  0  0  0  0  0  0  0  0  0  # atno 17321 bound_to 7965
  140.7805  143.4725  151.0127 LP  0  0  0  0  0  0  0  0  0  0  0  0  # atno 17342 bound_to 10162
  139.8411  143.7562  152.3180 LP  0  0  0  0  0  0  0  0  0  0  0  0  # atno 17343 bound_to 10162
  156.1950  130.6583  151.1103 LP  0  0  0  0  0  0  0  0  0  0  0  0  # atno 17370 bound_to 10713
  157.7082  131.0746  150.6593 LP  0  0  0  0  0  0  0  0  0  0  0  0  # atno 17371 bound_to 10713
  140.4218  134.7181  157.4894 LP  0  0  0  0  0  0  0  0  0  0  0  0  # atno 17394 bound_to 11000
  140.0355  134.6344  155.9049 LP  0  0  0  0  0  0  0  0  0  0  0  0  # atno 17395 bound_to 11000

$$$$
