AV-unprocessed.smi:1275|AV-procd|sdf|5342|dock1
  -GOLD-   22720 4473D 1   1.00000     0.00000
 Structure written by MMmdl.
 42 43  0  0  0  0  0  0  0  0  1 V2000
  152.5622  143.9311  158.1496 C   0  0  0  0  0  0  0  0  0  0  0  0
  151.8893  142.8750  158.8118 O   0  0  0  0  0  0  0  0  0  0  0  0
  151.6664  141.7589  157.9663 C   0  0  0  0  0  0  0  0  0  0  0  0
  150.3990  141.9990  157.1410 C   0  0  0  0  0  0  0  0  0  0  0  0
  150.6019  141.4886  155.8266 O   0  0  0  0  0  0  0  0  0  0  0  0
  150.3659  140.1490  155.5960 C   0  0  0  0  0  0  0  0  0  0  0  0
  150.2806  139.2802  156.7020 C   0  0  0  0  0  0  0  0  0  0  0  0
  150.0331  137.9126  156.4769 C   0  0  0  0  0  0  0  0  0  0  0  0
  149.8703  137.4572  155.1470 C   0  0  0  0  0  0  0  0  0  0  0  0
  149.6350  136.1022  154.7898 N   0  0  0  0  0  0  0  0  0  0  0  0
  149.7021  135.0025  155.5659 C   0  0  0  0  0  0  0  0  0  0  0  0
  150.0084  135.0345  156.7581 O   0  0  0  0  0  0  0  0  0  0  0  0
  149.4066  133.8464  154.9191 N   0  0  0  0  0  0  0  0  0  0  0  0
  148.5368  133.6874  153.7444 C   0  0  0  0  0  0  0  0  0  0  0  0
  147.2652  132.9413  154.1859 C   0  0  0  0  0  0  0  0  0  0  0  0
  147.6206  131.6843  154.7574 O   0  0  0  0  0  0  0  0  0  0  0  0
  148.4947  131.7965  155.8797 C   0  0  1  0  0  0  0  0  0  0  0  0
  148.7808  130.3865  156.4076 C   0  0  0  0  0  0  0  0  0  0  0  0
  149.7800  132.5299  155.4450 C   0  0  0  0  0  0  0  0  0  0  0  0
  149.9935  138.4038  154.1094 C   0  0  0  0  0  0  0  0  0  0  0  0
  150.2282  139.7163  154.3182 N   0  0  0  0  0  0  0  0  0  0  0  0
  152.7104  144.7606  158.8406 H   0  0  0  0  0  0  0  0  0  0  0  0
  151.9820  144.2981  157.3021 H   0  0  0  0  0  0  0  0  0  0  0  0
  153.5419  143.6120  157.7917 H   0  0  0  0  0  0  0  0  0  0  0  0
  152.5217  141.5851  157.3116 H   0  0  0  0  0  0  0  0  0  0  0  0
  151.5360  140.8660  158.5794 H   0  0  0  0  0  0  0  0  0  0  0  0
  149.5644  141.4734  157.6078 H   0  0  0  0  0  0  0  0  0  0  0  0
  150.1579  143.0632  157.1228 H   0  0  0  0  0  0  0  0  0  0  0  0
  150.4058  139.6560  157.7067 H   0  0  0  0  0  0  0  0  0  0  0  0
  149.9872  137.2435  157.3219 H   0  0  0  0  0  0  0  0  0  0  0  0
  149.2995  135.9548  153.8490 H   0  0  0  0  0  0  0  0  0  0  0  0
  148.2618  134.6235  153.2594 H   0  0  0  0  0  0  0  0  0  0  0  0
  149.0635  133.1079  152.9849 H   0  0  0  0  0  0  0  0  0  0  0  0
  146.6970  133.5319  154.9061 H   0  0  0  0  0  0  0  0  0  0  0  0
  146.6134  132.7669  153.3300 H   0  0  0  0  0  0  0  0  0  0  0  0
  147.9934  132.3671  156.6635 H   0  0  0  0  0  0  0  0  0  0  0  0
  149.4373  130.4189  157.2775 H   0  0  0  0  0  0  0  0  0  0  0  0
  149.2616  129.7703  155.6475 H   0  0  0  0  0  0  0  0  0  0  0  0
  147.8585  129.8878  156.7064 H   0  0  0  0  0  0  0  0  0  0  0  0
  150.2970  131.9638  154.6687 H   0  0  0  0  0  0  0  0  0  0  0  0
  150.4765  132.5916  156.2823 H   0  0  0  0  0  0  0  0  0  0  0  0
  149.8935  138.1013  153.0771 H   0  0  0  0  0  0  0  0  0  0  0  0
  1  2  1  0  0  0  0
  1 22  1  0  0  0  0
  1 23  1  0  0  0  0
  1 24  1  0  0  0  0
  2  3  1  0  0  0  0
  3  4  1  0  0  0  0
  3 25  1  0  0  0  0
  3 26  1  0  0  0  0
  4  5  1  0  0  0  0
  4 27  1  0  0  0  0
  4 28  1  0  0  0  0
  5  6  1  0  0  0  0
  6 21  1  0  0  0  0
  6  7  2  0  0  0  0
  7  8  1  0  0  0  0
  7 29  1  0  0  0  0
  8  9  2  0  0  0  0
  8 30  1  0  0  0  0
  9 10  1  0  0  0  0
  9 20  1  0  0  0  0
 10 11  1  0  0  0  0
 10 31  1  0  0  0  0
 11 12  2  0  0  0  0
 11 13  1  0  0  0  0
 13 19  1  0  0  0  0
 13 14  1  0  0  0  0
 14 15  1  0  0  0  0
 14 32  1  0  0  0  0
 14 33  1  0  0  0  0
 15 16  1  0  0  0  0
 15 34  1  0  0  0  0
 15 35  1  0  0  0  0
 16 17  1  0  0  0  0
 17 18  1  0  0  0  0
 17 19  1  0  0  0  0
 17 36  1  0  0  0  0
 18 37  1  0  0  0  0
 18 38  1  0  0  0  0
 18 39  1  0  0  0  0
 19 40  1  0  0  0  0
 19 41  1  0  0  0  0
 20 21  2  0  0  0  0
 20 42  1  0  0  0  0
M  END
> <s_m_source_file>
AV-unprocessed.smi

> <i_m_source_file_index>
1275

> <i_lp_mmshare_version>
43012

> <i_f3d_flags>
0

> <s_epik_input>
W0NIM11PW0NIMl1bQ0gyXU9jMVtjSF1bY0hdYyhbY0hdbjEpW05IXUMoPU8pTjJbQ0gyXVtDSDJdT1tDQEBIXShbQ0gzXSlbQ0gyXTI=

> <s_epik_cmdline>
J2VwaWtfcHl0aG9uJywgJy1waCcsICc3LjAnLCAnLXRuJywgJzgnLCAnLW1hJywgJzIwMCcsICctbWV0YWxfYmluZGluZycsICctaW1hZScsICc8aW5maWxlLm1hZT4nLCAnLW9tYWUnLCAnPG91dGZpbGUubWFlPic=

> <r_lp_tautomer_probability>
1

> <r_epik_Ionization_Penalty>
5.69099e-05

> <r_epik_Ionization_Penalty_Charging>
0

> <r_epik_Ionization_Penalty_Neutral>
5.69099e-05

> <r_epik_State_Penalty>
-0

> <r_epik_Charging_Adjusted_Penalty>
0

> <i_epik_Tot_Q>
0

> <i_epik_Tot_abs_Q>
0

> <r_epik_Metal_State_Penalty>
-0

> <b_epik_Metal_Only>
0

> <s_lp_Force_Field>
OPLS_2005

> <r_lp_Energy>
32.9839

> <b_lp_Chiralities_Consistent>
1

> <s_lp_Variant>
AV-unprocessed.smi:1275-1

> <Gold.Version>
5.8.1

> <Gold.Id.Protein>
6NUR|6NUR_protein|mol2

> <Gold.PLP.Fitness>
38.9375

> <Gold.PLP.PLP>
-30.1157

> <Gold.PLP.part.hbond>
-2.0123

> <Gold.PLP.part.metal>
0.0000

> <Gold.PLP.part.buried>
-4.6024

> <Gold.PLP.part.nonpolar>
-24.6227

> <Gold.PLP.part.repulsive>
0.3097

> <Gold.PLP.ligand.clash>
0.0000

> <Gold.PLP.ligand.torsion>
0.9917

> <Gold.PLP.Chemscore.Hbond>
2.0000

> <Gold.PLP.Chemscore.CHOScore>
1.5379

> <Gold.PLP.Chemscore.Metal>
0.0000

> <Gold.Chemscore.Hbonds>
donor molecule, donor type, donor heavy atom, donor atom, acceptor molecule, acceptor atom, score
      L1  H    10    31       P1  7948  1.00
      P1  H  7989  7998       L1    21  0.90
      L1  C    20    42       P1  7948  1.00
      L1  C    20    42       P1  7957  0.42

> <Gold.PLP.Chemscore.Internal.Correction>
0.1914

> <Gold.Rescore>
     Score         DG    S(hbond)    S(metal)    S(lipo)     H(rot)  DE(clash)    DE(int)     intcor
     11.79     -15.09       1.83        0.00      65.21       1.62       1.24       2.06       ----

> <Gold.Chemscore.Fitness>
11.7858

> <Gold.Chemscore.DG>
-15.0882

> <Gold.Chemscore.ZeroCoef>
-5.4800

> <Gold.Chemscore.Hbond>
1.8324

> <Gold.Chemscore.Metal>
0.0000

> <Gold.Chemscore.Lipo>
65.2103

> <Gold.Chemscore.Internal_Hbond>
0.0000

> <Gold.Chemscore.DEClash>
1.2422

> <Gold.Chemscore.DEInternal>
2.0602

> <Gold.Chemscore.Rot>
1.6178

> <Gold.Chemscore.Internal.Correction>
   9.000000E+99

> <Gold.Chemscore.Hbonds>
donor molecule, donor type, donor heavy atom, donor atom, acceptor molecule, acceptor atom, score
      L1  H    10    31       P1  7948  0.71
      P1  H  7989  7998       L1    21  0.17

> <Gold.Chemscore.Hbond.Weighted>
-6.1202

> <Gold.Chemscore.Metal.Weighted>
-0.0000

> <Gold.Chemscore.Lipo.Weighted>
-7.6296

> <Gold.Chemscore.Internal_Hbond.Weighted>
0.0000

> <Gold.Chemscore.DEClash.Weighted>
1.2422

> <Gold.Chemscore.DEInternal.Weighted>
2.0602

> <Gold.Chemscore.Rot.Weighted>
4.1416

> <Gold.Chemscore.Internal.Correction.Weighted>
   9.000000E+99

> <Gold.Protein.RotatedTorsions>
[ 6907 6896 6895 6894 ] final   33.12 input  -60.11 | X-H torsion
[ 7974 7965 7964 7962 ] final   56.78 input  175.53 | X-H torsion
[ 8008 7997 7996 7995 ] final   16.49 input   59.86 | X-H torsion
[ 10167 10162 10161 10158 ] final  112.25 input  -65.29 | X-H torsion
[ 10718 10713 10712 10709 ] final  171.35 input   66.30 | X-H torsion
[ 10763 10752 10751 10750 ] final  152.52 input  -60.55 | X-H torsion
[ 11005 11000 10999 10996 ] final  121.69 input  -57.11 | X-H torsion

> <Gold.Protein.ActiveResidues>
 VAL166  LYS551  ARG553  GLY616  TRP617  ASP618  TYR619  PRO620  LYS621  CYS622 
 ASP623  PHE694  ASN695  SER759  ASP760  ASP761  ALA762  ILE779  LEU786  VAL792 
 PHE793  MET794  SER795  GLU796  ALA797  LYS798  CYS799  TRP800  GLU811  SER814 

> <Gold.Protein.RotatedAtoms>
  152.0840  134.9452  160.0572 H   0  0  0  0  0  0  0  0  0  0  0  0  # atno 6907 bound_to 6896
  152.0729  133.4111  159.4475 H   0  0  0  0  0  0  0  0  0  0  0  0  # atno 6908 bound_to 6896
  150.6836  134.2990  159.4742 H   0  0  0  0  0  0  0  0  0  0  0  0  # atno 6909 bound_to 6896
  145.9361  139.3848  143.0392 H   0  0  0  0  0  0  0  0  0  0  0  0  # atno 7974 bound_to 7965
  154.8777  140.2968  155.5443 H   0  0  0  0  0  0  0  0  0  0  0  0  # atno 8008 bound_to 7997
  156.3022  140.2448  156.3709 H   0  0  0  0  0  0  0  0  0  0  0  0  # atno 8009 bound_to 7997
  154.8749  140.0400  157.1736 H   0  0  0  0  0  0  0  0  0  0  0  0  # atno 8010 bound_to 7997
  139.6550  144.7129  151.1975 H   0  0  0  0  0  0  0  0  0  0  0  0  # atno 10167 bound_to 10162
  156.9948  131.0158  151.2847 H   0  0  0  0  0  0  0  0  0  0  0  0  # atno 10718 bound_to 10713
  154.1214  135.2832  155.3207 H   0  0  0  0  0  0  0  0  0  0  0  0  # atno 10763 bound_to 10752
  154.6420  135.5399  153.7804 H   0  0  0  0  0  0  0  0  0  0  0  0  # atno 10764 bound_to 10752
  153.0311  135.6489  154.1368 H   0  0  0  0  0  0  0  0  0  0  0  0  # atno 10765 bound_to 10752
  139.9236  134.9639  156.7996 H   0  0  0  0  0  0  0  0  0  0  0  0  # atno 11005 bound_to 11000
  145.8362  140.9605  143.0823 LP  0  0  0  0  0  0  0  0  0  0  0  0  # atno 17320 bound_to 7965
  144.6772  140.0225  143.7483 LP  0  0  0  0  0  0  0  0  0  0  0  0  # atno 17321 bound_to 7965
  140.7555  143.6088  150.8626 LP  0  0  0  0  0  0  0  0  0  0  0  0  # atno 17342 bound_to 10162
  139.9740  143.6025  152.2964 LP  0  0  0  0  0  0  0  0  0  0  0  0  # atno 17343 bound_to 10162
  157.5433  130.8134  149.8055 LP  0  0  0  0  0  0  0  0  0  0  0  0  # atno 17370 bound_to 10713
  156.0193  130.3801  150.2011 LP  0  0  0  0  0  0  0  0  0  0  0  0  # atno 17371 bound_to 10713
  140.6401  133.9826  155.7703 LP  0  0  0  0  0  0  0  0  0  0  0  0  # atno 17394 bound_to 11000
  141.0777  134.0110  157.3433 LP  0  0  0  0  0  0  0  0  0  0  0  0  # atno 17395 bound_to 11000

$$$$
