AV-unprocessed.smi:1916|AV-procd|sdf|7766|dock8
  -GOLD-   22720 9513D 1   1.00000     0.00000
 Structure written by MMmdl.
 46 48  0  0  0  0  0  0  0  0  2 V2000
  148.2773  138.7524  155.7702 O   0  0  0  0  0  0  0  0  0  0  0  0
  148.6569  139.0174  154.6294 C   0  0  0  0  0  0  0  0  0  0  0  0
  147.9863  138.6549  153.5258 N   0  0  0  0  0  0  0  0  0  0  0  0
  146.7340  137.9040  153.5052 C   0  0  0  0  0  0  0  0  0  0  0  0
  146.1995  137.7088  152.0751 C   0  0  0  0  0  0  0  0  0  0  0  0
  145.7068  136.2999  151.7932 C   0  0  0  0  0  0  0  0  0  0  0  0
  144.3341  136.0046  151.6460 C   0  0  0  0  0  0  0  0  0  0  0  0
  143.9395  134.6790  151.3692 C   0  0  0  0  0  0  0  0  0  0  0  0
  144.9247  133.6776  151.2445 C   0  0  0  0  0  0  0  0  0  0  0  0
  146.2814  134.0275  151.4001 C   0  0  0  0  0  0  0  0  0  0  0  0
  146.6194  135.3090  151.6639 N   0  3  0  0  0  0  0  0  0  0  0  0
  149.9601  139.8028  154.4104 C   0  0  2  0  0  0  0  0  0  0  0  0
  151.1537  139.1096  155.0899 C   0  0  0  0  0  0  0  0  0  0  0  0
  151.5142  140.0398  156.2354 C   0  0  0  0  0  0  0  0  0  0  0  0
  152.3285  139.7279  157.1029 O   0  0  0  0  0  0  0  0  0  0  0  0
  150.8240  141.1877  156.1741 N   0  0  0  0  0  0  0  0  0  0  0  0
  150.8597  142.2474  157.1973 C   0  0  0  0  0  0  0  0  0  0  0  0
  151.8922  143.3645  156.9500 C   0  0  0  0  0  0  0  0  0  0  0  0
  152.2122  143.9036  158.3408 C   0  0  0  0  0  0  0  0  0  0  0  0
  152.2265  142.6564  159.2208 C   0  0  0  0  0  0  0  0  0  0  0  0
  151.1773  141.7158  158.6144 C   0  0  0  0  0  0  0  0  0  0  0  0
  149.9136  141.2142  155.0337 C   0  0  0  0  0  0  0  0  0  0  0  0
  148.3691  138.9286  152.6327 H   0  0  0  0  0  0  0  0  0  0  0  0
  146.8482  136.9274  153.9786 H   0  0  0  0  0  0  0  0  0  0  0  0
  146.0030  138.4535  154.0994 H   0  0  0  0  0  0  0  0  0  0  0  0
  145.3849  138.4108  151.8907 H   0  0  0  0  0  0  0  0  0  0  0  0
  146.9802  137.9596  151.3560 H   0  0  0  0  0  0  0  0  0  0  0  0
  143.5916  136.7840  151.7405 H   0  0  0  0  0  0  0  0  0  0  0  0
  142.8938  134.4337  151.2524 H   0  0  0  0  0  0  0  0  0  0  0  0
  144.6436  132.6563  151.0326 H   0  0  0  0  0  0  0  0  0  0  0  0
  147.0998  133.3268  151.3218 H   0  0  0  0  0  0  0  0  0  0  0  0
  150.1476  139.8878  153.3386 H   0  0  0  0  0  0  0  0  0  0  0  0
  150.9267  138.1102  155.4654 H   0  0  0  0  0  0  0  0  0  0  0  0
  152.0015  139.0290  154.4090 H   0  0  0  0  0  0  0  0  0  0  0  0
  149.8730  142.7130  157.2255 H   0  0  0  0  0  0  0  0  0  0  0  0
  152.8155  142.9678  156.5272 H   0  0  0  0  0  0  0  0  0  0  0  0
  151.5214  144.1375  156.2761 H   0  0  0  0  0  0  0  0  0  0  0  0
  153.1538  144.4523  158.3738 H   0  0  0  0  0  0  0  0  0  0  0  0
  151.4196  144.5786  158.6666 H   0  0  0  0  0  0  0  0  0  0  0  0
  153.2098  142.1869  159.1694 H   0  0  0  0  0  0  0  0  0  0  0  0
  152.0260  142.8851  160.2680 H   0  0  0  0  0  0  0  0  0  0  0  0
  150.2704  141.7060  159.2201 H   0  0  0  0  0  0  0  0  0  0  0  0
  151.5634  140.6956  158.5997 H   0  0  0  0  0  0  0  0  0  0  0  0
  150.2603  141.9560  154.3133 H   0  0  0  0  0  0  0  0  0  0  0  0
  148.9067  141.4992  155.3439 H   0  0  0  0  0  0  0  0  0  0  0  0
  147.6075  135.5393  151.7731 H   0  0  0  0  0  0  0  0  0  0  0  0
  1  2  2  0  0  0  0
  2  3  1  0  0  0  0
  2 12  1  0  0  0  0
  3  4  1  0  0  0  0
  3 23  1  0  0  0  0
  4  5  1  0  0  0  0
  4 24  1  0  0  0  0
  4 25  1  0  0  0  0
  5  6  1  0  0  0  0
  5 26  1  0  0  0  0
  5 27  1  0  0  0  0
  6 11  1  0  0  0  0
  6  7  2  0  0  0  0
  7  8  1  0  0  0  0
  7 28  1  0  0  0  0
  8  9  2  0  0  0  0
  8 29  1  0  0  0  0
  9 10  1  0  0  0  0
  9 30  1  0  0  0  0
 10 11  2  0  0  0  0
 10 31  1  0  0  0  0
 11 46  1  0  0  0  0
 12 22  1  0  0  0  0
 12 13  1  0  0  0  0
 12 32  1  0  0  0  0
 13 14  1  0  0  0  0
 13 33  1  0  0  0  0
 13 34  1  0  0  0  0
 14 15  2  0  0  0  0
 14 16  1  0  0  0  0
 16 17  1  0  0  0  0
 16 22  1  0  0  0  0
 17 21  1  0  0  0  0
 17 18  1  0  0  0  0
 17 35  1  0  0  0  0
 18 19  1  0  0  0  0
 18 36  1  0  0  0  0
 18 37  1  0  0  0  0
 19 20  1  0  0  0  0
 19 38  1  0  0  0  0
 19 39  1  0  0  0  0
 20 21  1  0  0  0  0
 20 40  1  0  0  0  0
 20 41  1  0  0  0  0
 21 42  1  0  0  0  0
 21 43  1  0  0  0  0
 22 44  1  0  0  0  0
 22 45  1  0  0  0  0
M  CHG  1  11   1
M  END
> <s_m_source_file>
AV-unprocessed.smi

> <i_m_source_file_index>
1916

> <i_lp_mmshare_version>
43012

> <i_f3d_flags>
0

> <s_epik_input>
W0NIMl0xW0NIMl1bQ0gyXVtDSDJdW0NIXTFOKFtDSDJdMilDKD1PKVtDSDJdW0NASF0yQyg9TylbTkhdW0NIMl1bQ0gyXWMzW2NIXVtjSF1bY0hdW2NIXW4z

> <s_epik_cmdline>
J2VwaWtfcHl0aG9uJywgJy1waCcsICc3LjAnLCAnLXRuJywgJzgnLCAnLW1hJywgJzIwMCcsICctbWV0YWxfYmluZGluZycsICctaW1hZScsICc8aW5maWxlLm1hZT4nLCAnLW9tYWUnLCAnPG91dGZpbGUubWFlPic=

> <r_epik_Ionization_Penalty>
1.88249

> <r_epik_Ionization_Penalty_Charging>
1.88249

> <r_epik_Ionization_Penalty_Neutral>
3.64574e-08

> <r_epik_State_Penalty>
2.00238

> <r_epik_Charging_Adjusted_Penalty>
3.88487

> <i_epik_Tot_Q>
1

> <i_epik_Tot_abs_Q>
1

> <r_epik_Metal_State_Penalty>
2.02676

> <b_epik_Metal_Only>
0

> <s_lp_Force_Field>
OPLS_2005

> <r_lp_Energy>
42.8241

> <b_lp_Chiralities_Consistent>
1

> <s_lp_Variant>
AV-unprocessed.smi:1916-3

> <Gold.Version>
5.8.1

> <Gold.Id.Protein>
6NUR|6NUR_protein|mol2

> <Gold.PLP.Fitness>
51.4401

> <Gold.PLP.PLP>
-43.2960

> <Gold.PLP.part.hbond>
-2.9946

> <Gold.PLP.part.metal>
0.0000

> <Gold.PLP.part.buried>
-0.2757

> <Gold.PLP.part.nonpolar>
-39.4506

> <Gold.PLP.part.repulsive>
0.1330

> <Gold.PLP.ligand.clash>
0.0074

> <Gold.PLP.ligand.torsion>
1.1919

> <Gold.PLP.Chemscore.Hbond>
3.4875

> <Gold.PLP.Chemscore.CHOScore>
0.0000

> <Gold.PLP.Chemscore.Metal>
0.0000

> <Gold.Chemscore.Hbonds>
donor molecule, donor type, donor heavy atom, donor atom, acceptor molecule, acceptor atom, score
      L1  H     3    23       P1  7957  0.55
      L1  H    11    46       P1  7948  1.72
      P1  H  7997  8010       L1    15  0.75

> <Gold.PLP.Chemscore.Internal.Correction>
0.0728

> <Gold.Rescore>
     Score         DG    S(hbond)    S(metal)    S(lipo)     H(rot)  DE(clash)    DE(int)     intcor
     18.26     -22.37       2.46        0.00     111.76       1.72       1.77       2.34       ----

> <Gold.Chemscore.Fitness>
18.2564

> <Gold.Chemscore.DG>
-22.3685

> <Gold.Chemscore.ZeroCoef>
-5.4800

> <Gold.Chemscore.Hbond>
2.4567

> <Gold.Chemscore.Metal>
0.0000

> <Gold.Chemscore.Lipo>
111.7552

> <Gold.Chemscore.Internal_Hbond>
0.0000

> <Gold.Chemscore.DEClash>
1.7745

> <Gold.Chemscore.DEInternal>
2.3376

> <Gold.Chemscore.Rot>
1.7158

> <Gold.Chemscore.Internal.Correction>
   9.000000E+99

> <Gold.Chemscore.Hbonds>
donor molecule, donor type, donor heavy atom, donor atom, acceptor molecule, acceptor atom, score
      L1  H     3    23       P1  7957  0.56
      L1  H    11    46       P1  7948  0.83
      P1  H  7997  8010       L1    15  0.66

> <Gold.Chemscore.Hbond.Weighted>
-8.2055

> <Gold.Chemscore.Metal.Weighted>
-0.0000

> <Gold.Chemscore.Lipo.Weighted>
-13.0754

> <Gold.Chemscore.Internal_Hbond.Weighted>
0.0000

> <Gold.Chemscore.DEClash.Weighted>
1.7745

> <Gold.Chemscore.DEInternal.Weighted>
2.3376

> <Gold.Chemscore.Rot.Weighted>
4.3924

> <Gold.Chemscore.Internal.Correction.Weighted>
   9.000000E+99

> <Gold.Protein.RotatedTorsions>
[ 6907 6896 6895 6894 ] final -174.77 input  -60.11 | X-H torsion
[ 7974 7965 7964 7962 ] final  -96.03 input  175.53 | X-H torsion
[ 8008 7997 7996 7995 ] final   65.28 input   59.86 | X-H torsion
[ 10167 10162 10161 10158 ] final -165.57 input  -65.29 | X-H torsion
[ 10718 10713 10712 10709 ] final  123.10 input   66.30 | X-H torsion
[ 10763 10752 10751 10750 ] final  -12.66 input  -60.55 | X-H torsion
[ 11005 11000 10999 10996 ] final  -37.08 input  -57.11 | X-H torsion

> <Gold.Protein.ActiveResidues>
 VAL166  LYS551  ARG553  GLY616  TRP617  ASP618  TYR619  PRO620  LYS621  CYS622 
 ASP623  PHE694  ASN695  SER759  ASP760  ASP761  ALA762  ILE779  LEU786  VAL792 
 PHE793  MET794  SER795  GLU796  ALA797  LYS798  CYS799  TRP800  GLU811  SER814 

> <Gold.Protein.RotatedAtoms>
  151.5777  133.3381  159.3001 H   0  0  0  0  0  0  0  0  0  0  0  0  # atno 6907 bound_to 6896
  150.8331  134.7596  159.6882 H   0  0  0  0  0  0  0  0  0  0  0  0  # atno 6908 bound_to 6896
  152.4412  134.5594  159.9941 H   0  0  0  0  0  0  0  0  0  0  0  0  # atno 6909 bound_to 6896
  145.3523  140.9478  143.2547 H   0  0  0  0  0  0  0  0  0  0  0  0  # atno 7974 bound_to 7965
  155.6593  140.3497  155.4776 H   0  0  0  0  0  0  0  0  0  0  0  0  # atno 8008 bound_to 7997
  155.9782  140.1169  157.0773 H   0  0  0  0  0  0  0  0  0  0  0  0  # atno 8009 bound_to 7997
  154.4184  140.1143  156.5386 H   0  0  0  0  0  0  0  0  0  0  0  0  # atno 8010 bound_to 7997
  139.6173  144.0695  152.1899 H   0  0  0  0  0  0  0  0  0  0  0  0  # atno 10167 bound_to 10162
  157.5691  131.1084  150.8401 H   0  0  0  0  0  0  0  0  0  0  0  0  # atno 10718 bound_to 10713
  153.5017  135.7017  153.5828 H   0  0  0  0  0  0  0  0  0  0  0  0  # atno 10763 bound_to 10752
  153.3956  135.3885  155.1953 H   0  0  0  0  0  0  0  0  0  0  0  0  # atno 10764 bound_to 10752
  154.8710  135.3869  154.4489 H   0  0  0  0  0  0  0  0  0  0  0  0  # atno 10765 bound_to 10752
  140.9925  133.6997  156.1875 H   0  0  0  0  0  0  0  0  0  0  0  0  # atno 11005 bound_to 11000
  144.8709  139.5040  143.6768 LP  0  0  0  0  0  0  0  0  0  0  0  0  # atno 17320 bound_to 7965
  146.2963  139.7287  142.9124 LP  0  0  0  0  0  0  0  0  0  0  0  0  # atno 17321 bound_to 7965
  140.0328  144.6068  150.7474 LP  0  0  0  0  0  0  0  0  0  0  0  0  # atno 17342 bound_to 10162
  140.7359  143.2746  151.3780 LP  0  0  0  0  0  0  0  0  0  0  0  0  # atno 17343 bound_to 10162
  156.8877  130.5202  149.5287 LP  0  0  0  0  0  0  0  0  0  0  0  0  # atno 17370 bound_to 10713
  156.0737  130.5764  150.9433 LP  0  0  0  0  0  0  0  0  0  0  0  0  # atno 17371 bound_to 10713
  140.7018  134.4556  157.5586 LP  0  0  0  0  0  0  0  0  0  0  0  0  # atno 17394 bound_to 11000
  139.8999  134.8581  156.1942 LP  0  0  0  0  0  0  0  0  0  0  0  0  # atno 17395 bound_to 11000

$$$$
