AV-unprocessed.smi:2606|AV-procd|sdf|10197|dock10
  -GOLD-   2272014213D 1   1.00000     0.00000
 Structure written by MMmdl.
 42 43  0  0  0  0  0  0  0  0  1 V2000
  150.3409  136.1430  159.1752 O   0  0  0  0  0  0  0  0  0  0  0  0
  149.4014  136.9192  158.9926 C   0  0  0  0  0  0  0  0  0  0  0  0
  147.9672  136.4089  159.1670 C   0  0  0  0  0  0  0  0  0  0  0  0
  147.8271  135.5959  160.3852 N   0  0  0  0  0  0  0  0  0  0  0  0
  147.9762  134.2024  160.2414 C   0  0  0  0  0  0  0  0  0  0  0  0
  147.8591  133.3419  161.2708 C   0  0  0  0  0  0  0  0  0  0  0  0
  148.0763  131.8474  161.0923 C   0  0  0  0  0  0  0  0  0  0  0  0
  148.4127  131.5579  159.8350 F   0  0  0  0  0  0  0  0  0  0  0  0
  149.0595  131.4344  161.8907 F   0  0  0  0  0  0  0  0  0  0  0  0
  146.9754  131.1607  161.4001 F   0  0  0  0  0  0  0  0  0  0  0  0
  147.6015  133.9253  162.5727 C   0  0  0  0  0  0  0  0  0  0  0  0
  147.4620  135.2562  162.7289 C   0  0  0  0  0  0  0  0  0  0  0  0
  147.5650  136.1768  161.5943 C   0  0  0  0  0  0  0  0  0  0  0  0
  147.4217  137.3931  161.7226 O   0  0  0  0  0  0  0  0  0  0  0  0
  149.5201  138.2153  158.6387 N   0  0  0  0  0  0  0  0  0  0  0  0
  150.6536  138.9043  158.4090 C   0  0  0  0  0  0  0  0  0  0  0  0
  151.7989  138.4570  158.5029 O   0  0  0  0  0  0  0  0  0  0  0  0
  150.3820  140.1697  158.0567 N   0  0  0  0  0  0  0  0  0  0  0  0
  151.3340  141.2763  158.0820 C   0  0  0  0  0  0  0  0  0  0  0  0
  151.9070  141.4697  159.5015 C   0  0  0  0  0  0  0  0  0  0  0  0
  152.8510  142.6814  159.5669 C   0  0  0  0  0  0  0  0  0  0  0  0
  152.1539  143.9595  159.0758 C   0  0  0  0  0  0  0  0  0  0  0  0
  151.5884  143.7724  157.6592 C   0  0  0  0  0  0  0  0  0  0  0  0
  150.6419  142.5625  157.5924 C   0  0  0  0  0  0  0  0  0  0  0  0
  147.2905  137.2639  159.2048 H   0  0  0  0  0  0  0  0  0  0  0  0
  147.6640  135.8522  158.2781 H   0  0  0  0  0  0  0  0  0  0  0  0
  148.1884  133.8766  159.2330 H   0  0  0  0  0  0  0  0  0  0  0  0
  147.5142  133.2843  163.4375 H   0  0  0  0  0  0  0  0  0  0  0  0
  147.2678  135.6556  163.7137 H   0  0  0  0  0  0  0  0  0  0  0  0
  148.6558  138.7242  158.5227 H   0  0  0  0  0  0  0  0  0  0  0  0
  149.4467  140.3853  157.7437 H   0  0  0  0  0  0  0  0  0  0  0  0
  152.1551  141.0534  157.3977 H   0  0  0  0  0  0  0  0  0  0  0  0
  151.0922  141.6080  160.2137 H   0  0  0  0  0  0  0  0  0  0  0  0
  152.4436  140.5743  159.8177 H   0  0  0  0  0  0  0  0  0  0  0  0
  153.2069  142.8202  160.5881 H   0  0  0  0  0  0  0  0  0  0  0  0
  153.7333  142.4889  158.9553 H   0  0  0  0  0  0  0  0  0  0  0  0
  151.3460  144.2219  159.7603 H   0  0  0  0  0  0  0  0  0  0  0  0
  152.8548  144.7945  159.0896 H   0  0  0  0  0  0  0  0  0  0  0  0
  151.0610  144.6744  157.3476 H   0  0  0  0  0  0  0  0  0  0  0  0
  152.4087  143.6341  156.9536 H   0  0  0  0  0  0  0  0  0  0  0  0
  150.2877  142.4308  156.5690 H   0  0  0  0  0  0  0  0  0  0  0  0
  149.7587  142.7625  158.2012 H   0  0  0  0  0  0  0  0  0  0  0  0
  1  2  2  0  0  0  0
  2  3  1  0  0  0  0
  2 15  1  0  0  0  0
  3  4  1  0  0  0  0
  3 25  1  0  0  0  0
  3 26  1  0  0  0  0
  4 13  1  0  0  0  0
  4  5  1  0  0  0  0
  5  6  2  0  0  0  0
  5 27  1  0  0  0  0
  6  7  1  0  0  0  0
  6 11  1  0  0  0  0
  7  8  1  0  0  0  0
  7  9  1  0  0  0  0
  7 10  1  0  0  0  0
 11 12  2  0  0  0  0
 11 28  1  0  0  0  0
 12 13  1  0  0  0  0
 12 29  1  0  0  0  0
 13 14  2  0  0  0  0
 15 16  1  0  0  0  0
 15 30  1  0  0  0  0
 16 17  2  0  0  0  0
 16 18  1  0  0  0  0
 18 19  1  0  0  0  0
 18 31  1  0  0  0  0
 19 24  1  0  0  0  0
 19 20  1  0  0  0  0
 19 32  1  0  0  0  0
 20 21  1  0  0  0  0
 20 33  1  0  0  0  0
 20 34  1  0  0  0  0
 21 22  1  0  0  0  0
 21 35  1  0  0  0  0
 21 36  1  0  0  0  0
 22 23  1  0  0  0  0
 22 37  1  0  0  0  0
 22 38  1  0  0  0  0
 23 24  1  0  0  0  0
 23 39  1  0  0  0  0
 23 40  1  0  0  0  0
 24 41  1  0  0  0  0
 24 42  1  0  0  0  0
M  END
> <s_m_source_file>
AV-unprocessed.smi

> <i_m_source_file_index>
2606

> <i_lp_mmshare_version>
43012

> <i_f3d_flags>
0

> <s_epik_input>
Tz1jMVtjSF1bY0hdYyhDKEYpKEYpRilbY0hdbjFbQ0gyXUMoPU8pW05IXUMoPU8pW05IXVtDSF0yW0NIMl1bQ0gyXVtDSDJdW0NIMl1bQ0gyXTI=

> <s_epik_cmdline>
J2VwaWtfcHl0aG9uJywgJy1waCcsICc3LjAnLCAnLXRuJywgJzgnLCAnLW1hJywgJzIwMCcsICctbWV0YWxfYmluZGluZycsICctaW1hZScsICc8aW5maWxlLm1hZT4nLCAnLW9tYWUnLCAnPG91dGZpbGUubWFlPic=

> <r_lp_tautomer_probability>
1

> <r_epik_Ionization_Penalty>
3.27177e-05

> <r_epik_Ionization_Penalty_Charging>
1.42456e-08

> <r_epik_Ionization_Penalty_Neutral>
3.27035e-05

> <r_epik_State_Penalty>
-0

> <r_epik_Charging_Adjusted_Penalty>
1.42456e-08

> <i_epik_Tot_Q>
0

> <i_epik_Tot_abs_Q>
0

> <r_epik_Metal_State_Penalty>
-0

> <b_epik_Metal_Only>
0

> <s_lp_Force_Field>
OPLS_2005

> <r_lp_Energy>
22.0809

> <b_lp_Chiralities_Consistent>
1

> <s_lp_Variant>
AV-unprocessed.smi:2606-1

> <Gold.Version>
5.8.1

> <Gold.Id.Protein>
6NUR|6NUR_protein|mol2

> <Gold.PLP.Fitness>
52.4544

> <Gold.PLP.PLP>
-47.5274

> <Gold.PLP.part.hbond>
-3.0000

> <Gold.PLP.part.metal>
0.0000

> <Gold.PLP.part.buried>
-4.9570

> <Gold.PLP.part.nonpolar>
-39.8121

> <Gold.PLP.part.repulsive>
0.3351

> <Gold.PLP.ligand.clash>
1.4093

> <Gold.PLP.ligand.torsion>
0.6685

> <Gold.PLP.Chemscore.Hbond>
2.5360

> <Gold.PLP.Chemscore.CHOScore>
0.0000

> <Gold.PLP.Chemscore.Metal>
0.0000

> <Gold.Chemscore.Hbonds>
donor molecule, donor type, donor heavy atom, donor atom, acceptor molecule, acceptor atom, score
      P1  H  6896  6907       L1     1  0.86
      P1  H  6931  6943       L1    14  0.82
      P1  H  6934  6947       L1    14  0.77

> <Gold.PLP.Chemscore.Internal.Correction>
0.0654

> <Gold.Rescore>
     Score         DG    S(hbond)    S(metal)    S(lipo)     H(rot)  DE(clash)    DE(int)     intcor
     19.28     -21.24       2.67        0.00      94.56       1.65       0.00       1.96       ----

> <Gold.Chemscore.Fitness>
19.2806

> <Gold.Chemscore.DG>
-21.2427

> <Gold.Chemscore.ZeroCoef>
-5.4800

> <Gold.Chemscore.Hbond>
2.6710

> <Gold.Chemscore.Metal>
0.0000

> <Gold.Chemscore.Lipo>
94.5581

> <Gold.Chemscore.Internal_Hbond>
0.0000

> <Gold.Chemscore.DEClash>
0.0000

> <Gold.Chemscore.DEInternal>
1.9621

> <Gold.Chemscore.Rot>
1.6491

> <Gold.Chemscore.Internal.Correction>
   9.000000E+99

> <Gold.Chemscore.Hbonds>
donor molecule, donor type, donor heavy atom, donor atom, acceptor molecule, acceptor atom, score
      P1  H  6896  6907       L1     1  0.82
      P1  H  6931  6943       L1    14  0.67
      P1  H  6934  6947       L1    14  0.76

> <Gold.Chemscore.Hbond.Weighted>
-8.9210

> <Gold.Chemscore.Metal.Weighted>
-0.0000

> <Gold.Chemscore.Lipo.Weighted>
-11.0633

> <Gold.Chemscore.Internal_Hbond.Weighted>
0.0000

> <Gold.Chemscore.DEClash.Weighted>
0.0000

> <Gold.Chemscore.DEInternal.Weighted>
1.9621

> <Gold.Chemscore.Rot.Weighted>
4.2216

> <Gold.Chemscore.Internal.Correction.Weighted>
   9.000000E+99

> <Gold.Protein.RotatedTorsions>
[ 6907 6896 6895 6894 ] final  -53.18 input  -60.11 | X-H torsion
[ 7974 7965 7964 7962 ] final -162.22 input  175.53 | X-H torsion
[ 8008 7997 7996 7995 ] final -166.20 input   59.86 | X-H torsion
[ 10167 10162 10161 10158 ] final  -98.72 input  -65.29 | X-H torsion
[ 10718 10713 10712 10709 ] final   53.57 input   66.30 | X-H torsion
[ 10763 10752 10751 10750 ] final  101.69 input  -60.55 | X-H torsion
[ 11005 11000 10999 10996 ] final  169.01 input  -57.11 | X-H torsion

> <Gold.Protein.ActiveResidues>
 VAL166  LYS551  ARG553  GLY616  TRP617  ASP618  TYR619  PRO620  LYS621  CYS622 
 ASP623  PHE694  ASN695  SER759  ASP760  ASP761  ALA762  ILE779  LEU786  VAL792 
 PHE793  MET794  SER795  GLU796  ALA797  LYS798  CYS799  TRP800  GLU811  SER814 

> <Gold.Protein.RotatedAtoms>
  150.8450  134.7755  159.6962 H   0  0  0  0  0  0  0  0  0  0  0  0  # atno 6907 bound_to 6896
  152.4529  134.5352  159.9832 H   0  0  0  0  0  0  0  0  0  0  0  0  # atno 6908 bound_to 6896
  151.5484  133.3383  159.2984 H   0  0  0  0  0  0  0  0  0  0  0  0  # atno 6909 bound_to 6896
  144.7364  140.3284  143.6158 H   0  0  0  0  0  0  0  0  0  0  0  0  # atno 7974 bound_to 7965
  155.8604  140.0977  157.1617 H   0  0  0  0  0  0  0  0  0  0  0  0  # atno 8008 bound_to 7997
  154.3990  140.1366  156.4016 H   0  0  0  0  0  0  0  0  0  0  0  0  # atno 8009 bound_to 7997
  155.7862  140.3457  155.5327 H   0  0  0  0  0  0  0  0  0  0  0  0  # atno 8010 bound_to 7997
  140.2700  143.3350  152.0543 H   0  0  0  0  0  0  0  0  0  0  0  0  # atno 10167 bound_to 10162
  157.5179  130.8545  149.8519 H   0  0  0  0  0  0  0  0  0  0  0  0  # atno 10718 bound_to 10713
  153.3300  135.4036  155.1487 H   0  0  0  0  0  0  0  0  0  0  0  0  # atno 10763 bound_to 10752
  154.8621  135.3608  154.5483 H   0  0  0  0  0  0  0  0  0  0  0  0  # atno 10764 bound_to 10752
  153.5921  135.7073  153.5478 H   0  0  0  0  0  0  0  0  0  0  0  0  # atno 10765 bound_to 10752
  140.2933  134.7655  157.3856 H   0  0  0  0  0  0  0  0  0  0  0  0  # atno 11005 bound_to 11000
  145.7497  139.1790  143.2328 LP  0  0  0  0  0  0  0  0  0  0  0  0  # atno 17320 bound_to 7965
  146.1070  140.7475  142.9521 LP  0  0  0  0  0  0  0  0  0  0  0  0  # atno 17321 bound_to 7965
  139.4991  144.6662  151.6350 LP  0  0  0  0  0  0  0  0  0  0  0  0  # atno 17342 bound_to 10162
  140.5897  143.9802  150.6317 LP  0  0  0  0  0  0  0  0  0  0  0  0  # atno 17343 bound_to 10162
  156.0333  130.3758  150.1629 LP  0  0  0  0  0  0  0  0  0  0  0  0  # atno 17370 bound_to 10713
  156.9817  130.9866  151.3436 LP  0  0  0  0  0  0  0  0  0  0  0  0  # atno 17371 bound_to 10713
  140.1175  134.5263  155.8212 LP  0  0  0  0  0  0  0  0  0  0  0  0  # atno 17394 bound_to 11000
  141.2142  133.6745  156.6805 LP  0  0  0  0  0  0  0  0  0  0  0  0  # atno 17395 bound_to 11000

$$$$
