AV-unprocessed.smi:2162|AV-procd|sdf|8802|dock1
  -GOLD-   2272011583D 1   1.00000     0.00000
 Structure written by MMmdl.
 41 42  0  0  0  0  0  0  0  0  1 V2000
  146.1599  129.6785  152.4986 C   0  0  0  0  0  0  0  0  0  0  0  0
  146.8415  130.9968  152.6334 C   0  0  0  0  0  0  0  0  0  0  0  0
  147.8113  131.2415  153.5186 N   0  0  0  0  0  0  0  0  0  0  0  0
  148.2888  132.5536  153.4448 C   0  0  0  0  0  0  0  0  0  0  0  0
  149.3907  133.0039  154.3600 C   0  0  0  0  0  0  0  0  0  0  0  0
  149.0608  134.2966  155.1267 C   0  0  0  0  0  0  0  0  0  0  0  0
  149.7338  135.4525  154.5426 N   0  0  0  0  0  0  0  0  0  0  0  0
  150.5443  136.2964  155.1968 C   0  0  0  0  0  0  0  0  0  0  0  0
  150.8166  136.1854  156.3926 O   0  0  0  0  0  0  0  0  0  0  0  0
  151.1372  137.4489  154.3706 C   0  0  2  0  0  0  0  0  0  0  0  0
  152.2872  138.1495  155.1177 C   0  0  0  0  0  0  0  0  0  0  0  0
  151.7134  139.5094  155.4795 C   0  0  0  0  0  0  0  0  0  0  0  0
  152.3076  140.3065  156.2040 O   0  0  0  0  0  0  0  0  0  0  0  0
  150.5044  139.6892  154.9313 N   0  0  0  0  0  0  0  0  0  0  0  0
  149.6432  140.8626  155.1323 C   0  0  0  0  0  0  0  0  0  0  0  0
  149.3421  141.0480  156.6281 C   0  0  0  0  0  0  0  0  0  0  0  0
  148.3547  140.8062  154.2917 C   0  0  0  0  0  0  0  0  0  0  0  0
  150.1067  138.5631  154.0955 C   0  0  0  0  0  0  0  0  0  0  0  0
  147.6588  133.3053  152.4843 C   0  0  0  0  0  0  0  0  0  0  0  0
  146.4454  132.3895  151.6343 S   0  0  0  0  0  0  0  0  0  0  0  0
  146.5404  128.9709  153.2362 H   0  0  0  0  0  0  0  0  0  0  0  0
  146.3317  129.2711  151.5022 H   0  0  0  0  0  0  0  0  0  0  0  0
  145.0868  129.7971  152.6489 H   0  0  0  0  0  0  0  0  0  0  0  0
  149.6126  132.2152  155.0800 H   0  0  0  0  0  0  0  0  0  0  0  0
  150.3106  133.1490  153.7923 H   0  0  0  0  0  0  0  0  0  0  0  0
  147.9788  134.4351  155.1528 H   0  0  0  0  0  0  0  0  0  0  0  0
  149.3907  134.2056  156.1622 H   0  0  0  0  0  0  0  0  0  0  0  0
  149.5724  135.6194  153.5598 H   0  0  0  0  0  0  0  0  0  0  0  0
  151.5041  137.0523  153.4220 H   0  0  0  0  0  0  0  0  0  0  0  0
  152.6161  137.6207  156.0139 H   0  0  0  0  0  0  0  0  0  0  0  0
  153.1532  138.2830  154.4689 H   0  0  0  0  0  0  0  0  0  0  0  0
  150.1940  141.7426  154.7955 H   0  0  0  0  0  0  0  0  0  0  0  0
  148.7356  141.9377  156.7986 H   0  0  0  0  0  0  0  0  0  0  0  0
  150.2600  141.1621  157.2058 H   0  0  0  0  0  0  0  0  0  0  0  0
  148.7996  140.1924  157.0315 H   0  0  0  0  0  0  0  0  0  0  0  0
  147.7845  141.7295  154.3972 H   0  0  0  0  0  0  0  0  0  0  0  0
  147.7035  139.9868  154.5976 H   0  0  0  0  0  0  0  0  0  0  0  0
  148.5796  140.6820  153.2321 H   0  0  0  0  0  0  0  0  0  0  0  0
  150.1400  138.8571  153.0457 H   0  0  0  0  0  0  0  0  0  0  0  0
  149.0836  138.2568  154.3211 H   0  0  0  0  0  0  0  0  0  0  0  0
  147.8375  134.3380  152.2236 H   0  0  0  0  0  0  0  0  0  0  0  0
  1  2  1  0  0  0  0
  1 21  1  0  0  0  0
  1 22  1  0  0  0  0
  1 23  1  0  0  0  0
  2 20  1  0  0  0  0
  2  3  2  0  0  0  0
  3  4  1  0  0  0  0
  4  5  1  0  0  0  0
  4 19  2  0  0  0  0
  5  6  1  0  0  0  0
  5 24  1  0  0  0  0
  5 25  1  0  0  0  0
  6  7  1  0  0  0  0
  6 26  1  0  0  0  0
  6 27  1  0  0  0  0
  7  8  1  0  0  0  0
  7 28  1  0  0  0  0
  8  9  2  0  0  0  0
  8 10  1  0  0  0  0
 10 18  1  0  0  0  0
 10 11  1  0  0  0  0
 10 29  1  0  0  0  0
 11 12  1  0  0  0  0
 11 30  1  0  0  0  0
 11 31  1  0  0  0  0
 12 13  2  0  0  0  0
 12 14  1  0  0  0  0
 14 15  1  0  0  0  0
 14 18  1  0  0  0  0
 15 16  1  0  0  0  0
 15 17  1  0  0  0  0
 15 32  1  0  0  0  0
 16 33  1  0  0  0  0
 16 34  1  0  0  0  0
 16 35  1  0  0  0  0
 17 36  1  0  0  0  0
 17 37  1  0  0  0  0
 17 38  1  0  0  0  0
 18 39  1  0  0  0  0
 18 40  1  0  0  0  0
 19 20  1  0  0  0  0
 19 41  1  0  0  0  0
M  END
> <s_m_source_file>
AV-unprocessed.smi

> <i_m_source_file_index>
2162

> <i_lp_mmshare_version>
43012

> <i_f3d_flags>
0

> <s_epik_input>
W0NIM11jMW5jKFtjSF1zMSlbQ0gyXVtDSDJdW05IXUMoPU8pW0NAQEhdMltDSDJdQyg9TylOKFtDSDJdMilbQ0hdKFtDSDNdKVtDSDNd

> <s_epik_cmdline>
J2VwaWtfcHl0aG9uJywgJy1waCcsICc3LjAnLCAnLXRuJywgJzgnLCAnLW1hJywgJzIwMCcsICctbWV0YWxfYmluZGluZycsICctaW1hZScsICc8aW5maWxlLm1hZT4nLCAnLW9tYWUnLCAnPG91dGZpbGUubWFlPic=

> <r_epik_Ionization_Penalty>
0.000973993

> <r_epik_Ionization_Penalty_Charging>
0

> <r_epik_Ionization_Penalty_Neutral>
0.000973993

> <r_epik_State_Penalty>
0.000633765

> <r_epik_Charging_Adjusted_Penalty>
0.000633765

> <i_epik_Tot_Q>
0

> <i_epik_Tot_abs_Q>
0

> <r_epik_Metal_State_Penalty>
-0

> <b_epik_Metal_Only>
0

> <s_lp_Force_Field>
OPLS_2005

> <r_lp_Energy>
15.0968

> <b_lp_Chiralities_Consistent>
1

> <s_lp_Variant>
AV-unprocessed.smi:2162-1

> <Gold.Version>
5.8.1

> <Gold.Id.Protein>
6NUR|6NUR_protein|mol2

> <Gold.PLP.Fitness>
46.4060

> <Gold.PLP.PLP>
-38.9774

> <Gold.PLP.part.hbond>
-2.0000

> <Gold.PLP.part.metal>
0.0000

> <Gold.PLP.part.buried>
-0.9957

> <Gold.PLP.part.nonpolar>
-37.0059

> <Gold.PLP.part.repulsive>
0.1314

> <Gold.PLP.ligand.clash>
0.0000

> <Gold.PLP.ligand.torsion>
0.7456

> <Gold.PLP.Chemscore.Hbond>
1.9000

> <Gold.PLP.Chemscore.CHOScore>
1.0000

> <Gold.PLP.Chemscore.Metal>
0.0000

> <Gold.Chemscore.Hbonds>
donor molecule, donor type, donor heavy atom, donor atom, acceptor molecule, acceptor atom, score
      L1  H     7    28       P1  7948  0.85
      P1  H  7997  8009       L1    13  0.99
      L1  C    19    41       P1  7948  1.00

> <Gold.PLP.Chemscore.Internal.Correction>
0.2198

> <Gold.Rescore>
     Score         DG    S(hbond)    S(metal)    S(lipo)     H(rot)  DE(clash)    DE(int)     intcor
     14.81     -15.71       1.43        0.00      82.84       1.66       0.01       0.89       ----

> <Gold.Chemscore.Fitness>
14.8138

> <Gold.Chemscore.DG>
-15.7112

> <Gold.Chemscore.ZeroCoef>
-5.4800

> <Gold.Chemscore.Hbond>
1.4326

> <Gold.Chemscore.Metal>
0.0000

> <Gold.Chemscore.Lipo>
82.8367

> <Gold.Chemscore.Internal_Hbond>
0.0000

> <Gold.Chemscore.DEClash>
0.0102

> <Gold.Chemscore.DEInternal>
0.8873

> <Gold.Chemscore.Rot>
1.6585

> <Gold.Chemscore.Internal.Correction>
   9.000000E+99

> <Gold.Chemscore.Hbonds>
donor molecule, donor type, donor heavy atom, donor atom, acceptor molecule, acceptor atom, score
      L1  H     7    28       P1  7948  0.15
      P1  H  7997  8009       L1    13  0.86

> <Gold.Chemscore.Hbond.Weighted>
-4.7850

> <Gold.Chemscore.Metal.Weighted>
-0.0000

> <Gold.Chemscore.Lipo.Weighted>
-9.6919

> <Gold.Chemscore.Internal_Hbond.Weighted>
0.0000

> <Gold.Chemscore.DEClash.Weighted>
0.0102

> <Gold.Chemscore.DEInternal.Weighted>
0.8873

> <Gold.Chemscore.Rot.Weighted>
4.2457

> <Gold.Chemscore.Internal.Correction.Weighted>
   9.000000E+99

> <Gold.Protein.RotatedTorsions>
[ 6907 6896 6895 6894 ] final   43.97 input  -60.11 | X-H torsion
[ 7974 7965 7964 7962 ] final  -47.08 input  175.53 | X-H torsion
[ 8008 7997 7996 7995 ] final -163.84 input   59.86 | X-H torsion
[ 10167 10162 10161 10158 ] final   -7.93 input  -65.29 | X-H torsion
[ 10718 10713 10712 10709 ] final -132.22 input   66.30 | X-H torsion
[ 10763 10752 10751 10750 ] final -121.80 input  -60.55 | X-H torsion
[ 11005 11000 10999 10996 ] final   68.84 input  -57.11 | X-H torsion

> <Gold.Protein.ActiveResidues>
 VAL166  LYS551  ARG553  GLY616  TRP617  ASP618  TYR619  PRO620  LYS621  CYS622 
 ASP623  PHE694  ASN695  SER759  ASP760  ASP761  ALA762  ILE779  LEU786  VAL792 
 PHE793  MET794  SER795  GLU796  ALA797  LYS798  CYS799  TRP800  GLU811  SER814 

> <Gold.Protein.RotatedAtoms>
  152.2268  134.8360  160.0478 H   0  0  0  0  0  0  0  0  0  0  0  0  # atno 6907 bound_to 6896
  151.9124  133.3559  159.3876 H   0  0  0  0  0  0  0  0  0  0  0  0  # atno 6908 bound_to 6896
  150.7014  134.4644  159.5440 H   0  0  0  0  0  0  0  0  0  0  0  0  # atno 6909 bound_to 6896
  145.9653  140.7438  142.9437 H   0  0  0  0  0  0  0  0  0  0  0  0  # atno 7974 bound_to 7965
  155.8271  140.0928  157.1815 H   0  0  0  0  0  0  0  0  0  0  0  0  # atno 8008 bound_to 7997
  154.3979  140.1426  156.3630 H   0  0  0  0  0  0  0  0  0  0  0  0  # atno 8009 bound_to 7997
  155.8205  140.3446  155.5514 H   0  0  0  0  0  0  0  0  0  0  0  0  # atno 8010 bound_to 7997
  140.7044  143.6025  150.8784 H   0  0  0  0  0  0  0  0  0  0  0  0  # atno 10167 bound_to 10162
  156.2323  130.7045  151.0871 H   0  0  0  0  0  0  0  0  0  0  0  0  # atno 10718 bound_to 10713
  154.8676  135.4155  154.2678 H   0  0  0  0  0  0  0  0  0  0  0  0  # atno 10763 bound_to 10752
  153.3594  135.7002  153.6730 H   0  0  0  0  0  0  0  0  0  0  0  0  # atno 10764 bound_to 10752
  153.5637  135.3605  155.2782 H   0  0  0  0  0  0  0  0  0  0  0  0  # atno 10765 bound_to 10752
  139.9688  134.6935  156.0489 H   0  0  0  0  0  0  0  0  0  0  0  0  # atno 11005 bound_to 11000
  144.6824  140.2659  143.7312 LP  0  0  0  0  0  0  0  0  0  0  0  0  # atno 17320 bound_to 7965
  145.7982  139.1954  143.2063 LP  0  0  0  0  0  0  0  0  0  0  0  0  # atno 17321 bound_to 7965
  139.9749  143.6015  152.2962 LP  0  0  0  0  0  0  0  0  0  0  0  0  # atno 17342 bound_to 10162
  139.6615  144.7662  151.1953 LP  0  0  0  0  0  0  0  0  0  0  0  0  # atno 17343 bound_to 10162
  157.7139  131.0720  150.6401 LP  0  0  0  0  0  0  0  0  0  0  0  0  # atno 17370 bound_to 10713
  156.6469  130.4474  149.5733 LP  0  0  0  0  0  0  0  0  0  0  0  0  # atno 17371 bound_to 10713
  141.1368  133.6573  156.3616 LP  0  0  0  0  0  0  0  0  0  0  0  0  # atno 17394 bound_to 11000
  140.5338  134.6187  157.5358 LP  0  0  0  0  0  0  0  0  0  0  0  0  # atno 17395 bound_to 11000

$$$$
