AV-unprocessed.smi:2008|AV-procd|sdf|8141|dock2
  -GOLD-   2272010373D 1   1.00000     0.00000
 Structure written by MMmdl.
 46 47  0  0  0  0  0  0  0  0  2 V2000
  153.4983  138.9346  158.9604 C   0  0  0  0  0  0  0  0  0  0  0  0
  153.2739  139.3640  157.6220 O   0  0  0  0  0  0  0  0  0  0  0  0
  152.4686  138.5901  156.8120 C   0  0  0  0  0  0  0  0  0  0  0  0
  152.3304  138.9500  155.4569 C   0  0  0  0  0  0  0  0  0  0  0  0
  151.5081  138.1675  154.6238 C   0  0  0  0  0  0  0  0  0  0  0  0
  150.8533  137.0388  155.1728 C   0  0  0  0  0  0  0  0  0  0  0  0
  149.9840  136.1776  154.4487 N   0  0  0  0  0  0  0  0  0  0  0  0
  149.3142  135.0958  154.8817 C   0  0  0  0  0  0  0  0  0  0  0  0
  149.3151  134.6672  156.0353 O   0  0  0  0  0  0  0  0  0  0  0  0
  148.6163  134.5264  153.8887 N   0  0  0  0  0  0  0  0  0  0  0  0
  147.7879  133.3349  154.0349 C   0  0  0  0  0  0  0  0  0  0  0  0
  147.3172  132.8063  152.6651 C   0  0  0  0  0  0  0  0  0  0  0  0
  146.6841  131.4609  152.7665 N   0  3  2  0  0  0  0  0  0  0  0  0
  147.6817  130.4416  153.2039 C   0  0  0  0  0  0  0  0  0  0  0  0
  147.0410  129.0696  153.4472 C   0  0  0  0  0  0  0  0  0  0  0  0
  146.3370  128.5828  152.1816 C   0  0  0  0  0  0  0  0  0  0  0  0
  145.3100  129.6291  151.7433 C   0  0  0  0  0  0  0  0  0  0  0  0
  145.9414  131.0254  151.5376 C   0  0  1  0  0  0  0  0  0  0  0  0
  144.8184  132.0031  151.1288 C   0  0  0  0  0  0  0  0  0  0  0  0
  151.0511  136.7705  156.5433 C   0  0  0  0  0  0  0  0  0  0  0  0
  151.8366  137.5169  157.3476 N   0  0  0  0  0  0  0  0  0  0  0  0
  154.1511  139.6480  159.4630 H   0  0  0  0  0  0  0  0  0  0  0  0
  153.9874  137.9600  158.9916 H   0  0  0  0  0  0  0  0  0  0  0  0
  152.5657  138.8856  159.5244 H   0  0  0  0  0  0  0  0  0  0  0  0
  152.8426  139.8158  155.0637 H   0  0  0  0  0  0  0  0  0  0  0  0
  151.3904  138.4592  153.5922 H   0  0  0  0  0  0  0  0  0  0  0  0
  149.8243  136.4409  153.4872 H   0  0  0  0  0  0  0  0  0  0  0  0
  148.6614  134.9451  152.9709 H   0  0  0  0  0  0  0  0  0  0  0  0
  148.3437  132.5824  154.5944 H   0  0  0  0  0  0  0  0  0  0  0  0
  146.9237  133.5968  154.6460 H   0  0  0  0  0  0  0  0  0  0  0  0
  146.6285  133.5476  152.2698 H   0  0  0  0  0  0  0  0  0  0  0  0
  148.1434  132.7655  151.9535 H   0  0  0  0  0  0  0  0  0  0  0  0
  148.4636  130.3520  152.4477 H   0  0  0  0  0  0  0  0  0  0  0  0
  148.1751  130.7575  154.1220 H   0  0  0  0  0  0  0  0  0  0  0  0
  147.8030  128.3502  153.7487 H   0  0  0  0  0  0  0  0  0  0  0  0
  146.3288  129.1326  154.2712 H   0  0  0  0  0  0  0  0  0  0  0  0
  147.0657  128.4182  151.3868 H   0  0  0  0  0  0  0  0  0  0  0  0
  145.8478  127.6256  152.3643 H   0  0  0  0  0  0  0  0  0  0  0  0
  144.8310  129.2951  150.8220 H   0  0  0  0  0  0  0  0  0  0  0  0
  144.5194  129.6905  152.4929 H   0  0  0  0  0  0  0  0  0  0  0  0
  146.6569  130.9604  150.7162 H   0  0  0  0  0  0  0  0  0  0  0  0
  144.1881  131.5666  150.3534 H   0  0  0  0  0  0  0  0  0  0  0  0
  145.1973  132.9341  150.7105 H   0  0  0  0  0  0  0  0  0  0  0  0
  144.1734  132.2447  151.9741 H   0  0  0  0  0  0  0  0  0  0  0  0
  150.5648  135.9273  157.0120 H   0  0  0  0  0  0  0  0  0  0  0  0
  145.9903  131.5260  153.4976 H   0  0  0  0  0  0  0  0  0  0  0  0
  1  2  1  0  0  0  0
  1 22  1  0  0  0  0
  1 23  1  0  0  0  0
  1 24  1  0  0  0  0
  2  3  1  0  0  0  0
  3 21  1  0  0  0  0
  3  4  2  0  0  0  0
  4  5  1  0  0  0  0
  4 25  1  0  0  0  0
  5  6  2  0  0  0  0
  5 26  1  0  0  0  0
  6  7  1  0  0  0  0
  6 20  1  0  0  0  0
  7  8  1  0  0  0  0
  7 27  1  0  0  0  0
  8  9  2  0  0  0  0
  8 10  1  0  0  0  0
 10 11  1  0  0  0  0
 10 28  1  0  0  0  0
 11 12  1  0  0  0  0
 11 29  1  0  0  0  0
 11 30  1  0  0  0  0
 12 13  1  0  0  0  0
 12 31  1  0  0  0  0
 12 32  1  0  0  0  0
 13 18  1  0  0  0  0
 13 14  1  0  0  0  0
 13 46  1  0  0  0  0
 14 15  1  0  0  0  0
 14 33  1  0  0  0  0
 14 34  1  0  0  0  0
 15 16  1  0  0  0  0
 15 35  1  0  0  0  0
 15 36  1  0  0  0  0
 16 17  1  0  0  0  0
 16 37  1  0  0  0  0
 16 38  1  0  0  0  0
 17 18  1  0  0  0  0
 17 39  1  0  0  0  0
 17 40  1  0  0  0  0
 18 19  1  0  0  0  0
 18 41  1  0  0  0  0
 19 42  1  0  0  0  0
 19 43  1  0  0  0  0
 19 44  1  0  0  0  0
 20 21  2  0  0  0  0
 20 45  1  0  0  0  0
M  CHG  1  13   1
M  END
> <s_m_source_file>
AV-unprocessed.smi

> <i_m_source_file_index>
2008

> <i_lp_mmshare_version>
43012

> <i_f3d_flags>
0

> <s_epik_input>
W0NIM11PYzFbY0hdW2NIXWMoW2NIXW4xKVtOSF1DKD1PKVtOSF1bQ0gyXVtDSDJdTjJbQ0gyXVtDSDJdW0NIMl1bQ0gyXVtDQEhdMltDSDNd

> <s_epik_cmdline>
J2VwaWtfcHl0aG9uJywgJy1waCcsICc3LjAnLCAnLXRuJywgJzgnLCAnLW1hJywgJzIwMCcsICctbWV0YWxfYmluZGluZycsICctaW1hZScsICc8aW5maWxlLm1hZT4nLCAnLW9tYWUnLCAnPG91dGZpbGUubWFlPic=

> <r_lp_tautomer_probability>
1

> <r_epik_Ionization_Penalty>
0.00219526

> <r_epik_Ionization_Penalty_Charging>
0.00211816

> <r_epik_Ionization_Penalty_Neutral>
7.71003e-05

> <r_epik_State_Penalty>
0.00145254

> <r_epik_Charging_Adjusted_Penalty>
0.0035707

> <i_epik_Tot_Q>
1

> <i_epik_Tot_abs_Q>
1

> <r_epik_Metal_State_Penalty>
-0

> <b_epik_Metal_Only>
0

> <s_lp_Force_Field>
OPLS_2005

> <r_lp_Energy>
23.4607

> <b_lp_Chiralities_Consistent>
1

> <s_lp_Variant>
AV-unprocessed.smi:2008-1

> <Gold.Version>
5.8.1

> <Gold.Id.Protein>
6NUR|6NUR_protein|mol2

> <Gold.PLP.Fitness>
41.9700

> <Gold.PLP.PLP>
-33.2198

> <Gold.PLP.part.hbond>
-3.5126

> <Gold.PLP.part.metal>
0.0000

> <Gold.PLP.part.buried>
-3.0516

> <Gold.PLP.part.nonpolar>
-26.3363

> <Gold.PLP.part.repulsive>
0.0802

> <Gold.PLP.ligand.clash>
0.0000

> <Gold.PLP.ligand.torsion>
0.1478

> <Gold.PLP.Chemscore.Hbond>
2.9920

> <Gold.PLP.Chemscore.CHOScore>
0.0000

> <Gold.PLP.Chemscore.Metal>
0.0000

> <Gold.Chemscore.Hbonds>
donor molecule, donor type, donor heavy atom, donor atom, acceptor molecule, acceptor atom, score
      L1  H     7    27       P1  7948  1.00
      L1  H    10    28       P1  7948  1.00
      P1  H  7997  8008       L1     2  1.00

> <Gold.PLP.Chemscore.Internal.Correction>
0.0698

> <Gold.Rescore>
     Score         DG    S(hbond)    S(metal)    S(lipo)     H(rot)  DE(clash)    DE(int)     intcor
     18.17     -19.73       2.58        0.00      85.59       1.71       0.00       1.56       ----

> <Gold.Chemscore.Fitness>
18.1657

> <Gold.Chemscore.DG>
-19.7297

> <Gold.Chemscore.ZeroCoef>
-5.4800

> <Gold.Chemscore.Hbond>
2.5792

> <Gold.Chemscore.Metal>
0.0000

> <Gold.Chemscore.Lipo>
85.5947

> <Gold.Chemscore.Internal_Hbond>
0.0000

> <Gold.Chemscore.DEClash>
0.0048

> <Gold.Chemscore.DEInternal>
1.5592

> <Gold.Chemscore.Rot>
1.7107

> <Gold.Chemscore.Internal.Correction>
   9.000000E+99

> <Gold.Chemscore.Hbonds>
donor molecule, donor type, donor heavy atom, donor atom, acceptor molecule, acceptor atom, score
      L1  H     7    27       P1  7948  0.25
      L1  H    10    28       P1  7948  0.39
      P1  H  7997  8008       L1     2  0.47

> <Gold.Chemscore.Hbond.Weighted>
-8.6145

> <Gold.Chemscore.Metal.Weighted>
-0.0000

> <Gold.Chemscore.Lipo.Weighted>
-10.0146

> <Gold.Chemscore.Internal_Hbond.Weighted>
0.0000

> <Gold.Chemscore.DEClash.Weighted>
0.0048

> <Gold.Chemscore.DEInternal.Weighted>
1.5592

> <Gold.Chemscore.Rot.Weighted>
4.3794

> <Gold.Chemscore.Internal.Correction.Weighted>
   9.000000E+99

> <Gold.Protein.RotatedTorsions>
[ 6907 6896 6895 6894 ] final    0.70 input  -60.11 | X-H torsion
[ 7974 7965 7964 7962 ] final  -36.24 input  175.53 | X-H torsion
[ 8008 7997 7996 7995 ] final  -96.25 input   59.86 | X-H torsion
[ 10167 10162 10161 10158 ] final   78.12 input  -65.29 | X-H torsion
[ 10718 10713 10712 10709 ] final  147.38 input   66.30 | X-H torsion
[ 10763 10752 10751 10750 ] final  -64.74 input  -60.55 | X-H torsion
[ 11005 11000 10999 10996 ] final   58.98 input  -57.11 | X-H torsion

> <Gold.Protein.ActiveResidues>
 VAL166  LYS551  ARG553  GLY616  TRP617  ASP618  TYR619  PRO620  LYS621  CYS622 
 ASP623  PHE694  ASN695  SER759  ASP760  ASP761  ALA762  ILE779  LEU786  VAL792 
 PHE793  MET794  SER795  GLU796  ALA797  LYS798  CYS799  TRP800  GLU811  SER814 

> <Gold.Protein.RotatedAtoms>
  151.5807  135.1058  160.0016 H   0  0  0  0  0  0  0  0  0  0  0  0  # atno 6907 bound_to 6896
  152.4355  133.7349  159.6619 H   0  0  0  0  0  0  0  0  0  0  0  0  # atno 6908 bound_to 6896
  150.8252  133.8113  159.3144 H   0  0  0  0  0  0  0  0  0  0  0  0  # atno 6909 bound_to 6896
  146.0678  140.6255  142.8966 H   0  0  0  0  0  0  0  0  0  0  0  0  # atno 7974 bound_to 7965
  154.7720  140.0473  157.1058 H   0  0  0  0  0  0  0  0  0  0  0  0  # atno 8008 bound_to 7997
  154.9809  140.3101  155.4927 H   0  0  0  0  0  0  0  0  0  0  0  0  # atno 8009 bound_to 7997
  156.2922  140.2236  156.4908 H   0  0  0  0  0  0  0  0  0  0  0  0  # atno 8010 bound_to 7997
  139.9743  144.5872  150.7957 H   0  0  0  0  0  0  0  0  0  0  0  0  # atno 10167 bound_to 10162
  157.3217  131.0905  151.1235 H   0  0  0  0  0  0  0  0  0  0  0  0  # atno 10718 bound_to 10713
  154.3346  135.6169  153.5567 H   0  0  0  0  0  0  0  0  0  0  0  0  # atno 10763 bound_to 10752
  152.9809  135.5755  154.4922 H   0  0  0  0  0  0  0  0  0  0  0  0  # atno 10764 bound_to 10752
  154.4615  135.2856  155.1686 H   0  0  0  0  0  0  0  0  0  0  0  0  # atno 10765 bound_to 10752
  140.0337  134.5974  155.9472 H   0  0  0  0  0  0  0  0  0  0  0  0  # atno 11005 bound_to 11000
  144.7213  140.4382  143.7006 LP  0  0  0  0  0  0  0  0  0  0  0  0  # atno 17320 bound_to 7965
  145.6445  139.1555  143.2896 LP  0  0  0  0  0  0  0  0  0  0  0  0  # atno 17321 bound_to 7965
  140.7511  143.2967  151.3186 LP  0  0  0  0  0  0  0  0  0  0  0  0  # atno 17342 bound_to 10162
  139.6458  144.0455  152.2589 LP  0  0  0  0  0  0  0  0  0  0  0  0  # atno 17343 bound_to 10162
  157.2517  130.6617  149.5934 LP  0  0  0  0  0  0  0  0  0  0  0  0  # atno 17370 bound_to 10713
  155.9686  130.4536  150.5819 LP  0  0  0  0  0  0  0  0  0  0  0  0  # atno 17371 bound_to 10713
  141.1845  133.6553  156.5161 LP  0  0  0  0  0  0  0  0  0  0  0  0  # atno 17394 bound_to 11000
  140.4183  134.7211  157.4875 LP  0  0  0  0  0  0  0  0  0  0  0  0  # atno 17395 bound_to 11000

$$$$
