AV-unprocessed.smi:1592|AV-procd|sdf|6402|dock9
  -GOLD-   22720 7 43D 1   1.00000     0.00000
 Structure written by MMmdl.
 27 28  0  0  0  0  0  0  0  0  1 V2000
  150.3292  142.6871  157.3227 O   0  0  0  0  0  0  0  0  0  0  0  0
  151.3907  142.1633  157.6629 C   0  0  0  0  0  0  0  0  0  0  0  0
  151.8837  141.0242  157.1423 N   0  0  0  0  0  0  0  0  0  0  0  0
  151.3352  140.2075  156.1149 C   0  0  0  0  0  0  0  0  0  0  0  0
  150.1317  140.4519  155.5380 N   0  0  0  0  0  0  0  0  0  0  0  0
  149.6815  139.6283  154.5689 C   0  0  0  0  0  0  0  0  0  0  0  0
  150.4027  138.5104  154.1134 C   0  0  0  0  0  0  0  0  0  0  0  0
  151.6517  138.2442  154.7007 C   0  0  0  0  0  0  0  0  0  0  0  0
  152.1271  139.1009  155.7140 C   0  0  0  0  0  0  0  0  0  0  0  0
  153.3414  138.8469  156.2896 O   0  0  0  0  0  0  0  0  0  0  0  0
  152.2381  142.8054  158.7675 C   0  0  1  0  0  0  0  0  0  0  0  0
  152.7392  144.2233  158.4333 C   0  0  0  0  0  0  0  0  0  0  0  0
  151.9632  145.1136  159.3842 C   0  0  0  0  0  0  0  0  0  0  0  0
  151.7198  144.1793  160.5603 C   0  0  0  0  0  0  0  0  0  0  0  0
  151.4218  142.9447  159.9287 O   0  0  0  0  0  0  0  0  0  0  0  0
  152.7592  140.6994  157.5266 H   0  0  0  0  0  0  0  0  0  0  0  0
  148.7179  139.8683  154.1447 H   0  0  0  0  0  0  0  0  0  0  0  0
  150.0075  137.8748  153.3348 H   0  0  0  0  0  0  0  0  0  0  0  0
  152.2354  137.3945  154.3781 H   0  0  0  0  0  0  0  0  0  0  0  0
  153.3178  138.1284  156.9031 H   0  0  0  0  0  0  0  0  0  0  0  0
  153.0896  142.1668  159.0090 H   0  0  0  0  0  0  0  0  0  0  0  0
  153.8070  144.2929  158.6451 H   0  0  0  0  0  0  0  0  0  0  0  0
  152.5960  144.5157  157.3920 H   0  0  0  0  0  0  0  0  0  0  0  0
  152.5027  146.0195  159.6609 H   0  0  0  0  0  0  0  0  0  0  0  0
  151.0125  145.4030  158.9347 H   0  0  0  0  0  0  0  0  0  0  0  0
  152.6194  144.0725  161.1683 H   0  0  0  0  0  0  0  0  0  0  0  0
  150.9034  144.5104  161.2022 H   0  0  0  0  0  0  0  0  0  0  0  0
  1  2  2  0  0  0  0
  2  3  1  0  0  0  0
  2 11  1  0  0  0  0
  3  4  1  0  0  0  0
  3 16  1  0  0  0  0
  4  9  1  0  0  0  0
  4  5  2  0  0  0  0
  5  6  1  0  0  0  0
  6  7  2  0  0  0  0
  6 17  1  0  0  0  0
  7  8  1  0  0  0  0
  7 18  1  0  0  0  0
  8  9  2  0  0  0  0
  8 19  1  0  0  0  0
  9 10  1  0  0  0  0
 10 20  1  0  0  0  0
 11 15  1  0  0  0  0
 11 12  1  0  0  0  0
 11 21  1  0  0  0  0
 12 13  1  0  0  0  0
 12 22  1  0  0  0  0
 12 23  1  0  0  0  0
 13 14  1  0  0  0  0
 13 24  1  0  0  0  0
 13 25  1  0  0  0  0
 14 15  1  0  0  0  0
 14 26  1  0  0  0  0
 14 27  1  0  0  0  0
M  END
> <s_m_source_file>
AV-unprocessed.smi

> <i_m_source_file_index>
1592

> <i_lp_mmshare_version>
43012

> <i_f3d_flags>
0

> <s_epik_input>
TzFbQ0gyXVtDSDJdW0NIMl1bQ0BIXTFDKD1PKVtOSF1jMm5bY0hdW2NIXVtjSF1jMltPSF0=

> <s_epik_cmdline>
J2VwaWtfcHl0aG9uJywgJy1waCcsICc3LjAnLCAnLXRuJywgJzgnLCAnLW1hJywgJzIwMCcsICctbWV0YWxfYmluZGluZycsICctaW1hZScsICc8aW5maWxlLm1hZT4nLCAnLW9tYWUnLCAnPG91dGZpbGUubWFlPic=

> <r_lp_tautomer_probability>
0.43658

> <r_epik_Ionization_Penalty>
0.0209102

> <r_epik_Ionization_Penalty_Charging>
0

> <r_epik_Ionization_Penalty_Neutral>
0.0209102

> <r_epik_State_Penalty>
0.412899

> <r_epik_Charging_Adjusted_Penalty>
0.412899

> <i_epik_Tot_Q>
0

> <i_epik_Tot_abs_Q>
0

> <r_epik_Metal_State_Penalty>
0.372161

> <b_epik_Metal_Only>
0

> <s_lp_Force_Field>
OPLS_2005

> <r_lp_Energy>
20.3979

> <b_lp_Chiralities_Consistent>
1

> <s_lp_Variant>
AV-unprocessed.smi:1592-2

> <Gold.Version>
5.8.1

> <Gold.Id.Protein>
6NUR|6NUR_protein|mol2

> <Gold.PLP.Fitness>
37.3598

> <Gold.PLP.PLP>
-34.3943

> <Gold.PLP.part.hbond>
-1.2123

> <Gold.PLP.part.metal>
0.0000

> <Gold.PLP.part.buried>
-4.5882

> <Gold.PLP.part.nonpolar>
-29.8785

> <Gold.PLP.part.repulsive>
0.9197

> <Gold.PLP.ligand.clash>
0.0000

> <Gold.PLP.ligand.torsion>
0.0209

> <Gold.PLP.Chemscore.Hbond>
1.0000

> <Gold.PLP.Chemscore.CHOScore>
0.0000

> <Gold.PLP.Chemscore.Metal>
0.0000

> <Gold.Chemscore.Hbonds>
donor molecule, donor type, donor heavy atom, donor atom, acceptor molecule, acceptor atom, score
      P1  H  7997  8008       L1    10  0.99

> <Gold.PLP.Chemscore.Internal.Correction>
0.0074

> <Gold.Rescore>
     Score         DG    S(hbond)    S(metal)    S(lipo)     H(rot)  DE(clash)    DE(int)     intcor
     12.88     -14.46       0.92        0.00      82.64       1.47       0.27       1.31       ----

> <Gold.Chemscore.Fitness>
12.8786

> <Gold.Chemscore.DG>
-14.4638

> <Gold.Chemscore.ZeroCoef>
-5.4800

> <Gold.Chemscore.Hbond>
0.9249

> <Gold.Chemscore.Metal>
0.0000

> <Gold.Chemscore.Lipo>
82.6364

> <Gold.Chemscore.Internal_Hbond>
0.0000

> <Gold.Chemscore.DEClash>
0.2704

> <Gold.Chemscore.DEInternal>
1.3148

> <Gold.Chemscore.Rot>
1.4742

> <Gold.Chemscore.Internal.Correction>
   9.000000E+99

> <Gold.Chemscore.Hbonds>
donor molecule, donor type, donor heavy atom, donor atom, acceptor molecule, acceptor atom, score
      P1  H  7997  8008       L1    10  0.82

> <Gold.Chemscore.Hbond.Weighted>
-3.0892

> <Gold.Chemscore.Metal.Weighted>
-0.0000

> <Gold.Chemscore.Lipo.Weighted>
-9.6685

> <Gold.Chemscore.Internal_Hbond.Weighted>
0.0000

> <Gold.Chemscore.DEClash.Weighted>
0.2704

> <Gold.Chemscore.DEInternal.Weighted>
1.3148

> <Gold.Chemscore.Rot.Weighted>
3.7739

> <Gold.Chemscore.Internal.Correction.Weighted>
   9.000000E+99

> <Gold.Protein.RotatedTorsions>
[ 6907 6896 6895 6894 ] final   74.15 input  -60.11 | X-H torsion
[ 7974 7965 7964 7962 ] final -168.23 input  175.53 | X-H torsion
[ 8008 7997 7996 7995 ] final  -38.11 input   59.86 | X-H torsion
[ 10167 10162 10161 10158 ] final  158.04 input  -65.29 | X-H torsion
[ 10718 10713 10712 10709 ] final  -65.49 input   66.30 | X-H torsion
[ 10763 10752 10751 10750 ] final  163.21 input  -60.55 | X-H torsion
[ 11005 11000 10999 10996 ] final  115.72 input  -57.11 | X-H torsion

> <Gold.Protein.ActiveResidues>
 VAL166  LYS551  ARG553  GLY616  TRP617  ASP618  TYR619  PRO620  LYS621  CYS622 
 ASP623  PHE694  ASN695  SER759  ASP760  ASP761  ALA762  ILE779  LEU786  VAL792 
 PHE793  MET794  SER795  GLU796  ALA797  LYS798  CYS799  TRP800  GLU811  SER814 

> <Gold.Protein.RotatedAtoms>
  152.4961  134.4314  159.9513 H   0  0  0  0  0  0  0  0  0  0  0  0  # atno 6907 bound_to 6896
  151.4293  133.3669  159.2774 H   0  0  0  0  0  0  0  0  0  0  0  0  # atno 6908 bound_to 6896
  150.9166  134.8607  159.7521 H   0  0  0  0  0  0  0  0  0  0  0  0  # atno 6909 bound_to 6896
  144.7207  140.2400  143.6293 H   0  0  0  0  0  0  0  0  0  0  0  0  # atno 7974 bound_to 7965
  154.4042  140.1586  156.2647 H   0  0  0  0  0  0  0  0  0  0  0  0  # atno 8008 bound_to 7997
  155.9005  140.3433  155.6001 H   0  0  0  0  0  0  0  0  0  0  0  0  # atno 8009 bound_to 7997
  155.7453  140.0798  157.2217 H   0  0  0  0  0  0  0  0  0  0  0  0  # atno 8010 bound_to 7997
  139.4825  144.4862  151.8374 H   0  0  0  0  0  0  0  0  0  0  0  0  # atno 10167 bound_to 10162
  156.0667  130.4248  150.1571 H   0  0  0  0  0  0  0  0  0  0  0  0  # atno 10718 bound_to 10713
  154.2903  135.2761  155.2658 H   0  0  0  0  0  0  0  0  0  0  0  0  # atno 10763 bound_to 10752
  154.5140  135.5774  153.6631 H   0  0  0  0  0  0  0  0  0  0  0  0  # atno 10764 bound_to 10752
  152.9915  135.6188  154.3067 H   0  0  0  0  0  0  0  0  0  0  0  0  # atno 10765 bound_to 10752
  139.9018  134.9588  156.7088 H   0  0  0  0  0  0  0  0  0  0  0  0  # atno 11005 bound_to 11000
  145.8328  139.2094  143.1872 LP  0  0  0  0  0  0  0  0  0  0  0  0  # atno 17320 bound_to 7965
  146.0415  140.8160  142.9826 LP  0  0  0  0  0  0  0  0  0  0  0  0  # atno 17321 bound_to 7965
  140.4342  144.2074  150.5889 LP  0  0  0  0  0  0  0  0  0  0  0  0  # atno 17342 bound_to 10162
  140.4749  143.2400  151.9038 LP  0  0  0  0  0  0  0  0  0  0  0  0  # atno 17343 bound_to 10162
  156.9630  130.9811  151.3475 LP  0  0  0  0  0  0  0  0  0  0  0  0  # atno 17370 bound_to 10713
  157.5712  130.8312  149.8394 LP  0  0  0  0  0  0  0  0  0  0  0  0  # atno 17371 bound_to 10713
  140.7092  133.9238  155.8073 LP  0  0  0  0  0  0  0  0  0  0  0  0  # atno 17394 bound_to 11000
  141.0313  134.0752  157.4011 LP  0  0  0  0  0  0  0  0  0  0  0  0  # atno 17395 bound_to 11000

$$$$
