AV-unprocessed.smi:2902|AV-procd|sdf|11154|dock6
  -GOLD-   2272016 33D 1   1.00000     0.00000
 Structure written by MMmdl.
 47 48  0  0  0  0  0  0  0  0  1 V2000
  149.0076  139.7554  158.0248 C   0  0  0  0  0  0  0  0  0  0  0  0
  148.7634  141.1907  157.5421 C   0  0  0  0  0  0  0  0  0  0  0  0
  149.9559  141.7677  156.7572 C   0  0  1  0  0  0  0  0  0  0  0  0
  151.0890  141.7704  157.6257 O   0  0  0  0  0  0  0  0  0  0  0  0
  151.1834  142.8493  158.5518 C   0  0  0  0  0  0  0  0  0  0  0  0
  151.4879  144.1788  157.8465 C   0  0  0  0  0  0  0  0  0  0  0  0
  152.4158  144.9647  158.7861 C   0  0  0  0  0  0  0  0  0  0  0  0
  152.6815  144.0535  159.9895 C   0  0  0  0  0  0  0  0  0  0  0  0
  152.3707  142.6442  159.4898 C   0  0  0  0  0  0  0  0  0  0  0  0
  150.2396  140.9430  155.4907 C   0  0  0  0  0  0  0  0  0  0  0  0
  149.8718  141.3471  154.3874 O   0  0  0  0  0  0  0  0  0  0  0  0
  150.8770  139.7772  155.6764 N   0  0  0  0  0  0  0  0  0  0  0  0
  151.1960  138.7985  154.6380 C   0  0  1  0  0  0  0  0  0  0  0  0
  152.6975  138.4621  154.7117 C   0  0  0  0  0  0  0  0  0  0  0  0
  150.2858  137.5527  154.8010 C   0  0  2  0  0  0  0  0  0  0  0  0
  148.7829  137.8894  154.7955 C   0  0  0  0  0  0  0  0  0  0  0  0
  150.6180  136.8142  156.0142 N   0  0  0  0  0  0  0  0  0  0  0  0
  149.8845  136.5285  157.0930 C   0  0  0  0  0  0  0  0  0  0  0  0
  150.5380  135.8437  158.0206 N   0  0  0  0  0  0  0  0  0  0  0  0
  151.7582  135.7462  157.4152 C   0  0  0  0  0  0  0  0  0  0  0  0
  151.8613  136.3140  156.2136 N   0  0  0  0  0  0  0  0  0  0  0  0
  148.1512  139.3850  158.5885 H   0  0  0  0  0  0  0  0  0  0  0  0
  149.8816  139.7014  158.6741 H   0  0  0  0  0  0  0  0  0  0  0  0
  149.1703  139.0785  157.1859 H   0  0  0  0  0  0  0  0  0  0  0  0
  147.8648  141.2134  156.9239 H   0  0  0  0  0  0  0  0  0  0  0  0
  148.5544  141.8186  158.4095 H   0  0  0  0  0  0  0  0  0  0  0  0
  149.7243  142.7966  156.4737 H   0  0  0  0  0  0  0  0  0  0  0  0
  150.2835  142.9459  159.1625 H   0  0  0  0  0  0  0  0  0  0  0  0
  152.0032  143.9924  156.9033 H   0  0  0  0  0  0  0  0  0  0  0  0
  150.5762  144.7284  157.6121 H   0  0  0  0  0  0  0  0  0  0  0  0
  153.3507  145.1942  158.2732 H   0  0  0  0  0  0  0  0  0  0  0  0
  151.9762  145.9128  159.0961 H   0  0  0  0  0  0  0  0  0  0  0  0
  153.6986  144.1483  160.3705 H   0  0  0  0  0  0  0  0  0  0  0  0
  151.9987  144.3110  160.8003 H   0  0  0  0  0  0  0  0  0  0  0  0
  152.1513  141.9468  160.2988 H   0  0  0  0  0  0  0  0  0  0  0  0
  153.2250  142.2553  158.9337 H   0  0  0  0  0  0  0  0  0  0  0  0
  151.1319  139.5296  156.6217 H   0  0  0  0  0  0  0  0  0  0  0  0
  150.9929  139.2432  153.6618 H   0  0  0  0  0  0  0  0  0  0  0  0
  153.0078  137.8245  153.8844 H   0  0  0  0  0  0  0  0  0  0  0  0
  152.9441  137.9495  155.6421 H   0  0  0  0  0  0  0  0  0  0  0  0
  153.3081  139.3641  154.6596 H   0  0  0  0  0  0  0  0  0  0  0  0
  150.4676  136.8871  153.9548 H   0  0  0  0  0  0  0  0  0  0  0  0
  148.4637  138.2886  153.8332 H   0  0  0  0  0  0  0  0  0  0  0  0
  148.5345  138.6247  155.5612 H   0  0  0  0  0  0  0  0  0  0  0  0
  148.1831  136.9980  154.9831 H   0  0  0  0  0  0  0  0  0  0  0  0
  148.8529  136.8288  157.2031 H   0  0  0  0  0  0  0  0  0  0  0  0
  152.5974  135.2459  157.8757 H   0  0  0  0  0  0  0  0  0  0  0  0
  1  2  1  0  0  0  0
  1 22  1  0  0  0  0
  1 23  1  0  0  0  0
  1 24  1  0  0  0  0
  2  3  1  0  0  0  0
  2 25  1  0  0  0  0
  2 26  1  0  0  0  0
  3  4  1  0  0  0  0
  3 10  1  0  0  0  0
  3 27  1  0  0  0  0
  4  5  1  0  0  0  0
  5  9  1  0  0  0  0
  5  6  1  0  0  0  0
  5 28  1  0  0  0  0
  6  7  1  0  0  0  0
  6 29  1  0  0  0  0
  6 30  1  0  0  0  0
  7  8  1  0  0  0  0
  7 31  1  0  0  0  0
  7 32  1  0  0  0  0
  8  9  1  0  0  0  0
  8 33  1  0  0  0  0
  8 34  1  0  0  0  0
  9 35  1  0  0  0  0
  9 36  1  0  0  0  0
 10 11  2  0  0  0  0
 10 12  1  0  0  0  0
 12 13  1  0  0  0  0
 12 37  1  0  0  0  0
 13 14  1  0  0  0  0
 13 15  1  0  0  0  0
 13 38  1  0  0  0  0
 14 39  1  0  0  0  0
 14 40  1  0  0  0  0
 14 41  1  0  0  0  0
 15 16  1  0  0  0  0
 15 17  1  0  0  0  0
 15 42  1  0  0  0  0
 16 43  1  0  0  0  0
 16 44  1  0  0  0  0
 16 45  1  0  0  0  0
 17 21  1  0  0  0  0
 17 18  1  0  0  0  0
 18 19  2  0  0  0  0
 18 46  1  0  0  0  0
 19 20  1  0  0  0  0
 20 21  2  0  0  0  0
 20 47  1  0  0  0  0
M  END
> <s_m_source_file>
AV-unprocessed.smi

> <i_m_source_file_index>
2902

> <i_lp_mmshare_version>
43012

> <i_f3d_flags>
0

> <s_epik_input>
W0NIMl0xW0NIMl1bQ0gyXVtDSDJdW0NIXTFPW0NAQEhdKFtDSDJdW0NIM10pQyg9TylbTkhdW0NASF0oW0NIM10pW0NASF0oW0NIM10pbjJbY0hdbltjSF1uMg==

> <s_epik_cmdline>
J2VwaWtfcHl0aG9uJywgJy1waCcsICc3LjAnLCAnLXRuJywgJzgnLCAnLW1hJywgJzIwMCcsICctbWV0YWxfYmluZGluZycsICctaW1hZScsICc8aW5maWxlLm1hZT4nLCAnLW9tYWUnLCAnPG91dGZpbGUubWFlPic=

> <r_lp_tautomer_probability>
1

> <r_epik_Ionization_Penalty>
6.95617e-05

> <r_epik_Ionization_Penalty_Charging>
0

> <r_epik_Ionization_Penalty_Neutral>
6.95617e-05

> <r_epik_State_Penalty>
-0

> <r_epik_Charging_Adjusted_Penalty>
0

> <i_epik_Tot_Q>
0

> <i_epik_Tot_abs_Q>
0

> <r_epik_Metal_State_Penalty>
-0

> <b_epik_Metal_Only>
0

> <s_lp_Force_Field>
OPLS_2005

> <r_lp_Energy>
29.0587

> <b_lp_Chiralities_Consistent>
1

> <s_lp_Variant>
AV-unprocessed.smi:2902-4

> <Gold.Version>
5.8.1

> <Gold.Id.Protein>
6NUR|6NUR_protein|mol2

> <Gold.PLP.Fitness>
42.2737

> <Gold.PLP.PLP>
-38.3629

> <Gold.PLP.part.hbond>
-3.8810

> <Gold.PLP.part.metal>
0.0000

> <Gold.PLP.part.buried>
-2.7590

> <Gold.PLP.part.nonpolar>
-32.8867

> <Gold.PLP.part.repulsive>
0.3457

> <Gold.PLP.ligand.clash>
0.0000

> <Gold.PLP.ligand.torsion>
0.8979

> <Gold.PLP.Chemscore.Hbond>
1.8346

> <Gold.PLP.Chemscore.CHOScore>
0.0000

> <Gold.PLP.Chemscore.Metal>
0.0000

> <Gold.Chemscore.Hbonds>
donor molecule, donor type, donor heavy atom, donor atom, acceptor molecule, acceptor atom, score
      P1  H  6896  6907       L1    19  0.67
      P1  H  7989  7998       L1    11  0.28
      P1  H  8011  8017       L1    11  0.18
      P1  H 10752 10764       L1    21  1.00

> <Gold.PLP.Chemscore.Internal.Correction>
0.2028

> <Gold.Rescore>
     Score         DG    S(hbond)    S(metal)    S(lipo)     H(rot)  DE(clash)    DE(int)     intcor
     12.21     -15.29       1.59        0.00      97.38       2.69       0.34       2.74       ----

> <Gold.Chemscore.Fitness>
12.2075

> <Gold.Chemscore.DG>
-15.2859

> <Gold.Chemscore.ZeroCoef>
-5.4800

> <Gold.Chemscore.Hbond>
1.5890

> <Gold.Chemscore.Metal>
0.0000

> <Gold.Chemscore.Lipo>
97.3836

> <Gold.Chemscore.Internal_Hbond>
0.0000

> <Gold.Chemscore.DEClash>
0.3402

> <Gold.Chemscore.DEInternal>
2.7383

> <Gold.Chemscore.Rot>
2.6935

> <Gold.Chemscore.Internal.Correction>
   9.000000E+99

> <Gold.Chemscore.Hbonds>
donor molecule, donor type, donor heavy atom, donor atom, acceptor molecule, acceptor atom, score
      P1  H  6896  6907       L1    19  0.20
      P1  H  7989  7998       L1    11  0.03
      P1  H  8011  8017       L1    11  0.19
      P1  H 10752 10764       L1    21  0.85

> <Gold.Chemscore.Hbond.Weighted>
-5.3074

> <Gold.Chemscore.Metal.Weighted>
-0.0000

> <Gold.Chemscore.Lipo.Weighted>
-11.3939

> <Gold.Chemscore.Internal_Hbond.Weighted>
0.0000

> <Gold.Chemscore.DEClash.Weighted>
0.3402

> <Gold.Chemscore.DEInternal.Weighted>
2.7383

> <Gold.Chemscore.Rot.Weighted>
6.8954

> <Gold.Chemscore.Internal.Correction.Weighted>
   9.000000E+99

> <Gold.Protein.RotatedTorsions>
[ 6907 6896 6895 6894 ] final  -54.86 input  -60.11 | X-H torsion
[ 7974 7965 7964 7962 ] final -129.04 input  175.53 | X-H torsion
[ 8008 7997 7996 7995 ] final -109.65 input   59.86 | X-H torsion
[ 10167 10162 10161 10158 ] final   73.07 input  -65.29 | X-H torsion
[ 10718 10713 10712 10709 ] final  127.87 input   66.30 | X-H torsion
[ 10763 10752 10751 10750 ] final  -25.36 input  -60.55 | X-H torsion
[ 11005 11000 10999 10996 ] final -161.16 input  -57.11 | X-H torsion

> <Gold.Protein.ActiveResidues>
 VAL166  LYS551  ARG553  GLY616  TRP617  ASP618  TYR619  PRO620  LYS621  CYS622 
 ASP623  PHE694  ASN695  SER759  ASP760  ASP761  ALA762  ILE779  LEU786  VAL792 
 PHE793  MET794  SER795  GLU796  ALA797  LYS798  CYS799  TRP800  GLU811  SER814 

> <Gold.Protein.RotatedAtoms>
  150.8301  134.7550  159.6846 H   0  0  0  0  0  0  0  0  0  0  0  0  # atno 6907 bound_to 6896
  152.4407  134.5594  159.9899 H   0  0  0  0  0  0  0  0  0  0  0  0  # atno 6908 bound_to 6896
  151.5757  133.3346  159.3034 H   0  0  0  0  0  0  0  0  0  0  0  0  # atno 6909 bound_to 6896
  144.9611  140.7447  143.4728 H   0  0  0  0  0  0  0  0  0  0  0  0  # atno 7974 bound_to 7965
  154.9626  140.0399  157.2197 H   0  0  0  0  0  0  0  0  0  0  0  0  # atno 8008 bound_to 7997
  154.7875  140.2829  155.5994 H   0  0  0  0  0  0  0  0  0  0  0  0  # atno 8009 bound_to 7997
  156.2945  140.2580  156.2715 H   0  0  0  0  0  0  0  0  0  0  0  0  # atno 8010 bound_to 7997
  140.0285  144.5484  150.7526 H   0  0  0  0  0  0  0  0  0  0  0  0  # atno 10167 bound_to 10162
  157.5295  131.1098  150.9031 H   0  0  0  0  0  0  0  0  0  0  0  0  # atno 10718 bound_to 10713
  153.6986  135.6957  153.5069 H   0  0  0  0  0  0  0  0  0  0  0  0  # atno 10763 bound_to 10752
  153.2359  135.4322  155.0645 H   0  0  0  0  0  0  0  0  0  0  0  0  # atno 10764 bound_to 10752
  154.8351  135.3496  154.6526 H   0  0  0  0  0  0  0  0  0  0  0  0  # atno 10765 bound_to 10752
  140.6235  134.4726  157.5225 H   0  0  0  0  0  0  0  0  0  0  0  0  # atno 11005 bound_to 11000
  145.2699  139.1959  143.4847 LP  0  0  0  0  0  0  0  0  0  0  0  0  # atno 17320 bound_to 7965
  146.3353  140.2643  142.8603 LP  0  0  0  0  0  0  0  0  0  0  0  0  # atno 17321 bound_to 7965
  140.7312  143.2692  151.3944 LP  0  0  0  0  0  0  0  0  0  0  0  0  # atno 17342 bound_to 10162
  139.6092  144.1134  152.2281 LP  0  0  0  0  0  0  0  0  0  0  0  0  # atno 17343 bound_to 10162
  156.9617  130.5458  149.5286 LP  0  0  0  0  0  0  0  0  0  0  0  0  # atno 17370 bound_to 10713
  156.0412  130.5494  150.8774 LP  0  0  0  0  0  0  0  0  0  0  0  0  # atno 17371 bound_to 10713
  139.9144  134.8277  156.1417 LP  0  0  0  0  0  0  0  0  0  0  0  0  # atno 17394 bound_to 11000
  141.0726  133.6790  156.2171 LP  0  0  0  0  0  0  0  0  0  0  0  0  # atno 17395 bound_to 11000

$$$$
