AV-unprocessed.smi:508|AV-procd|sdf|2759|dock2
  -GOLD-   2262023223D 1   1.00000     0.00000
 Structure written by MMmdl.
 48 50  0  0  0  0  0  0  0  0  2 V2000
  147.4869  141.2248  152.9837 C   0  0  0  0  0  0  0  0  0  0  0  0
  148.1139  141.5138  154.3495 C   0  0  0  0  0  0  0  0  0  0  0  0
  149.4217  140.9683  154.3797 O   0  0  0  0  0  0  0  0  0  0  0  0
  149.7529  140.4085  155.6395 C   0  0  0  0  0  0  0  0  0  0  0  0
  151.2815  140.4027  155.7836 C   0  0  0  0  0  0  0  0  0  0  0  0
  151.7327  139.7934  157.0309 N   0  0  0  0  0  0  0  0  0  0  0  0
  151.8619  140.3750  158.2549 C   0  0  0  0  0  0  0  0  0  0  0  0
  151.4943  141.7016  158.4916 N   0  0  0  0  0  0  0  0  0  0  0  0
  150.3502  142.3580  157.8633 C   0  0  0  0  0  0  0  0  0  0  0  0
  150.6653  143.7043  157.1815 C   0  0  0  0  0  0  0  0  0  0  0  0
  150.8826  144.8486  158.1827 C   0  0  0  0  0  0  0  0  0  0  0  0
  152.2992  144.9302  158.7795 C   0  0  0  0  0  0  0  0  0  0  0  0
  152.9751  143.5897  159.1228 C   0  0  0  0  0  0  0  0  0  0  0  0
  152.0272  142.4807  159.6062 C   0  0  0  0  0  0  0  0  0  0  0  0
  152.3849  139.5836  159.1945 N   0  0  0  0  0  0  0  0  0  0  0  0
  152.5771  138.3883  158.5195 C   0  0  0  0  0  0  0  0  0  0  0  0
  152.1934  138.4868  157.2195 C   0  0  0  0  0  0  0  0  0  0  0  0
  152.2977  137.3786  156.2463 C   0  0  0  0  0  0  0  0  0  0  0  0
  151.9504  137.5259  155.0763 O   0  0  0  0  0  0  0  0  0  0  0  0
  152.8057  136.2392  156.8146 N   0  5  0  0  0  0  0  0  0  0  0  0
  153.2028  136.0938  158.1273 C   0  0  0  0  0  0  0  0  0  0  0  0
  153.6463  135.0263  158.5510 O   0  0  0  0  0  0  0  0  0  0  0  0
  153.1049  137.1568  158.9892 N   0  0  0  0  0  0  0  0  0  0  0  0
  153.5150  137.0874  160.3952 C   0  0  0  0  0  0  0  0  0  0  0  0
  146.4773  141.6316  152.9243 H   0  0  0  0  0  0  0  0  0  0  0  0
  147.4270  140.1517  152.8003 H   0  0  0  0  0  0  0  0  0  0  0  0
  148.0751  141.6702  152.1814 H   0  0  0  0  0  0  0  0  0  0  0  0
  148.1518  142.5907  154.5199 H   0  0  0  0  0  0  0  0  0  0  0  0
  147.5041  141.0739  155.1400 H   0  0  0  0  0  0  0  0  0  0  0  0
  149.2908  140.9941  156.4327 H   0  0  0  0  0  0  0  0  0  0  0  0
  149.3558  139.3959  155.7148 H   0  0  0  0  0  0  0  0  0  0  0  0
  151.7363  139.8683  154.9500 H   0  0  0  0  0  0  0  0  0  0  0  0
  151.6758  141.4139  155.7156 H   0  0  0  0  0  0  0  0  0  0  0  0
  149.9234  141.6756  157.1313 H   0  0  0  0  0  0  0  0  0  0  0  0
  149.5680  142.4947  158.6109 H   0  0  0  0  0  0  0  0  0  0  0  0
  151.5042  143.6279  156.4914 H   0  0  0  0  0  0  0  0  0  0  0  0
  149.8034  143.9632  156.5661 H   0  0  0  0  0  0  0  0  0  0  0  0
  150.6668  145.7983  157.6921 H   0  0  0  0  0  0  0  0  0  0  0  0
  150.1497  144.7659  158.9861 H   0  0  0  0  0  0  0  0  0  0  0  0
  152.9488  145.4712  158.0906 H   0  0  0  0  0  0  0  0  0  0  0  0
  152.2506  145.5460  159.6781 H   0  0  0  0  0  0  0  0  0  0  0  0
  153.5432  143.2305  158.2629 H   0  0  0  0  0  0  0  0  0  0  0  0
  153.7189  143.7800  159.8970 H   0  0  0  0  0  0  0  0  0  0  0  0
  151.2250  142.8861  160.2241 H   0  0  0  0  0  0  0  0  0  0  0  0
  152.5880  141.8054  160.2533 H   0  0  0  0  0  0  0  0  0  0  0  0
  153.9752  136.1423  160.6841 H   0  0  0  0  0  0  0  0  0  0  0  0
  152.6501  137.2410  161.0408 H   0  0  0  0  0  0  0  0  0  0  0  0
  154.2378  137.8750  160.6105 H   0  0  0  0  0  0  0  0  0  0  0  0
  1  2  1  0  0  0  0
  1 25  1  0  0  0  0
  1 26  1  0  0  0  0
  1 27  1  0  0  0  0
  2  3  1  0  0  0  0
  2 28  1  0  0  0  0
  2 29  1  0  0  0  0
  3  4  1  0  0  0  0
  4  5  1  0  0  0  0
  4 30  1  0  0  0  0
  4 31  1  0  0  0  0
  5  6  1  0  0  0  0
  5 32  1  0  0  0  0
  5 33  1  0  0  0  0
  6 17  1  0  0  0  0
  6  7  1  0  0  0  0
  7  8  1  0  0  0  0
  7 15  2  0  0  0  0
  8 14  1  0  0  0  0
  8  9  1  0  0  0  0
  9 10  1  0  0  0  0
  9 34  1  0  0  0  0
  9 35  1  0  0  0  0
 10 11  1  0  0  0  0
 10 36  1  0  0  0  0
 10 37  1  0  0  0  0
 11 12  1  0  0  0  0
 11 38  1  0  0  0  0
 11 39  1  0  0  0  0
 12 13  1  0  0  0  0
 12 40  1  0  0  0  0
 12 41  1  0  0  0  0
 13 14  1  0  0  0  0
 13 42  1  0  0  0  0
 13 43  1  0  0  0  0
 14 44  1  0  0  0  0
 14 45  1  0  0  0  0
 15 16  1  0  0  0  0
 16 23  1  0  0  0  0
 16 17  2  0  0  0  0
 17 18  1  0  0  0  0
 18 19  2  0  0  0  0
 18 20  1  0  0  0  0
 20 21  1  0  0  0  0
 21 22  2  0  0  0  0
 21 23  1  0  0  0  0
 23 24  1  0  0  0  0
 24 46  1  0  0  0  0
 24 47  1  0  0  0  0
 24 48  1  0  0  0  0
M  CHG  1  20  -1
M  END
> <s_m_source_file>
AV-unprocessed.smi

> <i_m_source_file_index>
508

> <i_lp_mmshare_version>
43012

> <i_f3d_flags>
0

> <s_epik_input>
W0NIM11uMWMoPU8pW25IXWMoPU8pYyhjMTIpbihbQ0gyXVtDSDJdT1tDSDJdW0NIM10pYyhuMilOM1tDSDJdW0NIMl1bQ0gyXVtDSDJdW0NIMl1bQ0gyXTM=

> <s_epik_cmdline>
J2VwaWtfcHl0aG9uJywgJy1waCcsICc3LjAnLCAnLXRuJywgJzgnLCAnLW1hJywgJzIwMCcsICctbWV0YWxfYmluZGluZycsICctaW1hZScsICc8aW5maWxlLm1hZT4nLCAnLW9tYWUnLCAnPG91dGZpbGUubWFlPic=

> <r_lp_tautomer_probability>
1

> <r_epik_Ionization_Penalty>
6.1764

> <r_epik_Ionization_Penalty_Charging>
0.0751667

> <r_epik_Ionization_Penalty_Neutral>
6.10123

> <r_epik_State_Penalty>
6.09793

> <r_epik_Charging_Adjusted_Penalty>
6.17309

> <i_epik_Tot_Q>
-1

> <i_epik_Tot_abs_Q>
1

> <r_epik_Metal_State_Penalty>
2.04406

> <b_epik_Metal_Only>
1

> <s_lp_Force_Field>
OPLS_2005

> <r_lp_Energy>
49.0985

> <b_lp_Chiralities_Consistent>
1

> <s_lp_Variant>
AV-unprocessed.smi:508-2

> <Gold.Version>
5.8.1

> <Gold.Id.Protein>
6NUR|6NUR_protein|mol2

> <Gold.PLP.Fitness>
48.0423

> <Gold.PLP.PLP>
-40.1188

> <Gold.PLP.part.hbond>
-3.9432

> <Gold.PLP.part.metal>
0.0000

> <Gold.PLP.part.buried>
-1.5153

> <Gold.PLP.part.nonpolar>
-34.6034

> <Gold.PLP.part.repulsive>
0.1813

> <Gold.PLP.ligand.clash>
0.0000

> <Gold.PLP.ligand.torsion>
1.0712

> <Gold.PLP.Chemscore.Hbond>
3.1045

> <Gold.PLP.Chemscore.CHOScore>
0.0000

> <Gold.PLP.Chemscore.Metal>
0.0000

> <Gold.Chemscore.Hbonds>
donor molecule, donor type, donor heavy atom, donor atom, acceptor molecule, acceptor atom, score
      P1  H  6896  6908       L1    22  0.67
      P1  H  7989  7998       L1     3  0.08
      P1  H 10752 10764       L1    20  2.00

> <Gold.PLP.Chemscore.Internal.Correction>
0.7526

> <Gold.Rescore>
     Score         DG    S(hbond)    S(metal)    S(lipo)     H(rot)  DE(clash)    DE(int)     intcor
     13.26     -15.95       0.83        0.00      99.82       1.55       0.76       1.93       ----

> <Gold.Chemscore.Fitness>
13.2627

> <Gold.Chemscore.DG>
-15.9478

> <Gold.Chemscore.ZeroCoef>
-5.4800

> <Gold.Chemscore.Hbond>
0.8280

> <Gold.Chemscore.Metal>
0.0000

> <Gold.Chemscore.Lipo>
99.8224

> <Gold.Chemscore.Internal_Hbond>
0.0000

> <Gold.Chemscore.DEClash>
0.7598

> <Gold.Chemscore.DEInternal>
1.9254

> <Gold.Chemscore.Rot>
1.5534

> <Gold.Chemscore.Internal.Correction>
   9.000000E+99

> <Gold.Chemscore.Hbonds>
donor molecule, donor type, donor heavy atom, donor atom, acceptor molecule, acceptor atom, score
      P1  H  6896  6908       L1    22  0.51
      P1  H  7989  7998       L1     3  0.02
      P1  H 10752 10764       L1    20  0.30

> <Gold.Chemscore.Hbond.Weighted>
-2.7654

> <Gold.Chemscore.Metal.Weighted>
-0.0000

> <Gold.Chemscore.Lipo.Weighted>
-11.6792

> <Gold.Chemscore.Internal_Hbond.Weighted>
0.0000

> <Gold.Chemscore.DEClash.Weighted>
0.7598

> <Gold.Chemscore.DEInternal.Weighted>
1.9254

> <Gold.Chemscore.Rot.Weighted>
3.9768

> <Gold.Chemscore.Internal.Correction.Weighted>
   9.000000E+99

> <Gold.Protein.RotatedTorsions>
[ 6907 6896 6895 6894 ] final  -40.50 input  -60.11 | X-H torsion
[ 7974 7965 7964 7962 ] final   26.66 input  175.53 | X-H torsion
[ 8008 7997 7996 7995 ] final   76.95 input   59.86 | X-H torsion
[ 10167 10162 10161 10158 ] final  -55.10 input  -65.29 | X-H torsion
[ 10718 10713 10712 10709 ] final -103.52 input   66.30 | X-H torsion
[ 10763 10752 10751 10750 ] final   -2.43 input  -60.55 | X-H torsion
[ 11005 11000 10999 10996 ] final -113.48 input  -57.11 | X-H torsion

> <Gold.Protein.ActiveResidues>
 VAL166  LYS551  ARG553  GLY616  TRP617  ASP618  TYR619  PRO620  LYS621  CYS622 
 ASP623  PHE694  ASN695  SER759  ASP760  ASP761  ALA762  ILE779  LEU786  VAL792 
 PHE793  MET794  SER795  GLU796  ALA797  LYS798  CYS799  TRP800  GLU811  SER814 

> <Gold.Protein.RotatedAtoms>
  150.9777  134.9138  159.7825 H   0  0  0  0  0  0  0  0  0  0  0  0  # atno 6907 bound_to 6896
  152.5211  134.3453  159.9242 H   0  0  0  0  0  0  0  0  0  0  0  0  # atno 6908 bound_to 6896
  151.3461  133.3902  159.2710 H   0  0  0  0  0  0  0  0  0  0  0  0  # atno 6909 bound_to 6896
  146.1826  139.7297  142.8890 H   0  0  0  0  0  0  0  0  0  0  0  0  # atno 7974 bound_to 7965
  155.8346  140.3465  155.5593 H   0  0  0  0  0  0  0  0  0  0  0  0  # atno 8008 bound_to 7997
  155.8206  140.0912  157.1871 H   0  0  0  0  0  0  0  0  0  0  0  0  # atno 8009 bound_to 7997
  154.4004  140.1431  156.3482 H   0  0  0  0  0  0  0  0  0  0  0  0  # atno 8010 bound_to 7997
  140.6394  143.2499  151.5031 H   0  0  0  0  0  0  0  0  0  0  0  0  # atno 10167 bound_to 10162
  156.0268  130.5471  150.7265 H   0  0  0  0  0  0  0  0  0  0  0  0  # atno 10718 bound_to 10713
  153.3579  135.6989  153.6736 H   0  0  0  0  0  0  0  0  0  0  0  0  # atno 10763 bound_to 10752
  153.5436  135.3568  155.2729 H   0  0  0  0  0  0  0  0  0  0  0  0  # atno 10764 bound_to 10752
  154.8663  135.4209  154.2829 H   0  0  0  0  0  0  0  0  0  0  0  0  # atno 10765 bound_to 10752
  141.0611  133.9533  157.2664 H   0  0  0  0  0  0  0  0  0  0  0  0  # atno 11005 bound_to 11000
  145.4033  141.0388  143.3058 LP  0  0  0  0  0  0  0  0  0  0  0  0  # atno 17320 bound_to 7965
  144.8340  139.5580  143.6930 LP  0  0  0  0  0  0  0  0  0  0  0  0  # atno 17321 bound_to 7965
  139.5603  144.2173  152.1680 LP  0  0  0  0  0  0  0  0  0  0  0  0  # atno 17342 bound_to 10162
  140.1438  144.5177  150.6728 LP  0  0  0  0  0  0  0  0  0  0  0  0  # atno 17343 bound_to 10162
  157.4868  131.0907  151.0473 LP  0  0  0  0  0  0  0  0  0  0  0  0  # atno 17370 bound_to 10713
  157.0891  130.5935  149.5436 LP  0  0  0  0  0  0  0  0  0  0  0  0  # atno 17371 bound_to 10713
  139.9434  135.0188  156.8778 LP  0  0  0  0  0  0  0  0  0  0  0  0  # atno 17394 bound_to 11000
  140.5866  134.0301  155.7484 LP  0  0  0  0  0  0  0  0  0  0  0  0  # atno 17395 bound_to 11000

$$$$
