AV-unprocessed.smi:159|AV-procd|sdf|1340|dock3
  -GOLD-   2262019 33D 1   1.00000     0.00000
 Structure written by MMmdl.
 28 29  0  0  0  0  0  0  0  0  1 V2000
  146.4039  139.7483  153.0636 N   0  0  0  0  0  0  0  0  0  0  0  0
  147.4998  140.1218  153.7386 C   0  0  0  0  0  0  0  0  0  0  0  0
  147.5419  141.3997  154.4116 C   0  0  0  0  0  0  0  0  0  0  0  0
  148.6795  141.7047  155.0741 C   0  0  0  0  0  0  0  0  0  0  0  0
  149.7635  140.8360  155.1245 N   0  0  0  0  0  0  0  0  0  0  0  0
  151.0495  141.1780  155.8536 C   0  0  2  0  0  0  0  0  0  0  0  0
  151.3173  140.1777  156.9945 C   0  0  0  0  0  0  0  0  0  0  0  0
  151.5117  141.0856  158.1929 C   0  0  0  0  0  0  0  0  0  0  0  0
  150.6406  142.2835  157.8314 C   0  0  1  0  0  0  0  0  0  0  0  0
  150.9969  143.5602  158.6051 C   0  0  0  0  0  0  0  0  0  0  0  0
  150.5572  144.6943  157.8889 O   0  0  0  0  0  0  0  0  0  0  0  0
  150.9422  142.4388  156.4496 O   0  0  0  0  0  0  0  0  0  0  0  0
  149.6956  139.5983  154.4398 C   0  0  0  0  0  0  0  0  0  0  0  0
  150.6394  138.8086  154.4371 O   0  0  0  0  0  0  0  0  0  0  0  0
  148.5351  139.3059  153.7752 N   0  0  0  0  0  0  0  0  0  0  0  0
  151.8250  141.2026  155.0856 H   0  0  0  0  0  0  0  0  0  0  0  0
  149.5900  142.0199  157.9684 H   0  0  0  0  0  0  0  0  0  0  0  0
  146.3775  138.8553  152.5927 H   0  0  0  0  0  0  0  0  0  0  0  0
  145.6038  140.3632  153.0280 H   0  0  0  0  0  0  0  0  0  0  0  0
  146.7201  142.1015  154.4055 H   0  0  0  0  0  0  0  0  0  0  0  0
  148.7125  142.6625  155.5710 H   0  0  0  0  0  0  0  0  0  0  0  0
  150.4517  139.5303  157.1444 H   0  0  0  0  0  0  0  0  0  0  0  0
  152.1896  139.5605  156.7784 H   0  0  0  0  0  0  0  0  0  0  0  0
  151.2221  140.6159  159.1334 H   0  0  0  0  0  0  0  0  0  0  0  0
  152.5584  141.3845  158.2673 H   0  0  0  0  0  0  0  0  0  0  0  0
  150.4920  143.5665  159.5714 H   0  0  0  0  0  0  0  0  0  0  0  0
  152.0684  143.6224  158.7972 H   0  0  0  0  0  0  0  0  0  0  0  0
  149.9292  144.4156  157.2401 H   0  0  0  0  0  0  0  0  0  0  0  0
  1  2  1  0  0  0  0
  1 18  1  0  0  0  0
  1 19  1  0  0  0  0
  2 15  2  0  0  0  0
  2  3  1  0  0  0  0
  3  4  2  0  0  0  0
  3 20  1  0  0  0  0
  4  5  1  0  0  0  0
  4 21  1  0  0  0  0
  5  6  1  0  0  0  0
  5 13  1  0  0  0  0
  6 16  1  0  0  0  0
  6 12  1  0  0  0  0
  6  7  1  0  0  0  0
  7  8  1  0  0  0  0
  7 22  1  0  0  0  0
  7 23  1  0  0  0  0
  8  9  1  0  0  0  0
  8 24  1  0  0  0  0
  8 25  1  0  0  0  0
  9 17  1  0  0  0  0
  9 10  1  0  0  0  0
  9 12  1  0  0  0  0
 10 11  1  0  0  0  0
 10 26  1  0  0  0  0
 10 27  1  0  0  0  0
 11 28  1  0  0  0  0
 13 14  2  0  0  0  0
 13 15  1  0  0  0  0
M  END
> <s_m_source_file>
AV-unprocessed.smi

> <i_m_source_file_index>
159

> <i_lp_mmshare_version>
43012

> <i_f3d_flags>
0

> <s_epik_input>
W05IMl1jMVtjSF1bY0hdbihjKD1PKW4xKVtDQEhdMltDSDJdW0NIMl1bQ0BIXShPMilbQ0gyXVtPSF0=

> <s_epik_cmdline>
J2VwaWtfcHl0aG9uJywgJy1waCcsICc3LjAnLCAnLXRuJywgJzgnLCAnLW1hJywgJzIwMCcsICctbWV0YWxfYmluZGluZycsICctaW1hZScsICc8aW5maWxlLm1hZT4nLCAnLW9tYWUnLCAnPG91dGZpbGUubWFlPic=

> <r_lp_tautomer_probability>
0.99996

> <r_epik_Ionization_Penalty>
0.00126102

> <r_epik_Ionization_Penalty_Charging>
4.46248e-08

> <r_epik_Ionization_Penalty_Neutral>
0.00126097

> <r_epik_State_Penalty>
1.15523e-05

> <r_epik_Charging_Adjusted_Penalty>
1.1597e-05

> <i_epik_Tot_Q>
0

> <i_epik_Tot_abs_Q>
0

> <r_epik_Metal_State_Penalty>
-0

> <b_epik_Metal_Only>
0

> <s_epik_Chemistry_Notes>
This compound contains an acetal/aminal-like group ( X-CH(R)-Y where X, Y are N, S, or O) that may be acid/base labile, releasing an aldehyde.

> <s_lp_Force_Field>
OPLS_2005

> <r_lp_Energy>
23.8013

> <b_lp_Chiralities_Consistent>
1

> <s_lp_Variant>
AV-unprocessed.smi:159-2

> <Gold.Version>
5.8.1

> <Gold.Id.Protein>
6NUR|6NUR_protein|mol2

> <Gold.PLP.Fitness>
34.2057

> <Gold.PLP.PLP>
-26.1625

> <Gold.PLP.part.hbond>
-2.8330

> <Gold.PLP.part.metal>
0.0000

> <Gold.PLP.part.buried>
-2.6484

> <Gold.PLP.part.nonpolar>
-20.9986

> <Gold.PLP.part.repulsive>
1.4519

> <Gold.PLP.ligand.clash>
0.0000

> <Gold.PLP.ligand.torsion>
0.1899

> <Gold.PLP.Chemscore.Hbond>
1.8000

> <Gold.PLP.Chemscore.CHOScore>
1.0000

> <Gold.PLP.Chemscore.Metal>
0.0000

> <Gold.Chemscore.Hbonds>
donor molecule, donor type, donor heavy atom, donor atom, acceptor molecule, acceptor atom, score
      L1  H     1    19       P1 10175  0.88
      L1  H    11    28       P1  8028  1.00
      L1  C     4    21       P1  8028  1.00

> <Gold.PLP.Chemscore.Internal.Correction>
0.0230

> <Gold.Rescore>
     Score         DG    S(hbond)    S(metal)    S(lipo)     H(rot)  DE(clash)    DE(int)     intcor
      9.08     -10.60       1.64        0.00      42.74       2.09       0.31       1.22       ----

> <Gold.Chemscore.Fitness>
9.0780

> <Gold.Chemscore.DG>
-10.6032

> <Gold.Chemscore.ZeroCoef>
-5.4800

> <Gold.Chemscore.Hbond>
1.6414

> <Gold.Chemscore.Metal>
0.0000

> <Gold.Chemscore.Lipo>
42.7384

> <Gold.Chemscore.Internal_Hbond>
0.0000

> <Gold.Chemscore.DEClash>
0.3097

> <Gold.Chemscore.DEInternal>
1.2155

> <Gold.Chemscore.Rot>
2.0935

> <Gold.Chemscore.Internal.Correction>
   9.000000E+99

> <Gold.Chemscore.Hbonds>
donor molecule, donor type, donor heavy atom, donor atom, acceptor molecule, acceptor atom, score
      L1  H     1    19       P1 10175  0.77
      L1  H    11    28       P1  8028  0.37

> <Gold.Chemscore.Hbond.Weighted>
-5.4822

> <Gold.Chemscore.Metal.Weighted>
-0.0000

> <Gold.Chemscore.Lipo.Weighted>
-5.0004

> <Gold.Chemscore.Internal_Hbond.Weighted>
0.0000

> <Gold.Chemscore.DEClash.Weighted>
0.3097

> <Gold.Chemscore.DEInternal.Weighted>
1.2155

> <Gold.Chemscore.Rot.Weighted>
5.3594

> <Gold.Chemscore.Internal.Correction.Weighted>
   9.000000E+99

> <Gold.Protein.RotatedTorsions>
[ 6907 6896 6895 6894 ] final -126.41 input  -60.11 | X-H torsion
[ 7974 7965 7964 7962 ] final -150.52 input  175.53 | X-H torsion
[ 8008 7997 7996 7995 ] final   46.43 input   59.86 | X-H torsion
[ 10167 10162 10161 10158 ] final  107.79 input  -65.29 | X-H torsion
[ 10718 10713 10712 10709 ] final -146.52 input   66.30 | X-H torsion
[ 10763 10752 10751 10750 ] final  -46.77 input  -60.55 | X-H torsion
[ 11005 11000 10999 10996 ] final  -80.04 input  -57.11 | X-H torsion

> <Gold.Protein.ActiveResidues>
 VAL166  LYS551  ARG553  GLY616  TRP617  ASP618  TYR619  PRO620  LYS621  CYS622 
 ASP623  PHE694  ASN695  SER759  ASP760  ASP761  ALA762  ILE779  LEU786  VAL792 
 PHE793  MET794  SER795  GLU796  ALA797  LYS798  CYS799  TRP800  GLU811  SER814 

> <Gold.Protein.RotatedAtoms>
  150.8966  133.7173  159.2889 H   0  0  0  0  0  0  0  0  0  0  0  0  # atno 6907 bound_to 6896
  151.4706  135.1044  159.9760 H   0  0  0  0  0  0  0  0  0  0  0  0  # atno 6908 bound_to 6896
  152.4852  133.8307  159.7157 H   0  0  0  0  0  0  0  0  0  0  0  0  # atno 6909 bound_to 6896
  144.7903  140.4921  143.5777 H   0  0  0  0  0  0  0  0  0  0  0  0  # atno 7974 bound_to 7965
  155.3523  140.3414  155.4239 H   0  0  0  0  0  0  0  0  0  0  0  0  # atno 8008 bound_to 7997
  156.1757  140.1647  156.8402 H   0  0  0  0  0  0  0  0  0  0  0  0  # atno 8009 bound_to 7997
  154.5279  140.0752  156.8275 H   0  0  0  0  0  0  0  0  0  0  0  0  # atno 8010 bound_to 7997
  139.6898  144.7109  151.1368 H   0  0  0  0  0  0  0  0  0  0  0  0  # atno 10167 bound_to 10162
  156.3960  130.7910  151.2116 H   0  0  0  0  0  0  0  0  0  0  0  0  # atno 10718 bound_to 10713
  154.0505  135.6632  153.4800 H   0  0  0  0  0  0  0  0  0  0  0  0  # atno 10763 bound_to 10752
  153.0465  135.5111  154.7755 H   0  0  0  0  0  0  0  0  0  0  0  0  # atno 10764 bound_to 10752
  154.6760  135.3037  154.9644 H   0  0  0  0  0  0  0  0  0  0  0  0  # atno 10765 bound_to 10752
  141.1668  133.7132  156.8214 H   0  0  0  0  0  0  0  0  0  0  0  0  # atno 11005 bound_to 11000
  145.5812  139.1489  143.3234 LP  0  0  0  0  0  0  0  0  0  0  0  0  # atno 17320 bound_to 7965
  146.2152  140.5942  142.9042 LP  0  0  0  0  0  0  0  0  0  0  0  0  # atno 17321 bound_to 7965
  140.7679  143.5575  150.9135 LP  0  0  0  0  0  0  0  0  0  0  0  0  # atno 17342 bound_to 10162
  139.9252  143.6558  152.3088 LP  0  0  0  0  0  0  0  0  0  0  0  0  # atno 17343 bound_to 10162
  157.7501  131.0301  150.4123 LP  0  0  0  0  0  0  0  0  0  0  0  0  # atno 17370 bound_to 10713
  156.4393  130.3988  149.6708 LP  0  0  0  0  0  0  0  0  0  0  0  0  # atno 17371 bound_to 10713
  140.2117  134.8823  157.3281 LP  0  0  0  0  0  0  0  0  0  0  0  0  # atno 17394 bound_to 11000
  140.2080  134.4173  155.7627 LP  0  0  0  0  0  0  0  0  0  0  0  0  # atno 17395 bound_to 11000

$$$$
