AV-unprocessed.smi:3030|AV-procd|sdf|11537|dock6
  -GOLD-   2272016483D 1   1.00000     0.00000
 Structure written by MMmdl.
 52 53  0  0  0  0  0  0  0  0  1 V2000
  145.5349  142.4371  154.6830 C   0  0  0  0  0  0  0  0  0  0  0  0
  146.8607  142.6132  153.9345 C   0  0  0  0  0  0  0  0  0  0  0  0
  147.7812  141.5174  154.2019 N   0  0  0  0  0  0  0  0  0  0  0  0
  149.0376  141.7455  154.7538 C   0  0  0  0  0  0  0  0  0  0  0  0
  149.9543  140.7818  154.9679 C   0  0  0  0  0  0  0  0  0  0  0  0
  149.6369  139.3865  154.6014 C   0  0  0  0  0  0  0  0  0  0  0  0
  150.4521  138.4815  154.7790 O   0  0  0  0  0  0  0  0  0  0  0  0
  148.2934  139.1427  154.0129 C   0  0  0  0  0  0  0  0  0  0  0  0
  148.0002  137.8171  153.6543 N   0  0  0  0  0  0  0  0  0  0  0  0
  146.9887  137.0314  154.0666 C   0  0  0  0  0  0  0  0  0  0  0  0
  146.1332  137.3352  154.8976 O   0  0  0  0  0  0  0  0  0  0  0  0
  147.0338  135.8385  153.4571 N   0  0  0  0  0  0  0  0  0  0  0  0
  146.0983  134.7327  153.6708 C   0  0  2  0  0  0  0  0  0  0  0  0
  146.8057  133.5518  154.3678 C   0  0  0  0  0  0  0  0  0  0  0  0
  147.8181  132.8433  153.4502 C   0  0  1  0  0  0  0  0  0  0  0  0
  148.4965  131.6660  154.1648 C   0  0  0  0  0  0  0  0  0  0  0  0
  147.1223  132.3933  152.1563 C   0  0  0  0  0  0  0  0  0  0  0  0
  146.4419  133.5690  151.4374 C   0  0  0  0  0  0  0  0  0  0  0  0
  145.4179  134.3042  152.3390 C   0  0  2  0  0  0  0  0  0  0  0  0
  144.6986  135.4753  151.5997 C   0  0  0  0  0  0  0  0  0  0  0  0
  143.4949  136.0247  152.3902 C   0  0  0  0  0  0  0  0  0  0  0  0
  144.2256  135.0849  150.1862 C   0  0  0  0  0  0  0  0  0  0  0  0
  147.4682  140.2074  153.8452 C   0  0  0  0  0  0  0  0  0  0  0  0
  144.8585  143.2655  154.4729 H   0  0  0  0  0  0  0  0  0  0  0  0
  145.6930  142.4011  155.7612 H   0  0  0  0  0  0  0  0  0  0  0  0
  145.0343  141.5152  154.3855 H   0  0  0  0  0  0  0  0  0  0  0  0
  146.6750  142.6780  152.8617 H   0  0  0  0  0  0  0  0  0  0  0  0
  147.3249  143.5576  154.2211 H   0  0  0  0  0  0  0  0  0  0  0  0
  149.2305  142.7771  155.0107 H   0  0  0  0  0  0  0  0  0  0  0  0
  150.9178  141.0060  155.4020 H   0  0  0  0  0  0  0  0  0  0  0  0
  148.6602  137.4009  153.0133 H   0  0  0  0  0  0  0  0  0  0  0  0
  147.7748  135.6772  152.7908 H   0  0  0  0  0  0  0  0  0  0  0  0
  145.3164  135.0647  154.3546 H   0  0  0  0  0  0  0  0  0  0  0  0
  147.3019  133.8986  155.2753 H   0  0  0  0  0  0  0  0  0  0  0  0
  146.0528  132.8328  154.6943 H   0  0  0  0  0  0  0  0  0  0  0  0
  148.5998  133.5561  153.1839 H   0  0  0  0  0  0  0  0  0  0  0  0
  147.7691  130.9105  154.4637 H   0  0  0  0  0  0  0  0  0  0  0  0
  149.0175  132.0006  155.0623 H   0  0  0  0  0  0  0  0  0  0  0  0
  149.2308  131.1841  153.5188 H   0  0  0  0  0  0  0  0  0  0  0  0
  147.8468  131.9284  151.4867 H   0  0  0  0  0  0  0  0  0  0  0  0
  146.3786  131.6280  152.3831 H   0  0  0  0  0  0  0  0  0  0  0  0
  147.1996  134.2705  151.0861 H   0  0  0  0  0  0  0  0  0  0  0  0
  145.9563  133.1714  150.5475 H   0  0  0  0  0  0  0  0  0  0  0  0
  144.6490  133.5755  152.6016 H   0  0  0  0  0  0  0  0  0  0  0  0
  145.4066  136.2961  151.4794 H   0  0  0  0  0  0  0  0  0  0  0  0
  142.7767  135.2363  152.6173 H   0  0  0  0  0  0  0  0  0  0  0  0
  142.9710  136.7960  151.8251 H   0  0  0  0  0  0  0  0  0  0  0  0
  143.7987  136.4853  153.3300 H   0  0  0  0  0  0  0  0  0  0  0  0
  143.5868  134.2017  150.2106 H   0  0  0  0  0  0  0  0  0  0  0  0
  145.0605  134.8807  149.5171 H   0  0  0  0  0  0  0  0  0  0  0  0
  143.6546  135.8918  149.7261 H   0  0  0  0  0  0  0  0  0  0  0  0
  146.4868  140.1246  153.4059 H   0  0  0  0  0  0  0  0  0  0  0  0
  1  2  1  0  0  0  0
  1 24  1  0  0  0  0
  1 25  1  0  0  0  0
  1 26  1  0  0  0  0
  2  3  1  0  0  0  0
  2 27  1  0  0  0  0
  2 28  1  0  0  0  0
  3 23  1  0  0  0  0
  3  4  1  0  0  0  0
  4  5  2  0  0  0  0
  4 29  1  0  0  0  0
  5  6  1  0  0  0  0
  5 30  1  0  0  0  0
  6  7  2  0  0  0  0
  6  8  1  0  0  0  0
  8  9  1  0  0  0  0
  8 23  2  0  0  0  0
  9 10  1  0  0  0  0
  9 31  1  0  0  0  0
 10 11  2  0  0  0  0
 10 12  1  0  0  0  0
 12 13  1  0  0  0  0
 12 32  1  0  0  0  0
 13 19  1  0  0  0  0
 13 14  1  0  0  0  0
 13 33  1  0  0  0  0
 14 15  1  0  0  0  0
 14 34  1  0  0  0  0
 14 35  1  0  0  0  0
 15 16  1  0  0  0  0
 15 17  1  0  0  0  0
 15 36  1  0  0  0  0
 16 37  1  0  0  0  0
 16 38  1  0  0  0  0
 16 39  1  0  0  0  0
 17 18  1  0  0  0  0
 17 40  1  0  0  0  0
 17 41  1  0  0  0  0
 18 19  1  0  0  0  0
 18 42  1  0  0  0  0
 18 43  1  0  0  0  0
 19 20  1  0  0  0  0
 19 44  1  0  0  0  0
 20 21  1  0  0  0  0
 20 22  1  0  0  0  0
 20 45  1  0  0  0  0
 21 46  1  0  0  0  0
 21 47  1  0  0  0  0
 21 48  1  0  0  0  0
 22 49  1  0  0  0  0
 22 50  1  0  0  0  0
 22 51  1  0  0  0  0
 23 52  1  0  0  0  0
M  END
> <s_m_source_file>
AV-unprocessed.smi

> <i_m_source_file_index>
3030

> <i_lp_mmshare_version>
43012

> <i_f3d_flags>
0

> <s_epik_input>
W0NIM11bQ0gyXW4xW2NIXVtjSF1jKD1PKWMoW2NIXTEpW05IXUMoPU8pW05IXVtDQEBIXTJbQ0gyXVtDQEBIXShbQ0gzXSlbQ0gyXVtDSDJdW0NASF0yW0NIXShbQ0gzXSlbQ0gzXQ==

> <s_epik_cmdline>
J2VwaWtfcHl0aG9uJywgJy1waCcsICc3LjAnLCAnLXRuJywgJzgnLCAnLW1hJywgJzIwMCcsICctbWV0YWxfYmluZGluZycsICctaW1hZScsICc8aW5maWxlLm1hZT4nLCAnLW9tYWUnLCAnPG91dGZpbGUubWFlPic=

> <r_lp_tautomer_probability>
1

> <r_epik_Ionization_Penalty>
0.00147933

> <r_epik_Ionization_Penalty_Charging>
0.00145753

> <r_epik_Ionization_Penalty_Neutral>
2.17987e-05

> <r_epik_State_Penalty>
0.00097457

> <r_epik_Charging_Adjusted_Penalty>
0.0024321

> <i_epik_Tot_Q>
0

> <i_epik_Tot_abs_Q>
0

> <r_epik_Metal_State_Penalty>
-0

> <b_epik_Metal_Only>
0

> <s_lp_Force_Field>
OPLS_2005

> <r_lp_Energy>
9.06052

> <b_lp_Chiralities_Consistent>
1

> <s_lp_Variant>
AV-unprocessed.smi:3030-5

> <Gold.Version>
5.8.1

> <Gold.Id.Protein>
6NUR|6NUR_protein|mol2

> <Gold.PLP.Fitness>
44.6786

> <Gold.PLP.PLP>
-37.0671

> <Gold.PLP.part.hbond>
-1.9824

> <Gold.PLP.part.metal>
0.0000

> <Gold.PLP.part.buried>
-0.6407

> <Gold.PLP.part.nonpolar>
-35.6756

> <Gold.PLP.part.repulsive>
0.2104

> <Gold.PLP.ligand.clash>
0.0000

> <Gold.PLP.ligand.torsion>
0.6934

> <Gold.PLP.Chemscore.Hbond>
1.9760

> <Gold.PLP.Chemscore.CHOScore>
1.0000

> <Gold.PLP.Chemscore.Metal>
0.0000

> <Gold.Chemscore.Hbonds>
donor molecule, donor type, donor heavy atom, donor atom, acceptor molecule, acceptor atom, score
      L1  H     9    31       P1  7948  0.98
      L1  H    12    32       P1  7948  1.00
      L1  C     4    29       P1  8028  1.00

> <Gold.PLP.Chemscore.Internal.Correction>
0.0704

> <Gold.Rescore>
     Score         DG    S(hbond)    S(metal)    S(lipo)     H(rot)  DE(clash)    DE(int)     intcor
     17.16     -18.34       1.85        0.00      84.72       1.27       0.52       0.66       ----

> <Gold.Chemscore.Fitness>
17.1609

> <Gold.Chemscore.DG>
-18.3376

> <Gold.Chemscore.ZeroCoef>
-5.4800

> <Gold.Chemscore.Hbond>
1.8540

> <Gold.Chemscore.Metal>
0.0000

> <Gold.Chemscore.Lipo>
84.7233

> <Gold.Chemscore.Internal_Hbond>
0.0000

> <Gold.Chemscore.DEClash>
0.5165

> <Gold.Chemscore.DEInternal>
0.6602

> <Gold.Chemscore.Rot>
1.2685

> <Gold.Chemscore.Internal.Correction>
   9.000000E+99

> <Gold.Chemscore.Hbonds>
donor molecule, donor type, donor heavy atom, donor atom, acceptor molecule, acceptor atom, score
      L1  H     9    31       P1  7948  0.93
      L1  H    12    32       P1  7948  0.94

> <Gold.Chemscore.Hbond.Weighted>
-6.1924

> <Gold.Chemscore.Metal.Weighted>
-0.0000

> <Gold.Chemscore.Lipo.Weighted>
-9.9126

> <Gold.Chemscore.Internal_Hbond.Weighted>
0.0000

> <Gold.Chemscore.DEClash.Weighted>
0.5165

> <Gold.Chemscore.DEInternal.Weighted>
0.6602

> <Gold.Chemscore.Rot.Weighted>
3.2474

> <Gold.Chemscore.Internal.Correction.Weighted>
   9.000000E+99

> <Gold.Protein.RotatedTorsions>
[ 6907 6896 6895 6894 ] final   97.09 input  -60.11 | X-H torsion
[ 7974 7965 7964 7962 ] final   92.84 input  175.53 | X-H torsion
[ 8008 7997 7996 7995 ] final -154.28 input   59.86 | X-H torsion
[ 10167 10162 10161 10158 ] final   81.25 input  -65.29 | X-H torsion
[ 10718 10713 10712 10709 ] final -130.26 input   66.30 | X-H torsion
[ 10763 10752 10751 10750 ] final  171.72 input  -60.55 | X-H torsion
[ 11005 11000 10999 10996 ] final -105.07 input  -57.11 | X-H torsion

> <Gold.Protein.ActiveResidues>
 VAL166  LYS551  ARG553  GLY616  TRP617  ASP618  TYR619  PRO620  LYS621  CYS622 
 ASP623  PHE694  ASN695  SER759  ASP760  ASP761  ALA762  ILE779  LEU786  VAL792 
 PHE793  MET794  SER795  GLU796  ALA797  LYS798  CYS799  TRP800  GLU811  SER814 

> <Gold.Protein.RotatedAtoms>
  152.5427  134.0786  159.8225 H   0  0  0  0  0  0  0  0  0  0  0  0  # atno 6907 bound_to 6896
  151.0890  133.5323  159.2623 H   0  0  0  0  0  0  0  0  0  0  0  0  # atno 6908 bound_to 6896
  151.2121  135.0494  159.8969 H   0  0  0  0  0  0  0  0  0  0  0  0  # atno 6909 bound_to 6896
  145.4870  139.2277  143.2851 H   0  0  0  0  0  0  0  0  0  0  0  0  # atno 7974 bound_to 7965
  155.6839  140.0747  157.2474 H   0  0  0  0  0  0  0  0  0  0  0  0  # atno 8008 bound_to 7997
  154.4100  140.1677  156.2065 H   0  0  0  0  0  0  0  0  0  0  0  0  # atno 8009 bound_to 7997
  155.9510  140.3377  155.6411 H   0  0  0  0  0  0  0  0  0  0  0  0  # atno 8010 bound_to 7997
  139.9412  144.6089  150.8250 H   0  0  0  0  0  0  0  0  0  0  0  0  # atno 10167 bound_to 10162
  156.2127  130.6928  151.0667 H   0  0  0  0  0  0  0  0  0  0  0  0  # atno 10718 bound_to 10713
  154.4160  135.2757  155.2006 H   0  0  0  0  0  0  0  0  0  0  0  0  # atno 10763 bound_to 10752
  154.3972  135.6052  153.5880 H   0  0  0  0  0  0  0  0  0  0  0  0  # atno 10764 bound_to 10752
  152.9832  135.5917  154.4448 H   0  0  0  0  0  0  0  0  0  0  0  0  # atno 10765 bound_to 10752
  141.1071  133.8777  157.1689 H   0  0  0  0  0  0  0  0  0  0  0  0  # atno 11005 bound_to 11000
  146.2307  140.5661  142.8976 LP  0  0  0  0  0  0  0  0  0  0  0  0  # atno 17320 bound_to 7965
  144.7856  140.5929  143.6576 LP  0  0  0  0  0  0  0  0  0  0  0  0  # atno 17321 bound_to 7965
  140.7610  143.3165  151.2721 LP  0  0  0  0  0  0  0  0  0  0  0  0  # atno 17342 bound_to 10162
  139.6703  144.0032  152.2749 LP  0  0  0  0  0  0  0  0  0  0  0  0  # atno 17343 bound_to 10162
  157.7047  131.0761  150.6707 LP  0  0  0  0  0  0  0  0  0  0  0  0  # atno 17370 bound_to 10713
  156.6767  130.4555  149.5640 LP  0  0  0  0  0  0  0  0  0  0  0  0  # atno 17371 bound_to 10713
  139.9946  135.0052  157.0053 LP  0  0  0  0  0  0  0  0  0  0  0  0  # atno 17394 bound_to 11000
  140.4874  134.1227  155.7227 LP  0  0  0  0  0  0  0  0  0  0  0  0  # atno 17395 bound_to 11000

$$$$
