AV-unprocessed.smi:34|AV-procd|sdf|222|dock1
  -GOLD-   2262015543D 1   1.00000     0.00000
 Structure written by MMmdl.
 55 59  0  0  0  0  0  0  0  0  1 V2000
  149.5031  130.1032  154.5628 O   0  0  0  0  0  0  0  0  0  0  0  0
  148.8040  131.0158  154.1214 C   0  0  0  0  0  0  0  0  0  0  0  0
  149.0685  132.4095  154.4294 N   0  0  0  0  0  0  0  0  0  0  0  0
  150.0042  132.9135  155.2670 C   0  0  0  0  0  0  0  0  0  0  0  0
  150.7152  132.1304  156.1207 N   0  0  0  0  0  0  0  0  0  0  0  0
  151.6259  132.6750  156.9337 C   0  0  0  0  0  0  0  0  0  0  0  0
  151.9750  133.9580  157.0557 N   0  0  0  0  0  0  0  0  0  0  0  0
  151.2596  134.7485  156.2048 C   0  0  0  0  0  0  0  0  0  0  0  0
  150.2628  134.3085  155.2915 C   0  0  0  0  0  0  0  0  0  0  0  0
  149.7499  135.3967  154.5975 N   0  0  0  0  0  0  0  0  0  0  0  0
  150.4138  136.4168  155.0721 C   0  0  0  0  0  0  0  0  0  0  0  0
  151.3407  136.1142  156.0486 N   0  0  0  0  0  0  0  0  0  0  0  0
  152.2751  137.0194  156.7945 C   0  0  1  0  0  0  0  0  0  0  0  0
  152.2671  138.2710  156.1752 O   0  0  0  0  0  0  0  0  0  0  0  0
  151.4288  139.1500  156.9140 C   0  0  2  0  0  0  0  0  0  0  0  0
  151.7292  140.6131  156.5712 C   0  0  0  0  0  0  0  0  0  0  0  0
  150.5322  141.2305  156.1278 O   0  0  0  0  0  0  0  0  0  0  0  0
  149.9651  140.8507  154.9672 C   0  0  0  0  0  0  0  0  0  0  0  0
  150.5097  140.1001  154.1551 O   0  0  0  0  0  0  0  0  0  0  0  0
  148.6081  141.4364  154.7665 C   0  0  0  0  0  0  0  0  0  0  0  0
  148.1405  141.6674  153.4516 C   0  0  0  0  0  0  0  0  0  0  0  0
  146.8644  142.2210  153.2309 C   0  0  0  0  0  0  0  0  0  0  0  0
  146.0401  142.5508  154.3225 C   0  0  0  0  0  0  0  0  0  0  0  0
  146.4931  142.3255  155.6355 C   0  0  0  0  0  0  0  0  0  0  0  0
  147.7689  141.7713  155.8583 C   0  0  0  0  0  0  0  0  0  0  0  0
  151.7372  138.7533  158.3561 C   0  0  2  0  0  0  0  0  0  0  0  0
  152.9105  139.2611  158.7400 F   0  0  0  0  0  0  0  0  0  0  0  0
  151.8460  137.2379  158.2670 C   0  0  1  0  0  0  0  0  0  0  0  0
  150.6112  136.6390  158.6221 O   0  0  0  0  0  0  0  0  0  0  0  0
  147.6878  130.7582  153.1523 C   0  0  0  0  0  0  0  0  0  0  0  0
  147.2874  129.4327  152.8711 C   0  0  0  0  0  0  0  0  0  0  0  0
  146.2328  129.1826  151.9714 C   0  0  0  0  0  0  0  0  0  0  0  0
  145.5635  130.2559  151.3535 C   0  0  0  0  0  0  0  0  0  0  0  0
  145.9465  131.5799  151.6391 C   0  0  0  0  0  0  0  0  0  0  0  0
  147.0026  131.8313  152.5369 C   0  0  0  0  0  0  0  0  0  0  0  0
  148.4877  133.0856  153.9553 H   0  0  0  0  0  0  0  0  0  0  0  0
  152.1491  131.9835  157.5780 H   0  0  0  0  0  0  0  0  0  0  0  0
  150.2421  137.4204  154.7114 H   0  0  0  0  0  0  0  0  0  0  0  0
  153.2544  136.5514  156.6862 H   0  0  0  0  0  0  0  0  0  0  0  0
  150.3819  138.9253  156.7035 H   0  0  0  0  0  0  0  0  0  0  0  0
  152.0896  141.1364  157.4578 H   0  0  0  0  0  0  0  0  0  0  0  0
  152.5055  140.6792  155.8072 H   0  0  0  0  0  0  0  0  0  0  0  0
  148.7555  141.4225  152.5973 H   0  0  0  0  0  0  0  0  0  0  0  0
  146.5184  142.3928  152.2222 H   0  0  0  0  0  0  0  0  0  0  0  0
  145.0619  142.9760  154.1533 H   0  0  0  0  0  0  0  0  0  0  0  0
  145.8615  142.5786  156.4744 H   0  0  0  0  0  0  0  0  0  0  0  0
  148.0854  141.6115  156.8788 H   0  0  0  0  0  0  0  0  0  0  0  0
  150.9880  139.1013  159.0686 H   0  0  0  0  0  0  0  0  0  0  0  0
  152.6195  136.8519  158.9321 H   0  0  0  0  0  0  0  0  0  0  0  0
  150.1216  136.4744  157.8300 H   0  0  0  0  0  0  0  0  0  0  0  0
  147.7907  128.5981  153.3382 H   0  0  0  0  0  0  0  0  0  0  0  0
  145.9368  128.1666  151.7561 H   0  0  0  0  0  0  0  0  0  0  0  0
  144.7544  130.0635  150.6642 H   0  0  0  0  0  0  0  0  0  0  0  0
  145.4287  132.4039  151.1709 H   0  0  0  0  0  0  0  0  0  0  0  0
  147.2753  132.8550  152.7493 H   0  0  0  0  0  0  0  0  0  0  0  0
  1  2  2  0  0  0  0
  2  3  1  0  0  0  0
  2 30  1  0  0  0  0
  3  4  1  0  0  0  0
  3 36  1  0  0  0  0
  4  9  1  0  0  0  0
  4  5  2  0  0  0  0
  5  6  1  0  0  0  0
  6  7  2  0  0  0  0
  6 37  1  0  0  0  0
  7  8  1  0  0  0  0
  8 12  1  0  0  0  0
  8  9  2  0  0  0  0
  9 10  1  0  0  0  0
 10 11  2  0  0  0  0
 11 12  1  0  0  0  0
 11 38  1  0  0  0  0
 12 13  1  0  0  0  0
 13 28  1  0  0  0  0
 13 14  1  0  0  0  0
 13 39  1  0  0  0  0
 14 15  1  0  0  0  0
 15 16  1  0  0  0  0
 15 26  1  0  0  0  0
 15 40  1  0  0  0  0
 16 17  1  0  0  0  0
 16 41  1  0  0  0  0
 16 42  1  0  0  0  0
 17 18  1  0  0  0  0
 18 19  2  0  0  0  0
 18 20  1  0  0  0  0
 20 25  1  0  0  0  0
 20 21  2  0  0  0  0
 21 22  1  0  0  0  0
 21 43  1  0  0  0  0
 22 23  2  0  0  0  0
 22 44  1  0  0  0  0
 23 24  1  0  0  0  0
 23 45  1  0  0  0  0
 24 25  2  0  0  0  0
 24 46  1  0  0  0  0
 25 47  1  0  0  0  0
 26 27  1  0  0  0  0
 26 28  1  0  0  0  0
 26 48  1  0  0  0  0
 28 29  1  0  0  0  0
 28 49  1  0  0  0  0
 29 50  1  0  0  0  0
 30 35  1  0  0  0  0
 30 31  2  0  0  0  0
 31 32  1  0  0  0  0
 31 51  1  0  0  0  0
 32 33  2  0  0  0  0
 32 52  1  0  0  0  0
 33 34  1  0  0  0  0
 33 53  1  0  0  0  0
 34 35  2  0  0  0  0
 34 54  1  0  0  0  0
 35 55  1  0  0  0  0
M  END
> <s_m_source_file>
AV-unprocessed.smi

> <i_m_source_file_index>
34

> <i_lp_mmshare_version>
43012

> <i_f3d_flags>
0

> <s_epik_input>
W2NIXTFbY0hdW2NIXVtjSF1bY0hdYzFDKD1PKVtOSF1jKG5bY0hdbjIpYyhjMjMpbltjSF1uM1tDQEBIXTRPW0NASF0oW0NAQEhdKEYpW0NASF00W09IXSlbQ0gyXU9DKD1PKWM1W2NIXVtjSF1bY0hdW2NIXVtjSF01

> <s_epik_cmdline>
J2VwaWtfcHl0aG9uJywgJy1waCcsICc3LjAnLCAnLXRuJywgJzgnLCAnLW1hJywgJzIwMCcsICctbWV0YWxfYmluZGluZycsICctaW1hZScsICc8aW5maWxlLm1hZT4nLCAnLW9tYWUnLCAnPG91dGZpbGUubWFlPic=

> <r_lp_tautomer_probability>
1

> <r_epik_Ionization_Penalty>
0.00257489

> <r_epik_Ionization_Penalty_Charging>
0

> <r_epik_Ionization_Penalty_Neutral>
0.00257489

> <r_epik_State_Penalty>
0.00519398

> <r_epik_Charging_Adjusted_Penalty>
0.00519398

> <i_epik_Tot_Q>
0

> <i_epik_Tot_abs_Q>
0

> <r_epik_Metal_State_Penalty>
0.335891

> <b_epik_Metal_Only>
0

> <s_epik_Chemistry_Notes>
This compound has an ester and may undergo hydrolysis at high or low pH. This compound contains an acetal/aminal-like group ( X-CH(R)-Y where X, Y are N, S, or O) that may be acid/base labile, releasing an aldehyde.

> <s_lp_Force_Field>
OPLS_2005

> <r_lp_Energy>
48.7075

> <b_lp_Chiralities_Consistent>
1

> <s_lp_Variant>
AV-unprocessed.smi:34-8

> <Gold.Version>
5.8.1

> <Gold.Id.Protein>
6NUR|6NUR_protein|mol2

> <Gold.PLP.Fitness>
56.7591

> <Gold.PLP.PLP>
-53.2246

> <Gold.PLP.part.hbond>
-3.0000

> <Gold.PLP.part.metal>
0.0000

> <Gold.PLP.part.buried>
-9.5186

> <Gold.PLP.part.nonpolar>
-41.2010

> <Gold.PLP.part.repulsive>
1.3557

> <Gold.PLP.ligand.clash>
0.0000

> <Gold.PLP.ligand.torsion>
1.5150

> <Gold.PLP.Chemscore.Hbond>
1.9920

> <Gold.PLP.Chemscore.CHOScore>
0.0000

> <Gold.PLP.Chemscore.Metal>
0.0000

> <Gold.Chemscore.Hbonds>
donor molecule, donor type, donor heavy atom, donor atom, acceptor molecule, acceptor atom, score
      P1  H  6896  6908       L1    29  0.98
      P1  H  7989  7998       L1    19  0.94

> <Gold.PLP.Chemscore.Internal.Correction>
0.5886

> <Gold.Rescore>
     Score         DG    S(hbond)    S(metal)    S(lipo)     H(rot)  DE(clash)    DE(int)     intcor
     13.29     -16.05       1.81        0.00      98.31       2.72       0.09       2.68       ----

> <Gold.Chemscore.Fitness>
13.2891

> <Gold.Chemscore.DG>
-16.0544

> <Gold.Chemscore.ZeroCoef>
-5.4800

> <Gold.Chemscore.Hbond>
1.8082

> <Gold.Chemscore.Metal>
0.0000

> <Gold.Chemscore.Lipo>
98.3087

> <Gold.Chemscore.Internal_Hbond>
0.0000

> <Gold.Chemscore.DEClash>
0.0867

> <Gold.Chemscore.DEInternal>
2.6786

> <Gold.Chemscore.Rot>
2.7215

> <Gold.Chemscore.Internal.Correction>
   9.000000E+99

> <Gold.Chemscore.Hbonds>
donor molecule, donor type, donor heavy atom, donor atom, acceptor molecule, acceptor atom, score
      P1  H  6896  6908       L1    29  0.53
      P1  H  7989  7998       L1    19  0.58

> <Gold.Chemscore.Hbond.Weighted>
-6.0393

> <Gold.Chemscore.Metal.Weighted>
-0.0000

> <Gold.Chemscore.Lipo.Weighted>
-11.5021

> <Gold.Chemscore.Internal_Hbond.Weighted>
0.0000

> <Gold.Chemscore.DEClash.Weighted>
0.0867

> <Gold.Chemscore.DEInternal.Weighted>
2.6786

> <Gold.Chemscore.Rot.Weighted>
6.9670

> <Gold.Chemscore.Internal.Correction.Weighted>
   9.000000E+99

> <Gold.Protein.RotatedTorsions>
[ 6907 6896 6895 6894 ] final -156.65 input  -60.11 | X-H torsion
[ 7974 7965 7964 7962 ] final -158.32 input  175.53 | X-H torsion
[ 8008 7997 7996 7995 ] final   22.34 input   59.86 | X-H torsion
[ 10167 10162 10161 10158 ] final  114.53 input  -65.29 | X-H torsion
[ 10718 10713 10712 10709 ] final   92.95 input   66.30 | X-H torsion
[ 10763 10752 10751 10750 ] final -145.64 input  -60.55 | X-H torsion
[ 11005 11000 10999 10996 ] final    5.81 input  -57.11 | X-H torsion

> <Gold.Protein.ActiveResidues>
 VAL166  LYS551  ARG553  GLY616  TRP617  ASP618  TYR619  PRO620  LYS621  CYS622 
 ASP623  PHE694  ASN695  SER759  ASP760  ASP761  ALA762  ILE779  LEU786  VAL792 
 PHE793  MET794  SER795  GLU796  ALA797  LYS798  CYS799  TRP800  GLU811  SER814 

> <Gold.Protein.RotatedAtoms>
  151.2909  133.4166  159.2632 H   0  0  0  0  0  0  0  0  0  0  0  0  # atno 6907 bound_to 6896
  151.0278  134.9517  159.8105 H   0  0  0  0  0  0  0  0  0  0  0  0  # atno 6908 bound_to 6896
  152.5339  134.2871  159.9081 H   0  0  0  0  0  0  0  0  0  0  0  0  # atno 6909 bound_to 6896
  144.7510  140.3844  143.6048 H   0  0  0  0  0  0  0  0  0  0  0  0  # atno 7974 bound_to 7965
  154.9643  140.3082  155.5016 H   0  0  0  0  0  0  0  0  0  0  0  0  # atno 8008 bound_to 7997
  156.2973  140.2295  156.4669 H   0  0  0  0  0  0  0  0  0  0  0  0  # atno 8009 bound_to 7997
  154.7936  140.0438  157.1208 H   0  0  0  0  0  0  0  0  0  0  0  0  # atno 8010 bound_to 7997
  139.6382  144.7121  151.2292 H   0  0  0  0  0  0  0  0  0  0  0  0  # atno 10167 bound_to 10162
  157.6957  131.0461  150.3960 H   0  0  0  0  0  0  0  0  0  0  0  0  # atno 10718 bound_to 10713
  154.8374  135.3407  154.6537 H   0  0  0  0  0  0  0  0  0  0  0  0  # atno 10763 bound_to 10752
  153.7150  135.6961  153.5032 H   0  0  0  0  0  0  0  0  0  0  0  0  # atno 10764 bound_to 10752
  153.2423  135.4380  155.0664 H   0  0  0  0  0  0  0  0  0  0  0  0  # atno 10765 bound_to 10752
  140.5665  134.0142  155.7992 H   0  0  0  0  0  0  0  0  0  0  0  0  # atno 11005 bound_to 11000
  145.6943  139.1646  143.2629 LP  0  0  0  0  0  0  0  0  0  0  0  0  # atno 17320 bound_to 7965
  146.1461  140.6991  142.9344 LP  0  0  0  0  0  0  0  0  0  0  0  0  # atno 17321 bound_to 7965
  140.7476  143.6359  150.8379 LP  0  0  0  0  0  0  0  0  0  0  0  0  # atno 17342 bound_to 10162
  139.9993  143.5761  152.2881 LP  0  0  0  0  0  0  0  0  0  0  0  0  # atno 17343 bound_to 10162
  156.4358  130.3981  149.6730 LP  0  0  0  0  0  0  0  0  0  0  0  0  # atno 17370 bound_to 10713
  156.3931  130.7637  151.2639 LP  0  0  0  0  0  0  0  0  0  0  0  0  # atno 17371 bound_to 10713
  141.1082  133.9659  157.2958 LP  0  0  0  0  0  0  0  0  0  0  0  0  # atno 17394 bound_to 11000
  139.9382  135.0194  156.8624 LP  0  0  0  0  0  0  0  0  0  0  0  0  # atno 17395 bound_to 11000

$$$$
