AV-unprocessed.smi:3208|AV-procd|sdf|12262|dock1
  -GOLD-   2272018 93D 1   1.00000     0.00000
 Structure written by MMmdl.
 30 30  0  0  0  0  0  0  0  0  3 V2000
  150.5653  145.2792  160.0810 C   0  0  0  0  0  0  0  0  0  0  0  0
  151.8061  145.5524  159.6504 C   0  0  0  0  0  0  0  0  0  0  0  0
  152.5230  144.7887  158.5592 C   0  0  0  0  0  0  0  0  0  0  0  0
  153.1822  143.6528  159.1060 O   0  0  0  0  0  0  0  0  0  0  0  0
  152.3467  142.7379  159.8110 C   0  0  2  0  0  0  0  0  0  0  0  0
  153.2017  142.0787  160.9040 C   0  0  0  0  0  0  0  0  0  0  0  0
  151.7628  141.6920  158.8472 C   0  0  0  0  0  0  0  0  0  0  0  0
  151.6565  140.5189  159.2087 O   0  0  0  0  0  0  0  0  0  0  0  0
  151.4124  142.1522  157.6318 N   0  0  0  0  0  0  0  0  0  0  0  0
  150.8556  141.4384  156.5348 C   0  0  0  0  0  0  0  0  0  0  0  0
  149.8010  141.9120  155.8246 N   0  3  0  0  0  0  0  0  0  0  0  0
  149.2517  141.2599  154.7775 C   0  0  0  0  0  0  0  0  0  0  0  0
  149.7768  140.0177  154.3730 C   0  0  0  0  0  0  0  0  0  0  0  0
  150.8725  139.4788  155.0759 C   0  0  0  0  0  0  0  0  0  0  0  0
  151.4171  140.1921  156.1650 C   0  0  0  0  0  0  0  0  0  0  0  0
  152.4794  139.6681  156.8474 O   0  5  0  0  0  0  0  0  0  0  0  0
  149.9883  144.4703  159.6572 H   0  0  0  0  0  0  0  0  0  0  0  0
  150.1096  145.8645  160.8662 H   0  0  0  0  0  0  0  0  0  0  0  0
  152.3522  146.3698  160.0983 H   0  0  0  0  0  0  0  0  0  0  0  0
  151.7844  144.4753  157.8202 H   0  0  0  0  0  0  0  0  0  0  0  0
  153.2313  145.4499  158.0584 H   0  0  0  0  0  0  0  0  0  0  0  0
  151.5380  143.2873  160.2972 H   0  0  0  0  0  0  0  0  0  0  0  0
  152.6233  141.3528  161.4767 H   0  0  0  0  0  0  0  0  0  0  0  0
  153.5750  142.8263  161.6042 H   0  0  0  0  0  0  0  0  0  0  0  0
  154.0661  141.5634  160.4833 H   0  0  0  0  0  0  0  0  0  0  0  0
  151.5635  143.1365  157.4627 H   0  0  0  0  0  0  0  0  0  0  0  0
  148.4158  141.7490  154.2992 H   0  0  0  0  0  0  0  0  0  0  0  0
  149.3471  139.4858  153.5371 H   0  0  0  0  0  0  0  0  0  0  0  0
  151.2905  138.5273  154.7808 H   0  0  0  0  0  0  0  0  0  0  0  0
  149.4027  142.8111  156.0983 H   0  0  0  0  0  0  0  0  0  0  0  0
  1  2  2  0  0  0  0
  1 17  1  0  0  0  0
  1 18  1  0  0  0  0
  2  3  1  0  0  0  0
  2 19  1  0  0  0  0
  3  4  1  0  0  0  0
  3 20  1  0  0  0  0
  3 21  1  0  0  0  0
  4  5  1  0  0  0  0
  5  6  1  0  0  0  0
  5  7  1  0  0  0  0
  5 22  1  0  0  0  0
  6 23  1  0  0  0  0
  6 24  1  0  0  0  0
  6 25  1  0  0  0  0
  7  8  2  0  0  0  0
  7  9  1  0  0  0  0
  9 26  1  0  0  0  0
  9 10  1  0  0  0  0
 10 15  2  0  0  0  0
 10 11  1  0  0  0  0
 11 30  1  0  0  0  0
 11 12  2  0  0  0  0
 12 27  1  0  0  0  0
 12 13  1  0  0  0  0
 13 28  1  0  0  0  0
 13 14  2  0  0  0  0
 14 15  1  0  0  0  0
 14 29  1  0  0  0  0
 15 16  1  0  0  0  0
M  CHG  1  11   1
M  CHG  1  16  -1
M  END
> <s_m_source_file>
AV-unprocessed.smi

> <i_m_source_file_index>
3208

> <i_lp_mmshare_version>
43012

> <i_f3d_flags>
0

> <s_epik_input>
W0NIMl09W0NIXVtDSDJdT1tDQEhdKFtDSDNdKUMoPU8pW05IXWMxbltjSF1bY0hdW2NIXWMxW09IXQ==

> <s_epik_cmdline>
J2VwaWtfcHl0aG9uJywgJy1waCcsICc3LjAnLCAnLXRuJywgJzgnLCAnLW1hJywgJzIwMCcsICctbWV0YWxfYmluZGluZycsICctaW1hZScsICc8aW5maWxlLm1hZT4nLCAnLW9tYWUnLCAnPG91dGZpbGUubWFlPic=

> <r_lp_tautomer_probability>
0.56342

> <r_epik_Ionization_Penalty>
0.29395

> <r_epik_Ionization_Penalty_Charging>
0.0267837

> <r_epik_Ionization_Penalty_Neutral>
0.267166

> <r_epik_State_Penalty>
0.587031

> <r_epik_Charging_Adjusted_Penalty>
0.613815

> <i_epik_Tot_Q>
0

> <i_epik_Tot_abs_Q>
2

> <r_epik_Metal_State_Penalty>
2.67911

> <b_epik_Metal_Only>
0

> <s_lp_Force_Field>
OPLS_2005

> <r_lp_Energy>
5.5941

> <b_lp_Chiralities_Consistent>
1

> <s_lp_Variant>
AV-unprocessed.smi:3208-3

> <Gold.Version>
5.8.1

> <Gold.Id.Protein>
6NUR|6NUR_protein|mol2

> <Gold.PLP.Fitness>
49.7921

> <Gold.PLP.PLP>
-40.2700

> <Gold.PLP.part.hbond>
-2.0000

> <Gold.PLP.part.metal>
0.0000

> <Gold.PLP.part.buried>
-2.6740

> <Gold.PLP.part.nonpolar>
-35.8358

> <Gold.PLP.part.repulsive>
0.1896

> <Gold.PLP.ligand.clash>
0.0000

> <Gold.PLP.ligand.torsion>
1.5451

> <Gold.PLP.Chemscore.Hbond>
3.9840

> <Gold.PLP.Chemscore.CHOScore>
0.0000

> <Gold.PLP.Chemscore.Metal>
0.0000

> <Gold.Chemscore.Hbonds>
donor molecule, donor type, donor heavy atom, donor atom, acceptor molecule, acceptor atom, score
      L1  H    11    30       P1  8028  2.00
      P1  H  7997  8009       L1    16  2.00

> <Gold.PLP.Chemscore.Internal.Correction>
0.6603

> <Gold.Rescore>
     Score         DG    S(hbond)    S(metal)    S(lipo)     H(rot)  DE(clash)    DE(int)     intcor
     12.67     -18.00       1.94        0.00      88.94       1.70       0.06       5.28       ----

> <Gold.Chemscore.Fitness>
12.6652

> <Gold.Chemscore.DG>
-18.0039

> <Gold.Chemscore.ZeroCoef>
-5.4800

> <Gold.Chemscore.Hbond>
1.9355

> <Gold.Chemscore.Metal>
0.0000

> <Gold.Chemscore.Lipo>
88.9412

> <Gold.Chemscore.Internal_Hbond>
0.0000

> <Gold.Chemscore.DEClash>
0.0553

> <Gold.Chemscore.DEInternal>
5.2834

> <Gold.Chemscore.Rot>
1.6979

> <Gold.Chemscore.Internal.Correction>
   9.000000E+99

> <Gold.Chemscore.Hbonds>
donor molecule, donor type, donor heavy atom, donor atom, acceptor molecule, acceptor atom, score
      L1  H    11    30       P1  8028  0.89
      P1  H  7997  8009       L1    16  0.99

> <Gold.Chemscore.Hbond.Weighted>
-6.4644

> <Gold.Chemscore.Metal.Weighted>
-0.0000

> <Gold.Chemscore.Lipo.Weighted>
-10.4061

> <Gold.Chemscore.Internal_Hbond.Weighted>
0.0000

> <Gold.Chemscore.DEClash.Weighted>
0.0553

> <Gold.Chemscore.DEInternal.Weighted>
5.2834

> <Gold.Chemscore.Rot.Weighted>
4.3467

> <Gold.Chemscore.Internal.Correction.Weighted>
   9.000000E+99

> <Gold.Protein.RotatedTorsions>
[ 6907 6896 6895 6894 ] final  109.26 input  -60.11 | X-H torsion
[ 7974 7965 7964 7962 ] final  -98.37 input  175.53 | X-H torsion
[ 8008 7997 7996 7995 ] final -175.77 input   59.86 | X-H torsion
[ 10167 10162 10161 10158 ] final -124.71 input  -65.29 | X-H torsion
[ 10718 10713 10712 10709 ] final  152.44 input   66.30 | X-H torsion
[ 10763 10752 10751 10750 ] final  131.92 input  -60.55 | X-H torsion
[ 11005 11000 10999 10996 ] final  -95.61 input  -57.11 | X-H torsion

> <Gold.Protein.ActiveResidues>
 VAL166  LYS551  ARG553  GLY616  TRP617  ASP618  TYR619  PRO620  LYS621  CYS622 
 ASP623  PHE694  ASN695  SER759  ASP760  ASP761  ALA762  ILE779  LEU786  VAL792 
 PHE793  MET794  SER795  GLU796  ALA797  LYS798  CYS799  TRP800  GLU811  SER814 

> <Gold.Protein.RotatedAtoms>
  152.5075  133.8970  159.7421 H   0  0  0  0  0  0  0  0  0  0  0  0  # atno 6907 bound_to 6896
  150.9395  133.6665  159.2800 H   0  0  0  0  0  0  0  0  0  0  0  0  # atno 6908 bound_to 6896
  151.3981  135.0971  159.9600 H   0  0  0  0  0  0  0  0  0  0  0  0  # atno 6909 bound_to 6896
  145.3215  140.9422  143.2713 H   0  0  0  0  0  0  0  0  0  0  0  0  # atno 7974 bound_to 7965
  155.9867  140.1192  157.0676 H   0  0  0  0  0  0  0  0  0  0  0  0  # atno 8008 bound_to 7997
  154.4199  140.1134  156.5577 H   0  0  0  0  0  0  0  0  0  0  0  0  # atno 8009 bound_to 7997
  155.6398  140.3473  155.4713 H   0  0  0  0  0  0  0  0  0  0  0  0  # atno 8010 bound_to 7997
  139.9899  143.5652  152.2346 H   0  0  0  0  0  0  0  0  0  0  0  0  # atno 10167 bound_to 10162
  157.2578  131.0792  151.1686 H   0  0  0  0  0  0  0  0  0  0  0  0  # atno 10718 bound_to 10713
  153.7823  135.3166  155.3367 H   0  0  0  0  0  0  0  0  0  0  0  0  # atno 10763 bound_to 10752
  154.8157  135.4638  154.0639 H   0  0  0  0  0  0  0  0  0  0  0  0  # atno 10764 bound_to 10752
  153.1932  135.6911  153.8412 H   0  0  0  0  0  0  0  0  0  0  0  0  # atno 10765 bound_to 10752
  141.1437  133.8038  157.0459 H   0  0  0  0  0  0  0  0  0  0  0  0  # atno 11005 bound_to 11000
  144.8936  139.4742  143.6666 LP  0  0  0  0  0  0  0  0  0  0  0  0  # atno 17320 bound_to 7965
  146.3080  139.7648  142.9041 LP  0  0  0  0  0  0  0  0  0  0  0  0  # atno 17321 bound_to 7965
  139.6348  144.7648  151.2461 LP  0  0  0  0  0  0  0  0  0  0  0  0  # atno 17342 bound_to 10162
  140.7459  143.6417  150.8328 LP  0  0  0  0  0  0  0  0  0  0  0  0  # atno 17343 bound_to 10162
  157.3208  130.6936  149.6268 LP  0  0  0  0  0  0  0  0  0  0  0  0  # atno 17370 bound_to 10713
  155.9664  130.4336  150.5012 LP  0  0  0  0  0  0  0  0  0  0  0  0  # atno 17371 bound_to 10713
  140.0663  134.9727  157.1391 LP  0  0  0  0  0  0  0  0  0  0  0  0  # atno 17394 bound_to 11000
  140.3775  134.2323  155.7173 LP  0  0  0  0  0  0  0  0  0  0  0  0  # atno 17395 bound_to 11000

$$$$
