AV-unprocessed.smi:105|AV-procd|sdf|1009|dock1
  -GOLD-   2262018 03D 1   1.00000     0.00000
 Structure written by MMmdl.
 42 45  0  0  0  0  0  0  0  0  1 V2000
  144.5068  136.6046  152.3016 C   0  0  0  0  0  0  0  0  0  0  0  0
  145.4504  137.0547  151.3580 C   0  0  0  0  0  0  0  0  0  0  0  0
  146.5345  137.8537  151.7708 C   0  0  0  0  0  0  0  0  0  0  0  0
  146.6781  138.2085  153.1285 C   0  0  0  0  0  0  0  0  0  0  0  0
  147.8543  139.0660  153.5684 C   0  0  0  0  0  0  0  0  0  0  0  0
  149.1689  138.4742  153.3414 N   0  0  0  0  0  0  0  0  0  0  0  0
  150.2383  138.8775  154.0622 C   0  0  0  0  0  0  0  0  0  0  0  0
  151.4277  138.2255  153.9779 N   0  0  0  0  0  0  0  0  0  0  0  0
  152.4688  138.6361  154.7088 C   0  0  0  0  0  0  0  0  0  0  0  0
  152.5340  139.6521  155.5723 N   0  0  0  0  0  0  0  0  0  0  0  0
  151.3406  140.3080  155.6593 C   0  0  0  0  0  0  0  0  0  0  0  0
  150.1529  139.9857  154.9442 C   0  0  0  0  0  0  0  0  0  0  0  0
  149.1344  140.8649  155.2874 N   0  0  0  0  0  0  0  0  0  0  0  0
  149.6872  141.6616  156.1613 C   0  0  0  0  0  0  0  0  0  0  0  0
  151.0110  141.4037  156.4418 N   0  0  0  0  0  0  0  0  0  0  0  0
  151.8485  142.1286  157.3832 C   0  0  2  0  0  0  0  0  0  0  0  0
  152.2965  141.2465  158.5671 C   0  0  0  0  0  0  0  0  0  0  0  0
  153.1613  142.0993  159.5031 C   0  0  0  0  0  0  0  0  0  0  0  0
  152.3705  143.3373  159.9383 C   0  0  0  0  0  0  0  0  0  0  0  0
  151.8589  144.0911  158.6994 C   0  0  0  0  0  0  0  0  0  0  0  0
  151.1068  143.2084  157.8707 O   0  0  0  0  0  0  0  0  0  0  0  0
  145.7320  137.7522  154.0718 C   0  0  0  0  0  0  0  0  0  0  0  0
  144.6481  136.9533  153.6588 C   0  0  0  0  0  0  0  0  0  0  0  0
  143.6758  135.9918  151.9851 H   0  0  0  0  0  0  0  0  0  0  0  0
  145.3428  136.7869  150.3173 H   0  0  0  0  0  0  0  0  0  0  0  0
  147.2536  138.1957  151.0408 H   0  0  0  0  0  0  0  0  0  0  0  0
  147.8098  140.0062  153.0188 H   0  0  0  0  0  0  0  0  0  0  0  0
  147.7520  139.3257  154.6230 H   0  0  0  0  0  0  0  0  0  0  0  0
  149.1855  137.6550  152.7510 H   0  0  0  0  0  0  0  0  0  0  0  0
  153.3789  138.0680  154.5854 H   0  0  0  0  0  0  0  0  0  0  0  0
  149.1373  142.4659  156.6286 H   0  0  0  0  0  0  0  0  0  0  0  0
  152.7098  142.5113  156.8321 H   0  0  0  0  0  0  0  0  0  0  0  0
  151.4218  140.8642  159.0939 H   0  0  0  0  0  0  0  0  0  0  0  0
  152.8582  140.3927  158.1872 H   0  0  0  0  0  0  0  0  0  0  0  0
  153.4617  141.5171  160.3747 H   0  0  0  0  0  0  0  0  0  0  0  0
  154.0781  142.4005  158.9948 H   0  0  0  0  0  0  0  0  0  0  0  0
  151.5250  143.0354  160.5576 H   0  0  0  0  0  0  0  0  0  0  0  0
  152.9922  143.9910  160.5505 H   0  0  0  0  0  0  0  0  0  0  0  0
  151.2203  144.9210  159.0022 H   0  0  0  0  0  0  0  0  0  0  0  0
  152.6884  144.5185  158.1339 H   0  0  0  0  0  0  0  0  0  0  0  0
  145.8339  138.0138  155.1149 H   0  0  0  0  0  0  0  0  0  0  0  0
  143.9258  136.6073  154.3832 H   0  0  0  0  0  0  0  0  0  0  0  0
  1 23  1  0  0  0  0
  1  2  2  0  0  0  0
  1 24  1  0  0  0  0
  2  3  1  0  0  0  0
  2 25  1  0  0  0  0
  3  4  2  0  0  0  0
  3 26  1  0  0  0  0
  4  5  1  0  0  0  0
  4 22  1  0  0  0  0
  5  6  1  0  0  0  0
  5 27  1  0  0  0  0
  5 28  1  0  0  0  0
  6  7  1  0  0  0  0
  6 29  1  0  0  0  0
  7 12  1  0  0  0  0
  7  8  2  0  0  0  0
  8  9  1  0  0  0  0
  9 10  2  0  0  0  0
  9 30  1  0  0  0  0
 10 11  1  0  0  0  0
 11 15  1  0  0  0  0
 11 12  2  0  0  0  0
 12 13  1  0  0  0  0
 13 14  2  0  0  0  0
 14 15  1  0  0  0  0
 14 31  1  0  0  0  0
 15 16  1  0  0  0  0
 16 21  1  0  0  0  0
 16 17  1  0  0  0  0
 16 32  1  0  0  0  0
 17 18  1  0  0  0  0
 17 33  1  0  0  0  0
 17 34  1  0  0  0  0
 18 19  1  0  0  0  0
 18 35  1  0  0  0  0
 18 36  1  0  0  0  0
 19 20  1  0  0  0  0
 19 37  1  0  0  0  0
 19 38  1  0  0  0  0
 20 21  1  0  0  0  0
 20 39  1  0  0  0  0
 20 40  1  0  0  0  0
 22 23  2  0  0  0  0
 22 41  1  0  0  0  0
 23 42  1  0  0  0  0
M  END
> <s_m_source_file>
AV-unprocessed.smi

> <i_m_source_file_index>
105

> <i_lp_mmshare_version>
43012

> <i_f3d_flags>
0

> <s_epik_input>
W2NIXTFbY0hdW2NIXVtjSF1bY0hdYzFbQ0gyXVtOSF1jKG5bY0hdbjIpYyhjMjMpbltjSF1uM1tDQEBIXTRbQ0gyXVtDSDJdW0NIMl1bQ0gyXU80

> <s_epik_cmdline>
J2VwaWtfcHl0aG9uJywgJy1waCcsICc3LjAnLCAnLXRuJywgJzgnLCAnLW1hJywgJzIwMCcsICctbWV0YWxfYmluZGluZycsICctaW1hZScsICc8aW5maWxlLm1hZT4nLCAnLW9tYWUnLCAnPG91dGZpbGUubWFlPic=

> <r_lp_tautomer_probability>
1

> <r_epik_Ionization_Penalty>
0.000653933

> <r_epik_Ionization_Penalty_Charging>
0

> <r_epik_Ionization_Penalty_Neutral>
0.000653933

> <r_epik_State_Penalty>
-0

> <r_epik_Charging_Adjusted_Penalty>
0

> <i_epik_Tot_Q>
0

> <i_epik_Tot_abs_Q>
0

> <r_epik_Metal_State_Penalty>
-0

> <b_epik_Metal_Only>
0

> <s_epik_Chemistry_Notes>
This compound contains an acetal/aminal-like group ( X-CH(R)-Y where X, Y are N, S, or O) that may be acid/base labile, releasing an aldehyde.

> <s_lp_Force_Field>
OPLS_2005

> <r_lp_Energy>
24.2362

> <b_lp_Chiralities_Consistent>
1

> <s_lp_Variant>
AV-unprocessed.smi:105-1

> <Gold.Version>
5.8.1

> <Gold.Id.Protein>
6NUR|6NUR_protein|mol2

> <Gold.PLP.Fitness>
50.0882

> <Gold.PLP.PLP>
-41.5075

> <Gold.PLP.part.hbond>
-3.0000

> <Gold.PLP.part.metal>
0.0000

> <Gold.PLP.part.buried>
2.6733

> <Gold.PLP.part.nonpolar>
-40.5049

> <Gold.PLP.part.repulsive>
0.4993

> <Gold.PLP.ligand.clash>
0.0000

> <Gold.PLP.ligand.torsion>
0.2177

> <Gold.PLP.Chemscore.Hbond>
2.0000

> <Gold.PLP.Chemscore.CHOScore>
0.9946

> <Gold.PLP.Chemscore.Metal>
0.0000

> <Gold.Chemscore.Hbonds>
donor molecule, donor type, donor heavy atom, donor atom, acceptor molecule, acceptor atom, score
      L1  H     6    29       P1  7948  1.00
      P1  H  7997  8010       L1    10  1.00
      L1  C    14    31       P1  8028  0.89

> <Gold.PLP.Chemscore.Internal.Correction>
0.0325

> <Gold.Rescore>
     Score         DG    S(hbond)    S(metal)    S(lipo)     H(rot)  DE(clash)    DE(int)     intcor
     14.32     -17.48       1.88        0.00      82.90       1.55       1.57       1.59       ----

> <Gold.Chemscore.Fitness>
14.3167

> <Gold.Chemscore.DG>
-17.4772

> <Gold.Chemscore.ZeroCoef>
-5.4800

> <Gold.Chemscore.Hbond>
1.8797

> <Gold.Chemscore.Metal>
0.0000

> <Gold.Chemscore.Lipo>
82.8988

> <Gold.Chemscore.Internal_Hbond>
0.0000

> <Gold.Chemscore.DEClash>
1.5706

> <Gold.Chemscore.DEInternal>
1.5899

> <Gold.Chemscore.Rot>
1.5547

> <Gold.Chemscore.Internal.Correction>
   9.000000E+99

> <Gold.Chemscore.Hbonds>
donor molecule, donor type, donor heavy atom, donor atom, acceptor molecule, acceptor atom, score
      L1  H     6    29       P1  7948  0.98
      P1  H  7997  8010       L1    10  0.91

> <Gold.Chemscore.Hbond.Weighted>
-6.2780

> <Gold.Chemscore.Metal.Weighted>
-0.0000

> <Gold.Chemscore.Lipo.Weighted>
-9.6992

> <Gold.Chemscore.Internal_Hbond.Weighted>
0.0000

> <Gold.Chemscore.DEClash.Weighted>
1.5706

> <Gold.Chemscore.DEInternal.Weighted>
1.5899

> <Gold.Chemscore.Rot.Weighted>
3.9800

> <Gold.Chemscore.Internal.Correction.Weighted>
   9.000000E+99

> <Gold.Protein.RotatedTorsions>
[ 6907 6896 6895 6894 ] final -110.40 input  -60.11 | X-H torsion
[ 7974 7965 7964 7962 ] final  109.10 input  175.53 | X-H torsion
[ 8008 7997 7996 7995 ] final   81.71 input   59.86 | X-H torsion
[ 10167 10162 10161 10158 ] final   -1.09 input  -65.29 | X-H torsion
[ 10718 10713 10712 10709 ] final   48.28 input   66.30 | X-H torsion
[ 10763 10752 10751 10750 ] final  147.35 input  -60.55 | X-H torsion
[ 11005 11000 10999 10996 ] final  130.09 input  -57.11 | X-H torsion

> <Gold.Protein.ActiveResidues>
 VAL166  LYS551  ARG553  GLY616  TRP617  ASP618  TYR619  PRO620  LYS621  CYS622 
 ASP623  PHE694  ASN695  SER759  ASP760  ASP761  ALA762  ILE779  LEU786  VAL792 
 PHE793  MET794  SER795  GLU796  ALA797  LYS798  CYS799  TRP800  GLU811  SER814 

> <Gold.Protein.RotatedAtoms>
  150.7623  133.9387  159.3449 H   0  0  0  0  0  0  0  0  0  0  0  0  # atno 6907 bound_to 6896
  151.7293  135.0876  160.0307 H   0  0  0  0  0  0  0  0  0  0  0  0  # atno 6908 bound_to 6896
  152.3600  133.6247  159.6044 H   0  0  0  0  0  0  0  0  0  0  0  0  # atno 6909 bound_to 6896
  145.2722  139.2662  143.3960 H   0  0  0  0  0  0  0  0  0  0  0  0  # atno 7974 bound_to 7965
  155.9008  140.3433  155.6025 H   0  0  0  0  0  0  0  0  0  0  0  0  # atno 8008 bound_to 7997
  155.7502  140.0819  157.2224 H   0  0  0  0  0  0  0  0  0  0  0  0  # atno 8009 bound_to 7997
  154.4043  140.1554  156.2702 H   0  0  0  0  0  0  0  0  0  0  0  0  # atno 8010 bound_to 7997
  140.6795  143.6817  150.8100 H   0  0  0  0  0  0  0  0  0  0  0  0  # atno 10167 bound_to 10162
  157.4671  130.8232  149.7948 H   0  0  0  0  0  0  0  0  0  0  0  0  # atno 10718 bound_to 10713
  154.0368  135.2893  155.3361 H   0  0  0  0  0  0  0  0  0  0  0  0  # atno 10763 bound_to 10752
  154.6954  135.5210  153.8453 H   0  0  0  0  0  0  0  0  0  0  0  0  # atno 10764 bound_to 10752
  153.0616  135.6616  154.0576 H   0  0  0  0  0  0  0  0  0  0  0  0  # atno 10765 bound_to 10752
  139.9652  134.9592  156.9242 H   0  0  0  0  0  0  0  0  0  0  0  0  # atno 11005 bound_to 11000
  146.3243  140.3168  142.8630 LP  0  0  0  0  0  0  0  0  0  0  0  0  # atno 17320 bound_to 7965
  144.9325  140.7991  143.5680 LP  0  0  0  0  0  0  0  0  0  0  0  0  # atno 17321 bound_to 7965
  140.0515  143.5245  152.2671 LP  0  0  0  0  0  0  0  0  0  0  0  0  # atno 17342 bound_to 10162
  139.6109  144.7608  151.2955 LP  0  0  0  0  0  0  0  0  0  0  0  0  # atno 17343 bound_to 10162
  156.0055  130.3857  150.2446 LP  0  0  0  0  0  0  0  0  0  0  0  0  # atno 17370 bound_to 10713
  157.0626  131.0094  151.3217 LP  0  0  0  0  0  0  0  0  0  0  0  0  # atno 17371 bound_to 10713
  140.5412  134.0718  155.7342 LP  0  0  0  0  0  0  0  0  0  0  0  0  # atno 17394 bound_to 11000
  141.1331  133.9268  157.2492 LP  0  0  0  0  0  0  0  0  0  0  0  0  # atno 17395 bound_to 11000

$$$$
