AV-unprocessed.smi:657|AV-procd|sdf|3225|dock8
  -GOLD-   22720 0163D 1   1.00000     0.00000
 Structure written by MMmdl.
 46 47  0  0  0  0  0  0  0  0  1 V2000
  152.5212  139.2090  159.0758 C   0  0  0  0  0  0  0  0  0  0  0  0
  151.5492  140.0226  158.2009 C   0  0  0  0  0  0  0  0  0  0  0  0
  151.9382  139.9620  156.7094 C   0  0  0  0  0  0  0  0  0  0  0  0
  151.3834  141.4018  158.7131 N   0  0  0  0  0  0  0  0  0  0  0  0
  152.6612  142.0835  158.9830 C   0  0  0  0  0  0  0  0  0  0  0  0
  152.4384  143.3793  159.7808 C   0  0  0  0  0  0  0  0  0  0  0  0
  151.5222  144.3391  159.0203 C   0  0  0  0  0  0  0  0  0  0  0  0
  150.2164  143.6188  158.6774 C   0  0  0  0  0  0  0  0  0  0  0  0
  150.4863  142.3005  157.9145 C   0  0  2  0  0  0  0  0  0  0  0  0
  149.1415  141.6713  157.5013 C   0  0  0  0  0  0  0  0  0  0  0  0
  148.8276  140.5508  157.9048 O   0  0  0  0  0  0  0  0  0  0  0  0
  148.3709  142.3961  156.6751 N   0  0  0  0  0  0  0  0  0  0  0  0
  147.0773  141.9777  156.1501 C   0  0  0  0  0  0  0  0  0  0  0  0
  145.9408  142.8682  156.6757 C   0  0  0  0  0  0  0  0  0  0  0  0
  145.8266  142.7856  158.1719 C   0  0  0  0  0  0  0  0  0  0  0  0
  145.3120  141.7100  158.9506 C   0  0  0  0  0  0  0  0  0  0  0  0
  145.3466  141.9536  160.2506 N   0  0  0  0  0  0  0  0  0  0  0  0
  145.8828  143.1875  160.3469 N   0  0  0  0  0  0  0  0  0  0  0  0
  146.0717  143.7833  161.6521 C   0  0  0  0  0  0  0  0  0  0  0  0
  146.1824  143.7141  159.1090 C   0  0  0  0  0  0  0  0  0  0  0  0
  152.4599  138.1490  158.8278 H   0  0  0  0  0  0  0  0  0  0  0  0
  152.2792  139.3093  160.1345 H   0  0  0  0  0  0  0  0  0  0  0  0
  153.5608  139.5031  158.9352 H   0  0  0  0  0  0  0  0  0  0  0  0
  150.6036  139.4943  158.3106 H   0  0  0  0  0  0  0  0  0  0  0  0
  151.9552  138.9286  156.3623 H   0  0  0  0  0  0  0  0  0  0  0  0
  152.9301  140.3756  156.5277 H   0  0  0  0  0  0  0  0  0  0  0  0
  151.2293  140.4982  156.0794 H   0  0  0  0  0  0  0  0  0  0  0  0
  153.3311  141.4537  159.5646 H   0  0  0  0  0  0  0  0  0  0  0  0
  153.1771  142.3119  158.0495 H   0  0  0  0  0  0  0  0  0  0  0  0
  152.0040  143.1433  160.7534 H   0  0  0  0  0  0  0  0  0  0  0  0
  153.3955  143.8622  159.9792 H   0  0  0  0  0  0  0  0  0  0  0  0
  151.3208  145.2278  159.6188 H   0  0  0  0  0  0  0  0  0  0  0  0
  152.0127  144.6769  158.1066 H   0  0  0  0  0  0  0  0  0  0  0  0
  149.6694  143.4150  159.5996 H   0  0  0  0  0  0  0  0  0  0  0  0
  149.5847  144.2812  158.0836 H   0  0  0  0  0  0  0  0  0  0  0  0
  151.0095  142.5641  156.9931 H   0  0  0  0  0  0  0  0  0  0  0  0
  148.7105  143.3012  156.3838 H   0  0  0  0  0  0  0  0  0  0  0  0
  147.1221  142.0354  155.0620 H   0  0  0  0  0  0  0  0  0  0  0  0
  146.8912  140.9311  156.3975 H   0  0  0  0  0  0  0  0  0  0  0  0
  146.1130  143.8998  156.3660 H   0  0  0  0  0  0  0  0  0  0  0  0
  145.0031  142.5706  156.2050 H   0  0  0  0  0  0  0  0  0  0  0  0
  144.9153  140.7648  158.6101 H   0  0  0  0  0  0  0  0  0  0  0  0
  146.5100  144.7764  161.5502 H   0  0  0  0  0  0  0  0  0  0  0  0
  146.7391  143.1609  162.2490 H   0  0  0  0  0  0  0  0  0  0  0  0
  145.1112  143.8704  162.1609 H   0  0  0  0  0  0  0  0  0  0  0  0
  146.6179  144.6961  158.9972 H   0  0  0  0  0  0  0  0  0  0  0  0
  1  2  1  0  0  0  0
  1 21  1  0  0  0  0
  1 22  1  0  0  0  0
  1 23  1  0  0  0  0
  2  3  1  0  0  0  0
  2  4  1  0  0  0  0
  2 24  1  0  0  0  0
  3 25  1  0  0  0  0
  3 26  1  0  0  0  0
  3 27  1  0  0  0  0
  4  9  1  0  0  0  0
  4  5  1  0  0  0  0
  5  6  1  0  0  0  0
  5 28  1  0  0  0  0
  5 29  1  0  0  0  0
  6  7  1  0  0  0  0
  6 30  1  0  0  0  0
  6 31  1  0  0  0  0
  7  8  1  0  0  0  0
  7 32  1  0  0  0  0
  7 33  1  0  0  0  0
  8  9  1  0  0  0  0
  8 34  1  0  0  0  0
  8 35  1  0  0  0  0
  9 10  1  0  0  0  0
  9 36  1  0  0  0  0
 10 11  2  0  0  0  0
 10 12  1  0  0  0  0
 12 13  1  0  0  0  0
 12 37  1  0  0  0  0
 13 14  1  0  0  0  0
 13 38  1  0  0  0  0
 13 39  1  0  0  0  0
 14 15  1  0  0  0  0
 14 40  1  0  0  0  0
 14 41  1  0  0  0  0
 15 20  2  0  0  0  0
 15 16  1  0  0  0  0
 16 17  2  0  0  0  0
 16 42  1  0  0  0  0
 17 18  1  0  0  0  0
 18 19  1  0  0  0  0
 18 20  1  0  0  0  0
 19 43  1  0  0  0  0
 19 44  1  0  0  0  0
 19 45  1  0  0  0  0
 20 46  1  0  0  0  0
M  END
> <s_m_source_file>
AV-unprocessed.smi

> <i_m_source_file_index>
657

> <i_lp_mmshare_version>
43012

> <i_f3d_flags>
0

> <s_epik_input>
W0NIM11bQ0hdKFtDSDNdKU4xW0NIMl1bQ0gyXVtDSDJdW0NIMl1bQ0BIXTFDKD1PKVtOSF1bQ0gyXVtDSDJdYzJbY0hdbm4oW0NIM10pW2NIXTI=

> <s_epik_cmdline>
J2VwaWtfcHl0aG9uJywgJy1waCcsICc3LjAnLCAnLXRuJywgJzgnLCAnLW1hJywgJzIwMCcsICctbWV0YWxfYmluZGluZycsICctaW1hZScsICc8aW5maWxlLm1hZT4nLCAnLW9tYWUnLCAnPG91dGZpbGUubWFlPic=

> <r_lp_tautomer_probability>
1

> <r_epik_Ionization_Penalty>
1.91154

> <r_epik_Ionization_Penalty_Charging>
0

> <r_epik_Ionization_Penalty_Neutral>
1.91154

> <r_epik_State_Penalty>
2.0331

> <r_epik_Charging_Adjusted_Penalty>
2.0331

> <i_epik_Tot_Q>
0

> <i_epik_Tot_abs_Q>
0

> <r_epik_Metal_State_Penalty>
2.04973

> <b_epik_Metal_Only>
0

> <s_lp_Force_Field>
OPLS_2005

> <r_lp_Energy>
15.3254

> <b_lp_Chiralities_Consistent>
1

> <s_lp_Variant>
AV-unprocessed.smi:657-6

> <Gold.Version>
5.8.1

> <Gold.Id.Protein>
6NUR|6NUR_protein|mol2

> <Gold.PLP.Fitness>
41.5720

> <Gold.PLP.PLP>
-33.1109

> <Gold.PLP.part.hbond>
-2.0000

> <Gold.PLP.part.metal>
0.0000

> <Gold.PLP.part.buried>
-5.6574

> <Gold.PLP.part.nonpolar>
-25.8960

> <Gold.PLP.part.repulsive>
0.0176

> <Gold.PLP.ligand.clash>
0.0000

> <Gold.PLP.ligand.torsion>
0.3312

> <Gold.PLP.Chemscore.Hbond>
2.0000

> <Gold.PLP.Chemscore.CHOScore>
1.0000

> <Gold.PLP.Chemscore.Metal>
0.0000

> <Gold.Chemscore.Hbonds>
donor molecule, donor type, donor heavy atom, donor atom, acceptor molecule, acceptor atom, score
      L1  H    12    37       P1  8028  1.00
      P1  H  6934  6946       L1    17  0.95
      L1  C    20    46       P1  8029  1.00

> <Gold.PLP.Chemscore.Internal.Correction>
0.1234

> <Gold.Rescore>
     Score         DG    S(hbond)    S(metal)    S(lipo)     H(rot)  DE(clash)    DE(int)     intcor
     14.56     -16.71       1.70        0.00      82.03       1.57       0.51       1.64       ----

> <Gold.Chemscore.Fitness>
14.5572

> <Gold.Chemscore.DG>
-16.7129

> <Gold.Chemscore.ZeroCoef>
-5.4800

> <Gold.Chemscore.Hbond>
1.6956

> <Gold.Chemscore.Metal>
0.0000

> <Gold.Chemscore.Lipo>
82.0346

> <Gold.Chemscore.Internal_Hbond>
0.0000

> <Gold.Chemscore.DEClash>
0.5116

> <Gold.Chemscore.DEInternal>
1.6441

> <Gold.Chemscore.Rot>
1.5736

> <Gold.Chemscore.Internal.Correction>
   9.000000E+99

> <Gold.Chemscore.Hbonds>
donor molecule, donor type, donor heavy atom, donor atom, acceptor molecule, acceptor atom, score
      L1  H    12    37       P1  8028  0.89
      P1  H  6934  6946       L1    17  0.06

> <Gold.Chemscore.Hbond.Weighted>
-5.6633

> <Gold.Chemscore.Metal.Weighted>
-0.0000

> <Gold.Chemscore.Lipo.Weighted>
-9.5980

> <Gold.Chemscore.Internal_Hbond.Weighted>
0.0000

> <Gold.Chemscore.DEClash.Weighted>
0.5116

> <Gold.Chemscore.DEInternal.Weighted>
1.6441

> <Gold.Chemscore.Rot.Weighted>
4.0284

> <Gold.Chemscore.Internal.Correction.Weighted>
   9.000000E+99

> <Gold.Protein.RotatedTorsions>
[ 6907 6896 6895 6894 ] final   86.43 input  -60.11 | X-H torsion
[ 7974 7965 7964 7962 ] final  145.92 input  175.53 | X-H torsion
[ 8008 7997 7996 7995 ] final   89.23 input   59.86 | X-H torsion
[ 10167 10162 10161 10158 ] final   54.31 input  -65.29 | X-H torsion
[ 10718 10713 10712 10709 ] final -158.87 input   66.30 | X-H torsion
[ 10763 10752 10751 10750 ] final -115.78 input  -60.55 | X-H torsion
[ 11005 11000 10999 10996 ] final   43.47 input  -57.11 | X-H torsion

> <Gold.Protein.ActiveResidues>
 VAL166  LYS551  ARG553  GLY616  TRP617  ASP618  TYR619  PRO620  LYS621  CYS622 
 ASP623  PHE694  ASN695  SER759  ASP760  ASP761  ALA762  ILE779  LEU786  VAL792 
 PHE793  MET794  SER795  GLU796  ALA797  LYS798  CYS799  TRP800  GLU811  SER814 

> <Gold.Protein.RotatedAtoms>
  152.5394  134.2432  159.8869 H   0  0  0  0  0  0  0  0  0  0  0  0  # atno 6907 bound_to 6896
  151.2399  133.4398  159.2614 H   0  0  0  0  0  0  0  0  0  0  0  0  # atno 6908 bound_to 6896
  151.0637  134.9767  159.8329 H   0  0  0  0  0  0  0  0  0  0  0  0  # atno 6909 bound_to 6896
  144.8713  139.5841  143.5885 H   0  0  0  0  0  0  0  0  0  0  0  0  # atno 7974 bound_to 7965
  155.9974  140.3363  155.6812 H   0  0  0  0  0  0  0  0  0  0  0  0  # atno 8008 bound_to 7997
  155.6338  140.0688  157.2658 H   0  0  0  0  0  0  0  0  0  0  0  0  # atno 8009 bound_to 7997
  154.4238  140.1755  156.1487 H   0  0  0  0  0  0  0  0  0  0  0  0  # atno 8010 bound_to 7997
  140.2314  144.3682  150.6413 H   0  0  0  0  0  0  0  0  0  0  0  0  # atno 10167 bound_to 10162
  156.5602  130.8644  151.2807 H   0  0  0  0  0  0  0  0  0  0  0  0  # atno 10718 bound_to 10713
  154.8494  135.4369  154.1717 H   0  0  0  0  0  0  0  0  0  0  0  0  # atno 10763 bound_to 10752
  153.2829  135.6955  153.7374 H   0  0  0  0  0  0  0  0  0  0  0  0  # atno 10764 bound_to 10752
  153.6571  135.3441  155.3091 H   0  0  0  0  0  0  0  0  0  0  0  0  # atno 10765 bound_to 10752
  140.1641  134.4304  155.8298 H   0  0  0  0  0  0  0  0  0  0  0  0  # atno 11005 bound_to 11000
  146.2932  139.7201  142.9146 LP  0  0  0  0  0  0  0  0  0  0  0  0  # atno 17320 bound_to 7965
  145.4125  141.0398  143.3009 LP  0  0  0  0  0  0  0  0  0  0  0  0  # atno 17321 bound_to 7965
  140.6182  143.2174  151.6749 LP  0  0  0  0  0  0  0  0  0  0  0  0  # atno 17342 bound_to 10162
  139.5108  144.3529  152.0635 LP  0  0  0  0  0  0  0  0  0  0  0  0  # atno 17343 bound_to 10162
  157.7370  130.9788  150.2168 LP  0  0  0  0  0  0  0  0  0  0  0  0  # atno 17370 bound_to 10713
  156.2806  130.3733  149.7939 LP  0  0  0  0  0  0  0  0  0  0  0  0  # atno 17371 bound_to 10713
  141.2212  133.6926  156.7647 LP  0  0  0  0  0  0  0  0  0  0  0  0  # atno 17394 bound_to 11000
  140.2454  134.8581  157.3615 LP  0  0  0  0  0  0  0  0  0  0  0  0  # atno 17395 bound_to 11000

$$$$
