AV-unprocessed.smi:835|AV-procd|sdf|3888|dock5
  -GOLD-   22720 1343D 1   1.00000     0.00000
 Structure written by MMmdl.
 41 43  0  0  0  0  0  0  0  0  2 V2000
  137.7328  136.9067  154.6082 C   0  0  0  0  0  0  0  0  0  0  0  0
  139.0062  137.6079  154.2372 C   0  0  0  0  0  0  0  0  0  0  0  0
  140.1822  137.0447  153.6613 C   0  0  0  0  0  0  0  0  0  0  0  0
  141.0082  138.1289  153.5426 C   0  0  0  0  0  0  0  0  0  0  0  0
  142.2750  138.1898  153.0521 N   0  0  0  0  0  0  0  0  0  0  0  0
  143.1274  137.1809  152.8008 C   0  0  0  0  0  0  0  0  0  0  0  0
  142.8966  135.9857  152.9843 O   0  0  0  0  0  0  0  0  0  0  0  0
  144.2907  137.6370  152.3151 N   0  0  0  0  0  0  0  0  0  0  0  0
  145.4200  136.7913  151.9430 C   0  0  2  0  0  0  0  0  0  0  0  0
  145.0841  135.6987  150.9243 C   0  0  0  0  0  0  0  0  0  0  0  0
  146.0605  134.5549  151.2485 C   0  0  0  0  0  0  0  0  0  0  0  0
  146.7481  134.9220  152.5084 N   0  3  2  0  0  0  0  0  0  0  0  0
  147.0323  133.7805  153.4033 C   0  0  0  0  0  0  0  0  0  0  0  0
  148.3722  133.8738  154.0933 C   0  0  0  0  0  0  0  0  0  0  0  0
  148.1802  132.9182  152.9355 C   0  0  0  0  0  0  0  0  0  0  0  0
  145.9465  135.9906  153.1295 C   0  0  0  0  0  0  0  0  0  0  0  0
  140.3516  139.2425  154.0178 N   0  0  0  0  0  0  0  0  0  0  0  0
  140.8095  140.6155  154.1027 C   0  0  0  0  0  0  0  0  0  0  0  0
  139.1140  138.9148  154.4478 N   0  0  0  0  0  0  0  0  0  0  0  0
  137.7292  135.8786  154.2453 H   0  0  0  0  0  0  0  0  0  0  0  0
  136.8657  137.4110  154.1810 H   0  0  0  0  0  0  0  0  0  0  0  0
  137.6032  136.8771  155.6902 H   0  0  0  0  0  0  0  0  0  0  0  0
  140.3657  136.0161  153.3900 H   0  0  0  0  0  0  0  0  0  0  0  0
  142.6119  139.1196  152.8506 H   0  0  0  0  0  0  0  0  0  0  0  0
  144.4006  138.6334  152.1938 H   0  0  0  0  0  0  0  0  0  0  0  0
  146.2309  137.4111  151.5540 H   0  0  0  0  0  0  0  0  0  0  0  0
  144.0587  135.3516  151.0612 H   0  0  0  0  0  0  0  0  0  0  0  0
  145.1794  136.0502  149.8964 H   0  0  0  0  0  0  0  0  0  0  0  0
  145.5157  133.6155  151.3535 H   0  0  0  0  0  0  0  0  0  0  0  0
  146.8008  134.4222  150.4591 H   0  0  0  0  0  0  0  0  0  0  0  0
  146.1780  133.3353  153.9109 H   0  0  0  0  0  0  0  0  0  0  0  0
  148.9819  134.7588  153.9189 H   0  0  0  0  0  0  0  0  0  0  0  0
  148.4561  133.4405  155.0879 H   0  0  0  0  0  0  0  0  0  0  0  0
  148.1379  131.8560  153.1685 H   0  0  0  0  0  0  0  0  0  0  0  0
  148.6612  133.1680  151.9915 H   0  0  0  0  0  0  0  0  0  0  0  0
  146.5442  136.5951  153.8126 H   0  0  0  0  0  0  0  0  0  0  0  0
  145.1209  135.5519  153.6934 H   0  0  0  0  0  0  0  0  0  0  0  0
  141.6201  140.6860  154.8280 H   0  0  0  0  0  0  0  0  0  0  0  0
  139.9967  141.2730  154.4138 H   0  0  0  0  0  0  0  0  0  0  0  0
  141.1728  140.9424  153.1283 H   0  0  0  0  0  0  0  0  0  0  0  0
  147.6299  135.3387  152.2456 H   0  0  0  0  0  0  0  0  0  0  0  0
  1  2  1  0  0  0  0
  1 20  1  0  0  0  0
  1 21  1  0  0  0  0
  1 22  1  0  0  0  0
  2 19  2  0  0  0  0
  2  3  1  0  0  0  0
  3  4  2  0  0  0  0
  3 23  1  0  0  0  0
  4  5  1  0  0  0  0
  4 17  1  0  0  0  0
  5  6  1  0  0  0  0
  5 24  1  0  0  0  0
  6  7  2  0  0  0  0
  6  8  1  0  0  0  0
  8  9  1  0  0  0  0
  8 25  1  0  0  0  0
  9 16  1  0  0  0  0
  9 10  1  0  0  0  0
  9 26  1  0  0  0  0
 10 11  1  0  0  0  0
 10 27  1  0  0  0  0
 10 28  1  0  0  0  0
 11 12  1  0  0  0  0
 11 29  1  0  0  0  0
 11 30  1  0  0  0  0
 12 13  1  0  0  0  0
 12 16  1  0  0  0  0
 12 41  1  0  0  0  0
 13 15  1  0  0  0  0
 13 14  1  0  0  0  0
 13 31  1  0  0  0  0
 14 15  1  0  0  0  0
 14 32  1  0  0  0  0
 14 33  1  0  0  0  0
 15 34  1  0  0  0  0
 15 35  1  0  0  0  0
 16 36  1  0  0  0  0
 16 37  1  0  0  0  0
 17 18  1  0  0  0  0
 17 19  1  0  0  0  0
 18 38  1  0  0  0  0
 18 39  1  0  0  0  0
 18 40  1  0  0  0  0
M  CHG  1  12   1
M  END
> <s_m_source_file>
AV-unprocessed.smi

> <i_m_source_file_index>
835

> <i_lp_mmshare_version>
43012

> <i_f3d_flags>
0

> <s_epik_input>
W0NIM11jMVtjSF1jKG4objEpW0NIM10pW05IXUMoPU8pW05IXVtDQEBIXTJbQ0gyXVtDSDJdTihbQ0gyXTIpW0NIXTNbQ0gyXVtDSDJdMw==

> <s_epik_cmdline>
J2VwaWtfcHl0aG9uJywgJy1waCcsICc3LjAnLCAnLXRuJywgJzgnLCAnLW1hJywgJzIwMCcsICctbWV0YWxfYmluZGluZycsICctaW1hZScsICc8aW5maWxlLm1hZT4nLCAnLW9tYWUnLCAnPG91dGZpbGUubWFlPic=

> <r_lp_tautomer_probability>
1

> <r_epik_Ionization_Penalty>
0.000700689

> <r_epik_Ionization_Penalty_Charging>
0.000627528

> <r_epik_Ionization_Penalty_Neutral>
7.31611e-05

> <r_epik_State_Penalty>
0.00039643

> <r_epik_Charging_Adjusted_Penalty>
0.00102396

> <i_epik_Tot_Q>
1

> <i_epik_Tot_abs_Q>
1

> <r_epik_Metal_State_Penalty>
-0

> <b_epik_Metal_Only>
0

> <s_lp_Force_Field>
OPLS_2005

> <r_lp_Energy>
38.0167

> <b_lp_Chiralities_Consistent>
1

> <s_lp_Variant>
AV-unprocessed.smi:835-3

> <Gold.Version>
5.8.1

> <Gold.Id.Protein>
6NUR|6NUR_protein|mol2

> <Gold.PLP.Fitness>
45.8097

> <Gold.PLP.PLP>
-34.0696

> <Gold.PLP.part.hbond>
-4.0000

> <Gold.PLP.part.metal>
0.0000

> <Gold.PLP.part.buried>
-3.4929

> <Gold.PLP.part.nonpolar>
-26.7118

> <Gold.PLP.part.repulsive>
0.2681

> <Gold.PLP.ligand.clash>
0.0000

> <Gold.PLP.ligand.torsion>
0.7019

> <Gold.PLP.Chemscore.Hbond>
3.9600

> <Gold.PLP.Chemscore.CHOScore>
0.0000

> <Gold.PLP.Chemscore.Metal>
0.0000

> <Gold.Chemscore.Hbonds>
donor molecule, donor type, donor heavy atom, donor atom, acceptor molecule, acceptor atom, score
      L1  H     5    24       P1 10175  1.00
      L1  H     8    25       P1 10175  0.96
      L1  H    12    41       P1  7948  2.00

> <Gold.PLP.Chemscore.Internal.Correction>
1.2641

> <Gold.Rescore>
     Score         DG    S(hbond)    S(metal)    S(lipo)     H(rot)  DE(clash)    DE(int)     intcor
     16.46     -19.40       2.93        0.00      61.96       1.22       0.02       2.92       ----

> <Gold.Chemscore.Fitness>
16.4580

> <Gold.Chemscore.DG>
-19.3978

> <Gold.Chemscore.ZeroCoef>
-5.4800

> <Gold.Chemscore.Hbond>
2.9315

> <Gold.Chemscore.Metal>
0.0000

> <Gold.Chemscore.Lipo>
61.9565

> <Gold.Chemscore.Internal_Hbond>
0.0000

> <Gold.Chemscore.DEClash>
0.0195

> <Gold.Chemscore.DEInternal>
2.9203

> <Gold.Chemscore.Rot>
1.2196

> <Gold.Chemscore.Internal.Correction>
   9.000000E+99

> <Gold.Chemscore.Hbonds>
donor molecule, donor type, donor heavy atom, donor atom, acceptor molecule, acceptor atom, score
      L1  H     5    24       P1 10175  1.00
      L1  H     8    25       P1 10175  0.91
      L1  H    12    41       P1  7948  0.99

> <Gold.Chemscore.Hbond.Weighted>
-9.7912

> <Gold.Chemscore.Metal.Weighted>
-0.0000

> <Gold.Chemscore.Lipo.Weighted>
-7.2489

> <Gold.Chemscore.Internal_Hbond.Weighted>
0.0000

> <Gold.Chemscore.DEClash.Weighted>
0.0195

> <Gold.Chemscore.DEInternal.Weighted>
2.9203

> <Gold.Chemscore.Rot.Weighted>
3.1223

> <Gold.Chemscore.Internal.Correction.Weighted>
   9.000000E+99

> <Gold.Protein.RotatedTorsions>
[ 6907 6896 6895 6894 ] final  165.36 input  -60.11 | X-H torsion
[ 7974 7965 7964 7962 ] final  175.36 input  175.53 | X-H torsion
[ 8008 7997 7996 7995 ] final  -48.55 input   59.86 | X-H torsion
[ 10167 10162 10161 10158 ] final  -10.28 input  -65.29 | X-H torsion
[ 10718 10713 10712 10709 ] final  157.39 input   66.30 | X-H torsion
[ 10763 10752 10751 10750 ] final  -55.41 input  -60.55 | X-H torsion
[ 11005 11000 10999 10996 ] final  -26.75 input  -57.11 | X-H torsion

> <Gold.Protein.ActiveResidues>
 VAL166  LYS551  ARG553  GLY616  TRP617  ASP618  TYR619  PRO620  LYS621  CYS622 
 ASP623  PHE694  ASN695  SER759  ASP760  ASP761  ALA762  ILE779  LEU786  VAL792 
 PHE793  MET794  SER795  GLU796  ALA797  LYS798  CYS799  TRP800  GLU811  SER814 

> <Gold.Protein.RotatedAtoms>
  151.8956  133.3526  159.3812 H   0  0  0  0  0  0  0  0  0  0  0  0  # atno 6907 bound_to 6896
  150.7092  134.4880  159.5511 H   0  0  0  0  0  0  0  0  0  0  0  0  # atno 6908 bound_to 6896
  152.2458  134.8183  160.0504 H   0  0  0  0  0  0  0  0  0  0  0  0  # atno 6909 bound_to 6896
  144.7203  139.9935  143.6440 H   0  0  0  0  0  0  0  0  0  0  0  0  # atno 7974 bound_to 7965
  154.4030  140.1319  156.4357 H   0  0  0  0  0  0  0  0  0  0  0  0  # atno 8008 bound_to 7997
  155.7508  140.3488  155.5129 H   0  0  0  0  0  0  0  0  0  0  0  0  # atno 8009 bound_to 7997
  155.8951  140.1010  157.1380 H   0  0  0  0  0  0  0  0  0  0  0  0  # atno 8010 bound_to 7997
  140.7110  143.5765  150.9037 H   0  0  0  0  0  0  0  0  0  0  0  0  # atno 10167 bound_to 10162
  157.1921  131.0657  151.2073 H   0  0  0  0  0  0  0  0  0  0  0  0  # atno 10718 bound_to 10713
  154.1904  135.6428  153.5058 H   0  0  0  0  0  0  0  0  0  0  0  0  # atno 10763 bound_to 10752
  153.0036  135.5427  154.6421 H   0  0  0  0  0  0  0  0  0  0  0  0  # atno 10764 bound_to 10752
  154.5808  135.2925  155.0707 H   0  0  0  0  0  0  0  0  0  0  0  0  # atno 10765 bound_to 10752
  140.9057  133.7494  156.0603 H   0  0  0  0  0  0  0  0  0  0  0  0  # atno 11005 bound_to 11000
  146.0392  139.3406  143.0707 LP  0  0  0  0  0  0  0  0  0  0  0  0  # atno 17320 bound_to 7965
  145.8355  140.9608  143.0826 LP  0  0  0  0  0  0  0  0  0  0  0  0  # atno 17321 bound_to 7965
  139.9491  143.6292  152.3034 LP  0  0  0  0  0  0  0  0  0  0  0  0  # atno 17342 bound_to 10162
  139.6805  144.7656  151.1618 LP  0  0  0  0  0  0  0  0  0  0  0  0  # atno 17343 bound_to 10162
  157.3850  130.7251  149.6657 LP  0  0  0  0  0  0  0  0  0  0  0  0  # atno 17370 bound_to 10713
  155.9710  130.4162  150.4218 LP  0  0  0  0  0  0  0  0  0  0  0  0  # atno 17371 bound_to 10713
  140.8174  134.3329  157.5393 LP  0  0  0  0  0  0  0  0  0  0  0  0  # atno 17394 bound_to 11000
  139.8749  134.9289  156.3463 LP  0  0  0  0  0  0  0  0  0  0  0  0  # atno 17395 bound_to 11000

$$$$
