AV-unprocessed.smi:590|AV-procd|sdf|3008|dock6
  -GOLD-   2262023513D 1   1.00000     0.00000
 Structure written by MMmdl.
 41 42  0  0  0  0  0  0  0  0  1 V2000
  148.0533  135.8520  155.3785 C   0  0  0  0  0  0  0  0  0  0  0  0
  149.4565  136.3863  155.4059 C   0  0  0  0  0  0  0  0  0  0  0  0
  150.4163  135.6757  155.9742 N   0  0  0  0  0  0  0  0  0  0  0  0
  151.5825  136.4365  155.8463 O   0  0  0  0  0  0  0  0  0  0  0  0
  151.2742  137.5900  155.2006 C   0  0  0  0  0  0  0  0  0  0  0  0
  152.3918  138.5502  154.9710 C   0  0  0  0  0  0  0  0  0  0  0  0
  149.9429  137.6214  154.8894 C   0  0  0  0  0  0  0  0  0  0  0  0
  149.1692  138.7011  154.1787 C   0  0  0  0  0  0  0  0  0  0  0  0
  149.5918  140.0707  154.7101 C   0  0  0  0  0  0  0  0  0  0  0  0
  149.9222  140.9584  153.9241 O   0  0  0  0  0  0  0  0  0  0  0  0
  149.5792  140.2255  156.0437 N   0  0  0  0  0  0  0  0  0  0  0  0
  149.9476  141.4421  156.7627 C   0  0  0  0  0  0  0  0  0  0  0  0
  150.9658  141.1710  157.8881 C   0  0  0  0  0  0  0  0  0  0  0  0
  151.5250  142.4280  158.5384 C   0  0  0  0  0  0  0  0  0  0  0  0
  151.4954  143.6236  157.9175 C   0  0  0  0  0  0  0  0  0  0  0  0
  152.0154  144.9145  158.5248 C   0  0  0  0  0  0  0  0  0  0  0  0
  152.2498  144.7964  160.0399 C   0  0  0  0  0  0  0  0  0  0  0  0
  152.9365  143.4714  160.3916 C   0  0  0  0  0  0  0  0  0  0  0  0
  152.0913  142.2654  159.9450 C   0  0  0  0  0  0  0  0  0  0  0  0
  147.6137  135.9596  154.3868 H   0  0  0  0  0  0  0  0  0  0  0  0
  147.4193  136.3911  156.0824 H   0  0  0  0  0  0  0  0  0  0  0  0
  148.0177  134.7945  155.6420 H   0  0  0  0  0  0  0  0  0  0  0  0
  152.0528  139.5774  155.1061 H   0  0  0  0  0  0  0  0  0  0  0  0
  152.7810  138.4526  153.9577 H   0  0  0  0  0  0  0  0  0  0  0  0
  153.2112  138.3729  155.6678 H   0  0  0  0  0  0  0  0  0  0  0  0
  149.3497  138.6785  153.1035 H   0  0  0  0  0  0  0  0  0  0  0  0
  148.0941  138.5668  154.3055 H   0  0  0  0  0  0  0  0  0  0  0  0
  149.2927  139.4370  156.6058 H   0  0  0  0  0  0  0  0  0  0  0  0
  150.3904  142.1278  156.0402 H   0  0  0  0  0  0  0  0  0  0  0  0
  149.0637  141.9512  157.1491 H   0  0  0  0  0  0  0  0  0  0  0  0
  150.4953  140.5499  158.6516 H   0  0  0  0  0  0  0  0  0  0  0  0
  151.7994  140.5869  157.4971 H   0  0  0  0  0  0  0  0  0  0  0  0
  151.0963  143.6988  156.9166 H   0  0  0  0  0  0  0  0  0  0  0  0
  152.9463  145.1720  158.0187 H   0  0  0  0  0  0  0  0  0  0  0  0
  151.3089  145.7193  158.3202 H   0  0  0  0  0  0  0  0  0  0  0  0
  152.8452  145.6392  160.3923 H   0  0  0  0  0  0  0  0  0  0  0  0
  151.2938  144.8532  160.5622 H   0  0  0  0  0  0  0  0  0  0  0  0
  153.9109  143.4325  159.9020 H   0  0  0  0  0  0  0  0  0  0  0  0
  153.1278  143.4151  161.4636 H   0  0  0  0  0  0  0  0  0  0  0  0
  151.2542  142.1234  160.6290 H   0  0  0  0  0  0  0  0  0  0  0  0
  152.6998  141.3637  160.0048 H   0  0  0  0  0  0  0  0  0  0  0  0
  1  2  1  0  0  0  0
  1 20  1  0  0  0  0
  1 21  1  0  0  0  0
  1 22  1  0  0  0  0
  2  7  1  0  0  0  0
  2  3  2  0  0  0  0
  3  4  1  0  0  0  0
  4  5  1  0  0  0  0
  5  6  1  0  0  0  0
  5  7  2  0  0  0  0
  6 23  1  0  0  0  0
  6 24  1  0  0  0  0
  6 25  1  0  0  0  0
  7  8  1  0  0  0  0
  8  9  1  0  0  0  0
  8 26  1  0  0  0  0
  8 27  1  0  0  0  0
  9 10  2  0  0  0  0
  9 11  1  0  0  0  0
 11 12  1  0  0  0  0
 11 28  1  0  0  0  0
 12 13  1  0  0  0  0
 12 29  1  0  0  0  0
 12 30  1  0  0  0  0
 13 14  1  0  0  0  0
 13 31  1  0  0  0  0
 13 32  1  0  0  0  0
 14 19  1  0  0  0  0
 14 15  2  0  0  0  0
 15 16  1  0  0  0  0
 15 33  1  0  0  0  0
 16 17  1  0  0  0  0
 16 34  1  0  0  0  0
 16 35  1  0  0  0  0
 17 18  1  0  0  0  0
 17 36  1  0  0  0  0
 17 37  1  0  0  0  0
 18 19  1  0  0  0  0
 18 38  1  0  0  0  0
 18 39  1  0  0  0  0
 19 40  1  0  0  0  0
 19 41  1  0  0  0  0
M  END
> <s_m_source_file>
AV-unprocessed.smi

> <i_m_source_file_index>
590

> <i_lp_mmshare_version>
43012

> <i_f3d_flags>
0

> <s_epik_input>
W0NIM11jMW5vYyhbQ0gzXSljMVtDSDJdQyg9TylbTkhdW0NIMl1bQ0gyXUMyPVtDSF1bQ0gyXVtDSDJdW0NIMl1bQ0gyXTI=

> <s_epik_cmdline>
J2VwaWtfcHl0aG9uJywgJy1waCcsICc3LjAnLCAnLXRuJywgJzgnLCAnLW1hJywgJzIwMCcsICctbWV0YWxfYmluZGluZycsICctaW1hZScsICc8aW5maWxlLm1hZT4nLCAnLW9tYWUnLCAnPG91dGZpbGUubWFlPic=

> <r_lp_tautomer_probability>
1

> <r_epik_Ionization_Penalty>
1.93189e-08

> <r_epik_Ionization_Penalty_Charging>
0

> <r_epik_Ionization_Penalty_Neutral>
1.93189e-08

> <r_epik_State_Penalty>
-0

> <r_epik_Charging_Adjusted_Penalty>
0

> <i_epik_Tot_Q>
0

> <i_epik_Tot_abs_Q>
0

> <r_epik_Metal_State_Penalty>
-0

> <b_epik_Metal_Only>
0

> <s_lp_Force_Field>
OPLS_2005

> <r_lp_Energy>
2.22272

> <b_lp_Chiralities_Consistent>
1

> <s_lp_Variant>
AV-unprocessed.smi:590-1

> <Gold.Version>
5.8.1

> <Gold.Id.Protein>
6NUR|6NUR_protein|mol2

> <Gold.PLP.Fitness>
44.5265

> <Gold.PLP.PLP>
-39.3279

> <Gold.PLP.part.hbond>
-3.0000

> <Gold.PLP.part.metal>
0.0000

> <Gold.PLP.part.buried>
-4.4855

> <Gold.PLP.part.nonpolar>
-33.0140

> <Gold.PLP.part.repulsive>
1.4735

> <Gold.PLP.ligand.clash>
0.0000

> <Gold.PLP.ligand.torsion>
0.6686

> <Gold.PLP.Chemscore.Hbond>
2.1695

> <Gold.PLP.Chemscore.CHOScore>
0.0000

> <Gold.PLP.Chemscore.Metal>
0.0000

> <Gold.Chemscore.Hbonds>
donor molecule, donor type, donor heavy atom, donor atom, acceptor molecule, acceptor atom, score
      P1  H  7989  7998       L1    10  0.45
      P1  H  8011  8017       L1    10  0.59
      P1  H 10752 10763       L1     4  1.00

> <Gold.PLP.Chemscore.Internal.Correction>
0.0274

> <Gold.Rescore>
     Score         DG    S(hbond)    S(metal)    S(lipo)     H(rot)  DE(clash)    DE(int)     intcor
     19.47     -21.02       1.87        0.00     113.23       1.55       1.05       0.49       ----

> <Gold.Chemscore.Fitness>
19.4729

> <Gold.Chemscore.DG>
-21.0195

> <Gold.Chemscore.ZeroCoef>
-5.4800

> <Gold.Chemscore.Hbond>
1.8736

> <Gold.Chemscore.Metal>
0.0000

> <Gold.Chemscore.Lipo>
113.2293

> <Gold.Chemscore.Internal_Hbond>
0.0000

> <Gold.Chemscore.DEClash>
1.0523

> <Gold.Chemscore.DEInternal>
0.4942

> <Gold.Chemscore.Rot>
1.5493

> <Gold.Chemscore.Internal.Correction>
   9.000000E+99

> <Gold.Chemscore.Hbonds>
donor molecule, donor type, donor heavy atom, donor atom, acceptor molecule, acceptor atom, score
      P1  H  7989  7998       L1    10  0.41
      P1  H  8011  8017       L1    10  0.58
      P1  H 10752 10763       L1     4  0.75

> <Gold.Chemscore.Hbond.Weighted>
-6.2579

> <Gold.Chemscore.Metal.Weighted>
-0.0000

> <Gold.Chemscore.Lipo.Weighted>
-13.2478

> <Gold.Chemscore.Internal_Hbond.Weighted>
0.0000

> <Gold.Chemscore.DEClash.Weighted>
1.0523

> <Gold.Chemscore.DEInternal.Weighted>
0.4942

> <Gold.Chemscore.Rot.Weighted>
3.9663

> <Gold.Chemscore.Internal.Correction.Weighted>
   9.000000E+99

> <Gold.Protein.RotatedTorsions>
[ 6907 6896 6895 6894 ] final -173.40 input  -60.11 | X-H torsion
[ 7974 7965 7964 7962 ] final    6.90 input  175.53 | X-H torsion
[ 8008 7997 7996 7995 ] final -144.81 input   59.86 | X-H torsion
[ 10167 10162 10161 10158 ] final   43.47 input  -65.29 | X-H torsion
[ 10718 10713 10712 10709 ] final  -26.58 input   66.30 | X-H torsion
[ 10763 10752 10751 10750 ] final   88.26 input  -60.55 | X-H torsion
[ 11005 11000 10999 10996 ] final   78.51 input  -57.11 | X-H torsion

> <Gold.Protein.ActiveResidues>
 VAL166  LYS551  ARG553  GLY616  TRP617  ASP618  TYR619  PRO620  LYS621  CYS622 
 ASP623  PHE694  ASN695  SER759  ASP760  ASP761  ALA762  ILE779  LEU786  VAL792 
 PHE793  MET794  SER795  GLU796  ALA797  LYS798  CYS799  TRP800  GLU811  SER814 

> <Gold.Protein.RotatedAtoms>
  151.5556  133.3411  159.2961 H   0  0  0  0  0  0  0  0  0  0  0  0  # atno 6907 bound_to 6896
  150.8452  134.7762  159.6976 H   0  0  0  0  0  0  0  0  0  0  0  0  # atno 6908 bound_to 6896
  152.4511  134.5398  159.9887 H   0  0  0  0  0  0  0  0  0  0  0  0  # atno 6909 bound_to 6896
  146.2431  140.0163  142.8402 H   0  0  0  0  0  0  0  0  0  0  0  0  # atno 7974 bound_to 7965
  155.5330  140.0601  157.2885 H   0  0  0  0  0  0  0  0  0  0  0  0  # atno 8008 bound_to 7997
  154.4478  140.1932  156.0558 H   0  0  0  0  0  0  0  0  0  0  0  0  # atno 8009 bound_to 7997
  156.0639  140.3269  155.7498 H   0  0  0  0  0  0  0  0  0  0  0  0  # atno 8010 bound_to 7997
  140.3441  144.2433  150.6152 H   0  0  0  0  0  0  0  0  0  0  0  0  # atno 10167 bound_to 10162
  156.4493  130.4480  149.7000 H   0  0  0  0  0  0  0  0  0  0  0  0  # atno 10718 bound_to 10713
  153.1751  135.4513  154.9954 H   0  0  0  0  0  0  0  0  0  0  0  0  # atno 10763 bound_to 10752
  154.7992  135.3249  154.7593 H   0  0  0  0  0  0  0  0  0  0  0  0  # atno 10764 bound_to 10752
  153.8065  135.6958  153.4902 H   0  0  0  0  0  0  0  0  0  0  0  0  # atno 10765 bound_to 10752
  139.9210  134.7769  156.1659 H   0  0  0  0  0  0  0  0  0  0  0  0  # atno 11005 bound_to 11000
  145.1281  140.9502  143.4560 LP  0  0  0  0  0  0  0  0  0  0  0  0  # atno 17320 bound_to 7965
  145.0414  139.3257  143.5974 LP  0  0  0  0  0  0  0  0  0  0  0  0  # atno 17321 bound_to 7965
  140.5281  143.2249  151.8282 LP  0  0  0  0  0  0  0  0  0  0  0  0  # atno 17342 bound_to 10162
  139.4836  144.4754  151.9373 LP  0  0  0  0  0  0  0  0  0  0  0  0  # atno 17343 bound_to 10162
  156.3833  130.7590  151.2585 LP  0  0  0  0  0  0  0  0  0  0  0  0  # atno 17370 bound_to 10713
  157.7503  131.0289  150.4070 LP  0  0  0  0  0  0  0  0  0  0  0  0  # atno 17371 bound_to 10713
  141.0730  133.6788  156.2178 LP  0  0  0  0  0  0  0  0  0  0  0  0  # atno 17394 bound_to 11000
  140.6476  134.5101  157.5575 LP  0  0  0  0  0  0  0  0  0  0  0  0  # atno 17395 bound_to 11000

$$$$
