AV-unprocessed.smi:747|AV-procd|sdf|3581|dock8
  -GOLD-   22720 0573D 1   1.00000     0.00000
 Structure written by MMmdl.
 48 49  0  0  0  0  0  0  0  0  1 V2000
  152.2437  144.2834  161.9184 C   0  0  0  0  0  0  0  0  0  0  0  0
  151.8860  144.1716  160.5198 N   0  0  0  0  0  0  0  0  0  0  0  0
  151.5231  145.3372  159.8021 C   0  0  0  0  0  0  0  0  0  0  0  0
  151.4919  146.4543  160.3189 O   0  0  0  0  0  0  0  0  0  0  0  0
  151.1905  145.1032  158.4016 C   0  0  0  0  0  0  0  0  0  0  0  0
  151.2397  143.8605  157.8737 C   0  0  0  0  0  0  0  0  0  0  0  0
  151.5986  142.7386  158.5983 N   0  0  0  0  0  0  0  0  0  0  0  0
  151.6468  141.4277  157.9397 C   0  0  0  0  0  0  0  0  0  0  0  0
  150.2477  140.9175  157.5776 C   0  0  0  0  0  0  0  0  0  0  0  0
  149.2710  141.6595  157.6849 O   0  0  0  0  0  0  0  0  0  0  0  0
  150.1734  139.6450  157.1565 N   0  0  0  0  0  0  0  0  0  0  0  0
  148.9662  138.9597  156.6824 C   0  0  1  0  0  0  0  0  0  0  0  0
  148.9923  138.8948  155.1309 C   0  0  0  0  0  0  0  0  0  0  0  0
  150.3949  138.7352  154.5264 C   0  0  0  0  0  0  0  0  0  0  0  0
  150.5889  137.7039  153.7009 N   0  0  0  0  0  0  0  0  0  0  0  0
  151.2904  139.5323  154.7982 O   0  0  0  0  0  0  0  0  0  0  0  0
  148.8519  137.5629  157.3585 C   0  0  0  0  0  0  0  0  0  0  0  0
  147.5484  136.8209  156.9723 C   0  0  0  0  0  0  0  0  0  0  0  0
  147.4297  135.4487  157.6553 C   0  0  0  0  0  0  0  0  0  0  0  0
  147.5298  135.5717  159.1805 C   0  0  0  0  0  0  0  0  0  0  0  0
  148.8306  136.2780  159.5811 C   0  0  0  0  0  0  0  0  0  0  0  0
  148.9501  137.6523  158.9035 C   0  0  0  0  0  0  0  0  0  0  0  0
  151.9344  142.8754  159.9626 C   0  0  0  0  0  0  0  0  0  0  0  0
  152.2584  141.8923  160.6345 O   0  0  0  0  0  0  0  0  0  0  0  0
  152.1612  145.3112  162.2698 H   0  0  0  0  0  0  0  0  0  0  0  0
  153.2753  143.9398  162.0151 H   0  0  0  0  0  0  0  0  0  0  0  0
  151.5576  143.6468  162.4800 H   0  0  0  0  0  0  0  0  0  0  0  0
  150.9036  145.9372  157.7781 H   0  0  0  0  0  0  0  0  0  0  0  0
  150.9892  143.7412  156.8296 H   0  0  0  0  0  0  0  0  0  0  0  0
  152.2769  141.4795  157.0495 H   0  0  0  0  0  0  0  0  0  0  0  0
  152.1188  140.6936  158.5938 H   0  0  0  0  0  0  0  0  0  0  0  0
  151.0331  139.1169  157.1179 H   0  0  0  0  0  0  0  0  0  0  0  0
  148.0821  139.5303  156.9735 H   0  0  0  0  0  0  0  0  0  0  0  0
  148.3514  138.0814  154.7869 H   0  0  0  0  0  0  0  0  0  0  0  0
  148.5845  139.8095  154.7034 H   0  0  0  0  0  0  0  0  0  0  0  0
  151.4913  137.5613  153.2716 H   0  0  0  0  0  0  0  0  0  0  0  0
  149.8254  137.0733  153.5024 H   0  0  0  0  0  0  0  0  0  0  0  0
  149.6908  136.9571  157.0118 H   0  0  0  0  0  0  0  0  0  0  0  0
  146.6851  137.4338  157.2347 H   0  0  0  0  0  0  0  0  0  0  0  0
  147.4983  136.6605  155.8964 H   0  0  0  0  0  0  0  0  0  0  0  0
  146.4836  134.9799  157.3832 H   0  0  0  0  0  0  0  0  0  0  0  0
  148.2175  134.7894  157.2886 H   0  0  0  0  0  0  0  0  0  0  0  0
  146.6744  136.1308  159.5616 H   0  0  0  0  0  0  0  0  0  0  0  0
  147.4851  134.5832  159.6382 H   0  0  0  0  0  0  0  0  0  0  0  0
  148.8706  136.3943  160.6644 H   0  0  0  0  0  0  0  0  0  0  0  0
  149.6846  135.6583  159.3044 H   0  0  0  0  0  0  0  0  0  0  0  0
  149.8973  138.0974  159.2075 H   0  0  0  0  0  0  0  0  0  0  0  0
  148.1677  138.3121  159.2813 H   0  0  0  0  0  0  0  0  0  0  0  0
  1  2  1  0  0  0  0
  1 25  1  0  0  0  0
  1 26  1  0  0  0  0
  1 27  1  0  0  0  0
  2 23  1  0  0  0  0
  2  3  1  0  0  0  0
  3  4  2  0  0  0  0
  3  5  1  0  0  0  0
  5  6  2  0  0  0  0
  5 28  1  0  0  0  0
  6  7  1  0  0  0  0
  6 29  1  0  0  0  0
  7  8  1  0  0  0  0
  7 23  1  0  0  0  0
  8  9  1  0  0  0  0
  8 30  1  0  0  0  0
  8 31  1  0  0  0  0
  9 10  2  0  0  0  0
  9 11  1  0  0  0  0
 11 12  1  0  0  0  0
 11 32  1  0  0  0  0
 12 13  1  0  0  0  0
 12 17  1  0  0  0  0
 12 33  1  0  0  0  0
 13 14  1  0  0  0  0
 13 34  1  0  0  0  0
 13 35  1  0  0  0  0
 14 15  1  0  0  0  0
 14 16  2  0  0  0  0
 15 36  1  0  0  0  0
 15 37  1  0  0  0  0
 17 22  1  0  0  0  0
 17 18  1  0  0  0  0
 17 38  1  0  0  0  0
 18 19  1  0  0  0  0
 18 39  1  0  0  0  0
 18 40  1  0  0  0  0
 19 20  1  0  0  0  0
 19 41  1  0  0  0  0
 19 42  1  0  0  0  0
 20 21  1  0  0  0  0
 20 43  1  0  0  0  0
 20 44  1  0  0  0  0
 21 22  1  0  0  0  0
 21 45  1  0  0  0  0
 21 46  1  0  0  0  0
 22 47  1  0  0  0  0
 22 48  1  0  0  0  0
 23 24  2  0  0  0  0
M  END
> <s_m_source_file>
AV-unprocessed.smi

> <i_m_source_file_index>
747

> <i_lp_mmshare_version>
43012

> <i_f3d_flags>
0

> <s_epik_input>
W0NIM11uMWMoPU8pW2NIXVtjSF1uKGMxPU8pW0NIMl1DKD1PKVtOSF1bQ0BIXShbQ0gyXUMoPU8pW05IMl0pW0NIXTJbQ0gyXVtDSDJdW0NIMl1bQ0gyXVtDSDJdMg==

> <s_epik_cmdline>
J2VwaWtfcHl0aG9uJywgJy1waCcsICc3LjAnLCAnLXRuJywgJzgnLCAnLW1hJywgJzIwMCcsICctbWV0YWxfYmluZGluZycsICctaW1hZScsICc8aW5maWxlLm1hZT4nLCAnLW9tYWUnLCAnPG91dGZpbGUubWFlPic=

> <r_lp_tautomer_probability>
1

> <r_epik_Ionization_Penalty>
6.11221e-08

> <r_epik_Ionization_Penalty_Charging>
1.14855e-08

> <r_epik_Ionization_Penalty_Neutral>
4.96365e-08

> <r_epik_State_Penalty>
-0

> <r_epik_Charging_Adjusted_Penalty>
1.14855e-08

> <i_epik_Tot_Q>
0

> <i_epik_Tot_abs_Q>
0

> <r_epik_Metal_State_Penalty>
-0

> <b_epik_Metal_Only>
0

> <s_lp_Force_Field>
OPLS_2005

> <r_lp_Energy>
16.3445

> <b_lp_Chiralities_Consistent>
1

> <s_lp_Variant>
AV-unprocessed.smi:747-2

> <Gold.Version>
5.8.1

> <Gold.Id.Protein>
6NUR|6NUR_protein|mol2

> <Gold.PLP.Fitness>
45.8954

> <Gold.PLP.PLP>
-38.9042

> <Gold.PLP.part.hbond>
-5.6171

> <Gold.PLP.part.metal>
0.0000

> <Gold.PLP.part.buried>
-6.4843

> <Gold.PLP.part.nonpolar>
-29.0604

> <Gold.PLP.part.repulsive>
0.8207

> <Gold.PLP.ligand.clash>
0.0000

> <Gold.PLP.ligand.torsion>
0.7361

> <Gold.PLP.Chemscore.Hbond>
1.8226

> <Gold.PLP.Chemscore.CHOScore>
0.9560

> <Gold.PLP.Chemscore.Metal>
0.0000

> <Gold.Chemscore.Hbonds>
donor molecule, donor type, donor heavy atom, donor atom, acceptor molecule, acceptor atom, score
      L1  H    15    36       P1  7949  0.01
      L1  H    15    37       P1  7948  0.72
      P1  H  7989  7998       L1    16  1.00
      L1  C     6    29       P1  8028  0.79

> <Gold.PLP.Chemscore.Internal.Correction>
0.1277

> <Gold.Rescore>
     Score         DG    S(hbond)    S(metal)    S(lipo)     H(rot)  DE(clash)    DE(int)     intcor
      7.44     -10.04       1.44        0.00      61.70       2.91       0.25       2.35       ----

> <Gold.Chemscore.Fitness>
7.4408

> <Gold.Chemscore.DG>
-10.0392

> <Gold.Chemscore.ZeroCoef>
-5.4800

> <Gold.Chemscore.Hbond>
1.4358

> <Gold.Chemscore.Metal>
0.0000

> <Gold.Chemscore.Lipo>
61.7001

> <Gold.Chemscore.Internal_Hbond>
0.0000

> <Gold.Chemscore.DEClash>
0.2526

> <Gold.Chemscore.DEInternal>
2.3459

> <Gold.Chemscore.Rot>
2.9122

> <Gold.Chemscore.Internal.Correction>
   9.000000E+99

> <Gold.Chemscore.Hbonds>
donor molecule, donor type, donor heavy atom, donor atom, acceptor molecule, acceptor atom, score
      L1  H    15    36       P1  7949  0.02
      L1  H    15    37       P1  7948  0.35
      P1  H  7989  7998       L1    16  0.93

> <Gold.Chemscore.Hbond.Weighted>
-4.7956

> <Gold.Chemscore.Metal.Weighted>
-0.0000

> <Gold.Chemscore.Lipo.Weighted>
-7.2189

> <Gold.Chemscore.Internal_Hbond.Weighted>
0.0000

> <Gold.Chemscore.DEClash.Weighted>
0.2526

> <Gold.Chemscore.DEInternal.Weighted>
2.3459

> <Gold.Chemscore.Rot.Weighted>
7.4553

> <Gold.Chemscore.Internal.Correction.Weighted>
   9.000000E+99

> <Gold.Protein.RotatedTorsions>
[ 6907 6896 6895 6894 ] final  166.97 input  -60.11 | X-H torsion
[ 7974 7965 7964 7962 ] final  143.46 input  175.53 | X-H torsion
[ 8008 7997 7996 7995 ] final   -9.70 input   59.86 | X-H torsion
[ 10167 10162 10161 10158 ] final  -73.25 input  -65.29 | X-H torsion
[ 10718 10713 10712 10709 ] final  135.34 input   66.30 | X-H torsion
[ 10763 10752 10751 10750 ] final  126.69 input  -60.55 | X-H torsion
[ 11005 11000 10999 10996 ] final  -43.96 input  -57.11 | X-H torsion

> <Gold.Protein.ActiveResidues>
 VAL166  LYS551  ARG553  GLY616  TRP617  ASP618  TYR619  PRO620  LYS621  CYS622 
 ASP623  PHE694  ASN695  SER759  ASP760  ASP761  ALA762  ILE779  LEU786  VAL792 
 PHE793  MET794  SER795  GLU796  ALA797  LYS798  CYS799  TRP800  GLU811  SER814 

> <Gold.Protein.RotatedAtoms>
  151.8707  133.3475  159.3733 H   0  0  0  0  0  0  0  0  0  0  0  0  # atno 6907 bound_to 6896
  150.7153  134.5116  159.5619 H   0  0  0  0  0  0  0  0  0  0  0  0  # atno 6908 bound_to 6896
  152.2648  134.7996  160.0475 H   0  0  0  0  0  0  0  0  0  0  0  0  # atno 6909 bound_to 6896
  144.8919  139.5546  143.5794 H   0  0  0  0  0  0  0  0  0  0  0  0  # atno 7974 bound_to 7965
  154.5622  140.2348  155.8317 H   0  0  0  0  0  0  0  0  0  0  0  0  # atno 8008 bound_to 7997
  156.2039  140.3045  155.9544 H   0  0  0  0  0  0  0  0  0  0  0  0  # atno 8009 bound_to 7997
  155.2867  140.0425  157.3010 H   0  0  0  0  0  0  0  0  0  0  0  0  # atno 8010 bound_to 7997
  140.5125  143.2343  151.7568 H   0  0  0  0  0  0  0  0  0  0  0  0  # atno 10167 bound_to 10162
  157.4581  131.1071  150.9953 H   0  0  0  0  0  0  0  0  0  0  0  0  # atno 10718 bound_to 10713
  153.6974  135.3289  155.3216 H   0  0  0  0  0  0  0  0  0  0  0  0  # atno 10763 bound_to 10752
  154.8423  135.4446  154.1446 H   0  0  0  0  0  0  0  0  0  0  0  0  # atno 10764 bound_to 10752
  153.2504  135.6981  153.7763 H   0  0  0  0  0  0  0  0  0  0  0  0  # atno 10765 bound_to 10752
  141.0418  133.6777  156.2805 H   0  0  0  0  0  0  0  0  0  0  0  0  # atno 11005 bound_to 11000
  146.3058  139.7577  142.9057 LP  0  0  0  0  0  0  0  0  0  0  0  0  # atno 17320 bound_to 7965
  145.3768  141.0352  143.3200 LP  0  0  0  0  0  0  0  0  0  0  0  0  # atno 17321 bound_to 7965
  139.4900  144.4370  151.9808 LP  0  0  0  0  0  0  0  0  0  0  0  0  # atno 17342 bound_to 10162
  140.3463  144.3143  150.5957 LP  0  0  0  0  0  0  0  0  0  0  0  0  # atno 17343 bound_to 10162
  157.0760  130.5883  149.5411 LP  0  0  0  0  0  0  0  0  0  0  0  0  # atno 17370 bound_to 10713
  156.0016  130.5096  150.7683 LP  0  0  0  0  0  0  0  0  0  0  0  0  # atno 17371 bound_to 10713
  140.6219  134.5352  157.5548 LP  0  0  0  0  0  0  0  0  0  0  0  0  # atno 17394 bound_to 11000
  139.9282  134.8015  156.1008 LP  0  0  0  0  0  0  0  0  0  0  0  0  # atno 17395 bound_to 11000

$$$$
