AV-unprocessed.smi:791|AV-procd|sdf|3749|dock2
  -GOLD-   22720 1183D 1   1.00000     0.00000
 Structure written by MMmdl.
 30 32  0  0  0  0  0  0  0  0  2 V2000
  147.5642  141.0041  153.7431 C   0  0  0  0  0  0  0  0  0  0  0  0
  147.3910  139.5090  153.4260 C   0  0  0  0  0  0  0  0  0  0  0  0
  148.7042  138.8650  153.2029 N   0  3  0  0  0  0  0  0  0  0  0  0
  149.6167  138.9951  154.3604 C   0  0  0  0  0  0  0  0  0  0  0  0
  149.8315  140.4770  154.7273 C   0  0  2  0  0  0  0  0  0  0  0  0
  150.7654  140.6376  155.8870 C   0  0  0  0  0  0  0  0  0  0  0  0
  151.9233  139.9894  155.9321 N   0  0  0  0  0  0  0  0  0  0  0  0
  152.4725  140.3901  157.1583 O   0  0  0  0  0  0  0  0  0  0  0  0
  151.5781  141.2502  157.7002 C   0  0  0  0  0  0  0  0  0  0  0  0
  151.8646  141.8360  159.0406 C   0  0  0  0  0  0  0  0  0  0  0  0
  152.9539  142.8690  159.2195 C   0  0  0  0  0  0  0  0  0  0  0  0
  153.1326  141.4820  159.7828 C   0  0  0  0  0  0  0  0  0  0  0  0
  150.4824  141.4214  156.9649 N   0  0  0  0  0  0  0  0  0  0  0  0
  148.4928  141.2066  154.9505 C   0  0  0  0  0  0  0  0  0  0  0  0
  146.5930  141.4591  153.9400 H   0  0  0  0  0  0  0  0  0  0  0  0
  147.9760  141.5180  152.8734 H   0  0  0  0  0  0  0  0  0  0  0  0
  146.8774  139.0035  154.2448 H   0  0  0  0  0  0  0  0  0  0  0  0
  146.7753  139.3800  152.5358 H   0  0  0  0  0  0  0  0  0  0  0  0
  148.5607  137.8845  153.0076 H   0  0  0  0  0  0  0  0  0  0  0  0
  149.1963  138.4476  155.2052 H   0  0  0  0  0  0  0  0  0  0  0  0
  150.5679  138.5219  154.1149 H   0  0  0  0  0  0  0  0  0  0  0  0
  150.3061  140.9498  153.8649 H   0  0  0  0  0  0  0  0  0  0  0  0
  150.9493  141.9497  159.6180 H   0  0  0  0  0  0  0  0  0  0  0  0
  153.5491  143.1359  158.3483 H   0  0  0  0  0  0  0  0  0  0  0  0
  152.7682  143.6775  159.9235 H   0  0  0  0  0  0  0  0  0  0  0  0
  153.0675  141.3662  160.8627 H   0  0  0  0  0  0  0  0  0  0  0  0
  153.8432  140.8252  159.2847 H   0  0  0  0  0  0  0  0  0  0  0  0
  148.6633  142.2711  155.1162 H   0  0  0  0  0  0  0  0  0  0  0  0
  148.0044  140.8257  155.8485 H   0  0  0  0  0  0  0  0  0  0  0  0
  149.1403  139.2961  152.4002 H   0  0  0  0  0  0  0  0  0  0  0  0
  1 14  1  0  0  0  0
  1  2  1  0  0  0  0
  1 15  1  0  0  0  0
  1 16  1  0  0  0  0
  2  3  1  0  0  0  0
  2 17  1  0  0  0  0
  2 18  1  0  0  0  0
  3  4  1  0  0  0  0
  3 19  1  0  0  0  0
  3 30  1  0  0  0  0
  4  5  1  0  0  0  0
  4 20  1  0  0  0  0
  4 21  1  0  0  0  0
  5  6  1  0  0  0  0
  5 14  1  0  0  0  0
  5 22  1  0  0  0  0
  6 13  1  0  0  0  0
  6  7  2  0  0  0  0
  7  8  1  0  0  0  0
  8  9  1  0  0  0  0
  9 10  1  0  0  0  0
  9 13  2  0  0  0  0
 10 12  1  0  0  0  0
 10 11  1  0  0  0  0
 10 23  1  0  0  0  0
 11 12  1  0  0  0  0
 11 24  1  0  0  0  0
 11 25  1  0  0  0  0
 12 26  1  0  0  0  0
 12 27  1  0  0  0  0
 14 28  1  0  0  0  0
 14 29  1  0  0  0  0
M  CHG  1   3   1
M  END
> <s_m_source_file>
AV-unprocessed.smi

> <i_m_source_file_index>
791

> <i_lp_mmshare_version>
43012

> <i_f3d_flags>
0

> <s_epik_input>
W0NIMl0xW0NIMl1bQ0gyXVtOSF1bQ0gyXVtDQEhdMWMybm9jKG4yKVtDSF0zW0NIMl1bQ0gyXTM=

> <s_epik_cmdline>
J2VwaWtfcHl0aG9uJywgJy1waCcsICc3LjAnLCAnLXRuJywgJzgnLCAnLW1hJywgJzIwMCcsICctbWV0YWxfYmluZGluZycsICctaW1hZScsICc8aW5maWxlLm1hZT4nLCAnLW9tYWUnLCAnPG91dGZpbGUubWFlPic=

> <r_lp_tautomer_probability>
1

> <r_epik_Ionization_Penalty>
0.000532935

> <r_epik_Ionization_Penalty_Charging>
0.000532935

> <r_epik_Ionization_Penalty_Neutral>
2.72852e-13

> <r_epik_State_Penalty>
0.000332992

> <r_epik_Charging_Adjusted_Penalty>
0.000865928

> <i_epik_Tot_Q>
1

> <i_epik_Tot_abs_Q>
1

> <r_epik_Metal_State_Penalty>
-0

> <b_epik_Metal_Only>
0

> <s_lp_Force_Field>
OPLS_2005

> <r_lp_Energy>
11.8714

> <b_lp_Chiralities_Consistent>
1

> <s_lp_Variant>
AV-unprocessed.smi:791-2

> <Gold.Version>
5.8.1

> <Gold.Id.Protein>
6NUR|6NUR_protein|mol2

> <Gold.PLP.Fitness>
40.6221

> <Gold.PLP.PLP>
-29.4578

> <Gold.PLP.part.hbond>
-2.9539

> <Gold.PLP.part.metal>
0.0000

> <Gold.PLP.part.buried>
-1.7642

> <Gold.PLP.part.nonpolar>
-24.4765

> <Gold.PLP.part.repulsive>
0.1403

> <Gold.PLP.ligand.clash>
0.0000

> <Gold.PLP.ligand.torsion>
0.2403

> <Gold.PLP.Chemscore.Hbond>
3.8228

> <Gold.PLP.Chemscore.CHOScore>
0.0000

> <Gold.PLP.Chemscore.Metal>
0.0000

> <Gold.Chemscore.Hbonds>
donor molecule, donor type, donor heavy atom, donor atom, acceptor molecule, acceptor atom, score
      L1  H     3    19       P1  7948  1.95
      L1  H     3    30       P1  7957  0.96
      P1  H  7997  8009       L1     8  0.88

> <Gold.PLP.Chemscore.Internal.Correction>
0.1768

> <Gold.Rescore>
     Score         DG    S(hbond)    S(metal)    S(lipo)     H(rot)  DE(clash)    DE(int)     intcor
     18.28     -18.71       2.65        0.00      64.46       1.23       0.17       0.25       ----

> <Gold.Chemscore.Fitness>
18.2804

> <Gold.Chemscore.DG>
-18.7055

> <Gold.Chemscore.ZeroCoef>
-5.4800

> <Gold.Chemscore.Hbond>
2.6454

> <Gold.Chemscore.Metal>
0.0000

> <Gold.Chemscore.Lipo>
64.4598

> <Gold.Chemscore.Internal_Hbond>
0.0000

> <Gold.Chemscore.DEClash>
0.1737

> <Gold.Chemscore.DEInternal>
0.2514

> <Gold.Chemscore.Rot>
1.2312

> <Gold.Chemscore.Internal.Correction>
   9.000000E+99

> <Gold.Chemscore.Hbonds>
donor molecule, donor type, donor heavy atom, donor atom, acceptor molecule, acceptor atom, score
      L1  H     3    19       P1  7948  0.86
      L1  H     3    30       P1  7957  0.90
      P1  H  7997  8009       L1     8  0.21

> <Gold.Chemscore.Hbond.Weighted>
-8.8355

> <Gold.Chemscore.Metal.Weighted>
-0.0000

> <Gold.Chemscore.Lipo.Weighted>
-7.5418

> <Gold.Chemscore.Internal_Hbond.Weighted>
0.0000

> <Gold.Chemscore.DEClash.Weighted>
0.1737

> <Gold.Chemscore.DEInternal.Weighted>
0.2514

> <Gold.Chemscore.Rot.Weighted>
3.1518

> <Gold.Chemscore.Internal.Correction.Weighted>
   9.000000E+99

> <Gold.Protein.RotatedTorsions>
[ 6907 6896 6895 6894 ] final   98.57 input  -60.11 | X-H torsion
[ 7974 7965 7964 7962 ] final -125.65 input  175.53 | X-H torsion
[ 8008 7997 7996 7995 ] final  171.67 input   59.86 | X-H torsion
[ 10167 10162 10161 10158 ] final    1.95 input  -65.29 | X-H torsion
[ 10718 10713 10712 10709 ] final  -10.20 input   66.30 | X-H torsion
[ 10763 10752 10751 10750 ] final -118.23 input  -60.55 | X-H torsion
[ 11005 11000 10999 10996 ] final  145.21 input  -57.11 | X-H torsion

> <Gold.Protein.ActiveResidues>
 VAL166  LYS551  ARG553  GLY616  TRP617  ASP618  TYR619  PRO620  LYS621  CYS622 
 ASP623  PHE694  ASN695  SER759  ASP760  ASP761  ALA762  ILE779  LEU786  VAL792 
 PHE793  MET794  SER795  GLU796  ALA797  LYS798  CYS799  TRP800  GLU811  SER814 

> <Gold.Protein.RotatedAtoms>
  152.5407  134.0561  159.8130 H   0  0  0  0  0  0  0  0  0  0  0  0  # atno 6907 bound_to 6896
  151.0695  133.5470  159.2635 H   0  0  0  0  0  0  0  0  0  0  0  0  # atno 6908 bound_to 6896
  151.2338  135.0572  159.9052 H   0  0  0  0  0  0  0  0  0  0  0  0  # atno 6909 bound_to 6896
  144.9954  140.7771  143.4528 H   0  0  0  0  0  0  0  0  0  0  0  0  # atno 7974 bound_to 7965
  156.1249  140.1506  156.9151 H   0  0  0  0  0  0  0  0  0  0  0  0  # atno 8008 bound_to 7997
  154.4864  140.0864  156.7536 H   0  0  0  0  0  0  0  0  0  0  0  0  # atno 8009 bound_to 7997
  155.4361  140.3429  155.4287 H   0  0  0  0  0  0  0  0  0  0  0  0  # atno 8010 bound_to 7997
  140.6658  143.7182  150.7825 H   0  0  0  0  0  0  0  0  0  0  0  0  # atno 10167 bound_to 10162
  156.6769  130.5025  149.5983 H   0  0  0  0  0  0  0  0  0  0  0  0  # atno 10718 bound_to 10713
  154.8581  135.4281  154.2105 H   0  0  0  0  0  0  0  0  0  0  0  0  # atno 10763 bound_to 10752
  153.3132  135.6977  153.7102 H   0  0  0  0  0  0  0  0  0  0  0  0  # atno 10764 bound_to 10752
  153.6187  135.3506  155.2977 H   0  0  0  0  0  0  0  0  0  0  0  0  # atno 10765 bound_to 10752
  140.0694  134.9160  157.1320 H   0  0  0  0  0  0  0  0  0  0  0  0  # atno 11005 bound_to 11000
  145.2227  139.2151  143.5084 LP  0  0  0  0  0  0  0  0  0  0  0  0  # atno 17320 bound_to 7965
  146.3440  140.2088  142.8590 LP  0  0  0  0  0  0  0  0  0  0  0  0  # atno 17321 bound_to 7965
  140.0859  143.4924  152.2505 LP  0  0  0  0  0  0  0  0  0  0  0  0  # atno 17342 bound_to 10162
  139.5907  144.7549  151.3408 LP  0  0  0  0  0  0  0  0  0  0  0  0  # atno 17343 bound_to 10162
  156.1896  130.6551  151.1046 LP  0  0  0  0  0  0  0  0  0  0  0  0  # atno 17370 bound_to 10713
  157.7057  131.0757  150.6673 LP  0  0  0  0  0  0  0  0  0  0  0  0  # atno 17371 bound_to 10713
  140.3650  134.2453  155.7183 LP  0  0  0  0  0  0  0  0  0  0  0  0  # atno 17394 bound_to 11000
  141.2006  133.7984  157.0482 LP  0  0  0  0  0  0  0  0  0  0  0  0  # atno 17395 bound_to 11000

$$$$
