AV-unprocessed.smi:1575|AV-procd|sdf|6341|dock7
  -GOLD-   22720 6563D 1   1.00000     0.00000
 Structure written by MMmdl.
 40 40  0  0  0  0  0  0  0  0  2 V2000
  148.7434  133.1971  154.2698 C   0  0  0  0  0  0  0  0  0  0  0  0
  147.9385  134.2233  153.6256 N   0  0  0  0  0  0  0  0  0  0  0  0
  146.7686  134.6738  154.1009 C   0  0  0  0  0  0  0  0  0  0  0  0
  146.2629  134.2582  155.1451 O   0  0  0  0  0  0  0  0  0  0  0  0
  146.0799  135.7762  153.2784 C   0  0  2  0  0  0  0  0  0  0  0  0
  145.5521  135.1375  151.9708 C   0  0  0  0  0  0  0  0  0  0  0  0
  144.4140  134.1045  152.1472 C   0  0  0  0  0  0  0  0  0  0  0  0
  144.2665  133.1745  150.9319 C   0  0  0  0  0  0  0  0  0  0  0  0
  143.0845  134.8131  152.4467 C   0  0  0  0  0  0  0  0  0  0  0  0
  147.0378  136.8211  152.9270 N   0  0  0  0  0  0  0  0  0  0  0  0
  147.0812  138.0626  153.4388 C   0  0  0  0  0  0  0  0  0  0  0  0
  146.3199  138.4460  154.3265 O   0  0  0  0  0  0  0  0  0  0  0  0
  148.1262  139.0372  152.8685 C   0  0  0  0  0  0  0  0  0  0  0  0
  149.2987  139.2550  153.7367 N   0  0  0  0  0  0  0  0  0  0  0  0
  149.8939  138.1250  154.3250 C   0  0  0  0  0  0  0  0  0  0  0  0
  150.9818  138.2240  155.1125 C   0  0  0  0  0  0  0  0  0  0  0  0
  151.5441  139.5476  155.3503 C   0  0  0  0  0  0  0  0  0  0  0  0
  152.5382  139.6568  156.0656 O   0  0  0  0  0  0  0  0  0  0  0  0
  150.9306  140.6135  154.7576 N   0  5  0  0  0  0  0  0  0  0  0  0
  149.8256  140.4980  153.9578 C   0  0  0  0  0  0  0  0  0  0  0  0
  149.2954  141.4717  153.4222 O   0  0  0  0  0  0  0  0  0  0  0  0
  149.6201  132.9763  153.6613 H   0  0  0  0  0  0  0  0  0  0  0  0
  148.1735  132.2752  154.3944 H   0  0  0  0  0  0  0  0  0  0  0  0
  149.0839  133.5318  155.2504 H   0  0  0  0  0  0  0  0  0  0  0  0
  148.2893  134.6142  152.7631 H   0  0  0  0  0  0  0  0  0  0  0  0
  145.2562  136.2033  153.8528 H   0  0  0  0  0  0  0  0  0  0  0  0
  145.1965  135.9277  151.3064 H   0  0  0  0  0  0  0  0  0  0  0  0
  146.3797  134.6593  151.4442 H   0  0  0  0  0  0  0  0  0  0  0  0
  144.6364  133.4816  153.0143 H   0  0  0  0  0  0  0  0  0  0  0  0
  144.0864  133.7404  150.0177 H   0  0  0  0  0  0  0  0  0  0  0  0
  143.4318  132.4859  151.0666 H   0  0  0  0  0  0  0  0  0  0  0  0
  145.1584  132.5666  150.7818 H   0  0  0  0  0  0  0  0  0  0  0  0
  142.7834  135.4578  151.6206 H   0  0  0  0  0  0  0  0  0  0  0  0
  143.1611  135.4313  153.3417 H   0  0  0  0  0  0  0  0  0  0  0  0
  142.2841  134.0924  152.6164 H   0  0  0  0  0  0  0  0  0  0  0  0
  147.7048  136.5949  152.2031 H   0  0  0  0  0  0  0  0  0  0  0  0
  148.4467  138.6724  151.8910 H   0  0  0  0  0  0  0  0  0  0  0  0
  147.6264  139.9854  152.6666 H   0  0  0  0  0  0  0  0  0  0  0  0
  149.4208  137.1822  154.0927 H   0  0  0  0  0  0  0  0  0  0  0  0
  151.4294  137.3457  155.5540 H   0  0  0  0  0  0  0  0  0  0  0  0
  1  2  1  0  0  0  0
  1 22  1  0  0  0  0
  1 23  1  0  0  0  0
  1 24  1  0  0  0  0
  2  3  1  0  0  0  0
  2 25  1  0  0  0  0
  3  4  2  0  0  0  0
  3  5  1  0  0  0  0
  5  6  1  0  0  0  0
  5 10  1  0  0  0  0
  5 26  1  0  0  0  0
  6  7  1  0  0  0  0
  6 27  1  0  0  0  0
  6 28  1  0  0  0  0
  7  8  1  0  0  0  0
  7  9  1  0  0  0  0
  7 29  1  0  0  0  0
  8 30  1  0  0  0  0
  8 31  1  0  0  0  0
  8 32  1  0  0  0  0
  9 33  1  0  0  0  0
  9 34  1  0  0  0  0
  9 35  1  0  0  0  0
 10 11  1  0  0  0  0
 10 36  1  0  0  0  0
 11 12  2  0  0  0  0
 11 13  1  0  0  0  0
 13 14  1  0  0  0  0
 13 37  1  0  0  0  0
 13 38  1  0  0  0  0
 14 20  1  0  0  0  0
 14 15  1  0  0  0  0
 15 16  2  0  0  0  0
 15 39  1  0  0  0  0
 16 17  1  0  0  0  0
 16 40  1  0  0  0  0
 17 18  2  0  0  0  0
 17 19  1  0  0  0  0
 19 20  1  0  0  0  0
 20 21  2  0  0  0  0
M  CHG  1  19  -1
M  END
> <s_m_source_file>
AV-unprocessed.smi

> <i_m_source_file_index>
1575

> <i_lp_mmshare_version>
43012

> <i_f3d_flags>
0

> <s_epik_input>
W0NIM11bTkhdQyg9TylbQ0BIXShbQ0gyXVtDSF0oW0NIM10pW0NIM10pW05IXUMoPU8pW0NIMl1uMVtjSF1bY0hdYyg9TylbbkhdYzE9Tw==

> <s_epik_cmdline>
J2VwaWtfcHl0aG9uJywgJy1waCcsICc3LjAnLCAnLXRuJywgJzgnLCAnLW1hJywgJzIwMCcsICctbWV0YWxfYmluZGluZycsICctaW1hZScsICc8aW5maWxlLm1hZT4nLCAnLW9tYWUnLCAnPG91dGZpbGUubWFlPic=

> <r_lp_tautomer_probability>
0.999537

> <r_epik_Ionization_Penalty>
3.03017

> <r_epik_Ionization_Penalty_Charging>
2.35557e-08

> <r_epik_Ionization_Penalty_Neutral>
3.03017

> <r_epik_State_Penalty>
3.02913

> <r_epik_Charging_Adjusted_Penalty>
3.02913

> <i_epik_Tot_Q>
-1

> <i_epik_Tot_abs_Q>
1

> <r_epik_Metal_State_Penalty>
0.455824

> <b_epik_Metal_Only>
1

> <s_lp_Force_Field>
OPLS_2005

> <r_lp_Energy>
14.6611

> <b_lp_Chiralities_Consistent>
1

> <s_lp_Variant>
AV-unprocessed.smi:1575-3

> <Gold.Version>
5.8.1

> <Gold.Id.Protein>
6NUR|6NUR_protein|mol2

> <Gold.PLP.Fitness>
43.2985

> <Gold.PLP.PLP>
-31.1711

> <Gold.PLP.part.hbond>
-5.0283

> <Gold.PLP.part.metal>
0.0000

> <Gold.PLP.part.buried>
0.2466

> <Gold.PLP.part.nonpolar>
-25.9243

> <Gold.PLP.part.repulsive>
0.3946

> <Gold.PLP.ligand.clash>
0.0000

> <Gold.PLP.ligand.torsion>
0.9609

> <Gold.PLP.Chemscore.Hbond>
3.6673

> <Gold.PLP.Chemscore.CHOScore>
1.0000

> <Gold.PLP.Chemscore.Metal>
0.0000

> <Gold.Chemscore.Hbonds>
donor molecule, donor type, donor heavy atom, donor atom, acceptor molecule, acceptor atom, score
      L1  H     2    25       P1  7948  0.94
      L1  H    10    36       P1  7948  0.50
      P1  H  7989  7998       L1    19  0.16
      P1  H  7997  8010       L1    18  1.00
      P1  H  8011  8017       L1    21  0.90
      L1  C    15    39       P1  7948  0.94

> <Gold.PLP.Chemscore.Internal.Correction>
0.0474

> <Gold.Rescore>
     Score         DG    S(hbond)    S(metal)    S(lipo)     H(rot)  DE(clash)    DE(int)     intcor
     12.49     -14.57       3.21        0.00      46.08       2.74       0.40       1.68       ----

> <Gold.Chemscore.Fitness>
12.4899

> <Gold.Chemscore.DG>
-14.5687

> <Gold.Chemscore.ZeroCoef>
-5.4800

> <Gold.Chemscore.Hbond>
3.2097

> <Gold.Chemscore.Metal>
0.0000

> <Gold.Chemscore.Lipo>
46.0813

> <Gold.Chemscore.Internal_Hbond>
0.0000

> <Gold.Chemscore.DEClash>
0.3983

> <Gold.Chemscore.DEInternal>
1.6805

> <Gold.Chemscore.Rot>
2.7435

> <Gold.Chemscore.Internal.Correction>
   9.000000E+99

> <Gold.Chemscore.Hbonds>
donor molecule, donor type, donor heavy atom, donor atom, acceptor molecule, acceptor atom, score
      L1  H     2    25       P1  7948  0.36
      L1  H    10    36       P1  7948  0.47
      P1  H  7997  8010       L1    18  0.99
      P1  H  8011  8017       L1    21  0.81

> <Gold.Chemscore.Hbond.Weighted>
-10.7205

> <Gold.Chemscore.Metal.Weighted>
-0.0000

> <Gold.Chemscore.Lipo.Weighted>
-5.3915

> <Gold.Chemscore.Internal_Hbond.Weighted>
0.0000

> <Gold.Chemscore.DEClash.Weighted>
0.3983

> <Gold.Chemscore.DEInternal.Weighted>
1.6805

> <Gold.Chemscore.Rot.Weighted>
7.0233

> <Gold.Chemscore.Internal.Correction.Weighted>
   9.000000E+99

> <Gold.Protein.RotatedTorsions>
[ 6907 6896 6895 6894 ] final   64.23 input  -60.11 | X-H torsion
[ 7974 7965 7964 7962 ] final  -79.67 input  175.53 | X-H torsion
[ 8008 7997 7996 7995 ] final   66.52 input   59.86 | X-H torsion
[ 10167 10162 10161 10158 ] final  158.45 input  -65.29 | X-H torsion
[ 10718 10713 10712 10709 ] final  -33.12 input   66.30 | X-H torsion
[ 10763 10752 10751 10750 ] final  -45.86 input  -60.55 | X-H torsion
[ 11005 11000 10999 10996 ] final -174.32 input  -57.11 | X-H torsion

> <Gold.Protein.ActiveResidues>
 VAL166  LYS551  ARG553  GLY616  TRP617  ASP618  TYR619  PRO620  LYS621  CYS622 
 ASP623  PHE694  ASN695  SER759  ASP760  ASP761  ALA762  ILE779  LEU786  VAL792 
 PHE793  MET794  SER795  GLU796  ALA797  LYS798  CYS799  TRP800  GLU811  SER814 

> <Gold.Protein.RotatedAtoms>
  152.4315  134.5768  159.9936 H   0  0  0  0  0  0  0  0  0  0  0  0  # atno 6907 bound_to 6896
  151.5890  133.3363  159.3031 H   0  0  0  0  0  0  0  0  0  0  0  0  # atno 6908 bound_to 6896
  150.8209  134.7451  159.6836 H   0  0  0  0  0  0  0  0  0  0  0  0  # atno 6909 bound_to 6896
  145.5701  140.9467  143.1400 H   0  0  0  0  0  0  0  0  0  0  0  0  # atno 7974 bound_to 7965
  155.6787  140.3496  155.4847 H   0  0  0  0  0  0  0  0  0  0  0  0  # atno 8008 bound_to 7997
  155.9625  140.1140  157.0905 H   0  0  0  0  0  0  0  0  0  0  0  0  # atno 8009 bound_to 7997
  154.4146  140.1173  156.5185 H   0  0  0  0  0  0  0  0  0  0  0  0  # atno 8010 bound_to 7997
  139.4827  144.4823  151.8427 H   0  0  0  0  0  0  0  0  0  0  0  0  # atno 10167 bound_to 10162
  156.3665  130.4332  149.7580 H   0  0  0  0  0  0  0  0  0  0  0  0  # atno 10718 bound_to 10713
  154.0356  135.6651  153.4785 H   0  0  0  0  0  0  0  0  0  0  0  0  # atno 10763 bound_to 10752
  153.0523  135.5077  154.7892 H   0  0  0  0  0  0  0  0  0  0  0  0  # atno 10764 bound_to 10752
  154.6851  135.3051  154.9524 H   0  0  0  0  0  0  0  0  0  0  0  0  # atno 10765 bound_to 10752
  140.4758  134.6122  157.4900 H   0  0  0  0  0  0  0  0  0  0  0  0  # atno 11005 bound_to 11000
  144.7442  139.7366  143.7299 LP  0  0  0  0  0  0  0  0  0  0  0  0  # atno 17320 bound_to 7965
  146.1790  139.4974  142.9878 LP  0  0  0  0  0  0  0  0  0  0  0  0  # atno 17321 bound_to 7965
  140.4300  144.2129  150.5888 LP  0  0  0  0  0  0  0  0  0  0  0  0  # atno 17342 bound_to 10162
  140.4789  143.2386  151.8984 LP  0  0  0  0  0  0  0  0  0  0  0  0  # atno 17343 bound_to 10162
  156.4724  130.8003  151.3020 LP  0  0  0  0  0  0  0  0  0  0  0  0  # atno 17370 bound_to 10713
  157.7479  131.0031  150.3027 LP  0  0  0  0  0  0  0  0  0  0  0  0  # atno 17371 bound_to 10713
  139.9857  134.7066  155.9779 LP  0  0  0  0  0  0  0  0  0  0  0  0  # atno 17394 bound_to 11000
  141.1555  133.6543  156.4148 LP  0  0  0  0  0  0  0  0  0  0  0  0  # atno 17395 bound_to 11000

$$$$
