AV-unprocessed.smi:2413|AV-procd|sdf|9535|dock7
  -GOLD-   2272013163D 1   1.00000     0.00000
 Structure written by MMmdl.
 45 46  0  0  0  0  0  0  0  0  1 V2000
  149.3063  135.3255  153.8619 C   0  0  0  0  0  0  0  0  0  0  0  0
  150.2746  136.4733  154.1271 C   0  0  0  0  0  0  0  0  0  0  0  0
  151.2799  136.2883  154.8124 O   0  0  0  0  0  0  0  0  0  0  0  0
  149.9586  137.6552  153.5773 N   0  0  0  0  0  0  0  0  0  0  0  0
  150.7380  138.8803  153.7191 C   0  0  0  0  0  0  0  0  0  0  0  0
  150.2261  139.7487  154.8809 C   0  0  1  0  0  0  0  0  0  0  0  0
  151.3751  140.2127  155.7965 C   0  0  0  0  0  0  0  0  0  0  0  0
  150.8847  141.1331  156.8195 N   0  0  0  0  0  0  0  0  0  0  0  0
  151.7222  141.4291  157.9194 C   0  0  0  0  0  0  0  0  0  0  0  0
  151.4641  142.4948  158.8170 C   0  0  0  0  0  0  0  0  0  0  0  0
  152.3941  142.6919  159.8556 C   0  0  0  0  0  0  0  0  0  0  0  0
  153.4791  141.9044  159.9999 N   0  0  0  0  0  0  0  0  0  0  0  0
  153.6268  140.8961  159.1326 C   0  0  0  0  0  0  0  0  0  0  0  0
  154.9360  140.0912  159.2022 C   0  0  0  0  0  0  0  0  0  0  0  0
  154.9154  138.9091  158.2044 C   0  0  0  0  0  0  0  0  0  0  0  0
  155.1316  139.4656  160.6031 C   0  0  0  0  0  0  0  0  0  0  0  0
  156.1236  141.0168  158.8807 C   0  0  0  0  0  0  0  0  0  0  0  0
  152.8208  140.6554  158.0910 N   0  0  0  0  0  0  0  0  0  0  0  0
  150.0697  142.2302  156.2971 C   0  0  0  0  0  0  0  0  0  0  0  0
  148.9814  141.6958  155.3521 C   0  0  0  0  0  0  0  0  0  0  0  0
  149.5769  140.8952  154.3382 O   0  0  0  0  0  0  0  0  0  0  0  0
  148.2842  135.6228  154.0988 H   0  0  0  0  0  0  0  0  0  0  0  0
  149.5584  134.4568  154.4711 H   0  0  0  0  0  0  0  0  0  0  0  0
  149.3467  135.0310  152.8130 H   0  0  0  0  0  0  0  0  0  0  0  0
  149.1090  137.7159  153.0355 H   0  0  0  0  0  0  0  0  0  0  0  0
  151.7904  138.6316  153.8660 H   0  0  0  0  0  0  0  0  0  0  0  0
  150.6804  139.4358  152.7825 H   0  0  0  0  0  0  0  0  0  0  0  0
  149.5105  139.1721  155.4707 H   0  0  0  0  0  0  0  0  0  0  0  0
  151.8181  139.3322  156.2621 H   0  0  0  0  0  0  0  0  0  0  0  0
  152.1530  140.7067  155.2128 H   0  0  0  0  0  0  0  0  0  0  0  0
  150.6056  143.1436  158.7374 H   0  0  0  0  0  0  0  0  0  0  0  0
  152.2694  143.4909  160.5712 H   0  0  0  0  0  0  0  0  0  0  0  0
  155.8220  138.3076  158.2819 H   0  0  0  0  0  0  0  0  0  0  0  0
  154.8520  139.2487  157.1698 H   0  0  0  0  0  0  0  0  0  0  0  0
  154.0671  138.2485  158.3878 H   0  0  0  0  0  0  0  0  0  0  0  0
  154.2921  138.8234  160.8722 H   0  0  0  0  0  0  0  0  0  0  0  0
  155.2297  140.2249  161.3798 H   0  0  0  0  0  0  0  0  0  0  0  0
  156.0356  138.8568  160.6436 H   0  0  0  0  0  0  0  0  0  0  0  0
  157.0711  140.4784  158.9203 H   0  0  0  0  0  0  0  0  0  0  0  0
  156.1846  141.8429  159.5898 H   0  0  0  0  0  0  0  0  0  0  0  0
  156.0312  141.4471  157.8830 H   0  0  0  0  0  0  0  0  0  0  0  0
  149.5862  142.7909  157.0969 H   0  0  0  0  0  0  0  0  0  0  0  0
  150.7184  142.9268  155.7648 H   0  0  0  0  0  0  0  0  0  0  0  0
  148.2384  141.1156  155.9018 H   0  0  0  0  0  0  0  0  0  0  0  0
  148.4523  142.5258  154.8835 H   0  0  0  0  0  0  0  0  0  0  0  0
  1  2  1  0  0  0  0
  1 22  1  0  0  0  0
  1 23  1  0  0  0  0
  1 24  1  0  0  0  0
  2  3  2  0  0  0  0
  2  4  1  0  0  0  0
  4  5  1  0  0  0  0
  4 25  1  0  0  0  0
  5  6  1  0  0  0  0
  5 26  1  0  0  0  0
  5 27  1  0  0  0  0
  6 21  1  0  0  0  0
  6  7  1  0  0  0  0
  6 28  1  0  0  0  0
  7  8  1  0  0  0  0
  7 29  1  0  0  0  0
  7 30  1  0  0  0  0
  8  9  1  0  0  0  0
  8 19  1  0  0  0  0
  9 18  1  0  0  0  0
  9 10  2  0  0  0  0
 10 11  1  0  0  0  0
 10 31  1  0  0  0  0
 11 12  2  0  0  0  0
 11 32  1  0  0  0  0
 12 13  1  0  0  0  0
 13 14  1  0  0  0  0
 13 18  2  0  0  0  0
 14 15  1  0  0  0  0
 14 16  1  0  0  0  0
 14 17  1  0  0  0  0
 15 33  1  0  0  0  0
 15 34  1  0  0  0  0
 15 35  1  0  0  0  0
 16 36  1  0  0  0  0
 16 37  1  0  0  0  0
 16 38  1  0  0  0  0
 17 39  1  0  0  0  0
 17 40  1  0  0  0  0
 17 41  1  0  0  0  0
 19 20  1  0  0  0  0
 19 42  1  0  0  0  0
 19 43  1  0  0  0  0
 20 21  1  0  0  0  0
 20 44  1  0  0  0  0
 20 45  1  0  0  0  0
M  END
> <s_m_source_file>
AV-unprocessed.smi

> <i_m_source_file_index>
2413

> <i_lp_mmshare_version>
43012

> <i_f3d_flags>
0

> <s_epik_input>
W0NIM11DKD1PKVtOSF1bQ0gyXVtDQEBIXTFbQ0gyXU4oW0NIMl1bQ0gyXU8xKWMyW2NIXVtjSF1uYyhuMilDKFtDSDNdKShbQ0gzXSlbQ0gzXQ==

> <s_epik_cmdline>
J2VwaWtfcHl0aG9uJywgJy1waCcsICc3LjAnLCAnLXRuJywgJzgnLCAnLW1hJywgJzIwMCcsICctbWV0YWxfYmluZGluZycsICctaW1hZScsICc8aW5maWxlLm1hZT4nLCAnLW9tYWUnLCAnPG91dGZpbGUubWFlPic=

> <r_lp_tautomer_probability>
1

> <r_epik_Ionization_Penalty>
0.0132021

> <r_epik_Ionization_Penalty_Charging>
0

> <r_epik_Ionization_Penalty_Neutral>
0.0132021

> <r_epik_State_Penalty>
0.0102452

> <r_epik_Charging_Adjusted_Penalty>
0.0102452

> <i_epik_Tot_Q>
0

> <i_epik_Tot_abs_Q>
0

> <r_epik_Metal_State_Penalty>
0.0100219

> <b_epik_Metal_Only>
0

> <s_lp_Force_Field>
OPLS_2005

> <r_lp_Energy>
8.35197

> <b_lp_Chiralities_Consistent>
1

> <s_lp_Variant>
AV-unprocessed.smi:2413-2

> <Gold.Version>
5.8.1

> <Gold.Id.Protein>
6NUR|6NUR_protein|mol2

> <Gold.PLP.Fitness>
48.1602

> <Gold.PLP.PLP>
-40.4916

> <Gold.PLP.part.hbond>
-4.7793

> <Gold.PLP.part.metal>
0.0000

> <Gold.PLP.part.buried>
-5.1262

> <Gold.PLP.part.nonpolar>
-30.8899

> <Gold.PLP.part.repulsive>
0.2240

> <Gold.PLP.ligand.clash>
0.0000

> <Gold.PLP.ligand.torsion>
1.5561

> <Gold.PLP.Chemscore.Hbond>
3.3841

> <Gold.PLP.Chemscore.CHOScore>
0.0000

> <Gold.PLP.Chemscore.Metal>
0.0000

> <Gold.Chemscore.Hbonds>
donor molecule, donor type, donor heavy atom, donor atom, acceptor molecule, acceptor atom, score
      L1  H     4    25       P1  7948  0.19
      P1  H  7997  8008       L1    18  0.18
      P1  H 10752 10763       L1     3  0.57

> <Gold.PLP.Chemscore.Internal.Correction>
0.6285

> <Gold.Rescore>
     Score         DG    S(hbond)    S(metal)    S(lipo)     H(rot)  DE(clash)    DE(int)     intcor
     16.77     -17.92       2.08        0.00      84.83       1.73       0.05       1.10       ----

> <Gold.Chemscore.Fitness>
16.7725

> <Gold.Chemscore.DG>
-17.9228

> <Gold.Chemscore.ZeroCoef>
-5.4800

> <Gold.Chemscore.Hbond>
2.0824

> <Gold.Chemscore.Metal>
0.0000

> <Gold.Chemscore.Lipo>
84.8269

> <Gold.Chemscore.Internal_Hbond>
0.0000

> <Gold.Chemscore.DEClash>
0.0495

> <Gold.Chemscore.DEInternal>
1.1008

> <Gold.Chemscore.Rot>
1.7332

> <Gold.Chemscore.Internal.Correction>
   9.000000E+99

> <Gold.Chemscore.Hbonds>
donor molecule, donor type, donor heavy atom, donor atom, acceptor molecule, acceptor atom, score
      L1  H     4    25       P1  7948  0.20
      P1  H 10752 10763       L1     3  0.54

> <Gold.Chemscore.Hbond.Weighted>
-6.9551

> <Gold.Chemscore.Metal.Weighted>
-0.0000

> <Gold.Chemscore.Lipo.Weighted>
-9.9247

> <Gold.Chemscore.Internal_Hbond.Weighted>
0.0000

> <Gold.Chemscore.DEClash.Weighted>
0.0495

> <Gold.Chemscore.DEInternal.Weighted>
1.1008

> <Gold.Chemscore.Rot.Weighted>
4.4370

> <Gold.Chemscore.Internal.Correction.Weighted>
   9.000000E+99

> <Gold.Protein.RotatedTorsions>
[ 6907 6896 6895 6894 ] final  126.21 input  -60.11 | X-H torsion
[ 7974 7965 7964 7962 ] final -100.32 input  175.53 | X-H torsion
[ 8008 7997 7996 7995 ] final  -84.99 input   59.86 | X-H torsion
[ 10167 10162 10161 10158 ] final   47.73 input  -65.29 | X-H torsion
[ 10718 10713 10712 10709 ] final   73.84 input   66.30 | X-H torsion
[ 10763 10752 10751 10750 ] final   91.82 input  -60.55 | X-H torsion
[ 11005 11000 10999 10996 ] final -122.85 input  -57.11 | X-H torsion

> <Gold.Protein.ActiveResidues>
 VAL166  LYS551  ARG553  GLY616  TRP617  ASP618  TYR619  PRO620  LYS621  CYS622 
 ASP623  PHE694  ASN695  SER759  ASP760  ASP761  ALA762  ILE779  LEU786  VAL792 
 PHE793  MET794  SER795  GLU796  ALA797  LYS798  CYS799  TRP800  GLU811  SER814 

> <Gold.Protein.RotatedAtoms>
  152.3924  133.6697  159.6247 H   0  0  0  0  0  0  0  0  0  0  0  0  # atno 6907 bound_to 6896
  150.7829  133.8932  159.3328 H   0  0  0  0  0  0  0  0  0  0  0  0  # atno 6908 bound_to 6896
  151.6716  135.0976  160.0250 H   0  0  0  0  0  0  0  0  0  0  0  0  # atno 6909 bound_to 6896
  145.2961  140.9365  143.2850 H   0  0  0  0  0  0  0  0  0  0  0  0  # atno 7974 bound_to 7965
  154.6358  140.0597  156.9787 H   0  0  0  0  0  0  0  0  0  0  0  0  # atno 8008 bound_to 7997
  155.1594  140.3281  155.4396 H   0  0  0  0  0  0  0  0  0  0  0  0  # atno 8009 bound_to 7997
  156.2506  140.1933  156.6702 H   0  0  0  0  0  0  0  0  0  0  0  0  # atno 8010 bound_to 7997
  140.3006  144.2939  150.6220 H   0  0  0  0  0  0  0  0  0  0  0  0  # atno 10167 bound_to 10162
  157.6566  130.9648  150.1126 H   0  0  0  0  0  0  0  0  0  0  0  0  # atno 10718 bound_to 10713
  153.2124  135.4383  155.0395 H   0  0  0  0  0  0  0  0  0  0  0  0  # atno 10763 bound_to 10752
  154.8207  135.3336  154.7048 H   0  0  0  0  0  0  0  0  0  0  0  0  # atno 10764 bound_to 10752
  153.7485  135.7000  153.5006 H   0  0  0  0  0  0  0  0  0  0  0  0  # atno 10765 bound_to 10752
  140.9964  134.0466  157.3592 H   0  0  0  0  0  0  0  0  0  0  0  0  # atno 11005 bound_to 11000
  144.9132  139.4502  143.6577 LP  0  0  0  0  0  0  0  0  0  0  0  0  # atno 17320 bound_to 7965
  146.3168  139.7952  142.8977 LP  0  0  0  0  0  0  0  0  0  0  0  0  # atno 17321 bound_to 7965
  140.5654  143.2187  151.7692 LP  0  0  0  0  0  0  0  0  0  0  0  0  # atno 17342 bound_to 10162
  139.4916  144.4290  151.9893 LP  0  0  0  0  0  0  0  0  0  0  0  0  # atno 17343 bound_to 10162
  156.2019  130.3661  149.8778 LP  0  0  0  0  0  0  0  0  0  0  0  0  # atno 17370 bound_to 10713
  156.6679  130.8808  151.3558 LP  0  0  0  0  0  0  0  0  0  0  0  0  # atno 17371 bound_to 10713
  139.9017  135.0166  156.7298 LP  0  0  0  0  0  0  0  0  0  0  0  0  # atno 17394 bound_to 11000
  140.6959  133.9349  155.7994 LP  0  0  0  0  0  0  0  0  0  0  0  0  # atno 17395 bound_to 11000

$$$$
