AV-unprocessed.smi:1971|AV-procd|sdf|7965|dock4
  -GOLD-   2272010133D 1   1.00000     0.00000
 Structure written by MMmdl.
 44 45  0  0  0  0  0  0  0  0  2 V2000
  150.5872  141.5315  155.8213 C   0  0  0  0  0  0  0  0  0  0  0  0
  151.0438  140.0664  155.7677 C   0  0  0  0  0  0  0  0  0  0  0  0
  150.7805  139.4576  154.4615 N   0  0  0  0  0  0  0  0  0  0  0  0
  151.4160  138.1522  154.2471 C   0  0  0  0  0  0  0  0  0  0  0  0
  150.7799  137.0428  155.1108 C   0  0  0  0  0  0  0  0  0  0  0  0
  149.3252  136.9500  154.8365 N   0  3  0  0  0  0  0  0  0  0  0  0
  148.6566  135.7845  155.4859 C   0  0  1  0  0  0  0  0  0  0  0  0
  147.1204  135.9010  155.5298 C   0  0  0  0  0  0  0  0  0  0  0  0
  149.1031  134.4384  154.8664 C   0  0  0  0  0  0  0  0  0  0  0  0
  148.5971  134.2215  153.5124 N   0  0  0  0  0  0  0  0  0  0  0  0
  147.5326  133.4695  153.1973 C   0  0  0  0  0  0  0  0  0  0  0  0
  146.8749  132.8464  154.0306 O   0  0  0  0  0  0  0  0  0  0  0  0
  147.2960  133.4883  151.8741 N   0  0  0  0  0  0  0  0  0  0  0  0
  146.2725  132.8146  151.1569 C   0  0  0  0  0  0  0  0  0  0  0  0
  145.6109  133.3363  150.1172 N   0  0  0  0  0  0  0  0  0  0  0  0
  144.6589  132.4512  149.6045 C   0  0  0  0  0  0  0  0  0  0  0  0
  144.6076  131.2531  150.2724 C   0  0  0  0  0  0  0  0  0  0  0  0
  145.7592  131.1879  151.5797 S   0  0  0  0  0  0  0  0  0  0  0  0
  148.6694  138.2648  155.0490 C   0  0  0  0  0  0  0  0  0  0  0  0
  149.3473  139.3424  154.1774 C   0  0  0  0  0  0  0  0  0  0  0  0
  150.6769  141.9207  156.8356 H   0  0  0  0  0  0  0  0  0  0  0  0
  149.5433  141.6319  155.5224 H   0  0  0  0  0  0  0  0  0  0  0  0
  151.1885  142.1730  155.1775 H   0  0  0  0  0  0  0  0  0  0  0  0
  152.0942  139.9892  156.0456 H   0  0  0  0  0  0  0  0  0  0  0  0
  150.4843  139.5141  156.5240 H   0  0  0  0  0  0  0  0  0  0  0  0
  151.3125  137.8905  153.1932 H   0  0  0  0  0  0  0  0  0  0  0  0
  152.4875  138.2112  154.4340 H   0  0  0  0  0  0  0  0  0  0  0  0
  151.2557  136.0918  154.8685 H   0  0  0  0  0  0  0  0  0  0  0  0
  150.9625  137.2201  156.1704 H   0  0  0  0  0  0  0  0  0  0  0  0
  148.9978  135.7732  156.5217 H   0  0  0  0  0  0  0  0  0  0  0  0
  146.6918  135.0851  156.1126 H   0  0  0  0  0  0  0  0  0  0  0  0
  146.6790  135.8498  154.5346 H   0  0  0  0  0  0  0  0  0  0  0  0
  146.7956  136.8316  155.9947 H   0  0  0  0  0  0  0  0  0  0  0  0
  150.1922  134.3702  154.8615 H   0  0  0  0  0  0  0  0  0  0  0  0
  148.7547  133.6084  155.4813 H   0  0  0  0  0  0  0  0  0  0  0  0
  149.0731  134.7065  152.7655 H   0  0  0  0  0  0  0  0  0  0  0  0
  147.9160  134.0530  151.3123 H   0  0  0  0  0  0  0  0  0  0  0  0
  144.0594  132.7567  148.7597 H   0  0  0  0  0  0  0  0  0  0  0  0
  143.9648  130.4082  150.0748 H   0  0  0  0  0  0  0  0  0  0  0  0
  147.6165  138.2009  154.7755 H   0  0  0  0  0  0  0  0  0  0  0  0
  148.7031  138.5485  156.1009 H   0  0  0  0  0  0  0  0  0  0  0  0
  148.8637  140.3091  154.3232 H   0  0  0  0  0  0  0  0  0  0  0  0
  149.2193  139.0933  153.1230 H   0  0  0  0  0  0  0  0  0  0  0  0
  149.2593  136.7680  153.8453 H   0  0  0  0  0  0  0  0  0  0  0  0
  1  2  1  0  0  0  0
  1 21  1  0  0  0  0
  1 22  1  0  0  0  0
  1 23  1  0  0  0  0
  2  3  1  0  0  0  0
  2 24  1  0  0  0  0
  2 25  1  0  0  0  0
  3 20  1  0  0  0  0
  3  4  1  0  0  0  0
  4  5  1  0  0  0  0
  4 26  1  0  0  0  0
  4 27  1  0  0  0  0
  5  6  1  0  0  0  0
  5 28  1  0  0  0  0
  5 29  1  0  0  0  0
  6  7  1  0  0  0  0
  6 19  1  0  0  0  0
  6 44  1  0  0  0  0
  7  8  1  0  0  0  0
  7  9  1  0  0  0  0
  7 30  1  0  0  0  0
  8 31  1  0  0  0  0
  8 32  1  0  0  0  0
  8 33  1  0  0  0  0
  9 10  1  0  0  0  0
  9 34  1  0  0  0  0
  9 35  1  0  0  0  0
 10 11  1  0  0  0  0
 10 36  1  0  0  0  0
 11 12  2  0  0  0  0
 11 13  1  0  0  0  0
 13 14  1  0  0  0  0
 13 37  1  0  0  0  0
 14 18  1  0  0  0  0
 14 15  2  0  0  0  0
 15 16  1  0  0  0  0
 16 17  2  0  0  0  0
 16 38  1  0  0  0  0
 17 18  1  0  0  0  0
 17 39  1  0  0  0  0
 19 20  1  0  0  0  0
 19 40  1  0  0  0  0
 19 41  1  0  0  0  0
 20 42  1  0  0  0  0
 20 43  1  0  0  0  0
M  CHG  1   6   1
M  END
> <s_m_source_file>
AV-unprocessed.smi

> <i_m_source_file_index>
1971

> <i_lp_mmshare_version>
43012

> <i_f3d_flags>
0

> <s_epik_input>
W0NIM11bQ0gyXU4xW0NIMl1bQ0gyXU4oW0NIMl1bQ0gyXTEpW0NASF0oW0NIM10pW0NIMl1bTkhdQyg9TylbTkhdYzJuW2NIXVtjSF1zMg==

> <s_epik_cmdline>
J2VwaWtfcHl0aG9uJywgJy1waCcsICc3LjAnLCAnLXRuJywgJzgnLCAnLW1hJywgJzIwMCcsICctbWV0YWxfYmluZGluZycsICctaW1hZScsICc8aW5maWxlLm1hZT4nLCAnLW9tYWUnLCAnPG91dGZpbGUubWFlPic=

> <r_epik_Ionization_Penalty>
0.150098

> <r_epik_Ionization_Penalty_Charging>
0.148467

> <r_epik_Ionization_Penalty_Neutral>
0.00163072

> <r_epik_State_Penalty>
0.974087

> <r_epik_Charging_Adjusted_Penalty>
1.12255

> <i_epik_Tot_Q>
1

> <i_epik_Tot_abs_Q>
1

> <r_epik_Metal_State_Penalty>
1.00741

> <b_epik_Metal_Only>
0

> <s_lp_Force_Field>
OPLS_2005

> <r_lp_Energy>
24.0056

> <b_lp_Chiralities_Consistent>
1

> <s_lp_Variant>
AV-unprocessed.smi:1971-4

> <Gold.Version>
5.8.1

> <Gold.Id.Protein>
6NUR|6NUR_protein|mol2

> <Gold.PLP.Fitness>
45.6865

> <Gold.PLP.PLP>
-31.4039

> <Gold.PLP.part.hbond>
-3.2504

> <Gold.PLP.part.metal>
0.0000

> <Gold.PLP.part.buried>
-3.9205

> <Gold.PLP.part.nonpolar>
-24.1966

> <Gold.PLP.part.repulsive>
0.5712

> <Gold.PLP.ligand.clash>
0.0000

> <Gold.PLP.ligand.torsion>
0.8097

> <Gold.PLP.Chemscore.Hbond>
3.3525

> <Gold.PLP.Chemscore.CHOScore>
1.9062

> <Gold.PLP.Chemscore.Metal>
0.0000

> <Gold.Chemscore.Hbonds>
donor molecule, donor type, donor heavy atom, donor atom, acceptor molecule, acceptor atom, score
      L1  H     6    44       P1  7948  1.89
      L1  H    10    36       P1  7948  0.25
      L1  H    13    37       P1  7948  0.01
      P1  H  7989  7998       L1     3  0.70

> <Gold.PLP.Chemscore.Internal.Correction>
0.1261

> <Gold.Rescore>
     Score         DG    S(hbond)    S(metal)    S(lipo)     H(rot)  DE(clash)    DE(int)     intcor
     13.62     -14.98       1.65        0.00      73.49       1.79       0.20       1.16       ----

> <Gold.Chemscore.Fitness>
13.6202

> <Gold.Chemscore.DG>
-14.9833

> <Gold.Chemscore.ZeroCoef>
-5.4800

> <Gold.Chemscore.Hbond>
1.6457

> <Gold.Chemscore.Metal>
0.0000

> <Gold.Chemscore.Lipo>
73.4925

> <Gold.Chemscore.Internal_Hbond>
0.0000

> <Gold.Chemscore.DEClash>
0.2038

> <Gold.Chemscore.DEInternal>
1.1592

> <Gold.Chemscore.Rot>
1.7937

> <Gold.Chemscore.Internal.Correction>
   9.000000E+99

> <Gold.Chemscore.Hbonds>
donor molecule, donor type, donor heavy atom, donor atom, acceptor molecule, acceptor atom, score
      L1  H     6    44       P1  7948  0.88
      P1  H  7989  7998       L1     3  0.05

> <Gold.Chemscore.Hbond.Weighted>
-5.4966

> <Gold.Chemscore.Metal.Weighted>
-0.0000

> <Gold.Chemscore.Lipo.Weighted>
-8.5986

> <Gold.Chemscore.Internal_Hbond.Weighted>
0.0000

> <Gold.Chemscore.DEClash.Weighted>
0.2038

> <Gold.Chemscore.DEInternal.Weighted>
1.1592

> <Gold.Chemscore.Rot.Weighted>
4.5919

> <Gold.Chemscore.Internal.Correction.Weighted>
   9.000000E+99

> <Gold.Protein.RotatedTorsions>
[ 6907 6896 6895 6894 ] final   41.37 input  -60.11 | X-H torsion
[ 7974 7965 7964 7962 ] final   69.73 input  175.53 | X-H torsion
[ 8008 7997 7996 7995 ] final -115.12 input   59.86 | X-H torsion
[ 10167 10162 10161 10158 ] final -171.25 input  -65.29 | X-H torsion
[ 10718 10713 10712 10709 ] final  175.47 input   66.30 | X-H torsion
[ 10763 10752 10751 10750 ] final   73.77 input  -60.55 | X-H torsion
[ 11005 11000 10999 10996 ] final  -45.32 input  -57.11 | X-H torsion

> <Gold.Protein.ActiveResidues>
 VAL166  LYS551  ARG553  GLY616  TRP617  ASP618  TYR619  PRO620  LYS621  CYS622 
 ASP623  PHE694  ASN695  SER759  ASP760  ASP761  ALA762  ILE779  LEU786  VAL792 
 PHE793  MET794  SER795  GLU796  ALA797  LYS798  CYS799  TRP800  GLU811  SER814 

> <Gold.Protein.RotatedAtoms>
  152.1944  134.8643  160.0514 H   0  0  0  0  0  0  0  0  0  0  0  0  # atno 6907 bound_to 6896
  151.9520  133.3664  159.4012 H   0  0  0  0  0  0  0  0  0  0  0  0  # atno 6908 bound_to 6896
  150.6941  134.4254  159.5268 H   0  0  0  0  0  0  0  0  0  0  0  0  # atno 6909 bound_to 6896
  145.7869  139.2914  143.1233 H   0  0  0  0  0  0  0  0  0  0  0  0  # atno 7974 bound_to 7965
  155.0470  140.0392  157.2530 H   0  0  0  0  0  0  0  0  0  0  0  0  # atno 8008 bound_to 7997
  154.7169  140.2704  155.6553 H   0  0  0  0  0  0  0  0  0  0  0  0  # atno 8009 bound_to 7997
  156.2805  140.2710  156.1828 H   0  0  0  0  0  0  0  0  0  0  0  0  # atno 8010 bound_to 7997
  139.5813  144.1416  152.1519 H   0  0  0  0  0  0  0  0  0  0  0  0  # atno 10167 bound_to 10162
  156.9344  130.9981  151.2981 H   0  0  0  0  0  0  0  0  0  0  0  0  # atno 10718 bound_to 10713
  153.0543  135.5050  154.7943 H   0  0  0  0  0  0  0  0  0  0  0  0  # atno 10763 bound_to 10752
  154.6781  135.2964  154.9653 H   0  0  0  0  0  0  0  0  0  0  0  0  # atno 10764 bound_to 10752
  154.0449  135.6712  153.4846 H   0  0  0  0  0  0  0  0  0  0  0  0  # atno 10765 bound_to 10752
  141.0508  133.6744  156.2996 H   0  0  0  0  0  0  0  0  0  0  0  0  # atno 11005 bound_to 11000
  146.0017  140.8514  143.0015 LP  0  0  0  0  0  0  0  0  0  0  0  0  # atno 17320 bound_to 7965
  144.6787  140.2362  143.7349 LP  0  0  0  0  0  0  0  0  0  0  0  0  # atno 17321 bound_to 7965
  140.0970  144.5572  150.7015 LP  0  0  0  0  0  0  0  0  0  0  0  0  # atno 17342 bound_to 10162
  140.7091  143.2491  151.4636 LP  0  0  0  0  0  0  0  0  0  0  0  0  # atno 17343 bound_to 10162
  157.5826  130.8387  149.8544 LP  0  0  0  0  0  0  0  0  0  0  0  0  # atno 17370 bound_to 10713
  156.0432  130.3734  150.1381 LP  0  0  0  0  0  0  0  0  0  0  0  0  # atno 17371 bound_to 10713
  140.6059  134.5507  157.5525 LP  0  0  0  0  0  0  0  0  0  0  0  0  # atno 17394 bound_to 11000
  139.9349  134.7895  156.0831 LP  0  0  0  0  0  0  0  0  0  0  0  0  # atno 17395 bound_to 11000

$$$$
