AV-unprocessed.smi:1434|AV-procd|sdf|5856|dock4
  -GOLD-   22720 5523D 1   1.00000     0.00000
 Structure written by MMmdl.
 44 45  0  0  0  0  0  0  0  0  3 V2000
  150.8952  137.7123  156.4644 C   0  0  0  0  0  0  0  0  0  0  0  0
  152.2094  138.5882  155.5139 S   0  0  0  0  0  0  0  0  0  0  0  0
  153.1091  139.1897  156.5127 O   0  0  0  0  0  0  0  0  0  0  0  0
  152.7889  137.5623  154.6338 O   0  0  0  0  0  0  0  0  0  0  0  0
  151.3475  139.6720  154.6596 N   0  5  0  0  0  0  0  0  0  0  0  0
  149.9291  139.8920  154.9153 C   0  0  1  0  0  0  0  0  0  0  0  0
  149.6594  141.3836  155.2446 C   0  0  0  0  0  0  0  0  0  0  0  0
  148.1505  141.7452  155.2732 C   0  0  0  0  0  0  0  0  0  0  0  0
  147.4024  141.2730  154.0052 C   0  0  0  0  0  0  0  0  0  0  0  0
  147.6584  139.8220  153.8511 N   0  0  0  0  0  0  0  0  0  0  0  0
  146.7213  138.8387  153.9287 C   0  0  0  0  0  0  0  0  0  0  0  0
  145.5983  139.0081  154.4055 O   0  0  0  0  0  0  0  0  0  0  0  0
  147.1121  137.6453  153.4523 N   0  0  0  0  0  0  0  0  0  0  0  0
  146.2830  136.4484  153.4320 C   0  0  0  0  0  0  0  0  0  0  0  0
  145.3777  136.4394  152.1927 C   0  0  0  0  0  0  0  0  0  0  0  0
  145.3105  135.0719  151.5408 C   0  0  0  0  0  0  0  0  0  0  0  0
  144.0827  134.4444  151.2368 C   0  0  0  0  0  0  0  0  0  0  0  0
  144.0915  133.1756  150.6206 C   0  0  0  0  0  0  0  0  0  0  0  0
  145.3255  132.5612  150.3225 C   0  0  0  0  0  0  0  0  0  0  0  0
  146.5213  133.2337  150.6458 C   0  0  0  0  0  0  0  0  0  0  0  0
  146.4720  134.4495  151.2336 N   0  3  0  0  0  0  0  0  0  0  0  0
  149.0959  139.5149  153.6599 C   0  0  0  0  0  0  0  0  0  0  0  0
  151.3442  136.8902  157.0206 H   0  0  0  0  0  0  0  0  0  0  0  0
  150.1505  137.3168  155.7742 H   0  0  0  0  0  0  0  0  0  0  0  0
  150.4180  138.3982  157.1634 H   0  0  0  0  0  0  0  0  0  0  0  0
  149.5694  139.2830  155.7456 H   0  0  0  0  0  0  0  0  0  0  0  0
  150.1168  141.6481  156.1984 H   0  0  0  0  0  0  0  0  0  0  0  0
  150.1443  142.0095  154.4936 H   0  0  0  0  0  0  0  0  0  0  0  0
  147.6798  141.3046  156.1545 H   0  0  0  0  0  0  0  0  0  0  0  0
  148.0388  142.8241  155.3837 H   0  0  0  0  0  0  0  0  0  0  0  0
  146.3511  141.5503  154.0764 H   0  0  0  0  0  0  0  0  0  0  0  0
  147.7871  141.7952  153.1280 H   0  0  0  0  0  0  0  0  0  0  0  0
  148.0460  137.5690  153.0767 H   0  0  0  0  0  0  0  0  0  0  0  0
  146.9192  135.5614  153.4329 H   0  0  0  0  0  0  0  0  0  0  0  0
  145.6821  136.4173  154.3421 H   0  0  0  0  0  0  0  0  0  0  0  0
  144.3680  136.7519  152.4639 H   0  0  0  0  0  0  0  0  0  0  0  0
  145.7381  137.1646  151.4618 H   0  0  0  0  0  0  0  0  0  0  0  0
  143.1452  134.9287  151.4686 H   0  0  0  0  0  0  0  0  0  0  0  0
  143.1626  132.6799  150.3786 H   0  0  0  0  0  0  0  0  0  0  0  0
  145.3536  131.5893  149.8512 H   0  0  0  0  0  0  0  0  0  0  0  0
  147.5085  132.8394  150.4524 H   0  0  0  0  0  0  0  0  0  0  0  0
  149.4514  140.0762  152.7942 H   0  0  0  0  0  0  0  0  0  0  0  0
  149.2656  138.4659  153.4119 H   0  0  0  0  0  0  0  0  0  0  0  0
  147.3503  134.9183  151.4566 H   0  0  0  0  0  0  0  0  0  0  0  0
  1  2  1  0  0  0  0
  1 23  1  0  0  0  0
  1 24  1  0  0  0  0
  1 25  1  0  0  0  0
  2  3  2  0  0  0  0
  2  4  2  0  0  0  0
  2  5  1  0  0  0  0
  5  6  1  0  0  0  0
  6 22  1  0  0  0  0
  6  7  1  0  0  0  0
  6 26  1  0  0  0  0
  7  8  1  0  0  0  0
  7 27  1  0  0  0  0
  7 28  1  0  0  0  0
  8  9  1  0  0  0  0
  8 29  1  0  0  0  0
  8 30  1  0  0  0  0
  9 10  1  0  0  0  0
  9 31  1  0  0  0  0
  9 32  1  0  0  0  0
 10 11  1  0  0  0  0
 10 22  1  0  0  0  0
 11 12  2  0  0  0  0
 11 13  1  0  0  0  0
 13 14  1  0  0  0  0
 13 33  1  0  0  0  0
 14 15  1  0  0  0  0
 14 34  1  0  0  0  0
 14 35  1  0  0  0  0
 15 16  1  0  0  0  0
 15 36  1  0  0  0  0
 15 37  1  0  0  0  0
 16 21  1  0  0  0  0
 16 17  2  0  0  0  0
 17 18  1  0  0  0  0
 17 38  1  0  0  0  0
 18 19  2  0  0  0  0
 18 39  1  0  0  0  0
 19 20  1  0  0  0  0
 19 40  1  0  0  0  0
 20 21  2  0  0  0  0
 20 41  1  0  0  0  0
 21 44  1  0  0  0  0
 22 42  1  0  0  0  0
 22 43  1  0  0  0  0
M  CHG  1   5  -1
M  CHG  1  21   1
M  END
> <s_m_source_file>
AV-unprocessed.smi

> <i_m_source_file_index>
1434

> <i_lp_mmshare_version>
43012

> <i_f3d_flags>
0

> <s_epik_input>
W0NIM11TKD1PKSg9TylbTkhdW0NAQEhdMVtDSDJdW0NIMl1bQ0gyXU4oW0NIMl0xKUMoPU8pW05IXVtDSDJdW0NIMl1jMltjSF1bY0hdW2NIXVtjSF1uMg==

> <s_epik_cmdline>
J2VwaWtfcHl0aG9uJywgJy1waCcsICc3LjAnLCAnLXRuJywgJzgnLCAnLW1hJywgJzIwMCcsICctbWV0YWxfYmluZGluZycsICctaW1hZScsICc8aW5maWxlLm1hZT4nLCAnLW9tYWUnLCAnPG91dGZpbGUubWFlPic=

> <r_epik_Ionization_Penalty>
8.07847

> <r_epik_Ionization_Penalty_Charging>
8.0784

> <r_epik_Ionization_Penalty_Neutral>
6.25603e-05

> <r_epik_State_Penalty>
8.17261

> <r_epik_Charging_Adjusted_Penalty>
16.251

> <i_epik_Tot_Q>
0

> <i_epik_Tot_abs_Q>
2

> <r_epik_Metal_State_Penalty>
4.14042

> <b_epik_Metal_Only>
1

> <s_lp_Force_Field>
OPLS_2005

> <r_lp_Energy>
28.6508

> <b_lp_Chiralities_Consistent>
1

> <s_lp_Variant>
AV-unprocessed.smi:1434-8

> <Gold.Version>
5.8.1

> <Gold.Id.Protein>
6NUR|6NUR_protein|mol2

> <Gold.PLP.Fitness>
48.2426

> <Gold.PLP.PLP>
-35.1119

> <Gold.PLP.part.hbond>
-4.9692

> <Gold.PLP.part.metal>
0.0000

> <Gold.PLP.part.buried>
-1.0964

> <Gold.PLP.part.nonpolar>
-30.1215

> <Gold.PLP.part.repulsive>
0.6141

> <Gold.PLP.ligand.clash>
0.5866

> <Gold.PLP.ligand.torsion>
1.3076

> <Gold.PLP.Chemscore.Hbond>
5.0880

> <Gold.PLP.Chemscore.CHOScore>
0.0000

> <Gold.PLP.Chemscore.Metal>
0.0000

> <Gold.Chemscore.Hbonds>
donor molecule, donor type, donor heavy atom, donor atom, acceptor molecule, acceptor atom, score
      L1  H    13    33       P1  7948  0.69
      L1  H    21    44       P1  7948  1.89
      P1  H  7989  7998       L1     5  1.00
      P1  H  7997  8009       L1     3  0.99
      P1  H 10752 10763       L1     4  0.42

> <Gold.PLP.Chemscore.Internal.Correction>
1.0685

> <Gold.Rescore>
     Score         DG    S(hbond)    S(metal)    S(lipo)     H(rot)  DE(clash)    DE(int)     intcor
     17.53     -20.34       2.99        0.00      80.22       1.77       1.43       1.39       ----

> <Gold.Chemscore.Fitness>
17.5259

> <Gold.Chemscore.DG>
-20.3399

> <Gold.Chemscore.ZeroCoef>
-5.4800

> <Gold.Chemscore.Hbond>
2.9926

> <Gold.Chemscore.Metal>
0.0000

> <Gold.Chemscore.Lipo>
80.2211

> <Gold.Chemscore.Internal_Hbond>
0.0000

> <Gold.Chemscore.DEClash>
1.4267

> <Gold.Chemscore.DEInternal>
1.3873

> <Gold.Chemscore.Rot>
1.7661

> <Gold.Chemscore.Internal.Correction>
   9.000000E+99

> <Gold.Chemscore.Hbonds>
donor molecule, donor type, donor heavy atom, donor atom, acceptor molecule, acceptor atom, score
      L1  H    13    33       P1  7948  0.65
      L1  H    21    44       P1  7948  0.54
      P1  H  7989  7998       L1     5  0.30
      P1  H  7997  8009       L1     3  0.93
      P1  H 10752 10763       L1     4  0.42

> <Gold.Chemscore.Hbond.Weighted>
-9.9952

> <Gold.Chemscore.Metal.Weighted>
-0.0000

> <Gold.Chemscore.Lipo.Weighted>
-9.3859

> <Gold.Chemscore.Internal_Hbond.Weighted>
0.0000

> <Gold.Chemscore.DEClash.Weighted>
1.4267

> <Gold.Chemscore.DEInternal.Weighted>
1.3873

> <Gold.Chemscore.Rot.Weighted>
4.5211

> <Gold.Chemscore.Internal.Correction.Weighted>
   9.000000E+99

> <Gold.Protein.RotatedTorsions>
[ 6907 6896 6895 6894 ] final   35.13 input  -60.11 | X-H torsion
[ 7974 7965 7964 7962 ] final  -76.03 input  175.53 | X-H torsion
[ 8008 7997 7996 7995 ] final -169.37 input   59.86 | X-H torsion
[ 10167 10162 10161 10158 ] final -118.37 input  -65.29 | X-H torsion
[ 10718 10713 10712 10709 ] final  -70.73 input   66.30 | X-H torsion
[ 10763 10752 10751 10750 ] final   48.51 input  -60.55 | X-H torsion
[ 11005 11000 10999 10996 ] final  -86.28 input  -57.11 | X-H torsion

> <Gold.Protein.ActiveResidues>
 VAL166  LYS551  ARG553  GLY616  TRP617  ASP618  TYR619  PRO620  LYS621  CYS622 
 ASP623  PHE694  ASN695  SER759  ASP760  ASP761  ALA762  ILE779  LEU786  VAL792 
 PHE793  MET794  SER795  GLU796  ALA797  LYS798  CYS799  TRP800  GLU811  SER814 

> <Gold.Protein.RotatedAtoms>
  152.1119  134.9268  160.0566 H   0  0  0  0  0  0  0  0  0  0  0  0  # atno 6907 bound_to 6896
  152.0442  133.3986  159.4358 H   0  0  0  0  0  0  0  0  0  0  0  0  # atno 6908 bound_to 6896
  150.6844  134.3301  159.4867 H   0  0  0  0  0  0  0  0  0  0  0  0  # atno 6909 bound_to 6896
  145.6182  140.9370  143.1152 H   0  0  0  0  0  0  0  0  0  0  0  0  # atno 7974 bound_to 7965
  155.9041  140.1046  157.1328 H   0  0  0  0  0  0  0  0  0  0  0  0  # atno 8008 bound_to 7997
  154.4030  140.1287  156.4537 H   0  0  0  0  0  0  0  0  0  0  0  0  # atno 8009 bound_to 7997
  155.7388  140.3467  155.5097 H   0  0  0  0  0  0  0  0  0  0  0  0  # atno 8010 bound_to 7997
  140.0582  143.4993  152.2046 H   0  0  0  0  0  0  0  0  0  0  0  0  # atno 10167 bound_to 10162
  156.0395  130.4337  150.2338 H   0  0  0  0  0  0  0  0  0  0  0  0  # atno 10718 bound_to 10713
  152.9791  135.5942  154.3938 H   0  0  0  0  0  0  0  0  0  0  0  0  # atno 10763 bound_to 10752
  154.3590  135.2767  155.2332 H   0  0  0  0  0  0  0  0  0  0  0  0  # atno 10764 bound_to 10752
  154.4338  135.6030  153.6140 H   0  0  0  0  0  0  0  0  0  0  0  0  # atno 10765 bound_to 10752
  141.1632  133.7446  156.9138 H   0  0  0  0  0  0  0  0  0  0  0  0  # atno 11005 bound_to 11000
  144.7242  139.7930  143.7371 LP  0  0  0  0  0  0  0  0  0  0  0  0  # atno 17320 bound_to 7965
  146.1452  139.4519  143.0084 LP  0  0  0  0  0  0  0  0  0  0  0  0  # atno 17321 bound_to 7965
  139.5910  144.7550  151.3401 LP  0  0  0  0  0  0  0  0  0  0  0  0  # atno 17342 bound_to 10162
  140.7184  143.7202  150.7701 LP  0  0  0  0  0  0  0  0  0  0  0  0  # atno 17343 bound_to 10162
  157.0434  131.0042  151.3276 LP  0  0  0  0  0  0  0  0  0  0  0  0  # atno 17370 bound_to 10713
  157.5192  130.7987  149.7791 LP  0  0  0  0  0  0  0  0  0  0  0  0  # atno 17371 bound_to 10713
  140.1498  134.9238  157.2578 LP  0  0  0  0  0  0  0  0  0  0  0  0  # atno 17394 bound_to 11000
  140.2736  134.3431  155.7365 LP  0  0  0  0  0  0  0  0  0  0  0  0  # atno 17395 bound_to 11000

$$$$
