AV-unprocessed.smi:1633|AV-procd|sdf|6532|dock6
  -GOLD-   22720 7213D 1   1.00000     0.00000
 Structure written by MMmdl.
 51 53  0  0  0  0  0  0  0  0  2 V2000
  145.8727  132.6158  156.1585 C   0  0  0  0  0  0  0  0  0  0  0  0
  147.1082  132.4109  155.2791 C   0  0  0  0  0  0  0  0  0  0  0  0
  147.5956  131.2824  155.2208 O   0  0  0  0  0  0  0  0  0  0  0  0
  147.6215  133.4643  154.5997 N   0  0  0  0  0  0  0  0  0  0  0  0
  148.8259  133.3635  153.7708 C   0  0  0  0  0  0  0  0  0  0  0  0
  149.9506  134.1957  154.4125 C   0  0  0  0  0  0  0  0  0  0  0  0
  149.5293  135.6064  154.6231 N   0  3  0  0  0  0  0  0  0  0  0  0
  150.6124  136.4365  155.2101 C   0  0  0  0  0  0  0  0  0  0  0  0
  150.4471  137.9370  154.8985 C   0  0  2  0  0  0  0  0  0  0  0  0
  150.4063  138.1031  153.4939 O   0  0  0  0  0  0  0  0  0  0  0  0
  151.6036  138.7737  155.4789 C   0  0  0  0  0  0  0  0  0  0  0  0
  151.1674  140.0881  155.9157 N   0  0  0  0  0  0  0  0  0  0  0  0
  150.2690  140.8864  155.3077 C   0  0  0  0  0  0  0  0  0  0  0  0
  150.0211  142.0643  155.8722 N   0  0  0  0  0  0  0  0  0  0  0  0
  150.8528  142.0251  156.9781 C   0  0  0  0  0  0  0  0  0  0  0  0
  151.0709  142.9790  157.9960 C   0  0  0  0  0  0  0  0  0  0  0  0
  151.9855  142.7255  159.0430 C   0  0  0  0  0  0  0  0  0  0  0  0
  152.1923  143.7812  160.1147 C   0  0  0  0  0  0  0  0  0  0  0  0
  152.6966  141.4991  159.0841 C   0  0  0  0  0  0  0  0  0  0  0  0
  153.6822  141.2036  160.2011 C   0  0  0  0  0  0  0  0  0  0  0  0
  152.4912  140.5355  158.0749 C   0  0  0  0  0  0  0  0  0  0  0  0
  151.5810  140.8009  157.0364 C   0  0  0  0  0  0  0  0  0  0  0  0
  148.2325  135.7156  155.3474 C   0  0  0  0  0  0  0  0  0  0  0  0
  147.1452  134.8484  154.6867 C   0  0  0  0  0  0  0  0  0  0  0  0
  146.0746  133.3388  156.9494 H   0  0  0  0  0  0  0  0  0  0  0  0
  145.5787  131.6783  156.6314 H   0  0  0  0  0  0  0  0  0  0  0  0
  145.0285  132.9658  155.5635 H   0  0  0  0  0  0  0  0  0  0  0  0
  149.1625  132.3352  153.6318 H   0  0  0  0  0  0  0  0  0  0  0  0
  148.6039  133.7401  152.7711 H   0  0  0  0  0  0  0  0  0  0  0  0
  150.2364  133.7570  155.3701 H   0  0  0  0  0  0  0  0  0  0  0  0
  150.8333  134.1669  153.7722 H   0  0  0  0  0  0  0  0  0  0  0  0
  150.6513  136.2697  156.2877 H   0  0  0  0  0  0  0  0  0  0  0  0
  151.5764  136.1085  154.8170 H   0  0  0  0  0  0  0  0  0  0  0  0
  149.5119  138.3112  155.3138 H   0  0  0  0  0  0  0  0  0  0  0  0
  149.6909  137.5883  153.1508 H   0  0  0  0  0  0  0  0  0  0  0  0
  152.0474  138.2611  156.3336 H   0  0  0  0  0  0  0  0  0  0  0  0
  152.3994  138.8957  154.7429 H   0  0  0  0  0  0  0  0  0  0  0  0
  149.7729  140.5881  154.3957 H   0  0  0  0  0  0  0  0  0  0  0  0
  150.5284  143.9125  157.9645 H   0  0  0  0  0  0  0  0  0  0  0  0
  151.9042  143.3939  161.0920 H   0  0  0  0  0  0  0  0  0  0  0  0
  151.5945  144.6715  159.9177 H   0  0  0  0  0  0  0  0  0  0  0  0
  153.2386  144.0846  160.1562 H   0  0  0  0  0  0  0  0  0  0  0  0
  154.1187  140.2101  160.0942 H   0  0  0  0  0  0  0  0  0  0  0  0
  153.1863  141.2476  161.1710 H   0  0  0  0  0  0  0  0  0  0  0  0
  154.4955  141.9295  160.1942 H   0  0  0  0  0  0  0  0  0  0  0  0
  153.0290  139.5990  158.0929 H   0  0  0  0  0  0  0  0  0  0  0  0
  148.3695  135.4057  156.3847 H   0  0  0  0  0  0  0  0  0  0  0  0
  147.8947  136.7507  155.3682 H   0  0  0  0  0  0  0  0  0  0  0  0
  146.9384  135.2150  153.6802 H   0  0  0  0  0  0  0  0  0  0  0  0
  146.2096  134.9572  155.2332 H   0  0  0  0  0  0  0  0  0  0  0  0
  149.3699  135.9795  153.6977 H   0  0  0  0  0  0  0  0  0  0  0  0
  1  2  1  0  0  0  0
  1 25  1  0  0  0  0
  1 26  1  0  0  0  0
  1 27  1  0  0  0  0
  2  3  2  0  0  0  0
  2  4  1  0  0  0  0
  4 24  1  0  0  0  0
  4  5  1  0  0  0  0
  5  6  1  0  0  0  0
  5 28  1  0  0  0  0
  5 29  1  0  0  0  0
  6  7  1  0  0  0  0
  6 30  1  0  0  0  0
  6 31  1  0  0  0  0
  7  8  1  0  0  0  0
  7 23  1  0  0  0  0
  7 51  1  0  0  0  0
  8  9  1  0  0  0  0
  8 32  1  0  0  0  0
  8 33  1  0  0  0  0
  9 10  1  0  0  0  0
  9 11  1  0  0  0  0
  9 34  1  0  0  0  0
 10 35  1  0  0  0  0
 11 12  1  0  0  0  0
 11 36  1  0  0  0  0
 11 37  1  0  0  0  0
 12 22  1  0  0  0  0
 12 13  1  0  0  0  0
 13 14  2  0  0  0  0
 13 38  1  0  0  0  0
 14 15  1  0  0  0  0
 15 22  2  0  0  0  0
 15 16  1  0  0  0  0
 16 17  2  0  0  0  0
 16 39  1  0  0  0  0
 17 18  1  0  0  0  0
 17 19  1  0  0  0  0
 18 40  1  0  0  0  0
 18 41  1  0  0  0  0
 18 42  1  0  0  0  0
 19 20  1  0  0  0  0
 19 21  2  0  0  0  0
 20 43  1  0  0  0  0
 20 44  1  0  0  0  0
 20 45  1  0  0  0  0
 21 22  1  0  0  0  0
 21 46  1  0  0  0  0
 23 24  1  0  0  0  0
 23 47  1  0  0  0  0
 23 48  1  0  0  0  0
 24 49  1  0  0  0  0
 24 50  1  0  0  0  0
M  CHG  1   7   1
M  END
> <s_m_source_file>
AV-unprocessed.smi

> <i_m_source_file_index>
1633

> <i_lp_mmshare_version>
43012

> <i_f3d_flags>
0

> <s_epik_input>
W0NIM11DKD1PKU4xW0NIMl1bQ0gyXU4oW0NIMl1bQ0gyXTEpW0NIMl1bQ0BIXShbT0hdKVtDSDJdbihbY0hdbjIpYyhjMjMpW2NIXWMoW0NIM10pYyhbY0hdMylbQ0gzXQ==

> <s_epik_cmdline>
J2VwaWtfcHl0aG9uJywgJy1waCcsICc3LjAnLCAnLXRuJywgJzgnLCAnLW1hJywgJzIwMCcsICctbWV0YWxfYmluZGluZycsICctaW1hZScsICc8aW5maWxlLm1hZT4nLCAnLW9tYWUnLCAnPG91dGZpbGUubWFlPic=

> <r_epik_Ionization_Penalty>
0.0939669

> <r_epik_Ionization_Penalty_Charging>
0.00645254

> <r_epik_Ionization_Penalty_Neutral>
0.0875144

> <r_epik_State_Penalty>
0.0777239

> <r_epik_Charging_Adjusted_Penalty>
0.0841764

> <i_epik_Tot_Q>
1

> <i_epik_Tot_abs_Q>
1

> <r_epik_Metal_State_Penalty>
7.71307e-05

> <b_epik_Metal_Only>
0

> <s_lp_Force_Field>
OPLS_2005

> <r_lp_Energy>
43.6945

> <b_lp_Chiralities_Consistent>
1

> <s_lp_Variant>
AV-unprocessed.smi:1633-1

> <Gold.Version>
5.8.1

> <Gold.Id.Protein>
6NUR|6NUR_protein|mol2

> <Gold.PLP.Fitness>
48.3313

> <Gold.PLP.PLP>
-41.1716

> <Gold.PLP.part.hbond>
-3.7058

> <Gold.PLP.part.metal>
0.0000

> <Gold.PLP.part.buried>
-3.7108

> <Gold.PLP.part.nonpolar>
-34.6062

> <Gold.PLP.part.repulsive>
1.5807

> <Gold.PLP.ligand.clash>
0.0000

> <Gold.PLP.ligand.torsion>
0.9448

> <Gold.PLP.Chemscore.Hbond>
2.9920

> <Gold.PLP.Chemscore.CHOScore>
0.0000

> <Gold.PLP.Chemscore.Metal>
0.0000

> <Gold.Chemscore.Hbonds>
donor molecule, donor type, donor heavy atom, donor atom, acceptor molecule, acceptor atom, score
      L1  H     7    51       P1  7948  2.00
      L1  H    10    35       P1  7948  0.99

> <Gold.PLP.Chemscore.Internal.Correction>
0.0733

> <Gold.Rescore>
     Score         DG    S(hbond)    S(metal)    S(lipo)     H(rot)  DE(clash)    DE(int)     intcor
     16.22     -17.29       1.72        0.00      99.13       2.16       0.02       1.05       ----

> <Gold.Chemscore.Fitness>
16.2193

> <Gold.Chemscore.DG>
-17.2917

> <Gold.Chemscore.ZeroCoef>
-5.4800

> <Gold.Chemscore.Hbond>
1.7202

> <Gold.Chemscore.Metal>
0.0000

> <Gold.Chemscore.Lipo>
99.1274

> <Gold.Chemscore.Internal_Hbond>
0.0000

> <Gold.Chemscore.DEClash>
0.0231

> <Gold.Chemscore.DEInternal>
1.0492

> <Gold.Chemscore.Rot>
2.1608

> <Gold.Chemscore.Internal.Correction>
   9.000000E+99

> <Gold.Chemscore.Hbonds>
donor molecule, donor type, donor heavy atom, donor atom, acceptor molecule, acceptor atom, score
      L1  H     7    51       P1  7948  0.65
      L1  H    10    35       P1  7948  0.65

> <Gold.Chemscore.Hbond.Weighted>
-5.7454

> <Gold.Chemscore.Metal.Weighted>
-0.0000

> <Gold.Chemscore.Lipo.Weighted>
-11.5979

> <Gold.Chemscore.Internal_Hbond.Weighted>
0.0000

> <Gold.Chemscore.DEClash.Weighted>
0.0231

> <Gold.Chemscore.DEInternal.Weighted>
1.0492

> <Gold.Chemscore.Rot.Weighted>
5.5317

> <Gold.Chemscore.Internal.Correction.Weighted>
   9.000000E+99

> <Gold.Protein.RotatedTorsions>
[ 6907 6896 6895 6894 ] final   70.24 input  -60.11 | X-H torsion
[ 7974 7965 7964 7962 ] final -108.35 input  175.53 | X-H torsion
[ 8008 7997 7996 7995 ] final -168.06 input   59.86 | X-H torsion
[ 10167 10162 10161 10158 ] final  143.31 input  -65.29 | X-H torsion
[ 10718 10713 10712 10709 ] final   -6.23 input   66.30 | X-H torsion
[ 10763 10752 10751 10750 ] final  130.71 input  -60.55 | X-H torsion
[ 11005 11000 10999 10996 ] final  168.15 input  -57.11 | X-H torsion

> <Gold.Protein.ActiveResidues>
 VAL166  LYS551  ARG553  GLY616  TRP617  ASP618  TYR619  PRO620  LYS621  CYS622 
 ASP623  PHE694  ASN695  SER759  ASP760  ASP761  ALA762  ILE779  LEU786  VAL792 
 PHE793  MET794  SER795  GLU796  ALA797  LYS798  CYS799  TRP800  GLU811  SER814 

> <Gold.Protein.RotatedAtoms>
  152.4737  134.4898  159.9691 H   0  0  0  0  0  0  0  0  0  0  0  0  # atno 6907 bound_to 6896
  151.4919  133.3517  159.2862 H   0  0  0  0  0  0  0  0  0  0  0  0  # atno 6908 bound_to 6896
  150.8762  134.8172  159.7253 H   0  0  0  0  0  0  0  0  0  0  0  0  # atno 6909 bound_to 6896
  145.1940  140.9027  143.3408 H   0  0  0  0  0  0  0  0  0  0  0  0  # atno 7974 bound_to 7965
  155.8863  140.1017  157.1450 H   0  0  0  0  0  0  0  0  0  0  0  0  # atno 8008 bound_to 7997
  154.4010  140.1319  156.4323 H   0  0  0  0  0  0  0  0  0  0  0  0  # atno 8009 bound_to 7997
  155.7585  140.3463  155.5188 H   0  0  0  0  0  0  0  0  0  0  0  0  # atno 8010 bound_to 7997
  139.4973  144.6049  151.6400 H   0  0  0  0  0  0  0  0  0  0  0  0  # atno 10167 bound_to 10162
  156.7350  130.5192  149.5837 H   0  0  0  0  0  0  0  0  0  0  0  0  # atno 10718 bound_to 10713
  153.7625  135.3194  155.3339 H   0  0  0  0  0  0  0  0  0  0  0  0  # atno 10763 bound_to 10752
  154.8225  135.4593  154.0823 H   0  0  0  0  0  0  0  0  0  0  0  0  # atno 10764 bound_to 10752
  153.2059  135.6929  153.8257 H   0  0  0  0  0  0  0  0  0  0  0  0  # atno 10765 bound_to 10752
  140.2843  134.7725  157.3785 H   0  0  0  0  0  0  0  0  0  0  0  0  # atno 11005 bound_to 11000
  145.0013  139.3596  143.6166 LP  0  0  0  0  0  0  0  0  0  0  0  0  # atno 17320 bound_to 7965
  146.3431  139.9237  142.8763 LP  0  0  0  0  0  0  0  0  0  0  0  0  # atno 17321 bound_to 7965
  140.5708  144.0112  150.6216 LP  0  0  0  0  0  0  0  0  0  0  0  0  # atno 17342 bound_to 10162
  140.3229  143.3126  152.0766 LP  0  0  0  0  0  0  0  0  0  0  0  0  # atno 17343 bound_to 10162
  156.1503  130.6305  151.0587 LP  0  0  0  0  0  0  0  0  0  0  0  0  # atno 17370 bound_to 10713
  157.6843  131.0829  150.7286 LP  0  0  0  0  0  0  0  0  0  0  0  0  # atno 17371 bound_to 10713
  140.1254  134.5164  155.8149 LP  0  0  0  0  0  0  0  0  0  0  0  0  # atno 17394 bound_to 11000
  141.2157  133.6771  156.6943 LP  0  0  0  0  0  0  0  0  0  0  0  0  # atno 17395 bound_to 11000

$$$$
