AV-unprocessed.smi:1958|AV-procd|sdf|7908|dock2
  -GOLD-   2272010 63D 1   1.00000     0.00000
 Structure written by MMmdl.
 48 49  0  0  0  0  0  0  0  0  2 V2000
  152.8775  141.3318  160.2693 C   0  0  0  0  0  0  0  0  0  0  0  0
  152.9663  139.9651  159.9068 O   0  0  0  0  0  0  0  0  0  0  0  0
  152.2257  139.6645  158.7363 C   0  0  0  0  0  0  0  0  0  0  0  0
  152.6884  138.3045  158.1925 C   0  0  0  0  0  0  0  0  0  0  0  0
  152.0418  137.9882  156.9151 N   0  0  0  0  0  0  0  0  0  0  0  0
  151.4106  136.7557  156.8922 N   0  0  0  0  0  0  0  0  0  0  0  0
  150.8054  136.3553  155.8208 C   0  0  0  0  0  0  0  0  0  0  0  0
  150.1177  135.0358  155.7553 C   0  0  0  0  0  0  0  0  0  0  0  0
  150.1417  134.2398  156.6955 O   0  0  0  0  0  0  0  0  0  0  0  0
  149.4715  134.7795  154.6050 N   0  0  0  0  0  0  0  0  0  0  0  0
  148.7211  133.5599  154.3301 C   0  0  0  0  0  0  0  0  0  0  0  0
  147.2161  133.8396  154.0735 C   0  0  2  0  0  0  0  0  0  0  0  0
  146.3537  132.6898  154.6466 C   0  0  0  0  0  0  0  0  0  0  0  0
  146.8914  134.0655  152.6255 N   0  3  0  0  0  0  0  0  0  0  0  0
  146.7322  132.7945  151.8661 C   0  0  0  0  0  0  0  0  0  0  0  0
  146.4715  133.0632  150.3749 C   0  0  0  0  0  0  0  0  0  0  0  0
  145.3113  133.8686  150.2353 O   0  0  0  0  0  0  0  0  0  0  0  0
  145.4825  135.1334  150.8557 C   0  0  0  0  0  0  0  0  0  0  0  0
  145.7208  134.9497  152.3646 C   0  0  0  0  0  0  0  0  0  0  0  0
  150.7756  137.1849  154.6284 C   0  0  0  0  0  0  0  0  0  0  0  0
  151.4019  138.3815  154.6637 C   0  0  0  0  0  0  0  0  0  0  0  0
  152.0992  138.8560  155.8602 C   0  0  0  0  0  0  0  0  0  0  0  0
  152.6880  139.9353  155.9124 O   0  0  0  0  0  0  0  0  0  0  0  0
  153.4641  141.5113  161.1704 H   0  0  0  0  0  0  0  0  0  0  0  0
  151.8458  141.6183  160.4772 H   0  0  0  0  0  0  0  0  0  0  0  0
  153.2680  141.9755  159.4800 H   0  0  0  0  0  0  0  0  0  0  0  0
  151.1593  139.6398  158.9664 H   0  0  0  0  0  0  0  0  0  0  0  0
  152.3839  140.4417  157.9867 H   0  0  0  0  0  0  0  0  0  0  0  0
  153.7725  138.3154  158.0664 H   0  0  0  0  0  0  0  0  0  0  0  0
  152.4904  137.5211  158.9262 H   0  0  0  0  0  0  0  0  0  0  0  0
  149.4993  135.4807  153.8782 H   0  0  0  0  0  0  0  0  0  0  0  0
  149.1904  133.1062  153.4568 H   0  0  0  0  0  0  0  0  0  0  0  0
  148.8353  132.8647  155.1640 H   0  0  0  0  0  0  0  0  0  0  0  0
  146.9667  134.7550  154.6128 H   0  0  0  0  0  0  0  0  0  0  0  0
  146.5652  132.5050  155.6996 H   0  0  0  0  0  0  0  0  0  0  0  0
  146.5355  131.7585  154.1093 H   0  0  0  0  0  0  0  0  0  0  0  0
  145.2868  132.8982  154.5968 H   0  0  0  0  0  0  0  0  0  0  0  0
  147.6213  132.1726  151.9459 H   0  0  0  0  0  0  0  0  0  0  0  0
  145.9049  132.2203  152.2860 H   0  0  0  0  0  0  0  0  0  0  0  0
  147.3299  133.5484  149.9073 H   0  0  0  0  0  0  0  0  0  0  0  0
  146.3116  132.1229  149.8471 H   0  0  0  0  0  0  0  0  0  0  0  0
  146.3119  135.6707  150.3930 H   0  0  0  0  0  0  0  0  0  0  0  0
  144.5861  135.7310  150.6884 H   0  0  0  0  0  0  0  0  0  0  0  0
  144.8312  134.5296  152.8365 H   0  0  0  0  0  0  0  0  0  0  0  0
  145.8803  135.9416  152.7858 H   0  0  0  0  0  0  0  0  0  0  0  0
  150.2688  136.8599  153.7313 H   0  0  0  0  0  0  0  0  0  0  0  0
  151.3887  139.0084  153.7842 H   0  0  0  0  0  0  0  0  0  0  0  0
  147.6881  134.5445  152.2301 H   0  0  0  0  0  0  0  0  0  0  0  0
  1  2  1  0  0  0  0
  1 24  1  0  0  0  0
  1 25  1  0  0  0  0
  1 26  1  0  0  0  0
  2  3  1  0  0  0  0
  3  4  1  0  0  0  0
  3 27  1  0  0  0  0
  3 28  1  0  0  0  0
  4  5  1  0  0  0  0
  4 29  1  0  0  0  0
  4 30  1  0  0  0  0
  5 22  1  0  0  0  0
  5  6  1  0  0  0  0
  6  7  2  0  0  0  0
  7  8  1  0  0  0  0
  7 20  1  0  0  0  0
  8  9  2  0  0  0  0
  8 10  1  0  0  0  0
 10 11  1  0  0  0  0
 10 31  1  0  0  0  0
 11 12  1  0  0  0  0
 11 32  1  0  0  0  0
 11 33  1  0  0  0  0
 12 13  1  0  0  0  0
 12 14  1  0  0  0  0
 12 34  1  0  0  0  0
 13 35  1  0  0  0  0
 13 36  1  0  0  0  0
 13 37  1  0  0  0  0
 14 19  1  0  0  0  0
 14 15  1  0  0  0  0
 14 48  1  0  0  0  0
 15 16  1  0  0  0  0
 15 38  1  0  0  0  0
 15 39  1  0  0  0  0
 16 17  1  0  0  0  0
 16 40  1  0  0  0  0
 16 41  1  0  0  0  0
 17 18  1  0  0  0  0
 18 19  1  0  0  0  0
 18 42  1  0  0  0  0
 18 43  1  0  0  0  0
 19 44  1  0  0  0  0
 19 45  1  0  0  0  0
 20 21  2  0  0  0  0
 20 46  1  0  0  0  0
 21 22  1  0  0  0  0
 21 47  1  0  0  0  0
 22 23  2  0  0  0  0
M  CHG  1  14   1
M  END
> <s_m_source_file>
AV-unprocessed.smi

> <i_m_source_file_index>
1958

> <i_lp_mmshare_version>
43012

> <i_f3d_flags>
0

> <s_epik_input>
W0NIM11PW0NIMl1bQ0gyXW4xbmMoW2NIXVtjSF1jMT1PKUMoPU8pW05IXVtDSDJdW0NASF0oW0NIM10pTjJbQ0gyXVtDSDJdT1tDSDJdW0NIMl0y

> <s_epik_cmdline>
J2VwaWtfcHl0aG9uJywgJy1waCcsICc3LjAnLCAnLXRuJywgJzgnLCAnLW1hJywgJzIwMCcsICctbWV0YWxfYmluZGluZycsICctaW1hZScsICc8aW5maWxlLm1hZT4nLCAnLW9tYWUnLCAnPG91dGZpbGUubWFlPic=

> <r_lp_tautomer_probability>
1

> <r_epik_Ionization_Penalty>
0.724355

> <r_epik_Ionization_Penalty_Charging>
0.724348

> <r_epik_Ionization_Penalty_Neutral>
6.31911e-06

> <r_epik_State_Penalty>
0.749058

> <r_epik_Charging_Adjusted_Penalty>
1.47341

> <i_epik_Tot_Q>
1

> <i_epik_Tot_abs_Q>
1

> <r_epik_Metal_State_Penalty>
0.750821

> <b_epik_Metal_Only>
0

> <s_lp_Force_Field>
OPLS_2005

> <r_lp_Energy>
41.4704

> <b_lp_Chiralities_Consistent>
1

> <s_lp_Variant>
AV-unprocessed.smi:1958-3

> <Gold.Version>
5.8.1

> <Gold.Id.Protein>
6NUR|6NUR_protein|mol2

> <Gold.PLP.Fitness>
44.5701

> <Gold.PLP.PLP>
-34.5141

> <Gold.PLP.part.hbond>
-4.0000

> <Gold.PLP.part.metal>
0.0000

> <Gold.PLP.part.buried>
-2.1354

> <Gold.PLP.part.nonpolar>
-28.8621

> <Gold.PLP.part.repulsive>
0.6138

> <Gold.PLP.ligand.clash>
0.4985

> <Gold.PLP.ligand.torsion>
1.0430

> <Gold.PLP.Chemscore.Hbond>
4.1419

> <Gold.PLP.Chemscore.CHOScore>
0.0000

> <Gold.PLP.Chemscore.Metal>
0.0000

> <Gold.Chemscore.Hbonds>
donor molecule, donor type, donor heavy atom, donor atom, acceptor molecule, acceptor atom, score
      L1  H    10    31       P1  7948  0.62
      L1  H    14    48       P1  7948  1.69
      P1  H  7997  8008       L1    23  1.00

> <Gold.PLP.Chemscore.Internal.Correction>
0.2148

> <Gold.Rescore>
     Score         DG    S(hbond)    S(metal)    S(lipo)     H(rot)  DE(clash)    DE(int)     intcor
     14.30     -16.34       2.43        0.00      70.01       2.12       1.05       1.00       ----

> <Gold.Chemscore.Fitness>
14.2952

> <Gold.Chemscore.DG>
-16.3425

> <Gold.Chemscore.ZeroCoef>
-5.4800

> <Gold.Chemscore.Hbond>
2.4264

> <Gold.Chemscore.Metal>
0.0000

> <Gold.Chemscore.Lipo>
70.0056

> <Gold.Chemscore.Internal_Hbond>
0.0000

> <Gold.Chemscore.DEClash>
1.0499

> <Gold.Chemscore.DEInternal>
0.9974

> <Gold.Chemscore.Rot>
2.1221

> <Gold.Chemscore.Internal.Correction>
   9.000000E+99

> <Gold.Chemscore.Hbonds>
donor molecule, donor type, donor heavy atom, donor atom, acceptor molecule, acceptor atom, score
      L1  H    10    31       P1  7948  0.18
      L1  H    14    48       P1  7948  0.49
      P1  H  7997  8008       L1    23  1.00

> <Gold.Chemscore.Hbond.Weighted>
-8.1043

> <Gold.Chemscore.Metal.Weighted>
-0.0000

> <Gold.Chemscore.Lipo.Weighted>
-8.1907

> <Gold.Chemscore.Internal_Hbond.Weighted>
0.0000

> <Gold.Chemscore.DEClash.Weighted>
1.0499

> <Gold.Chemscore.DEInternal.Weighted>
0.9974

> <Gold.Chemscore.Rot.Weighted>
5.4325

> <Gold.Chemscore.Internal.Correction.Weighted>
   9.000000E+99

> <Gold.Protein.RotatedTorsions>
[ 6907 6896 6895 6894 ] final   -4.48 input  -60.11 | X-H torsion
[ 7974 7965 7964 7962 ] final   95.96 input  175.53 | X-H torsion
[ 8008 7997 7996 7995 ] final  -25.87 input   59.86 | X-H torsion
[ 10167 10162 10161 10158 ] final -157.81 input  -65.29 | X-H torsion
[ 10718 10713 10712 10709 ] final -112.94 input   66.30 | X-H torsion
[ 10763 10752 10751 10750 ] final   60.55 input  -60.55 | X-H torsion
[ 11005 11000 10999 10996 ] final -176.37 input  -57.11 | X-H torsion

> <Gold.Protein.ActiveResidues>
 VAL166  LYS551  ARG553  GLY616  TRP617  ASP618  TYR619  PRO620  LYS621  CYS622 
 ASP623  PHE694  ASN695  SER759  ASP760  ASP761  ALA762  ILE779  LEU786  VAL792 
 PHE793  MET794  SER795  GLU796  ALA797  LYS798  CYS799  TRP800  GLU811  SER814 

> <Gold.Protein.RotatedAtoms>
  151.4971  135.1060  159.9818 H   0  0  0  0  0  0  0  0  0  0  0  0  # atno 6907 bound_to 6896
  152.4717  133.8041  159.6979 H   0  0  0  0  0  0  0  0  0  0  0  0  # atno 6908 bound_to 6896
  150.8730  133.7415  159.2981 H   0  0  0  0  0  0  0  0  0  0  0  0  # atno 6909 bound_to 6896
  145.4452  139.2298  143.3070 H   0  0  0  0  0  0  0  0  0  0  0  0  # atno 7974 bound_to 7965
  154.4453  140.1915  156.0687 H   0  0  0  0  0  0  0  0  0  0  0  0  # atno 8008 bound_to 7997
  156.0528  140.3306  155.7343 H   0  0  0  0  0  0  0  0  0  0  0  0  # atno 8009 bound_to 7997
  155.5532  140.0597  157.2836 H   0  0  0  0  0  0  0  0  0  0  0  0  # atno 8010 bound_to 7997
  139.6741  143.9694  152.2300 H   0  0  0  0  0  0  0  0  0  0  0  0  # atno 10167 bound_to 10162
  156.0736  130.5947  150.8576 H   0  0  0  0  0  0  0  0  0  0  0  0  # atno 10718 bound_to 10713
  152.9924  135.5532  154.5891 H   0  0  0  0  0  0  0  0  0  0  0  0  # atno 10763 bound_to 10752
  154.5256  135.2810  155.1226 H   0  0  0  0  0  0  0  0  0  0  0  0  # atno 10764 bound_to 10752
  154.2562  135.6389  153.5311 H   0  0  0  0  0  0  0  0  0  0  0  0  # atno 10765 bound_to 10752
  140.4528  134.6327  157.4809 H   0  0  0  0  0  0  0  0  0  0  0  0  # atno 11005 bound_to 11000
  146.2535  140.5204  142.8883 LP  0  0  0  0  0  0  0  0  0  0  0  0  # atno 17320 bound_to 7965
  144.8096  140.6362  143.6424 LP  0  0  0  0  0  0  0  0  0  0  0  0  # atno 17321 bound_to 7965
  139.9466  144.6647  150.8213 LP  0  0  0  0  0  0  0  0  0  0  0  0  # atno 17342 bound_to 10162
  140.7629  143.3209  151.2624 LP  0  0  0  0  0  0  0  0  0  0  0  0  # atno 17343 bound_to 10162
  157.5820  131.0946  150.9256 LP  0  0  0  0  0  0  0  0  0  0  0  0  # atno 17370 bound_to 10713
  156.9450  130.5398  149.5281 LP  0  0  0  0  0  0  0  0  0  0  0  0  # atno 17371 bound_to 10713
  139.9995  134.6858  155.9553 LP  0  0  0  0  0  0  0  0  0  0  0  0  # atno 17394 bound_to 11000
  141.1656  133.6537  156.4469 LP  0  0  0  0  0  0  0  0  0  0  0  0  # atno 17395 bound_to 11000

$$$$
