AV-unprocessed.smi:1703|AV-procd|sdf|6853|dock8
  -GOLD-   22720 8 33D 1   1.00000     0.00000
 Structure written by MMmdl.
 48 50  0  0  0  0  0  0  0  0  1 V2000
  150.3890  137.4918  155.4626 C   0  0  0  0  0  0  0  0  0  0  0  0
  150.8785  138.6826  154.6208 C   0  0  2  0  0  0  0  0  0  0  0  0
  151.5910  139.7667  155.4545 C   0  0  0  0  0  0  0  0  0  0  0  0
  150.6640  140.5645  156.2560 N   0  0  0  0  0  0  0  0  0  0  0  0
  151.3360  141.6156  157.0219 C   0  0  0  0  0  0  0  0  0  0  0  0
  152.3096  141.1278  158.1140 C   0  0  2  0  0  0  0  0  0  0  0  0
  151.5616  140.5284  159.1543 O   0  0  0  0  0  0  0  0  0  0  0  0
  153.1370  142.2936  158.6901 C   0  0  0  0  0  0  0  0  0  0  0  0
  153.3535  142.1810  160.1277 N   0  0  0  0  0  0  0  0  0  0  0  0
  152.9588  143.0327  161.1096 C   0  0  0  0  0  0  0  0  0  0  0  0
  152.2084  144.3016  160.8160 C   0  0  0  0  0  0  0  0  0  0  0  0
  152.9366  145.4727  161.1248 O   0  0  0  0  0  0  0  0  0  0  0  0
  153.3032  142.6799  162.3503 N   0  0  0  0  0  0  0  0  0  0  0  0
  153.9752  141.4899  162.1569 C   0  0  0  0  0  0  0  0  0  0  0  0
  154.5839  140.6180  163.0881 C   0  0  0  0  0  0  0  0  0  0  0  0
  155.2259  139.4414  162.6501 C   0  0  0  0  0  0  0  0  0  0  0  0
  155.2694  139.1213  161.2777 C   0  0  0  0  0  0  0  0  0  0  0  0
  154.6684  139.9761  160.3335 C   0  0  0  0  0  0  0  0  0  0  0  0
  154.0264  141.1488  160.7761 C   0  0  0  0  0  0  0  0  0  0  0  0
  149.6488  141.1312  155.3775 C   0  0  0  0  0  0  0  0  0  0  0  0
  148.8897  140.0440  154.5961 C   0  0  1  0  0  0  0  0  0  0  0  0
  147.8782  140.6419  153.6124 C   0  0  0  0  0  0  0  0  0  0  0  0
  149.8214  139.2602  153.8532 O   0  0  0  0  0  0  0  0  0  0  0  0
  151.2268  136.9928  155.9502 H   0  0  0  0  0  0  0  0  0  0  0  0
  149.8843  136.7550  154.8376 H   0  0  0  0  0  0  0  0  0  0  0  0
  149.6950  137.7993  156.2445 H   0  0  0  0  0  0  0  0  0  0  0  0
  151.5970  138.2878  153.9019 H   0  0  0  0  0  0  0  0  0  0  0  0
  152.3339  139.2845  156.0877 H   0  0  0  0  0  0  0  0  0  0  0  0
  152.1416  140.4235  154.7795 H   0  0  0  0  0  0  0  0  0  0  0  0
  151.8719  142.2683  156.3309 H   0  0  0  0  0  0  0  0  0  0  0  0
  150.5860  142.2479  157.4998 H   0  0  0  0  0  0  0  0  0  0  0  0
  152.9950  140.3827  157.7150 H   0  0  0  0  0  0  0  0  0  0  0  0
  150.8996  139.9753  158.7690 H   0  0  0  0  0  0  0  0  0  0  0  0
  154.1041  142.3624  158.1922 H   0  0  0  0  0  0  0  0  0  0  0  0
  152.6362  143.2408  158.4868 H   0  0  0  0  0  0  0  0  0  0  0  0
  151.9488  144.3188  159.7574 H   0  0  0  0  0  0  0  0  0  0  0  0
  151.2774  144.3348  161.3799 H   0  0  0  0  0  0  0  0  0  0  0  0
  152.5711  145.8565  161.9069 H   0  0  0  0  0  0  0  0  0  0  0  0
  154.5572  140.8559  164.1412 H   0  0  0  0  0  0  0  0  0  0  0  0
  155.6880  138.7819  163.3700 H   0  0  0  0  0  0  0  0  0  0  0  0
  155.7649  138.2191  160.9503 H   0  0  0  0  0  0  0  0  0  0  0  0
  154.7035  139.7322  159.2825 H   0  0  0  0  0  0  0  0  0  0  0  0
  148.9355  141.7106  155.9650 H   0  0  0  0  0  0  0  0  0  0  0  0
  150.1137  141.8276  154.6775 H   0  0  0  0  0  0  0  0  0  0  0  0
  148.3511  139.4022  155.2942 H   0  0  0  0  0  0  0  0  0  0  0  0
  147.1319  141.2425  154.1330 H   0  0  0  0  0  0  0  0  0  0  0  0
  147.3521  139.8561  153.0699 H   0  0  0  0  0  0  0  0  0  0  0  0
  148.3708  141.2809  152.8788 H   0  0  0  0  0  0  0  0  0  0  0  0
  1  2  1  0  0  0  0
  1 24  1  0  0  0  0
  1 25  1  0  0  0  0
  1 26  1  0  0  0  0
  2 23  1  0  0  0  0
  2  3  1  0  0  0  0
  2 27  1  0  0  0  0
  3  4  1  0  0  0  0
  3 28  1  0  0  0  0
  3 29  1  0  0  0  0
  4  5  1  0  0  0  0
  4 20  1  0  0  0  0
  5  6  1  0  0  0  0
  5 30  1  0  0  0  0
  5 31  1  0  0  0  0
  6  7  1  0  0  0  0
  6  8  1  0  0  0  0
  6 32  1  0  0  0  0
  7 33  1  0  0  0  0
  8  9  1  0  0  0  0
  8 34  1  0  0  0  0
  8 35  1  0  0  0  0
  9 19  1  0  0  0  0
  9 10  1  0  0  0  0
 10 11  1  0  0  0  0
 10 13  2  0  0  0  0
 11 12  1  0  0  0  0
 11 36  1  0  0  0  0
 11 37  1  0  0  0  0
 12 38  1  0  0  0  0
 13 14  1  0  0  0  0
 14 19  2  0  0  0  0
 14 15  1  0  0  0  0
 15 16  2  0  0  0  0
 15 39  1  0  0  0  0
 16 17  1  0  0  0  0
 16 40  1  0  0  0  0
 17 18  2  0  0  0  0
 17 41  1  0  0  0  0
 18 19  1  0  0  0  0
 18 42  1  0  0  0  0
 20 21  1  0  0  0  0
 20 43  1  0  0  0  0
 20 44  1  0  0  0  0
 21 22  1  0  0  0  0
 21 23  1  0  0  0  0
 21 45  1  0  0  0  0
 22 46  1  0  0  0  0
 22 47  1  0  0  0  0
 22 48  1  0  0  0  0
M  END
> <s_m_source_file>
AV-unprocessed.smi

> <i_m_source_file_index>
1703

> <i_lp_mmshare_version>
43012

> <i_f3d_flags>
0

> <s_epik_input>
W0NIM11bQ0BASF0xW0NIMl1OKFtDSDJdW0NASF0oTzEpW0NIM10pW0NIMl1bQ0BIXShbT0hdKVtDSDJdbihjKG4yKVtDSDJdW09IXSljKGMyMylbY0hdW2NIXVtjSF1bY0hdMw==

> <s_epik_cmdline>
J2VwaWtfcHl0aG9uJywgJy1waCcsICc3LjAnLCAnLXRuJywgJzgnLCAnLW1hJywgJzIwMCcsICctbWV0YWxfYmluZGluZycsICctaW1hZScsICc8aW5maWxlLm1hZT4nLCAnLW9tYWUnLCAnPG91dGZpbGUubWFlPic=

> <r_epik_Ionization_Penalty>
0.307685

> <r_epik_Ionization_Penalty_Charging>
0

> <r_epik_Ionization_Penalty_Neutral>
0.307685

> <r_epik_State_Penalty>
0.277856

> <r_epik_Charging_Adjusted_Penalty>
0.277856

> <i_epik_Tot_Q>
0

> <i_epik_Tot_abs_Q>
0

> <r_epik_Metal_State_Penalty>
0.238959

> <b_epik_Metal_Only>
0

> <s_lp_Force_Field>
OPLS_2005

> <r_lp_Energy>
33.4043

> <b_lp_Chiralities_Consistent>
1

> <s_lp_Variant>
AV-unprocessed.smi:1703-1

> <Gold.Version>
5.8.1

> <Gold.Id.Protein>
6NUR|6NUR_protein|mol2

> <Gold.PLP.Fitness>
51.5108

> <Gold.PLP.PLP>
-52.6954

> <Gold.PLP.part.hbond>
-3.9576

> <Gold.PLP.part.metal>
0.0000

> <Gold.PLP.part.buried>
-3.6647

> <Gold.PLP.part.nonpolar>
-47.6052

> <Gold.PLP.part.repulsive>
2.2897

> <Gold.PLP.ligand.clash>
0.0000

> <Gold.PLP.ligand.torsion>
0.6271

> <Gold.PLP.Chemscore.Hbond>
0.0000

> <Gold.PLP.Chemscore.CHOScore>
0.0000

> <Gold.PLP.Chemscore.Metal>
0.0000

> <Gold.PLP.Chemscore.Internal.Correction>
0.0696

> <Gold.Rescore>
     Score         DG    S(hbond)    S(metal)    S(lipo)     H(rot)  DE(clash)    DE(int)     intcor
      9.33     -14.03       0.00        0.00     136.00       2.88       3.28       1.41       ----

> <Gold.Chemscore.Fitness>
9.3309

> <Gold.Chemscore.DG>
-14.0251

> <Gold.Chemscore.ZeroCoef>
-5.4800

> <Gold.Chemscore.Hbond>
0.0000

> <Gold.Chemscore.Metal>
0.0000

> <Gold.Chemscore.Lipo>
136.0014

> <Gold.Chemscore.Internal_Hbond>
0.0000

> <Gold.Chemscore.DEClash>
3.2818

> <Gold.Chemscore.DEInternal>
1.4124

> <Gold.Chemscore.Rot>
2.8778

> <Gold.Chemscore.Internal.Correction>
   9.000000E+99

> <Gold.Chemscore.Hbond.Weighted>
-0.0000

> <Gold.Chemscore.Metal.Weighted>
-0.0000

> <Gold.Chemscore.Lipo.Weighted>
-15.9122

> <Gold.Chemscore.Internal_Hbond.Weighted>
0.0000

> <Gold.Chemscore.DEClash.Weighted>
3.2818

> <Gold.Chemscore.DEInternal.Weighted>
1.4124

> <Gold.Chemscore.Rot.Weighted>
7.3671

> <Gold.Chemscore.Internal.Correction.Weighted>
   9.000000E+99

> <Gold.Protein.RotatedTorsions>
[ 6907 6896 6895 6894 ] final -150.76 input  -60.11 | X-H torsion
[ 7974 7965 7964 7962 ] final -126.61 input  175.53 | X-H torsion
[ 8008 7997 7996 7995 ] final -147.76 input   59.86 | X-H torsion
[ 10167 10162 10161 10158 ] final   49.62 input  -65.29 | X-H torsion
[ 10718 10713 10712 10709 ] final   98.96 input   66.30 | X-H torsion
[ 10763 10752 10751 10750 ] final  -81.72 input  -60.55 | X-H torsion
[ 11005 11000 10999 10996 ] final -116.39 input  -57.11 | X-H torsion

> <Gold.Protein.ActiveResidues>
 VAL166  LYS551  ARG553  GLY616  TRP617  ASP618  TYR619  PRO620  LYS621  CYS622 
 ASP623  PHE694  ASN695  SER759  ASP760  ASP761  ALA762  ILE779  LEU786  VAL792 
 PHE793  MET794  SER795  GLU796  ALA797  LYS798  CYS799  TRP800  GLU811  SER814 

> <Gold.Protein.RotatedAtoms>
  151.2032  133.4598  159.2596 H   0  0  0  0  0  0  0  0  0  0  0  0  # atno 6907 bound_to 6896
  151.1049  134.9993  159.8476 H   0  0  0  0  0  0  0  0  0  0  0  0  # atno 6908 bound_to 6896
  152.5446  134.1956  159.8744 H   0  0  0  0  0  0  0  0  0  0  0  0  # atno 6909 bound_to 6896
  144.9855  140.7682  143.4586 H   0  0  0  0  0  0  0  0  0  0  0  0  # atno 7974 bound_to 7965
  155.5807  140.0643  157.2784 H   0  0  0  0  0  0  0  0  0  0  0  0  # atno 8008 bound_to 7997
  154.4333  140.1852  156.1019 H   0  0  0  0  0  0  0  0  0  0  0  0  # atno 8009 bound_to 7997
  156.0307  140.3306  155.7141 H   0  0  0  0  0  0  0  0  0  0  0  0  # atno 8010 bound_to 7997
  140.2810  144.3157  150.6264 H   0  0  0  0  0  0  0  0  0  0  0  0  # atno 10167 bound_to 10162
  157.6885  131.0655  150.4876 H   0  0  0  0  0  0  0  0  0  0  0  0  # atno 10718 bound_to 10713
  154.5670  135.5616  153.7059 H   0  0  0  0  0  0  0  0  0  0  0  0  # atno 10763 bound_to 10752
  153.0036  135.6287  154.2167 H   0  0  0  0  0  0  0  0  0  0  0  0  # atno 10764 bound_to 10752
  154.2106  135.2874  155.2939 H   0  0  0  0  0  0  0  0  0  0  0  0  # atno 10765 bound_to 10752
  141.0425  133.9814  157.2972 H   0  0  0  0  0  0  0  0  0  0  0  0  # atno 11005 bound_to 11000
  145.2359  139.2094  143.5018 LP  0  0  0  0  0  0  0  0  0  0  0  0  # atno 17320 bound_to 7965
  146.3419  140.2245  142.8592 LP  0  0  0  0  0  0  0  0  0  0  0  0  # atno 17321 bound_to 7965
  140.5812  143.2172  151.7425 LP  0  0  0  0  0  0  0  0  0  0  0  0  # atno 17342 bound_to 10162
  139.4963  144.4078  152.0113 LP  0  0  0  0  0  0  0  0  0  0  0  0  # atno 17343 bound_to 10162
  156.5204  130.4160  149.6254 LP  0  0  0  0  0  0  0  0  0  0  0  0  # atno 17370 bound_to 10713
  156.3159  130.7254  151.2157 LP  0  0  0  0  0  0  0  0  0  0  0  0  # atno 17371 bound_to 10713
  139.9286  135.0201  156.8323 LP  0  0  0  0  0  0  0  0  0  0  0  0  # atno 17394 bound_to 11000
  140.6208  133.9995  155.7617 LP  0  0  0  0  0  0  0  0  0  0  0  0  # atno 17395 bound_to 11000

$$$$
