AV-unprocessed.smi:2439|AV-procd|sdf|9611|dock3
  -GOLD-   2272013243D 1   1.00000     0.00000
 Structure written by MMmdl.
 40 42  0  0  0  0  0  0  0  0  1 V2000
  148.3025  136.4602  155.0957 N   0  0  0  0  0  0  0  0  0  0  0  0
  148.4590  137.5933  154.9216 C   0  0  0  0  0  0  0  0  0  0  0  0
  148.6559  139.0213  154.7031 C   0  0  0  0  0  0  0  0  0  0  0  0
  147.6025  139.7786  154.1491 C   0  0  0  0  0  0  0  0  0  0  0  0
  147.7863  141.1570  153.9366 C   0  0  0  0  0  0  0  0  0  0  0  0
  149.0247  141.7248  154.2863 C   0  0  0  0  0  0  0  0  0  0  0  0
  150.0410  141.0118  154.8145 N   0  0  0  0  0  0  0  0  0  0  0  0
  149.8708  139.6834  155.0271 C   0  0  0  0  0  0  0  0  0  0  0  0
  150.9477  138.9646  155.5793 N   0  0  0  0  0  0  0  0  0  0  0  0
  152.1343  139.6329  156.1003 C   0  0  0  0  0  0  0  0  0  0  0  0
  151.9044  140.2361  157.4957 C   0  0  2  0  0  0  0  0  0  0  0  0
  151.5891  141.7409  157.4179 C   0  0  0  0  0  0  0  0  0  0  0  0
  151.4430  142.3345  158.7407 N   0  0  0  0  0  0  0  0  0  0  0  0
  151.1494  143.7639  158.6528 C   0  0  0  0  0  0  0  0  0  0  0  0
  150.9559  144.4080  160.0344 C   0  0  0  0  0  0  0  0  0  0  0  0
  152.1944  144.1718  160.9109 C   0  0  0  0  0  0  0  0  0  0  0  0
  152.5310  142.6732  160.9555 C   0  0  0  0  0  0  0  0  0  0  0  0
  152.6535  142.0924  159.5316 C   0  0  1  0  0  0  0  0  0  0  0  0
  152.9847  140.5869  159.5834 C   0  0  0  0  0  0  0  0  0  0  0  0
  153.0948  140.0684  158.2618 O   0  0  0  0  0  0  0  0  0  0  0  0
  146.6624  139.3136  153.8884 H   0  0  0  0  0  0  0  0  0  0  0  0
  146.9982  141.7635  153.5159 H   0  0  0  0  0  0  0  0  0  0  0  0
  149.2049  142.7792  154.1374 H   0  0  0  0  0  0  0  0  0  0  0  0
  150.8207  137.9871  155.7999 H   0  0  0  0  0  0  0  0  0  0  0  0
  152.9484  138.9089  156.1411 H   0  0  0  0  0  0  0  0  0  0  0  0
  152.4535  140.4052  155.3996 H   0  0  0  0  0  0  0  0  0  0  0  0
  151.0779  139.7237  157.9914 H   0  0  0  0  0  0  0  0  0  0  0  0
  152.3837  142.2503  156.8700 H   0  0  0  0  0  0  0  0  0  0  0  0
  150.6722  141.8896  156.8462 H   0  0  0  0  0  0  0  0  0  0  0  0
  151.9555  144.2752  158.1243 H   0  0  0  0  0  0  0  0  0  0  0  0
  150.2468  143.9163  158.0599 H   0  0  0  0  0  0  0  0  0  0  0  0
  150.7677  145.4767  159.9292 H   0  0  0  0  0  0  0  0  0  0  0  0
  150.0758  143.9814  160.5173 H   0  0  0  0  0  0  0  0  0  0  0  0
  153.0416  144.7246  160.5031 H   0  0  0  0  0  0  0  0  0  0  0  0
  152.0257  144.5535  161.9181 H   0  0  0  0  0  0  0  0  0  0  0  0
  153.4590  142.5201  161.5074 H   0  0  0  0  0  0  0  0  0  0  0  0
  151.7519  142.1422  161.5042 H   0  0  0  0  0  0  0  0  0  0  0  0
  153.4907  142.5926  159.0413 H   0  0  0  0  0  0  0  0  0  0  0  0
  153.9288  140.4223  160.1031 H   0  0  0  0  0  0  0  0  0  0  0  0
  152.2180  140.0363  160.1313 H   0  0  0  0  0  0  0  0  0  0  0  0
  1  2  3  0  0  0  0
  2  3  1  0  0  0  0
  3  8  1  0  0  0  0
  3  4  2  0  0  0  0
  4  5  1  0  0  0  0
  4 21  1  0  0  0  0
  5  6  2  0  0  0  0
  5 22  1  0  0  0  0
  6  7  1  0  0  0  0
  6 23  1  0  0  0  0
  7  8  2  0  0  0  0
  8  9  1  0  0  0  0
  9 10  1  0  0  0  0
  9 24  1  0  0  0  0
 10 11  1  0  0  0  0
 10 25  1  0  0  0  0
 10 26  1  0  0  0  0
 11 20  1  0  0  0  0
 11 12  1  0  0  0  0
 11 27  1  0  0  0  0
 12 13  1  0  0  0  0
 12 28  1  0  0  0  0
 12 29  1  0  0  0  0
 13 18  1  0  0  0  0
 13 14  1  0  0  0  0
 14 15  1  0  0  0  0
 14 30  1  0  0  0  0
 14 31  1  0  0  0  0
 15 16  1  0  0  0  0
 15 32  1  0  0  0  0
 15 33  1  0  0  0  0
 16 17  1  0  0  0  0
 16 34  1  0  0  0  0
 16 35  1  0  0  0  0
 17 18  1  0  0  0  0
 17 36  1  0  0  0  0
 17 37  1  0  0  0  0
 18 19  1  0  0  0  0
 18 38  1  0  0  0  0
 19 20  1  0  0  0  0
 19 39  1  0  0  0  0
 19 40  1  0  0  0  0
M  END
> <s_m_source_file>
AV-unprocessed.smi

> <i_m_source_file_index>
2439

> <i_lp_mmshare_version>
43012

> <i_f3d_flags>
0

> <s_epik_input>
TiNDYzFbY0hdW2NIXVtjSF1uYzFbTkhdW0NIMl1bQ0BIXShbQ0gyXTIpT1tDSDJdW0NAQEhdKE4yMylbQ0gyXVtDSDJdW0NIMl1bQ0gyXTM=

> <s_epik_cmdline>
J2VwaWtfcHl0aG9uJywgJy1waCcsICc3LjAnLCAnLXRuJywgJzgnLCAnLW1hJywgJzIwMCcsICctbWV0YWxfYmluZGluZycsICctaW1hZScsICc8aW5maWxlLm1hZT4nLCAnLW9tYWUnLCAnPG91dGZpbGUubWFlPic=

> <r_epik_Ionization_Penalty>
1.22355

> <r_epik_Ionization_Penalty_Charging>
0

> <r_epik_Ionization_Penalty_Neutral>
1.22355

> <r_epik_State_Penalty>
1.29103

> <r_epik_Charging_Adjusted_Penalty>
1.29103

> <i_epik_Tot_Q>
0

> <i_epik_Tot_abs_Q>
0

> <r_epik_Metal_State_Penalty>
1.29103

> <b_epik_Metal_Only>
0

> <s_lp_Force_Field>
OPLS_2005

> <r_lp_Energy>
37.4104

> <b_lp_Chiralities_Consistent>
1

> <s_lp_Variant>
AV-unprocessed.smi:2439-9

> <Gold.Version>
5.8.1

> <Gold.Id.Protein>
6NUR|6NUR_protein|mol2

> <Gold.PLP.Fitness>
43.2755

> <Gold.PLP.PLP>
-36.4945

> <Gold.PLP.part.hbond>
-2.0000

> <Gold.PLP.part.metal>
0.0000

> <Gold.PLP.part.buried>
-2.6109

> <Gold.PLP.part.nonpolar>
-30.9517

> <Gold.PLP.part.repulsive>
0.3126

> <Gold.PLP.ligand.clash>
0.0000

> <Gold.PLP.ligand.torsion>
0.6665

> <Gold.PLP.Chemscore.Hbond>
1.7040

> <Gold.PLP.Chemscore.CHOScore>
1.0000

> <Gold.PLP.Chemscore.Metal>
0.0000

> <Gold.Chemscore.Hbonds>
donor molecule, donor type, donor heavy atom, donor atom, acceptor molecule, acceptor atom, score
      P1  H  7989  7998       L1     7  0.57
      P1  H  7997  8010       L1    20  1.00
      L1  C     6    23       P1  8028  1.00

> <Gold.PLP.Chemscore.Internal.Correction>
0.0019

> <Gold.Rescore>
     Score         DG    S(hbond)    S(metal)    S(lipo)     H(rot)  DE(clash)    DE(int)     intcor
     18.38     -19.19       1.42        0.00     103.96       1.25       0.05       0.76       ----

> <Gold.Chemscore.Fitness>
18.3785

> <Gold.Chemscore.DG>
-19.1888

> <Gold.Chemscore.ZeroCoef>
-5.4800

> <Gold.Chemscore.Hbond>
1.4197

> <Gold.Chemscore.Metal>
0.0000

> <Gold.Chemscore.Lipo>
103.9600

> <Gold.Chemscore.Internal_Hbond>
0.0000

> <Gold.Chemscore.DEClash>
0.0489

> <Gold.Chemscore.DEInternal>
0.7614

> <Gold.Chemscore.Rot>
1.2485

> <Gold.Chemscore.Internal.Correction>
   9.000000E+99

> <Gold.Chemscore.Hbonds>
donor molecule, donor type, donor heavy atom, donor atom, acceptor molecule, acceptor atom, score
      P1  H  7989  7998       L1     7  0.08
      P1  H  7997  8010       L1    20  0.69

> <Gold.Chemscore.Hbond.Weighted>
-4.7416

> <Gold.Chemscore.Metal.Weighted>
-0.0000

> <Gold.Chemscore.Lipo.Weighted>
-12.1633

> <Gold.Chemscore.Internal_Hbond.Weighted>
0.0000

> <Gold.Chemscore.DEClash.Weighted>
0.0489

> <Gold.Chemscore.DEInternal.Weighted>
0.7614

> <Gold.Chemscore.Rot.Weighted>
3.1961

> <Gold.Chemscore.Internal.Correction.Weighted>
   9.000000E+99

> <Gold.Protein.RotatedTorsions>
[ 6907 6896 6895 6894 ] final -139.49 input  -60.11 | X-H torsion
[ 7974 7965 7964 7962 ] final  119.50 input  175.53 | X-H torsion
[ 8008 7997 7996 7995 ] final   28.74 input   59.86 | X-H torsion
[ 10167 10162 10161 10158 ] final -125.16 input  -65.29 | X-H torsion
[ 10718 10713 10712 10709 ] final  123.71 input   66.30 | X-H torsion
[ 10763 10752 10751 10750 ] final  107.42 input  -60.55 | X-H torsion
[ 11005 11000 10999 10996 ] final  -73.95 input  -57.11 | X-H torsion

> <Gold.Protein.ActiveResidues>
 VAL166  LYS551  ARG553  GLY616  TRP617  ASP618  TYR619  PRO620  LYS621  CYS622 
 ASP623  PHE694  ASN695  SER759  ASP760  ASP761  ALA762  ILE779  LEU786  VAL792 
 PHE793  MET794  SER795  GLU796  ALA797  LYS798  CYS799  TRP800  GLU811  SER814 

> <Gold.Protein.RotatedAtoms>
  151.0485  133.5645  159.2644 H   0  0  0  0  0  0  0  0  0  0  0  0  # atno 6907 bound_to 6896
  151.2665  135.0670  159.9128 H   0  0  0  0  0  0  0  0  0  0  0  0  # atno 6908 bound_to 6896
  152.5377  134.0222  159.8040 H   0  0  0  0  0  0  0  0  0  0  0  0  # atno 6909 bound_to 6896
  145.1424  139.3260  143.4609 H   0  0  0  0  0  0  0  0  0  0  0  0  # atno 7974 bound_to 7965
  155.0634  140.3192  155.4653 H   0  0  0  0  0  0  0  0  0  0  0  0  # atno 8008 bound_to 7997
  156.2808  140.2125  156.5706 H   0  0  0  0  0  0  0  0  0  0  0  0  # atno 8009 bound_to 7997
  154.7114  140.0498  157.0541 H   0  0  0  0  0  0  0  0  0  0  0  0  # atno 8010 bound_to 7997
  139.9850  143.5701  152.2364 H   0  0  0  0  0  0  0  0  0  0  0  0  # atno 10167 bound_to 10162
  157.5643  131.1087  150.8483 H   0  0  0  0  0  0  0  0  0  0  0  0  # atno 10718 bound_to 10713
  153.4065  135.3845  155.2022 H   0  0  0  0  0  0  0  0  0  0  0  0  # atno 10763 bound_to 10752
  154.8734  135.3784  154.4554 H   0  0  0  0  0  0  0  0  0  0  0  0  # atno 10764 bound_to 10752
  153.5057  135.7088  153.5870 H   0  0  0  0  0  0  0  0  0  0  0  0  # atno 10765 bound_to 10752
  141.1629  133.6895  156.7291 H   0  0  0  0  0  0  0  0  0  0  0  0  # atno 11005 bound_to 11000
  146.3503  140.1466  142.8593 LP  0  0  0  0  0  0  0  0  0  0  0  0  # atno 17320 bound_to 7965
  145.0518  140.9023  143.4991 LP  0  0  0  0  0  0  0  0  0  0  0  0  # atno 17321 bound_to 7965
  139.6382  144.7652  151.2395 LP  0  0  0  0  0  0  0  0  0  0  0  0  # atno 17342 bound_to 10162
  140.7475  143.6363  150.8376 LP  0  0  0  0  0  0  0  0  0  0  0  0  # atno 17343 bound_to 10162
  156.8972  130.5234  149.5284 LP  0  0  0  0  0  0  0  0  0  0  0  0  # atno 17370 bound_to 10713
  156.0692  130.5729  150.9350 LP  0  0  0  0  0  0  0  0  0  0  0  0  # atno 17371 bound_to 10713
  140.2759  134.8355  157.3889 LP  0  0  0  0  0  0  0  0  0  0  0  0  # atno 17394 bound_to 11000
  140.1478  134.4888  155.7983 LP  0  0  0  0  0  0  0  0  0  0  0  0  # atno 17395 bound_to 11000

$$$$
