AV-unprocessed.smi:200|AV-procd|sdf|1579|dock7
  -GOLD-   2262019463D 1   1.00000     0.00000
 Structure written by MMmdl.
 56 59  0  0  0  0  0  0  0  0  1 V2000
  149.8404  138.7315  154.5705 C   0  0  0  0  0  0  0  0  0  0  0  0
  150.8215  139.7532  154.5755 O   0  0  0  0  0  0  0  0  0  0  0  0
  151.1079  140.2255  155.8812 C   0  0  0  0  0  0  0  0  0  0  0  0
  151.4896  139.0311  156.7733 C   0  0  0  0  0  0  0  0  0  0  0  0
  151.0292  139.1630  158.1606 N   0  0  0  0  0  0  0  0  0  0  0  0
  149.6936  139.0801  158.3659 C   0  0  0  0  0  0  0  0  0  0  0  0
  148.9179  140.0226  157.7749 N   0  0  0  0  0  0  0  0  0  0  0  0
  147.5927  139.9996  157.9424 C   0  0  0  0  0  0  0  0  0  0  0  0
  146.8544  139.1336  158.6395 N   0  0  0  0  0  0  0  0  0  0  0  0
  147.6293  138.1743  159.2215 C   0  0  0  0  0  0  0  0  0  0  0  0
  149.0472  138.0739  159.1392 C   0  0  0  0  0  0  0  0  0  0  0  0
  149.4846  136.9673  159.8568 N   0  0  0  0  0  0  0  0  0  0  0  0
  148.3903  136.4476  160.3404 C   0  0  0  0  0  0  0  0  0  0  0  0
  147.2282  137.1027  160.0003 N   0  0  0  0  0  0  0  0  0  0  0  0
  145.8785  136.7328  160.3990 C   0  0  0  0  0  0  0  0  0  0  0  0
  145.7147  136.4555  161.9084 C   0  0  0  0  0  0  0  0  0  0  0  0
  146.1318  137.6796  162.7434 C   0  0  0  0  0  0  0  0  0  0  0  0
  147.5340  137.7375  162.9125 O   0  0  0  0  0  0  0  0  0  0  0  0
  144.3828  135.8168  162.3258 C   0  0  0  0  0  0  0  0  0  0  0  0
  145.0506  134.7758  163.0695 O   0  0  0  0  0  0  0  0  0  0  0  0
  146.2877  135.1229  162.4130 C   0  0  0  0  0  0  0  0  0  0  0  0
  151.6684  140.1239  159.0659 C   0  0  1  0  0  0  0  0  0  0  0  0
  153.1439  139.8520  159.3700 C   0  0  0  0  0  0  0  0  0  0  0  0
  153.6035  141.1693  159.9907 C   0  0  0  0  0  0  0  0  0  0  0  0
  152.8836  142.2575  159.1776 C   0  0  2  0  0  0  0  0  0  0  0  0
  152.6023  143.5332  159.9827 C   0  0  0  0  0  0  0  0  0  0  0  0
  151.6160  141.5915  158.6068 C   0  0  0  0  0  0  0  0  0  0  0  0
  149.6519  138.4100  153.5463 H   0  0  0  0  0  0  0  0  0  0  0  0
  148.8986  139.0864  154.9913 H   0  0  0  0  0  0  0  0  0  0  0  0
  150.1742  137.8632  155.1399 H   0  0  0  0  0  0  0  0  0  0  0  0
  151.9479  140.9200  155.8342 H   0  0  0  0  0  0  0  0  0  0  0  0
  150.2621  140.7803  156.2897 H   0  0  0  0  0  0  0  0  0  0  0  0
  151.0768  138.1275  156.3292 H   0  0  0  0  0  0  0  0  0  0  0  0
  152.5704  138.9005  156.7568 H   0  0  0  0  0  0  0  0  0  0  0  0
  147.0454  140.7876  157.4464 H   0  0  0  0  0  0  0  0  0  0  0  0
  148.3994  135.5592  160.9554 H   0  0  0  0  0  0  0  0  0  0  0  0
  145.2026  137.5296  160.0860 H   0  0  0  0  0  0  0  0  0  0  0  0
  145.5867  135.8596  159.8143 H   0  0  0  0  0  0  0  0  0  0  0  0
  145.8183  138.6016  162.2524 H   0  0  0  0  0  0  0  0  0  0  0  0
  145.6513  137.6842  163.7219 H   0  0  0  0  0  0  0  0  0  0  0  0
  147.7229  137.7755  163.8378 H   0  0  0  0  0  0  0  0  0  0  0  0
  143.7608  136.4520  162.9574 H   0  0  0  0  0  0  0  0  0  0  0  0
  143.8055  135.4121  161.4928 H   0  0  0  0  0  0  0  0  0  0  0  0
  146.5312  134.4109  161.6233 H   0  0  0  0  0  0  0  0  0  0  0  0
  147.1201  135.2308  163.1092 H   0  0  0  0  0  0  0  0  0  0  0  0
  151.1541  140.0751  160.0281 H   0  0  0  0  0  0  0  0  0  0  0  0
  153.2836  139.0017  160.0379 H   0  0  0  0  0  0  0  0  0  0  0  0
  153.7200  139.6665  158.4644 H   0  0  0  0  0  0  0  0  0  0  0  0
  153.2869  141.2049  161.0343 H   0  0  0  0  0  0  0  0  0  0  0  0
  154.6878  141.2837  159.9720 H   0  0  0  0  0  0  0  0  0  0  0  0
  153.5251  142.5210  158.3353 H   0  0  0  0  0  0  0  0  0  0  0  0
  151.9557  143.3288  160.8365 H   0  0  0  0  0  0  0  0  0  0  0  0
  152.1108  144.2848  159.3644 H   0  0  0  0  0  0  0  0  0  0  0  0
  153.5278  143.9683  160.3609 H   0  0  0  0  0  0  0  0  0  0  0  0
  151.6278  141.6775  157.5203 H   0  0  0  0  0  0  0  0  0  0  0  0
  150.6985  142.0695  158.9525 H   0  0  0  0  0  0  0  0  0  0  0  0
  1  2  1  0  0  0  0
  1 28  1  0  0  0  0
  1 29  1  0  0  0  0
  1 30  1  0  0  0  0
  2  3  1  0  0  0  0
  3  4  1  0  0  0  0
  3 31  1  0  0  0  0
  3 32  1  0  0  0  0
  4  5  1  0  0  0  0
  4 33  1  0  0  0  0
  4 34  1  0  0  0  0
  5  6  1  0  0  0  0
  5 22  1  0  0  0  0
  6 11  1  0  0  0  0
  6  7  2  0  0  0  0
  7  8  1  0  0  0  0
  8  9  2  0  0  0  0
  8 35  1  0  0  0  0
  9 10  1  0  0  0  0
 10 14  1  0  0  0  0
 10 11  2  0  0  0  0
 11 12  1  0  0  0  0
 12 13  2  0  0  0  0
 13 14  1  0  0  0  0
 13 36  1  0  0  0  0
 14 15  1  0  0  0  0
 15 16  1  0  0  0  0
 15 37  1  0  0  0  0
 15 38  1  0  0  0  0
 16 21  1  0  0  0  0
 16 17  1  0  0  0  0
 16 19  1  0  0  0  0
 17 18  1  0  0  0  0
 17 39  1  0  0  0  0
 17 40  1  0  0  0  0
 18 41  1  0  0  0  0
 19 20  1  0  0  0  0
 19 42  1  0  0  0  0
 19 43  1  0  0  0  0
 20 21  1  0  0  0  0
 21 44  1  0  0  0  0
 21 45  1  0  0  0  0
 22 27  1  0  0  0  0
 22 23  1  0  0  0  0
 22 46  1  0  0  0  0
 23 24  1  0  0  0  0
 23 47  1  0  0  0  0
 23 48  1  0  0  0  0
 24 25  1  0  0  0  0
 24 49  1  0  0  0  0
 24 50  1  0  0  0  0
 25 26  1  0  0  0  0
 25 27  1  0  0  0  0
 25 51  1  0  0  0  0
 26 52  1  0  0  0  0
 26 53  1  0  0  0  0
 26 54  1  0  0  0  0
 27 55  1  0  0  0  0
 27 56  1  0  0  0  0
M  END
> <s_m_source_file>
AV-unprocessed.smi

> <i_m_source_file_index>
200

> <i_lp_mmshare_version>
43012

> <i_f3d_flags>
0

> <s_epik_input>
W0NIM11bQ0BASF0oW0NIMl0xKVtDSDJdW0NIMl1bQ0BIXTFOKFtDSDJdW0NIMl1PW0NIM10pYyhuW2NIXW4yKWMoYzIzKW5bY0hdbjNbQ0gyXUM0KFtDSDJdW09IXSlbQ0gyXU9bQ0gyXTQ=

> <s_epik_cmdline>
J2VwaWtfcHl0aG9uJywgJy1waCcsICc3LjAnLCAnLXRuJywgJzgnLCAnLW1hJywgJzIwMCcsICctbWV0YWxfYmluZGluZycsICctaW1hZScsICc8aW5maWxlLm1hZT4nLCAnLW9tYWUnLCAnPG91dGZpbGUubWFlPic=

> <r_lp_tautomer_probability>
1

> <r_epik_Ionization_Penalty>
0.00363087

> <r_epik_Ionization_Penalty_Charging>
0

> <r_epik_Ionization_Penalty_Neutral>
0.00363087

> <r_epik_State_Penalty>
0.0024341

> <r_epik_Charging_Adjusted_Penalty>
0.0024341

> <i_epik_Tot_Q>
0

> <i_epik_Tot_abs_Q>
0

> <r_epik_Metal_State_Penalty>
-0

> <b_epik_Metal_Only>
0

> <s_lp_Force_Field>
OPLS_2005

> <r_lp_Energy>
49.9898

> <b_lp_Chiralities_Consistent>
1

> <s_lp_Variant>
AV-unprocessed.smi:200-4

> <Gold.Version>
5.8.1

> <Gold.Id.Protein>
6NUR|6NUR_protein|mol2

> <Gold.PLP.Fitness>
50.7323

> <Gold.PLP.PLP>
-45.0382

> <Gold.PLP.part.hbond>
-4.8211

> <Gold.PLP.part.metal>
0.0000

> <Gold.PLP.part.buried>
-4.1931

> <Gold.PLP.part.nonpolar>
-36.6337

> <Gold.PLP.part.repulsive>
0.1493

> <Gold.PLP.ligand.clash>
0.0000

> <Gold.PLP.ligand.torsion>
1.4674

> <Gold.PLP.Chemscore.Hbond>
2.4190

> <Gold.PLP.Chemscore.CHOScore>
0.0000

> <Gold.PLP.Chemscore.Metal>
0.0000

> <Gold.Chemscore.Hbonds>
donor molecule, donor type, donor heavy atom, donor atom, acceptor molecule, acceptor atom, score
      P1  H  6931  6943       L1    18  0.43
      P1  H  7989  7998       L1     2  1.00

> <Gold.PLP.Chemscore.Internal.Correction>
1.3720

> <Gold.Rescore>
     Score         DG    S(hbond)    S(metal)    S(lipo)     H(rot)  DE(clash)    DE(int)     intcor
     12.56     -15.80       1.97        0.00     103.50       3.28       0.14       3.09       ----

> <Gold.Chemscore.Fitness>
12.5630

> <Gold.Chemscore.DG>
-15.7960

> <Gold.Chemscore.ZeroCoef>
-5.4800

> <Gold.Chemscore.Hbond>
1.9740

> <Gold.Chemscore.Metal>
0.0000

> <Gold.Chemscore.Lipo>
103.5019

> <Gold.Chemscore.Internal_Hbond>
0.0000

> <Gold.Chemscore.DEClash>
0.1382

> <Gold.Chemscore.DEInternal>
3.0949

> <Gold.Chemscore.Rot>
3.2761

> <Gold.Chemscore.Internal.Correction>
   9.000000E+99

> <Gold.Chemscore.Hbonds>
donor molecule, donor type, donor heavy atom, donor atom, acceptor molecule, acceptor atom, score
      P1  H  6931  6943       L1    18  0.31
      P1  H  7989  7998       L1     2  0.50

> <Gold.Chemscore.Hbond.Weighted>
-6.5932

> <Gold.Chemscore.Metal.Weighted>
-0.0000

> <Gold.Chemscore.Lipo.Weighted>
-12.1097

> <Gold.Chemscore.Internal_Hbond.Weighted>
0.0000

> <Gold.Chemscore.DEClash.Weighted>
0.1382

> <Gold.Chemscore.DEInternal.Weighted>
3.0949

> <Gold.Chemscore.Rot.Weighted>
8.3868

> <Gold.Chemscore.Internal.Correction.Weighted>
   9.000000E+99

> <Gold.Protein.RotatedTorsions>
[ 6907 6896 6895 6894 ] final  109.12 input  -60.11 | X-H torsion
[ 7974 7965 7964 7962 ] final   90.45 input  175.53 | X-H torsion
[ 8008 7997 7996 7995 ] final  -80.03 input   59.86 | X-H torsion
[ 10167 10162 10161 10158 ] final  120.05 input  -65.29 | X-H torsion
[ 10718 10713 10712 10709 ] final  170.88 input   66.30 | X-H torsion
[ 10763 10752 10751 10750 ] final  124.71 input  -60.55 | X-H torsion
[ 11005 11000 10999 10996 ] final    2.01 input  -57.11 | X-H torsion

> <Gold.Protein.ActiveResidues>
 VAL166  LYS551  ARG553  GLY616  TRP617  ASP618  TYR619  PRO620  LYS621  CYS622 
 ASP623  PHE694  ASN695  SER759  ASP760  ASP761  ALA762  ILE779  LEU786  VAL792 
 PHE793  MET794  SER795  GLU796  ALA797  LYS798  CYS799  TRP800  GLU811  SER814 

> <Gold.Protein.RotatedAtoms>
  152.5082  133.8990  159.7431 H   0  0  0  0  0  0  0  0  0  0  0  0  # atno 6907 bound_to 6896
  150.9410  133.6647  159.2797 H   0  0  0  0  0  0  0  0  0  0  0  0  # atno 6908 bound_to 6896
  151.3959  135.0968  159.9593 H   0  0  0  0  0  0  0  0  0  0  0  0  # atno 6909 bound_to 6896
  145.5188  139.2279  143.2683 H   0  0  0  0  0  0  0  0  0  0  0  0  # atno 7974 bound_to 7965
  154.5843  140.0669  156.9149 H   0  0  0  0  0  0  0  0  0  0  0  0  # atno 8008 bound_to 7997
  155.2407  140.3344  155.4274 H   0  0  0  0  0  0  0  0  0  0  0  0  # atno 8009 bound_to 7997
  156.2212  140.1799  156.7458 H   0  0  0  0  0  0  0  0  0  0  0  0  # atno 8010 bound_to 7997
  139.6007  144.7055  151.3070 H   0  0  0  0  0  0  0  0  0  0  0  0  # atno 10167 bound_to 10162
  157.0017  131.0178  151.2829 H   0  0  0  0  0  0  0  0  0  0  0  0  # atno 10718 bound_to 10713
  153.6656  135.3339  155.3139 H   0  0  0  0  0  0  0  0  0  0  0  0  # atno 10763 bound_to 10752
  154.8504  135.4374  154.1758 H   0  0  0  0  0  0  0  0  0  0  0  0  # atno 10764 bound_to 10752
  153.2736  135.7002  153.7531 H   0  0  0  0  0  0  0  0  0  0  0  0  # atno 10765 bound_to 10752
  140.6091  133.9765  155.8168 H   0  0  0  0  0  0  0  0  0  0  0  0  # atno 11005 bound_to 11000
  146.2119  140.5999  142.9056 LP  0  0  0  0  0  0  0  0  0  0  0  0  # atno 17320 bound_to 7965
  144.7687  140.5589  143.6685 LP  0  0  0  0  0  0  0  0  0  0  0  0  # atno 17321 bound_to 7965
  140.7247  143.7037  150.7824 LP  0  0  0  0  0  0  0  0  0  0  0  0  # atno 17342 bound_to 10162
  140.0613  143.5152  152.2626 LP  0  0  0  0  0  0  0  0  0  0  0  0  # atno 17343 bound_to 10162
  157.5385  130.8104  149.8001 LP  0  0  0  0  0  0  0  0  0  0  0  0  # atno 17370 bound_to 10713
  156.0169  130.3810  150.2084 LP  0  0  0  0  0  0  0  0  0  0  0  0  # atno 17371 bound_to 10713
  141.0820  134.0047  157.3371 LP  0  0  0  0  0  0  0  0  0  0  0  0  # atno 17394 bound_to 11000
  139.9200  135.0200  156.8027 LP  0  0  0  0  0  0  0  0  0  0  0  0  # atno 17395 bound_to 11000

$$$$
