AV-unprocessed.smi:42|AV-procd|sdf|387|dock3
  -GOLD-   2262016243D 1   1.00000     0.00000
 Structure written by MMmdl.
 27 28  0  0  0  0  0  0  0  0  2 V2000
  152.5549  141.8841  159.2156 C   0  0  0  0  0  0  0  0  0  0  0  0
  152.1602  140.4946  158.7045 C   0  0  0  0  0  0  0  0  0  0  0  0
  151.7340  140.5106  157.2748 C   0  0  0  0  0  0  0  0  0  0  0  0
  152.3299  139.9077  156.2436 N   0  0  0  0  0  0  0  0  0  0  0  0
  151.5408  140.1730  155.1478 N   0  0  0  0  0  0  0  0  0  0  0  0
  150.5037  140.8834  155.6055 C   0  0  0  0  0  0  0  0  0  0  0  0
  149.3714  141.4830  154.8279 C   0  0  1  0  0  0  0  0  0  0  0  0
  148.4628  140.4691  154.1311 C   0  0  0  0  0  0  0  0  0  0  0  0
  147.1166  141.1872  154.1378 C   0  0  1  0  0  0  0  0  0  0  0  0
  146.0345  140.2894  154.0124 O   0  0  0  0  0  0  0  0  0  0  0  0
  147.1107  141.9157  155.4873 C   0  0  0  0  0  0  0  0  0  0  0  0
  148.5256  142.1811  155.8189 N   0  3  0  0  0  0  0  0  0  0  0  0
  150.5767  141.1372  156.9378 O   0  0  0  0  0  0  0  0  0  0  0  0
  149.7513  142.2141  154.1131 H   0  0  0  0  0  0  0  0  0  0  0  0
  147.0837  141.9138  153.3246 H   0  0  0  0  0  0  0  0  0  0  0  0
  152.8660  141.8401  160.2594 H   0  0  0  0  0  0  0  0  0  0  0  0
  151.7185  142.5803  159.1458 H   0  0  0  0  0  0  0  0  0  0  0  0
  153.3833  142.2957  158.6381 H   0  0  0  0  0  0  0  0  0  0  0  0
  152.9987  139.8056  158.8118 H   0  0  0  0  0  0  0  0  0  0  0  0
  151.3459  140.0934  159.3089 H   0  0  0  0  0  0  0  0  0  0  0  0
  148.8106  140.1928  153.1353 H   0  0  0  0  0  0  0  0  0  0  0  0
  148.3939  139.5579  154.7287 H   0  0  0  0  0  0  0  0  0  0  0  0
  145.4242  140.6345  153.3780 H   0  0  0  0  0  0  0  0  0  0  0  0
  146.5246  142.8347  155.4606 H   0  0  0  0  0  0  0  0  0  0  0  0
  146.6997  141.2776  156.2710 H   0  0  0  0  0  0  0  0  0  0  0  0
  148.7192  141.8132  156.7401 H   0  0  0  0  0  0  0  0  0  0  0  0
  148.7197  143.1719  155.8000 H   0  0  0  0  0  0  0  0  0  0  0  0
  1  2  1  0  0  0  0
  1 16  1  0  0  0  0
  1 17  1  0  0  0  0
  1 18  1  0  0  0  0
  2  3  1  0  0  0  0
  2 19  1  0  0  0  0
  2 20  1  0  0  0  0
  3 13  1  0  0  0  0
  3  4  2  0  0  0  0
  4  5  1  0  0  0  0
  5  6  2  0  0  0  0
  6  7  1  0  0  0  0
  6 13  1  0  0  0  0
  7 14  1  0  0  0  0
  7 12  1  0  0  0  0
  7  8  1  0  0  0  0
  8  9  1  0  0  0  0
  8 21  1  0  0  0  0
  8 22  1  0  0  0  0
  9 15  1  0  0  0  0
  9 10  1  0  0  0  0
  9 11  1  0  0  0  0
 10 23  1  0  0  0  0
 11 12  1  0  0  0  0
 11 24  1  0  0  0  0
 11 25  1  0  0  0  0
 12 26  1  0  0  0  0
 12 27  1  0  0  0  0
M  CHG  1  12   1
M  END
> <s_m_source_file>
AV-unprocessed.smi

> <i_m_source_file_index>
42

> <i_lp_mmshare_version>
43012

> <i_f3d_flags>
0

> <s_epik_input>
W0NIM11bQ0gyXWMxbm5jKG8xKVtDQEhdMltDSDJdW0NAQEhdKFtPSF0pW0NIMl1bTkhdMg==

> <s_epik_cmdline>
J2VwaWtfcHl0aG9uJywgJy1waCcsICc3LjAnLCAnLXRuJywgJzgnLCAnLW1hJywgJzIwMCcsICctbWV0YWxfYmluZGluZycsICctaW1hZScsICc8aW5maWxlLm1hZT4nLCAnLW9tYWUnLCAnPG91dGZpbGUubWFlPic=

> <r_lp_tautomer_probability>
1

> <r_epik_Ionization_Penalty>
0.00247063

> <r_epik_Ionization_Penalty_Charging>
0.0024706

> <r_epik_Ionization_Penalty_Neutral>
3.27814e-08

> <r_epik_State_Penalty>
0.00171198

> <r_epik_Charging_Adjusted_Penalty>
0.00418258

> <i_epik_Tot_Q>
1

> <i_epik_Tot_abs_Q>
1

> <r_epik_Metal_State_Penalty>
-0

> <b_epik_Metal_Only>
0

> <s_lp_Force_Field>
OPLS_2005

> <r_lp_Energy>
18.1915

> <b_lp_Chiralities_Consistent>
1

> <s_lp_Variant>
AV-unprocessed.smi:42-1

> <Gold.Version>
5.8.1

> <Gold.Id.Protein>
6NUR|6NUR_protein|mol2

> <Gold.PLP.Fitness>
38.8423

> <Gold.PLP.PLP>
-23.9396

> <Gold.PLP.part.hbond>
-4.0000

> <Gold.PLP.part.metal>
0.0000

> <Gold.PLP.part.buried>
-2.6130

> <Gold.PLP.part.nonpolar>
-17.7264

> <Gold.PLP.part.repulsive>
0.1750

> <Gold.PLP.ligand.clash>
0.0000

> <Gold.PLP.ligand.torsion>
0.0567

> <Gold.PLP.Chemscore.Hbond>
4.9920

> <Gold.PLP.Chemscore.CHOScore>
0.0000

> <Gold.PLP.Chemscore.Metal>
0.0000

> <Gold.Chemscore.Hbonds>
donor molecule, donor type, donor heavy atom, donor atom, acceptor molecule, acceptor atom, score
      L1  H    10    23       P1 10175  0.98
      L1  H    12    27       P1  8028  2.00
      P1  H  7989  7998       L1     5  0.95
      P1  H  7997  8008       L1     4  0.99

> <Gold.PLP.Chemscore.Internal.Correction>
0.0402

> <Gold.Rescore>
     Score         DG    S(hbond)    S(metal)    S(lipo)     H(rot)  DE(clash)    DE(int)     intcor
     16.50     -16.70       3.39        0.00      39.67       1.86       0.04       0.16       ----

> <Gold.Chemscore.Fitness>
16.4962

> <Gold.Chemscore.DG>
-16.6963

> <Gold.Chemscore.ZeroCoef>
-5.4800

> <Gold.Chemscore.Hbond>
3.3915

> <Gold.Chemscore.Metal>
0.0000

> <Gold.Chemscore.Lipo>
39.6727

> <Gold.Chemscore.Internal_Hbond>
0.0000

> <Gold.Chemscore.DEClash>
0.0358

> <Gold.Chemscore.DEInternal>
0.1642

> <Gold.Chemscore.Rot>
1.8567

> <Gold.Chemscore.Internal.Correction>
   9.000000E+99

> <Gold.Chemscore.Hbonds>
donor molecule, donor type, donor heavy atom, donor atom, acceptor molecule, acceptor atom, score
      L1  H    10    23       P1 10175  0.83
      L1  H    12    27       P1  8028  0.96
      P1  H  7989  7998       L1     5  0.20
      P1  H  7997  8008       L1     4  0.80

> <Gold.Chemscore.Hbond.Weighted>
-11.3276

> <Gold.Chemscore.Metal.Weighted>
-0.0000

> <Gold.Chemscore.Lipo.Weighted>
-4.6417

> <Gold.Chemscore.Internal_Hbond.Weighted>
0.0000

> <Gold.Chemscore.DEClash.Weighted>
0.0358

> <Gold.Chemscore.DEInternal.Weighted>
0.1642

> <Gold.Chemscore.Rot.Weighted>
4.7531

> <Gold.Chemscore.Internal.Correction.Weighted>
   9.000000E+99

> <Gold.Protein.RotatedTorsions>
[ 6907 6896 6895 6894 ] final  -30.57 input  -60.11 | X-H torsion
[ 7974 7965 7964 7962 ] final -162.22 input  175.53 | X-H torsion
[ 8008 7997 7996 7995 ] final  -32.92 input   59.86 | X-H torsion
[ 10167 10162 10161 10158 ] final -165.03 input  -65.29 | X-H torsion
[ 10718 10713 10712 10709 ] final   94.59 input   66.30 | X-H torsion
[ 10763 10752 10751 10750 ] final  -87.93 input  -60.55 | X-H torsion
[ 11005 11000 10999 10996 ] final  -15.73 input  -57.11 | X-H torsion

> <Gold.Protein.ActiveResidues>
 VAL166  LYS551  ARG553  GLY616  TRP617  ASP618  TYR619  PRO620  LYS621  CYS622 
 ASP623  PHE694  ASN695  SER759  ASP760  ASP761  ALA762  ILE779  LEU786  VAL792 
 PHE793  MET794  SER795  GLU796  ALA797  LYS798  CYS799  TRP800  GLU811  SER814 

> <Gold.Protein.RotatedAtoms>
  151.1038  134.9987  159.8461 H   0  0  0  0  0  0  0  0  0  0  0  0  # atno 6907 bound_to 6896
  152.5439  134.1918  159.8687 H   0  0  0  0  0  0  0  0  0  0  0  0  # atno 6908 bound_to 6896
  151.1963  133.4593  159.2629 H   0  0  0  0  0  0  0  0  0  0  0  0  # atno 6909 bound_to 6896
  144.7364  140.3284  143.6158 H   0  0  0  0  0  0  0  0  0  0  0  0  # atno 7974 bound_to 7965
  154.4165  140.1724  156.1805 H   0  0  0  0  0  0  0  0  0  0  0  0  # atno 8008 bound_to 7997
  155.9686  140.3387  155.6531 H   0  0  0  0  0  0  0  0  0  0  0  0  # atno 8009 bound_to 7997
  155.6655  140.0705  157.2530 H   0  0  0  0  0  0  0  0  0  0  0  0  # atno 8010 bound_to 7997
  139.6210  144.0625  152.1932 H   0  0  0  0  0  0  0  0  0  0  0  0  # atno 10167 bound_to 10162
  157.6946  131.0517  150.4210 H   0  0  0  0  0  0  0  0  0  0  0  0  # atno 10718 bound_to 10713
  154.6390  135.5395  153.7767 H   0  0  0  0  0  0  0  0  0  0  0  0  # atno 10763 bound_to 10752
  153.0324  135.6454  154.1188 H   0  0  0  0  0  0  0  0  0  0  0  0  # atno 10764 bound_to 10752
  154.1113  135.2926  155.3210 H   0  0  0  0  0  0  0  0  0  0  0  0  # atno 10765 bound_to 10752
  140.7996  133.8224  155.9457 H   0  0  0  0  0  0  0  0  0  0  0  0  # atno 11005 bound_to 11000
  145.7497  139.1790  143.2328 LP  0  0  0  0  0  0  0  0  0  0  0  0  # atno 17320 bound_to 7965
  146.1070  140.7475  142.9521 LP  0  0  0  0  0  0  0  0  0  0  0  0  # atno 17321 bound_to 7965
  140.0267  144.6112  150.7522 LP  0  0  0  0  0  0  0  0  0  0  0  0  # atno 17342 bound_to 10162
  140.7382  143.2775  151.3698 LP  0  0  0  0  0  0  0  0  0  0  0  0  # atno 17343 bound_to 10162
  156.4585  130.4027  149.6591 LP  0  0  0  0  0  0  0  0  0  0  0  0  # atno 17370 bound_to 10713
  156.3715  130.7533  151.2516 LP  0  0  0  0  0  0  0  0  0  0  0  0  # atno 17371 bound_to 10713
  140.9308  134.2024  157.4865 LP  0  0  0  0  0  0  0  0  0  0  0  0  # atno 17394 bound_to 11000
  139.8723  134.9832  156.5187 LP  0  0  0  0  0  0  0  0  0  0  0  0  # atno 17395 bound_to 11000

$$$$
