AV-unprocessed.smi:1304|AV-procd|sdf|5431|dock2
  -GOLD-   22720 4593D 1   1.00000     0.00000
 Structure written by MMmdl.
 48 49  0  0  0  0  0  0  0  0  2 V2000
  147.5901  139.0248  153.9968 C   0  0  0  0  0  0  0  0  0  0  0  0
  147.8185  139.6136  155.4007 C   0  0  0  0  0  0  0  0  0  0  0  0
  149.1660  140.3734  155.5989 C   0  0  1  0  0  0  0  0  0  0  0  0
  149.3020  141.3905  154.4346 C   0  0  0  0  0  0  0  0  0  0  0  0
  149.1238  141.1544  156.9458 C   0  0  0  0  0  0  0  0  0  0  0  0
  150.4118  141.7416  157.3038 N   0  0  0  0  0  0  0  0  0  0  0  0
  150.5883  142.6469  158.2761 C   0  0  0  0  0  0  0  0  0  0  0  0
  149.6649  143.0690  158.9735 O   0  0  0  0  0  0  0  0  0  0  0  0
  152.0307  143.1298  158.4884 C   0  0  0  0  0  0  0  0  0  0  0  0
  152.5184  142.9406  159.8650 N   0  0  0  0  0  0  0  0  0  0  0  0
  153.3624  141.8365  160.0983 C   0  0  0  0  0  0  0  0  0  0  0  0
  153.8577  141.5660  161.3163 C   0  0  0  0  0  0  0  0  0  0  0  0
  153.5042  142.4436  162.4069 C   0  0  0  0  0  0  0  0  0  0  0  0
  152.6950  143.5006  162.1956 C   0  0  0  0  0  0  0  0  0  0  0  0
  152.1499  143.7991  160.8659 C   0  0  0  0  0  0  0  0  0  0  0  0
  151.4070  144.7602  160.6640 O   0  0  0  0  0  0  0  0  0  0  0  0
  150.3175  139.3981  155.5828 N   0  3  0  0  0  0  0  0  0  0  0  0
  150.3261  138.3743  156.6664 C   0  0  0  0  0  0  0  0  0  0  0  0
  151.6402  137.5748  156.6444 C   0  0  0  0  0  0  0  0  0  0  0  0
  151.8182  136.9706  155.3711 O   0  0  0  0  0  0  0  0  0  0  0  0
  151.9023  137.9405  154.3368 C   0  0  0  0  0  0  0  0  0  0  0  0
  150.5897  138.7373  154.2747 C   0  0  0  0  0  0  0  0  0  0  0  0
  146.6259  138.5185  153.9495 H   0  0  0  0  0  0  0  0  0  0  0  0
  148.3526  138.2917  153.7337 H   0  0  0  0  0  0  0  0  0  0  0  0
  147.5857  139.7976  153.2284 H   0  0  0  0  0  0  0  0  0  0  0  0
  146.9852  140.2840  155.6140 H   0  0  0  0  0  0  0  0  0  0  0  0
  147.7168  138.8172  156.1376 H   0  0  0  0  0  0  0  0  0  0  0  0
  148.3816  141.9549  154.2808 H   0  0  0  0  0  0  0  0  0  0  0  0
  149.5372  140.8983  153.4907 H   0  0  0  0  0  0  0  0  0  0  0  0
  150.0822  142.1278  154.6255 H   0  0  0  0  0  0  0  0  0  0  0  0
  148.4016  141.9699  156.9029 H   0  0  0  0  0  0  0  0  0  0  0  0
  148.8061  140.4961  157.7552 H   0  0  0  0  0  0  0  0  0  0  0  0
  151.2189  141.4441  156.7751 H   0  0  0  0  0  0  0  0  0  0  0  0
  152.6748  142.6028  157.7831 H   0  0  0  0  0  0  0  0  0  0  0  0
  152.0989  144.1818  158.2049 H   0  0  0  0  0  0  0  0  0  0  0  0
  153.5721  141.2261  159.2321 H   0  0  0  0  0  0  0  0  0  0  0  0
  154.4995  140.7123  161.4769 H   0  0  0  0  0  0  0  0  0  0  0  0
  153.8886  142.2500  163.3976 H   0  0  0  0  0  0  0  0  0  0  0  0
  152.4395  144.1444  163.0246 H   0  0  0  0  0  0  0  0  0  0  0  0
  150.2384  138.8290  157.6513 H   0  0  0  0  0  0  0  0  0  0  0  0
  149.4829  137.6933  156.5487 H   0  0  0  0  0  0  0  0  0  0  0  0
  152.4907  138.2178  156.8773 H   0  0  0  0  0  0  0  0  0  0  0  0
  151.6163  136.7933  157.4040 H   0  0  0  0  0  0  0  0  0  0  0  0
  152.7545  138.6014  154.5040 H   0  0  0  0  0  0  0  0  0  0  0  0
  152.0761  137.4297  153.3896 H   0  0  0  0  0  0  0  0  0  0  0  0
  149.7764  138.0589  154.0164 H   0  0  0  0  0  0  0  0  0  0  0  0
  150.6720  139.4628  153.4679 H   0  0  0  0  0  0  0  0  0  0  0  0
  151.1303  139.9701  155.7628 H   0  0  0  0  0  0  0  0  0  0  0  0
  1  2  1  0  0  0  0
  1 23  1  0  0  0  0
  1 24  1  0  0  0  0
  1 25  1  0  0  0  0
  2  3  1  0  0  0  0
  2 26  1  0  0  0  0
  2 27  1  0  0  0  0
  3  4  1  0  0  0  0
  3  5  1  0  0  0  0
  3 17  1  0  0  0  0
  4 28  1  0  0  0  0
  4 29  1  0  0  0  0
  4 30  1  0  0  0  0
  5  6  1  0  0  0  0
  5 31  1  0  0  0  0
  5 32  1  0  0  0  0
  6  7  1  0  0  0  0
  6 33  1  0  0  0  0
  7  8  2  0  0  0  0
  7  9  1  0  0  0  0
  9 10  1  0  0  0  0
  9 34  1  0  0  0  0
  9 35  1  0  0  0  0
 10 15  1  0  0  0  0
 10 11  1  0  0  0  0
 11 12  2  0  0  0  0
 11 36  1  0  0  0  0
 12 13  1  0  0  0  0
 12 37  1  0  0  0  0
 13 14  2  0  0  0  0
 13 38  1  0  0  0  0
 14 15  1  0  0  0  0
 14 39  1  0  0  0  0
 15 16  2  0  0  0  0
 17 22  1  0  0  0  0
 17 18  1  0  0  0  0
 17 48  1  0  0  0  0
 18 19  1  0  0  0  0
 18 40  1  0  0  0  0
 18 41  1  0  0  0  0
 19 20  1  0  0  0  0
 19 42  1  0  0  0  0
 19 43  1  0  0  0  0
 20 21  1  0  0  0  0
 21 22  1  0  0  0  0
 21 44  1  0  0  0  0
 21 45  1  0  0  0  0
 22 46  1  0  0  0  0
 22 47  1  0  0  0  0
M  CHG  1  17   1
M  END
> <s_m_source_file>
AV-unprocessed.smi

> <i_m_source_file_index>
1304

> <i_lp_mmshare_version>
43012

> <i_f3d_flags>
0

> <s_epik_input>
W0NIMl0xW0NIMl1PW0NIMl1bQ0gyXU4xW0NAQF0oW0NIM10pKFtDSDJdW0NIM10pW0NIMl1bTkhdQyg9TylbQ0gyXW4yW2NIXVtjSF1bY0hdW2NIXWMyPU8=

> <s_epik_cmdline>
J2VwaWtfcHl0aG9uJywgJy1waCcsICc3LjAnLCAnLXRuJywgJzgnLCAnLW1hJywgJzIwMCcsICctbWV0YWxfYmluZGluZycsICctaW1hZScsICc8aW5maWxlLm1hZT4nLCAnLW9tYWUnLCAnPG91dGZpbGUubWFlPic=

> <r_lp_tautomer_probability>
1

> <r_epik_Ionization_Penalty>
0.519658

> <r_epik_Ionization_Penalty_Charging>
0.519658

> <r_epik_Ionization_Penalty_Neutral>
8.70177e-08

> <r_epik_State_Penalty>
0.527569

> <r_epik_Charging_Adjusted_Penalty>
1.04723

> <i_epik_Tot_Q>
1

> <i_epik_Tot_abs_Q>
1

> <r_epik_Metal_State_Penalty>
0.527613

> <b_epik_Metal_Only>
0

> <s_lp_Force_Field>
OPLS_2005

> <r_lp_Energy>
38.623

> <b_lp_Chiralities_Consistent>
1

> <s_lp_Variant>
AV-unprocessed.smi:1304-3

> <Gold.Version>
5.8.1

> <Gold.Id.Protein>
6NUR|6NUR_protein|mol2

> <Gold.PLP.Fitness>
46.1755

> <Gold.PLP.PLP>
-44.0956

> <Gold.PLP.part.hbond>
-1.6571

> <Gold.PLP.part.metal>
0.0000

> <Gold.PLP.part.buried>
-5.6861

> <Gold.PLP.part.nonpolar>
-35.8958

> <Gold.PLP.part.repulsive>
0.4567

> <Gold.PLP.ligand.clash>
0.0000

> <Gold.PLP.ligand.torsion>
0.5557

> <Gold.PLP.Chemscore.Hbond>
1.0000

> <Gold.PLP.Chemscore.CHOScore>
0.0000

> <Gold.PLP.Chemscore.Metal>
0.0000

> <Gold.Chemscore.Hbonds>
donor molecule, donor type, donor heavy atom, donor atom, acceptor molecule, acceptor atom, score
      P1  H 10752 10763       L1    20  1.00

> <Gold.PLP.Chemscore.Internal.Correction>
0.1913

> <Gold.Rescore>
     Score         DG    S(hbond)    S(metal)    S(lipo)     H(rot)  DE(clash)    DE(int)     intcor
     14.49     -15.51       0.84        0.00     106.16       2.03       0.05       0.97       ----

> <Gold.Chemscore.Fitness>
14.4876

> <Gold.Chemscore.DG>
-15.5116

> <Gold.Chemscore.ZeroCoef>
-5.4800

> <Gold.Chemscore.Hbond>
0.8404

> <Gold.Chemscore.Metal>
0.0000

> <Gold.Chemscore.Lipo>
106.1621

> <Gold.Chemscore.Internal_Hbond>
0.0000

> <Gold.Chemscore.DEClash>
0.0539

> <Gold.Chemscore.DEInternal>
0.9701

> <Gold.Chemscore.Rot>
2.0298

> <Gold.Chemscore.Internal.Correction>
   9.000000E+99

> <Gold.Chemscore.Hbonds>
donor molecule, donor type, donor heavy atom, donor atom, acceptor molecule, acceptor atom, score
      P1  H 10752 10763       L1    20  0.34

> <Gold.Chemscore.Hbond.Weighted>
-2.8068

> <Gold.Chemscore.Metal.Weighted>
-0.0000

> <Gold.Chemscore.Lipo.Weighted>
-12.4210

> <Gold.Chemscore.Internal_Hbond.Weighted>
0.0000

> <Gold.Chemscore.DEClash.Weighted>
0.0539

> <Gold.Chemscore.DEInternal.Weighted>
0.9701

> <Gold.Chemscore.Rot.Weighted>
5.1962

> <Gold.Chemscore.Internal.Correction.Weighted>
   9.000000E+99

> <Gold.Protein.RotatedTorsions>
[ 6907 6896 6895 6894 ] final  160.71 input  -60.11 | X-H torsion
[ 7974 7965 7964 7962 ] final   95.66 input  175.53 | X-H torsion
[ 8008 7997 7996 7995 ] final   66.27 input   59.86 | X-H torsion
[ 10167 10162 10161 10158 ] final  -42.43 input  -65.29 | X-H torsion
[ 10718 10713 10712 10709 ] final -136.54 input   66.30 | X-H torsion
[ 10763 10752 10751 10750 ] final   66.26 input  -60.55 | X-H torsion
[ 11005 11000 10999 10996 ] final   89.88 input  -57.11 | X-H torsion

> <Gold.Protein.ActiveResidues>
 VAL166  LYS551  ARG553  GLY616  TRP617  ASP618  TYR619  PRO620  LYS621  CYS622 
 ASP623  PHE694  ASN695  SER759  ASP760  ASP761  ALA762  ILE779  LEU786  VAL792 
 PHE793  MET794  SER795  GLU796  ALA797  LYS798  CYS799  TRP800  GLU811  SER814 

> <Gold.Protein.RotatedAtoms>
  151.9665  133.3712  159.4054 H   0  0  0  0  0  0  0  0  0  0  0  0  # atno 6907 bound_to 6896
  150.6956  134.4185  159.5203 H   0  0  0  0  0  0  0  0  0  0  0  0  # atno 6908 bound_to 6896
  152.1882  134.8694  160.0571 H   0  0  0  0  0  0  0  0  0  0  0  0  # atno 6909 bound_to 6896
  145.4492  139.2294  143.3049 H   0  0  0  0  0  0  0  0  0  0  0  0  # atno 7974 bound_to 7965
  155.6747  140.3497  155.4832 H   0  0  0  0  0  0  0  0  0  0  0  0  # atno 8008 bound_to 7997
  155.9658  140.1146  157.0879 H   0  0  0  0  0  0  0  0  0  0  0  0  # atno 8009 bound_to 7997
  154.4154  140.1167  156.5226 H   0  0  0  0  0  0  0  0  0  0  0  0  # atno 8010 bound_to 7997
  140.6969  143.3038  151.3208 H   0  0  0  0  0  0  0  0  0  0  0  0  # atno 10167 bound_to 10162
  156.2782  130.7305  151.1294 H   0  0  0  0  0  0  0  0  0  0  0  0  # atno 10718 bound_to 10713
  153.0132  135.5327  154.6796 H   0  0  0  0  0  0  0  0  0  0  0  0  # atno 10763 bound_to 10752
  154.5959  135.2863  155.0588 H   0  0  0  0  0  0  0  0  0  0  0  0  # atno 10764 bound_to 10752
  154.1663  135.6539  153.5051 H   0  0  0  0  0  0  0  0  0  0  0  0  # atno 10765 bound_to 10752
  139.8866  134.8579  156.3205 H   0  0  0  0  0  0  0  0  0  0  0  0  # atno 11005 bound_to 11000
  146.2514  140.5249  142.8892 LP  0  0  0  0  0  0  0  0  0  0  0  0  # atno 17320 bound_to 7965
  144.8072  140.6321  143.6439 LP  0  0  0  0  0  0  0  0  0  0  0  0  # atno 17321 bound_to 7965
  139.6436  144.0492  152.2574 LP  0  0  0  0  0  0  0  0  0  0  0  0  # atno 17342 bound_to 10162
  140.0006  144.6296  150.7733 LP  0  0  0  0  0  0  0  0  0  0  0  0  # atno 17343 bound_to 10162
  157.7306  131.0615  150.5718 LP  0  0  0  0  0  0  0  0  0  0  0  0  # atno 17370 bound_to 10713
  156.5821  130.4307  149.5973 LP  0  0  0  0  0  0  0  0  0  0  0  0  # atno 17371 bound_to 10713
  140.9789  133.7279  156.0643 LP  0  0  0  0  0  0  0  0  0  0  0  0  # atno 17394 bound_to 11000
  140.7774  134.3764  157.5495 LP  0  0  0  0  0  0  0  0  0  0  0  0  # atno 17395 bound_to 11000

$$$$
