AV-unprocessed.smi:1876|AV-procd|sdf|7621|dock9
  -GOLD-   22720 9353D 1   1.00000     0.00000
 Structure written by MMmdl.
 31 32  0  0  0  0  0  0  0  0  1 V2000
  149.2997  141.4276  154.5181 C   0  0  0  0  0  0  0  0  0  0  0  0
  148.2806  140.3654  154.2857 C   0  0  0  0  0  0  0  0  0  0  0  0
  147.3805  140.1429  153.2817 C   0  0  0  0  0  0  0  0  0  0  0  0
  146.7282  138.9509  153.6952 C   0  0  0  0  0  0  0  0  0  0  0  0
  145.7013  138.3713  152.9069 N   0  0  0  0  0  0  0  0  0  0  0  0
  145.5024  137.0666  152.6530 C   0  0  0  0  0  0  0  0  0  0  0  0
  146.1967  136.1460  153.0854 O   0  0  0  0  0  0  0  0  0  0  0  0
  144.4401  136.8817  151.8557 N   0  0  0  0  0  0  0  0  0  0  0  0
  143.9777  135.5921  151.3462 C   0  0  1  0  0  0  0  0  0  0  0  0
  145.0718  134.9031  150.5091 C   0  0  0  0  0  0  0  0  0  0  0  0
  144.6390  133.4818  150.1381 C   0  0  0  0  0  0  0  0  0  0  0  0
  144.3404  132.6613  151.4035 C   0  0  0  0  0  0  0  0  0  0  0  0
  143.5361  133.3865  152.3886 N   0  0  0  0  0  0  0  0  0  0  0  0
  143.3866  134.7206  152.4689 C   0  0  0  0  0  0  0  0  0  0  0  0
  142.7612  135.2401  153.3920 O   0  0  0  0  0  0  0  0  0  0  0  0
  147.1876  138.4887  154.8481 N   0  0  0  0  0  0  0  0  0  0  0  0
  148.1853  139.3924  155.2320 O   0  0  0  0  0  0  0  0  0  0  0  0
  149.1854  142.2412  153.8019 H   0  0  0  0  0  0  0  0  0  0  0  0
  150.3072  141.0247  154.4145 H   0  0  0  0  0  0  0  0  0  0  0  0
  149.2029  141.8442  155.5208 H   0  0  0  0  0  0  0  0  0  0  0  0
  147.2192  140.7377  152.3948 H   0  0  0  0  0  0  0  0  0  0  0  0
  145.0552  139.0205  152.4830 H   0  0  0  0  0  0  0  0  0  0  0  0
  143.9290  137.6956  151.5468 H   0  0  0  0  0  0  0  0  0  0  0  0
  143.1318  135.7805  150.6823 H   0  0  0  0  0  0  0  0  0  0  0  0
  145.2754  135.4765  149.6041 H   0  0  0  0  0  0  0  0  0  0  0  0
  146.0061  134.8644  151.0714 H   0  0  0  0  0  0  0  0  0  0  0  0
  143.7472  133.5270  149.5117 H   0  0  0  0  0  0  0  0  0  0  0  0
  145.4108  132.9908  149.5449 H   0  0  0  0  0  0  0  0  0  0  0  0
  143.8324  131.7335  151.1391 H   0  0  0  0  0  0  0  0  0  0  0  0
  145.2772  132.3786  151.8848 H   0  0  0  0  0  0  0  0  0  0  0  0
  143.1071  132.8291  153.1132 H   0  0  0  0  0  0  0  0  0  0  0  0
  1  2  1  0  0  0  0
  1 18  1  0  0  0  0
  1 19  1  0  0  0  0
  1 20  1  0  0  0  0
  2 17  1  0  0  0  0
  2  3  2  0  0  0  0
  3  4  1  0  0  0  0
  3 21  1  0  0  0  0
  4  5  1  0  0  0  0
  4 16  2  0  0  0  0
  5  6  1  0  0  0  0
  5 22  1  0  0  0  0
  6  7  2  0  0  0  0
  6  8  1  0  0  0  0
  8  9  1  0  0  0  0
  8 23  1  0  0  0  0
  9 14  1  0  0  0  0
  9 10  1  0  0  0  0
  9 24  1  0  0  0  0
 10 11  1  0  0  0  0
 10 25  1  0  0  0  0
 10 26  1  0  0  0  0
 11 12  1  0  0  0  0
 11 27  1  0  0  0  0
 11 28  1  0  0  0  0
 12 13  1  0  0  0  0
 12 29  1  0  0  0  0
 12 30  1  0  0  0  0
 13 14  1  0  0  0  0
 13 31  1  0  0  0  0
 14 15  2  0  0  0  0
 16 17  1  0  0  0  0
M  END
> <s_m_source_file>
AV-unprocessed.smi

> <i_m_source_file_index>
1876

> <i_lp_mmshare_version>
43012

> <i_f3d_flags>
0

> <s_epik_input>
W0NIM11jMVtjSF1jKG5vMSlbTkhdQyg9TylbTkhdW0NAQEhdMltDSDJdW0NIMl1bQ0gyXVtOSF1DMj1P

> <s_epik_cmdline>
J2VwaWtfcHl0aG9uJywgJy1waCcsICc3LjAnLCAnLXRuJywgJzgnLCAnLW1hJywgJzIwMCcsICctbWV0YWxfYmluZGluZycsICctaW1hZScsICc8aW5maWxlLm1hZT4nLCAnLW9tYWUnLCAnPG91dGZpbGUubWFlPic=

> <r_lp_tautomer_probability>
1

> <r_epik_Ionization_Penalty>
2.33177e-05

> <r_epik_Ionization_Penalty_Charging>
0

> <r_epik_Ionization_Penalty_Neutral>
2.33177e-05

> <r_epik_State_Penalty>
-0

> <r_epik_Charging_Adjusted_Penalty>
0

> <i_epik_Tot_Q>
0

> <i_epik_Tot_abs_Q>
0

> <r_epik_Metal_State_Penalty>
-0

> <b_epik_Metal_Only>
0

> <s_lp_Force_Field>
OPLS_2005

> <r_lp_Energy>
6.99083

> <b_lp_Chiralities_Consistent>
1

> <s_lp_Variant>
AV-unprocessed.smi:1876-2

> <Gold.Version>
5.8.1

> <Gold.Id.Protein>
6NUR|6NUR_protein|mol2

> <Gold.PLP.Fitness>
32.6017

> <Gold.PLP.PLP>
-25.0550

> <Gold.PLP.part.hbond>
-3.0000

> <Gold.PLP.part.metal>
0.0000

> <Gold.PLP.part.buried>
-2.9216

> <Gold.PLP.part.nonpolar>
-19.6524

> <Gold.PLP.part.repulsive>
0.3928

> <Gold.PLP.ligand.clash>
0.0000

> <Gold.PLP.ligand.torsion>
0.3637

> <Gold.PLP.Chemscore.Hbond>
2.7440

> <Gold.PLP.Chemscore.CHOScore>
0.0000

> <Gold.PLP.Chemscore.Metal>
0.0000

> <Gold.Chemscore.Hbonds>
donor molecule, donor type, donor heavy atom, donor atom, acceptor molecule, acceptor atom, score
      L1  H     5    22       P1 10175  1.00
      L1  H     8    23       P1 10171  0.64
      L1  H    13    31       P1 10957  1.00

> <Gold.PLP.Chemscore.Internal.Correction>
0.0421

> <Gold.Rescore>
     Score         DG    S(hbond)    S(metal)    S(lipo)     H(rot)  DE(clash)    DE(int)     intcor
     16.55     -17.06       2.65        0.00      45.16       1.00       0.08       0.42       ----

> <Gold.Chemscore.Fitness>
16.5545

> <Gold.Chemscore.DG>
-17.0554

> <Gold.Chemscore.ZeroCoef>
-5.4800

> <Gold.Chemscore.Hbond>
2.6504

> <Gold.Chemscore.Metal>
0.0000

> <Gold.Chemscore.Lipo>
45.1551

> <Gold.Chemscore.Internal_Hbond>
0.0000

> <Gold.Chemscore.DEClash>
0.0782

> <Gold.Chemscore.DEInternal>
0.4227

> <Gold.Chemscore.Rot>
1.0000

> <Gold.Chemscore.Internal.Correction>
   9.000000E+99

> <Gold.Chemscore.Hbonds>
donor molecule, donor type, donor heavy atom, donor atom, acceptor molecule, acceptor atom, score
      L1  H     5    22       P1 10175  0.95
      L1  H     8    23       P1 10171  0.63
      L1  H    13    31       P1 10957  0.43

> <Gold.Chemscore.Hbond.Weighted>
-8.8522

> <Gold.Chemscore.Metal.Weighted>
-0.0000

> <Gold.Chemscore.Lipo.Weighted>
-5.2831

> <Gold.Chemscore.Internal_Hbond.Weighted>
0.0000

> <Gold.Chemscore.DEClash.Weighted>
0.0782

> <Gold.Chemscore.DEInternal.Weighted>
0.4227

> <Gold.Chemscore.Rot.Weighted>
2.5600

> <Gold.Chemscore.Internal.Correction.Weighted>
   9.000000E+99

> <Gold.Protein.RotatedTorsions>
[ 6907 6896 6895 6894 ] final   -1.79 input  -60.11 | X-H torsion
[ 7974 7965 7964 7962 ] final   -3.46 input  175.53 | X-H torsion
[ 8008 7997 7996 7995 ] final    3.89 input   59.86 | X-H torsion
[ 10167 10162 10161 10158 ] final  134.59 input  -65.29 | X-H torsion
[ 10718 10713 10712 10709 ] final  -73.70 input   66.30 | X-H torsion
[ 10763 10752 10751 10750 ] final  -42.65 input  -60.55 | X-H torsion
[ 11005 11000 10999 10996 ] final   29.94 input  -57.11 | X-H torsion

> <Gold.Protein.ActiveResidues>
 VAL166  LYS551  ARG553  GLY616  TRP617  ASP618  TYR619  PRO620  LYS621  CYS622 
 ASP623  PHE694  ASN695  SER759  ASP760  ASP761  ALA762  ILE779  LEU786  VAL792 
 PHE793  MET794  SER795  GLU796  ALA797  LYS798  CYS799  TRP800  GLU811  SER814 

> <Gold.Protein.RotatedAtoms>
  151.5403  135.1068  159.9924 H   0  0  0  0  0  0  0  0  0  0  0  0  # atno 6907 bound_to 6896
  152.4538  133.7678  159.6793 H   0  0  0  0  0  0  0  0  0  0  0  0  # atno 6908 bound_to 6896
  150.8475  133.7772  159.3062 H   0  0  0  0  0  0  0  0  0  0  0  0  # atno 6909 bound_to 6896
  146.2389  140.1725  142.8332 H   0  0  0  0  0  0  0  0  0  0  0  0  # atno 7974 bound_to 7965
  154.7092  140.2689  155.6645 H   0  0  0  0  0  0  0  0  0  0  0  0  # atno 8008 bound_to 7997
  156.2790  140.2756  156.1653 H   0  0  0  0  0  0  0  0  0  0  0  0  # atno 8009 bound_to 7997
  155.0658  140.0371  157.2582 H   0  0  0  0  0  0  0  0  0  0  0  0  # atno 8010 bound_to 7997
  139.5250  144.6560  151.5161 H   0  0  0  0  0  0  0  0  0  0  0  0  # atno 10167 bound_to 10162
  156.0270  130.4400  150.2781 H   0  0  0  0  0  0  0  0  0  0  0  0  # atno 10718 bound_to 10713
  153.9826  135.6715  153.4750 H   0  0  0  0  0  0  0  0  0  0  0  0  # atno 10763 bound_to 10752
  153.0741  135.4958  154.8364 H   0  0  0  0  0  0  0  0  0  0  0  0  # atno 10764 bound_to 10752
  154.7155  135.3106  154.9091 H   0  0  0  0  0  0  0  0  0  0  0  0  # atno 10765 bound_to 10752
  140.2996  134.2771  155.7757 H   0  0  0  0  0  0  0  0  0  0  0  0  # atno 11005 bound_to 11000
  145.0000  140.8623  143.5287 LP  0  0  0  0  0  0  0  0  0  0  0  0  # atno 17320 bound_to 7965
  145.1743  139.2387  143.5326 LP  0  0  0  0  0  0  0  0  0  0  0  0  # atno 17321 bound_to 7965
  140.6386  143.8935  150.6670 LP  0  0  0  0  0  0  0  0  0  0  0  0  # atno 17342 bound_to 10162
  140.2262  143.3771  152.1603 LP  0  0  0  0  0  0  0  0  0  0  0  0  # atno 17343 bound_to 10162
  157.0884  131.0163  151.3131 LP  0  0  0  0  0  0  0  0  0  0  0  0  # atno 17370 bound_to 10713
  157.4873  130.7801  149.7472 LP  0  0  0  0  0  0  0  0  0  0  0  0  # atno 17371 bound_to 10713
  141.2130  133.7638  156.9747 LP  0  0  0  0  0  0  0  0  0  0  0  0  # atno 17394 bound_to 11000
  140.1121  134.9470  157.2080 LP  0  0  0  0  0  0  0  0  0  0  0  0  # atno 17395 bound_to 11000

$$$$
