AV-unprocessed.smi:152|AV-procd|sdf|1248|dock8
  -GOLD-   2262018473D 1   1.00000     0.00000
 Structure written by MMmdl.
 58 61  0  0  0  0  0  0  0  0  2 V2000
  146.7027  133.4631  151.0794 C   0  0  0  0  0  0  0  0  0  0  0  0
  145.8620  132.1894  151.2490 C   0  0  0  0  0  0  0  0  0  0  0  0
  146.6445  131.0691  151.8280 N   0  3  2  0  0  0  0  0  0  0  0  0
  145.8792  129.8202  152.0374 C   0  0  0  0  0  0  0  0  0  0  0  0
  146.5706  129.0706  153.1850 C   0  0  0  0  0  0  0  0  0  0  0  0
  147.7975  129.9156  153.5297 C   0  0  0  0  0  0  0  0  0  0  0  0
  147.4252  131.3272  153.0630 C   0  0  2  0  0  0  0  0  0  0  0  0
  146.6286  132.1076  154.1442 C   0  0  0  0  0  0  0  0  0  0  0  0
  147.1841  131.9577  155.4889 N   0  0  0  0  0  0  0  0  0  0  0  0
  146.2500  132.0898  156.5981 C   0  0  0  0  0  0  0  0  0  0  0  0
  148.3721  132.5545  155.7496 C   0  0  0  0  0  0  0  0  0  0  0  0
  149.4506  131.8064  156.1037 N   0  0  0  0  0  0  0  0  0  0  0  0
  150.6223  132.3982  156.3554 C   0  0  0  0  0  0  0  0  0  0  0  0
  150.9276  133.6968  156.3126 N   0  0  0  0  0  0  0  0  0  0  0  0
  149.8481  134.4493  155.9534 C   0  0  0  0  0  0  0  0  0  0  0  0
  148.5446  133.9616  155.6582 C   0  0  0  0  0  0  0  0  0  0  0  0
  147.6976  135.0177  155.3491 N   0  0  0  0  0  0  0  0  0  0  0  0
  148.4583  136.0728  155.4546 C   0  0  0  0  0  0  0  0  0  0  0  0
  149.7677  135.8227  155.8015 N   0  0  0  0  0  0  0  0  0  0  0  0
  150.8228  136.8072  155.9870 C   0  0  0  0  0  0  0  0  0  0  0  0
  151.2675  137.5205  154.6803 C   0  0  0  0  0  0  0  0  0  0  0  0
  151.7107  136.5234  153.7789 O   0  0  0  0  0  0  0  0  0  0  0  0
  150.1469  138.3154  153.9765 C   0  0  0  0  0  0  0  0  0  0  0  0
  149.7963  139.5932  154.7577 C   0  0  0  0  0  0  0  0  0  0  0  0
  150.9598  140.3997  154.9091 O   0  0  0  0  0  0  0  0  0  0  0  0
  151.9944  139.7615  155.6510 C   0  0  0  0  0  0  0  0  0  0  0  0
  152.4491  138.4777  154.9315 C   0  0  0  0  0  0  0  0  0  0  0  0
  146.1219  134.2449  150.5900 H   0  0  0  0  0  0  0  0  0  0  0  0
  147.5854  133.2745  150.4677 H   0  0  0  0  0  0  0  0  0  0  0  0
  147.0379  133.8587  152.0381 H   0  0  0  0  0  0  0  0  0  0  0  0
  144.9697  132.3897  151.8423 H   0  0  0  0  0  0  0  0  0  0  0  0
  145.5061  131.8784  150.2660 H   0  0  0  0  0  0  0  0  0  0  0  0
  144.8455  130.0416  152.3077 H   0  0  0  0  0  0  0  0  0  0  0  0
  145.8657  129.2343  151.1178 H   0  0  0  0  0  0  0  0  0  0  0  0
  145.9021  129.0128  154.0451 H   0  0  0  0  0  0  0  0  0  0  0  0
  146.8434  128.0510  152.9107 H   0  0  0  0  0  0  0  0  0  0  0  0
  148.0699  129.8558  154.5840 H   0  0  0  0  0  0  0  0  0  0  0  0
  148.6532  129.5594  152.9545 H   0  0  0  0  0  0  0  0  0  0  0  0
  148.3256  131.8790  152.7923 H   0  0  0  0  0  0  0  0  0  0  0  0
  146.5918  133.1718  153.9121 H   0  0  0  0  0  0  0  0  0  0  0  0
  145.5926  131.7672  154.1545 H   0  0  0  0  0  0  0  0  0  0  0  0
  146.7076  131.7993  157.5444 H   0  0  0  0  0  0  0  0  0  0  0  0
  145.3815  131.4502  156.4408 H   0  0  0  0  0  0  0  0  0  0  0  0
  145.9030  133.1199  156.6863 H   0  0  0  0  0  0  0  0  0  0  0  0
  151.4310  131.7371  156.6296 H   0  0  0  0  0  0  0  0  0  0  0  0
  148.0838  137.0701  155.2748 H   0  0  0  0  0  0  0  0  0  0  0  0
  150.4707  137.5296  156.7226 H   0  0  0  0  0  0  0  0  0  0  0  0
  151.6752  136.3076  156.4491 H   0  0  0  0  0  0  0  0  0  0  0  0
  151.4545  136.7728  152.9042 H   0  0  0  0  0  0  0  0  0  0  0  0
  150.4803  138.6096  152.9800 H   0  0  0  0  0  0  0  0  0  0  0  0
  149.2582  137.7049  153.8201 H   0  0  0  0  0  0  0  0  0  0  0  0
  149.0430  140.1649  154.2157 H   0  0  0  0  0  0  0  0  0  0  0  0
  149.3708  139.3593  155.7342 H   0  0  0  0  0  0  0  0  0  0  0  0
  152.8331  140.4517  155.7423 H   0  0  0  0  0  0  0  0  0  0  0  0
  151.6530  139.5518  156.6650 H   0  0  0  0  0  0  0  0  0  0  0  0
  153.2331  137.9809  155.5044 H   0  0  0  0  0  0  0  0  0  0  0  0
  152.9004  138.7620  153.9794 H   0  0  0  0  0  0  0  0  0  0  0  0
  147.3385  130.8297  151.1343 H   0  0  0  0  0  0  0  0  0  0  0  0
  1  2  1  0  0  0  0
  1 28  1  0  0  0  0
  1 29  1  0  0  0  0
  1 30  1  0  0  0  0
  2  3  1  0  0  0  0
  2 31  1  0  0  0  0
  2 32  1  0  0  0  0
  3  7  1  0  0  0  0
  3  4  1  0  0  0  0
  3 58  1  0  0  0  0
  4  5  1  0  0  0  0
  4 33  1  0  0  0  0
  4 34  1  0  0  0  0
  5  6  1  0  0  0  0
  5 35  1  0  0  0  0
  5 36  1  0  0  0  0
  6  7  1  0  0  0  0
  6 37  1  0  0  0  0
  6 38  1  0  0  0  0
  7  8  1  0  0  0  0
  7 39  1  0  0  0  0
  8  9  1  0  0  0  0
  8 40  1  0  0  0  0
  8 41  1  0  0  0  0
  9 10  1  0  0  0  0
  9 11  1  0  0  0  0
 10 42  1  0  0  0  0
 10 43  1  0  0  0  0
 10 44  1  0  0  0  0
 11 16  1  0  0  0  0
 11 12  2  0  0  0  0
 12 13  1  0  0  0  0
 13 14  2  0  0  0  0
 13 45  1  0  0  0  0
 14 15  1  0  0  0  0
 15 19  1  0  0  0  0
 15 16  2  0  0  0  0
 16 17  1  0  0  0  0
 17 18  2  0  0  0  0
 18 19  1  0  0  0  0
 18 46  1  0  0  0  0
 19 20  1  0  0  0  0
 20 21  1  0  0  0  0
 20 47  1  0  0  0  0
 20 48  1  0  0  0  0
 21 27  1  0  0  0  0
 21 22  1  0  0  0  0
 21 23  1  0  0  0  0
 22 49  1  0  0  0  0
 23 24  1  0  0  0  0
 23 50  1  0  0  0  0
 23 51  1  0  0  0  0
 24 25  1  0  0  0  0
 24 52  1  0  0  0  0
 24 53  1  0  0  0  0
 25 26  1  0  0  0  0
 26 27  1  0  0  0  0
 26 54  1  0  0  0  0
 26 55  1  0  0  0  0
 27 56  1  0  0  0  0
 27 57  1  0  0  0  0
M  CHG  1   3   1
M  END
> <s_m_source_file>
AV-unprocessed.smi

> <i_m_source_file_index>
152

> <i_lp_mmshare_version>
43012

> <i_f3d_flags>
0

> <s_epik_input>
W0NIM11bQ0gyXU4xW0NIMl1bQ0gyXVtDSDJdW0NASF0xW0NIMl1OKFtDSDNdKWMobltjSF1uMiljKGMyMyluW2NIXW4zW0NIMl1DNChbT0hdKVtDSDJdW0NIMl1PW0NIMl1bQ0gyXTQ=

> <s_epik_cmdline>
J2VwaWtfcHl0aG9uJywgJy1waCcsICc3LjAnLCAnLXRuJywgJzgnLCAnLW1hJywgJzIwMCcsICctbWV0YWxfYmluZGluZycsICctaW1hZScsICc8aW5maWxlLm1hZT4nLCAnLW9tYWUnLCAnPG91dGZpbGUubWFlPic=

> <r_lp_tautomer_probability>
1

> <r_epik_Ionization_Penalty>
0.00152183

> <r_epik_Ionization_Penalty_Charging>
0.00112577

> <r_epik_Ionization_Penalty_Neutral>
0.000396066

> <r_epik_State_Penalty>
-0

> <r_epik_Charging_Adjusted_Penalty>
0.00112577

> <i_epik_Tot_Q>
1

> <i_epik_Tot_abs_Q>
1

> <r_epik_Metal_State_Penalty>
-0

> <b_epik_Metal_Only>
0

> <s_lp_Force_Field>
OPLS_2005

> <r_lp_Energy>
47.1196

> <b_lp_Chiralities_Consistent>
1

> <s_lp_Variant>
AV-unprocessed.smi:152-3

> <Gold.Version>
5.8.1

> <Gold.Id.Protein>
6NUR|6NUR_protein|mol2

> <Gold.PLP.Fitness>
49.3099

> <Gold.PLP.PLP>
-39.1333

> <Gold.PLP.part.hbond>
-3.8516

> <Gold.PLP.part.metal>
0.0000

> <Gold.PLP.part.buried>
-5.5571

> <Gold.PLP.part.nonpolar>
-30.5560

> <Gold.PLP.part.repulsive>
0.1441

> <Gold.PLP.ligand.clash>
0.0000

> <Gold.PLP.ligand.torsion>
0.6807

> <Gold.PLP.Chemscore.Hbond>
3.6240

> <Gold.PLP.Chemscore.CHOScore>
0.0000

> <Gold.PLP.Chemscore.Metal>
0.0000

> <Gold.Chemscore.Hbonds>
donor molecule, donor type, donor heavy atom, donor atom, acceptor molecule, acceptor atom, score
      L1  H     3    58       P1 10747  1.00
      L1  H    22    49       P1  7949  0.72
      P1  H  7989  7998       L1    25  1.00
      P1  H 10752 10764       L1    22  1.00

> <Gold.PLP.Chemscore.Internal.Correction>
0.6659

> <Gold.Rescore>
     Score         DG    S(hbond)    S(metal)    S(lipo)     H(rot)  DE(clash)    DE(int)     intcor
     19.10     -19.80       3.25        0.00      89.33       2.73       0.10       0.60       ----

> <Gold.Chemscore.Fitness>
19.1012

> <Gold.Chemscore.DG>
-19.8000

> <Gold.Chemscore.ZeroCoef>
-5.4800

> <Gold.Chemscore.Hbond>
3.2544

> <Gold.Chemscore.Metal>
0.0000

> <Gold.Chemscore.Lipo>
89.3291

> <Gold.Chemscore.Internal_Hbond>
0.0000

> <Gold.Chemscore.DEClash>
0.0998

> <Gold.Chemscore.DEInternal>
0.5990

> <Gold.Chemscore.Rot>
2.7348

> <Gold.Chemscore.Internal.Correction>
   9.000000E+99

> <Gold.Chemscore.Hbonds>
donor molecule, donor type, donor heavy atom, donor atom, acceptor molecule, acceptor atom, score
      L1  H     3    58       P1 10747  0.99
      L1  H    22    49       P1  7949  0.65
      P1  H  7989  7998       L1    25  0.49
      P1  H 10752 10764       L1    22  0.88

> <Gold.Chemscore.Hbond.Weighted>
-10.8695

> <Gold.Chemscore.Metal.Weighted>
-0.0000

> <Gold.Chemscore.Lipo.Weighted>
-10.4515

> <Gold.Chemscore.Internal_Hbond.Weighted>
0.0000

> <Gold.Chemscore.DEClash.Weighted>
0.0998

> <Gold.Chemscore.DEInternal.Weighted>
0.5990

> <Gold.Chemscore.Rot.Weighted>
7.0010

> <Gold.Chemscore.Internal.Correction.Weighted>
   9.000000E+99

> <Gold.Protein.RotatedTorsions>
[ 6907 6896 6895 6894 ] final -169.86 input  -60.11 | X-H torsion
[ 7974 7965 7964 7962 ] final   19.29 input  175.53 | X-H torsion
[ 8008 7997 7996 7995 ] final -119.32 input   59.86 | X-H torsion
[ 10167 10162 10161 10158 ] final  179.07 input  -65.29 | X-H torsion
[ 10718 10713 10712 10709 ] final -115.76 input   66.30 | X-H torsion
[ 10763 10752 10751 10750 ] final  -75.55 input  -60.55 | X-H torsion
[ 11005 11000 10999 10996 ] final  -95.25 input  -57.11 | X-H torsion

> <Gold.Protein.ActiveResidues>
 VAL166  LYS551  ARG553  GLY616  TRP617  ASP618  TYR619  PRO620  LYS621  CYS622 
 ASP623  PHE694  ASN695  SER759  ASP760  ASP761  ALA762  ILE779  LEU786  VAL792 
 PHE793  MET794  SER795  GLU796  ALA797  LYS798  CYS799  TRP800  GLU811  SER814 

> <Gold.Protein.RotatedAtoms>
  151.4985  133.3509  159.2864 H   0  0  0  0  0  0  0  0  0  0  0  0  # atno 6907 bound_to 6896
  150.8788  134.8178  159.7221 H   0  0  0  0  0  0  0  0  0  0  0  0  # atno 6908 bound_to 6896
  152.4749  134.4880  159.9738 H   0  0  0  0  0  0  0  0  0  0  0  0  # atno 6909 bound_to 6896
  146.2154  139.8334  142.8655 H   0  0  0  0  0  0  0  0  0  0  0  0  # atno 7974 bound_to 7965
  155.1139  140.0397  157.2731 H   0  0  0  0  0  0  0  0  0  0  0  0  # atno 8008 bound_to 7997
  154.6664  140.2602  155.7028 H   0  0  0  0  0  0  0  0  0  0  0  0  # atno 8009 bound_to 7997
  156.2640  140.2806  156.1157 H   0  0  0  0  0  0  0  0  0  0  0  0  # atno 8010 bound_to 7997
  139.5321  144.2604  152.0711 H   0  0  0  0  0  0  0  0  0  0  0  0  # atno 10167 bound_to 10162
  156.0917  130.6098  150.8948 H   0  0  0  0  0  0  0  0  0  0  0  0  # atno 10718 bound_to 10713
  154.4881  135.5827  153.6438 H   0  0  0  0  0  0  0  0  0  0  0  0  # atno 10763 bound_to 10752
  152.9858  135.6106  154.3160 H   0  0  0  0  0  0  0  0  0  0  0  0  # atno 10764 bound_to 10752
  154.3058  135.2846  155.2569 H   0  0  0  0  0  0  0  0  0  0  0  0  # atno 10765 bound_to 10752
  141.1447  133.8013  157.0409 H   0  0  0  0  0  0  0  0  0  0  0  0  # atno 11005 bound_to 11000
  145.2974  141.0184  143.3628 LP  0  0  0  0  0  0  0  0  0  0  0  0  # atno 17320 bound_to 7965
  144.9032  139.4623  143.6623 LP  0  0  0  0  0  0  0  0  0  0  0  0  # atno 17321 bound_to 7965
  140.2069  144.4601  150.6404 LP  0  0  0  0  0  0  0  0  0  0  0  0  # atno 17342 bound_to 10162
  140.6505  143.2224  151.6088 LP  0  0  0  0  0  0  0  0  0  0  0  0  # atno 17343 bound_to 10162
  157.6068  131.0938  150.8865 LP  0  0  0  0  0  0  0  0  0  0  0  0  # atno 17370 bound_to 10713
  156.9012  130.5247  149.5282 LP  0  0  0  0  0  0  0  0  0  0  0  0  # atno 17371 bound_to 10713
  140.0693  134.9711  157.1440 LP  0  0  0  0  0  0  0  0  0  0  0  0  # atno 17394 bound_to 11000
  140.3734  134.2366  155.7176 LP  0  0  0  0  0  0  0  0  0  0  0  0  # atno 17395 bound_to 11000

$$$$
