AV-unprocessed.smi:235|AV-procd|sdf|1803|dock8
  -GOLD-   2262020373D 1   1.00000     0.00000
 Structure written by MMmdl.
 54 58  0  0  0  0  0  0  0  0  1 V2000
  144.4447  135.0772  151.4695 O   0  0  0  0  0  0  0  0  0  0  0  0
  143.7957  134.4509  152.3086 C   0  0  0  0  0  0  0  0  0  0  0  0
  143.6692  133.1161  152.2996 N   0  0  0  0  0  0  0  0  0  0  0  0
  144.2607  132.2323  151.3485 C   0  0  0  0  0  0  0  0  0  0  0  0
  145.5700  132.6544  150.7178 C   0  0  0  0  0  0  0  0  0  0  0  0
  144.3054  132.6838  149.9048 C   0  0  0  0  0  0  0  0  0  0  0  0
  143.0574  135.1874  153.4352 C   0  0  2  0  0  0  0  0  0  0  0  0
  141.5346  135.1313  153.2587 C   0  0  0  0  0  0  0  0  0  0  0  0
  141.0567  136.3445  154.0466 C   0  0  0  0  0  0  0  0  0  0  0  0
  142.1542  137.3767  153.7882 C   0  0  0  0  0  0  0  0  0  0  0  0
  143.3587  136.6207  153.4558 N   0  0  0  0  0  0  0  0  0  0  0  0
  144.4759  136.9718  154.1299 C   0  0  0  0  0  0  0  0  0  0  0  0
  144.5557  136.6054  155.4320 N   0  0  0  0  0  0  0  0  0  0  0  0
  145.6345  136.9300  156.1510 C   0  0  0  0  0  0  0  0  0  0  0  0
  146.7222  137.6037  155.7686 N   0  0  0  0  0  0  0  0  0  0  0  0
  146.6427  137.9712  154.4571 C   0  0  0  0  0  0  0  0  0  0  0  0
  145.5631  137.7003  153.5709 C   0  0  0  0  0  0  0  0  0  0  0  0
  145.8313  138.2344  152.3161 N   0  0  0  0  0  0  0  0  0  0  0  0
  147.0044  138.7903  152.4532 C   0  0  0  0  0  0  0  0  0  0  0  0
  147.5680  138.6722  153.7042 N   0  0  0  0  0  0  0  0  0  0  0  0
  148.8592  139.1876  154.1302 C   0  0  0  0  0  0  0  0  0  0  0  0
  148.7630  140.4275  155.0473 C   0  0  1  0  0  0  0  0  0  0  0  0
  147.9407  140.1220  156.1565 O   0  0  0  0  0  0  0  0  0  0  0  0
  150.1251  140.9252  155.5718 C   0  0  2  0  0  0  0  0  0  0  0  0
  150.9217  139.8847  156.3602 C   0  0  0  0  0  0  0  0  0  0  0  0
  151.8130  140.7252  157.2620 C   0  0  0  0  0  0  0  0  0  0  0  0
  151.1865  142.1215  157.2099 C   0  0  0  0  0  0  0  0  0  0  0  0
  149.9463  141.9474  156.5398 O   0  0  0  0  0  0  0  0  0  0  0  0
  143.1109  132.6922  153.0263 H   0  0  0  0  0  0  0  0  0  0  0  0
  144.1304  131.1631  151.5098 H   0  0  0  0  0  0  0  0  0  0  0  0
  145.9956  133.6102  151.0177 H   0  0  0  0  0  0  0  0  0  0  0  0
  146.2932  131.8729  150.4938 H   0  0  0  0  0  0  0  0  0  0  0  0
  144.1845  131.9219  149.1371 H   0  0  0  0  0  0  0  0  0  0  0  0
  143.8881  133.6593  149.6621 H   0  0  0  0  0  0  0  0  0  0  0  0
  143.3196  134.7365  154.3945 H   0  0  0  0  0  0  0  0  0  0  0  0
  141.2552  135.2420  152.2092 H   0  0  0  0  0  0  0  0  0  0  0  0
  141.1030  134.1997  153.6260 H   0  0  0  0  0  0  0  0  0  0  0  0
  140.0675  136.6899  153.7454 H   0  0  0  0  0  0  0  0  0  0  0  0
  141.0217  136.1003  155.1092 H   0  0  0  0  0  0  0  0  0  0  0  0
  141.8976  137.9897  152.9238 H   0  0  0  0  0  0  0  0  0  0  0  0
  142.2758  138.0506  154.6381 H   0  0  0  0  0  0  0  0  0  0  0  0
  145.6248  136.6027  157.1802 H   0  0  0  0  0  0  0  0  0  0  0  0
  147.4990  139.2984  151.6380 H   0  0  0  0  0  0  0  0  0  0  0  0
  149.3903  138.3866  154.6457 H   0  0  0  0  0  0  0  0  0  0  0  0
  149.4499  139.4192  153.2429 H   0  0  0  0  0  0  0  0  0  0  0  0
  148.2781  141.2287  154.4884 H   0  0  0  0  0  0  0  0  0  0  0  0
  148.4930  139.8643  156.8787 H   0  0  0  0  0  0  0  0  0  0  0  0
  150.7393  141.3135  154.7571 H   0  0  0  0  0  0  0  0  0  0  0  0
  150.2522  139.2790  156.9724 H   0  0  0  0  0  0  0  0  0  0  0  0
  151.4863  139.2114  155.7144 H   0  0  0  0  0  0  0  0  0  0  0  0
  151.8284  140.3257  158.2766 H   0  0  0  0  0  0  0  0  0  0  0  0
  152.8397  140.7524  156.8952 H   0  0  0  0  0  0  0  0  0  0  0  0
  151.0395  142.5525  158.2005 H   0  0  0  0  0  0  0  0  0  0  0  0
  151.8135  142.8018  156.6317 H   0  0  0  0  0  0  0  0  0  0  0  0
  1  2  2  0  0  0  0
  2  3  1  0  0  0  0
  2  7  1  0  0  0  0
  3  4  1  0  0  0  0
  3 29  1  0  0  0  0
  4  6  1  0  0  0  0
  4  5  1  0  0  0  0
  4 30  1  0  0  0  0
  5  6  1  0  0  0  0
  5 31  1  0  0  0  0
  5 32  1  0  0  0  0
  6 33  1  0  0  0  0
  6 34  1  0  0  0  0
  7 11  1  0  0  0  0
  7  8  1  0  0  0  0
  7 35  1  0  0  0  0
  8  9  1  0  0  0  0
  8 36  1  0  0  0  0
  8 37  1  0  0  0  0
  9 10  1  0  0  0  0
  9 38  1  0  0  0  0
  9 39  1  0  0  0  0
 10 11  1  0  0  0  0
 10 40  1  0  0  0  0
 10 41  1  0  0  0  0
 11 12  1  0  0  0  0
 12 17  1  0  0  0  0
 12 13  2  0  0  0  0
 13 14  1  0  0  0  0
 14 15  2  0  0  0  0
 14 42  1  0  0  0  0
 15 16  1  0  0  0  0
 16 20  1  0  0  0  0
 16 17  2  0  0  0  0
 17 18  1  0  0  0  0
 18 19  2  0  0  0  0
 19 20  1  0  0  0  0
 19 43  1  0  0  0  0
 20 21  1  0  0  0  0
 21 22  1  0  0  0  0
 21 44  1  0  0  0  0
 21 45  1  0  0  0  0
 22 23  1  0  0  0  0
 22 24  1  0  0  0  0
 22 46  1  0  0  0  0
 23 47  1  0  0  0  0
 24 28  1  0  0  0  0
 24 25  1  0  0  0  0
 24 48  1  0  0  0  0
 25 26  1  0  0  0  0
 25 49  1  0  0  0  0
 25 50  1  0  0  0  0
 26 27  1  0  0  0  0
 26 51  1  0  0  0  0
 26 52  1  0  0  0  0
 27 28  1  0  0  0  0
 27 53  1  0  0  0  0
 27 54  1  0  0  0  0
M  END
> <s_m_source_file>
AV-unprocessed.smi

> <i_m_source_file_index>
235

> <i_lp_mmshare_version>
43012

> <i_f3d_flags>
0

> <s_epik_input>
W0NIMl0xW0NIMl1bQ0hdMVtOSF1DKD1PKVtDQEBIXTJbQ0gyXVtDSDJdW0NIMl1OMmMobltjSF1uMyljKGMzNCluW2NIXW40W0NIMl1bQ0BIXShbT0hdKVtDQEBIXTVbQ0gyXVtDSDJdW0NIMl1PNQ==

> <s_epik_cmdline>
J2VwaWtfcHl0aG9uJywgJy1waCcsICc3LjAnLCAnLXRuJywgJzgnLCAnLW1hJywgJzIwMCcsICctbWV0YWxfYmluZGluZycsICctaW1hZScsICc8aW5maWxlLm1hZT4nLCAnLW9tYWUnLCAnPG91dGZpbGUubWFlPic=

> <r_lp_tautomer_probability>
1

> <r_epik_Ionization_Penalty>
0.000526714

> <r_epik_Ionization_Penalty_Charging>
0

> <r_epik_Ionization_Penalty_Neutral>
0.000526714

> <r_epik_State_Penalty>
0.000272704

> <r_epik_Charging_Adjusted_Penalty>
0.000272704

> <i_epik_Tot_Q>
0

> <i_epik_Tot_abs_Q>
0

> <r_epik_Metal_State_Penalty>
-0

> <b_epik_Metal_Only>
0

> <s_lp_Force_Field>
OPLS_2005

> <r_lp_Energy>
60.0351

> <b_lp_Chiralities_Consistent>
1

> <s_lp_Variant>
AV-unprocessed.smi:235-3

> <Gold.Version>
5.8.1

> <Gold.Id.Protein>
6NUR|6NUR_protein|mol2

> <Gold.PLP.Fitness>
41.6629

> <Gold.PLP.PLP>
-37.1301

> <Gold.PLP.part.hbond>
-1.0000

> <Gold.PLP.part.metal>
0.0000

> <Gold.PLP.part.buried>
-6.9377

> <Gold.PLP.part.nonpolar>
-31.6732

> <Gold.PLP.part.repulsive>
1.6062

> <Gold.PLP.ligand.clash>
0.0000

> <Gold.PLP.ligand.torsion>
0.8491

> <Gold.PLP.Chemscore.Hbond>
0.9913

> <Gold.PLP.Chemscore.CHOScore>
1.0000

> <Gold.PLP.Chemscore.Metal>
0.0000

> <Gold.Chemscore.Hbonds>
donor molecule, donor type, donor heavy atom, donor atom, acceptor molecule, acceptor atom, score
      L1  H     3    29       P1 10957  0.95
      L1  C    19    43       P1  7957  1.00

> <Gold.PLP.Chemscore.Internal.Correction>
0.2573

> <Gold.Rescore>
     Score         DG    S(hbond)    S(metal)    S(lipo)     H(rot)  DE(clash)    DE(int)     intcor
      4.97      -9.53       0.96        0.00      72.96       3.00       0.02       4.53       ----

> <Gold.Chemscore.Fitness>
4.9734

> <Gold.Chemscore.DG>
-9.5307

> <Gold.Chemscore.ZeroCoef>
-5.4800

> <Gold.Chemscore.Hbond>
0.9556

> <Gold.Chemscore.Metal>
0.0000

> <Gold.Chemscore.Lipo>
72.9599

> <Gold.Chemscore.Internal_Hbond>
0.0000

> <Gold.Chemscore.DEClash>
0.0239

> <Gold.Chemscore.DEInternal>
4.5335

> <Gold.Chemscore.Rot>
2.9989

> <Gold.Chemscore.Internal.Correction>
   9.000000E+99

> <Gold.Chemscore.Hbonds>
donor molecule, donor type, donor heavy atom, donor atom, acceptor molecule, acceptor atom, score
      L1  H     3    29       P1 10957  0.20

> <Gold.Chemscore.Hbond.Weighted>
-3.1916

> <Gold.Chemscore.Metal.Weighted>
-0.0000

> <Gold.Chemscore.Lipo.Weighted>
-8.5363

> <Gold.Chemscore.Internal_Hbond.Weighted>
0.0000

> <Gold.Chemscore.DEClash.Weighted>
0.0239

> <Gold.Chemscore.DEInternal.Weighted>
4.5335

> <Gold.Chemscore.Rot.Weighted>
7.6772

> <Gold.Chemscore.Internal.Correction.Weighted>
   9.000000E+99

> <Gold.Protein.RotatedTorsions>
[ 6907 6896 6895 6894 ] final -141.55 input  -60.11 | X-H torsion
[ 7974 7965 7964 7962 ] final   75.66 input  175.53 | X-H torsion
[ 8008 7997 7996 7995 ] final   -0.49 input   59.86 | X-H torsion
[ 10167 10162 10161 10158 ] final -129.01 input  -65.29 | X-H torsion
[ 10718 10713 10712 10709 ] final -162.37 input   66.30 | X-H torsion
[ 10763 10752 10751 10750 ] final  133.14 input  -60.55 | X-H torsion
[ 11005 11000 10999 10996 ] final  -74.56 input  -57.11 | X-H torsion

> <Gold.Protein.ActiveResidues>
 VAL166  LYS551  ARG553  GLY616  TRP617  ASP618  TYR619  PRO620  LYS621  CYS622 
 ASP623  PHE694  ASN695  SER759  ASP760  ASP761  ALA762  ILE779  LEU786  VAL792 
 PHE793  MET794  SER795  GLU796  ALA797  LYS798  CYS799  TRP800  GLU811  SER814 

> <Gold.Protein.RotatedAtoms>
  151.0753  133.5433  159.2624 H   0  0  0  0  0  0  0  0  0  0  0  0  # atno 6907 bound_to 6896
  151.2357  135.0570  159.9015 H   0  0  0  0  0  0  0  0  0  0  0  0  # atno 6908 bound_to 6896
  152.5417  134.0535  159.8174 H   0  0  0  0  0  0  0  0  0  0  0  0  # atno 6909 bound_to 6896
  145.7127  139.2620  143.1641 H   0  0  0  0  0  0  0  0  0  0  0  0  # atno 7974 bound_to 7965
  154.6575  140.2583  155.7145 H   0  0  0  0  0  0  0  0  0  0  0  0  # atno 8008 bound_to 7997
  156.2603  140.2855  156.0955 H   0  0  0  0  0  0  0  0  0  0  0  0  # atno 8009 bound_to 7997
  155.1358  140.0379  157.2776 H   0  0  0  0  0  0  0  0  0  0  0  0  # atno 8010 bound_to 7997
  139.9443  143.6128  152.2494 H   0  0  0  0  0  0  0  0  0  0  0  0  # atno 10167 bound_to 10162
  156.6095  130.8844  151.2933 H   0  0  0  0  0  0  0  0  0  0  0  0  # atno 10718 bound_to 10713
  153.8023  135.3140  155.3391 H   0  0  0  0  0  0  0  0  0  0  0  0  # atno 10763 bound_to 10752
  154.8084  135.4683  154.0455 H   0  0  0  0  0  0  0  0  0  0  0  0  # atno 10764 bound_to 10752
  153.1807  135.6893  153.8570 H   0  0  0  0  0  0  0  0  0  0  0  0  # atno 10765 bound_to 10752
  141.1636  133.6916  156.7383 H   0  0  0  0  0  0  0  0  0  0  0  0  # atno 11005 bound_to 11000
  146.0698  140.7881  142.9694 LP  0  0  0  0  0  0  0  0  0  0  0  0  # atno 17320 bound_to 7965
  144.6937  140.3324  143.7213 LP  0  0  0  0  0  0  0  0  0  0  0  0  # atno 17321 bound_to 7965
  139.6680  144.7662  151.1837 LP  0  0  0  0  0  0  0  0  0  0  0  0  # atno 17342 bound_to 10162
  140.7602  143.5909  150.8797 LP  0  0  0  0  0  0  0  0  0  0  0  0  # atno 17343 bound_to 10162
  157.7258  130.9621  150.1629 LP  0  0  0  0  0  0  0  0  0  0  0  0  # atno 17370 bound_to 10713
  156.2401  130.3690  149.8346 LP  0  0  0  0  0  0  0  0  0  0  0  0  # atno 17371 bound_to 10713
  140.2693  134.8404  157.3832 LP  0  0  0  0  0  0  0  0  0  0  0  0  # atno 17394 bound_to 11000
  140.1536  134.4818  155.7943 LP  0  0  0  0  0  0  0  0  0  0  0  0  # atno 17395 bound_to 11000

$$$$
