AV-unprocessed.smi:1835|AV-procd|sdf|7475|dock3
  -GOLD-   22720 9173D 1   1.00000     0.00000
 Structure written by MMmdl.
 42 43  0  0  0  0  0  0  0  0  2 V2000
  149.3989  133.1472  153.8992 C   0  0  0  0  0  0  0  0  0  0  0  0
  148.3814  134.1994  154.4044 C   0  0  2  0  0  0  0  0  0  0  0  0
  147.6769  133.6842  155.6929 C   0  0  0  0  0  0  0  0  0  0  0  0
  147.7736  134.6113  156.8174 N   0  0  0  0  0  0  0  0  0  0  0  0
  148.5748  134.4469  157.8811 C   0  0  0  0  0  0  0  0  0  0  0  0
  149.3025  133.4640  158.0277 O   0  0  0  0  0  0  0  0  0  0  0  0
  148.5245  135.5536  158.9442 C   0  0  0  0  0  0  0  0  0  0  0  0
  147.9785  135.0941  160.2323 N   0  0  0  0  0  0  0  0  0  0  0  0
  147.8700  133.7023  160.4253 C   0  0  0  0  0  0  0  0  0  0  0  0
  147.3911  133.1787  161.5649 C   0  0  0  0  0  0  0  0  0  0  0  0
  146.9804  134.0837  162.6124 C   0  0  0  0  0  0  0  0  0  0  0  0
  147.0823  135.4165  162.4395 C   0  0  0  0  0  0  0  0  0  0  0  0
  147.6057  135.9932  161.1955 C   0  0  0  0  0  0  0  0  0  0  0  0
  147.7044  137.2094  161.0292 O   0  0  0  0  0  0  0  0  0  0  0  0
  147.4106  134.5831  153.3243 N   0  3  0  0  0  0  0  0  0  0  0  0
  146.6172  133.4440  152.7807 C   0  0  0  0  0  0  0  0  0  0  0  0
  145.6328  133.9036  151.6920 C   0  0  0  0  0  0  0  0  0  0  0  0
  144.7791  134.9121  152.2069 O   0  0  0  0  0  0  0  0  0  0  0  0
  145.5189  136.0573  152.5976 C   0  0  0  0  0  0  0  0  0  0  0  0
  146.4902  135.6833  153.7292 C   0  0  0  0  0  0  0  0  0  0  0  0
  150.0710  132.8142  154.6896 H   0  0  0  0  0  0  0  0  0  0  0  0
  150.0509  133.5369  153.1191 H   0  0  0  0  0  0  0  0  0  0  0  0
  148.8924  132.2641  153.5083 H   0  0  0  0  0  0  0  0  0  0  0  0
  148.9367  135.1008  154.6690 H   0  0  0  0  0  0  0  0  0  0  0  0
  146.6139  133.5068  155.5314 H   0  0  0  0  0  0  0  0  0  0  0  0
  148.1102  132.7322  156.0010 H   0  0  0  0  0  0  0  0  0  0  0  0
  147.2031  135.4437  156.7762 H   0  0  0  0  0  0  0  0  0  0  0  0
  149.5248  135.9659  159.0903 H   0  0  0  0  0  0  0  0  0  0  0  0
  147.9311  136.3779  158.5463 H   0  0  0  0  0  0  0  0  0  0  0  0
  148.2045  133.0941  159.5974 H   0  0  0  0  0  0  0  0  0  0  0  0
  147.3188  132.1091  161.6966 H   0  0  0  0  0  0  0  0  0  0  0  0
  146.5911  133.6898  163.5397 H   0  0  0  0  0  0  0  0  0  0  0  0
  146.7721  136.0780  163.2350 H   0  0  0  0  0  0  0  0  0  0  0  0
  147.2653  132.6996  152.3220 H   0  0  0  0  0  0  0  0  0  0  0  0
  146.0767  132.9547  153.5925 H   0  0  0  0  0  0  0  0  0  0  0  0
  146.1667  134.2725  150.8145 H   0  0  0  0  0  0  0  0  0  0  0  0
  145.0230  133.0630  151.3607 H   0  0  0  0  0  0  0  0  0  0  0  0
  146.0547  136.4738  151.7430 H   0  0  0  0  0  0  0  0  0  0  0  0
  144.8235  136.8239  152.9395 H   0  0  0  0  0  0  0  0  0  0  0  0
  145.9280  135.3818  154.6146 H   0  0  0  0  0  0  0  0  0  0  0  0
  147.0436  136.5830  153.9904 H   0  0  0  0  0  0  0  0  0  0  0  0
  147.9607  134.9355  152.5540 H   0  0  0  0  0  0  0  0  0  0  0  0
  1  2  1  0  0  0  0
  1 21  1  0  0  0  0
  1 22  1  0  0  0  0
  1 23  1  0  0  0  0
  2  3  1  0  0  0  0
  2 15  1  0  0  0  0
  2 24  1  0  0  0  0
  3  4  1  0  0  0  0
  3 25  1  0  0  0  0
  3 26  1  0  0  0  0
  4  5  1  0  0  0  0
  4 27  1  0  0  0  0
  5  6  2  0  0  0  0
  5  7  1  0  0  0  0
  7  8  1  0  0  0  0
  7 28  1  0  0  0  0
  7 29  1  0  0  0  0
  8 13  1  0  0  0  0
  8  9  1  0  0  0  0
  9 10  2  0  0  0  0
  9 30  1  0  0  0  0
 10 11  1  0  0  0  0
 10 31  1  0  0  0  0
 11 12  2  0  0  0  0
 11 32  1  0  0  0  0
 12 13  1  0  0  0  0
 12 33  1  0  0  0  0
 13 14  2  0  0  0  0
 15 20  1  0  0  0  0
 15 16  1  0  0  0  0
 15 42  1  0  0  0  0
 16 17  1  0  0  0  0
 16 34  1  0  0  0  0
 16 35  1  0  0  0  0
 17 18  1  0  0  0  0
 17 36  1  0  0  0  0
 17 37  1  0  0  0  0
 18 19  1  0  0  0  0
 19 20  1  0  0  0  0
 19 38  1  0  0  0  0
 19 39  1  0  0  0  0
 20 40  1  0  0  0  0
 20 41  1  0  0  0  0
M  CHG  1  15   1
M  END
> <s_m_source_file>
AV-unprocessed.smi

> <i_m_source_file_index>
1835

> <i_lp_mmshare_version>
43012

> <i_f3d_flags>
0

> <s_epik_input>
W0NIMl0xW0NIMl1PW0NIMl1bQ0gyXU4xW0NASF0oW0NIM10pW0NIMl1bTkhdQyg9TylbQ0gyXW4yW2NIXVtjSF1bY0hdW2NIXWMyPU8=

> <s_epik_cmdline>
J2VwaWtfcHl0aG9uJywgJy1waCcsICc3LjAnLCAnLXRuJywgJzgnLCAnLW1hJywgJzIwMCcsICctbWV0YWxfYmluZGluZycsICctaW1hZScsICc8aW5maWxlLm1hZT4nLCAnLW9tYWUnLCAnPG91dGZpbGUubWFlPic=

> <r_lp_tautomer_probability>
1

> <r_epik_Ionization_Penalty>
0.656654

> <r_epik_Ionization_Penalty_Charging>
0.656654

> <r_epik_Ionization_Penalty_Neutral>
9.12373e-08

> <r_epik_State_Penalty>
0.675641

> <r_epik_Charging_Adjusted_Penalty>
1.33229

> <i_epik_Tot_Q>
1

> <i_epik_Tot_abs_Q>
1

> <r_epik_Metal_State_Penalty>
0.675692

> <b_epik_Metal_Only>
0

> <s_lp_Force_Field>
OPLS_2005

> <r_lp_Energy>
29.3587

> <b_lp_Chiralities_Consistent>
1

> <s_lp_Variant>
AV-unprocessed.smi:1835-3

> <Gold.Version>
5.8.1

> <Gold.Id.Protein>
6NUR|6NUR_protein|mol2

> <Gold.PLP.Fitness>
44.3607

> <Gold.PLP.PLP>
-32.1843

> <Gold.PLP.part.hbond>
-4.0000

> <Gold.PLP.part.metal>
0.0000

> <Gold.PLP.part.buried>
-2.5104

> <Gold.PLP.part.nonpolar>
-24.8289

> <Gold.PLP.part.repulsive>
0.1036

> <Gold.PLP.ligand.clash>
0.2539

> <Gold.PLP.ligand.torsion>
1.0087

> <Gold.PLP.Chemscore.Hbond>
4.7920

> <Gold.PLP.Chemscore.CHOScore>
0.0000

> <Gold.PLP.Chemscore.Metal>
0.0000

> <Gold.Chemscore.Hbonds>
donor molecule, donor type, donor heavy atom, donor atom, acceptor molecule, acceptor atom, score
      L1  H    15    42       P1  7948  2.00
      P1  H  6896  6907       L1     6  1.00
      P1  H  6931  6943       L1    14  0.90
      P1  H  6934  6947       L1    14  0.88

> <Gold.PLP.Chemscore.Internal.Correction>
0.0717

> <Gold.Rescore>
     Score         DG    S(hbond)    S(metal)    S(lipo)     H(rot)  DE(clash)    DE(int)     intcor
     17.88     -20.22       3.76        0.00      61.76       1.96       0.00       2.34       ----

> <Gold.Chemscore.Fitness>
17.8797

> <Gold.Chemscore.DG>
-20.2211

> <Gold.Chemscore.ZeroCoef>
-5.4800

> <Gold.Chemscore.Hbond>
3.7561

> <Gold.Chemscore.Metal>
0.0000

> <Gold.Chemscore.Lipo>
61.7575

> <Gold.Chemscore.Internal_Hbond>
0.0000

> <Gold.Chemscore.DEClash>
0.0009

> <Gold.Chemscore.DEInternal>
2.3405

> <Gold.Chemscore.Rot>
1.9649

> <Gold.Chemscore.Internal.Correction>
   9.000000E+99

> <Gold.Chemscore.Hbonds>
donor molecule, donor type, donor heavy atom, donor atom, acceptor molecule, acceptor atom, score
      L1  H    15    42       P1  7948  0.84
      P1  H  6896  6907       L1     6  0.87
      P1  H  6931  6943       L1    14  0.87
      P1  H  6934  6947       L1    14  0.86

> <Gold.Chemscore.Hbond.Weighted>
-12.5455

> <Gold.Chemscore.Metal.Weighted>
-0.0000

> <Gold.Chemscore.Lipo.Weighted>
-7.2256

> <Gold.Chemscore.Internal_Hbond.Weighted>
0.0000

> <Gold.Chemscore.DEClash.Weighted>
0.0009

> <Gold.Chemscore.DEInternal.Weighted>
2.3405

> <Gold.Chemscore.Rot.Weighted>
5.0300

> <Gold.Chemscore.Internal.Correction.Weighted>
   9.000000E+99

> <Gold.Protein.RotatedTorsions>
[ 6907 6896 6895 6894 ] final -121.97 input  -60.11 | X-H torsion
[ 7974 7965 7964 7962 ] final    2.85 input  175.53 | X-H torsion
[ 8008 7997 7996 7995 ] final  151.31 input   59.86 | X-H torsion
[ 10167 10162 10161 10158 ] final  172.60 input  -65.29 | X-H torsion
[ 10718 10713 10712 10709 ] final  -94.09 input   66.30 | X-H torsion
[ 10763 10752 10751 10750 ] final -152.48 input  -60.55 | X-H torsion
[ 11005 11000 10999 10996 ] final  -38.05 input  -57.11 | X-H torsion

> <Gold.Protein.ActiveResidues>
 VAL166  LYS551  ARG553  GLY616  TRP617  ASP618  TYR619  PRO620  LYS621  CYS622 
 ASP623  PHE694  ASN695  SER759  ASP760  ASP761  ALA762  ILE779  LEU786  VAL792 
 PHE793  MET794  SER795  GLU796  ALA797  LYS798  CYS799  TRP800  GLU811  SER814 

> <Gold.Protein.RotatedAtoms>
  150.8532  133.7754  159.3017 H   0  0  0  0  0  0  0  0  0  0  0  0  # atno 6907 bound_to 6896
  151.5420  135.1067  159.9938 H   0  0  0  0  0  0  0  0  0  0  0  0  # atno 6908 bound_to 6896
  152.4569  133.7699  159.6849 H   0  0  0  0  0  0  0  0  0  0  0  0  # atno 6909 bound_to 6896
  146.2444  140.0774  142.8359 H   0  0  0  0  0  0  0  0  0  0  0  0  # atno 7974 bound_to 7965
  156.2679  140.2051  156.6155 H   0  0  0  0  0  0  0  0  0  0  0  0  # atno 8008 bound_to 7997
  154.6798  140.0541  157.0278 H   0  0  0  0  0  0  0  0  0  0  0  0  # atno 8009 bound_to 7997
  155.1017  140.3206  155.4548 H   0  0  0  0  0  0  0  0  0  0  0  0  # atno 8010 bound_to 7997
  139.5081  144.3355  152.0069 H   0  0  0  0  0  0  0  0  0  0  0  0  # atno 10167 bound_to 10162
  156.0022  130.5053  150.5874 H   0  0  0  0  0  0  0  0  0  0  0  0  # atno 10718 bound_to 10713
  154.7991  135.3235  154.7595 H   0  0  0  0  0  0  0  0  0  0  0  0  # atno 10763 bound_to 10752
  153.8267  135.6883  153.4824 H   0  0  0  0  0  0  0  0  0  0  0  0  # atno 10764 bound_to 10752
  153.1698  135.4628  154.9829 H   0  0  0  0  0  0  0  0  0  0  0  0  # atno 10765 bound_to 10752
  140.9998  133.6961  156.2001 H   0  0  0  0  0  0  0  0  0  0  0  0  # atno 11005 bound_to 11000
  145.0763  140.9190  143.4852 LP  0  0  0  0  0  0  0  0  0  0  0  0  # atno 17320 bound_to 7965
  145.0918  139.2885  143.5731 LP  0  0  0  0  0  0  0  0  0  0  0  0  # atno 17321 bound_to 7965
  140.2794  144.3876  150.6124 LP  0  0  0  0  0  0  0  0  0  0  0  0  # atno 17342 bound_to 10162
  140.6029  143.2167  151.7037 LP  0  0  0  0  0  0  0  0  0  0  0  0  # atno 17343 bound_to 10162
  157.3744  131.0771  151.1530 LP  0  0  0  0  0  0  0  0  0  0  0  0  # atno 17370 bound_to 10713
  157.2273  130.6509  149.5835 LP  0  0  0  0  0  0  0  0  0  0  0  0  # atno 17371 bound_to 10713
  140.6907  134.4669  157.5588 LP  0  0  0  0  0  0  0  0  0  0  0  0  # atno 17394 bound_to 11000
  139.9033  134.8506  156.1807 LP  0  0  0  0  0  0  0  0  0  0  0  0  # atno 17395 bound_to 11000

$$$$
