AV-unprocessed.smi:786|AV-procd|sdf|3723|dock2
  -GOLD-   22720 1153D 1   1.00000     0.00000
 Structure written by MMmdl.
 38 39  0  0  0  0  0  0  0  0  2 V2000
  150.7877  137.8685  157.2334 O   0  0  0  0  0  0  0  0  0  0  0  0
  152.0668  138.2761  156.6276 S   0  0  0  0  0  0  0  0  0  0  0  0
  152.8497  137.2190  155.9712 O   0  0  0  0  0  0  0  0  0  0  0  0
  151.6323  139.5035  155.3000 C   0  0  0  0  0  0  0  0  0  0  0  0
  150.1127  139.7122  155.1138 C   0  0  0  0  0  0  0  0  0  0  0  0
  149.5663  138.8023  154.0008 C   0  0  0  0  0  0  0  0  0  0  0  0
  148.0656  139.0469  153.7732 C   0  0  0  0  0  0  0  0  0  0  0  0
  147.8367  140.4163  153.4631 O   0  0  0  0  0  0  0  0  0  0  0  0
  148.2187  141.2897  154.5201 C   0  0  0  0  0  0  0  0  0  0  0  0
  149.7282  141.1677  154.7856 C   0  0  0  0  0  0  0  0  0  0  0  0
  153.0055  139.1517  157.6276 N   0  5  0  0  0  0  0  0  0  0  0  0
  152.4331  139.9643  158.6932 C   0  0  0  0  0  0  0  0  0  0  0  0
  153.5460  140.6232  159.5403 C   0  0  0  0  0  0  0  0  0  0  0  0
  153.0675  141.6561  160.5590 C   0  0  0  0  0  0  0  0  0  0  0  0
  152.3425  142.7968  160.1439 C   0  0  0  0  0  0  0  0  0  0  0  0
  151.9083  143.7137  161.1206 C   0  0  0  0  0  0  0  0  0  0  0  0
  152.2058  143.4565  162.4723 C   0  0  0  0  0  0  0  0  0  0  0  0
  152.9283  142.2891  162.7881 C   0  0  0  0  0  0  0  0  0  0  0  0
  153.3504  141.4049  161.8602 N   0  0  0  0  0  0  0  0  0  0  0  0
  152.1129  140.4485  155.5528 H   0  0  0  0  0  0  0  0  0  0  0  0
  152.0956  139.1676  154.3730 H   0  0  0  0  0  0  0  0  0  0  0  0
  149.6103  139.4249  156.0382 H   0  0  0  0  0  0  0  0  0  0  0  0
  150.1075  138.9887  153.0722 H   0  0  0  0  0  0  0  0  0  0  0  0
  149.7350  137.7557  154.2542 H   0  0  0  0  0  0  0  0  0  0  0  0
  147.7077  138.4329  152.9467 H   0  0  0  0  0  0  0  0  0  0  0  0
  147.4853  138.7644  154.6523 H   0  0  0  0  0  0  0  0  0  0  0  0
  147.9701  142.3127  154.2376 H   0  0  0  0  0  0  0  0  0  0  0  0
  147.6467  141.0607  155.4206 H   0  0  0  0  0  0  0  0  0  0  0  0
  150.0014  141.8406  155.5960 H   0  0  0  0  0  0  0  0  0  0  0  0
  150.2764  141.5059  153.9054 H   0  0  0  0  0  0  0  0  0  0  0  0
  151.7780  140.7475  158.3107 H   0  0  0  0  0  0  0  0  0  0  0  0
  151.8089  139.3570  159.3490 H   0  0  0  0  0  0  0  0  0  0  0  0
  154.0815  139.8435  160.0829 H   0  0  0  0  0  0  0  0  0  0  0  0
  154.2867  141.0829  158.8838 H   0  0  0  0  0  0  0  0  0  0  0  0
  152.1285  142.9669  159.0988 H   0  0  0  0  0  0  0  0  0  0  0  0
  151.3576  144.5984  160.8378 H   0  0  0  0  0  0  0  0  0  0  0  0
  151.8913  144.1383  163.2483 H   0  0  0  0  0  0  0  0  0  0  0  0
  153.1772  142.0610  163.8138 H   0  0  0  0  0  0  0  0  0  0  0  0
  1  2  2  0  0  0  0
  2  3  2  0  0  0  0
  2  4  1  0  0  0  0
  2 11  1  0  0  0  0
  4  5  1  0  0  0  0
  4 20  1  0  0  0  0
  4 21  1  0  0  0  0
  5 10  1  0  0  0  0
  5  6  1  0  0  0  0
  5 22  1  0  0  0  0
  6  7  1  0  0  0  0
  6 23  1  0  0  0  0
  6 24  1  0  0  0  0
  7  8  1  0  0  0  0
  7 25  1  0  0  0  0
  7 26  1  0  0  0  0
  8  9  1  0  0  0  0
  9 10  1  0  0  0  0
  9 27  1  0  0  0  0
  9 28  1  0  0  0  0
 10 29  1  0  0  0  0
 10 30  1  0  0  0  0
 11 12  1  0  0  0  0
 12 13  1  0  0  0  0
 12 31  1  0  0  0  0
 12 32  1  0  0  0  0
 13 14  1  0  0  0  0
 13 33  1  0  0  0  0
 13 34  1  0  0  0  0
 14 19  1  0  0  0  0
 14 15  2  0  0  0  0
 15 16  1  0  0  0  0
 15 35  1  0  0  0  0
 16 17  2  0  0  0  0
 16 36  1  0  0  0  0
 17 18  1  0  0  0  0
 17 37  1  0  0  0  0
 18 19  2  0  0  0  0
 18 38  1  0  0  0  0
M  CHG  1  11  -1
M  END
> <s_m_source_file>
AV-unprocessed.smi

> <i_m_source_file_index>
786

> <i_lp_mmshare_version>
43012

> <i_f3d_flags>
0

> <s_epik_input>
W0NIMl0xW0NIMl1PW0NIMl1bQ0gyXVtDSF0xW0NIMl1TKD1PKSg9TylbTkhdW0NIMl1bQ0gyXWMyW2NIXVtjSF1bY0hdW2NIXW4y

> <s_epik_cmdline>
J2VwaWtfcHl0aG9uJywgJy1waCcsICc3LjAnLCAnLXRuJywgJzgnLCAnLW1hJywgJzIwMCcsICctbWV0YWxfYmluZGluZycsICctaW1hZScsICc8aW5maWxlLm1hZT4nLCAnLW9tYWUnLCAnPG91dGZpbGUubWFlPic=

> <r_epik_Ionization_Penalty>
6.60618

> <r_epik_Ionization_Penalty_Charging>
6.53386

> <r_epik_Ionization_Penalty_Neutral>
0.0723214

> <r_epik_State_Penalty>
6.55045

> <r_epik_Charging_Adjusted_Penalty>
13.0843

> <i_epik_Tot_Q>
-1

> <i_epik_Tot_abs_Q>
1

> <r_epik_Metal_State_Penalty>
2.49618

> <b_epik_Metal_Only>
1

> <s_lp_Force_Field>
OPLS_2005

> <r_lp_Energy>
5.55421

> <b_lp_Chiralities_Consistent>
1

> <s_lp_Variant>
AV-unprocessed.smi:786-3

> <Gold.Version>
5.8.1

> <Gold.Id.Protein>
6NUR|6NUR_protein|mol2

> <Gold.PLP.Fitness>
49.0702

> <Gold.PLP.PLP>
-41.6861

> <Gold.PLP.part.hbond>
-2.0000

> <Gold.PLP.part.metal>
0.0000

> <Gold.PLP.part.buried>
-3.3418

> <Gold.PLP.part.nonpolar>
-36.5820

> <Gold.PLP.part.repulsive>
0.9110

> <Gold.PLP.ligand.clash>
0.0000

> <Gold.PLP.ligand.torsion>
1.0127

> <Gold.PLP.Chemscore.Hbond>
2.7680

> <Gold.PLP.Chemscore.CHOScore>
0.0000

> <Gold.PLP.Chemscore.Metal>
0.0000

> <Gold.Chemscore.Hbonds>
donor molecule, donor type, donor heavy atom, donor atom, acceptor molecule, acceptor atom, score
      P1  H  7997  8008       L1    11  2.00
      P1  H 10752 10763       L1     3  0.64

> <Gold.PLP.Chemscore.Internal.Correction>
1.1055

> <Gold.Rescore>
     Score         DG    S(hbond)    S(metal)    S(lipo)     H(rot)  DE(clash)    DE(int)     intcor
     18.10     -19.20       1.38        0.00     112.33       1.57       0.09       1.02       ----

> <Gold.Chemscore.Fitness>
18.0957

> <Gold.Chemscore.DG>
-19.1973

> <Gold.Chemscore.ZeroCoef>
-5.4800

> <Gold.Chemscore.Hbond>
1.3784

> <Gold.Chemscore.Metal>
0.0000

> <Gold.Chemscore.Lipo>
112.3327

> <Gold.Chemscore.Internal_Hbond>
0.0000

> <Gold.Chemscore.DEClash>
0.0853

> <Gold.Chemscore.DEInternal>
1.0163

> <Gold.Chemscore.Rot>
1.5740

> <Gold.Chemscore.Internal.Correction>
   9.000000E+99

> <Gold.Chemscore.Hbonds>
donor molecule, donor type, donor heavy atom, donor atom, acceptor molecule, acceptor atom, score
      P1  H  7997  8008       L1    11  0.64
      P1  H 10752 10763       L1     3  0.63

> <Gold.Chemscore.Hbond.Weighted>
-4.6037

> <Gold.Chemscore.Metal.Weighted>
-0.0000

> <Gold.Chemscore.Lipo.Weighted>
-13.1429

> <Gold.Chemscore.Internal_Hbond.Weighted>
0.0000

> <Gold.Chemscore.DEClash.Weighted>
0.0853

> <Gold.Chemscore.DEInternal.Weighted>
1.0163

> <Gold.Chemscore.Rot.Weighted>
4.0293

> <Gold.Chemscore.Internal.Correction.Weighted>
   9.000000E+99

> <Gold.Protein.RotatedTorsions>
[ 6907 6896 6895 6894 ] final -148.10 input  -60.11 | X-H torsion
[ 7974 7965 7964 7962 ] final  -95.88 input  175.53 | X-H torsion
[ 8008 7997 7996 7995 ] final  -82.09 input   59.86 | X-H torsion
[ 10167 10162 10161 10158 ] final   43.54 input  -65.29 | X-H torsion
[ 10718 10713 10712 10709 ] final  -36.51 input   66.30 | X-H torsion
[ 10763 10752 10751 10750 ] final   92.45 input  -60.55 | X-H torsion
[ 11005 11000 10999 10996 ] final   78.77 input  -57.11 | X-H torsion

> <Gold.Protein.ActiveResidues>
 VAL166  LYS551  ARG553  GLY616  TRP617  ASP618  TYR619  PRO620  LYS621  CYS622 
 ASP623  PHE694  ASN695  SER759  ASP760  ASP761  ALA762  ILE779  LEU786  VAL792 
 PHE793  MET794  SER795  GLU796  ALA797  LYS798  CYS799  TRP800  GLU811  SER814 

> <Gold.Protein.RotatedAtoms>
  151.1650  133.4821  159.2593 H   0  0  0  0  0  0  0  0  0  0  0  0  # atno 6907 bound_to 6896
  151.1415  135.0182  159.8638 H   0  0  0  0  0  0  0  0  0  0  0  0  # atno 6908 bound_to 6896
  152.5462  134.1543  159.8584 H   0  0  0  0  0  0  0  0  0  0  0  0  # atno 6909 bound_to 6896
  145.3542  140.9481  143.2537 H   0  0  0  0  0  0  0  0  0  0  0  0  # atno 7974 bound_to 7965
  154.6050  140.0638  156.9418 H   0  0  0  0  0  0  0  0  0  0  0  0  # atno 8008 bound_to 7997
  155.2069  140.3319  155.4316 H   0  0  0  0  0  0  0  0  0  0  0  0  # atno 8009 bound_to 7997
  156.2342  140.1855  156.7148 H   0  0  0  0  0  0  0  0  0  0  0  0  # atno 8010 bound_to 7997
  140.3433  144.2442  150.6153 H   0  0  0  0  0  0  0  0  0  0  0  0  # atno 10167 bound_to 10162
  156.3260  130.4272  149.7916 H   0  0  0  0  0  0  0  0  0  0  0  0  # atno 10718 bound_to 10713
  153.2193  135.4361  155.0471 H   0  0  0  0  0  0  0  0  0  0  0  0  # atno 10763 bound_to 10752
  154.8242  135.3352  154.6951 H   0  0  0  0  0  0  0  0  0  0  0  0  # atno 10764 bound_to 10752
  153.7384  135.7006  153.5029 H   0  0  0  0  0  0  0  0  0  0  0  0  # atno 10765 bound_to 10752
  139.9199  134.7789  156.1692 H   0  0  0  0  0  0  0  0  0  0  0  0  # atno 11005 bound_to 11000
  144.8695  139.5059  143.6774 LP  0  0  0  0  0  0  0  0  0  0  0  0  # atno 17320 bound_to 7965
  146.2955  139.7265  142.9130 LP  0  0  0  0  0  0  0  0  0  0  0  0  # atno 17321 bound_to 7965
  140.5288  143.2248  151.8272 LP  0  0  0  0  0  0  0  0  0  0  0  0  # atno 17342 bound_to 10162
  139.4837  144.4746  151.9383 LP  0  0  0  0  0  0  0  0  0  0  0  0  # atno 17343 bound_to 10162
  156.5206  130.8213  151.3202 LP  0  0  0  0  0  0  0  0  0  0  0  0  # atno 17370 bound_to 10713
  157.7421  130.9884  150.2494 LP  0  0  0  0  0  0  0  0  0  0  0  0  # atno 17371 bound_to 10713
  141.0711  133.6796  156.2142 LP  0  0  0  0  0  0  0  0  0  0  0  0  # atno 17394 bound_to 11000
  140.6505  134.5071  157.5577 LP  0  0  0  0  0  0  0  0  0  0  0  0  # atno 17395 bound_to 11000

$$$$
