AV-unprocessed.smi:1438|AV-procd|sdf|5868|dock8
  -GOLD-   22720 5543D 1   1.00000     0.00000
 Structure written by MMmdl.
 43 44  0  0  0  0  0  0  0  0  1 V2000
  145.9682  141.9448  158.8384 C   0  0  0  0  0  0  0  0  0  0  0  0
  146.1226  142.2447  157.3387 C   0  0  1  0  0  0  0  0  0  0  0  0
  147.0247  141.2174  156.6430 C   0  0  0  0  0  0  0  0  0  0  0  0
  146.7861  140.0131  156.7349 O   0  0  0  0  0  0  0  0  0  0  0  0
  148.0531  141.7097  155.9349 N   0  0  0  0  0  0  0  0  0  0  0  0
  148.9558  140.9133  155.1139 C   0  0  0  0  0  0  0  0  0  0  0  0
  150.2113  140.5233  155.8711 C   0  0  0  0  0  0  0  0  0  0  0  0
  150.9422  139.3753  155.5106 C   0  0  0  0  0  0  0  0  0  0  0  0
  152.1165  139.0808  156.2269 C   0  0  0  0  0  0  0  0  0  0  0  0
  152.5727  139.8415  157.2441 N   0  0  0  0  0  0  0  0  0  0  0  0
  151.8734  140.9467  157.6042 C   0  0  0  0  0  0  0  0  0  0  0  0
  152.3588  141.7271  158.6765 N   0  0  0  0  0  0  0  0  0  0  0  0
  151.6437  142.9788  158.9158 C   0  0  0  0  0  0  0  0  0  0  0  0
  152.4265  143.8668  159.8987 C   0  0  0  0  0  0  0  0  0  0  0  0
  152.6923  143.1444  161.0962 O   0  0  0  0  0  0  0  0  0  0  0  0
  153.4888  141.9902  160.8515 C   0  0  0  0  0  0  0  0  0  0  0  0
  152.7391  141.0353  159.9073 C   0  0  0  0  0  0  0  0  0  0  0  0
  150.6873  141.3241  156.9296 C   0  0  0  0  0  0  0  0  0  0  0  0
  144.4566  142.2719  156.5237 S   0  0  0  0  0  0  0  0  0  0  0  0
  144.8477  142.7373  154.7834 C   0  0  0  0  0  0  0  0  0  0  0  0
  143.9040  140.9085  156.5170 O   0  0  0  0  0  0  0  0  0  0  0  0
  143.6747  143.3624  157.1263 O   0  0  0  0  0  0  0  0  0  0  0  0
  146.9375  141.9058  159.3369 H   0  0  0  0  0  0  0  0  0  0  0  0
  145.4649  140.9921  159.0079 H   0  0  0  0  0  0  0  0  0  0  0  0
  145.3785  142.7191  159.3294 H   0  0  0  0  0  0  0  0  0  0  0  0
  146.5518  143.2407  157.2241 H   0  0  0  0  0  0  0  0  0  0  0  0
  148.1867  142.7102  155.9181 H   0  0  0  0  0  0  0  0  0  0  0  0
  148.4321  140.0091  154.8032 H   0  0  0  0  0  0  0  0  0  0  0  0
  149.2180  141.4448  154.1974 H   0  0  0  0  0  0  0  0  0  0  0  0
  150.6196  138.7408  154.6980 H   0  0  0  0  0  0  0  0  0  0  0  0
  152.7064  138.2118  155.9759 H   0  0  0  0  0  0  0  0  0  0  0  0
  151.4803  143.5337  157.9932 H   0  0  0  0  0  0  0  0  0  0  0  0
  150.6593  142.7484  159.3256 H   0  0  0  0  0  0  0  0  0  0  0  0
  153.3611  144.2101  159.4522 H   0  0  0  0  0  0  0  0  0  0  0  0
  151.8458  144.7564  160.1431 H   0  0  0  0  0  0  0  0  0  0  0  0
  154.4511  142.2815  160.4275 H   0  0  0  0  0  0  0  0  0  0  0  0
  153.6958  141.4941  161.7999 H   0  0  0  0  0  0  0  0  0  0  0  0
  151.8430  140.6532  160.3987 H   0  0  0  0  0  0  0  0  0  0  0  0
  153.3766  140.1801  159.6782 H   0  0  0  0  0  0  0  0  0  0  0  0
  150.1504  142.2205  157.2028 H   0  0  0  0  0  0  0  0  0  0  0  0
  143.9182  142.8788  154.2325 H   0  0  0  0  0  0  0  0  0  0  0  0
  145.4236  141.9449  154.3060 H   0  0  0  0  0  0  0  0  0  0  0  0
  145.4191  143.6650  154.7702 H   0  0  0  0  0  0  0  0  0  0  0  0
  1  2  1  0  0  0  0
  1 23  1  0  0  0  0
  1 24  1  0  0  0  0
  1 25  1  0  0  0  0
  2  3  1  0  0  0  0
  2 19  1  0  0  0  0
  2 26  1  0  0  0  0
  3  4  2  0  0  0  0
  3  5  1  0  0  0  0
  5  6  1  0  0  0  0
  5 27  1  0  0  0  0
  6  7  1  0  0  0  0
  6 28  1  0  0  0  0
  6 29  1  0  0  0  0
  7 18  1  0  0  0  0
  7  8  2  0  0  0  0
  8  9  1  0  0  0  0
  8 30  1  0  0  0  0
  9 10  2  0  0  0  0
  9 31  1  0  0  0  0
 10 11  1  0  0  0  0
 11 12  1  0  0  0  0
 11 18  2  0  0  0  0
 12 17  1  0  0  0  0
 12 13  1  0  0  0  0
 13 14  1  0  0  0  0
 13 32  1  0  0  0  0
 13 33  1  0  0  0  0
 14 15  1  0  0  0  0
 14 34  1  0  0  0  0
 14 35  1  0  0  0  0
 15 16  1  0  0  0  0
 16 17  1  0  0  0  0
 16 36  1  0  0  0  0
 16 37  1  0  0  0  0
 17 38  1  0  0  0  0
 17 39  1  0  0  0  0
 18 40  1  0  0  0  0
 19 20  1  0  0  0  0
 19 21  2  0  0  0  0
 19 22  2  0  0  0  0
 20 41  1  0  0  0  0
 20 42  1  0  0  0  0
 20 43  1  0  0  0  0
M  END
> <s_m_source_file>
AV-unprocessed.smi

> <i_m_source_file_index>
1438

> <i_lp_mmshare_version>
43012

> <i_f3d_flags>
0

> <s_epik_input>
W0NIM11TKD1PKSg9TylbQ0BIXShbQ0gzXSlDKD1PKVtOSF1bQ0gyXWMxW2NIXVtjSF1uYyhbY0hdMSlOMltDSDJdW0NIMl1PW0NIMl1bQ0gyXTI=

> <s_epik_cmdline>
J2VwaWtfcHl0aG9uJywgJy1waCcsICc3LjAnLCAnLXRuJywgJzgnLCAnLW1hJywgJzIwMCcsICctbWV0YWxfYmluZGluZycsICctaW1hZScsICc8aW5maWxlLm1hZT4nLCAnLW9tYWUnLCAnPG91dGZpbGUubWFlPic=

> <r_lp_tautomer_probability>
1

> <r_epik_Ionization_Penalty>
0.00387635

> <r_epik_Ionization_Penalty_Charging>
0

> <r_epik_Ionization_Penalty_Neutral>
0.00387635

> <r_epik_State_Penalty>
0.0027681

> <r_epik_Charging_Adjusted_Penalty>
0.0027681

> <i_epik_Tot_Q>
0

> <i_epik_Tot_abs_Q>
0

> <r_epik_Metal_State_Penalty>
-0

> <b_epik_Metal_Only>
0

> <s_lp_Force_Field>
OPLS_2005

> <r_lp_Energy>
13.2689

> <b_lp_Chiralities_Consistent>
1

> <s_lp_Variant>
AV-unprocessed.smi:1438-2

> <Gold.Version>
5.8.1

> <Gold.Id.Protein>
6NUR|6NUR_protein|mol2

> <Gold.PLP.Fitness>
44.2747

> <Gold.PLP.PLP>
-39.5748

> <Gold.PLP.part.hbond>
-2.0000

> <Gold.PLP.part.metal>
0.0000

> <Gold.PLP.part.buried>
-5.8848

> <Gold.PLP.part.nonpolar>
-32.3735

> <Gold.PLP.part.repulsive>
0.3894

> <Gold.PLP.ligand.clash>
0.0000

> <Gold.PLP.ligand.torsion>
0.8874

> <Gold.PLP.Chemscore.Hbond>
2.0000

> <Gold.PLP.Chemscore.CHOScore>
0.0000

> <Gold.PLP.Chemscore.Metal>
0.0000

> <Gold.Chemscore.Hbonds>
donor molecule, donor type, donor heavy atom, donor atom, acceptor molecule, acceptor atom, score
      L1  H     5    27       P1  8028  0.75
      P1  H  7997  8009       L1    10  0.95

> <Gold.PLP.Chemscore.Internal.Correction>
0.4746

> <Gold.Rescore>
     Score         DG    S(hbond)    S(metal)    S(lipo)     H(rot)  DE(clash)    DE(int)     intcor
     14.59     -15.91       1.63        0.00      87.90       2.08       0.09       1.23       ----

> <Gold.Chemscore.Fitness>
14.5920

> <Gold.Chemscore.DG>
-15.9074

> <Gold.Chemscore.ZeroCoef>
-5.4800

> <Gold.Chemscore.Hbond>
1.6343

> <Gold.Chemscore.Metal>
0.0000

> <Gold.Chemscore.Lipo>
87.8991

> <Gold.Chemscore.Internal_Hbond>
0.0000

> <Gold.Chemscore.DEClash>
0.0872

> <Gold.Chemscore.DEInternal>
1.2281

> <Gold.Chemscore.Rot>
2.0764

> <Gold.Chemscore.Internal.Correction>
   9.000000E+99

> <Gold.Chemscore.Hbonds>
donor molecule, donor type, donor heavy atom, donor atom, acceptor molecule, acceptor atom, score
      L1  H     5    27       P1  8028  0.68
      P1  H  7997  8009       L1    10  0.20

> <Gold.Chemscore.Hbond.Weighted>
-5.4587

> <Gold.Chemscore.Metal.Weighted>
-0.0000

> <Gold.Chemscore.Lipo.Weighted>
-10.2842

> <Gold.Chemscore.Internal_Hbond.Weighted>
0.0000

> <Gold.Chemscore.DEClash.Weighted>
0.0872

> <Gold.Chemscore.DEInternal.Weighted>
1.2281

> <Gold.Chemscore.Rot.Weighted>
5.3155

> <Gold.Chemscore.Internal.Correction.Weighted>
   9.000000E+99

> <Gold.Protein.RotatedTorsions>
[ 6907 6896 6895 6894 ] final  -50.03 input  -60.11 | X-H torsion
[ 7974 7965 7964 7962 ] final  -47.53 input  175.53 | X-H torsion
[ 8008 7997 7996 7995 ] final -178.78 input   59.86 | X-H torsion
[ 10167 10162 10161 10158 ] final  132.67 input  -65.29 | X-H torsion
[ 10718 10713 10712 10709 ] final -129.92 input   66.30 | X-H torsion
[ 10763 10752 10751 10750 ] final   78.75 input  -60.55 | X-H torsion
[ 11005 11000 10999 10996 ] final   -0.96 input  -57.11 | X-H torsion

> <Gold.Protein.ActiveResidues>
 VAL166  LYS551  ARG553  GLY616  TRP617  ASP618  TYR619  PRO620  LYS621  CYS622 
 ASP623  PHE694  ASN695  SER759  ASP760  ASP761  ALA762  ILE779  LEU786  VAL792 
 PHE793  MET794  SER795  GLU796  ALA797  LYS798  CYS799  TRP800  GLU811  SER814 

> <Gold.Protein.RotatedAtoms>
  150.8746  134.8127  159.7180 H   0  0  0  0  0  0  0  0  0  0  0  0  # atno 6907 bound_to 6896
  152.4738  134.4891  159.9699 H   0  0  0  0  0  0  0  0  0  0  0  0  # atno 6908 bound_to 6896
  151.4975  133.3473  159.2899 H   0  0  0  0  0  0  0  0  0  0  0  0  # atno 6909 bound_to 6896
  145.9606  140.7483  142.9459 H   0  0  0  0  0  0  0  0  0  0  0  0  # atno 7974 bound_to 7965
  156.0228  140.1265  157.0340 H   0  0  0  0  0  0  0  0  0  0  0  0  # atno 8008 bound_to 7997
  154.4318  140.1065  156.6058 H   0  0  0  0  0  0  0  0  0  0  0  0  # atno 8009 bound_to 7997
  155.5920  140.3469  155.4571 H   0  0  0  0  0  0  0  0  0  0  0  0  # atno 8010 bound_to 7997
  139.5329  144.6651  151.4885 H   0  0  0  0  0  0  0  0  0  0  0  0  # atno 10167 bound_to 10162
  156.2094  130.6908  151.0632 H   0  0  0  0  0  0  0  0  0  0  0  0  # atno 10718 bound_to 10713
  153.0899  135.4865  154.8669 H   0  0  0  0  0  0  0  0  0  0  0  0  # atno 10763 bound_to 10752
  154.7256  135.3049  154.8979 H   0  0  0  0  0  0  0  0  0  0  0  0  # atno 10764 bound_to 10752
  153.9630  135.6810  153.4798 H   0  0  0  0  0  0  0  0  0  0  0  0  # atno 10765 bound_to 10752
  140.6420  133.9481  155.8331 H   0  0  0  0  0  0  0  0  0  0  0  0  # atno 11005 bound_to 11000
  144.6814  140.2584  143.7322 LP  0  0  0  0  0  0  0  0  0  0  0  0  # atno 17320 bound_to 7965
  145.8045  139.1978  143.2029 LP  0  0  0  0  0  0  0  0  0  0  0  0  # atno 17321 bound_to 7965
  140.6519  143.8679  150.6794 LP  0  0  0  0  0  0  0  0  0  0  0  0  # atno 17342 bound_to 10162
  140.2046  143.3932  152.1765 LP  0  0  0  0  0  0  0  0  0  0  0  0  # atno 17343 bound_to 10162
  157.7030  131.0768  150.6759 LP  0  0  0  0  0  0  0  0  0  0  0  0  # atno 17370 bound_to 10713
  156.6818  130.4569  149.5625 LP  0  0  0  0  0  0  0  0  0  0  0  0  # atno 17371 bound_to 10713
  141.0600  134.0360  157.3671 LP  0  0  0  0  0  0  0  0  0  0  0  0  # atno 17394 bound_to 11000
  139.9077  135.0183  156.7556 LP  0  0  0  0  0  0  0  0  0  0  0  0  # atno 17395 bound_to 11000

$$$$
