AV-unprocessed.smi:2528|AV-procd|sdf|9958|dock5
  -GOLD-   2272013593D 1   1.00000     0.00000
 Structure written by MMmdl.
 43 45  0  0  0  0  0  0  0  0  1 V2000
  149.9443  135.6333  156.1771 O   0  0  0  0  0  0  0  0  0  0  0  0
  149.6227  135.8704  155.0123 C   0  0  0  0  0  0  0  0  0  0  0  0
  149.4271  137.1092  154.5384 N   0  0  0  0  0  0  0  0  0  0  0  0
  149.5781  138.3350  155.3147 C   0  0  0  0  0  0  0  0  0  0  0  0
  150.8837  139.0787  154.9580 C   0  0  2  0  0  0  0  0  0  0  0  0
  152.0305  138.7964  155.9473 C   0  0  0  0  0  0  0  0  0  0  0  0
  151.8413  139.4531  157.2353 N   0  0  0  0  0  0  0  0  0  0  0  0
  152.9634  139.1815  158.1327 C   0  0  0  0  0  0  0  0  0  0  0  0
  152.7837  139.8325  159.5128 C   0  0  0  0  0  0  0  0  0  0  0  0
  152.5808  141.3466  159.3631 C   0  0  0  0  0  0  0  0  0  0  0  0
  151.4334  141.6279  158.3812 C   0  0  0  0  0  0  0  0  0  0  0  0
  151.6572  140.8942  157.0419 C   0  0  2  0  0  0  0  0  0  0  0  0
  150.4915  141.1768  156.0736 C   0  0  0  0  0  0  0  0  0  0  0  0
  150.6882  140.4896  154.8407 O   0  0  0  0  0  0  0  0  0  0  0  0
  149.4259  134.9465  154.0554 N   0  0  0  0  0  0  0  0  0  0  0  0
  149.5256  133.5336  154.1650 C   0  0  0  0  0  0  0  0  0  0  0  0
  150.2986  133.0701  155.2538 C   0  0  0  0  0  0  0  0  0  0  0  0
  150.4595  131.6846  155.4496 C   0  0  0  0  0  0  0  0  0  0  0  0
  149.8434  130.7967  154.5499 C   0  0  0  0  0  0  0  0  0  0  0  0
  149.0912  131.3403  153.4925 C   0  0  0  0  0  0  0  0  0  0  0  0
  148.9356  132.6676  153.3031 N   0  0  0  0  0  0  0  0  0  0  0  0
  149.1683  137.2149  153.5687 H   0  0  0  0  0  0  0  0  0  0  0  0
  148.7069  138.9640  155.1350 H   0  0  0  0  0  0  0  0  0  0  0  0
  149.5607  138.1005  156.3804 H   0  0  0  0  0  0  0  0  0  0  0  0
  151.2064  138.7284  153.9769 H   0  0  0  0  0  0  0  0  0  0  0  0
  152.1348  137.7200  156.0892 H   0  0  0  0  0  0  0  0  0  0  0  0
  152.9665  139.1378  155.5023 H   0  0  0  0  0  0  0  0  0  0  0  0
  153.0775  138.1044  158.2600 H   0  0  0  0  0  0  0  0  0  0  0  0
  153.8914  139.5385  157.6834 H   0  0  0  0  0  0  0  0  0  0  0  0
  151.9217  139.3926  160.0162 H   0  0  0  0  0  0  0  0  0  0  0  0
  153.6512  139.6289  160.1412 H   0  0  0  0  0  0  0  0  0  0  0  0
  152.3717  141.8003  160.3322 H   0  0  0  0  0  0  0  0  0  0  0  0
  153.4994  141.8041  158.9936 H   0  0  0  0  0  0  0  0  0  0  0  0
  150.4901  141.3063  158.8250 H   0  0  0  0  0  0  0  0  0  0  0  0
  151.3474  142.7019  158.2141 H   0  0  0  0  0  0  0  0  0  0  0  0
  152.5642  141.2993  156.5895 H   0  0  0  0  0  0  0  0  0  0  0  0
  149.5374  140.8889  156.5157 H   0  0  0  0  0  0  0  0  0  0  0  0
  150.4258  142.2447  155.8639 H   0  0  0  0  0  0  0  0  0  0  0  0
  149.1741  135.2946  153.1422 H   0  0  0  0  0  0  0  0  0  0  0  0
  150.7652  133.7665  155.9356 H   0  0  0  0  0  0  0  0  0  0  0  0
  151.0458  131.3106  156.2760 H   0  0  0  0  0  0  0  0  0  0  0  0
  149.9444  129.7276  154.6663 H   0  0  0  0  0  0  0  0  0  0  0  0
  148.6020  130.6934  152.7794 H   0  0  0  0  0  0  0  0  0  0  0  0
  1  2  2  0  0  0  0
  2  3  1  0  0  0  0
  2 15  1  0  0  0  0
  3  4  1  0  0  0  0
  3 22  1  0  0  0  0
  4  5  1  0  0  0  0
  4 23  1  0  0  0  0
  4 24  1  0  0  0  0
  5 14  1  0  0  0  0
  5  6  1  0  0  0  0
  5 25  1  0  0  0  0
  6  7  1  0  0  0  0
  6 26  1  0  0  0  0
  6 27  1  0  0  0  0
  7 12  1  0  0  0  0
  7  8  1  0  0  0  0
  8  9  1  0  0  0  0
  8 28  1  0  0  0  0
  8 29  1  0  0  0  0
  9 10  1  0  0  0  0
  9 30  1  0  0  0  0
  9 31  1  0  0  0  0
 10 11  1  0  0  0  0
 10 32  1  0  0  0  0
 10 33  1  0  0  0  0
 11 12  1  0  0  0  0
 11 34  1  0  0  0  0
 11 35  1  0  0  0  0
 12 13  1  0  0  0  0
 12 36  1  0  0  0  0
 13 14  1  0  0  0  0
 13 37  1  0  0  0  0
 13 38  1  0  0  0  0
 15 16  1  0  0  0  0
 15 39  1  0  0  0  0
 16 21  1  0  0  0  0
 16 17  2  0  0  0  0
 17 18  1  0  0  0  0
 17 40  1  0  0  0  0
 18 19  2  0  0  0  0
 18 41  1  0  0  0  0
 19 20  1  0  0  0  0
 19 42  1  0  0  0  0
 20 21  2  0  0  0  0
 20 43  1  0  0  0  0
M  END
> <s_m_source_file>
AV-unprocessed.smi

> <i_m_source_file_index>
2528

> <i_lp_mmshare_version>
43012

> <i_f3d_flags>
0

> <s_epik_input>
bjFbY0hdW2NIXVtjSF1bY0hdYzFbTkhdQyg9TylbTkhdW0NIMl1bQ0BIXShbQ0gyXTIpT1tDSDJdW0NAQEhdKE4yMylbQ0gyXVtDSDJdW0NIMl1bQ0gyXTM=

> <s_epik_cmdline>
J2VwaWtfcHl0aG9uJywgJy1waCcsICc3LjAnLCAnLXRuJywgJzgnLCAnLW1hJywgJzIwMCcsICctbWV0YWxfYmluZGluZycsICctaW1hZScsICc8aW5maWxlLm1hZT4nLCAnLW9tYWUnLCAnPG91dGZpbGUubWFlPic=

> <r_epik_Ionization_Penalty>
1.14192

> <r_epik_Ionization_Penalty_Charging>
0

> <r_epik_Ionization_Penalty_Neutral>
1.14192

> <r_epik_State_Penalty>
1.20248

> <r_epik_Charging_Adjusted_Penalty>
1.20248

> <i_epik_Tot_Q>
0

> <i_epik_Tot_abs_Q>
0

> <r_epik_Metal_State_Penalty>
1.20248

> <b_epik_Metal_Only>
0

> <s_lp_Force_Field>
OPLS_2005

> <r_lp_Energy>
38.2617

> <b_lp_Chiralities_Consistent>
1

> <s_lp_Variant>
AV-unprocessed.smi:2528-11

> <Gold.Version>
5.8.1

> <Gold.Id.Protein>
6NUR|6NUR_protein|mol2

> <Gold.PLP.Fitness>
42.6990

> <Gold.PLP.PLP>
-33.2484

> <Gold.PLP.part.hbond>
-3.2116

> <Gold.PLP.part.metal>
0.0000

> <Gold.PLP.part.buried>
-1.7527

> <Gold.PLP.part.nonpolar>
-26.6614

> <Gold.PLP.part.repulsive>
0.3193

> <Gold.PLP.ligand.clash>
0.0948

> <Gold.PLP.ligand.torsion>
0.7603

> <Gold.PLP.Chemscore.Hbond>
2.8480

> <Gold.PLP.Chemscore.CHOScore>
0.8385

> <Gold.PLP.Chemscore.Metal>
0.0000

> <Gold.Chemscore.Hbonds>
donor molecule, donor type, donor heavy atom, donor atom, acceptor molecule, acceptor atom, score
      L1  H     3    22       P1  7948  0.86
      L1  H    15    39       P1  7948  0.90
      P1  H  7989  7998       L1    14  1.00
      L1  C    20    43       P1 10747  0.86

> <Gold.PLP.Chemscore.Internal.Correction>
0.0064

> <Gold.Rescore>
     Score         DG    S(hbond)    S(metal)    S(lipo)     H(rot)  DE(clash)    DE(int)     intcor
     17.17     -19.40       2.52        0.00      74.73       1.27       0.02       2.21       ----

> <Gold.Chemscore.Fitness>
17.1665

> <Gold.Chemscore.DG>
-19.3992

> <Gold.Chemscore.ZeroCoef>
-5.4800

> <Gold.Chemscore.Hbond>
2.5226

> <Gold.Chemscore.Metal>
0.0000

> <Gold.Chemscore.Lipo>
74.7331

> <Gold.Chemscore.Internal_Hbond>
0.0000

> <Gold.Chemscore.DEClash>
0.0186

> <Gold.Chemscore.DEInternal>
2.2141

> <Gold.Chemscore.Rot>
1.2696

> <Gold.Chemscore.Internal.Correction>
   9.000000E+99

> <Gold.Chemscore.Hbonds>
donor molecule, donor type, donor heavy atom, donor atom, acceptor molecule, acceptor atom, score
      L1  H     3    22       P1  7948  0.83
      L1  H    15    39       P1  7948  0.17
      P1  H  7989  7998       L1    14  0.38

> <Gold.Chemscore.Hbond.Weighted>
-8.4256

> <Gold.Chemscore.Metal.Weighted>
-0.0000

> <Gold.Chemscore.Lipo.Weighted>
-8.7438

> <Gold.Chemscore.Internal_Hbond.Weighted>
0.0000

> <Gold.Chemscore.DEClash.Weighted>
0.0186

> <Gold.Chemscore.DEInternal.Weighted>
2.2141

> <Gold.Chemscore.Rot.Weighted>
3.2502

> <Gold.Chemscore.Internal.Correction.Weighted>
   9.000000E+99

> <Gold.Protein.RotatedTorsions>
[ 6907 6896 6895 6894 ] final -107.84 input  -60.11 | X-H torsion
[ 7974 7965 7964 7962 ] final -104.26 input  175.53 | X-H torsion
[ 8008 7997 7996 7995 ] final  -44.38 input   59.86 | X-H torsion
[ 10167 10162 10161 10158 ] final  107.24 input  -65.29 | X-H torsion
[ 10718 10713 10712 10709 ] final   61.40 input   66.30 | X-H torsion
[ 10763 10752 10751 10750 ] final    1.64 input  -60.55 | X-H torsion
[ 11005 11000 10999 10996 ] final  -43.24 input  -57.11 | X-H torsion

> <Gold.Protein.ActiveResidues>
 VAL166  LYS551  ARG553  GLY616  TRP617  ASP618  TYR619  PRO620  LYS621  CYS622 
 ASP623  PHE694  ASN695  SER759  ASP760  ASP761  ALA762  ILE779  LEU786  VAL792 
 PHE793  MET794  SER795  GLU796  ALA797  LYS798  CYS799  TRP800  GLU811  SER814 

> <Gold.Protein.RotatedAtoms>
  150.7467  133.9766  159.3562 H   0  0  0  0  0  0  0  0  0  0  0  0  # atno 6907 bound_to 6896
  151.7704  135.0785  160.0368 H   0  0  0  0  0  0  0  0  0  0  0  0  # atno 6908 bound_to 6896
  152.3343  133.5956  159.5867 H   0  0  0  0  0  0  0  0  0  0  0  0  # atno 6909 bound_to 6896
  145.2454  140.9220  143.3126 H   0  0  0  0  0  0  0  0  0  0  0  0  # atno 7974 bound_to 7965
  154.3997  140.1423  156.3674 H   0  0  0  0  0  0  0  0  0  0  0  0  # atno 8008 bound_to 7997
  155.8124  140.3472  155.5445 H   0  0  0  0  0  0  0  0  0  0  0  0  # atno 8009 bound_to 7997
  155.8372  140.0921  157.1747 H   0  0  0  0  0  0  0  0  0  0  0  0  # atno 8010 bound_to 7997
  139.6943  144.7103  151.1294 H   0  0  0  0  0  0  0  0  0  0  0  0  # atno 10167 bound_to 10162
  157.5825  130.8992  149.9456 H   0  0  0  0  0  0  0  0  0  0  0  0  # atno 10718 bound_to 10713
  153.3054  135.6959  153.7164 H   0  0  0  0  0  0  0  0  0  0  0  0  # atno 10763 bound_to 10752
  153.6062  135.3453  155.2963 H   0  0  0  0  0  0  0  0  0  0  0  0  # atno 10764 bound_to 10752
  154.8562  135.4352  154.2178 H   0  0  0  0  0  0  0  0  0  0  0  0  # atno 10765 bound_to 10752
  141.0370  133.6795  156.2706 H   0  0  0  0  0  0  0  0  0  0  0  0  # atno 11005 bound_to 11000
  144.9551  139.4041  143.6383 LP  0  0  0  0  0  0  0  0  0  0  0  0  # atno 17320 bound_to 7965
  146.3317  139.8577  142.8862 LP  0  0  0  0  0  0  0  0  0  0  0  0  # atno 17321 bound_to 7965
  140.7692  143.5514  150.9200 LP  0  0  0  0  0  0  0  0  0  0  0  0  # atno 17342 bound_to 10162
  139.9193  143.6625  152.3100 LP  0  0  0  0  0  0  0  0  0  0  0  0  # atno 17343 bound_to 10162
  156.0871  130.3667  150.0466 LP  0  0  0  0  0  0  0  0  0  0  0  0  # atno 17370 bound_to 10713
  156.8602  130.9489  151.3618 LP  0  0  0  0  0  0  0  0  0  0  0  0  # atno 17371 bound_to 10713
  140.6303  134.5270  157.5559 LP  0  0  0  0  0  0  0  0  0  0  0  0  # atno 17394 bound_to 11000
  139.9248  134.8077  156.1102 LP  0  0  0  0  0  0  0  0  0  0  0  0  # atno 17395 bound_to 11000

$$$$
