AV-unprocessed.smi:2944|AV-procd|sdf|11273|dock6
  -GOLD-   2272016163D 1   1.00000     0.00000
 Structure written by MMmdl.
 44 46  0  0  0  0  0  0  0  0  1 V2000
  153.3099  137.2641  161.0326 C   0  0  0  0  0  0  0  0  0  0  0  0
  152.4527  136.9731  159.9432 O   0  0  0  0  0  0  0  0  0  0  0  0
  151.7770  138.1226  159.4598 C   0  0  0  0  0  0  0  0  0  0  0  0
  152.8028  139.1688  159.0016 C   0  0  0  0  0  0  0  0  0  0  0  0
  152.1731  140.4317  158.6453 N   0  0  0  0  0  0  0  0  0  0  0  0
  151.3850  140.6943  157.5733 C   0  0  0  0  0  0  0  0  0  0  0  0
  150.9891  139.4313  156.3947 S   0  0  0  0  0  0  0  0  0  0  0  0
  149.7423  140.2922  155.3785 C   0  0  1  0  0  0  0  0  0  0  0  0
  149.2190  139.3414  154.2913 C   0  0  0  0  0  0  0  0  0  0  0  0
  148.5633  140.8225  156.2267 C   0  0  0  0  0  0  0  0  0  0  0  0
  148.5636  140.5456  157.4282 O   0  0  0  0  0  0  0  0  0  0  0  0
  147.5832  141.6042  155.6971 N   0  0  0  0  0  0  0  0  0  0  0  0
  147.4752  141.7829  154.2485 C   0  0  0  0  0  0  0  0  0  0  0  0
  146.2358  142.6501  154.0643 C   0  0  0  0  0  0  0  0  0  0  0  0
  145.8496  142.9106  155.4283 N   0  0  0  0  0  0  0  0  0  0  0  0
  146.6375  142.3325  156.3383 C   0  0  0  0  0  0  0  0  0  0  0  0
  146.4861  142.4906  157.5489 O   0  0  0  0  0  0  0  0  0  0  0  0
  150.9382  141.9492  157.4882 N   0  0  0  0  0  0  0  0  0  0  0  0
  151.4945  142.5540  158.5967 C   0  0  0  0  0  0  0  0  0  0  0  0
  151.3992  143.8853  159.0613 C   0  0  0  0  0  0  0  0  0  0  0  0
  152.0701  144.2796  160.2375 C   0  0  0  0  0  0  0  0  0  0  0  0
  152.8441  143.3510  160.9631 C   0  0  0  0  0  0  0  0  0  0  0  0
  152.9507  142.0194  160.5175 C   0  0  0  0  0  0  0  0  0  0  0  0
  152.2772  141.6306  159.3437 C   0  0  0  0  0  0  0  0  0  0  0  0
  153.8134  136.3529  161.3554 H   0  0  0  0  0  0  0  0  0  0  0  0
  152.7487  137.6575  161.8810 H   0  0  0  0  0  0  0  0  0  0  0  0
  154.0741  137.9898  160.7509 H   0  0  0  0  0  0  0  0  0  0  0  0
  151.1235  137.8503  158.6295 H   0  0  0  0  0  0  0  0  0  0  0  0
  151.1466  138.5422  160.2450 H   0  0  0  0  0  0  0  0  0  0  0  0
  153.5455  139.3444  159.7802 H   0  0  0  0  0  0  0  0  0  0  0  0
  153.3522  138.7957  158.1368 H   0  0  0  0  0  0  0  0  0  0  0  0
  150.2936  141.0965  154.8984 H   0  0  0  0  0  0  0  0  0  0  0  0
  148.5023  139.8403  153.6378 H   0  0  0  0  0  0  0  0  0  0  0  0
  148.7249  138.4705  154.7242 H   0  0  0  0  0  0  0  0  0  0  0  0
  150.0351  138.9813  153.6645 H   0  0  0  0  0  0  0  0  0  0  0  0
  148.3634  142.2812  153.8552 H   0  0  0  0  0  0  0  0  0  0  0  0
  147.3640  140.8232  153.7404 H   0  0  0  0  0  0  0  0  0  0  0  0
  146.4561  143.5793  153.5378 H   0  0  0  0  0  0  0  0  0  0  0  0
  145.4400  142.1211  153.5384 H   0  0  0  0  0  0  0  0  0  0  0  0
  145.0721  143.5107  155.6630 H   0  0  0  0  0  0  0  0  0  0  0  0
  150.8101  144.6041  158.5113 H   0  0  0  0  0  0  0  0  0  0  0  0
  151.9921  145.2997  160.5838 H   0  0  0  0  0  0  0  0  0  0  0  0
  153.3568  143.6613  161.8621 H   0  0  0  0  0  0  0  0  0  0  0  0
  153.5454  141.3072  161.0698 H   0  0  0  0  0  0  0  0  0  0  0  0
  1  2  1  0  0  0  0
  1 25  1  0  0  0  0
  1 26  1  0  0  0  0
  1 27  1  0  0  0  0
  2  3  1  0  0  0  0
  3  4  1  0  0  0  0
  3 28  1  0  0  0  0
  3 29  1  0  0  0  0
  4  5  1  0  0  0  0
  4 30  1  0  0  0  0
  4 31  1  0  0  0  0
  5 24  1  0  0  0  0
  5  6  1  0  0  0  0
  6  7  1  0  0  0  0
  6 18  2  0  0  0  0
  7  8  1  0  0  0  0
  8  9  1  0  0  0  0
  8 10  1  0  0  0  0
  8 32  1  0  0  0  0
  9 33  1  0  0  0  0
  9 34  1  0  0  0  0
  9 35  1  0  0  0  0
 10 11  2  0  0  0  0
 10 12  1  0  0  0  0
 12 16  1  0  0  0  0
 12 13  1  0  0  0  0
 13 14  1  0  0  0  0
 13 36  1  0  0  0  0
 13 37  1  0  0  0  0
 14 15  1  0  0  0  0
 14 38  1  0  0  0  0
 14 39  1  0  0  0  0
 15 16  1  0  0  0  0
 15 40  1  0  0  0  0
 16 17  2  0  0  0  0
 18 19  1  0  0  0  0
 19 24  2  0  0  0  0
 19 20  1  0  0  0  0
 20 21  2  0  0  0  0
 20 41  1  0  0  0  0
 21 22  1  0  0  0  0
 21 42  1  0  0  0  0
 22 23  2  0  0  0  0
 22 43  1  0  0  0  0
 23 24  1  0  0  0  0
 23 44  1  0  0  0  0
M  END
> <s_m_source_file>
AV-unprocessed.smi

> <i_m_source_file_index>
2944

> <i_lp_mmshare_version>
43012

> <i_f3d_flags>
0

> <s_epik_input>
W2NIXTFbY0hdW2NIXVtjSF1jKGMxMiluKFtDSDJdW0NIMl1PW0NIM10pYyhuMilTW0NASF0oW0NIM10pQyg9TylOM1tDSDJdW0NIMl1bTkhdQzM9Tw==

> <s_epik_cmdline>
J2VwaWtfcHl0aG9uJywgJy1waCcsICc3LjAnLCAnLXRuJywgJzgnLCAnLW1hJywgJzIwMCcsICctbWV0YWxfYmluZGluZycsICctaW1hZScsICc8aW5maWxlLm1hZT4nLCAnLW9tYWUnLCAnPG91dGZpbGUubWFlPic=

> <r_lp_tautomer_probability>
0.9999

> <r_epik_Ionization_Penalty>
0.0250226

> <r_epik_Ionization_Penalty_Charging>
0

> <r_epik_Ionization_Penalty_Neutral>
0.0250226

> <r_epik_State_Penalty>
0.0203222

> <r_epik_Charging_Adjusted_Penalty>
0.0203222

> <i_epik_Tot_Q>
0

> <i_epik_Tot_abs_Q>
0

> <r_epik_Metal_State_Penalty>
0.0194901

> <b_epik_Metal_Only>
0

> <s_lp_Force_Field>
OPLS_2005

> <r_lp_Energy>
41.7508

> <b_lp_Chiralities_Consistent>
1

> <s_lp_Variant>
AV-unprocessed.smi:2944-2

> <Gold.Version>
5.8.1

> <Gold.Id.Protein>
6NUR|6NUR_protein|mol2

> <Gold.PLP.Fitness>
48.3689

> <Gold.PLP.PLP>
-45.6792

> <Gold.PLP.part.hbond>
-1.0000

> <Gold.PLP.part.metal>
0.0000

> <Gold.PLP.part.buried>
-5.3183

> <Gold.PLP.part.nonpolar>
-39.6488

> <Gold.PLP.part.repulsive>
0.2645

> <Gold.PLP.ligand.clash>
0.0000

> <Gold.PLP.ligand.torsion>
0.2599

> <Gold.PLP.Chemscore.Hbond>
1.0000

> <Gold.PLP.Chemscore.CHOScore>
0.0000

> <Gold.PLP.Chemscore.Metal>
0.0000

> <Gold.Chemscore.Hbonds>
donor molecule, donor type, donor heavy atom, donor atom, acceptor molecule, acceptor atom, score
      P1  H  6896  6908       L1     2  1.00

> <Gold.PLP.Chemscore.Internal.Correction>
0.2096

> <Gold.Rescore>
     Score         DG    S(hbond)    S(metal)    S(lipo)     H(rot)  DE(clash)    DE(int)     intcor
     14.20     -16.32       0.97        0.00     113.81       2.24       0.15       1.96       ----

> <Gold.Chemscore.Fitness>
14.2033

> <Gold.Chemscore.DG>
-16.3208

> <Gold.Chemscore.ZeroCoef>
-5.4800

> <Gold.Chemscore.Hbond>
0.9724

> <Gold.Chemscore.Metal>
0.0000

> <Gold.Chemscore.Lipo>
113.8143

> <Gold.Chemscore.Internal_Hbond>
0.0000

> <Gold.Chemscore.DEClash>
0.1539

> <Gold.Chemscore.DEInternal>
1.9636

> <Gold.Chemscore.Rot>
2.2357

> <Gold.Chemscore.Internal.Correction>
   9.000000E+99

> <Gold.Chemscore.Hbonds>
donor molecule, donor type, donor heavy atom, donor atom, acceptor molecule, acceptor atom, score
      P1  H  6896  6908       L1     2  0.81

> <Gold.Chemscore.Hbond.Weighted>
-3.2479

> <Gold.Chemscore.Metal.Weighted>
-0.0000

> <Gold.Chemscore.Lipo.Weighted>
-13.3163

> <Gold.Chemscore.Internal_Hbond.Weighted>
0.0000

> <Gold.Chemscore.DEClash.Weighted>
0.1539

> <Gold.Chemscore.DEInternal.Weighted>
1.9636

> <Gold.Chemscore.Rot.Weighted>
5.7234

> <Gold.Chemscore.Internal.Correction.Weighted>
   9.000000E+99

> <Gold.Protein.RotatedTorsions>
[ 6907 6896 6895 6894 ] final -111.46 input  -60.11 | X-H torsion
[ 7974 7965 7964 7962 ] final  175.18 input  175.53 | X-H torsion
[ 8008 7997 7996 7995 ] final    7.25 input   59.86 | X-H torsion
[ 10167 10162 10161 10158 ] final -149.10 input  -65.29 | X-H torsion
[ 10718 10713 10712 10709 ] final -127.46 input   66.30 | X-H torsion
[ 10763 10752 10751 10750 ] final   15.75 input  -60.55 | X-H torsion
[ 11005 11000 10999 10996 ] final    2.72 input  -57.11 | X-H torsion

> <Gold.Protein.ActiveResidues>
 VAL166  LYS551  ARG553  GLY616  TRP617  ASP618  TYR619  PRO620  LYS621  CYS622 
 ASP623  PHE694  ASN695  SER759  ASP760  ASP761  ALA762  ILE779  LEU786  VAL792 
 PHE793  MET794  SER795  GLU796  ALA797  LYS798  CYS799  TRP800  GLU811  SER814 

> <Gold.Protein.RotatedAtoms>
  150.7692  133.9232  159.3404 H   0  0  0  0  0  0  0  0  0  0  0  0  # atno 6907 bound_to 6896
  151.7122  135.0908  160.0279 H   0  0  0  0  0  0  0  0  0  0  0  0  # atno 6908 bound_to 6896
  152.3702  133.6371  159.6117 H   0  0  0  0  0  0  0  0  0  0  0  0  # atno 6909 bound_to 6896
  144.7207  139.9907  143.6440 H   0  0  0  0  0  0  0  0  0  0  0  0  # atno 7974 bound_to 7965
  154.7515  140.2768  155.6289 H   0  0  0  0  0  0  0  0  0  0  0  0  # atno 8008 bound_to 7997
  156.2896  140.2677  156.2196 H   0  0  0  0  0  0  0  0  0  0  0  0  # atno 8009 bound_to 7997
  155.0131  140.0372  157.2397 H   0  0  0  0  0  0  0  0  0  0  0  0  # atno 8010 bound_to 7997
  139.7472  143.8573  152.2577 H   0  0  0  0  0  0  0  0  0  0  0  0  # atno 10167 bound_to 10162
  156.1859  130.6763  151.0364 H   0  0  0  0  0  0  0  0  0  0  0  0  # atno 10718 bound_to 10713
  153.1495  135.6776  153.8903 H   0  0  0  0  0  0  0  0  0  0  0  0  # atno 10763 bound_to 10752
  153.8334  135.3114  155.3422 H   0  0  0  0  0  0  0  0  0  0  0  0  # atno 10764 bound_to 10752
  154.7851  135.4866  154.0015 H   0  0  0  0  0  0  0  0  0  0  0  0  # atno 10765 bound_to 10752
  140.6011  133.9835  155.8132 H   0  0  0  0  0  0  0  0  0  0  0  0  # atno 11005 bound_to 11000
  146.0414  139.3425  143.0695 LP  0  0  0  0  0  0  0  0  0  0  0  0  # atno 17320 bound_to 7965
  145.8330  140.9620  143.0839 LP  0  0  0  0  0  0  0  0  0  0  0  0  # atno 17321 bound_to 7965
  139.8540  144.7150  150.9179 LP  0  0  0  0  0  0  0  0  0  0  0  0  # atno 17342 bound_to 10162
  140.7793  143.3874  151.1369 LP  0  0  0  0  0  0  0  0  0  0  0  0  # atno 17343 bound_to 10162
  157.6899  131.0813  150.7138 LP  0  0  0  0  0  0  0  0  0  0  0  0  # atno 17370 bound_to 10713
  156.7195  130.4676  149.5526 LP  0  0  0  0  0  0  0  0  0  0  0  0  # atno 17371 bound_to 10713
  141.0871  133.9973  157.3296 LP  0  0  0  0  0  0  0  0  0  0  0  0  # atno 17394 bound_to 11000
  139.9232  135.0201  156.8140 LP  0  0  0  0  0  0  0  0  0  0  0  0  # atno 17395 bound_to 11000

$$$$
