AV-unprocessed.smi:3128|AV-procd|sdf|11918|dock6
  -GOLD-   2272017293D 1   1.00000     0.00000
 Structure written by MMmdl.
 40 40  0  0  0  0  0  0  0  0  2 V2000
  150.7032  140.5173  156.0312 C   0  0  0  0  0  0  0  0  0  0  0  0
  149.7342  140.3359  154.8491 C   0  0  0  0  0  0  0  0  0  0  0  0
  148.6166  141.3932  154.9375 C   0  0  0  0  0  0  0  0  0  0  0  0
  149.1751  138.8860  154.7645 C   0  0  2  0  0  0  0  0  0  0  0  0
  150.2273  137.7909  155.0361 C   0  0  0  0  0  0  0  0  0  0  0  0
  148.4729  138.6206  153.5044 N   0  0  0  0  0  0  0  0  0  0  0  0
  147.2868  139.1148  153.1102 C   0  0  0  0  0  0  0  0  0  0  0  0
  146.6152  139.8983  153.7817 O   0  0  0  0  0  0  0  0  0  0  0  0
  146.7935  138.6547  151.7383 C   0  0  0  0  0  0  0  0  0  0  0  0
  145.3696  138.2671  151.7694 N   0  3  0  0  0  0  0  0  0  0  0  0
  145.1260  136.8872  152.2349 C   0  0  0  0  0  0  0  0  0  0  0  0
  145.7848  135.8526  151.3085 C   0  0  0  0  0  0  0  0  0  0  0  0
  144.9162  134.7187  151.0469 N   0  0  0  0  0  0  0  0  0  0  0  0
  144.8588  133.9242  149.9212 C   0  0  0  0  0  0  0  0  0  0  0  0
  143.8974  132.9794  150.1397 C   0  0  0  0  0  0  0  0  0  0  0  0
  143.4140  133.2829  151.4430 C   0  0  0  0  0  0  0  0  0  0  0  0
  144.0272  134.3234  151.9840 N   0  0  0  0  0  0  0  0  0  0  0  0
  150.2223  140.2738  156.9790 H   0  0  0  0  0  0  0  0  0  0  0  0
  151.0553  141.5473  156.0953 H   0  0  0  0  0  0  0  0  0  0  0  0
  151.5874  139.8886  155.9311 H   0  0  0  0  0  0  0  0  0  0  0  0
  150.3018  140.5416  153.9410 H   0  0  0  0  0  0  0  0  0  0  0  0
  147.9833  141.2263  155.8093 H   0  0  0  0  0  0  0  0  0  0  0  0
  147.9779  141.3870  154.0545 H   0  0  0  0  0  0  0  0  0  0  0  0
  149.0332  142.3975  155.0187 H   0  0  0  0  0  0  0  0  0  0  0  0
  148.4097  138.7866  155.5353 H   0  0  0  0  0  0  0  0  0  0  0  0
  150.5872  137.8280  156.0638 H   0  0  0  0  0  0  0  0  0  0  0  0
  151.0924  137.8885  154.3799 H   0  0  0  0  0  0  0  0  0  0  0  0
  149.8054  136.7967  154.8857 H   0  0  0  0  0  0  0  0  0  0  0  0
  148.9405  137.9896  152.8697 H   0  0  0  0  0  0  0  0  0  0  0  0
  146.9367  139.4638  151.0212 H   0  0  0  0  0  0  0  0  0  0  0  0
  147.3904  137.8058  151.4011 H   0  0  0  0  0  0  0  0  0  0  0  0
  144.8828  138.9009  152.3877 H   0  0  0  0  0  0  0  0  0  0  0  0
  145.5232  136.7828  153.2452 H   0  0  0  0  0  0  0  0  0  0  0  0
  144.0523  136.7027  152.2931 H   0  0  0  0  0  0  0  0  0  0  0  0
  146.0740  136.3084  150.3602 H   0  0  0  0  0  0  0  0  0  0  0  0
  146.7014  135.4790  151.7670 H   0  0  0  0  0  0  0  0  0  0  0  0
  145.5000  134.0935  149.0685 H   0  0  0  0  0  0  0  0  0  0  0  0
  143.5853  132.1918  149.4699 H   0  0  0  0  0  0  0  0  0  0  0  0
  142.6427  132.7808  152.0086 H   0  0  0  0  0  0  0  0  0  0  0  0
  144.9859  138.3735  150.8409 H   0  0  0  0  0  0  0  0  0  0  0  0
  1  2  1  0  0  0  0
  1 18  1  0  0  0  0
  1 19  1  0  0  0  0
  1 20  1  0  0  0  0
  2  3  1  0  0  0  0
  2  4  1  0  0  0  0
  2 21  1  0  0  0  0
  3 22  1  0  0  0  0
  3 23  1  0  0  0  0
  3 24  1  0  0  0  0
  4  5  1  0  0  0  0
  4  6  1  0  0  0  0
  4 25  1  0  0  0  0
  5 26  1  0  0  0  0
  5 27  1  0  0  0  0
  5 28  1  0  0  0  0
  6  7  1  0  0  0  0
  6 29  1  0  0  0  0
  7  8  2  0  0  0  0
  7  9  1  0  0  0  0
  9 10  1  0  0  0  0
  9 30  1  0  0  0  0
  9 31  1  0  0  0  0
 10 11  1  0  0  0  0
 10 32  1  0  0  0  0
 10 40  1  0  0  0  0
 11 12  1  0  0  0  0
 11 33  1  0  0  0  0
 11 34  1  0  0  0  0
 12 13  1  0  0  0  0
 12 35  1  0  0  0  0
 12 36  1  0  0  0  0
 13 17  1  0  0  0  0
 13 14  1  0  0  0  0
 14 15  2  0  0  0  0
 14 37  1  0  0  0  0
 15 16  1  0  0  0  0
 15 38  1  0  0  0  0
 16 17  2  0  0  0  0
 16 39  1  0  0  0  0
M  CHG  1  10   1
M  END
> <s_m_source_file>
AV-unprocessed.smi

> <i_m_source_file_index>
3128

> <i_lp_mmshare_version>
43012

> <i_f3d_flags>
0

> <s_epik_input>
W0NIM11bQ0hdKFtDSDNdKVtDQEhdKFtDSDNdKVtOSF1DKD1PKVtDSDJdW05IXVtDSDJdW0NIMl1uMVtjSF1bY0hdW2NIXW4x

> <s_epik_cmdline>
J2VwaWtfcHl0aG9uJywgJy1waCcsICc3LjAnLCAnLXRuJywgJzgnLCAnLW1hJywgJzIwMCcsICctbWV0YWxfYmluZGluZycsICctaW1hZScsICc8aW5maWxlLm1hZT4nLCAnLW9tYWUnLCAnPG91dGZpbGUubWFlPic=

> <r_lp_tautomer_probability>
1

> <r_epik_Ionization_Penalty>
0.20724

> <r_epik_Ionization_Penalty_Charging>
0.207237

> <r_epik_Ionization_Penalty_Neutral>
3.20642e-06

> <r_epik_State_Penalty>
0.197613

> <r_epik_Charging_Adjusted_Penalty>
0.40485

> <i_epik_Tot_Q>
1

> <i_epik_Tot_abs_Q>
1

> <r_epik_Metal_State_Penalty>
0.197789

> <b_epik_Metal_Only>
0

> <s_lp_Force_Field>
OPLS_2005

> <r_lp_Energy>
3.68696

> <b_lp_Chiralities_Consistent>
1

> <s_lp_Variant>
AV-unprocessed.smi:3128-1

> <Gold.Version>
5.8.1

> <Gold.Id.Protein>
6NUR|6NUR_protein|mol2

> <Gold.PLP.Fitness>
49.3068

> <Gold.PLP.PLP>
-34.6844

> <Gold.PLP.part.hbond>
-3.8055

> <Gold.PLP.part.metal>
0.0000

> <Gold.PLP.part.buried>
0.5234

> <Gold.PLP.part.nonpolar>
-32.4333

> <Gold.PLP.part.repulsive>
0.3862

> <Gold.PLP.ligand.clash>
0.0000

> <Gold.PLP.ligand.torsion>
1.3459

> <Gold.PLP.Chemscore.Hbond>
3.8950

> <Gold.PLP.Chemscore.CHOScore>
1.7882

> <Gold.PLP.Chemscore.Metal>
0.0000

> <Gold.Chemscore.Hbonds>
donor molecule, donor type, donor heavy atom, donor atom, acceptor molecule, acceptor atom, score
      L1  H     6    29       P1  7948  1.00
      L1  H    10    32       P1 10175  1.76
      L1  H    10    40       P1 10171  0.99
      L1  C    14    37       P1  7921  0.23
      L1  C    16    39       P1 10957  0.01

> <Gold.PLP.Chemscore.Internal.Correction>
0.2645

> <Gold.Rescore>
     Score         DG    S(hbond)    S(metal)    S(lipo)     H(rot)  DE(clash)    DE(int)     intcor
     15.08     -17.90       2.84        0.00      74.22       2.24       0.10       2.72       ----

> <Gold.Chemscore.Fitness>
15.0846

> <Gold.Chemscore.DG>
-17.8987

> <Gold.Chemscore.ZeroCoef>
-5.4800

> <Gold.Chemscore.Hbond>
2.8363

> <Gold.Chemscore.Metal>
0.0000

> <Gold.Chemscore.Lipo>
74.2211

> <Gold.Chemscore.Internal_Hbond>
0.0000

> <Gold.Chemscore.DEClash>
0.0990

> <Gold.Chemscore.DEInternal>
2.7150

> <Gold.Chemscore.Rot>
2.2416

> <Gold.Chemscore.Internal.Correction>
   9.000000E+99

> <Gold.Chemscore.Hbonds>
donor molecule, donor type, donor heavy atom, donor atom, acceptor molecule, acceptor atom, score
      L1  H     6    29       P1  7948  0.92
      L1  H    10    32       P1 10175  0.85
      L1  H    10    40       P1 10171  0.91

> <Gold.Chemscore.Hbond.Weighted>
-9.4733

> <Gold.Chemscore.Metal.Weighted>
-0.0000

> <Gold.Chemscore.Lipo.Weighted>
-8.6839

> <Gold.Chemscore.Internal_Hbond.Weighted>
0.0000

> <Gold.Chemscore.DEClash.Weighted>
0.0990

> <Gold.Chemscore.DEInternal.Weighted>
2.7150

> <Gold.Chemscore.Rot.Weighted>
5.7385

> <Gold.Chemscore.Internal.Correction.Weighted>
   9.000000E+99

> <Gold.Protein.RotatedTorsions>
[ 6907 6896 6895 6894 ] final -141.22 input  -60.11 | X-H torsion
[ 7974 7965 7964 7962 ] final -139.63 input  175.53 | X-H torsion
[ 8008 7997 7996 7995 ] final  -76.03 input   59.86 | X-H torsion
[ 10167 10162 10161 10158 ] final  147.72 input  -65.29 | X-H torsion
[ 10718 10713 10712 10709 ] final -134.89 input   66.30 | X-H torsion
[ 10763 10752 10751 10750 ] final -158.61 input  -60.55 | X-H torsion
[ 11005 11000 10999 10996 ] final   61.35 input  -57.11 | X-H torsion

> <Gold.Protein.ActiveResidues>
 VAL166  LYS551  ARG553  GLY616  TRP617  ASP618  TYR619  PRO620  LYS621  CYS622 
 ASP623  PHE694  ASN695  SER759  ASP760  ASP761  ALA762  ILE779  LEU786  VAL792 
 PHE793  MET794  SER795  GLU796  ALA797  LYS798  CYS799  TRP800  GLU811  SER814 

> <Gold.Protein.RotatedAtoms>
  151.0710  133.5466  159.2626 H   0  0  0  0  0  0  0  0  0  0  0  0  # atno 6907 bound_to 6896
  151.2406  135.0587  159.9033 H   0  0  0  0  0  0  0  0  0  0  0  0  # atno 6908 bound_to 6896
  152.5411  134.0485  159.8153 H   0  0  0  0  0  0  0  0  0  0  0  0  # atno 6909 bound_to 6896
  144.8661  140.6295  143.5297 H   0  0  0  0  0  0  0  0  0  0  0  0  # atno 7974 bound_to 7965
  154.5469  140.0734  156.8603 H   0  0  0  0  0  0  0  0  0  0  0  0  # atno 8008 bound_to 7997
  155.3070  140.3388  155.4227 H   0  0  0  0  0  0  0  0  0  0  0  0  # atno 8009 bound_to 7997
  156.1926  140.1691  156.8048 H   0  0  0  0  0  0  0  0  0  0  0  0  # atno 8010 bound_to 7997
  139.4886  144.5734  151.7011 H   0  0  0  0  0  0  0  0  0  0  0  0  # atno 10167 bound_to 10162
  156.2603  130.7206  151.1137 H   0  0  0  0  0  0  0  0  0  0  0  0  # atno 10718 bound_to 10713
  154.7542  135.3100  154.8501 H   0  0  0  0  0  0  0  0  0  0  0  0  # atno 10763 bound_to 10752
  153.9279  135.6788  153.4750 H   0  0  0  0  0  0  0  0  0  0  0  0  # atno 10764 bound_to 10752
  153.1139  135.4853  154.9011 H   0  0  0  0  0  0  0  0  0  0  0  0  # atno 10765 bound_to 10752
  140.0167  134.6214  155.9699 H   0  0  0  0  0  0  0  0  0  0  0  0  # atno 11005 bound_to 11000
  145.4219  139.1562  143.4069 LP  0  0  0  0  0  0  0  0  0  0  0  0  # atno 17320 bound_to 7965
  146.2897  140.4329  142.8744 LP  0  0  0  0  0  0  0  0  0  0  0  0  # atno 17321 bound_to 7965
  140.5326  144.0706  150.6059 LP  0  0  0  0  0  0  0  0  0  0  0  0  # atno 17342 bound_to 10162
  140.3702  143.2859  152.0287 LP  0  0  0  0  0  0  0  0  0  0  0  0  # atno 17343 bound_to 10162
  157.7248  131.0657  150.5980 LP  0  0  0  0  0  0  0  0  0  0  0  0  # atno 17370 bound_to 10713
  156.6067  130.4369  149.5875 LP  0  0  0  0  0  0  0  0  0  0  0  0  # atno 17371 bound_to 10713
  141.1747  133.6539  156.4785 LP  0  0  0  0  0  0  0  0  0  0  0  0  # atno 17394 bound_to 11000
  140.4458  134.6974  157.5015 LP  0  0  0  0  0  0  0  0  0  0  0  0  # atno 17395 bound_to 11000

$$$$
