AV-unprocessed.smi:260|AV-procd|sdf|1980|dock3
  -GOLD-   2262021153D 1   1.00000     0.00000
 Structure written by MMmdl.
 53 56  0  0  0  0  0  0  0  0  1 V2000
  145.7382  131.2810  156.0706 C   0  0  0  0  0  0  0  0  0  0  0  0
  147.0210  131.7463  155.5667 N   0  0  0  0  0  0  0  0  0  0  0  0
  147.4295  133.0251  155.5930 C   0  0  0  0  0  0  0  0  0  0  0  0
  146.7224  133.9270  156.0449 O   0  0  0  0  0  0  0  0  0  0  0  0
  148.8337  133.3658  155.0274 C   0  0  2  0  0  0  0  0  0  0  0  0
  148.8916  132.9451  153.5460 C   0  0  0  0  0  0  0  0  0  0  0  0
  150.0061  132.7773  155.8454 C   0  0  0  0  0  0  0  0  0  0  0  0
  150.2072  133.7597  157.0070 C   0  0  0  0  0  0  0  0  0  0  0  0
  149.6345  135.0185  156.5521 N   0  0  0  0  0  0  0  0  0  0  0  0
  150.0946  136.2085  157.0167 C   0  0  0  0  0  0  0  0  0  0  0  0
  150.3997  136.3231  158.3367 N   0  0  0  0  0  0  0  0  0  0  0  0
  150.8532  137.4786  158.8311 C   0  0  0  0  0  0  0  0  0  0  0  0
  151.0790  138.6276  158.1924 N   0  0  0  0  0  0  0  0  0  0  0  0
  150.7896  138.5178  156.8646 C   0  0  0  0  0  0  0  0  0  0  0  0
  150.2991  137.3583  156.1981 C   0  0  0  0  0  0  0  0  0  0  0  0
  150.1384  137.6323  154.8434 N   0  0  0  0  0  0  0  0  0  0  0  0
  150.5009  138.8796  154.7202 C   0  0  0  0  0  0  0  0  0  0  0  0
  150.9045  139.4883  155.8859 N   0  0  0  0  0  0  0  0  0  0  0  0
  151.3538  140.8602  156.0450 C   0  0  0  0  0  0  0  0  0  0  0  0
  150.4651  141.6577  157.0198 C   0  0  2  0  0  0  0  0  0  0  0  0
  149.3258  142.1313  156.3261 O   0  0  0  0  0  0  0  0  0  0  0  0
  151.2051  142.8567  157.6416 C   0  0  1  0  0  0  0  0  0  0  0  0
  150.3132  143.7921  158.4618 C   0  0  0  0  0  0  0  0  0  0  0  0
  151.3109  144.4209  159.4061 C   0  0  0  0  0  0  0  0  0  0  0  0
  152.2183  143.2374  159.7230 C   0  0  0  0  0  0  0  0  0  0  0  0
  152.1977  142.4084  158.5638 O   0  0  0  0  0  0  0  0  0  0  0  0
  149.1166  134.8711  155.1974 C   0  0  0  0  0  0  0  0  0  0  0  0
  145.6284  130.2142  155.8773 H   0  0  0  0  0  0  0  0  0  0  0  0
  144.9138  131.8024  155.5822 H   0  0  0  0  0  0  0  0  0  0  0  0
  145.6651  131.4428  157.1466 H   0  0  0  0  0  0  0  0  0  0  0  0
  147.6448  131.0526  155.1806 H   0  0  0  0  0  0  0  0  0  0  0  0
  149.8454  133.2166  153.0928 H   0  0  0  0  0  0  0  0  0  0  0  0
  148.1080  133.4261  152.9586 H   0  0  0  0  0  0  0  0  0  0  0  0
  148.7740  131.8664  153.4369 H   0  0  0  0  0  0  0  0  0  0  0  0
  149.8627  131.7498  156.1806 H   0  0  0  0  0  0  0  0  0  0  0  0
  150.9085  132.7745  155.2324 H   0  0  0  0  0  0  0  0  0  0  0  0
  149.6677  133.4260  157.8937 H   0  0  0  0  0  0  0  0  0  0  0  0
  151.2636  133.8543  157.2614 H   0  0  0  0  0  0  0  0  0  0  0  0
  151.0648  137.4824  159.8902 H   0  0  0  0  0  0  0  0  0  0  0  0
  150.4802  139.3936  153.7704 H   0  0  0  0  0  0  0  0  0  0  0  0
  152.3841  140.8380  156.4014 H   0  0  0  0  0  0  0  0  0  0  0  0
  151.3743  141.3384  155.0646 H   0  0  0  0  0  0  0  0  0  0  0  0
  150.1223  140.9959  157.8165 H   0  0  0  0  0  0  0  0  0  0  0  0
  149.3976  143.0692  156.2365 H   0  0  0  0  0  0  0  0  0  0  0  0
  151.7122  143.4339  156.8665 H   0  0  0  0  0  0  0  0  0  0  0  0
  149.7854  144.5232  157.8490 H   0  0  0  0  0  0  0  0  0  0  0  0
  149.5737  143.2232  159.0274 H   0  0  0  0  0  0  0  0  0  0  0  0
  151.8736  145.2013  158.8919 H   0  0  0  0  0  0  0  0  0  0  0  0
  150.8499  144.8567  160.2930 H   0  0  0  0  0  0  0  0  0  0  0  0
  153.2328  143.5471  159.9752 H   0  0  0  0  0  0  0  0  0  0  0  0
  151.8200  142.6661  160.5622 H   0  0  0  0  0  0  0  0  0  0  0  0
  149.8704  135.2056  154.4829 H   0  0  0  0  0  0  0  0  0  0  0  0
  148.2270  135.4856  155.0514 H   0  0  0  0  0  0  0  0  0  0  0  0
  1  2  1  0  0  0  0
  1 28  1  0  0  0  0
  1 29  1  0  0  0  0
  1 30  1  0  0  0  0
  2  3  1  0  0  0  0
  2 31  1  0  0  0  0
  3  4  2  0  0  0  0
  3  5  1  0  0  0  0
  5 27  1  0  0  0  0
  5  6  1  0  0  0  0
  5  7  1  0  0  0  0
  6 32  1  0  0  0  0
  6 33  1  0  0  0  0
  6 34  1  0  0  0  0
  7  8  1  0  0  0  0
  7 35  1  0  0  0  0
  7 36  1  0  0  0  0
  8  9  1  0  0  0  0
  8 37  1  0  0  0  0
  8 38  1  0  0  0  0
  9 10  1  0  0  0  0
  9 27  1  0  0  0  0
 10 15  1  0  0  0  0
 10 11  2  0  0  0  0
 11 12  1  0  0  0  0
 12 13  2  0  0  0  0
 12 39  1  0  0  0  0
 13 14  1  0  0  0  0
 14 18  1  0  0  0  0
 14 15  2  0  0  0  0
 15 16  1  0  0  0  0
 16 17  2  0  0  0  0
 17 18  1  0  0  0  0
 17 40  1  0  0  0  0
 18 19  1  0  0  0  0
 19 20  1  0  0  0  0
 19 41  1  0  0  0  0
 19 42  1  0  0  0  0
 20 21  1  0  0  0  0
 20 22  1  0  0  0  0
 20 43  1  0  0  0  0
 21 44  1  0  0  0  0
 22 26  1  0  0  0  0
 22 23  1  0  0  0  0
 22 45  1  0  0  0  0
 23 24  1  0  0  0  0
 23 46  1  0  0  0  0
 23 47  1  0  0  0  0
 24 25  1  0  0  0  0
 24 48  1  0  0  0  0
 24 49  1  0  0  0  0
 25 26  1  0  0  0  0
 25 50  1  0  0  0  0
 25 51  1  0  0  0  0
 27 52  1  0  0  0  0
 27 53  1  0  0  0  0
M  END
> <s_m_source_file>
AV-unprocessed.smi

> <i_m_source_file_index>
260

> <i_lp_mmshare_version>
43012

> <i_f3d_flags>
0

> <s_epik_input>
W0NIM11bTkhdQyg9TylbQ0BAXTEoW0NIM10pW0NIMl1bQ0gyXU4oW0NIMl0xKWMobltjSF1uMiljKGMyMyluW2NIXW4zW0NIMl1bQ0BIXShbT0hdKVtDQEBIXTRbQ0gyXVtDSDJdW0NIMl1PNA==

> <s_epik_cmdline>
J2VwaWtfcHl0aG9uJywgJy1waCcsICc3LjAnLCAnLXRuJywgJzgnLCAnLW1hJywgJzIwMCcsICctbWV0YWxfYmluZGluZycsICctaW1hZScsICc8aW5maWxlLm1hZT4nLCAnLW9tYWUnLCAnPG91dGZpbGUubWFlPic=

> <r_lp_tautomer_probability>
1

> <r_epik_Ionization_Penalty>
0.00115068

> <r_epik_Ionization_Penalty_Charging>
0

> <r_epik_Ionization_Penalty_Neutral>
0.00115068

> <r_epik_State_Penalty>
0.000668876

> <r_epik_Charging_Adjusted_Penalty>
0.000668876

> <i_epik_Tot_Q>
0

> <i_epik_Tot_abs_Q>
0

> <r_epik_Metal_State_Penalty>
-0

> <b_epik_Metal_Only>
0

> <s_lp_Force_Field>
OPLS_2005

> <r_lp_Energy>
49.109

> <b_lp_Chiralities_Consistent>
1

> <s_lp_Variant>
AV-unprocessed.smi:260-6

> <Gold.Version>
5.8.1

> <Gold.Id.Protein>
6NUR|6NUR_protein|mol2

> <Gold.PLP.Fitness>
45.1523

> <Gold.PLP.PLP>
-39.4126

> <Gold.PLP.part.hbond>
-2.0000

> <Gold.PLP.part.metal>
0.0000

> <Gold.PLP.part.buried>
-5.3132

> <Gold.PLP.part.nonpolar>
-32.9136

> <Gold.PLP.part.repulsive>
0.1961

> <Gold.PLP.ligand.clash>
0.0000

> <Gold.PLP.ligand.torsion>
0.7317

> <Gold.PLP.Chemscore.Hbond>
1.3853

> <Gold.PLP.Chemscore.CHOScore>
0.8393

> <Gold.PLP.Chemscore.Metal>
0.0000

> <Gold.Chemscore.Hbonds>
donor molecule, donor type, donor heavy atom, donor atom, acceptor molecule, acceptor atom, score
      L1  H    21    44       P1  8028  1.00
      P1  H  6896  6907       L1    11  0.91
      L1  C    17    40       P1  7957  0.29

> <Gold.PLP.Chemscore.Internal.Correction>
0.5294

> <Gold.Rescore>
     Score         DG    S(hbond)    S(metal)    S(lipo)     H(rot)  DE(clash)    DE(int)     intcor
     12.31     -14.12       1.52        0.00      85.56       2.53       0.00       1.80       ----

> <Gold.Chemscore.Fitness>
12.3079

> <Gold.Chemscore.DG>
-14.1163

> <Gold.Chemscore.ZeroCoef>
-5.4800

> <Gold.Chemscore.Hbond>
1.5247

> <Gold.Chemscore.Metal>
0.0000

> <Gold.Chemscore.Lipo>
85.5561

> <Gold.Chemscore.Internal_Hbond>
0.0000

> <Gold.Chemscore.DEClash>
0.0048

> <Gold.Chemscore.DEInternal>
1.8035

> <Gold.Chemscore.Rot>
2.5259

> <Gold.Chemscore.Internal.Correction>
   9.000000E+99

> <Gold.Chemscore.Hbonds>
donor molecule, donor type, donor heavy atom, donor atom, acceptor molecule, acceptor atom, score
      L1  H    21    44       P1  8028  0.98
      P1  H  6896  6907       L1    11  0.46

> <Gold.Chemscore.Hbond.Weighted>
-5.0926

> <Gold.Chemscore.Metal.Weighted>
-0.0000

> <Gold.Chemscore.Lipo.Weighted>
-10.0101

> <Gold.Chemscore.Internal_Hbond.Weighted>
0.0000

> <Gold.Chemscore.DEClash.Weighted>
0.0048

> <Gold.Chemscore.DEInternal.Weighted>
1.8035

> <Gold.Chemscore.Rot.Weighted>
6.4663

> <Gold.Chemscore.Internal.Correction.Weighted>
   9.000000E+99

> <Gold.Protein.RotatedTorsions>
[ 6907 6896 6895 6894 ] final  -47.41 input  -60.11 | X-H torsion
[ 7974 7965 7964 7962 ] final  140.23 input  175.53 | X-H torsion
[ 8008 7997 7996 7995 ] final   51.69 input   59.86 | X-H torsion
[ 10167 10162 10161 10158 ] final  -33.06 input  -65.29 | X-H torsion
[ 10718 10713 10712 10709 ] final -146.92 input   66.30 | X-H torsion
[ 10763 10752 10751 10750 ] final -117.06 input  -60.55 | X-H torsion
[ 11005 11000 10999 10996 ] final  -24.22 input  -57.11 | X-H torsion

> <Gold.Protein.ActiveResidues>
 VAL166  LYS551  ARG553  GLY616  TRP617  ASP618  TYR619  PRO620  LYS621  CYS622 
 ASP623  PHE694  ASN695  SER759  ASP760  ASP761  ALA762  ILE779  LEU786  VAL792 
 PHE793  MET794  SER795  GLU796  ALA797  LYS798  CYS799  TRP800  GLU811  SER814 

> <Gold.Protein.RotatedAtoms>
  150.9011  134.8423  159.7360 H   0  0  0  0  0  0  0  0  0  0  0  0  # atno 6907 bound_to 6896
  152.4893  134.4502  159.9582 H   0  0  0  0  0  0  0  0  0  0  0  0  # atno 6908 bound_to 6896
  151.4553  133.3567  159.2836 H   0  0  0  0  0  0  0  0  0  0  0  0  # atno 6909 bound_to 6896
  144.9206  139.5173  143.5665 H   0  0  0  0  0  0  0  0  0  0  0  0  # atno 7974 bound_to 7965
  155.4394  140.3454  155.4288 H   0  0  0  0  0  0  0  0  0  0  0  0  # atno 8008 bound_to 7997
  156.1288  140.1508  156.9127 H   0  0  0  0  0  0  0  0  0  0  0  0  # atno 8009 bound_to 7997
  154.4878  140.0850  156.7507 H   0  0  0  0  0  0  0  0  0  0  0  0  # atno 8010 bound_to 7997
  140.7211  143.3648  151.1892 H   0  0  0  0  0  0  0  0  0  0  0  0  # atno 10167 bound_to 10162
  156.4010  130.7934  151.2144 H   0  0  0  0  0  0  0  0  0  0  0  0  # atno 10718 bound_to 10713
  154.8542  135.4323  154.1920 H   0  0  0  0  0  0  0  0  0  0  0  0  # atno 10763 bound_to 10752
  153.2986  135.6967  153.7230 H   0  0  0  0  0  0  0  0  0  0  0  0  # atno 10764 bound_to 10752
  153.6369  135.3475  155.3033 H   0  0  0  0  0  0  0  0  0  0  0  0  # atno 10765 bound_to 10752
  140.8825  133.7644  156.0320 H   0  0  0  0  0  0  0  0  0  0  0  0  # atno 11005 bound_to 11000
  146.3203  139.8082  142.8951 LP  0  0  0  0  0  0  0  0  0  0  0  0  # atno 17320 bound_to 7965
  145.3303  141.0265  143.3450 LP  0  0  0  0  0  0  0  0  0  0  0  0  # atno 17321 bound_to 7965
  139.7208  143.9227  152.2984 LP  0  0  0  0  0  0  0  0  0  0  0  0  # atno 17342 bound_to 10162
  139.8983  144.6926  150.8693 LP  0  0  0  0  0  0  0  0  0  0  0  0  # atno 17343 bound_to 10162
  157.7504  131.0287  150.4059 LP  0  0  0  0  0  0  0  0  0  0  0  0  # atno 17370 bound_to 10713
  156.4339  130.3977  149.6742 LP  0  0  0  0  0  0  0  0  0  0  0  0  # atno 17371 bound_to 10713
  140.8444  134.3028  157.5300 LP  0  0  0  0  0  0  0  0  0  0  0  0  # atno 17394 bound_to 11000
  139.8721  134.9434  156.3851 LP  0  0  0  0  0  0  0  0  0  0  0  0  # atno 17395 bound_to 11000

$$$$
