AV-unprocessed.smi:1531|AV-procd|sdf|6157|dock5
  -GOLD-   22720 6303D 1   1.00000     0.00000
 Structure written by MMmdl.
 44 45  0  0  0  0  0  0  0  0  1 V2000
  151.6325  138.9006  154.9938 C   0  0  0  0  0  0  0  0  0  0  0  0
  151.3191  137.4238  154.7158 C   0  0  0  0  0  0  0  0  0  0  0  0
  150.7788  136.6502  155.9403 C   0  0  1  0  0  0  0  0  0  0  0  0
  149.5963  137.4041  156.5875 C   0  0  0  0  0  0  0  0  0  0  0  0
  149.0733  136.6840  157.8406 C   0  0  0  0  0  0  0  0  0  0  0  0
  148.6754  135.2352  157.5260 C   0  0  0  0  0  0  0  0  0  0  0  0
  149.8442  134.4667  156.8884 C   0  0  0  0  0  0  0  0  0  0  0  0
  150.3964  135.1771  155.6356 C   0  0  1  0  0  0  0  0  0  0  0  0
  149.4322  135.0967  154.5373 N   0  0  0  0  0  0  0  0  0  0  0  0
  148.8937  133.9734  154.0425 C   0  0  0  0  0  0  0  0  0  0  0  0
  149.1455  132.8463  154.4690 O   0  0  0  0  0  0  0  0  0  0  0  0
  148.0522  134.2456  153.0320 N   0  0  0  0  0  0  0  0  0  0  0  0
  147.3281  133.3186  152.2413 C   0  0  0  0  0  0  0  0  0  0  0  0
  147.0325  131.9848  152.6246 C   0  0  0  0  0  0  0  0  0  0  0  0
  146.3363  131.3601  151.6873 N   0  0  0  0  0  0  0  0  0  0  0  0
  146.1744  132.2756  150.6990 N   0  0  0  0  0  0  0  0  0  0  0  0
  145.4348  131.9188  149.5015 C   0  0  0  0  0  0  0  0  0  0  0  0
  144.0379  132.5429  149.5077 C   0  0  0  0  0  0  0  0  0  0  0  0
  143.9405  133.8260  149.1484 N   0  0  0  0  0  0  0  0  0  0  0  0
  143.0580  131.8753  149.8314 O   0  0  0  0  0  0  0  0  0  0  0  0
  146.7707  133.4836  151.0051 C   0  0  0  0  0  0  0  0  0  0  0  0
  151.9149  139.4136  154.0743 H   0  0  0  0  0  0  0  0  0  0  0  0
  152.4606  139.0110  155.6941 H   0  0  0  0  0  0  0  0  0  0  0  0
  150.7670  139.4170  155.4094 H   0  0  0  0  0  0  0  0  0  0  0  0
  150.5762  137.3809  153.9186 H   0  0  0  0  0  0  0  0  0  0  0  0
  152.2078  136.9332  154.3173 H   0  0  0  0  0  0  0  0  0  0  0  0
  151.5805  136.6269  156.6802 H   0  0  0  0  0  0  0  0  0  0  0  0
  149.9026  138.4154  156.8569 H   0  0  0  0  0  0  0  0  0  0  0  0
  148.7854  137.5141  155.8662 H   0  0  0  0  0  0  0  0  0  0  0  0
  149.8420  136.6923  158.6144 H   0  0  0  0  0  0  0  0  0  0  0  0
  148.2181  137.2230  158.2493 H   0  0  0  0  0  0  0  0  0  0  0  0
  148.3554  134.7320  158.4387 H   0  0  0  0  0  0  0  0  0  0  0  0
  147.8168  135.2274  156.8533 H   0  0  0  0  0  0  0  0  0  0  0  0
  150.6447  134.3665  157.6225 H   0  0  0  0  0  0  0  0  0  0  0  0
  149.5329  133.4507  156.6418 H   0  0  0  0  0  0  0  0  0  0  0  0
  151.3077  134.6504  155.3484 H   0  0  0  0  0  0  0  0  0  0  0  0
  149.1588  135.9735  154.1183 H   0  0  0  0  0  0  0  0  0  0  0  0
  147.9253  135.2187  152.7952 H   0  0  0  0  0  0  0  0  0  0  0  0
  147.2928  131.4602  153.5321 H   0  0  0  0  0  0  0  0  0  0  0  0
  145.9948  132.2550  148.6278 H   0  0  0  0  0  0  0  0  0  0  0  0
  145.3570  130.8324  149.4324 H   0  0  0  0  0  0  0  0  0  0  0  0
  143.0391  134.2808  149.1337 H   0  0  0  0  0  0  0  0  0  0  0  0
  144.7723  134.3367  148.8886 H   0  0  0  0  0  0  0  0  0  0  0  0
  146.7373  134.3264  150.3307 H   0  0  0  0  0  0  0  0  0  0  0  0
  1  2  1  0  0  0  0
  1 22  1  0  0  0  0
  1 23  1  0  0  0  0
  1 24  1  0  0  0  0
  2  3  1  0  0  0  0
  2 25  1  0  0  0  0
  2 26  1  0  0  0  0
  3  8  1  0  0  0  0
  3  4  1  0  0  0  0
  3 27  1  0  0  0  0
  4  5  1  0  0  0  0
  4 28  1  0  0  0  0
  4 29  1  0  0  0  0
  5  6  1  0  0  0  0
  5 30  1  0  0  0  0
  5 31  1  0  0  0  0
  6  7  1  0  0  0  0
  6 32  1  0  0  0  0
  6 33  1  0  0  0  0
  7  8  1  0  0  0  0
  7 34  1  0  0  0  0
  7 35  1  0  0  0  0
  8  9  1  0  0  0  0
  8 36  1  0  0  0  0
  9 10  1  0  0  0  0
  9 37  1  0  0  0  0
 10 11  2  0  0  0  0
 10 12  1  0  0  0  0
 12 13  1  0  0  0  0
 12 38  1  0  0  0  0
 13 21  2  0  0  0  0
 13 14  1  0  0  0  0
 14 15  2  0  0  0  0
 14 39  1  0  0  0  0
 15 16  1  0  0  0  0
 16 17  1  0  0  0  0
 16 21  1  0  0  0  0
 17 18  1  0  0  0  0
 17 40  1  0  0  0  0
 17 41  1  0  0  0  0
 18 19  1  0  0  0  0
 18 20  2  0  0  0  0
 19 42  1  0  0  0  0
 19 43  1  0  0  0  0
 21 44  1  0  0  0  0
M  END
> <s_m_source_file>
AV-unprocessed.smi

> <i_m_source_file_index>
1531

> <i_lp_mmshare_version>
43012

> <i_f3d_flags>
0

> <s_epik_input>
W0NIM11bQ0gyXVtDQEBIXTFbQ0gyXVtDSDJdW0NIMl1bQ0gyXVtDQEhdMVtOSF1DKD1PKVtOSF1jMltjSF1ubihbY0hdMilbQ0gyXUMoPU8pW05IMl0=

> <s_epik_cmdline>
J2VwaWtfcHl0aG9uJywgJy1waCcsICc3LjAnLCAnLXRuJywgJzgnLCAnLW1hJywgJzIwMCcsICctbWV0YWxfYmluZGluZycsICctaW1hZScsICc8aW5maWxlLm1hZT4nLCAnLW9tYWUnLCAnPG91dGZpbGUubWFlPic=

> <r_lp_tautomer_probability>
1

> <r_epik_Ionization_Penalty>
4.83437e-05

> <r_epik_Ionization_Penalty_Charging>
0

> <r_epik_Ionization_Penalty_Neutral>
4.83437e-05

> <r_epik_State_Penalty>
-0

> <r_epik_Charging_Adjusted_Penalty>
0

> <i_epik_Tot_Q>
0

> <i_epik_Tot_abs_Q>
0

> <r_epik_Metal_State_Penalty>
-0

> <b_epik_Metal_Only>
0

> <s_lp_Force_Field>
OPLS_2005

> <r_lp_Energy>
14.4879

> <b_lp_Chiralities_Consistent>
1

> <s_lp_Variant>
AV-unprocessed.smi:1531-2

> <Gold.Version>
5.8.1

> <Gold.Id.Protein>
6NUR|6NUR_protein|mol2

> <Gold.PLP.Fitness>
41.4285

> <Gold.PLP.PLP>
-30.8622

> <Gold.PLP.part.hbond>
-4.6839

> <Gold.PLP.part.metal>
0.0000

> <Gold.PLP.part.buried>
-3.5052

> <Gold.PLP.part.nonpolar>
-26.8774

> <Gold.PLP.part.repulsive>
4.1187

> <Gold.PLP.ligand.clash>
0.0000

> <Gold.PLP.ligand.torsion>
0.6056

> <Gold.PLP.Chemscore.Hbond>
3.7173

> <Gold.PLP.Chemscore.CHOScore>
0.1934

> <Gold.PLP.Chemscore.Metal>
0.0000

> <Gold.Chemscore.Hbonds>
donor molecule, donor type, donor heavy atom, donor atom, acceptor molecule, acceptor atom, score
      L1  H     9    37       P1  7948  0.19
      L1  H    12    38       P1  7948  0.54
      L1  H    19    42       P1 10186  0.91
      L1  H    19    43       P1  7921  1.00
      P1  H 10785 10796       L1    20  0.94
      L1  C    21    44       P1  7921  0.18

> <Gold.PLP.Chemscore.Internal.Correction>
0.0454

> <Gold.Rescore>
     Score         DG    S(hbond)    S(metal)    S(lipo)     H(rot)  DE(clash)    DE(int)     intcor
     14.01     -17.66       2.96        0.00      66.32       2.13       1.87       1.79       ----

> <Gold.Chemscore.Fitness>
14.0058

> <Gold.Chemscore.DG>
-17.6616

> <Gold.Chemscore.ZeroCoef>
-5.4800

> <Gold.Chemscore.Hbond>
2.9594

> <Gold.Chemscore.Metal>
0.0000

> <Gold.Chemscore.Lipo>
66.3164

> <Gold.Chemscore.Internal_Hbond>
0.0000

> <Gold.Chemscore.DEClash>
1.8668

> <Gold.Chemscore.DEInternal>
1.7891

> <Gold.Chemscore.Rot>
2.1335

> <Gold.Chemscore.Internal.Correction>
   9.000000E+99

> <Gold.Chemscore.Hbonds>
donor molecule, donor type, donor heavy atom, donor atom, acceptor molecule, acceptor atom, score
      L1  H     9    37       P1  7948  0.17
      L1  H    12    38       P1  7948  0.54
      L1  H    19    42       P1 10186  0.85
      L1  H    19    43       P1  7921  0.95
      P1  H 10785 10796       L1    20  0.50

> <Gold.Chemscore.Hbond.Weighted>
-9.8844

> <Gold.Chemscore.Metal.Weighted>
-0.0000

> <Gold.Chemscore.Lipo.Weighted>
-7.7590

> <Gold.Chemscore.Internal_Hbond.Weighted>
0.0000

> <Gold.Chemscore.DEClash.Weighted>
1.8668

> <Gold.Chemscore.DEInternal.Weighted>
1.7891

> <Gold.Chemscore.Rot.Weighted>
5.4618

> <Gold.Chemscore.Internal.Correction.Weighted>
   9.000000E+99

> <Gold.Protein.RotatedTorsions>
[ 6907 6896 6895 6894 ] final  152.28 input  -60.11 | X-H torsion
[ 7974 7965 7964 7962 ] final  130.52 input  175.53 | X-H torsion
[ 8008 7997 7996 7995 ] final   54.21 input   59.86 | X-H torsion
[ 10167 10162 10161 10158 ] final  115.76 input  -65.29 | X-H torsion
[ 10718 10713 10712 10709 ] final  175.32 input   66.30 | X-H torsion
[ 10763 10752 10751 10750 ] final  -91.04 input  -60.55 | X-H torsion
[ 11005 11000 10999 10996 ] final   67.00 input  -57.11 | X-H torsion

> <Gold.Protein.ActiveResidues>
 VAL166  LYS551  ARG553  GLY616  TRP617  ASP618  TYR619  PRO620  LYS621  CYS622 
 ASP623  PHE694  ASN695  SER759  ASP760  ASP761  ALA762  ILE779  LEU786  VAL792 
 PHE793  MET794  SER795  GLU796  ALA797  LYS798  CYS799  TRP800  GLU811  SER814 

> <Gold.Protein.RotatedAtoms>
  152.0889  133.4190  159.4534 H   0  0  0  0  0  0  0  0  0  0  0  0  # atno 6907 bound_to 6896
  150.6862  134.2895  159.4670 H   0  0  0  0  0  0  0  0  0  0  0  0  # atno 6908 bound_to 6896
  152.0744  134.9512  160.0625 H   0  0  0  0  0  0  0  0  0  0  0  0  # atno 6909 bound_to 6896
  145.0170  139.4167  143.5216 H   0  0  0  0  0  0  0  0  0  0  0  0  # atno 7974 bound_to 7965
  155.4810  140.3468  155.4340 H   0  0  0  0  0  0  0  0  0  0  0  0  # atno 8008 bound_to 7997
  156.1039  140.1443  156.9459 H   0  0  0  0  0  0  0  0  0  0  0  0  # atno 8009 bound_to 7997
  154.4711  140.0900  156.7126 H   0  0  0  0  0  0  0  0  0  0  0  0  # atno 8010 bound_to 7997
  139.6294  144.7113  151.2464 H   0  0  0  0  0  0  0  0  0  0  0  0  # atno 10167 bound_to 10162
  156.9366  130.9988  151.2977 H   0  0  0  0  0  0  0  0  0  0  0  0  # atno 10718 bound_to 10713
  154.6720  135.5282  153.8151 H   0  0  0  0  0  0  0  0  0  0  0  0  # atno 10763 bound_to 10752
  153.0508  135.6531  154.0709 H   0  0  0  0  0  0  0  0  0  0  0  0  # atno 10764 bound_to 10752
  154.0607  135.2962  155.3305 H   0  0  0  0  0  0  0  0  0  0  0  0  # atno 10765 bound_to 10752
  139.9797  134.6763  156.0285 H   0  0  0  0  0  0  0  0  0  0  0  0  # atno 11005 bound_to 11000
  146.3479  139.9647  142.8713 LP  0  0  0  0  0  0  0  0  0  0  0  0  # atno 17320 bound_to 7965
  145.1946  140.9827  143.4191 LP  0  0  0  0  0  0  0  0  0  0  0  0  # atno 17321 bound_to 7965
  140.7430  143.6508  150.8250 LP  0  0  0  0  0  0  0  0  0  0  0  0  # atno 17342 bound_to 10162
  140.0130  143.5622  152.2831 LP  0  0  0  0  0  0  0  0  0  0  0  0  # atno 17343 bound_to 10162
  157.5812  130.8378  149.8525 LP  0  0  0  0  0  0  0  0  0  0  0  0  # atno 17370 bound_to 10713
  156.0423  130.3736  150.1404 LP  0  0  0  0  0  0  0  0  0  0  0  0  # atno 17371 bound_to 10713
  141.1471  133.6554  156.3900 LP  0  0  0  0  0  0  0  0  0  0  0  0  # atno 17394 bound_to 11000
  140.5121  134.6385  157.5288 LP  0  0  0  0  0  0  0  0  0  0  0  0  # atno 17395 bound_to 11000

$$$$
