AV-unprocessed.smi:110|AV-procd|sdf|1066|dock2
  -GOLD-   2262018143D 1   1.00000     0.00000
 Structure written by MMmdl.
 46 50  0  0  0  0  0  0  0  0  1 V2000
  144.2328  138.1383  153.9067 O   0  0  0  0  0  0  0  0  0  0  0  0
  145.2062  138.3149  154.9139 C   0  0  0  0  0  0  0  0  0  0  0  0
  146.6058  138.4214  154.2829 C   0  0  2  0  0  0  0  0  0  0  0  0
  147.6130  138.4831  155.2856 O   0  0  0  0  0  0  0  0  0  0  0  0
  148.7830  138.9889  154.7251 C   0  0  2  0  0  0  0  0  0  0  0  0
  149.4887  139.8140  155.7562 N   0  0  0  0  0  0  0  0  0  0  0  0
  149.0121  140.9309  156.4037 C   0  0  0  0  0  0  0  0  0  0  0  0
  149.8253  141.4597  157.2766 N   0  0  0  0  0  0  0  0  0  0  0  0
  150.9610  140.6601  157.2171 C   0  0  0  0  0  0  0  0  0  0  0  0
  152.2172  140.6556  157.8896 C   0  0  0  0  0  0  0  0  0  0  0  0
  152.5890  141.5500  158.8354 N   0  0  0  0  0  0  0  0  0  0  0  0
  153.2626  141.0665  160.0493 C   0  0  0  0  0  0  0  0  0  0  0  0
  153.1116  142.1532  161.1304 C   0  0  0  0  0  0  0  0  0  0  0  0
  152.4437  143.2393  160.3510 C   0  0  0  0  0  0  0  0  0  0  0  0
  152.1145  144.5303  160.7991 C   0  0  0  0  0  0  0  0  0  0  0  0
  151.5037  145.4158  159.8854 C   0  0  0  0  0  0  0  0  0  0  0  0
  151.2448  145.0051  158.5570 C   0  0  0  0  0  0  0  0  0  0  0  0
  151.5862  143.7032  158.1286 C   0  0  0  0  0  0  0  0  0  0  0  0
  152.1766  142.8167  159.0527 C   0  0  0  0  0  0  0  0  0  0  0  0
  153.0828  139.6512  157.5988 N   0  0  0  0  0  0  0  0  0  0  0  0
  152.7632  138.7340  156.6822 C   0  0  0  0  0  0  0  0  0  0  0  0
  151.6445  138.6286  155.9645 N   0  0  0  0  0  0  0  0  0  0  0  0
  150.7545  139.6156  156.2710 C   0  0  0  0  0  0  0  0  0  0  0  0
  148.3891  139.7925  153.4674 C   0  0  2  0  0  0  0  0  0  0  0  0
  148.8658  141.1279  153.4106 O   0  0  0  0  0  0  0  0  0  0  0  0
  146.8650  139.6849  153.4479 C   0  0  2  0  0  0  0  0  0  0  0  0
  146.2288  140.8155  154.0191 O   0  0  0  0  0  0  0  0  0  0  0  0
  146.8007  137.5521  153.6514 H   0  0  0  0  0  0  0  0  0  0  0  0
  149.4746  138.1749  154.5036 H   0  0  0  0  0  0  0  0  0  0  0  0
  148.7943  139.2529  152.6106 H   0  0  0  0  0  0  0  0  0  0  0  0
  146.4894  139.5747  152.4300 H   0  0  0  0  0  0  0  0  0  0  0  0
  144.0337  138.9824  153.5311 H   0  0  0  0  0  0  0  0  0  0  0  0
  144.9615  139.2354  155.4447 H   0  0  0  0  0  0  0  0  0  0  0  0
  145.1566  137.4986  155.6355 H   0  0  0  0  0  0  0  0  0  0  0  0
  148.0303  141.3394  156.2142 H   0  0  0  0  0  0  0  0  0  0  0  0
  152.8333  140.1207  160.3830 H   0  0  0  0  0  0  0  0  0  0  0  0
  154.3163  140.8946  159.8269 H   0  0  0  0  0  0  0  0  0  0  0  0
  152.4724  141.8272  161.9514 H   0  0  0  0  0  0  0  0  0  0  0  0
  154.0731  142.4809  161.5261 H   0  0  0  0  0  0  0  0  0  0  0  0
  152.3272  144.8378  161.8123 H   0  0  0  0  0  0  0  0  0  0  0  0
  151.2404  146.4148  160.2000 H   0  0  0  0  0  0  0  0  0  0  0  0
  150.7864  145.6935  157.8624 H   0  0  0  0  0  0  0  0  0  0  0  0
  151.3997  143.4017  157.1086 H   0  0  0  0  0  0  0  0  0  0  0  0
  153.5089  137.9750  156.4981 H   0  0  0  0  0  0  0  0  0  0  0  0
  148.6867  141.5458  154.2390 H   0  0  0  0  0  0  0  0  0  0  0  0
  145.3279  140.8254  153.7332 H   0  0  0  0  0  0  0  0  0  0  0  0
  1  2  1  0  0  0  0
  1 32  1  0  0  0  0
  2  3  1  0  0  0  0
  2 33  1  0  0  0  0
  2 34  1  0  0  0  0
  3 28  1  0  0  0  0
  3 26  1  0  0  0  0
  3  4  1  0  0  0  0
  4  5  1  0  0  0  0
  5 29  1  0  0  0  0
  5  6  1  0  0  0  0
  5 24  1  0  0  0  0
  6 23  1  0  0  0  0
  6  7  1  0  0  0  0
  7  8  2  0  0  0  0
  7 35  1  0  0  0  0
  8  9  1  0  0  0  0
  9 23  2  0  0  0  0
  9 10  1  0  0  0  0
 10 11  1  0  0  0  0
 10 20  2  0  0  0  0
 11 19  1  0  0  0  0
 11 12  1  0  0  0  0
 12 13  1  0  0  0  0
 12 36  1  0  0  0  0
 12 37  1  0  0  0  0
 13 14  1  0  0  0  0
 13 38  1  0  0  0  0
 13 39  1  0  0  0  0
 14 19  2  0  0  0  0
 14 15  1  0  0  0  0
 15 16  2  0  0  0  0
 15 40  1  0  0  0  0
 16 17  1  0  0  0  0
 16 41  1  0  0  0  0
 17 18  2  0  0  0  0
 17 42  1  0  0  0  0
 18 19  1  0  0  0  0
 18 43  1  0  0  0  0
 20 21  1  0  0  0  0
 21 22  2  0  0  0  0
 21 44  1  0  0  0  0
 22 23  1  0  0  0  0
 24 30  1  0  0  0  0
 24 25  1  0  0  0  0
 24 26  1  0  0  0  0
 25 45  1  0  0  0  0
 26 31  1  0  0  0  0
 26 27  1  0  0  0  0
 27 46  1  0  0  0  0
M  END
> <s_m_source_file>
AV-unprocessed.smi

> <i_m_source_file_index>
110

> <i_lp_mmshare_version>
43012

> <i_f3d_flags>
0

> <s_epik_input>
W09IXVtDSDJdW0NASF0xT1tDQEhdKFtDQEhdKFtPSF0pW0NAQEhdMVtPSF0pbihbY0hdbjIpYyhjMjMpbltjSF1uYzNOKFtDSDJdW0NIMl00KWMoYzQ1KVtjSF1bY0hdW2NIXVtjSF01

> <s_epik_cmdline>
J2VwaWtfcHl0aG9uJywgJy1waCcsICc3LjAnLCAnLXRuJywgJzgnLCAnLW1hJywgJzIwMCcsICctbWV0YWxfYmluZGluZycsICctaW1hZScsICc8aW5maWxlLm1hZT4nLCAnLW9tYWUnLCAnPG91dGZpbGUubWFlPic=

> <r_lp_tautomer_probability>
1

> <r_epik_Ionization_Penalty>
0.00068475

> <r_epik_Ionization_Penalty_Charging>
0

> <r_epik_Ionization_Penalty_Neutral>
0.00068475

> <r_epik_State_Penalty>
0.000417442

> <r_epik_Charging_Adjusted_Penalty>
0.000417442

> <i_epik_Tot_Q>
0

> <i_epik_Tot_abs_Q>
0

> <r_epik_Metal_State_Penalty>
-0

> <b_epik_Metal_Only>
0

> <s_epik_Chemistry_Notes>
This compound contains an acetal/aminal-like group ( X-CH(R)-Y where X, Y are N, S, or O) that may be acid/base labile, releasing an aldehyde.

> <s_lp_Force_Field>
OPLS_2005

> <r_lp_Energy>
68.0116

> <b_lp_Chiralities_Consistent>
1

> <s_lp_Variant>
AV-unprocessed.smi:110-4

> <Gold.Version>
5.8.1

> <Gold.Id.Protein>
6NUR|6NUR_protein|mol2

> <Gold.PLP.Fitness>
58.7370

> <Gold.PLP.PLP>
-48.0419

> <Gold.PLP.part.hbond>
-5.4255

> <Gold.PLP.part.metal>
0.0000

> <Gold.PLP.part.buried>
-3.5343

> <Gold.PLP.part.nonpolar>
-40.3344

> <Gold.PLP.part.repulsive>
0.1132

> <Gold.PLP.ligand.clash>
0.0000

> <Gold.PLP.ligand.torsion>
0.4888

> <Gold.PLP.Chemscore.Hbond>
3.8613

> <Gold.PLP.Chemscore.CHOScore>
0.0000

> <Gold.PLP.Chemscore.Metal>
0.0000

> <Gold.Chemscore.Hbonds>
donor molecule, donor type, donor heavy atom, donor atom, acceptor molecule, acceptor atom, score
      L1  H     1    32       P1 10175  1.00
      L1  H    27    46       P1 10175  0.84
      P1  H  7997  8009       L1    20  0.95
      P1  H  8011  8017       L1    25  1.00

> <Gold.PLP.Chemscore.Internal.Correction>
0.0891

> <Gold.Rescore>
     Score         DG    S(hbond)    S(metal)    S(lipo)     H(rot)  DE(clash)    DE(int)     intcor
     15.05     -19.09       2.71        0.00     113.17       3.38       1.58       2.46       ----

> <Gold.Chemscore.Fitness>
15.0527

> <Gold.Chemscore.DG>
-19.0940

> <Gold.Chemscore.ZeroCoef>
-5.4800

> <Gold.Chemscore.Hbond>
2.7050

> <Gold.Chemscore.Metal>
0.0000

> <Gold.Chemscore.Lipo>
113.1742

> <Gold.Chemscore.Internal_Hbond>
0.0000

> <Gold.Chemscore.DEClash>
1.5796

> <Gold.Chemscore.DEInternal>
2.4617

> <Gold.Chemscore.Rot>
3.3837

> <Gold.Chemscore.Internal.Correction>
   9.000000E+99

> <Gold.Chemscore.Hbonds>
donor molecule, donor type, donor heavy atom, donor atom, acceptor molecule, acceptor atom, score
      L1  H     1    32       P1 10175  1.00
      L1  H    27    46       P1 10175  0.74
      P1  H  7997  8009       L1    20  0.20
      P1  H  8011  8017       L1    25  0.57

> <Gold.Chemscore.Hbond.Weighted>
-9.0348

> <Gold.Chemscore.Metal.Weighted>
-0.0000

> <Gold.Chemscore.Lipo.Weighted>
-13.2414

> <Gold.Chemscore.Internal_Hbond.Weighted>
0.0000

> <Gold.Chemscore.DEClash.Weighted>
1.5796

> <Gold.Chemscore.DEInternal.Weighted>
2.4617

> <Gold.Chemscore.Rot.Weighted>
8.6622

> <Gold.Chemscore.Internal.Correction.Weighted>
   9.000000E+99

> <Gold.Protein.RotatedTorsions>
[ 6907 6896 6895 6894 ] final  -80.02 input  -60.11 | X-H torsion
[ 7974 7965 7964 7962 ] final  -26.42 input  175.53 | X-H torsion
[ 8008 7997 7996 7995 ] final  149.22 input   59.86 | X-H torsion
[ 10167 10162 10161 10158 ] final  -29.93 input  -65.29 | X-H torsion
[ 10718 10713 10712 10709 ] final   16.95 input   66.30 | X-H torsion
[ 10763 10752 10751 10750 ] final -135.84 input  -60.55 | X-H torsion
[ 11005 11000 10999 10996 ] final -140.27 input  -57.11 | X-H torsion

> <Gold.Protein.ActiveResidues>
 VAL166  LYS551  ARG553  GLY616  TRP617  ASP618  TYR619  PRO620  LYS621  CYS622 
 ASP623  PHE694  ASN695  SER759  ASP760  ASP761  ALA762  ILE779  LEU786  VAL792 
 PHE793  MET794  SER795  GLU796  ALA797  LYS798  CYS799  TRP800  GLU811  SER814 

> <Gold.Protein.RotatedAtoms>
  150.6938  134.4033  159.5128 H   0  0  0  0  0  0  0  0  0  0  0  0  # atno 6907 bound_to 6896
  152.1803  134.8757  160.0536 H   0  0  0  0  0  0  0  0  0  0  0  0  # atno 6908 bound_to 6896
  151.9750  133.3703  159.4122 H   0  0  0  0  0  0  0  0  0  0  0  0  # atno 6909 bound_to 6896
  146.1427  140.5017  142.8645 H   0  0  0  0  0  0  0  0  0  0  0  0  # atno 7974 bound_to 7965
  156.2763  140.2107  156.5823 H   0  0  0  0  0  0  0  0  0  0  0  0  # atno 8008 bound_to 7997
  154.7049  140.0517  157.0517 H   0  0  0  0  0  0  0  0  0  0  0  0  # atno 8009 bound_to 7997
  155.0685  140.3174  155.4641 H   0  0  0  0  0  0  0  0  0  0  0  0  # atno 8010 bound_to 7997
  140.7255  143.3889  151.1466 H   0  0  0  0  0  0  0  0  0  0  0  0  # atno 10167 bound_to 10162
  157.0752  130.6365  149.5814 H   0  0  0  0  0  0  0  0  0  0  0  0  # atno 10718 bound_to 10713
  154.8695  135.3691  154.4964 H   0  0  0  0  0  0  0  0  0  0  0  0  # atno 10763 bound_to 10752
  153.5607  135.7023  153.5553 H   0  0  0  0  0  0  0  0  0  0  0  0  # atno 10764 bound_to 10752
  153.3630  135.4041  155.1696 H   0  0  0  0  0  0  0  0  0  0  0  0  # atno 10765 bound_to 10752
  140.8438  134.2369  157.4796 H   0  0  0  0  0  0  0  0  0  0  0  0  # atno 11005 bound_to 11000
  144.7810  140.5840  143.6605 LP  0  0  0  0  0  0  0  0  0  0  0  0  # atno 17320 bound_to 7965
  145.5010  139.1483  143.3657 LP  0  0  0  0  0  0  0  0  0  0  0  0  # atno 17321 bound_to 7965
  139.7490  143.8807  152.3071 LP  0  0  0  0  0  0  0  0  0  0  0  0  # atno 17342 bound_to 10162
  139.8654  144.7096  150.9050 LP  0  0  0  0  0  0  0  0  0  0  0  0  # atno 17343 bound_to 10162
  155.9939  130.5001  150.7399 LP  0  0  0  0  0  0  0  0  0  0  0  0  # atno 17370 bound_to 10713
  157.4845  131.0905  151.0498 LP  0  0  0  0  0  0  0  0  0  0  0  0  # atno 17371 bound_to 10713
  139.8703  134.9649  156.4510 LP  0  0  0  0  0  0  0  0  0  0  0  0  # atno 17394 bound_to 11000
  140.8866  133.7879  155.9525 LP  0  0  0  0  0  0  0  0  0  0  0  0  # atno 17395 bound_to 11000

$$$$
