AV-unprocessed.smi:1492|AV-procd|sdf|6036|dock6
  -GOLD-   22720 6143D 1   1.00000     0.00000
 Structure written by MMmdl.
 52 53  0  0  0  0  0  0  0  0  1 V2000
  151.8724  139.7704  155.6226 C   0  0  0  0  0  0  0  0  0  0  0  0
  150.6721  140.5730  156.1604 C   0  0  0  0  0  0  0  0  0  0  0  0
  150.5997  140.8349  157.7040 C   0  0  1  0  0  0  0  0  0  0  0  0
  149.1405  141.2109  158.0667 C   0  0  0  0  0  0  0  0  0  0  0  0
  150.9276  139.5040  158.4463 C   0  0  0  0  0  0  0  0  0  0  0  0
  149.8785  138.5115  158.2524 N   0  0  0  0  0  0  0  0  0  0  0  0
  149.7480  137.3802  158.9561 C   0  0  0  0  0  0  0  0  0  0  0  0
  150.5598  137.0070  159.8022 O   0  0  0  0  0  0  0  0  0  0  0  0
  148.4945  136.5553  158.6675 C   0  0  0  0  0  0  0  0  0  0  0  0
  148.1662  135.4967  159.7197 C   0  0  0  0  0  0  0  0  0  0  0  0
  148.1243  134.1606  159.4415 C   0  0  0  0  0  0  0  0  0  0  0  0
  148.3945  133.5985  158.0567 C   0  0  0  0  0  0  0  0  0  0  0  0
  147.8231  133.2132  160.4297 N   0  0  0  0  0  0  0  0  0  0  0  0
  147.5842  133.6230  161.6318 C   0  0  0  0  0  0  0  0  0  0  0  0
  147.2422  132.7030  162.7845 C   0  0  0  0  0  0  0  0  0  0  0  0
  147.6190  134.9711  161.9842 N   0  0  0  0  0  0  0  0  0  0  0  0
  147.9018  135.9526  161.0985 C   0  0  0  0  0  0  0  0  0  0  0  0
  147.9361  137.1272  161.4625 O   0  0  0  0  0  0  0  0  0  0  0  0
  151.5709  141.9080  158.0815 N   0  0  0  0  0  0  0  0  0  0  0  0
  151.9782  141.9224  159.4937 C   0  0  0  0  0  0  0  0  0  0  0  0
  153.0657  142.9723  159.7779 C   0  0  0  0  0  0  0  0  0  0  0  0
  152.6081  144.2580  159.3804 O   0  0  0  0  0  0  0  0  0  0  0  0
  152.2698  144.3050  158.0006 C   0  0  0  0  0  0  0  0  0  0  0  0
  151.1728  143.2699  157.6999 C   0  0  0  0  0  0  0  0  0  0  0  0
  147.4293  135.2321  162.9409 H   0  0  0  0  0  0  0  0  0  0  0  0
  151.7477  139.5767  154.5571 H   0  0  0  0  0  0  0  0  0  0  0  0
  151.9743  138.8044  156.1156 H   0  0  0  0  0  0  0  0  0  0  0  0
  152.8111  140.3134  155.7329 H   0  0  0  0  0  0  0  0  0  0  0  0
  150.6463  141.5259  155.6291 H   0  0  0  0  0  0  0  0  0  0  0  0
  149.7812  140.0336  155.8399 H   0  0  0  0  0  0  0  0  0  0  0  0
  148.4467  140.4075  157.8208 H   0  0  0  0  0  0  0  0  0  0  0  0
  148.7982  142.0957  157.5309 H   0  0  0  0  0  0  0  0  0  0  0  0
  149.0185  141.4019  159.1325 H   0  0  0  0  0  0  0  0  0  0  0  0
  151.8837  139.0852  158.1342 H   0  0  0  0  0  0  0  0  0  0  0  0
  151.0576  139.6831  159.5141 H   0  0  0  0  0  0  0  0  0  0  0  0
  149.1709  138.7295  157.5653 H   0  0  0  0  0  0  0  0  0  0  0  0
  147.6507  137.2340  158.5352 H   0  0  0  0  0  0  0  0  0  0  0  0
  148.6139  136.0732  157.6971 H   0  0  0  0  0  0  0  0  0  0  0  0
  149.3775  133.9061  157.7005 H   0  0  0  0  0  0  0  0  0  0  0  0
  147.6423  133.9474  157.3489 H   0  0  0  0  0  0  0  0  0  0  0  0
  148.3692  132.5080  158.0600 H   0  0  0  0  0  0  0  0  0  0  0  0
  146.3372  132.1389  162.5573 H   0  0  0  0  0  0  0  0  0  0  0  0
  147.0750  133.2586  163.7083 H   0  0  0  0  0  0  0  0  0  0  0  0
  148.0542  131.9954  162.9533 H   0  0  0  0  0  0  0  0  0  0  0  0
  151.1198  142.1256  160.1337 H   0  0  0  0  0  0  0  0  0  0  0  0
  152.3812  140.9588  159.7970 H   0  0  0  0  0  0  0  0  0  0  0  0
  153.3023  142.9929  160.8418 H   0  0  0  0  0  0  0  0  0  0  0  0
  153.9877  142.7259  159.2492 H   0  0  0  0  0  0  0  0  0  0  0  0
  151.9209  145.3079  157.7544 H   0  0  0  0  0  0  0  0  0  0  0  0
  153.1563  144.1164  157.3932 H   0  0  0  0  0  0  0  0  0  0  0  0
  150.9557  143.3323  156.6358 H   0  0  0  0  0  0  0  0  0  0  0  0
  150.2641  143.5590  158.2278 H   0  0  0  0  0  0  0  0  0  0  0  0
  1  2  1  0  0  0  0
  1 26  1  0  0  0  0
  1 27  1  0  0  0  0
  1 28  1  0  0  0  0
  2  3  1  0  0  0  0
  2 29  1  0  0  0  0
  2 30  1  0  0  0  0
  3  4  1  0  0  0  0
  3  5  1  0  0  0  0
  3 19  1  0  0  0  0
  4 31  1  0  0  0  0
  4 32  1  0  0  0  0
  4 33  1  0  0  0  0
  5  6  1  0  0  0  0
  5 34  1  0  0  0  0
  5 35  1  0  0  0  0
  6  7  1  0  0  0  0
  6 36  1  0  0  0  0
  7  8  2  0  0  0  0
  7  9  1  0  0  0  0
  9 10  1  0  0  0  0
  9 37  1  0  0  0  0
  9 38  1  0  0  0  0
 10 17  1  0  0  0  0
 10 11  2  0  0  0  0
 11 12  1  0  0  0  0
 11 13  1  0  0  0  0
 12 39  1  0  0  0  0
 12 40  1  0  0  0  0
 12 41  1  0  0  0  0
 13 14  2  0  0  0  0
 14 15  1  0  0  0  0
 14 16  1  0  0  0  0
 15 42  1  0  0  0  0
 15 43  1  0  0  0  0
 15 44  1  0  0  0  0
 16 25  1  0  0  0  0
 16 17  1  0  0  0  0
 17 18  2  0  0  0  0
 19 24  1  0  0  0  0
 19 20  1  0  0  0  0
 20 21  1  0  0  0  0
 20 45  1  0  0  0  0
 20 46  1  0  0  0  0
 21 22  1  0  0  0  0
 21 47  1  0  0  0  0
 21 48  1  0  0  0  0
 22 23  1  0  0  0  0
 23 24  1  0  0  0  0
 23 49  1  0  0  0  0
 23 50  1  0  0  0  0
 24 51  1  0  0  0  0
 24 52  1  0  0  0  0
M  END
> <s_m_source_file>
AV-unprocessed.smi

> <i_m_source_file_index>
1492

> <i_lp_mmshare_version>
43012

> <i_f3d_flags>
0

> <s_epik_input>
W0NIMl0xW0NIMl1PW0NIMl1bQ0gyXU4xW0NAQF0oW0NIM10pKFtDSDJdW0NIM10pW0NIMl1bTkhdQyg9TylbQ0gyXWMyYyhbQ0gzXSluYyhbQ0gzXSlbbkhdYzI9Tw==

> <s_epik_cmdline>
J2VwaWtfcHl0aG9uJywgJy1waCcsICc3LjAnLCAnLXRuJywgJzgnLCAnLW1hJywgJzIwMCcsICctbWV0YWxfYmluZGluZycsICctaW1hZScsICc8aW5maWxlLm1hZT4nLCAnLW9tYWUnLCAnPG91dGZpbGUubWFlPic=

> <r_lp_tautomer_probability>
0.839158

> <r_epik_Ionization_Penalty>
0.328652

> <r_epik_Ionization_Penalty_Charging>
0.000364731

> <r_epik_Ionization_Penalty_Neutral>
0.328288

> <r_epik_State_Penalty>
0.414451

> <r_epik_Charging_Adjusted_Penalty>
0.414816

> <i_epik_Tot_Q>
0

> <i_epik_Tot_abs_Q>
0

> <r_epik_Metal_State_Penalty>
0.592978

> <b_epik_Metal_Only>
0

> <s_lp_Force_Field>
OPLS_2005

> <r_lp_Energy>
47.024

> <b_lp_Chiralities_Consistent>
1

> <s_lp_Variant>
AV-unprocessed.smi:1492-1

> <Gold.Version>
5.8.1

> <Gold.Id.Protein>
6NUR|6NUR_protein|mol2

> <Gold.PLP.Fitness>
45.7161

> <Gold.PLP.PLP>
-39.2172

> <Gold.PLP.part.hbond>
-3.1482

> <Gold.PLP.part.metal>
0.0000

> <Gold.PLP.part.buried>
-6.9911

> <Gold.PLP.part.nonpolar>
-30.0717

> <Gold.PLP.part.repulsive>
0.1819

> <Gold.PLP.ligand.clash>
0.0000

> <Gold.PLP.ligand.torsion>
1.0021

> <Gold.PLP.Chemscore.Hbond>
2.7668

> <Gold.PLP.Chemscore.CHOScore>
0.0000

> <Gold.PLP.Chemscore.Metal>
0.0000

> <Gold.Chemscore.Hbonds>
donor molecule, donor type, donor heavy atom, donor atom, acceptor molecule, acceptor atom, score
      P1  H  6896  6907       L1     8  1.00
      P1  H  6931  6943       L1    18  1.00
      P1  H  6934  6947       L1    18  0.57

> <Gold.PLP.Chemscore.Internal.Correction>
0.2029

> <Gold.Rescore>
     Score         DG    S(hbond)    S(metal)    S(lipo)     H(rot)  DE(clash)    DE(int)     intcor
     18.67     -19.97       2.76        0.00      91.37       2.12       0.20       1.11       ----

> <Gold.Chemscore.Fitness>
18.6656

> <Gold.Chemscore.DG>
-19.9686

> <Gold.Chemscore.ZeroCoef>
-5.4800

> <Gold.Chemscore.Hbond>
2.7588

> <Gold.Chemscore.Metal>
0.0000

> <Gold.Chemscore.Lipo>
91.3660

> <Gold.Chemscore.Internal_Hbond>
0.0000

> <Gold.Chemscore.DEClash>
0.1964

> <Gold.Chemscore.DEInternal>
1.1066

> <Gold.Chemscore.Rot>
2.1155

> <Gold.Chemscore.Internal.Correction>
   9.000000E+99

> <Gold.Chemscore.Hbonds>
donor molecule, donor type, donor heavy atom, donor atom, acceptor molecule, acceptor atom, score
      P1  H  6896  6907       L1     8  0.93
      P1  H  6931  6943       L1    18  0.98
      P1  H  6934  6947       L1    18  0.56

> <Gold.Chemscore.Hbond.Weighted>
-9.2145

> <Gold.Chemscore.Metal.Weighted>
-0.0000

> <Gold.Chemscore.Lipo.Weighted>
-10.6898

> <Gold.Chemscore.Internal_Hbond.Weighted>
0.0000

> <Gold.Chemscore.DEClash.Weighted>
0.1964

> <Gold.Chemscore.DEInternal.Weighted>
1.1066

> <Gold.Chemscore.Rot.Weighted>
5.4157

> <Gold.Chemscore.Internal.Correction.Weighted>
   9.000000E+99

> <Gold.Protein.RotatedTorsions>
[ 6907 6896 6895 6894 ] final  -28.52 input  -60.11 | X-H torsion
[ 7974 7965 7964 7962 ] final  -49.08 input  175.53 | X-H torsion
[ 8008 7997 7996 7995 ] final  163.42 input   59.86 | X-H torsion
[ 10167 10162 10161 10158 ] final   45.96 input  -65.29 | X-H torsion
[ 10718 10713 10712 10709 ] final   63.67 input   66.30 | X-H torsion
[ 10763 10752 10751 10750 ] final   63.05 input  -60.55 | X-H torsion
[ 11005 11000 10999 10996 ] final  -47.31 input  -57.11 | X-H torsion

> <Gold.Protein.ActiveResidues>
 VAL166  LYS551  ARG553  GLY616  TRP617  ASP618  TYR619  PRO620  LYS621  CYS622 
 ASP623  PHE694  ASN695  SER759  ASP760  ASP761  ALA762  ILE779  LEU786  VAL792 
 PHE793  MET794  SER795  GLU796  ALA797  LYS798  CYS799  TRP800  GLU811  SER814 

> <Gold.Protein.RotatedAtoms>
  151.1319  135.0134  159.8585 H   0  0  0  0  0  0  0  0  0  0  0  0  # atno 6907 bound_to 6896
  152.5451  134.1601  159.8564 H   0  0  0  0  0  0  0  0  0  0  0  0  # atno 6908 bound_to 6896
  151.1668  133.4764  159.2627 H   0  0  0  0  0  0  0  0  0  0  0  0  # atno 6909 bound_to 6896
  145.9444  140.7632  142.9536 H   0  0  0  0  0  0  0  0  0  0  0  0  # atno 7974 bound_to 7965
  156.1958  140.1724  156.8001 H   0  0  0  0  0  0  0  0  0  0  0  0  # atno 8008 bound_to 7997
  154.5528  140.0714  156.8726 H   0  0  0  0  0  0  0  0  0  0  0  0  # atno 8009 bound_to 7997
  155.2996  140.3360  155.4250 H   0  0  0  0  0  0  0  0  0  0  0  0  # atno 8010 bound_to 7997
  140.3188  144.2730  150.6186 H   0  0  0  0  0  0  0  0  0  0  0  0  # atno 10167 bound_to 10162
  157.5987  130.9118  149.9746 H   0  0  0  0  0  0  0  0  0  0  0  0  # atno 10718 bound_to 10713
  153.0004  135.5443  154.6291 H   0  0  0  0  0  0  0  0  0  0  0  0  # atno 10763 bound_to 10752
  154.5573  135.2831  155.0955 H   0  0  0  0  0  0  0  0  0  0  0  0  # atno 10764 bound_to 10752
  154.2171  135.6457  153.5186 H   0  0  0  0  0  0  0  0  0  0  0  0  # atno 10765 bound_to 10752
  141.0633  133.6702  156.3279 H   0  0  0  0  0  0  0  0  0  0  0  0  # atno 11005 bound_to 11000
  144.6784  140.2332  143.7353 LP  0  0  0  0  0  0  0  0  0  0  0  0  # atno 17320 bound_to 7965
  145.8256  139.2063  143.1912 LP  0  0  0  0  0  0  0  0  0  0  0  0  # atno 17321 bound_to 7965
  140.5502  143.2208  151.7940 LP  0  0  0  0  0  0  0  0  0  0  0  0  # atno 17342 bound_to 10162
  139.4878  144.4486  151.9680 LP  0  0  0  0  0  0  0  0  0  0  0  0  # atno 17343 bound_to 10162
  156.1056  130.3653  150.0140 LP  0  0  0  0  0  0  0  0  0  0  0  0  # atno 17370 bound_to 10713
  156.8248  130.9371  151.3640 LP  0  0  0  0  0  0  0  0  0  0  0  0  # atno 17371 bound_to 10713
  140.5825  134.5731  157.5482 LP  0  0  0  0  0  0  0  0  0  0  0  0  # atno 17394 bound_to 11000
  139.9452  134.7714  156.0579 LP  0  0  0  0  0  0  0  0  0  0  0  0  # atno 17395 bound_to 11000

$$$$
