AV-unprocessed.smi:1093|AV-procd|sdf|4744|dock6
  -GOLD-   22720 3283D 1   1.00000     0.00000
 Structure written by MMmdl.
 47 48  0  0  0  0  0  0  0  0  2 V2000
  146.1420  131.6281  152.0710 C   0  0  0  0  0  0  0  0  0  0  0  0
  147.2813  132.6520  152.1762 C   0  0  0  0  0  0  0  0  0  0  0  0
  146.7856  134.0504  152.1538 N   0  3  1  0  0  0  0  0  0  0  0  0
  145.9976  134.3552  150.9313 C   0  0  0  0  0  0  0  0  0  0  0  0
  145.6308  135.8482  150.8625 C   0  0  0  0  0  0  0  0  0  0  0  0
  144.9046  136.3083  152.1379 C   0  0  0  0  0  0  0  0  0  0  0  0
  145.7103  135.9379  153.3958 C   0  0  2  0  0  0  0  0  0  0  0  0
  146.9233  136.7535  153.4693 N   0  0  0  0  0  0  0  0  0  0  0  0
  147.2624  137.5491  154.4939 C   0  0  0  0  0  0  0  0  0  0  0  0
  146.5795  137.6713  155.5103 O   0  0  0  0  0  0  0  0  0  0  0  0
  148.4388  138.1576  154.2680 N   0  0  0  0  0  0  0  0  0  0  0  0
  149.1406  139.0610  155.1105 C   0  0  0  0  0  0  0  0  0  0  0  0
  149.8634  140.1847  154.6486 C   0  0  0  0  0  0  0  0  0  0  0  0
  150.5345  140.9967  155.5830 C   0  0  0  0  0  0  0  0  0  0  0  0
  150.4769  140.6662  156.9599 C   0  0  0  0  0  0  0  0  0  0  0  0
  151.1317  141.4516  157.9361 N   0  0  0  0  0  0  0  0  0  0  0  0
  151.6177  140.8282  159.1628 C   0  0  0  0  0  0  0  0  0  0  0  0
  151.3922  142.8640  157.6871 C   0  0  0  0  0  0  0  0  0  0  0  0
  149.7928  139.5792  157.3932 N   0  0  0  0  0  0  0  0  0  0  0  0
  149.1532  138.8029  156.4948 C   0  0  0  0  0  0  0  0  0  0  0  0
  146.0349  134.4277  153.3809 C   0  0  0  0  0  0  0  0  0  0  0  0
  146.5285  130.6141  152.1736 H   0  0  0  0  0  0  0  0  0  0  0  0
  145.6270  131.6807  151.1120 H   0  0  0  0  0  0  0  0  0  0  0  0
  145.4027  131.7796  152.8579 H   0  0  0  0  0  0  0  0  0  0  0  0
  147.8022  132.4697  153.1172 H   0  0  0  0  0  0  0  0  0  0  0  0
  148.0142  132.5000  151.3825 H   0  0  0  0  0  0  0  0  0  0  0  0
  146.5726  134.0892  150.0435 H   0  0  0  0  0  0  0  0  0  0  0  0
  145.0938  133.7440  150.9188 H   0  0  0  0  0  0  0  0  0  0  0  0
  146.5362  136.4390  150.7195 H   0  0  0  0  0  0  0  0  0  0  0  0
  145.0036  136.0365  149.9906 H   0  0  0  0  0  0  0  0  0  0  0  0
  144.7195  137.3826  152.1022 H   0  0  0  0  0  0  0  0  0  0  0  0
  143.9248  135.8312  152.1849 H   0  0  0  0  0  0  0  0  0  0  0  0
  145.0991  136.1614  154.2721 H   0  0  0  0  0  0  0  0  0  0  0  0
  147.5424  136.7196  152.6724 H   0  0  0  0  0  0  0  0  0  0  0  0
  148.9209  137.8971  153.4202 H   0  0  0  0  0  0  0  0  0  0  0  0
  149.9292  140.4326  153.6006 H   0  0  0  0  0  0  0  0  0  0  0  0
  151.0824  141.8543  155.2232 H   0  0  0  0  0  0  0  0  0  0  0  0
  152.3586  140.0613  158.9342 H   0  0  0  0  0  0  0  0  0  0  0  0
  150.7955  140.3647  159.7089 H   0  0  0  0  0  0  0  0  0  0  0  0
  152.0852  141.5584  159.8232 H   0  0  0  0  0  0  0  0  0  0  0  0
  150.4576  143.4075  157.5459 H   0  0  0  0  0  0  0  0  0  0  0  0
  152.0079  142.9891  156.7960 H   0  0  0  0  0  0  0  0  0  0  0  0
  151.9201  143.3233  158.5228 H   0  0  0  0  0  0  0  0  0  0  0  0
  148.6278  137.9498  156.8986 H   0  0  0  0  0  0  0  0  0  0  0  0
  145.1111  133.8489  153.4300 H   0  0  0  0  0  0  0  0  0  0  0  0
  146.6025  134.1651  154.2726 H   0  0  0  0  0  0  0  0  0  0  0  0
  147.6045  134.6405  152.1172 H   0  0  0  0  0  0  0  0  0  0  0  0
  1  2  1  0  0  0  0
  1 22  1  0  0  0  0
  1 23  1  0  0  0  0
  1 24  1  0  0  0  0
  2  3  1  0  0  0  0
  2 25  1  0  0  0  0
  2 26  1  0  0  0  0
  3 21  1  0  0  0  0
  3  4  1  0  0  0  0
  3 47  1  0  0  0  0
  4  5  1  0  0  0  0
  4 27  1  0  0  0  0
  4 28  1  0  0  0  0
  5  6  1  0  0  0  0
  5 29  1  0  0  0  0
  5 30  1  0  0  0  0
  6  7  1  0  0  0  0
  6 31  1  0  0  0  0
  6 32  1  0  0  0  0
  7  8  1  0  0  0  0
  7 21  1  0  0  0  0
  7 33  1  0  0  0  0
  8  9  1  0  0  0  0
  8 34  1  0  0  0  0
  9 10  2  0  0  0  0
  9 11  1  0  0  0  0
 11 12  1  0  0  0  0
 11 35  1  0  0  0  0
 12 20  1  0  0  0  0
 12 13  2  0  0  0  0
 13 14  1  0  0  0  0
 13 36  1  0  0  0  0
 14 15  2  0  0  0  0
 14 37  1  0  0  0  0
 15 16  1  0  0  0  0
 15 19  1  0  0  0  0
 16 17  1  0  0  0  0
 16 18  1  0  0  0  0
 17 38  1  0  0  0  0
 17 39  1  0  0  0  0
 17 40  1  0  0  0  0
 18 41  1  0  0  0  0
 18 42  1  0  0  0  0
 18 43  1  0  0  0  0
 19 20  2  0  0  0  0
 20 44  1  0  0  0  0
 21 45  1  0  0  0  0
 21 46  1  0  0  0  0
M  CHG  1   3   1
M  END
> <s_m_source_file>
AV-unprocessed.smi

> <i_m_source_file_index>
1093

> <i_lp_mmshare_version>
43012

> <i_f3d_flags>
0

> <s_epik_input>
W0NIM11bQ0gyXU4xW0NIMl1bQ0gyXVtDSDJdW0NASF0oW0NIMl0xKVtOSF1DKD1PKVtOSF1jMltjSF1bY0hdYyhOKFtDSDNdKVtDSDNdKW5bY0hdMg==

> <s_epik_cmdline>
J2VwaWtfcHl0aG9uJywgJy1waCcsICc3LjAnLCAnLXRuJywgJzgnLCAnLW1hJywgJzIwMCcsICctbWV0YWxfYmluZGluZycsICctaW1hZScsICc8aW5maWxlLm1hZT4nLCAnLW9tYWUnLCAnPG91dGZpbGUubWFlPic=

> <r_lp_tautomer_probability>
1

> <r_epik_Ionization_Penalty>
0.489418

> <r_epik_Ionization_Penalty_Charging>
0.00268196

> <r_epik_Ionization_Penalty_Neutral>
0.486736

> <r_epik_State_Penalty>
0.491157

> <r_epik_Charging_Adjusted_Penalty>
0.493839

> <i_epik_Tot_Q>
1

> <i_epik_Tot_abs_Q>
1

> <r_epik_Metal_State_Penalty>
0.266953

> <b_epik_Metal_Only>
0

> <s_lp_Force_Field>
OPLS_2005

> <r_lp_Energy>
27.6013

> <b_lp_Chiralities_Consistent>
1

> <s_lp_Variant>
AV-unprocessed.smi:1093-7

> <Gold.Version>
5.8.1

> <Gold.Id.Protein>
6NUR|6NUR_protein|mol2

> <Gold.PLP.Fitness>
38.2975

> <Gold.PLP.PLP>
-29.4936

> <Gold.PLP.part.hbond>
-2.7995

> <Gold.PLP.part.metal>
0.0000

> <Gold.PLP.part.buried>
-1.3926

> <Gold.PLP.part.nonpolar>
-25.0856

> <Gold.PLP.part.repulsive>
0.0548

> <Gold.PLP.ligand.clash>
0.0000

> <Gold.PLP.ligand.torsion>
0.6572

> <Gold.PLP.Chemscore.Hbond>
3.3640

> <Gold.PLP.Chemscore.CHOScore>
0.0000

> <Gold.PLP.Chemscore.Metal>
0.0000

> <Gold.Chemscore.Hbonds>
donor molecule, donor type, donor heavy atom, donor atom, acceptor molecule, acceptor atom, score
      L1  H     3    47       P1  7948  1.89
      L1  H     8    34       P1  7948  1.00
      L1  H    11    35       P1  7948  0.35

> <Gold.PLP.Chemscore.Internal.Correction>
0.0262

> <Gold.Rescore>
     Score         DG    S(hbond)    S(metal)    S(lipo)     H(rot)  DE(clash)    DE(int)     intcor
     15.83     -17.70       2.01        0.00      73.01       1.18       0.28       1.59       ----

> <Gold.Chemscore.Fitness>
15.8339

> <Gold.Chemscore.DG>
-17.6987

> <Gold.Chemscore.ZeroCoef>
-5.4800

> <Gold.Chemscore.Hbond>
2.0084

> <Gold.Chemscore.Metal>
0.0000

> <Gold.Chemscore.Lipo>
73.0117

> <Gold.Chemscore.Internal_Hbond>
0.0000

> <Gold.Chemscore.DEClash>
0.2791

> <Gold.Chemscore.DEInternal>
1.5858

> <Gold.Chemscore.Rot>
1.1842

> <Gold.Chemscore.Internal.Correction>
   9.000000E+99

> <Gold.Chemscore.Hbonds>
donor molecule, donor type, donor heavy atom, donor atom, acceptor molecule, acceptor atom, score
      L1  H     3    47       P1  7948  0.59
      L1  H     8    34       P1  7948  0.98
      L1  H    11    35       P1  7948  0.35

> <Gold.Chemscore.Hbond.Weighted>
-6.7080

> <Gold.Chemscore.Metal.Weighted>
-0.0000

> <Gold.Chemscore.Lipo.Weighted>
-8.5424

> <Gold.Chemscore.Internal_Hbond.Weighted>
0.0000

> <Gold.Chemscore.DEClash.Weighted>
0.2791

> <Gold.Chemscore.DEInternal.Weighted>
1.5858

> <Gold.Chemscore.Rot.Weighted>
3.0317

> <Gold.Chemscore.Internal.Correction.Weighted>
   9.000000E+99

> <Gold.Protein.RotatedTorsions>
[ 6907 6896 6895 6894 ] final  115.20 input  -60.11 | X-H torsion
[ 7974 7965 7964 7962 ] final -165.54 input  175.53 | X-H torsion
[ 8008 7997 7996 7995 ] final  -40.22 input   59.86 | X-H torsion
[ 10167 10162 10161 10158 ] final  -95.34 input  -65.29 | X-H torsion
[ 10718 10713 10712 10709 ] final  -22.73 input   66.30 | X-H torsion
[ 10763 10752 10751 10750 ] final -115.96 input  -60.55 | X-H torsion
[ 11005 11000 10999 10996 ] final  128.89 input  -57.11 | X-H torsion

> <Gold.Protein.ActiveResidues>
 VAL166  LYS551  ARG553  GLY616  TRP617  ASP618  TYR619  PRO620  LYS621  CYS622 
 ASP623  PHE694  ASN695  SER759  ASP760  ASP761  ALA762  ILE779  LEU786  VAL792 
 PHE793  MET794  SER795  GLU796  ALA797  LYS798  CYS799  TRP800  GLU811  SER814 

> <Gold.Protein.RotatedAtoms>
  152.4756  133.8131  159.7013 H   0  0  0  0  0  0  0  0  0  0  0  0  # atno 6907 bound_to 6896
  150.8771  133.7414  159.2950 H   0  0  0  0  0  0  0  0  0  0  0  0  # atno 6908 bound_to 6896
  151.4930  135.1062  159.9860 H   0  0  0  0  0  0  0  0  0  0  0  0  # atno 6909 bound_to 6896
  144.7267  140.2799  143.6237 H   0  0  0  0  0  0  0  0  0  0  0  0  # atno 7974 bound_to 7965
  154.4014  140.1531  156.2992 H   0  0  0  0  0  0  0  0  0  0  0  0  # atno 8008 bound_to 7997
  155.8716  140.3448  155.5803 H   0  0  0  0  0  0  0  0  0  0  0  0  # atno 8009 bound_to 7997
  155.7768  140.0838  157.2070 H   0  0  0  0  0  0  0  0  0  0  0  0  # atno 8010 bound_to 7997
  140.3052  143.3138  152.0206 H   0  0  0  0  0  0  0  0  0  0  0  0  # atno 10167 bound_to 10162
  156.5005  130.4587  149.6703 H   0  0  0  0  0  0  0  0  0  0  0  0  # atno 10718 bound_to 10713
  154.8501  135.4362  154.1746 H   0  0  0  0  0  0  0  0  0  0  0  0  # atno 10763 bound_to 10752
  153.2851  135.6957  153.7353 H   0  0  0  0  0  0  0  0  0  0  0  0  # atno 10764 bound_to 10752
  153.6542  135.3446  155.3083 H   0  0  0  0  0  0  0  0  0  0  0  0  # atno 10765 bound_to 10752
  139.9585  134.9607  156.9068 H   0  0  0  0  0  0  0  0  0  0  0  0  # atno 11005 bound_to 11000
  145.7959  139.1945  143.2076 LP  0  0  0  0  0  0  0  0  0  0  0  0  # atno 17320 bound_to 7965
  146.0717  140.7862  142.9685 LP  0  0  0  0  0  0  0  0  0  0  0  0  # atno 17321 bound_to 7965
  139.4906  144.6426  151.6845 LP  0  0  0  0  0  0  0  0  0  0  0  0  # atno 17342 bound_to 10162
  140.5616  144.0258  150.6172 LP  0  0  0  0  0  0  0  0  0  0  0  0  # atno 17343 bound_to 10162
  156.3337  130.7345  151.2279 LP  0  0  0  0  0  0  0  0  0  0  0  0  # atno 17370 bound_to 10713
  157.7463  131.0423  150.4687 LP  0  0  0  0  0  0  0  0  0  0  0  0  # atno 17371 bound_to 10713
  140.5553  134.0587  155.7382 LP  0  0  0  0  0  0  0  0  0  0  0  0  # atno 17394 bound_to 11000
  141.1260  133.9382  157.2634 LP  0  0  0  0  0  0  0  0  0  0  0  0  # atno 17395 bound_to 11000

$$$$
