AV-unprocessed.smi:2504|AV-procd|sdf|9851|dock9
  -GOLD-   2272013483D 1   1.00000     0.00000
 Structure written by MMmdl.
 45 47  0  0  0  0  0  0  0  0  2 V2000
  148.6655  138.9932  154.1218 O   0  0  0  0  0  0  0  0  0  0  0  0
  149.6622  139.7027  154.2672 C   0  0  0  0  0  0  0  0  0  0  0  0
  149.5407  141.2401  154.3784 C   0  0  0  0  0  0  0  0  0  0  0  0
  149.8164  141.7848  155.7905 C   0  0  0  0  0  0  0  0  0  0  0  0
  148.4819  141.6951  156.5431 C   0  0  0  0  0  0  0  0  0  0  0  0
  147.3859  141.6421  155.4678 C   0  0  0  0  0  0  0  0  0  0  0  0
  148.1061  141.7235  154.1153 C   0  0  0  0  0  0  0  0  0  0  0  0
  150.9349  139.1427  154.4145 N   0  0  0  0  0  0  0  0  0  0  0  0
  151.9080  139.6779  155.3558 C   0  0  0  0  0  0  0  0  0  0  0  0
  152.4549  138.2481  155.4302 C   0  0  0  0  0  0  0  0  0  0  0  0
  152.8103  137.7053  157.1615 S   0  0  0  0  0  0  0  0  0  0  0  0
  151.5057  137.3799  157.7598 O   0  0  0  0  0  0  0  0  0  0  0  0
  153.7847  136.6052  157.0644 O   0  0  0  0  0  0  0  0  0  0  0  0
  153.4377  139.0716  157.7721 N   0  5  0  0  0  0  0  0  0  0  0  0
  152.5814  140.0010  158.4925 C   0  0  0  0  0  0  0  0  0  0  0  0
  153.4231  140.9147  159.4139 C   0  0  0  0  0  0  0  0  0  0  0  0
  152.7996  142.2707  159.7283 C   0  0  0  0  0  0  0  0  0  0  0  0
  152.4659  142.6360  161.0510 C   0  0  0  0  0  0  0  0  0  0  0  0
  151.9017  143.9047  161.2849 C   0  0  0  0  0  0  0  0  0  0  0  0
  151.6891  144.7571  160.1832 C   0  0  0  0  0  0  0  0  0  0  0  0
  151.9908  144.4171  158.9122 N   0  0  0  0  0  0  0  0  0  0  0  0
  152.5342  143.1999  158.6973 C   0  0  0  0  0  0  0  0  0  0  0  0
  151.1073  137.7706  154.8680 C   0  0  0  0  0  0  0  0  0  0  0  0
  150.2377  141.6934  153.6735 H   0  0  0  0  0  0  0  0  0  0  0  0
  150.6232  141.2690  156.3132 H   0  0  0  0  0  0  0  0  0  0  0  0
  150.1160  142.8308  155.7127 H   0  0  0  0  0  0  0  0  0  0  0  0
  148.4502  140.7878  157.1480 H   0  0  0  0  0  0  0  0  0  0  0  0
  148.3504  142.5412  157.2184 H   0  0  0  0  0  0  0  0  0  0  0  0
  146.8413  140.7000  155.5452 H   0  0  0  0  0  0  0  0  0  0  0  0
  146.6606  142.4481  155.5821 H   0  0  0  0  0  0  0  0  0  0  0  0
  148.1350  142.7606  153.7787 H   0  0  0  0  0  0  0  0  0  0  0  0
  147.5855  141.1552  153.3433 H   0  0  0  0  0  0  0  0  0  0  0  0
  152.5964  140.4043  154.9234 H   0  0  0  0  0  0  0  0  0  0  0  0
  151.4669  140.0201  156.2941 H   0  0  0  0  0  0  0  0  0  0  0  0
  153.3055  138.0784  154.7684 H   0  0  0  0  0  0  0  0  0  0  0  0
  152.0274  140.6328  157.7976 H   0  0  0  0  0  0  0  0  0  0  0  0
  151.8223  139.4925  159.0881 H   0  0  0  0  0  0  0  0  0  0  0  0
  153.6326  140.3972  160.3512 H   0  0  0  0  0  0  0  0  0  0  0  0
  154.3948  141.0886  158.9500 H   0  0  0  0  0  0  0  0  0  0  0  0
  152.6476  141.9594  161.8732 H   0  0  0  0  0  0  0  0  0  0  0  0
  151.6426  144.2190  162.2849 H   0  0  0  0  0  0  0  0  0  0  0  0
  151.2600  145.7377  160.3268 H   0  0  0  0  0  0  0  0  0  0  0  0
  152.7737  142.9632  157.6708 H   0  0  0  0  0  0  0  0  0  0  0  0
  150.3766  137.4718  155.6211 H   0  0  0  0  0  0  0  0  0  0  0  0
  151.1886  137.0448  154.0587 H   0  0  0  0  0  0  0  0  0  0  0  0
  1  2  2  0  0  0  0
  2  3  1  0  0  0  0
  2  8  1  0  0  0  0
  3  7  1  0  0  0  0
  3  4  1  0  0  0  0
  3 24  1  0  0  0  0
  4  5  1  0  0  0  0
  4 25  1  0  0  0  0
  4 26  1  0  0  0  0
  5  6  1  0  0  0  0
  5 27  1  0  0  0  0
  5 28  1  0  0  0  0
  6  7  1  0  0  0  0
  6 29  1  0  0  0  0
  6 30  1  0  0  0  0
  7 31  1  0  0  0  0
  7 32  1  0  0  0  0
  8 23  1  0  0  0  0
  8  9  1  0  0  0  0
  9 10  1  0  0  0  0
  9 33  1  0  0  0  0
  9 34  1  0  0  0  0
 10 11  1  0  0  0  0
 10 23  1  0  0  0  0
 10 35  1  0  0  0  0
 11 12  2  0  0  0  0
 11 13  2  0  0  0  0
 11 14  1  0  0  0  0
 14 15  1  0  0  0  0
 15 16  1  0  0  0  0
 15 36  1  0  0  0  0
 15 37  1  0  0  0  0
 16 17  1  0  0  0  0
 16 38  1  0  0  0  0
 16 39  1  0  0  0  0
 17 22  1  0  0  0  0
 17 18  2  0  0  0  0
 18 19  1  0  0  0  0
 18 40  1  0  0  0  0
 19 20  2  0  0  0  0
 19 41  1  0  0  0  0
 20 21  1  0  0  0  0
 20 42  1  0  0  0  0
 21 22  2  0  0  0  0
 22 43  1  0  0  0  0
 23 44  1  0  0  0  0
 23 45  1  0  0  0  0
M  CHG  1  14  -1
M  END
> <s_m_source_file>
AV-unprocessed.smi

> <i_m_source_file_index>
2504

> <i_lp_mmshare_version>
43012

> <i_f3d_flags>
0

> <s_epik_input>
W0NIMl0xW0NIMl1bQ0gyXVtDSDJdW0NIXTFDKD1PKU4yW0NIMl1bQ0hdKFtDSDJdMilTKD1PKSg9TylbTkhdW0NIMl1bQ0gyXWMzW2NIXVtjSF1bY0hdbltjSF0z

> <s_epik_cmdline>
J2VwaWtfcHl0aG9uJywgJy1waCcsICc3LjAnLCAnLXRuJywgJzgnLCAnLW1hJywgJzIwMCcsICctbWV0YWxfYmluZGluZycsICctaW1hZScsICc8aW5maWxlLm1hZT4nLCAnLW9tYWUnLCAnPG91dGZpbGUubWFlPic=

> <r_epik_Ionization_Penalty>
5.82897

> <r_epik_Ionization_Penalty_Charging>
5.8024

> <r_epik_Ionization_Penalty_Neutral>
0.0265674

> <r_epik_State_Penalty>
5.81059

> <r_epik_Charging_Adjusted_Penalty>
11.613

> <i_epik_Tot_Q>
-1

> <i_epik_Tot_abs_Q>
1

> <r_epik_Metal_State_Penalty>
1.79017

> <b_epik_Metal_Only>
1

> <s_lp_Force_Field>
OPLS_2005

> <r_lp_Energy>
30.9789

> <b_lp_Chiralities_Consistent>
1

> <s_lp_Variant>
AV-unprocessed.smi:2504-3

> <Gold.Version>
5.8.1

> <Gold.Id.Protein>
6NUR|6NUR_protein|mol2

> <Gold.PLP.Fitness>
58.4200

> <Gold.PLP.PLP>
-51.1624

> <Gold.PLP.part.hbond>
-2.0000

> <Gold.PLP.part.metal>
0.0000

> <Gold.PLP.part.buried>
-4.2104

> <Gold.PLP.part.nonpolar>
-44.9648

> <Gold.PLP.part.repulsive>
0.1502

> <Gold.PLP.ligand.clash>
0.0000

> <Gold.PLP.ligand.torsion>
2.1210

> <Gold.PLP.Chemscore.Hbond>
2.9920

> <Gold.PLP.Chemscore.CHOScore>
0.0000

> <Gold.PLP.Chemscore.Metal>
0.0000

> <Gold.Chemscore.Hbonds>
donor molecule, donor type, donor heavy atom, donor atom, acceptor molecule, acceptor atom, score
      P1  H  7997  8009       L1    14  2.00
      P1  H 10752 10765       L1    13  0.84

> <Gold.PLP.Chemscore.Internal.Correction>
2.5236

> <Gold.Rescore>
     Score         DG    S(hbond)    S(metal)    S(lipo)     H(rot)  DE(clash)    DE(int)     intcor
     18.26     -20.85       1.64        0.00     119.79       1.61       0.20       2.38       ----

> <Gold.Chemscore.Fitness>
18.2607

> <Gold.Chemscore.DG>
-20.8454

> <Gold.Chemscore.ZeroCoef>
-5.4800

> <Gold.Chemscore.Hbond>
1.6392

> <Gold.Chemscore.Metal>
0.0000

> <Gold.Chemscore.Lipo>
119.7859

> <Gold.Chemscore.Internal_Hbond>
0.0000

> <Gold.Chemscore.DEClash>
0.2047

> <Gold.Chemscore.DEInternal>
2.3801

> <Gold.Chemscore.Rot>
1.6110

> <Gold.Chemscore.Internal.Correction>
   9.000000E+99

> <Gold.Chemscore.Hbonds>
donor molecule, donor type, donor heavy atom, donor atom, acceptor molecule, acceptor atom, score
      P1  H  7997  8009       L1    14  0.55
      P1  H 10752 10765       L1    13  0.79

> <Gold.Chemscore.Hbond.Weighted>
-5.4748

> <Gold.Chemscore.Metal.Weighted>
-0.0000

> <Gold.Chemscore.Lipo.Weighted>
-14.0150

> <Gold.Chemscore.Internal_Hbond.Weighted>
0.0000

> <Gold.Chemscore.DEClash.Weighted>
0.2047

> <Gold.Chemscore.DEInternal.Weighted>
2.3801

> <Gold.Chemscore.Rot.Weighted>
4.1243

> <Gold.Chemscore.Internal.Correction.Weighted>
   9.000000E+99

> <Gold.Protein.RotatedTorsions>
[ 6907 6896 6895 6894 ] final  -42.42 input  -60.11 | X-H torsion
[ 7974 7965 7964 7962 ] final    9.73 input  175.53 | X-H torsion
[ 8008 7997 7996 7995 ] final  148.14 input   59.86 | X-H torsion
[ 10167 10162 10161 10158 ] final   52.92 input  -65.29 | X-H torsion
[ 10718 10713 10712 10709 ] final   91.07 input   66.30 | X-H torsion
[ 10763 10752 10751 10750 ] final  -99.55 input  -60.55 | X-H torsion
[ 11005 11000 10999 10996 ] final   -4.74 input  -57.11 | X-H torsion

> <Gold.Protein.ActiveResidues>
 VAL166  LYS551  ARG553  GLY616  TRP617  ASP618  TYR619  PRO620  LYS621  CYS622 
 ASP623  PHE694  ASN695  SER759  ASP760  ASP761  ALA762  ILE779  LEU786  VAL792 
 PHE793  MET794  SER795  GLU796  ALA797  LYS798  CYS799  TRP800  GLU811  SER814 

> <Gold.Protein.RotatedAtoms>
  150.9555  134.8949  159.7697 H   0  0  0  0  0  0  0  0  0  0  0  0  # atno 6907 bound_to 6896
  152.5136  134.3747  159.9340 H   0  0  0  0  0  0  0  0  0  0  0  0  # atno 6908 bound_to 6896
  151.3761  133.3797  159.2739 H   0  0  0  0  0  0  0  0  0  0  0  0  # atno 6909 bound_to 6896
  146.2399  139.9740  142.8443 H   0  0  0  0  0  0  0  0  0  0  0  0  # atno 7974 bound_to 7965
  156.2801  140.2136  156.5651 H   0  0  0  0  0  0  0  0  0  0  0  0  # atno 8008 bound_to 7997
  154.7181  140.0506  157.0636 H   0  0  0  0  0  0  0  0  0  0  0  0  # atno 8009 bound_to 7997
  155.0515  140.3157  155.4693 H   0  0  0  0  0  0  0  0  0  0  0  0  # atno 8010 bound_to 7997
  140.2462  144.3529  150.6363 H   0  0  0  0  0  0  0  0  0  0  0  0  # atno 10167 bound_to 10162
  157.6960  131.0394  150.3673 H   0  0  0  0  0  0  0  0  0  0  0  0  # atno 10718 bound_to 10713
  154.7507  135.4968  153.9284 H   0  0  0  0  0  0  0  0  0  0  0  0  # atno 10763 bound_to 10752
  153.1140  135.6716  153.9458 H   0  0  0  0  0  0  0  0  0  0  0  0  # atno 10764 bound_to 10752
  153.9209  135.3088  155.3426 H   0  0  0  0  0  0  0  0  0  0  0  0  # atno 10765 bound_to 10752
  140.6836  133.9132  155.8571 H   0  0  0  0  0  0  0  0  0  0  0  0  # atno 11005 bound_to 11000
  145.1654  140.9694  143.4353 LP  0  0  0  0  0  0  0  0  0  0  0  0  # atno 17320 bound_to 7965
  145.0078  139.3538  143.6135 LP  0  0  0  0  0  0  0  0  0  0  0  0  # atno 17321 bound_to 7965
  140.6075  143.2168  151.6951 LP  0  0  0  0  0  0  0  0  0  0  0  0  # atno 17342 bound_to 10162
  139.5061  144.3694  152.0485 LP  0  0  0  0  0  0  0  0  0  0  0  0  # atno 17343 bound_to 10162
  156.4102  130.3933  149.6897 LP  0  0  0  0  0  0  0  0  0  0  0  0  # atno 17370 bound_to 10713
  156.4183  130.7756  151.2772 LP  0  0  0  0  0  0  0  0  0  0  0  0  # atno 17371 bound_to 10713
  141.0298  134.0772  157.4027 LP  0  0  0  0  0  0  0  0  0  0  0  0  # atno 17394 bound_to 11000
  139.8944  135.0136  156.6950 LP  0  0  0  0  0  0  0  0  0  0  0  0  # atno 17395 bound_to 11000

$$$$
