AV-unprocessed.smi:198|AV-procd|sdf|1552|dock5
  -GOLD-   2262019423D 1   1.00000     0.00000
 Structure written by MMmdl.
 59 63  0  0  0  0  0  0  0  0  2 V2000
  151.2931  145.0176  158.8012 C   0  0  0  0  0  0  0  0  0  0  0  0
  151.3660  143.5408  158.8018 N   0  3  1  0  0  0  0  0  0  0  0  0
  151.2009  142.9657  157.4448 C   0  0  0  0  0  0  0  0  0  0  0  0
  151.1689  141.4294  157.4933 C   0  0  0  0  0  0  0  0  0  0  0  0
  152.4450  140.8655  158.1624 C   0  0  1  0  0  0  0  0  0  0  0  0
  152.5642  141.4975  159.5709 C   0  0  1  0  0  0  0  0  0  0  0  0
  153.7928  140.9497  160.3150 C   0  0  0  0  0  0  0  0  0  0  0  0
  153.7182  139.4197  160.3861 C   0  0  0  0  0  0  0  0  0  0  0  0
  153.5826  138.8193  158.9797 C   0  0  0  0  0  0  0  0  0  0  0  0
  152.4492  139.3968  158.2564 N   0  0  0  0  0  0  0  0  0  0  0  0
  152.2294  138.7033  157.1137 C   0  0  0  0  0  0  0  0  0  0  0  0
  152.7866  139.1142  155.9436 N   0  0  0  0  0  0  0  0  0  0  0  0
  152.5725  138.4190  154.8225 C   0  0  0  0  0  0  0  0  0  0  0  0
  151.8550  137.3061  154.6552 N   0  0  0  0  0  0  0  0  0  0  0  0
  151.3067  136.8826  155.8311 C   0  0  0  0  0  0  0  0  0  0  0  0
  151.4479  137.5181  157.0963 C   0  0  0  0  0  0  0  0  0  0  0  0
  150.7552  136.8100  158.0687 N   0  0  0  0  0  0  0  0  0  0  0  0
  150.2296  135.8102  157.4148 C   0  0  0  0  0  0  0  0  0  0  0  0
  150.5077  135.7744  156.0657 N   0  0  0  0  0  0  0  0  0  0  0  0
  150.0441  134.7902  155.1278 C   0  0  0  0  0  0  0  0  0  0  0  0
  148.5824  134.7319  154.6785 C   0  0  0  0  0  0  0  0  0  0  0  0
  148.6959  133.1952  154.5428 C   0  0  0  0  0  0  0  0  0  0  0  0
  147.4689  132.4203  155.0542 C   0  0  0  0  0  0  0  0  0  0  0  0
  146.9783  132.9462  156.2703 O   0  0  0  0  0  0  0  0  0  0  0  0
  149.0399  132.7229  153.1140 C   0  0  0  0  0  0  0  0  0  0  0  0
  147.9241  132.7713  152.2487 O   0  0  0  0  0  0  0  0  0  0  0  0
  149.8792  133.3248  155.5307 C   0  0  0  0  0  0  0  0  0  0  0  0
  152.5865  143.0344  159.4758 C   0  0  0  0  0  0  0  0  0  0  0  0
  152.1118  145.4501  158.2247 H   0  0  0  0  0  0  0  0  0  0  0  0
  151.3479  145.4067  159.8185 H   0  0  0  0  0  0  0  0  0  0  0  0
  150.3518  145.3563  158.3673 H   0  0  0  0  0  0  0  0  0  0  0  0
  150.2744  143.3346  157.0031 H   0  0  0  0  0  0  0  0  0  0  0  0
  152.0155  143.3034  156.8020 H   0  0  0  0  0  0  0  0  0  0  0  0
  150.2853  141.0977  158.0407 H   0  0  0  0  0  0  0  0  0  0  0  0
  151.0558  141.0553  156.4761 H   0  0  0  0  0  0  0  0  0  0  0  0
  153.3137  141.1668  157.5741 H   0  0  0  0  0  0  0  0  0  0  0  0
  151.6816  141.2143  160.1476 H   0  0  0  0  0  0  0  0  0  0  0  0
  154.7073  141.2523  159.8032 H   0  0  0  0  0  0  0  0  0  0  0  0
  153.8434  141.3652  161.3219 H   0  0  0  0  0  0  0  0  0  0  0  0
  154.6064  139.0225  160.8780 H   0  0  0  0  0  0  0  0  0  0  0  0
  152.8647  139.1200  160.9957 H   0  0  0  0  0  0  0  0  0  0  0  0
  154.4977  138.9982  158.4127 H   0  0  0  0  0  0  0  0  0  0  0  0
  153.4673  137.7373  159.0602 H   0  0  0  0  0  0  0  0  0  0  0  0
  153.0425  138.8098  153.9320 H   0  0  0  0  0  0  0  0  0  0  0  0
  149.6174  135.0668  157.9048 H   0  0  0  0  0  0  0  0  0  0  0  0
  150.6975  134.8617  154.2563 H   0  0  0  0  0  0  0  0  0  0  0  0
  147.8847  135.0435  155.4570 H   0  0  0  0  0  0  0  0  0  0  0  0
  148.3788  135.2610  153.7470 H   0  0  0  0  0  0  0  0  0  0  0  0
  146.6541  132.4670  154.3308 H   0  0  0  0  0  0  0  0  0  0  0  0
  147.6964  131.3628  155.1908 H   0  0  0  0  0  0  0  0  0  0  0  0
  147.6485  133.4889  156.6565 H   0  0  0  0  0  0  0  0  0  0  0  0
  149.8415  133.3241  152.6838 H   0  0  0  0  0  0  0  0  0  0  0  0
  149.4039  131.6952  153.1172 H   0  0  0  0  0  0  0  0  0  0  0  0
  148.0891  132.2034  151.5119 H   0  0  0  0  0  0  0  0  0  0  0  0
  150.7414  132.6971  155.3044 H   0  0  0  0  0  0  0  0  0  0  0  0
  149.5748  133.2011  156.5711 H   0  0  0  0  0  0  0  0  0  0  0  0
  153.4726  143.3701  158.9341 H   0  0  0  0  0  0  0  0  0  0  0  0
  152.6455  143.4619  160.4777 H   0  0  0  0  0  0  0  0  0  0  0  0
  150.5812  143.2154  159.3483 H   0  0  0  0  0  0  0  0  0  0  0  0
  1  2  1  0  0  0  0
  1 29  1  0  0  0  0
  1 30  1  0  0  0  0
  1 31  1  0  0  0  0
  2 28  1  0  0  0  0
  2  3  1  0  0  0  0
  2 59  1  0  0  0  0
  3  4  1  0  0  0  0
  3 32  1  0  0  0  0
  3 33  1  0  0  0  0
  4  5  1  0  0  0  0
  4 34  1  0  0  0  0
  4 35  1  0  0  0  0
  5 10  1  0  0  0  0
  5  6  1  0  0  0  0
  5 36  1  0  0  0  0
  6  7  1  0  0  0  0
  6 28  1  0  0  0  0
  6 37  1  0  0  0  0
  7  8  1  0  0  0  0
  7 38  1  0  0  0  0
  7 39  1  0  0  0  0
  8  9  1  0  0  0  0
  8 40  1  0  0  0  0
  8 41  1  0  0  0  0
  9 10  1  0  0  0  0
  9 42  1  0  0  0  0
  9 43  1  0  0  0  0
 10 11  1  0  0  0  0
 11 16  1  0  0  0  0
 11 12  2  0  0  0  0
 12 13  1  0  0  0  0
 13 14  2  0  0  0  0
 13 44  1  0  0  0  0
 14 15  1  0  0  0  0
 15 19  1  0  0  0  0
 15 16  2  0  0  0  0
 16 17  1  0  0  0  0
 17 18  2  0  0  0  0
 18 19  1  0  0  0  0
 18 45  1  0  0  0  0
 19 20  1  0  0  0  0
 20 27  1  0  0  0  0
 20 21  1  0  0  0  0
 20 46  1  0  0  0  0
 21 22  1  0  0  0  0
 21 47  1  0  0  0  0
 21 48  1  0  0  0  0
 22 23  1  0  0  0  0
 22 25  1  0  0  0  0
 22 27  1  0  0  0  0
 23 24  1  0  0  0  0
 23 49  1  0  0  0  0
 23 50  1  0  0  0  0
 24 51  1  0  0  0  0
 25 26  1  0  0  0  0
 25 52  1  0  0  0  0
 25 53  1  0  0  0  0
 26 54  1  0  0  0  0
 27 55  1  0  0  0  0
 27 56  1  0  0  0  0
 28 57  1  0  0  0  0
 28 58  1  0  0  0  0
M  CHG  1   2   1
M  END
> <s_m_source_file>
AV-unprocessed.smi

> <i_m_source_file_index>
198

> <i_lp_mmshare_version>
43012

> <i_f3d_flags>
0

> <s_epik_input>
W0NIMl0xW0NIMl1OKFtDSDNdKVtDSDJdW0NAQEhdKFtDQEhdMTIpW0NIMl1bQ0gyXVtDSDJdTjJjKG5bY0hdbjMpYyhjMzQpbltjSF1uNFtDSF0oW0NIMl01KVtDSDJdQzUoW0NIMl1bT0hdKVtDSDJdW09IXQ==

> <s_epik_cmdline>
J2VwaWtfcHl0aG9uJywgJy1waCcsICc3LjAnLCAnLXRuJywgJzgnLCAnLW1hJywgJzIwMCcsICctbWV0YWxfYmluZGluZycsICctaW1hZScsICc8aW5maWxlLm1hZT4nLCAnLW9tYWUnLCAnPG91dGZpbGUubWFlPic=

> <r_lp_tautomer_probability>
1

> <r_epik_Ionization_Penalty>
0.00239938

> <r_epik_Ionization_Penalty_Charging>
0.00138697

> <r_epik_Ionization_Penalty_Neutral>
0.00101241

> <r_epik_State_Penalty>
-0

> <r_epik_Charging_Adjusted_Penalty>
0.00138697

> <i_epik_Tot_Q>
1

> <i_epik_Tot_abs_Q>
1

> <r_epik_Metal_State_Penalty>
-0

> <b_epik_Metal_Only>
0

> <s_lp_Force_Field>
OPLS_2005

> <r_lp_Energy>
56.2866

> <b_lp_Chiralities_Consistent>
1

> <s_lp_Variant>
AV-unprocessed.smi:198-1

> <Gold.Version>
5.8.1

> <Gold.Id.Protein>
6NUR|6NUR_protein|mol2

> <Gold.PLP.Fitness>
51.9035

> <Gold.PLP.PLP>
-45.1298

> <Gold.PLP.part.hbond>
-3.0000

> <Gold.PLP.part.metal>
0.0000

> <Gold.PLP.part.buried>
-7.4789

> <Gold.PLP.part.nonpolar>
-35.3094

> <Gold.PLP.part.repulsive>
0.1632

> <Gold.PLP.ligand.clash>
0.0000

> <Gold.PLP.ligand.torsion>
1.3157

> <Gold.PLP.Chemscore.Hbond>
2.9193

> <Gold.PLP.Chemscore.CHOScore>
0.0000

> <Gold.PLP.Chemscore.Metal>
0.0000

> <Gold.Chemscore.Hbonds>
donor molecule, donor type, donor heavy atom, donor atom, acceptor molecule, acceptor atom, score
      L1  H    26    54       P1 10747  1.00
      P1  H  7997  8009       L1    12  1.00
      P1  H 10752 10763       L1    14  0.84

> <Gold.PLP.Chemscore.Internal.Correction>
0.6473

> <Gold.Rescore>
     Score         DG    S(hbond)    S(metal)    S(lipo)     H(rot)  DE(clash)    DE(int)     intcor
     17.53     -18.99       2.48        0.00     112.07       3.08       0.10       1.36       ----

> <Gold.Chemscore.Fitness>
17.5305

> <Gold.Chemscore.DG>
-18.9880

> <Gold.Chemscore.ZeroCoef>
-5.4800

> <Gold.Chemscore.Hbond>
2.4779

> <Gold.Chemscore.Metal>
0.0000

> <Gold.Chemscore.Lipo>
112.0663

> <Gold.Chemscore.Internal_Hbond>
0.0000

> <Gold.Chemscore.DEClash>
0.0963

> <Gold.Chemscore.DEInternal>
1.3612

> <Gold.Chemscore.Rot>
3.0781

> <Gold.Chemscore.Internal.Correction>
   9.000000E+99

> <Gold.Chemscore.Hbonds>
donor molecule, donor type, donor heavy atom, donor atom, acceptor molecule, acceptor atom, score
      L1  H    26    54       P1 10747  0.93
      P1  H  7997  8009       L1    12  0.65
      P1  H 10752 10763       L1    14  0.13

> <Gold.Chemscore.Hbond.Weighted>
-8.2762

> <Gold.Chemscore.Metal.Weighted>
-0.0000

> <Gold.Chemscore.Lipo.Weighted>
-13.1118

> <Gold.Chemscore.Internal_Hbond.Weighted>
0.0000

> <Gold.Chemscore.DEClash.Weighted>
0.0963

> <Gold.Chemscore.DEInternal.Weighted>
1.3612

> <Gold.Chemscore.Rot.Weighted>
7.8800

> <Gold.Chemscore.Internal.Correction.Weighted>
   9.000000E+99

> <Gold.Protein.RotatedTorsions>
[ 6907 6896 6895 6894 ] final   43.66 input  -60.11 | X-H torsion
[ 7974 7965 7964 7962 ] final   25.77 input  175.53 | X-H torsion
[ 8008 7997 7996 7995 ] final -163.60 input   59.86 | X-H torsion
[ 10167 10162 10161 10158 ] final  109.10 input  -65.29 | X-H torsion
[ 10718 10713 10712 10709 ] final -158.90 input   66.30 | X-H torsion
[ 10763 10752 10751 10750 ] final   38.76 input  -60.55 | X-H torsion
[ 11005 11000 10999 10996 ] final   98.26 input  -57.11 | X-H torsion

> <Gold.Protein.ActiveResidues>
 VAL166  LYS551  ARG553  GLY616  TRP617  ASP618  TYR619  PRO620  LYS621  CYS622 
 ASP623  PHE694  ASN695  SER759  ASP760  ASP761  ALA762  ILE779  LEU786  VAL792 
 PHE793  MET794  SER795  GLU796  ALA797  LYS798  CYS799  TRP800  GLU811  SER814 

> <Gold.Protein.RotatedAtoms>
  152.2230  134.8395  160.0483 H   0  0  0  0  0  0  0  0  0  0  0  0  # atno 6907 bound_to 6896
  151.9171  133.3571  159.3892 H   0  0  0  0  0  0  0  0  0  0  0  0  # atno 6908 bound_to 6896
  150.7005  134.4598  159.5419 H   0  0  0  0  0  0  0  0  0  0  0  0  # atno 6909 bound_to 6896
  146.1872  139.7421  142.8858 H   0  0  0  0  0  0  0  0  0  0  0  0  # atno 7974 bound_to 7965
  155.8237  140.0923  157.1834 H   0  0  0  0  0  0  0  0  0  0  0  0  # atno 8008 bound_to 7997
  154.3979  140.1432  156.3590 H   0  0  0  0  0  0  0  0  0  0  0  0  # atno 8009 bound_to 7997
  155.8240  140.3445  155.5534 H   0  0  0  0  0  0  0  0  0  0  0  0  # atno 8010 bound_to 7997
  139.6793  144.7119  151.1544 H   0  0  0  0  0  0  0  0  0  0  0  0  # atno 10167 bound_to 10162
  156.5606  130.8645  151.2808 H   0  0  0  0  0  0  0  0  0  0  0  0  # atno 10718 bound_to 10713
  152.9990  135.6240  154.2357 H   0  0  0  0  0  0  0  0  0  0  0  0  # atno 10763 bound_to 10752
  154.2098  135.2800  155.2964 H   0  0  0  0  0  0  0  0  0  0  0  0  # atno 10764 bound_to 10752
  154.5615  135.5703  153.7071 H   0  0  0  0  0  0  0  0  0  0  0  0  # atno 10765 bound_to 10752
  139.8773  134.9040  156.4429 H   0  0  0  0  0  0  0  0  0  0  0  0  # atno 11005 bound_to 11000
  145.3903  141.0371  143.3128 LP  0  0  0  0  0  0  0  0  0  0  0  0  # atno 17320 bound_to 7965
  144.8419  139.5459  143.6896 LP  0  0  0  0  0  0  0  0  0  0  0  0  # atno 17321 bound_to 7965
  140.7647  143.5723  150.8983 LP  0  0  0  0  0  0  0  0  0  0  0  0  # atno 17342 bound_to 10162
  139.9394  143.6400  152.3057 LP  0  0  0  0  0  0  0  0  0  0  0  0  # atno 17343 bound_to 10162
  157.7369  130.9787  150.2164 LP  0  0  0  0  0  0  0  0  0  0  0  0  # atno 17370 bound_to 10713
  156.2802  130.3732  149.7942 LP  0  0  0  0  0  0  0  0  0  0  0  0  # atno 17371 bound_to 10713
  140.8986  133.7796  155.9654 LP  0  0  0  0  0  0  0  0  0  0  0  0  # atno 17394 bound_to 11000
  140.8675  134.2766  157.5206 LP  0  0  0  0  0  0  0  0  0  0  0  0  # atno 17395 bound_to 11000

$$$$
