AV-unprocessed.smi:3056|AV-procd|sdf|11645|dock3
  -GOLD-   2272017 43D 1   1.00000     0.00000
 Structure written by MMmdl.
 48 49  0  0  0  0  0  0  0  0  2 V2000
  144.3973  134.6057  150.4835 C   0  0  0  0  0  0  0  0  0  0  0  0
  144.5714  135.6613  151.5374 C   0  0  0  0  0  0  0  0  0  0  0  0
  143.5622  136.3061  152.3061 C   0  0  0  0  0  0  0  0  0  0  0  0
  144.0533  137.1908  153.1583 N   0  0  0  0  0  0  0  0  0  0  0  0
  145.3890  137.1594  152.9567 N   0  0  0  0  0  0  0  0  0  0  0  0
  146.2517  138.0134  153.7693 C   0  0  2  0  0  0  0  0  0  0  0  0
  145.4555  138.7356  154.8721 C   0  0  0  0  0  0  0  0  0  0  0  0
  147.0960  138.9962  152.9104 C   0  0  2  0  0  0  0  0  0  0  0  0
  146.7094  139.0070  151.4205 C   0  0  0  0  0  0  0  0  0  0  0  0
  148.5446  138.6991  153.0256 N   0  3  0  0  0  0  0  0  0  0  0  0
  149.1334  138.8506  154.3773 C   0  0  0  0  0  0  0  0  0  0  0  0
  149.3100  140.3180  154.8067 C   0  0  0  0  0  0  0  0  0  0  0  0
  148.4031  141.1185  154.5712 O   0  0  0  0  0  0  0  0  0  0  0  0
  150.4563  140.6879  155.4264 N   0  0  0  0  0  0  0  0  0  0  0  0
  151.5778  139.8074  155.7676 C   0  0  0  0  0  0  0  0  0  0  0  0
  151.7140  139.7689  157.2998 C   0  0  0  0  0  0  0  0  0  0  0  0
  151.9021  141.0915  157.7973 O   0  0  0  0  0  0  0  0  0  0  0  0
  150.8375  141.9803  157.4624 C   0  0  1  0  0  0  0  0  0  0  0  0
  151.1460  143.3507  158.0752 C   0  0  0  0  0  0  0  0  0  0  0  0
  150.6972  142.0442  155.9278 C   0  0  0  0  0  0  0  0  0  0  0  0
  145.7275  136.2299  151.9910 C   0  0  0  0  0  0  0  0  0  0  0  0
  143.3518  134.4840  150.1991 H   0  0  0  0  0  0  0  0  0  0  0  0
  144.7530  133.6337  150.8254 H   0  0  0  0  0  0  0  0  0  0  0  0
  144.9490  134.8491  149.5753 H   0  0  0  0  0  0  0  0  0  0  0  0
  142.4932  136.1545  152.2729 H   0  0  0  0  0  0  0  0  0  0  0  0
  146.9340  137.3495  154.3016 H   0  0  0  0  0  0  0  0  0  0  0  0
  146.1222  139.2850  155.5371 H   0  0  0  0  0  0  0  0  0  0  0  0
  144.9010  138.0235  155.4841 H   0  0  0  0  0  0  0  0  0  0  0  0
  144.7395  139.4494  154.4654 H   0  0  0  0  0  0  0  0  0  0  0  0
  146.9328  140.0068  153.2875 H   0  0  0  0  0  0  0  0  0  0  0  0
  145.6543  139.2415  151.2817 H   0  0  0  0  0  0  0  0  0  0  0  0
  146.9047  138.0474  150.9411 H   0  0  0  0  0  0  0  0  0  0  0  0
  147.2806  139.7616  150.8791 H   0  0  0  0  0  0  0  0  0  0  0  0
  148.6881  137.7502  152.7094 H   0  0  0  0  0  0  0  0  0  0  0  0
  148.5352  138.3092  155.1099 H   0  0  0  0  0  0  0  0  0  0  0  0
  150.1188  138.3841  154.3548 H   0  0  0  0  0  0  0  0  0  0  0  0
  151.4789  138.7940  155.3828 H   0  0  0  0  0  0  0  0  0  0  0  0
  152.4914  140.2043  155.3227 H   0  0  0  0  0  0  0  0  0  0  0  0
  150.8319  139.3190  157.7584 H   0  0  0  0  0  0  0  0  0  0  0  0
  152.5707  139.1594  157.5876 H   0  0  0  0  0  0  0  0  0  0  0  0
  149.9110  141.6042  157.9001 H   0  0  0  0  0  0  0  0  0  0  0  0
  150.3481  144.0632  157.8647 H   0  0  0  0  0  0  0  0  0  0  0  0
  152.0752  143.7611  157.6789 H   0  0  0  0  0  0  0  0  0  0  0  0
  151.2494  143.2783  159.1582 H   0  0  0  0  0  0  0  0  0  0  0  0
  151.6101  142.4380  155.4779 H   0  0  0  0  0  0  0  0  0  0  0  0
  149.9032  142.7421  155.6589 H   0  0  0  0  0  0  0  0  0  0  0  0
  146.7524  136.0466  151.7045 H   0  0  0  0  0  0  0  0  0  0  0  0
  149.0477  139.3221  152.4098 H   0  0  0  0  0  0  0  0  0  0  0  0
  1  2  1  0  0  0  0
  1 22  1  0  0  0  0
  1 23  1  0  0  0  0
  1 24  1  0  0  0  0
  2 21  2  0  0  0  0
  2  3  1  0  0  0  0
  3  4  2  0  0  0  0
  3 25  1  0  0  0  0
  4  5  1  0  0  0  0
  5  6  1  0  0  0  0
  5 21  1  0  0  0  0
  6  7  1  0  0  0  0
  6  8  1  0  0  0  0
  6 26  1  0  0  0  0
  7 27  1  0  0  0  0
  7 28  1  0  0  0  0
  7 29  1  0  0  0  0
  8  9  1  0  0  0  0
  8 10  1  0  0  0  0
  8 30  1  0  0  0  0
  9 31  1  0  0  0  0
  9 32  1  0  0  0  0
  9 33  1  0  0  0  0
 10 11  1  0  0  0  0
 10 34  1  0  0  0  0
 10 48  1  0  0  0  0
 11 12  1  0  0  0  0
 11 35  1  0  0  0  0
 11 36  1  0  0  0  0
 12 13  2  0  0  0  0
 12 14  1  0  0  0  0
 14 20  1  0  0  0  0
 14 15  1  0  0  0  0
 15 16  1  0  0  0  0
 15 37  1  0  0  0  0
 15 38  1  0  0  0  0
 16 17  1  0  0  0  0
 16 39  1  0  0  0  0
 16 40  1  0  0  0  0
 17 18  1  0  0  0  0
 18 19  1  0  0  0  0
 18 20  1  0  0  0  0
 18 41  1  0  0  0  0
 19 42  1  0  0  0  0
 19 43  1  0  0  0  0
 19 44  1  0  0  0  0
 20 45  1  0  0  0  0
 20 46  1  0  0  0  0
 21 47  1  0  0  0  0
M  CHG  1  10   1
M  END
> <s_m_source_file>
AV-unprocessed.smi

> <i_m_source_file_index>
3056

> <i_lp_mmshare_version>
43012

> <i_f3d_flags>
0

> <s_epik_input>
W0NIM11jMVtjSF1ubihbY0hdMSlbQ0BIXShbQ0gzXSlbQ0BIXShbQ0gzXSlbTkhdW0NIMl1DKD1PKU4yW0NIMl1bQ0gyXU9bQ0BASF0oW0NIM10pW0NIMl0y

> <s_epik_cmdline>
J2VwaWtfcHl0aG9uJywgJy1waCcsICc3LjAnLCAnLXRuJywgJzgnLCAnLW1hJywgJzIwMCcsICctbWV0YWxfYmluZGluZycsICctaW1hZScsICc8aW5maWxlLm1hZT4nLCAnLW9tYWUnLCAnPG91dGZpbGUubWFlPic=

> <r_lp_tautomer_probability>
1

> <r_epik_Ionization_Penalty>
0.233715

> <r_epik_Ionization_Penalty_Charging>
0.233698

> <r_epik_Ionization_Penalty_Neutral>
1.68157e-05

> <r_epik_State_Penalty>
0.225221

> <r_epik_Charging_Adjusted_Penalty>
0.458919

> <i_epik_Tot_Q>
1

> <i_epik_Tot_abs_Q>
1

> <r_epik_Metal_State_Penalty>
0.225535

> <b_epik_Metal_Only>
0

> <s_lp_Force_Field>
OPLS_2005

> <r_lp_Energy>
27.9094

> <b_lp_Chiralities_Consistent>
1

> <s_lp_Variant>
AV-unprocessed.smi:3056-1

> <Gold.Version>
5.8.1

> <Gold.Id.Protein>
6NUR|6NUR_protein|mol2

> <Gold.PLP.Fitness>
46.3526

> <Gold.PLP.PLP>
-37.8742

> <Gold.PLP.part.hbond>
-1.9329

> <Gold.PLP.part.metal>
0.0000

> <Gold.PLP.part.buried>
-2.4167

> <Gold.PLP.part.nonpolar>
-33.5240

> <Gold.PLP.part.repulsive>
0.3679

> <Gold.PLP.ligand.clash>
0.0000

> <Gold.PLP.ligand.torsion>
1.8388

> <Gold.PLP.Chemscore.Hbond>
3.0000

> <Gold.PLP.Chemscore.CHOScore>
1.0000

> <Gold.PLP.Chemscore.Metal>
0.0000

> <Gold.Chemscore.Hbonds>
donor molecule, donor type, donor heavy atom, donor atom, acceptor molecule, acceptor atom, score
      L1  H    10    34       P1  7948  2.00
      L1  H    10    48       P1  7957  1.00
      L1  C    21    47       P1  7948  1.00

> <Gold.PLP.Chemscore.Internal.Correction>
0.1560

> <Gold.Rescore>
     Score         DG    S(hbond)    S(metal)    S(lipo)     H(rot)  DE(clash)    DE(int)     intcor
     15.32     -17.62       1.99        0.00      84.79       1.74       0.31       1.99       ----

> <Gold.Chemscore.Fitness>
15.3199

> <Gold.Chemscore.DG>
-17.6154

> <Gold.Chemscore.ZeroCoef>
-5.4800

> <Gold.Chemscore.Hbond>
1.9933

> <Gold.Chemscore.Metal>
0.0000

> <Gold.Chemscore.Lipo>
84.7889

> <Gold.Chemscore.Internal_Hbond>
0.0000

> <Gold.Chemscore.DEClash>
0.3073

> <Gold.Chemscore.DEInternal>
1.9882

> <Gold.Chemscore.Rot>
1.7354

> <Gold.Chemscore.Internal.Correction>
   9.000000E+99

> <Gold.Chemscore.Hbonds>
donor molecule, donor type, donor heavy atom, donor atom, acceptor molecule, acceptor atom, score
      L1  H    10    34       P1  7948  1.00
      L1  H    10    48       P1  7957  0.93

> <Gold.Chemscore.Hbond.Weighted>
-6.6578

> <Gold.Chemscore.Metal.Weighted>
-0.0000

> <Gold.Chemscore.Lipo.Weighted>
-9.9203

> <Gold.Chemscore.Internal_Hbond.Weighted>
0.0000

> <Gold.Chemscore.DEClash.Weighted>
0.3073

> <Gold.Chemscore.DEInternal.Weighted>
1.9882

> <Gold.Chemscore.Rot.Weighted>
4.4426

> <Gold.Chemscore.Internal.Correction.Weighted>
   9.000000E+99

> <Gold.Protein.RotatedTorsions>
[ 6907 6896 6895 6894 ] final  150.20 input  -60.11 | X-H torsion
[ 7974 7965 7964 7962 ] final  112.25 input  175.53 | X-H torsion
[ 8008 7997 7996 7995 ] final   -8.04 input   59.86 | X-H torsion
[ 10167 10162 10161 10158 ] final   33.88 input  -65.29 | X-H torsion
[ 10718 10713 10712 10709 ] final -104.64 input   66.30 | X-H torsion
[ 10763 10752 10751 10750 ] final -114.03 input  -60.55 | X-H torsion
[ 11005 11000 10999 10996 ] final  154.94 input  -57.11 | X-H torsion

> <Gold.Protein.ActiveResidues>
 VAL166  LYS551  ARG553  GLY616  TRP617  ASP618  TYR619  PRO620  LYS621  CYS622 
 ASP623  PHE694  ASN695  SER759  ASP760  ASP761  ALA762  ILE779  LEU786  VAL792 
 PHE793  MET794  SER795  GLU796  ALA797  LYS798  CYS799  TRP800  GLU811  SER814 

> <Gold.Protein.RotatedAtoms>
  152.1177  133.4335  159.4660 H   0  0  0  0  0  0  0  0  0  0  0  0  # atno 6907 bound_to 6896
  150.6870  134.2573  159.4544 H   0  0  0  0  0  0  0  0  0  0  0  0  # atno 6908 bound_to 6896
  152.0447  134.9690  160.0625 H   0  0  0  0  0  0  0  0  0  0  0  0  # atno 6909 bound_to 6896
  145.2319  139.2816  143.4163 H   0  0  0  0  0  0  0  0  0  0  0  0  # atno 7974 bound_to 7965
  154.5779  140.2391  155.8095 H   0  0  0  0  0  0  0  0  0  0  0  0  # atno 8008 bound_to 7997
  156.2157  140.3013  155.9791 H   0  0  0  0  0  0  0  0  0  0  0  0  # atno 8009 bound_to 7997
  155.2593  140.0414  157.2986 H   0  0  0  0  0  0  0  0  0  0  0  0  # atno 8010 bound_to 7997
  140.4367  144.1247  150.6167 H   0  0  0  0  0  0  0  0  0  0  0  0  # atno 10167 bound_to 10162
  156.0312  130.5525  150.7425 H   0  0  0  0  0  0  0  0  0  0  0  0  # atno 10718 bound_to 10713
  154.8422  135.4433  154.1442 H   0  0  0  0  0  0  0  0  0  0  0  0  # atno 10763 bound_to 10752
  153.2619  135.6937  153.7576 H   0  0  0  0  0  0  0  0  0  0  0  0  # atno 10764 bound_to 10752
  153.6849  135.3397  155.3163 H   0  0  0  0  0  0  0  0  0  0  0  0  # atno 10765 bound_to 10752
  140.1535  134.8658  157.2485 H   0  0  0  0  0  0  0  0  0  0  0  0  # atno 11005 bound_to 11000
  146.3351  140.2657  142.8604 LP  0  0  0  0  0  0  0  0  0  0  0  0  # atno 17320 bound_to 7965
  144.9669  140.8330  143.5479 LP  0  0  0  0  0  0  0  0  0  0  0  0  # atno 17321 bound_to 7965
  140.4366  143.2545  151.9527 LP  0  0  0  0  0  0  0  0  0  0  0  0  # atno 17342 bound_to 10162
  139.4787  144.5694  151.8112 LP  0  0  0  0  0  0  0  0  0  0  0  0  # atno 17343 bound_to 10162
  157.4990  131.0917  151.0337 LP  0  0  0  0  0  0  0  0  0  0  0  0  # atno 17370 bound_to 10713
  157.0723  130.5869  149.5405 LP  0  0  0  0  0  0  0  0  0  0  0  0  # atno 17371 bound_to 10713
  140.2576  134.3609  155.7418 LP  0  0  0  0  0  0  0  0  0  0  0  0  # atno 17394 bound_to 11000
  141.2202  133.7351  156.9030 LP  0  0  0  0  0  0  0  0  0  0  0  0  # atno 17395 bound_to 11000

$$$$
