AV-unprocessed.smi:1216|AV-procd|sdf|5101|dock3
  -GOLD-   22720 4153D 1   1.00000     0.00000
 Structure written by MMmdl.
 42 43  0  0  0  0  0  0  0  0  1 V2000
  146.9791  137.8466  154.9263 C   0  0  0  0  0  0  0  0  0  0  0  0
  146.2717  138.2316  153.6200 C   0  0  1  0  0  0  0  0  0  0  0  0
  146.8639  139.5246  153.0204 C   0  0  0  0  0  0  0  0  0  0  0  0
  148.0784  139.9503  153.6919 N   0  0  0  0  0  0  0  0  0  0  0  0
  148.2471  141.0785  154.4843 C   0  0  0  0  0  0  0  0  0  0  0  0
  149.5565  141.0684  154.9083 C   0  0  0  0  0  0  0  0  0  0  0  0
  150.2100  139.9545  154.3866 N   0  0  0  0  0  0  0  0  0  0  0  0
  149.2723  139.3418  153.6756 C   0  0  0  0  0  0  0  0  0  0  0  0
  146.3826  137.1211  152.6747 N   0  0  0  0  0  0  0  0  0  0  0  0
  145.3557  136.4543  152.1244 C   0  0  0  0  0  0  0  0  0  0  0  0
  144.1753  136.7147  152.3617 O   0  0  0  0  0  0  0  0  0  0  0  0
  145.7349  135.3422  151.1371 C   0  0  0  0  0  0  0  0  0  0  0  0
  145.3504  133.9998  151.5989 N   0  0  0  0  0  0  0  0  0  0  0  0
  143.9090  133.7073  151.6481 C   0  0  0  0  0  0  0  0  0  0  0  0
  143.4453  132.6718  150.5978 C   0  0  0  0  0  0  0  0  0  0  0  0
  144.4820  131.6073  150.1882 C   0  0  0  0  0  0  0  0  0  0  0  0
  145.1359  130.8473  151.3610 C   0  0  0  0  0  0  0  0  0  0  0  0
  145.7978  131.7109  152.4613 C   0  0  0  0  0  0  0  0  0  0  0  0
  146.2808  133.0911  151.9857 C   0  0  0  0  0  0  0  0  0  0  0  0
  147.4901  133.3231  151.9753 O   0  0  0  0  0  0  0  0  0  0  0  0
  146.8747  138.6325  155.6747 H   0  0  0  0  0  0  0  0  0  0  0  0
  148.0447  137.6777  154.7677 H   0  0  0  0  0  0  0  0  0  0  0  0
  146.5556  136.9344  155.3479 H   0  0  0  0  0  0  0  0  0  0  0  0
  145.2224  138.4070  153.8649 H   0  0  0  0  0  0  0  0  0  0  0  0
  147.1015  139.3748  151.9665 H   0  0  0  0  0  0  0  0  0  0  0  0
  146.1359  140.3360  153.0631 H   0  0  0  0  0  0  0  0  0  0  0  0
  147.4430  141.7721  154.6798 H   0  0  0  0  0  0  0  0  0  0  0  0
  150.0753  141.7724  155.5421 H   0  0  0  0  0  0  0  0  0  0  0  0
  149.4563  138.4250  153.1346 H   0  0  0  0  0  0  0  0  0  0  0  0
  147.3170  136.8397  152.4156 H   0  0  0  0  0  0  0  0  0  0  0  0
  145.2592  135.5560  150.1792 H   0  0  0  0  0  0  0  0  0  0  0  0
  146.8080  135.3843  150.9408 H   0  0  0  0  0  0  0  0  0  0  0  0
  143.6469  133.3628  152.6487 H   0  0  0  0  0  0  0  0  0  0  0  0
  143.3279  134.6224  151.5265 H   0  0  0  0  0  0  0  0  0  0  0  0
  142.5420  132.1817  150.9624 H   0  0  0  0  0  0  0  0  0  0  0  0
  143.1453  133.2052  149.6954 H   0  0  0  0  0  0  0  0  0  0  0  0
  144.0018  130.8863  149.5260 H   0  0  0  0  0  0  0  0  0  0  0  0
  145.2580  132.0741  149.5798 H   0  0  0  0  0  0  0  0  0  0  0  0
  144.3870  130.2067  151.8279 H   0  0  0  0  0  0  0  0  0  0  0  0
  145.8849  130.1687  150.9512 H   0  0  0  0  0  0  0  0  0  0  0  0
  145.1100  131.8465  153.2957 H   0  0  0  0  0  0  0  0  0  0  0  0
  146.6414  131.1640  152.8841 H   0  0  0  0  0  0  0  0  0  0  0  0
  1  2  1  0  0  0  0
  1 21  1  0  0  0  0
  1 22  1  0  0  0  0
  1 23  1  0  0  0  0
  2  3  1  0  0  0  0
  2  9  1  0  0  0  0
  2 24  1  0  0  0  0
  3  4  1  0  0  0  0
  3 25  1  0  0  0  0
  3 26  1  0  0  0  0
  4  8  1  0  0  0  0
  4  5  1  0  0  0  0
  5  6  2  0  0  0  0
  5 27  1  0  0  0  0
  6  7  1  0  0  0  0
  6 28  1  0  0  0  0
  7  8  2  0  0  0  0
  8 29  1  0  0  0  0
  9 10  1  0  0  0  0
  9 30  1  0  0  0  0
 10 11  2  0  0  0  0
 10 12  1  0  0  0  0
 12 13  1  0  0  0  0
 12 31  1  0  0  0  0
 12 32  1  0  0  0  0
 13 19  1  0  0  0  0
 13 14  1  0  0  0  0
 14 15  1  0  0  0  0
 14 33  1  0  0  0  0
 14 34  1  0  0  0  0
 15 16  1  0  0  0  0
 15 35  1  0  0  0  0
 15 36  1  0  0  0  0
 16 17  1  0  0  0  0
 16 37  1  0  0  0  0
 16 38  1  0  0  0  0
 17 18  1  0  0  0  0
 17 39  1  0  0  0  0
 17 40  1  0  0  0  0
 18 19  1  0  0  0  0
 18 41  1  0  0  0  0
 18 42  1  0  0  0  0
 19 20  2  0  0  0  0
M  END
> <s_m_source_file>
AV-unprocessed.smi

> <i_m_source_file_index>
1216

> <i_lp_mmshare_version>
43012

> <i_f3d_flags>
0

> <s_epik_input>
W2NIXTFuW2NIXVtjSF1uMVtDSDJdW0NAQEhdKFtDSDNdKVtOSF1DKD1PKVtDSDJdTjJbQ0gyXVtDSDJdW0NIMl1bQ0gyXVtDSDJdQzI9Tw==

> <s_epik_cmdline>
J2VwaWtfcHl0aG9uJywgJy1waCcsICc3LjAnLCAnLXRuJywgJzgnLCAnLW1hJywgJzIwMCcsICctbWV0YWxfYmluZGluZycsICctaW1hZScsICc8aW5maWxlLm1hZT4nLCAnLW9tYWUnLCAnPG91dGZpbGUubWFlPic=

> <r_lp_tautomer_probability>
1

> <r_epik_Ionization_Penalty>
0.623868

> <r_epik_Ionization_Penalty_Charging>
0.623868

> <r_epik_Ionization_Penalty_Neutral>
4.50838e-08

> <r_epik_State_Penalty>
0.640129

> <r_epik_Charging_Adjusted_Penalty>
1.264

> <i_epik_Tot_Q>
0

> <i_epik_Tot_abs_Q>
0

> <r_epik_Metal_State_Penalty>
0.307431

> <b_epik_Metal_Only>
0

> <s_lp_Force_Field>
OPLS_2005

> <r_lp_Energy>
20.3142

> <b_lp_Chiralities_Consistent>
1

> <s_lp_Variant>
AV-unprocessed.smi:1216-4

> <Gold.Version>
5.8.1

> <Gold.Id.Protein>
6NUR|6NUR_protein|mol2

> <Gold.PLP.Fitness>
39.9286

> <Gold.PLP.PLP>
-32.7992

> <Gold.PLP.part.hbond>
-2.0000

> <Gold.PLP.part.metal>
0.0000

> <Gold.PLP.part.buried>
-0.0422

> <Gold.PLP.part.nonpolar>
-32.6995

> <Gold.PLP.part.repulsive>
0.5428

> <Gold.PLP.ligand.clash>
0.0000

> <Gold.PLP.ligand.torsion>
0.8963

> <Gold.PLP.Chemscore.Hbond>
2.0000

> <Gold.PLP.Chemscore.CHOScore>
0.9699

> <Gold.PLP.Chemscore.Metal>
0.0000

> <Gold.Chemscore.Hbonds>
donor molecule, donor type, donor heavy atom, donor atom, acceptor molecule, acceptor atom, score
      L1  H     9    30       P1  7948  1.00
      P1  H  7989  7998       L1     7  0.90
      L1  C     8    29       P1  7948  0.96
      L1  C     8    29       P1  7957  0.06

> <Gold.PLP.Chemscore.Internal.Correction>
0.0125

> <Gold.Rescore>
     Score         DG    S(hbond)    S(metal)    S(lipo)     H(rot)  DE(clash)    DE(int)     intcor
     10.82     -14.44       1.78        0.00      72.56       2.13       1.67       1.94       ----

> <Gold.Chemscore.Fitness>
10.8236

> <Gold.Chemscore.DG>
-14.4372

> <Gold.Chemscore.ZeroCoef>
-5.4800

> <Gold.Chemscore.Hbond>
1.7756

> <Gold.Chemscore.Metal>
0.0000

> <Gold.Chemscore.Lipo>
72.5561

> <Gold.Chemscore.Internal_Hbond>
0.0000

> <Gold.Chemscore.DEClash>
1.6689

> <Gold.Chemscore.DEInternal>
1.9446

> <Gold.Chemscore.Rot>
2.1338

> <Gold.Chemscore.Internal.Correction>
   9.000000E+99

> <Gold.Chemscore.Hbonds>
donor molecule, donor type, donor heavy atom, donor atom, acceptor molecule, acceptor atom, score
      L1  H     9    30       P1  7948  1.00
      P1  H  7989  7998       L1     7  0.17

> <Gold.Chemscore.Hbond.Weighted>
-5.9306

> <Gold.Chemscore.Metal.Weighted>
-0.0000

> <Gold.Chemscore.Lipo.Weighted>
-8.4891

> <Gold.Chemscore.Internal_Hbond.Weighted>
0.0000

> <Gold.Chemscore.DEClash.Weighted>
1.6689

> <Gold.Chemscore.DEInternal.Weighted>
1.9446

> <Gold.Chemscore.Rot.Weighted>
5.4625

> <Gold.Chemscore.Internal.Correction.Weighted>
   9.000000E+99

> <Gold.Protein.RotatedTorsions>
[ 6907 6896 6895 6894 ] final -129.68 input  -60.11 | X-H torsion
[ 7974 7965 7964 7962 ] final  149.05 input  175.53 | X-H torsion
[ 8008 7997 7996 7995 ] final   92.29 input   59.86 | X-H torsion
[ 10167 10162 10161 10158 ] final  -95.02 input  -65.29 | X-H torsion
[ 10718 10713 10712 10709 ] final  -52.54 input   66.30 | X-H torsion
[ 10763 10752 10751 10750 ] final   54.68 input  -60.55 | X-H torsion
[ 11005 11000 10999 10996 ] final -122.16 input  -57.11 | X-H torsion

> <Gold.Protein.ActiveResidues>
 VAL166  LYS551  ARG553  GLY616  TRP617  ASP618  TYR619  PRO620  LYS621  CYS622 
 ASP623  PHE694  ASN695  SER759  ASP760  ASP761  ALA762  ILE779  LEU786  VAL792 
 PHE793  MET794  SER795  GLU796  ALA797  LYS798  CYS799  TRP800  GLU811  SER814 

> <Gold.Protein.RotatedAtoms>
  150.9314  133.6762  159.2809 H   0  0  0  0  0  0  0  0  0  0  0  0  # atno 6907 bound_to 6896
  151.4183  135.0993  159.9616 H   0  0  0  0  0  0  0  0  0  0  0  0  # atno 6908 bound_to 6896
  152.5028  133.8772  159.7383 H   0  0  0  0  0  0  0  0  0  0  0  0  # atno 6909 bound_to 6896
  144.8467  139.6231  143.5992 H   0  0  0  0  0  0  0  0  0  0  0  0  # atno 7974 bound_to 7965
  156.0337  140.3327  155.7167 H   0  0  0  0  0  0  0  0  0  0  0  0  # atno 8008 bound_to 7997
  155.5847  140.0640  157.2792 H   0  0  0  0  0  0  0  0  0  0  0  0  # atno 8009 bound_to 7997
  154.4363  140.1838  156.1001 H   0  0  0  0  0  0  0  0  0  0  0  0  # atno 8010 bound_to 7997
  140.3085  143.3119  152.0174 H   0  0  0  0  0  0  0  0  0  0  0  0  # atno 10167 bound_to 10162
  156.1612  130.4149  149.9790 H   0  0  0  0  0  0  0  0  0  0  0  0  # atno 10718 bound_to 10713
  152.9807  135.5736  154.4944 H   0  0  0  0  0  0  0  0  0  0  0  0  # atno 10763 bound_to 10752
  154.4474  135.2777  155.1807 H   0  0  0  0  0  0  0  0  0  0  0  0  # atno 10764 bound_to 10752
  154.3450  135.6221  153.5668 H   0  0  0  0  0  0  0  0  0  0  0  0  # atno 10765 bound_to 10752
  141.0016  134.0394  157.3530 H   0  0  0  0  0  0  0  0  0  0  0  0  # atno 11005 bound_to 11000
  146.2750  139.6731  142.9269 LP  0  0  0  0  0  0  0  0  0  0  0  0  # atno 17320 bound_to 7965
  145.4582  141.0431  143.2766 LP  0  0  0  0  0  0  0  0  0  0  0  0  # atno 17321 bound_to 7965
  139.4899  144.6403  151.6891 LP  0  0  0  0  0  0  0  0  0  0  0  0  # atno 17342 bound_to 10162
  140.5589  144.0301  150.6160 LP  0  0  0  0  0  0  0  0  0  0  0  0  # atno 17343 bound_to 10162
  156.7619  130.9154  151.3641 LP  0  0  0  0  0  0  0  0  0  0  0  0  # atno 17370 bound_to 10713
  157.6734  130.9072  150.0093 LP  0  0  0  0  0  0  0  0  0  0  0  0  # atno 17371 bound_to 10713
  139.9042  135.0174  156.7408 LP  0  0  0  0  0  0  0  0  0  0  0  0  # atno 17394 bound_to 11000
  140.6880  133.9416  155.7949 LP  0  0  0  0  0  0  0  0  0  0  0  0  # atno 17395 bound_to 11000

$$$$
