AV-unprocessed.smi:3030|AV-procd|sdf|11533|dock6
  -GOLD-   2272016483D 1   1.00000     0.00000
 Structure written by MMmdl.
 52 53  0  0  0  0  0  0  0  0  1 V2000
  141.2760  136.1130  153.7739 C   0  0  0  0  0  0  0  0  0  0  0  0
  141.4264  134.7161  153.1611 C   0  0  0  0  0  0  0  0  0  0  0  0
  142.7410  134.5281  152.5650 N   0  0  0  0  0  0  0  0  0  0  0  0
  142.9825  133.5050  151.6539 C   0  0  0  0  0  0  0  0  0  0  0  0
  144.1656  133.3024  151.0423 C   0  0  0  0  0  0  0  0  0  0  0  0
  145.2944  134.2099  151.3314 C   0  0  0  0  0  0  0  0  0  0  0  0
  146.3928  134.0471  150.8001 O   0  0  0  0  0  0  0  0  0  0  0  0
  145.0295  135.3161  152.2888 C   0  0  0  0  0  0  0  0  0  0  0  0
  146.1062  136.1726  152.5671 N   0  0  0  0  0  0  0  0  0  0  0  0
  146.1377  137.2641  153.3524 C   0  0  0  0  0  0  0  0  0  0  0  0
  145.1753  137.7510  153.9453 O   0  0  0  0  0  0  0  0  0  0  0  0
  147.3766  137.7747  153.4028 N   0  0  0  0  0  0  0  0  0  0  0  0
  147.7920  138.9696  154.1374 C   0  0  2  0  0  0  0  0  0  0  0  0
  147.0995  140.1875  153.4889 C   0  0  0  0  0  0  0  0  0  0  0  0
  147.5250  141.5317  154.1072 C   0  0  1  0  0  0  0  0  0  0  0  0
  146.9255  141.7602  155.5061 C   0  0  0  0  0  0  0  0  0  0  0  0
  149.0577  141.6639  154.0856 C   0  0  0  0  0  0  0  0  0  0  0  0
  149.7545  140.4717  154.7598 C   0  0  0  0  0  0  0  0  0  0  0  0
  149.3410  139.1202  154.1298 C   0  0  1  0  0  0  0  0  0  0  0  0
  150.1016  137.9056  154.7434 C   0  0  0  0  0  0  0  0  0  0  0  0
  149.7573  137.6280  156.2186 C   0  0  0  0  0  0  0  0  0  0  0  0
  151.6251  138.0111  154.5561 C   0  0  0  0  0  0  0  0  0  0  0  0
  143.7917  135.4015  152.8391 C   0  0  0  0  0  0  0  0  0  0  0  0
  140.2873  136.2379  154.2154 H   0  0  0  0  0  0  0  0  0  0  0  0
  141.4044  136.8899  153.0197 H   0  0  0  0  0  0  0  0  0  0  0  0
  142.0147  136.2805  154.5582 H   0  0  0  0  0  0  0  0  0  0  0  0
  141.2617  133.9564  153.9259 H   0  0  0  0  0  0  0  0  0  0  0  0
  140.6576  134.5587  152.4038 H   0  0  0  0  0  0  0  0  0  0  0  0
  142.1337  132.8620  151.4703 H   0  0  0  0  0  0  0  0  0  0  0  0
  144.3082  132.4910  150.3437 H   0  0  0  0  0  0  0  0  0  0  0  0
  146.9637  135.9368  152.0893 H   0  0  0  0  0  0  0  0  0  0  0  0
  148.0981  137.3003  152.8795 H   0  0  0  0  0  0  0  0  0  0  0  0
  147.4483  138.9087  155.1702 H   0  0  0  0  0  0  0  0  0  0  0  0
  147.3366  140.2063  152.4238 H   0  0  0  0  0  0  0  0  0  0  0  0
  146.0158  140.0784  153.5511 H   0  0  0  0  0  0  0  0  0  0  0  0
  147.1230  142.3217  153.4715 H   0  0  0  0  0  0  0  0  0  0  0  0
  147.2636  141.0159  156.2266 H   0  0  0  0  0  0  0  0  0  0  0  0
  145.8365  141.7159  155.4755 H   0  0  0  0  0  0  0  0  0  0  0  0
  147.2015  142.7416  155.8925 H   0  0  0  0  0  0  0  0  0  0  0  0
  149.3963  141.7322  153.0509 H   0  0  0  0  0  0  0  0  0  0  0  0
  149.3629  142.5946  154.5649 H   0  0  0  0  0  0  0  0  0  0  0  0
  150.8315  140.6146  154.6801 H   0  0  0  0  0  0  0  0  0  0  0  0
  149.5259  140.4783  155.8251 H   0  0  0  0  0  0  0  0  0  0  0  0
  149.6360  139.1661  153.0799 H   0  0  0  0  0  0  0  0  0  0  0  0
  149.8096  137.0175  154.1836 H   0  0  0  0  0  0  0  0  0  0  0  0
  150.0872  138.4363  156.8705 H   0  0  0  0  0  0  0  0  0  0  0  0
  150.2455  136.7160  156.5628 H   0  0  0  0  0  0  0  0  0  0  0  0
  148.6872  137.4917  156.3689 H   0  0  0  0  0  0  0  0  0  0  0  0
  152.0552  138.8117  155.1575 H   0  0  0  0  0  0  0  0  0  0  0  0
  151.8843  138.1972  153.5138 H   0  0  0  0  0  0  0  0  0  0  0  0
  152.1172  137.0846  154.8536 H   0  0  0  0  0  0  0  0  0  0  0  0
  143.5244  136.1535  153.5648 H   0  0  0  0  0  0  0  0  0  0  0  0
  1  2  1  0  0  0  0
  1 24  1  0  0  0  0
  1 25  1  0  0  0  0
  1 26  1  0  0  0  0
  2  3  1  0  0  0  0
  2 27  1  0  0  0  0
  2 28  1  0  0  0  0
  3 23  1  0  0  0  0
  3  4  1  0  0  0  0
  4  5  2  0  0  0  0
  4 29  1  0  0  0  0
  5  6  1  0  0  0  0
  5 30  1  0  0  0  0
  6  7  2  0  0  0  0
  6  8  1  0  0  0  0
  8  9  1  0  0  0  0
  8 23  2  0  0  0  0
  9 10  1  0  0  0  0
  9 31  1  0  0  0  0
 10 11  2  0  0  0  0
 10 12  1  0  0  0  0
 12 13  1  0  0  0  0
 12 32  1  0  0  0  0
 13 19  1  0  0  0  0
 13 14  1  0  0  0  0
 13 33  1  0  0  0  0
 14 15  1  0  0  0  0
 14 34  1  0  0  0  0
 14 35  1  0  0  0  0
 15 16  1  0  0  0  0
 15 17  1  0  0  0  0
 15 36  1  0  0  0  0
 16 37  1  0  0  0  0
 16 38  1  0  0  0  0
 16 39  1  0  0  0  0
 17 18  1  0  0  0  0
 17 40  1  0  0  0  0
 17 41  1  0  0  0  0
 18 19  1  0  0  0  0
 18 42  1  0  0  0  0
 18 43  1  0  0  0  0
 19 20  1  0  0  0  0
 19 44  1  0  0  0  0
 20 21  1  0  0  0  0
 20 22  1  0  0  0  0
 20 45  1  0  0  0  0
 21 46  1  0  0  0  0
 21 47  1  0  0  0  0
 21 48  1  0  0  0  0
 22 49  1  0  0  0  0
 22 50  1  0  0  0  0
 22 51  1  0  0  0  0
 23 52  1  0  0  0  0
M  END
> <s_m_source_file>
AV-unprocessed.smi

> <i_m_source_file_index>
3030

> <i_lp_mmshare_version>
43012

> <i_f3d_flags>
0

> <s_epik_input>
W0NIM11bQ0gyXW4xW2NIXVtjSF1jKD1PKWMoW2NIXTEpW05IXUMoPU8pW05IXVtDQEBIXTJbQ0gyXVtDQEBIXShbQ0gzXSlbQ0gyXVtDSDJdW0NASF0yW0NIXShbQ0gzXSlbQ0gzXQ==

> <s_epik_cmdline>
J2VwaWtfcHl0aG9uJywgJy1waCcsICc3LjAnLCAnLXRuJywgJzgnLCAnLW1hJywgJzIwMCcsICctbWV0YWxfYmluZGluZycsICctaW1hZScsICc8aW5maWxlLm1hZT4nLCAnLW9tYWUnLCAnPG91dGZpbGUubWFlPic=

> <r_lp_tautomer_probability>
1

> <r_epik_Ionization_Penalty>
0.00147933

> <r_epik_Ionization_Penalty_Charging>
0.00145753

> <r_epik_Ionization_Penalty_Neutral>
2.17987e-05

> <r_epik_State_Penalty>
0.00097457

> <r_epik_Charging_Adjusted_Penalty>
0.0024321

> <i_epik_Tot_Q>
0

> <i_epik_Tot_abs_Q>
0

> <r_epik_Metal_State_Penalty>
-0

> <b_epik_Metal_Only>
0

> <s_lp_Force_Field>
OPLS_2005

> <r_lp_Energy>
11.9489

> <b_lp_Chiralities_Consistent>
1

> <s_lp_Variant>
AV-unprocessed.smi:3030-1

> <Gold.Version>
5.8.1

> <Gold.Id.Protein>
6NUR|6NUR_protein|mol2

> <Gold.PLP.Fitness>
44.7519

> <Gold.PLP.PLP>
-38.7713

> <Gold.PLP.part.hbond>
-2.0000

> <Gold.PLP.part.metal>
0.0000

> <Gold.PLP.part.buried>
-0.3174

> <Gold.PLP.part.nonpolar>
-35.9573

> <Gold.PLP.part.repulsive>
0.3814

> <Gold.PLP.ligand.clash>
0.0000

> <Gold.PLP.ligand.torsion>
0.2898

> <Gold.PLP.Chemscore.Hbond>
2.0000

> <Gold.PLP.Chemscore.CHOScore>
0.1635

> <Gold.PLP.Chemscore.Metal>
0.0000

> <Gold.Chemscore.Hbonds>
donor molecule, donor type, donor heavy atom, donor atom, acceptor molecule, acceptor atom, score
      L1  H     9    31       P1  7948  1.00
      L1  H    12    32       P1  7948  1.00
      L1  C     4    29       P1 10186  0.19

> <Gold.PLP.Chemscore.Internal.Correction>
0.0698

> <Gold.Rescore>
     Score         DG    S(hbond)    S(metal)    S(lipo)     H(rot)  DE(clash)    DE(int)     intcor
     16.95     -19.43       1.97        0.00      90.72       1.27       1.07       1.42       ----

> <Gold.Chemscore.Fitness>
16.9488

> <Gold.Chemscore.DG>
-19.4349

> <Gold.Chemscore.ZeroCoef>
-5.4800

> <Gold.Chemscore.Hbond>
1.9724

> <Gold.Chemscore.Metal>
0.0000

> <Gold.Chemscore.Lipo>
90.7225

> <Gold.Chemscore.Internal_Hbond>
0.0000

> <Gold.Chemscore.DEClash>
1.0696

> <Gold.Chemscore.DEInternal>
1.4164

> <Gold.Chemscore.Rot>
1.2685

> <Gold.Chemscore.Internal.Correction>
   9.000000E+99

> <Gold.Chemscore.Hbonds>
donor molecule, donor type, donor heavy atom, donor atom, acceptor molecule, acceptor atom, score
      L1  H     9    31       P1  7948  0.91
      L1  H    12    32       P1  7948  1.00

> <Gold.Chemscore.Hbond.Weighted>
-6.5878

> <Gold.Chemscore.Metal.Weighted>
-0.0000

> <Gold.Chemscore.Lipo.Weighted>
-10.6145

> <Gold.Chemscore.Internal_Hbond.Weighted>
0.0000

> <Gold.Chemscore.DEClash.Weighted>
1.0696

> <Gold.Chemscore.DEInternal.Weighted>
1.4164

> <Gold.Chemscore.Rot.Weighted>
3.2474

> <Gold.Chemscore.Internal.Correction.Weighted>
   9.000000E+99

> <Gold.Protein.RotatedTorsions>
[ 6907 6896 6895 6894 ] final -167.45 input  -60.11 | X-H torsion
[ 7974 7965 7964 7962 ] final  -63.57 input  175.53 | X-H torsion
[ 8008 7997 7996 7995 ] final -131.75 input   59.86 | X-H torsion
[ 10167 10162 10161 10158 ] final   54.55 input  -65.29 | X-H torsion
[ 10718 10713 10712 10709 ] final -177.96 input   66.30 | X-H torsion
[ 10763 10752 10751 10750 ] final -119.51 input  -60.55 | X-H torsion
[ 11005 11000 10999 10996 ] final -121.14 input  -57.11 | X-H torsion

> <Gold.Protein.ActiveResidues>
 VAL166  LYS551  ARG553  GLY616  TRP617  ASP618  TYR619  PRO620  LYS621  CYS622 
 ASP623  PHE694  ASN695  SER759  ASP760  ASP761  ALA762  ILE779  LEU786  VAL792 
 PHE793  MET794  SER795  GLU796  ALA797  LYS798  CYS799  TRP800  GLU811  SER814 

> <Gold.Protein.RotatedAtoms>
  151.4598  133.3596  159.2807 H   0  0  0  0  0  0  0  0  0  0  0  0  # atno 6907 bound_to 6896
  150.9033  134.8449  159.7386 H   0  0  0  0  0  0  0  0  0  0  0  0  # atno 6908 bound_to 6896
  152.4892  134.4520  159.9629 H   0  0  0  0  0  0  0  0  0  0  0  0  # atno 6909 bound_to 6896
  145.7774  140.8780  143.0348 H   0  0  0  0  0  0  0  0  0  0  0  0  # atno 7974 bound_to 7965
  155.3174  140.0460  157.3038 H   0  0  0  0  0  0  0  0  0  0  0  0  # atno 8008 bound_to 7997
  154.5399  140.2284  155.8625 H   0  0  0  0  0  0  0  0  0  0  0  0  # atno 8009 bound_to 7997
  156.1870  140.3060  155.9265 H   0  0  0  0  0  0  0  0  0  0  0  0  # atno 8010 bound_to 7997
  140.2289  144.3708  150.6422 H   0  0  0  0  0  0  0  0  0  0  0  0  # atno 10167 bound_to 10162
  156.8372  130.9674  151.3102 H   0  0  0  0  0  0  0  0  0  0  0  0  # atno 10718 bound_to 10713
  154.8619  135.4236  154.2310 H   0  0  0  0  0  0  0  0  0  0  0  0  # atno 10763 bound_to 10752
  153.3295  135.6987  153.6965 H   0  0  0  0  0  0  0  0  0  0  0  0  # atno 10764 bound_to 10752
  153.5988  135.3541  155.2911 H   0  0  0  0  0  0  0  0  0  0  0  0  # atno 10765 bound_to 10752
  141.0092  134.0290  157.3437 H   0  0  0  0  0  0  0  0  0  0  0  0  # atno 11005 bound_to 11000
  144.6802  139.9941  143.7484 LP  0  0  0  0  0  0  0  0  0  0  0  0  # atno 17320 bound_to 7965
  146.0108  139.3168  143.0871 LP  0  0  0  0  0  0  0  0  0  0  0  0  # atno 17321 bound_to 7965
  140.6200  143.2175  151.6714 LP  0  0  0  0  0  0  0  0  0  0  0  0  # atno 17342 bound_to 10162
  139.5117  144.3500  152.0660 LP  0  0  0  0  0  0  0  0  0  0  0  0  # atno 17343 bound_to 10162
  157.6375  130.8778  149.9386 LP  0  0  0  0  0  0  0  0  0  0  0  0  # atno 17370 bound_to 10713
  156.0901  130.3664  150.0412 LP  0  0  0  0  0  0  0  0  0  0  0  0  # atno 17371 bound_to 10713
  139.9080  135.0184  156.7570 LP  0  0  0  0  0  0  0  0  0  0  0  0  # atno 17394 bound_to 11000
  140.6762  133.9515  155.7884 LP  0  0  0  0  0  0  0  0  0  0  0  0  # atno 17395 bound_to 11000

$$$$
