AV-unprocessed.smi:114|AV-procd|sdf|1115|dock2
  -GOLD-   2262018233D 1   1.00000     0.00000
 Structure written by MMmdl.
 32 34  0  0  0  0  0  0  0  0  1 V2000
  150.8259  134.1117  156.6588 N   0  0  0  0  0  0  0  0  0  0  0  0
  150.5680  135.4225  156.7686 C   0  0  0  0  0  0  0  0  0  0  0  0
  149.9496  135.8663  157.8877 N   0  0  0  0  0  0  0  0  0  0  0  0
  149.6729  137.1677  158.0363 C   0  0  0  0  0  0  0  0  0  0  0  0
  149.0554  137.5245  159.1869 F   0  0  0  0  0  0  0  0  0  0  0  0
  149.9373  138.1560  157.1752 N   0  0  0  0  0  0  0  0  0  0  0  0
  150.5607  137.7132  156.0450 C   0  0  0  0  0  0  0  0  0  0  0  0
  150.9112  136.3646  155.7682 C   0  0  0  0  0  0  0  0  0  0  0  0
  151.5335  136.2811  154.5303 N   0  0  0  0  0  0  0  0  0  0  0  0
  151.5480  137.5153  154.1027 C   0  0  0  0  0  0  0  0  0  0  0  0
  150.9782  138.4412  154.9489 N   0  0  0  0  0  0  0  0  0  0  0  0
  150.8452  139.9135  154.7313 C   0  0  2  0  0  0  0  0  0  0  0  0
  151.2730  140.5623  155.8890 O   0  0  0  0  0  0  0  0  0  0  0  0
  150.3962  141.6426  156.1859 C   0  0  2  0  0  0  0  0  0  0  0  0
  150.4664  141.9720  157.6848 C   0  0  0  0  0  0  0  0  0  0  0  0
  149.9835  143.2778  157.9177 O   0  0  0  0  0  0  0  0  0  0  0  0
  149.0374  141.0960  155.7438 C   0  0  1  0  0  0  0  0  0  0  0  0
  148.0803  142.1161  155.5249 O   0  0  0  0  0  0  0  0  0  0  0  0
  149.3779  140.3019  154.4840 C   0  0  1  0  0  0  0  0  0  0  0  0
  149.2553  141.0818  153.3084 O   0  0  0  0  0  0  0  0  0  0  0  0
  151.5077  140.1338  153.8929 H   0  0  0  0  0  0  0  0  0  0  0  0
  150.6638  142.5058  155.5728 H   0  0  0  0  0  0  0  0  0  0  0  0
  148.6504  140.4166  156.5035 H   0  0  0  0  0  0  0  0  0  0  0  0
  148.7469  139.4177  154.3824 H   0  0  0  0  0  0  0  0  0  0  0  0
  151.2858  133.7576  155.8322 H   0  0  0  0  0  0  0  0  0  0  0  0
  150.5611  133.4812  157.4015 H   0  0  0  0  0  0  0  0  0  0  0  0
  151.9749  137.7854  153.1476 H   0  0  0  0  0  0  0  0  0  0  0  0
  149.8352  141.2857  158.2501 H   0  0  0  0  0  0  0  0  0  0  0  0
  151.4822  141.8660  158.0670 H   0  0  0  0  0  0  0  0  0  0  0  0
  149.4087  143.5167  157.2066 H   0  0  0  0  0  0  0  0  0  0  0  0
  148.4995  142.9523  155.6594 H   0  0  0  0  0  0  0  0  0  0  0  0
  149.2435  140.4992  152.5643 H   0  0  0  0  0  0  0  0  0  0  0  0
  1  2  1  0  0  0  0
  1 25  1  0  0  0  0
  1 26  1  0  0  0  0
  2  8  1  0  0  0  0
  2  3  2  0  0  0  0
  3  4  1  0  0  0  0
  4  5  1  0  0  0  0
  4  6  2  0  0  0  0
  6  7  1  0  0  0  0
  7 11  1  0  0  0  0
  7  8  2  0  0  0  0
  8  9  1  0  0  0  0
  9 10  2  0  0  0  0
 10 11  1  0  0  0  0
 10 27  1  0  0  0  0
 11 12  1  0  0  0  0
 12 21  1  0  0  0  0
 12 19  1  0  0  0  0
 12 13  1  0  0  0  0
 13 14  1  0  0  0  0
 14 22  1  0  0  0  0
 14 15  1  0  0  0  0
 14 17  1  0  0  0  0
 15 16  1  0  0  0  0
 15 28  1  0  0  0  0
 15 29  1  0  0  0  0
 16 30  1  0  0  0  0
 17 23  1  0  0  0  0
 17 18  1  0  0  0  0
 17 19  1  0  0  0  0
 18 31  1  0  0  0  0
 19 24  1  0  0  0  0
 19 20  1  0  0  0  0
 20 32  1  0  0  0  0
M  END
> <s_m_source_file>
AV-unprocessed.smi

> <i_m_source_file_index>
114

> <i_lp_mmshare_version>
43012

> <i_f3d_flags>
0

> <s_epik_input>
RmMobjEpbmMoW05IMl0pYyhjMTIpbltjSF1uMltDQEBIXTNPW0NASF0oW0NIMl1bT0hdKVtDQEBIXShbT0hdKVtDQEBIXTNbT0hd

> <s_epik_cmdline>
J2VwaWtfcHl0aG9uJywgJy1waCcsICc3LjAnLCAnLXRuJywgJzgnLCAnLW1hJywgJzIwMCcsICctbWV0YWxfYmluZGluZycsICctaW1hZScsICc8aW5maWxlLm1hZT4nLCAnLW9tYWUnLCAnPG91dGZpbGUubWFlPic=

> <r_lp_tautomer_probability>
1

> <r_epik_Ionization_Penalty>
1.13199e-05

> <r_epik_Ionization_Penalty_Charging>
0

> <r_epik_Ionization_Penalty_Neutral>
1.13199e-05

> <r_epik_State_Penalty>
-0

> <r_epik_Charging_Adjusted_Penalty>
0

> <i_epik_Tot_Q>
0

> <i_epik_Tot_abs_Q>
0

> <r_epik_Metal_State_Penalty>
-0

> <b_epik_Metal_Only>
0

> <s_epik_Chemistry_Notes>
This compound contains an acetal/aminal-like group ( X-CH(R)-Y where X, Y are N, S, or O) that may be acid/base labile, releasing an aldehyde.

> <s_lp_Force_Field>
OPLS_2005

> <r_lp_Energy>
39.1628

> <b_lp_Chiralities_Consistent>
1

> <s_lp_Variant>
AV-unprocessed.smi:114-9

> <Gold.Version>
5.8.1

> <Gold.Id.Protein>
6NUR|6NUR_protein|mol2

> <Gold.PLP.Fitness>
43.8444

> <Gold.PLP.PLP>
-27.3983

> <Gold.PLP.part.hbond>
-6.8750

> <Gold.PLP.part.metal>
0.0000

> <Gold.PLP.part.buried>
-1.4556

> <Gold.PLP.part.nonpolar>
-21.6911

> <Gold.PLP.part.repulsive>
0.6906

> <Gold.PLP.ligand.clash>
0.0000

> <Gold.PLP.ligand.torsion>
0.4791

> <Gold.PLP.Chemscore.Hbond>
5.2470

> <Gold.PLP.Chemscore.CHOScore>
0.5502

> <Gold.PLP.Chemscore.Metal>
0.0000

> <Gold.Chemscore.Hbonds>
donor molecule, donor type, donor heavy atom, donor atom, acceptor molecule, acceptor atom, score
      L1  H    16    30       P1  8028  1.00
      L1  H    18    31       P1  8028  1.00
      L1  H    20    32       P1  7957  0.98
      P1  H  6896  6908       L1     3  0.50
      P1  H  8011  8017       L1    20  0.60
      P1  H 10752 10763       L1     9  1.00
      L1  C    10    27       P1  7949  0.48

> <Gold.PLP.Chemscore.Internal.Correction>
0.0128

> <Gold.Rescore>
     Score         DG    S(hbond)    S(metal)    S(lipo)     H(rot)  DE(clash)    DE(int)     intcor
      9.44     -11.26       3.79        0.00      29.23       4.03       1.39       0.43       ----

> <Gold.Chemscore.Fitness>
9.4401

> <Gold.Chemscore.DG>
-11.2637

> <Gold.Chemscore.ZeroCoef>
-5.4800

> <Gold.Chemscore.Hbond>
3.7947

> <Gold.Chemscore.Metal>
0.0000

> <Gold.Chemscore.Lipo>
29.2328

> <Gold.Chemscore.Internal_Hbond>
0.0000

> <Gold.Chemscore.DEClash>
1.3934

> <Gold.Chemscore.DEInternal>
0.4301

> <Gold.Chemscore.Rot>
4.0277

> <Gold.Chemscore.Internal.Correction>
   9.000000E+99

> <Gold.Chemscore.Hbonds>
donor molecule, donor type, donor heavy atom, donor atom, acceptor molecule, acceptor atom, score
      L1  H    16    30       P1  8028  0.71
      L1  H    18    31       P1  8028  0.99
      L1  H    20    32       P1  7957  0.89
      P1  H  6896  6908       L1     3  0.29
      P1  H  8011  8017       L1    20  0.04
      P1  H 10752 10763       L1     9  0.77

> <Gold.Chemscore.Hbond.Weighted>
-12.6744

> <Gold.Chemscore.Metal.Weighted>
-0.0000

> <Gold.Chemscore.Lipo.Weighted>
-3.4202

> <Gold.Chemscore.Internal_Hbond.Weighted>
0.0000

> <Gold.Chemscore.DEClash.Weighted>
1.3934

> <Gold.Chemscore.DEInternal.Weighted>
0.4301

> <Gold.Chemscore.Rot.Weighted>
10.3110

> <Gold.Chemscore.Internal.Correction.Weighted>
   9.000000E+99

> <Gold.Protein.RotatedTorsions>
[ 6907 6896 6895 6894 ] final  176.56 input  -60.11 | X-H torsion
[ 7974 7965 7964 7962 ] final   43.29 input  175.53 | X-H torsion
[ 8008 7997 7996 7995 ] final  -72.73 input   59.86 | X-H torsion
[ 10167 10162 10161 10158 ] final    9.87 input  -65.29 | X-H torsion
[ 10718 10713 10712 10709 ] final   18.15 input   66.30 | X-H torsion
[ 10763 10752 10751 10750 ] final   55.64 input  -60.55 | X-H torsion
[ 11005 11000 10999 10996 ] final  127.67 input  -57.11 | X-H torsion

> <Gold.Protein.ActiveResidues>
 VAL166  LYS551  ARG553  GLY616  TRP617  ASP618  TYR619  PRO620  LYS621  CYS622 
 ASP623  PHE694  ASN695  SER759  ASP760  ASP761  ALA762  ILE779  LEU786  VAL792 
 PHE793  MET794  SER795  GLU796  ALA797  LYS798  CYS799  TRP800  GLU811  SER814 

> <Gold.Protein.RotatedAtoms>
  151.7182  133.3314  159.3308 H   0  0  0  0  0  0  0  0  0  0  0  0  # atno 6907 bound_to 6896
  150.7664  134.6471  159.6278 H   0  0  0  0  0  0  0  0  0  0  0  0  # atno 6908 bound_to 6896
  152.3668  134.6794  160.0241 H   0  0  0  0  0  0  0  0  0  0  0  0  # atno 6909 bound_to 6896
  146.0668  139.5204  142.9623 H   0  0  0  0  0  0  0  0  0  0  0  0  # atno 7974 bound_to 7965
  154.5190  140.0792  156.8136 H   0  0  0  0  0  0  0  0  0  0  0  0  # atno 8008 bound_to 7997
  155.3617  140.3418  155.4223 H   0  0  0  0  0  0  0  0  0  0  0  0  # atno 8009 bound_to 7997
  156.1660  140.1604  156.8518 H   0  0  0  0  0  0  0  0  0  0  0  0  # atno 8010 bound_to 7997
  140.6229  143.8165  150.7197 H   0  0  0  0  0  0  0  0  0  0  0  0  # atno 10167 bound_to 10162
  157.0922  130.6432  149.5851 H   0  0  0  0  0  0  0  0  0  0  0  0  # atno 10718 bound_to 10713
  152.9820  135.5704  154.5099 H   0  0  0  0  0  0  0  0  0  0  0  0  # atno 10763 bound_to 10752
  154.4604  135.2781  155.1718 H   0  0  0  0  0  0  0  0  0  0  0  0  # atno 10764 bound_to 10752
  154.3309  135.6249  153.5604 H   0  0  0  0  0  0  0  0  0  0  0  0  # atno 10765 bound_to 10752
  139.9519  134.9620  156.8888 H   0  0  0  0  0  0  0  0  0  0  0  0  # atno 11005 bound_to 11000
  145.6463  141.0273  143.1785 LP  0  0  0  0  0  0  0  0  0  0  0  0  # atno 17320 bound_to 7965
  144.7207  139.8039  143.7383 LP  0  0  0  0  0  0  0  0  0  0  0  0  # atno 17321 bound_to 7965
  140.1759  143.4155  152.1968 LP  0  0  0  0  0  0  0  0  0  0  0  0  # atno 17342 bound_to 10162
  139.5454  144.7294  151.4599 LP  0  0  0  0  0  0  0  0  0  0  0  0  # atno 17343 bound_to 10162
  155.9895  130.4943  150.7217 LP  0  0  0  0  0  0  0  0  0  0  0  0  # atno 17370 bound_to 10713
  157.4712  131.0893  151.0641 LP  0  0  0  0  0  0  0  0  0  0  0  0  # atno 17371 bound_to 10713
  140.5698  134.0454  155.7426 LP  0  0  0  0  0  0  0  0  0  0  0  0  # atno 17394 bound_to 11000
  141.1184  133.9502  157.2777 LP  0  0  0  0  0  0  0  0  0  0  0  0  # atno 17395 bound_to 11000

$$$$
