AV-unprocessed.smi:20|AV-procd|sdf|113|dock5
  -GOLD-   2262015273D 1   1.00000     0.00000
 Structure written by MMmdl.
 57 61  0  0  0  0  0  0  0  0  1 V2000
  143.2092  132.1149  149.2966 O   0  0  0  0  0  0  0  0  0  0  0  0
  144.3330  132.2202  149.7819 C   0  0  0  0  0  0  0  0  0  0  0  0
  144.6093  132.2360  151.2756 C   0  0  0  0  0  0  0  0  0  0  0  0
  146.1378  132.0069  151.3611 C   0  0  2  0  0  0  0  0  0  0  0  0
  146.4820  130.5061  151.5585 C   0  0  0  0  0  0  0  0  0  0  0  0
  146.1606  130.0187  152.9822 C   0  0  0  0  0  0  0  0  0  0  0  0
  146.8194  130.9199  154.0357 C   0  0  0  0  0  0  0  0  0  0  0  0
  146.4641  132.3195  153.8120 N   0  0  0  0  0  0  0  0  0  0  0  0
  146.6614  133.1351  154.8791 C   0  0  0  0  0  0  0  0  0  0  0  0
  147.3419  134.3029  154.7250 N   0  0  0  0  0  0  0  0  0  0  0  0
  147.5469  135.1087  155.7710 C   0  0  0  0  0  0  0  0  0  0  0  0
  147.1649  134.9440  157.0385 N   0  0  0  0  0  0  0  0  0  0  0  0
  146.4780  133.7771  157.2002 C   0  0  0  0  0  0  0  0  0  0  0  0
  146.1828  132.8251  156.1837 C   0  0  0  0  0  0  0  0  0  0  0  0
  145.4515  131.7724  156.7212 N   0  0  0  0  0  0  0  0  0  0  0  0
  145.3323  132.0784  157.9841 C   0  0  0  0  0  0  0  0  0  0  0  0
  145.9371  133.2558  158.3632 N   0  0  0  0  0  0  0  0  0  0  0  0
  145.9464  133.8380  159.6955 C   0  0  0  0  0  0  0  0  0  0  0  0
  147.2231  133.5197  160.5208 C   0  0  2  0  0  0  0  0  0  0  0  0
  146.9556  132.3055  161.4414 C   0  0  0  0  0  0  0  0  0  0  0  0
  147.2128  131.0891  160.7696 O   0  0  0  0  0  0  0  0  0  0  0  0
  147.7327  134.7345  161.3491 C   0  0  2  0  0  0  0  0  0  0  0  0
  146.9494  135.0685  162.6083 C   0  0  0  0  0  0  0  0  0  0  0  0
  147.3645  136.5075  162.8822 C   0  0  0  0  0  0  0  0  0  0  0  0
  147.5284  137.0976  161.6011 O   0  0  0  0  0  0  0  0  0  0  0  0
  147.6510  136.0802  160.6124 C   0  0  0  0  0  0  0  0  0  0  0  0
  146.8008  132.8371  152.4841 C   0  0  0  0  0  0  0  0  0  0  0  0
  146.6257  132.4725  149.9683 C   0  0  0  0  0  0  0  0  0  0  0  0
  145.4710  132.3366  149.1022 N   0  0  0  0  0  0  0  0  0  0  0  0
  144.3245  133.2128  151.6683 H   0  0  0  0  0  0  0  0  0  0  0  0
  144.0216  131.4794  151.7943 H   0  0  0  0  0  0  0  0  0  0  0  0
  145.9588  129.8884  150.8274 H   0  0  0  0  0  0  0  0  0  0  0  0
  147.5468  130.3521  151.3782 H   0  0  0  0  0  0  0  0  0  0  0  0
  145.0826  130.0003  153.1423 H   0  0  0  0  0  0  0  0  0  0  0  0
  146.5025  128.9913  153.1086 H   0  0  0  0  0  0  0  0  0  0  0  0
  146.5297  130.5830  155.0304 H   0  0  0  0  0  0  0  0  0  0  0  0
  147.9046  130.8228  153.9786 H   0  0  0  0  0  0  0  0  0  0  0  0
  148.0988  136.0135  155.5634 H   0  0  0  0  0  0  0  0  0  0  0  0
  144.7981  131.4473  158.6796 H   0  0  0  0  0  0  0  0  0  0  0  0
  145.8098  134.9172  159.6183 H   0  0  0  0  0  0  0  0  0  0  0  0
  145.0575  133.4591  160.2002 H   0  0  0  0  0  0  0  0  0  0  0  0
  148.0200  133.2289  159.8349 H   0  0  0  0  0  0  0  0  0  0  0  0
  147.6004  132.3196  162.3191 H   0  0  0  0  0  0  0  0  0  0  0  0
  145.9265  132.3110  161.8019 H   0  0  0  0  0  0  0  0  0  0  0  0
  147.9434  131.2173  160.1836 H   0  0  0  0  0  0  0  0  0  0  0  0
  148.7722  134.5622  161.6337 H   0  0  0  0  0  0  0  0  0  0  0  0
  145.8760  135.0144  162.4219 H   0  0  0  0  0  0  0  0  0  0  0  0
  147.1890  134.4222  163.4510 H   0  0  0  0  0  0  0  0  0  0  0  0
  146.6335  137.0484  163.4835 H   0  0  0  0  0  0  0  0  0  0  0  0
  148.3219  136.5337  163.4043 H   0  0  0  0  0  0  0  0  0  0  0  0
  148.5242  136.2609  159.9852 H   0  0  0  0  0  0  0  0  0  0  0  0
  146.7659  136.1223  159.9763 H   0  0  0  0  0  0  0  0  0  0  0  0
  147.8854  132.8178  152.3667 H   0  0  0  0  0  0  0  0  0  0  0  0
  146.4922  133.8803  152.3982 H   0  0  0  0  0  0  0  0  0  0  0  0
  146.9218  133.5226  149.9785 H   0  0  0  0  0  0  0  0  0  0  0  0
  147.4709  131.8936  149.5943 H   0  0  0  0  0  0  0  0  0  0  0  0
  145.5355  132.3505  148.0946 H   0  0  0  0  0  0  0  0  0  0  0  0
  1  2  2  0  0  0  0
  2 29  1  0  0  0  0
  2  3  1  0  0  0  0
  3  4  1  0  0  0  0
  3 30  1  0  0  0  0
  3 31  1  0  0  0  0
  4 27  1  0  0  0  0
  4  5  1  0  0  0  0
  4 28  1  0  0  0  0
  5  6  1  0  0  0  0
  5 32  1  0  0  0  0
  5 33  1  0  0  0  0
  6  7  1  0  0  0  0
  6 34  1  0  0  0  0
  6 35  1  0  0  0  0
  7  8  1  0  0  0  0
  7 36  1  0  0  0  0
  7 37  1  0  0  0  0
  8  9  1  0  0  0  0
  8 27  1  0  0  0  0
  9 14  1  0  0  0  0
  9 10  2  0  0  0  0
 10 11  1  0  0  0  0
 11 12  2  0  0  0  0
 11 38  1  0  0  0  0
 12 13  1  0  0  0  0
 13 17  1  0  0  0  0
 13 14  2  0  0  0  0
 14 15  1  0  0  0  0
 15 16  2  0  0  0  0
 16 17  1  0  0  0  0
 16 39  1  0  0  0  0
 17 18  1  0  0  0  0
 18 19  1  0  0  0  0
 18 40  1  0  0  0  0
 18 41  1  0  0  0  0
 19 20  1  0  0  0  0
 19 22  1  0  0  0  0
 19 42  1  0  0  0  0
 20 21  1  0  0  0  0
 20 43  1  0  0  0  0
 20 44  1  0  0  0  0
 21 45  1  0  0  0  0
 22 26  1  0  0  0  0
 22 23  1  0  0  0  0
 22 46  1  0  0  0  0
 23 24  1  0  0  0  0
 23 47  1  0  0  0  0
 23 48  1  0  0  0  0
 24 25  1  0  0  0  0
 24 49  1  0  0  0  0
 24 50  1  0  0  0  0
 25 26  1  0  0  0  0
 26 51  1  0  0  0  0
 26 52  1  0  0  0  0
 27 53  1  0  0  0  0
 27 54  1  0  0  0  0
 28 29  1  0  0  0  0
 28 55  1  0  0  0  0
 28 56  1  0  0  0  0
 29 57  1  0  0  0  0
M  END
> <s_m_source_file>
AV-unprocessed.smi

> <i_m_source_file_index>
20

> <i_lp_mmshare_version>
43012

> <i_f3d_flags>
0

> <s_epik_input>
W0NIMl0xW05IXUMoPU8pW0NIMl1bQ0BAXTEyW0NIMl1bQ0gyXVtDSDJdTihbQ0gyXTIpYyhuW2NIXW4zKWMoYzM0KW5bY0hdbjRbQ0gyXVtDQEhdKFtDSDJdW09IXSlbQ0BASF01W0NIMl1bQ0gyXU9bQ0gyXTU=

> <s_epik_cmdline>
J2VwaWtfcHl0aG9uJywgJy1waCcsICc3LjAnLCAnLXRuJywgJzgnLCAnLW1hJywgJzIwMCcsICctbWV0YWxfYmluZGluZycsICctaW1hZScsICc8aW5maWxlLm1hZT4nLCAnLW9tYWUnLCAnPG91dGZpbGUubWFlPic=

> <r_lp_tautomer_probability>
1

> <r_epik_Ionization_Penalty>
0.0019697

> <r_epik_Ionization_Penalty_Charging>
0

> <r_epik_Ionization_Penalty_Neutral>
0.0019697

> <r_epik_State_Penalty>
0.00113613

> <r_epik_Charging_Adjusted_Penalty>
0.00113613

> <i_epik_Tot_Q>
0

> <i_epik_Tot_abs_Q>
0

> <r_epik_Metal_State_Penalty>
-0

> <b_epik_Metal_Only>
0

> <s_lp_Force_Field>
OPLS_2005

> <r_lp_Energy>
60.2496

> <b_lp_Chiralities_Consistent>
1

> <s_lp_Variant>
AV-unprocessed.smi:20-1

> <Gold.Version>
5.8.1

> <Gold.Id.Protein>
6NUR|6NUR_protein|mol2

> <Gold.PLP.Fitness>
41.0533

> <Gold.PLP.PLP>
-35.5419

> <Gold.PLP.part.hbond>
-4.0000

> <Gold.PLP.part.metal>
0.0000

> <Gold.PLP.part.buried>
-0.9749

> <Gold.PLP.part.nonpolar>
-32.3609

> <Gold.PLP.part.repulsive>
1.8699

> <Gold.PLP.ligand.clash>
0.0000

> <Gold.PLP.ligand.torsion>
1.6845

> <Gold.PLP.Chemscore.Hbond>
2.8153

> <Gold.PLP.Chemscore.CHOScore>
0.0000

> <Gold.PLP.Chemscore.Metal>
0.0000

> <Gold.Chemscore.Hbonds>
donor molecule, donor type, donor heavy atom, donor atom, acceptor molecule, acceptor atom, score
      P1  H  6931  6943       L1    25  1.00
      P1  H  6934  6947       L1    25  0.77
      P1  H 10785 10796       L1     1  0.96

> <Gold.PLP.Chemscore.Internal.Correction>
0.4346

> <Gold.Rescore>
     Score         DG    S(hbond)    S(metal)    S(lipo)     H(rot)  DE(clash)    DE(int)     intcor
     12.51     -16.18       1.92        0.00      96.71       2.74       2.02       1.66       ----

> <Gold.Chemscore.Fitness>
12.5073

> <Gold.Chemscore.DG>
-16.1843

> <Gold.Chemscore.ZeroCoef>
-5.4800

> <Gold.Chemscore.Hbond>
1.9185

> <Gold.Chemscore.Metal>
0.0000

> <Gold.Chemscore.Lipo>
96.7067

> <Gold.Chemscore.Internal_Hbond>
0.0000

> <Gold.Chemscore.DEClash>
2.0183

> <Gold.Chemscore.DEInternal>
1.6587

> <Gold.Chemscore.Rot>
2.7415

> <Gold.Chemscore.Internal.Correction>
   9.000000E+99

> <Gold.Chemscore.Hbonds>
donor molecule, donor type, donor heavy atom, donor atom, acceptor molecule, acceptor atom, score
      P1  H  6931  6943       L1    25  0.27
      P1  H  6934  6947       L1    25  0.69
      P1  H 10785 10796       L1     1  0.27

> <Gold.Chemscore.Hbond.Weighted>
-6.4079

> <Gold.Chemscore.Metal.Weighted>
-0.0000

> <Gold.Chemscore.Lipo.Weighted>
-11.3147

> <Gold.Chemscore.Internal_Hbond.Weighted>
0.0000

> <Gold.Chemscore.DEClash.Weighted>
2.0183

> <Gold.Chemscore.DEInternal.Weighted>
1.6587

> <Gold.Chemscore.Rot.Weighted>
7.0182

> <Gold.Chemscore.Internal.Correction.Weighted>
   9.000000E+99

> <Gold.Protein.RotatedTorsions>
[ 6907 6896 6895 6894 ] final  110.73 input  -60.11 | X-H torsion
[ 7974 7965 7964 7962 ] final  137.81 input  175.53 | X-H torsion
[ 8008 7997 7996 7995 ] final    4.14 input   59.86 | X-H torsion
[ 10167 10162 10161 10158 ] final -139.98 input  -65.29 | X-H torsion
[ 10718 10713 10712 10709 ] final  -85.06 input   66.30 | X-H torsion
[ 10763 10752 10751 10750 ] final -177.63 input  -60.55 | X-H torsion
[ 11005 11000 10999 10996 ] final  147.97 input  -57.11 | X-H torsion

> <Gold.Protein.ActiveResidues>
 VAL166  LYS551  ARG553  GLY616  TRP617  ASP618  TYR619  PRO620  LYS621  CYS622 
 ASP623  PHE694  ASN695  SER759  ASP760  ASP761  ALA762  ILE779  LEU786  VAL792 
 PHE793  MET794  SER795  GLU796  ALA797  LYS798  CYS799  TRP800  GLU811  SER814 

> <Gold.Protein.RotatedAtoms>
  152.5005  133.8758  159.7321 H   0  0  0  0  0  0  0  0  0  0  0  0  # atno 6907 bound_to 6896
  150.9233  133.6845  159.2834 H   0  0  0  0  0  0  0  0  0  0  0  0  # atno 6908 bound_to 6896
  151.4215  135.1003  159.9667 H   0  0  0  0  0  0  0  0  0  0  0  0  # atno 6909 bound_to 6896
  144.9432  139.4906  143.5562 H   0  0  0  0  0  0  0  0  0  0  0  0  # atno 7974 bound_to 7965
  154.7123  140.2695  155.6618 H   0  0  0  0  0  0  0  0  0  0  0  0  # atno 8008 bound_to 7997
  156.2799  140.2751  156.1693 H   0  0  0  0  0  0  0  0  0  0  0  0  # atno 8009 bound_to 7997
  155.0618  140.0371  157.2569 H   0  0  0  0  0  0  0  0  0  0  0  0  # atno 8010 bound_to 7997
  139.8326  143.7427  152.2665 H   0  0  0  0  0  0  0  0  0  0  0  0  # atno 10167 bound_to 10162
  156.0000  130.4718  150.4505 H   0  0  0  0  0  0  0  0  0  0  0  0  # atno 10718 bound_to 10713
  154.5577  135.2817  155.0949 H   0  0  0  0  0  0  0  0  0  0  0  0  # atno 10763 bound_to 10752
  154.2370  135.6364  153.5198 H   0  0  0  0  0  0  0  0  0  0  0  0  # atno 10764 bound_to 10752
  153.0020  135.5551  154.6162 H   0  0  0  0  0  0  0  0  0  0  0  0  # atno 10765 bound_to 10752
  140.0920  134.9035  157.1666 H   0  0  0  0  0  0  0  0  0  0  0  0  # atno 11005 bound_to 11000
  146.3294  139.8466  142.8880 LP  0  0  0  0  0  0  0  0  0  0  0  0  # atno 17320 bound_to 7965
  145.2958  141.0180  143.3637 LP  0  0  0  0  0  0  0  0  0  0  0  0  # atno 17321 bound_to 7965
  139.7639  144.7498  151.0323 LP  0  0  0  0  0  0  0  0  0  0  0  0  # atno 17342 bound_to 10162
  140.7805  143.4720  151.0134 LP  0  0  0  0  0  0  0  0  0  0  0  0  # atno 17343 bound_to 10162
  157.2538  131.0552  151.2363 LP  0  0  0  0  0  0  0  0  0  0  0  0  # atno 17370 bound_to 10713
  157.3502  130.7078  149.6436 LP  0  0  0  0  0  0  0  0  0  0  0  0  # atno 17371 bound_to 10713
  140.3338  134.2780  155.7223 LP  0  0  0  0  0  0  0  0  0  0  0  0  # atno 17394 bound_to 11000
  141.2081  133.7788  157.0081 LP  0  0  0  0  0  0  0  0  0  0  0  0  # atno 17395 bound_to 11000

$$$$
