AV-unprocessed.smi:232|AV-procd|sdf|1770|dock1
  -GOLD-   2262020303D 1   1.00000     0.00000
 Structure written by MMmdl.
 52 55  0  0  0  0  0  0  0  0  1 V2000
  146.9115  142.9205  153.6386 C   0  0  0  0  0  0  0  0  0  0  0  0
  148.1131  141.9697  153.7081 C   0  0  0  0  0  0  0  0  0  0  0  0
  147.7362  140.5550  154.2000 C   0  0  1  0  0  0  0  0  0  0  0  0
  146.5644  139.9329  153.4153 C   0  0  0  0  0  0  0  0  0  0  0  0
  147.0283  138.5250  153.0246 C   0  0  0  0  0  0  0  0  0  0  0  0
  148.2605  138.2658  153.8925 C   0  0  2  0  0  0  0  0  0  0  0  0
  147.8843  137.5843  155.2248 C   0  0  0  0  0  0  0  0  0  0  0  0
  148.8336  139.5958  154.0705 N   0  0  0  0  0  0  0  0  0  0  0  0
  149.9482  139.6902  154.8447 C   0  0  0  0  0  0  0  0  0  0  0  0
  151.0095  138.8727  154.6104 N   0  0  0  0  0  0  0  0  0  0  0  0
  152.1178  138.9713  155.3496 C   0  0  0  0  0  0  0  0  0  0  0  0
  152.3764  139.8059  156.3575 N   0  0  0  0  0  0  0  0  0  0  0  0
  151.3163  140.6284  156.6000 C   0  0  0  0  0  0  0  0  0  0  0  0
  150.0766  140.6384  155.8994 C   0  0  0  0  0  0  0  0  0  0  0  0
  149.2404  141.6106  156.4372 N   0  0  0  0  0  0  0  0  0  0  0  0
  149.9487  142.1516  157.3905 C   0  0  0  0  0  0  0  0  0  0  0  0
  151.2076  141.6221  157.5566 N   0  0  0  0  0  0  0  0  0  0  0  0
  152.1996  142.0337  158.5347 C   0  0  0  0  0  0  0  0  0  0  0  0
  151.6916  143.1658  159.4537 C   0  0  2  0  0  0  0  0  0  0  0  0
  151.8896  144.4002  158.7907 O   0  0  0  0  0  0  0  0  0  0  0  0
  152.4395  143.2301  160.8005 C   0  0  2  0  0  0  0  0  0  0  0  0
  152.6705  141.8757  161.4724 C   0  0  0  0  0  0  0  0  0  0  0  0
  152.8462  142.2347  162.9378 C   0  0  0  0  0  0  0  0  0  0  0  0
  152.1888  143.6119  163.0572 C   0  0  0  0  0  0  0  0  0  0  0  0
  151.6336  143.8756  161.7752 O   0  0  0  0  0  0  0  0  0  0  0  0
  147.2215  143.9126  153.3093 H   0  0  0  0  0  0  0  0  0  0  0  0
  146.4406  143.0280  154.6161 H   0  0  0  0  0  0  0  0  0  0  0  0
  146.1558  142.5623  152.9396 H   0  0  0  0  0  0  0  0  0  0  0  0
  148.5873  141.9056  152.7281 H   0  0  0  0  0  0  0  0  0  0  0  0
  148.8554  142.4159  154.3695 H   0  0  0  0  0  0  0  0  0  0  0  0
  147.4527  140.6073  155.2523 H   0  0  0  0  0  0  0  0  0  0  0  0
  145.6748  139.8903  154.0446 H   0  0  0  0  0  0  0  0  0  0  0  0
  146.3057  140.5044  152.5231 H   0  0  0  0  0  0  0  0  0  0  0  0
  146.2485  137.7722  153.1448 H   0  0  0  0  0  0  0  0  0  0  0  0
  147.3224  138.5237  151.9741 H   0  0  0  0  0  0  0  0  0  0  0  0
  148.9483  137.6227  153.3443 H   0  0  0  0  0  0  0  0  0  0  0  0
  147.4090  136.6199  155.0452 H   0  0  0  0  0  0  0  0  0  0  0  0
  147.1912  138.1901  155.8091 H   0  0  0  0  0  0  0  0  0  0  0  0
  148.7645  137.3985  155.8409 H   0  0  0  0  0  0  0  0  0  0  0  0
  152.9115  138.2846  155.0953 H   0  0  0  0  0  0  0  0  0  0  0  0
  149.5709  142.9580  158.0018 H   0  0  0  0  0  0  0  0  0  0  0  0
  152.4708  141.1554  159.1209 H   0  0  0  0  0  0  0  0  0  0  0  0
  153.1029  142.3463  158.0090 H   0  0  0  0  0  0  0  0  0  0  0  0
  150.6237  143.0317  159.6316 H   0  0  0  0  0  0  0  0  0  0  0  0
  152.1127  145.0547  159.4346 H   0  0  0  0  0  0  0  0  0  0  0  0
  153.3910  143.7565  160.6981 H   0  0  0  0  0  0  0  0  0  0  0  0
  151.7887  141.2440  161.3558 H   0  0  0  0  0  0  0  0  0  0  0  0
  153.5274  141.3386  161.0649 H   0  0  0  0  0  0  0  0  0  0  0  0
  152.3780  141.4955  163.5886 H   0  0  0  0  0  0  0  0  0  0  0  0
  153.9027  142.2961  163.2015 H   0  0  0  0  0  0  0  0  0  0  0  0
  151.4151  143.6402  163.8247 H   0  0  0  0  0  0  0  0  0  0  0  0
  152.9322  144.3742  163.2942 H   0  0  0  0  0  0  0  0  0  0  0  0
  1  2  1  0  0  0  0
  1 26  1  0  0  0  0
  1 27  1  0  0  0  0
  1 28  1  0  0  0  0
  2  3  1  0  0  0  0
  2 29  1  0  0  0  0
  2 30  1  0  0  0  0
  3  8  1  0  0  0  0
  3  4  1  0  0  0  0
  3 31  1  0  0  0  0
  4  5  1  0  0  0  0
  4 32  1  0  0  0  0
  4 33  1  0  0  0  0
  5  6  1  0  0  0  0
  5 34  1  0  0  0  0
  5 35  1  0  0  0  0
  6  7  1  0  0  0  0
  6  8  1  0  0  0  0
  6 36  1  0  0  0  0
  7 37  1  0  0  0  0
  7 38  1  0  0  0  0
  7 39  1  0  0  0  0
  8  9  1  0  0  0  0
  9 14  1  0  0  0  0
  9 10  2  0  0  0  0
 10 11  1  0  0  0  0
 11 12  2  0  0  0  0
 11 40  1  0  0  0  0
 12 13  1  0  0  0  0
 13 17  1  0  0  0  0
 13 14  2  0  0  0  0
 14 15  1  0  0  0  0
 15 16  2  0  0  0  0
 16 17  1  0  0  0  0
 16 41  1  0  0  0  0
 17 18  1  0  0  0  0
 18 19  1  0  0  0  0
 18 42  1  0  0  0  0
 18 43  1  0  0  0  0
 19 20  1  0  0  0  0
 19 21  1  0  0  0  0
 19 44  1  0  0  0  0
 20 45  1  0  0  0  0
 21 25  1  0  0  0  0
 21 22  1  0  0  0  0
 21 46  1  0  0  0  0
 22 23  1  0  0  0  0
 22 47  1  0  0  0  0
 22 48  1  0  0  0  0
 23 24  1  0  0  0  0
 23 49  1  0  0  0  0
 23 50  1  0  0  0  0
 24 25  1  0  0  0  0
 24 51  1  0  0  0  0
 24 52  1  0  0  0  0
M  END
> <s_m_source_file>
AV-unprocessed.smi

> <i_m_source_file_index>
232

> <i_lp_mmshare_version>
43012

> <i_f3d_flags>
0

> <s_epik_input>
W0NIM11bQ0gyXVtDQEBIXTFbQ0gyXVtDSDJdW0NAQEhdKFtDSDNdKU4xYyhuW2NIXW4yKWMoYzIzKW5bY0hdbjNbQ0gyXVtDQEhdKFtPSF0pW0NAQEhdNFtDSDJdW0NIMl1bQ0gyXU80

> <s_epik_cmdline>
J2VwaWtfcHl0aG9uJywgJy1waCcsICc3LjAnLCAnLXRuJywgJzgnLCAnLW1hJywgJzIwMCcsICctbWV0YWxfYmluZGluZycsICctaW1hZScsICc8aW5maWxlLm1hZT4nLCAnLW9tYWUnLCAnPG91dGZpbGUubWFlPic=

> <r_lp_tautomer_probability>
1

> <r_epik_Ionization_Penalty>
0.00258048

> <r_epik_Ionization_Penalty_Charging>
0

> <r_epik_Ionization_Penalty_Neutral>
0.00258048

> <r_epik_State_Penalty>
0.00168551

> <r_epik_Charging_Adjusted_Penalty>
0.00168551

> <i_epik_Tot_Q>
0

> <i_epik_Tot_abs_Q>
0

> <r_epik_Metal_State_Penalty>
-0

> <b_epik_Metal_Only>
0

> <s_lp_Force_Field>
OPLS_2005

> <r_lp_Energy>
53.6071

> <b_lp_Chiralities_Consistent>
1

> <s_lp_Variant>
AV-unprocessed.smi:232-4

> <Gold.Version>
5.8.1

> <Gold.Id.Protein>
6NUR|6NUR_protein|mol2

> <Gold.PLP.Fitness>
46.8261

> <Gold.PLP.PLP>
-44.9537

> <Gold.PLP.part.hbond>
-1.1395

> <Gold.PLP.part.metal>
0.0000

> <Gold.PLP.part.buried>
-5.8538

> <Gold.PLP.part.nonpolar>
-38.3961

> <Gold.PLP.part.repulsive>
0.5454

> <Gold.PLP.ligand.clash>
0.0000

> <Gold.PLP.ligand.torsion>
0.7966

> <Gold.PLP.Chemscore.Hbond>
1.0062

> <Gold.PLP.Chemscore.CHOScore>
0.0000

> <Gold.PLP.Chemscore.Metal>
0.0000

> <Gold.Chemscore.Hbonds>
donor molecule, donor type, donor heavy atom, donor atom, acceptor molecule, acceptor atom, score
      P1  H  7997  8009       L1    12  0.98

> <Gold.PLP.Chemscore.Internal.Correction>
0.4472

> <Gold.Rescore>
     Score         DG    S(hbond)    S(metal)    S(lipo)     H(rot)  DE(clash)    DE(int)     intcor
      8.27     -13.94       0.79        0.00     102.89       2.43       3.47       2.20       ----

> <Gold.Chemscore.Fitness>
8.2658

> <Gold.Chemscore.DG>
-13.9359

> <Gold.Chemscore.ZeroCoef>
-5.4800

> <Gold.Chemscore.Hbond>
0.7870

> <Gold.Chemscore.Metal>
0.0000

> <Gold.Chemscore.Lipo>
102.8890

> <Gold.Chemscore.Internal_Hbond>
0.0000

> <Gold.Chemscore.DEClash>
3.4732

> <Gold.Chemscore.DEInternal>
2.1968

> <Gold.Chemscore.Rot>
2.4260

> <Gold.Chemscore.Internal.Correction>
   9.000000E+99

> <Gold.Chemscore.Hbonds>
donor molecule, donor type, donor heavy atom, donor atom, acceptor molecule, acceptor atom, score
      P1  H  7997  8009       L1    12  0.30

> <Gold.Chemscore.Hbond.Weighted>
-2.6286

> <Gold.Chemscore.Metal.Weighted>
-0.0000

> <Gold.Chemscore.Lipo.Weighted>
-12.0380

> <Gold.Chemscore.Internal_Hbond.Weighted>
0.0000

> <Gold.Chemscore.DEClash.Weighted>
3.4732

> <Gold.Chemscore.DEInternal.Weighted>
2.1968

> <Gold.Chemscore.Rot.Weighted>
6.2107

> <Gold.Chemscore.Internal.Correction.Weighted>
   9.000000E+99

> <Gold.Protein.RotatedTorsions>
[ 6907 6896 6895 6894 ] final  -98.77 input  -60.11 | X-H torsion
[ 7974 7965 7964 7962 ] final -129.46 input  175.53 | X-H torsion
[ 8008 7997 7996 7995 ] final -147.27 input   59.86 | X-H torsion
[ 10167 10162 10161 10158 ] final -178.26 input  -65.29 | X-H torsion
[ 10718 10713 10712 10709 ] final  108.26 input   66.30 | X-H torsion
[ 10763 10752 10751 10750 ] final   76.88 input  -60.55 | X-H torsion
[ 11005 11000 10999 10996 ] final  167.45 input  -57.11 | X-H torsion

> <Gold.Protein.ActiveResidues>
 VAL166  LYS551  ARG553  GLY616  TRP617  ASP618  TYR619  PRO620  LYS621  CYS622 
 ASP623  PHE694  ASN695  SER759  ASP760  ASP761  ALA762  ILE779  LEU786  VAL792 
 PHE793  MET794  SER795  GLU796  ALA797  LYS798  CYS799  TRP800  GLU811  SER814 

> <Gold.Protein.RotatedAtoms>
  150.7057  134.1144  159.4011 H   0  0  0  0  0  0  0  0  0  0  0  0  # atno 6907 bound_to 6896
  151.9130  135.0328  160.0525 H   0  0  0  0  0  0  0  0  0  0  0  0  # atno 6908 bound_to 6896
  152.2320  133.5030  159.5258 H   0  0  0  0  0  0  0  0  0  0  0  0  # atno 6909 bound_to 6896
  144.9570  140.7406  143.4752 H   0  0  0  0  0  0  0  0  0  0  0  0  # atno 7974 bound_to 7965
  155.5729  140.0636  157.2802 H   0  0  0  0  0  0  0  0  0  0  0  0  # atno 8008 bound_to 7997
  154.4355  140.1866  156.0943 H   0  0  0  0  0  0  0  0  0  0  0  0  # atno 8009 bound_to 7997
  156.0363  140.3301  155.7198 H   0  0  0  0  0  0  0  0  0  0  0  0  # atno 8010 bound_to 7997
  139.5441  144.2283  152.0953 H   0  0  0  0  0  0  0  0  0  0  0  0  # atno 10167 bound_to 10162
  157.6594  131.0890  150.6278 H   0  0  0  0  0  0  0  0  0  0  0  0  # atno 10718 bound_to 10713
  153.0758  135.4935  154.8400 H   0  0  0  0  0  0  0  0  0  0  0  0  # atno 10763 bound_to 10752
  154.7085  135.3015  154.9236 H   0  0  0  0  0  0  0  0  0  0  0  0  # atno 10764 bound_to 10752
  153.9937  135.6775  153.4808 H   0  0  0  0  0  0  0  0  0  0  0  0  # atno 10765 bound_to 10752
  140.2769  134.7782  157.3724 H   0  0  0  0  0  0  0  0  0  0  0  0  # atno 11005 bound_to 11000
  145.2757  139.1937  143.4818 LP  0  0  0  0  0  0  0  0  0  0  0  0  # atno 17320 bound_to 7965
  146.3340  140.2711  142.8606 LP  0  0  0  0  0  0  0  0  0  0  0  0  # atno 17321 bound_to 7965
  140.1767  144.4884  150.6550 LP  0  0  0  0  0  0  0  0  0  0  0  0  # atno 17342 bound_to 10162
  140.6682  143.2276  151.5690 LP  0  0  0  0  0  0  0  0  0  0  0  0  # atno 17343 bound_to 10162
  156.6582  130.4504  149.5696 LP  0  0  0  0  0  0  0  0  0  0  0  0  # atno 17370 bound_to 10713
  156.2086  130.6665  151.1245 LP  0  0  0  0  0  0  0  0  0  0  0  0  # atno 17371 bound_to 10713
  140.1320  134.5083  155.8098 LP  0  0  0  0  0  0  0  0  0  0  0  0  # atno 17394 bound_to 11000
  141.2169  133.6793  156.7056 LP  0  0  0  0  0  0  0  0  0  0  0  0  # atno 17395 bound_to 11000

$$$$
