AV-unprocessed.smi:3056|AV-procd|sdf|11653|dock6
  -GOLD-   2272017 53D 1   1.00000     0.00000
 Structure written by MMmdl.
 47 48  0  0  0  0  0  0  0  0  1 V2000
  148.3054  133.5452  162.5146 C   0  0  0  0  0  0  0  0  0  0  0  0
  148.2280  134.8137  161.7152 C   0  0  0  0  0  0  0  0  0  0  0  0
  148.4061  136.1503  162.1721 C   0  0  0  0  0  0  0  0  0  0  0  0
  148.2730  137.0458  161.2075 N   0  0  0  0  0  0  0  0  0  0  0  0
  148.0085  136.3175  160.1014 N   0  0  0  0  0  0  0  0  0  0  0  0
  147.7960  136.9864  158.8239 C   0  0  2  0  0  0  0  0  0  0  0  0
  146.3383  136.7743  158.3734 C   0  0  0  0  0  0  0  0  0  0  0  0
  148.8281  136.5275  157.7595 C   0  0  2  0  0  0  0  0  0  0  0  0
  150.2406  137.1022  157.9990 C   0  0  0  0  0  0  0  0  0  0  0  0
  148.3623  136.9620  156.4409 N   0  0  0  0  0  0  0  0  0  0  0  0
  148.9343  136.2084  155.3091 C   0  0  0  0  0  0  0  0  0  0  0  0
  150.3216  136.6941  154.8409 C   0  0  0  0  0  0  0  0  0  0  0  0
  151.3013  135.9720  155.0357 O   0  0  0  0  0  0  0  0  0  0  0  0
  150.4297  137.8975  154.2287 N   0  0  0  0  0  0  0  0  0  0  0  0
  151.7154  138.5134  153.8935 C   0  0  0  0  0  0  0  0  0  0  0  0
  151.8796  139.7670  154.7720 C   0  0  0  0  0  0  0  0  0  0  0  0
  150.7825  140.6545  154.5590 O   0  0  0  0  0  0  0  0  0  0  0  0
  149.5089  140.0674  154.8287 C   0  0  1  0  0  0  0  0  0  0  0  0
  148.4293  141.1241  154.5716 C   0  0  0  0  0  0  0  0  0  0  0  0
  149.3344  138.8246  153.9335 C   0  0  0  0  0  0  0  0  0  0  0  0
  147.9708  134.9666  160.3825 C   0  0  0  0  0  0  0  0  0  0  0  0
  148.4637  133.7431  163.5749 H   0  0  0  0  0  0  0  0  0  0  0  0
  149.1256  132.9099  162.1802 H   0  0  0  0  0  0  0  0  0  0  0  0
  147.3893  132.9603  162.4304 H   0  0  0  0  0  0  0  0  0  0  0  0
  148.6273  136.4941  163.1717 H   0  0  0  0  0  0  0  0  0  0  0  0
  147.9359  138.0569  158.9901 H   0  0  0  0  0  0  0  0  0  0  0  0
  146.1052  137.3529  157.4796 H   0  0  0  0  0  0  0  0  0  0  0  0
  145.6402  137.0871  159.1505 H   0  0  0  0  0  0  0  0  0  0  0  0
  146.1382  135.7260  158.1495 H   0  0  0  0  0  0  0  0  0  0  0  0
  148.8905  135.4402  157.8064 H   0  0  0  0  0  0  0  0  0  0  0  0
  150.6522  136.7747  158.9535 H   0  0  0  0  0  0  0  0  0  0  0  0
  150.2267  138.1926  158.0039 H   0  0  0  0  0  0  0  0  0  0  0  0
  150.9474  136.7840  157.2332 H   0  0  0  0  0  0  0  0  0  0  0  0
  147.3527  136.9323  156.4167 H   0  0  0  0  0  0  0  0  0  0  0  0
  149.0290  135.1638  155.6065 H   0  0  0  0  0  0  0  0  0  0  0  0
  148.2270  136.2372  154.4815 H   0  0  0  0  0  0  0  0  0  0  0  0
  152.5631  137.8441  154.0449 H   0  0  0  0  0  0  0  0  0  0  0  0
  151.7284  138.7858  152.8372 H   0  0  0  0  0  0  0  0  0  0  0  0
  151.9374  139.4954  155.8274 H   0  0  0  0  0  0  0  0  0  0  0  0
  152.8063  140.2843  154.5239 H   0  0  0  0  0  0  0  0  0  0  0  0
  149.4673  139.7737  155.8793 H   0  0  0  0  0  0  0  0  0  0  0  0
  147.4349  140.7266  154.7759 H   0  0  0  0  0  0  0  0  0  0  0  0
  148.4488  141.4641  153.5359 H   0  0  0  0  0  0  0  0  0  0  0  0
  148.5765  141.9947  155.2112 H   0  0  0  0  0  0  0  0  0  0  0  0
  149.3841  139.1117  152.8819 H   0  0  0  0  0  0  0  0  0  0  0  0
  148.3445  138.3905  154.0644 H   0  0  0  0  0  0  0  0  0  0  0  0
  147.7690  134.2322  159.6163 H   0  0  0  0  0  0  0  0  0  0  0  0
  1  2  1  0  0  0  0
  1 22  1  0  0  0  0
  1 23  1  0  0  0  0
  1 24  1  0  0  0  0
  2 21  2  0  0  0  0
  2  3  1  0  0  0  0
  3  4  2  0  0  0  0
  3 25  1  0  0  0  0
  4  5  1  0  0  0  0
  5  6  1  0  0  0  0
  5 21  1  0  0  0  0
  6  7  1  0  0  0  0
  6  8  1  0  0  0  0
  6 26  1  0  0  0  0
  7 27  1  0  0  0  0
  7 28  1  0  0  0  0
  7 29  1  0  0  0  0
  8  9  1  0  0  0  0
  8 10  1  0  0  0  0
  8 30  1  0  0  0  0
  9 31  1  0  0  0  0
  9 32  1  0  0  0  0
  9 33  1  0  0  0  0
 10 11  1  0  0  0  0
 10 34  1  0  0  0  0
 11 12  1  0  0  0  0
 11 35  1  0  0  0  0
 11 36  1  0  0  0  0
 12 13  2  0  0  0  0
 12 14  1  0  0  0  0
 14 20  1  0  0  0  0
 14 15  1  0  0  0  0
 15 16  1  0  0  0  0
 15 37  1  0  0  0  0
 15 38  1  0  0  0  0
 16 17  1  0  0  0  0
 16 39  1  0  0  0  0
 16 40  1  0  0  0  0
 17 18  1  0  0  0  0
 18 19  1  0  0  0  0
 18 20  1  0  0  0  0
 18 41  1  0  0  0  0
 19 42  1  0  0  0  0
 19 43  1  0  0  0  0
 19 44  1  0  0  0  0
 20 45  1  0  0  0  0
 20 46  1  0  0  0  0
 21 47  1  0  0  0  0
M  END
> <s_m_source_file>
AV-unprocessed.smi

> <i_m_source_file_index>
3056

> <i_lp_mmshare_version>
43012

> <i_f3d_flags>
0

> <s_epik_input>
W0NIM11jMVtjSF1ubihbY0hdMSlbQ0BIXShbQ0gzXSlbQ0BIXShbQ0gzXSlbTkhdW0NIMl1DKD1PKU4yW0NIMl1bQ0gyXU9bQ0BASF0oW0NIM10pW0NIMl0y

> <s_epik_cmdline>
J2VwaWtfcHl0aG9uJywgJy1waCcsICc3LjAnLCAnLXRuJywgJzgnLCAnLW1hJywgJzIwMCcsICctbWV0YWxfYmluZGluZycsICctaW1hZScsICc8aW5maWxlLm1hZT4nLCAnLW9tYWUnLCAnPG91dGZpbGUubWFlPic=

> <r_lp_tautomer_probability>
1

> <r_epik_Ionization_Penalty>
0.667689

> <r_epik_Ionization_Penalty_Charging>
0

> <r_epik_Ionization_Penalty_Neutral>
0.667689

> <r_epik_State_Penalty>
0.684601

> <r_epik_Charging_Adjusted_Penalty>
0.684601

> <i_epik_Tot_Q>
0

> <i_epik_Tot_abs_Q>
0

> <r_epik_Metal_State_Penalty>
0.681448

> <b_epik_Metal_Only>
0

> <s_lp_Force_Field>
OPLS_2005

> <r_lp_Energy>
29.7123

> <b_lp_Chiralities_Consistent>
1

> <s_lp_Variant>
AV-unprocessed.smi:3056-9

> <Gold.Version>
5.8.1

> <Gold.Id.Protein>
6NUR|6NUR_protein|mol2

> <Gold.PLP.Fitness>
49.9788

> <Gold.PLP.PLP>
-39.9929

> <Gold.PLP.part.hbond>
-3.8439

> <Gold.PLP.part.metal>
0.0000

> <Gold.PLP.part.buried>
-3.4545

> <Gold.PLP.part.nonpolar>
-32.3018

> <Gold.PLP.part.repulsive>
0.1413

> <Gold.PLP.ligand.clash>
0.0000

> <Gold.PLP.ligand.torsion>
0.6741

> <Gold.PLP.Chemscore.Hbond>
3.7520

> <Gold.PLP.Chemscore.CHOScore>
0.0000

> <Gold.PLP.Chemscore.Metal>
0.0000

> <Gold.Chemscore.Hbonds>
donor molecule, donor type, donor heavy atom, donor atom, acceptor molecule, acceptor atom, score
      P1  H  6931  6943       L1     4  0.90
      P1  H  6934  6947       L1     4  0.25
      P1  H 10752 10764       L1    13  1.00

> <Gold.PLP.Chemscore.Internal.Correction>
0.0782

> <Gold.Rescore>
     Score         DG    S(hbond)    S(metal)    S(lipo)     H(rot)  DE(clash)    DE(int)     intcor
     19.71     -20.44       2.94        0.00      80.59       1.68       0.09       0.64       ----

> <Gold.Chemscore.Fitness>
19.7051

> <Gold.Chemscore.DG>
-20.4385

> <Gold.Chemscore.ZeroCoef>
-5.4800

> <Gold.Chemscore.Hbond>
2.9426

> <Gold.Chemscore.Metal>
0.0000

> <Gold.Chemscore.Lipo>
80.5928

> <Gold.Chemscore.Internal_Hbond>
0.0000

> <Gold.Chemscore.DEClash>
0.0898

> <Gold.Chemscore.DEInternal>
0.6436

> <Gold.Chemscore.Rot>
1.6793

> <Gold.Chemscore.Internal.Correction>
   9.000000E+99

> <Gold.Chemscore.Hbonds>
donor molecule, donor type, donor heavy atom, donor atom, acceptor molecule, acceptor atom, score
      P1  H  6931  6943       L1     4  0.17
      P1  H  6934  6947       L1     4  0.15
      P1  H 10752 10764       L1    13  0.98

> <Gold.Chemscore.Hbond.Weighted>
-9.8282

> <Gold.Chemscore.Metal.Weighted>
-0.0000

> <Gold.Chemscore.Lipo.Weighted>
-9.4294

> <Gold.Chemscore.Internal_Hbond.Weighted>
0.0000

> <Gold.Chemscore.DEClash.Weighted>
0.0898

> <Gold.Chemscore.DEInternal.Weighted>
0.6436

> <Gold.Chemscore.Rot.Weighted>
4.2990

> <Gold.Chemscore.Internal.Correction.Weighted>
   9.000000E+99

> <Gold.Protein.RotatedTorsions>
[ 6907 6896 6895 6894 ] final  -23.93 input  -60.11 | X-H torsion
[ 7974 7965 7964 7962 ] final  -98.46 input  175.53 | X-H torsion
[ 8008 7997 7996 7995 ] final -141.59 input   59.86 | X-H torsion
[ 10167 10162 10161 10158 ] final   91.83 input  -65.29 | X-H torsion
[ 10718 10713 10712 10709 ] final  -99.56 input   66.30 | X-H torsion
[ 10763 10752 10751 10750 ] final  -40.82 input  -60.55 | X-H torsion
[ 11005 11000 10999 10996 ] final   48.35 input  -57.11 | X-H torsion

> <Gold.Protein.ActiveResidues>
 VAL166  LYS551  ARG553  GLY616  TRP617  ASP618  TYR619  PRO620  LYS621  CYS622 
 ASP623  PHE694  ASN695  SER759  ASP760  ASP761  ALA762  ILE779  LEU786  VAL792 
 PHE793  MET794  SER795  GLU796  ALA797  LYS798  CYS799  TRP800  GLU811  SER814 

> <Gold.Protein.RotatedAtoms>
  151.1969  135.0426  159.8855 H   0  0  0  0  0  0  0  0  0  0  0  0  # atno 6907 bound_to 6896
  152.5435  134.0893  159.8280 H   0  0  0  0  0  0  0  0  0  0  0  0  # atno 6908 bound_to 6896
  151.1029  133.5183  159.2641 H   0  0  0  0  0  0  0  0  0  0  0  0  # atno 6909 bound_to 6896
  145.3203  140.9420  143.2719 H   0  0  0  0  0  0  0  0  0  0  0  0  # atno 7974 bound_to 7965
  155.4802  140.0559  157.2968 H   0  0  0  0  0  0  0  0  0  0  0  0  # atno 8008 bound_to 7997
  154.4663  140.2020  156.0062 H   0  0  0  0  0  0  0  0  0  0  0  0  # atno 8009 bound_to 7997
  156.0980  140.3223  155.7908 H   0  0  0  0  0  0  0  0  0  0  0  0  # atno 8010 bound_to 7997
  139.8336  144.6675  150.9369 H   0  0  0  0  0  0  0  0  0  0  0  0  # atno 10167 bound_to 10162
  156.0137  130.5288  150.6688 H   0  0  0  0  0  0  0  0  0  0  0  0  # atno 10718 bound_to 10713
  153.9523  135.6749  153.4744 H   0  0  0  0  0  0  0  0  0  0  0  0  # atno 10763 bound_to 10752
  153.0878  135.4890  154.8629 H   0  0  0  0  0  0  0  0  0  0  0  0  # atno 10764 bound_to 10752
  154.7319  135.3140  154.8837 H   0  0  0  0  0  0  0  0  0  0  0  0  # atno 10765 bound_to 10752
  140.1198  134.4844  155.8607 H   0  0  0  0  0  0  0  0  0  0  0  0  # atno 11005 bound_to 11000
  144.8945  139.4731  143.6662 LP  0  0  0  0  0  0  0  0  0  0  0  0  # atno 17320 bound_to 7965
  146.3085  139.7662  142.9038 LP  0  0  0  0  0  0  0  0  0  0  0  0  # atno 17321 bound_to 7965
  140.7804  143.3978  151.1201 LP  0  0  0  0  0  0  0  0  0  0  0  0  # atno 17342 bound_to 10162
  139.7629  143.8608  152.3104 LP  0  0  0  0  0  0  0  0  0  0  0  0  # atno 17343 bound_to 10162
  157.4415  131.0862  151.0938 LP  0  0  0  0  0  0  0  0  0  0  0  0  # atno 17370 bound_to 10713
  157.1481  130.6172  149.5574 LP  0  0  0  0  0  0  0  0  0  0  0  0  # atno 17371 bound_to 10713
  141.2149  133.6756  156.6867 LP  0  0  0  0  0  0  0  0  0  0  0  0  # atno 17394 bound_to 11000
  140.2980  134.8187  157.4073 LP  0  0  0  0  0  0  0  0  0  0  0  0  # atno 17395 bound_to 11000

$$$$
