AV-unprocessed.smi:2108|AV-procd|sdf|8605|dock1
  -GOLD-   2272011343D 1   1.00000     0.00000
 Structure written by MMmdl.
 34 35  0  0  0  0  0  0  0  0  2 V2000
  154.3742  137.8198  157.2487 O   0  0  0  0  0  0  0  0  0  0  0  0
  153.2778  138.5378  157.9192 S   0  0  0  0  0  0  0  0  0  0  0  0
  152.5202  137.8183  158.9564 O   0  0  0  0  0  0  0  0  0  0  0  0
  153.6818  140.0520  158.3326 N   0  5  0  0  0  0  0  0  0  0  0  0
  153.2713  140.5588  159.6300 C   0  0  0  0  0  0  0  0  0  0  0  0
  153.8583  141.9695  159.8507 C   0  0  0  0  0  0  0  0  0  0  0  0
  152.8290  143.0929  159.7783 C   0  0  0  0  0  0  0  0  0  0  0  0
  152.5668  143.9035  160.9067 C   0  0  0  0  0  0  0  0  0  0  0  0
  151.6143  144.9341  160.7912 C   0  0  0  0  0  0  0  0  0  0  0  0
  150.9641  145.1224  159.5567 C   0  0  0  0  0  0  0  0  0  0  0  0
  151.2976  144.2679  158.4874 C   0  0  0  0  0  0  0  0  0  0  0  0
  152.2093  143.2773  158.5867 N   0  0  0  0  0  0  0  0  0  0  0  0
  152.1257  138.9424  156.6838 N   0  0  0  0  0  0  0  0  0  0  0  0
  152.5181  138.7165  155.2777 C   0  0  0  0  0  0  0  0  0  0  0  0
  151.3201  138.8919  154.3312 C   0  0  0  0  0  0  0  0  0  0  0  0
  150.7190  140.1616  154.5327 O   0  0  0  0  0  0  0  0  0  0  0  0
  150.2095  140.2864  155.8510 C   0  0  0  0  0  0  0  0  0  0  0  0
  151.3518  140.1811  156.8743 C   0  0  0  0  0  0  0  0  0  0  0  0
  152.1851  140.6098  159.7119 H   0  0  0  0  0  0  0  0  0  0  0  0
  153.6029  139.9041  160.4368 H   0  0  0  0  0  0  0  0  0  0  0  0
  154.3532  142.0149  160.8220 H   0  0  0  0  0  0  0  0  0  0  0  0
  154.6351  142.1647  159.1094 H   0  0  0  0  0  0  0  0  0  0  0  0
  153.0814  143.7349  161.8415 H   0  0  0  0  0  0  0  0  0  0  0  0
  151.3868  145.5694  161.6343 H   0  0  0  0  0  0  0  0  0  0  0  0
  150.2286  145.9033  159.4317 H   0  0  0  0  0  0  0  0  0  0  0  0
  150.8204  144.3845  157.5258 H   0  0  0  0  0  0  0  0  0  0  0  0
  153.3065  139.4231  155.0157 H   0  0  0  0  0  0  0  0  0  0  0  0
  152.9349  137.7177  155.1526 H   0  0  0  0  0  0  0  0  0  0  0  0
  151.6502  138.8197  153.2948 H   0  0  0  0  0  0  0  0  0  0  0  0
  150.5865  138.0988  154.4849 H   0  0  0  0  0  0  0  0  0  0  0  0
  149.7114  141.2512  155.9466 H   0  0  0  0  0  0  0  0  0  0  0  0
  149.4533  139.5213  156.0349 H   0  0  0  0  0  0  0  0  0  0  0  0
  150.9383  140.2103  157.8820 H   0  0  0  0  0  0  0  0  0  0  0  0
  152.0246  141.0341  156.7780 H   0  0  0  0  0  0  0  0  0  0  0  0
  1  2  2  0  0  0  0
  2  3  2  0  0  0  0
  2  4  1  0  0  0  0
  2 13  1  0  0  0  0
  4  5  1  0  0  0  0
  5  6  1  0  0  0  0
  5 19  1  0  0  0  0
  5 20  1  0  0  0  0
  6  7  1  0  0  0  0
  6 21  1  0  0  0  0
  6 22  1  0  0  0  0
  7 12  1  0  0  0  0
  7  8  2  0  0  0  0
  8  9  1  0  0  0  0
  8 23  1  0  0  0  0
  9 10  2  0  0  0  0
  9 24  1  0  0  0  0
 10 11  1  0  0  0  0
 10 25  1  0  0  0  0
 11 12  2  0  0  0  0
 11 26  1  0  0  0  0
 13 18  1  0  0  0  0
 13 14  1  0  0  0  0
 14 15  1  0  0  0  0
 14 27  1  0  0  0  0
 14 28  1  0  0  0  0
 15 16  1  0  0  0  0
 15 29  1  0  0  0  0
 15 30  1  0  0  0  0
 16 17  1  0  0  0  0
 17 18  1  0  0  0  0
 17 31  1  0  0  0  0
 17 32  1  0  0  0  0
 18 33  1  0  0  0  0
 18 34  1  0  0  0  0
M  CHG  1   4  -1
M  END
> <s_m_source_file>
AV-unprocessed.smi

> <i_m_source_file_index>
2108

> <i_lp_mmshare_version>
43012

> <i_f3d_flags>
0

> <s_epik_input>
W0NIMl0xW0NIMl1PW0NIMl1bQ0gyXU4xUyg9TykoPU8pW05IXVtDSDJdW0NIMl1jMltjSF1bY0hdW2NIXVtjSF1uMg==

> <s_epik_cmdline>
J2VwaWtfcHl0aG9uJywgJy1waCcsICc3LjAnLCAnLXRuJywgJzgnLCAnLW1hJywgJzIwMCcsICctbWV0YWxfYmluZGluZycsICctaW1hZScsICc8aW5maWxlLm1hZT4nLCAnLW9tYWUnLCAnPG91dGZpbGUubWFlPic=

> <r_epik_Ionization_Penalty>
1.27779

> <r_epik_Ionization_Penalty_Charging>
1.20871

> <r_epik_Ionization_Penalty_Neutral>
0.0690773

> <r_epik_State_Penalty>
1.64557

> <r_epik_Charging_Adjusted_Penalty>
2.85428

> <i_epik_Tot_Q>
-1

> <i_epik_Tot_abs_Q>
1

> <r_epik_Metal_State_Penalty>
0.643506

> <b_epik_Metal_Only>
0

> <s_lp_Force_Field>
OPLS_2005

> <r_lp_Energy>
7.47044

> <b_lp_Chiralities_Consistent>
1

> <s_lp_Variant>
AV-unprocessed.smi:2108-2

> <Gold.Version>
5.8.1

> <Gold.Id.Protein>
6NUR|6NUR_protein|mol2

> <Gold.PLP.Fitness>
49.2017

> <Gold.PLP.PLP>
-38.8627

> <Gold.PLP.part.hbond>
-2.0000

> <Gold.PLP.part.metal>
0.0000

> <Gold.PLP.part.buried>
-5.8294

> <Gold.PLP.part.nonpolar>
-31.0785

> <Gold.PLP.part.repulsive>
0.1382

> <Gold.PLP.ligand.clash>
0.0000

> <Gold.PLP.ligand.torsion>
1.6144

> <Gold.PLP.Chemscore.Hbond>
3.0000

> <Gold.PLP.Chemscore.CHOScore>
0.9987

> <Gold.PLP.Chemscore.Metal>
0.0000

> <Gold.Chemscore.Hbonds>
donor molecule, donor type, donor heavy atom, donor atom, acceptor molecule, acceptor atom, score
      P1  H  7989  7998       L1    16  0.70
      P1  H  7997  8010       L1     4  0.70
      L1  C    11    26       P1  8028  0.64

> <Gold.PLP.Chemscore.Internal.Correction>
1.5717

> <Gold.Rescore>
     Score         DG    S(hbond)    S(metal)    S(lipo)     H(rot)  DE(clash)    DE(int)     intcor
     17.94     -19.58       1.67        0.00     106.97       1.56       0.09       1.55       ----

> <Gold.Chemscore.Fitness>
17.9361

> <Gold.Chemscore.DG>
-19.5778

> <Gold.Chemscore.ZeroCoef>
-5.4800

> <Gold.Chemscore.Hbond>
1.6716

> <Gold.Chemscore.Metal>
0.0000

> <Gold.Chemscore.Lipo>
106.9726

> <Gold.Chemscore.Internal_Hbond>
0.0000

> <Gold.Chemscore.DEClash>
0.0886

> <Gold.Chemscore.DEInternal>
1.5531

> <Gold.Chemscore.Rot>
1.5630

> <Gold.Chemscore.Internal.Correction>
   9.000000E+99

> <Gold.Chemscore.Hbonds>
donor molecule, donor type, donor heavy atom, donor atom, acceptor molecule, acceptor atom, score
      P1  H  7989  7998       L1    16  0.07
      P1  H  7997  8010       L1     4  0.01

> <Gold.Chemscore.Hbond.Weighted>
-5.5833

> <Gold.Chemscore.Metal.Weighted>
-0.0000

> <Gold.Chemscore.Lipo.Weighted>
-12.5158

> <Gold.Chemscore.Internal_Hbond.Weighted>
0.0000

> <Gold.Chemscore.DEClash.Weighted>
0.0886

> <Gold.Chemscore.DEInternal.Weighted>
1.5531

> <Gold.Chemscore.Rot.Weighted>
4.0013

> <Gold.Chemscore.Internal.Correction.Weighted>
   9.000000E+99

> <Gold.Protein.RotatedTorsions>
[ 6907 6896 6895 6894 ] final  -58.30 input  -60.11 | X-H torsion
[ 7974 7965 7964 7962 ] final   82.05 input  175.53 | X-H torsion
[ 8008 7997 7996 7995 ] final   28.86 input   59.86 | X-H torsion
[ 10167 10162 10161 10158 ] final  136.85 input  -65.29 | X-H torsion
[ 10718 10713 10712 10709 ] final -146.21 input   66.30 | X-H torsion
[ 10763 10752 10751 10750 ] final  -86.65 input  -60.55 | X-H torsion
[ 11005 11000 10999 10996 ] final  -99.39 input  -57.11 | X-H torsion

> <Gold.Protein.ActiveResidues>
 VAL166  LYS551  ARG553  GLY616  TRP617  ASP618  TYR619  PRO620  LYS621  CYS622 
 ASP623  PHE694  ASN695  SER759  ASP760  ASP761  ALA762  ILE779  LEU786  VAL792 
 PHE793  MET794  SER795  GLU796  ALA797  LYS798  CYS799  TRP800  GLU811  SER814 

> <Gold.Protein.RotatedAtoms>
  150.8018  134.7117  159.6606 H   0  0  0  0  0  0  0  0  0  0  0  0  # atno 6907 bound_to 6896
  152.4135  134.6079  160.0027 H   0  0  0  0  0  0  0  0  0  0  0  0  # atno 6908 bound_to 6896
  151.6315  133.3295  159.3146 H   0  0  0  0  0  0  0  0  0  0  0  0  # atno 6909 bound_to 6896
  145.6302  139.2403  143.2089 H   0  0  0  0  0  0  0  0  0  0  0  0  # atno 7974 bound_to 7965
  155.0653  140.3194  155.4647 H   0  0  0  0  0  0  0  0  0  0  0  0  # atno 8008 bound_to 7997
  156.2803  140.2121  156.5725 H   0  0  0  0  0  0  0  0  0  0  0  0  # atno 8009 bound_to 7997
  154.7099  140.0499  157.0527 H   0  0  0  0  0  0  0  0  0  0  0  0  # atno 8010 bound_to 7997
  139.5165  144.6442  151.5486 H   0  0  0  0  0  0  0  0  0  0  0  0  # atno 10167 bound_to 10162
  156.3920  130.7891  151.2094 H   0  0  0  0  0  0  0  0  0  0  0  0  # atno 10718 bound_to 10713
  154.6248  135.5441  153.7615 H   0  0  0  0  0  0  0  0  0  0  0  0  # atno 10763 bound_to 10752
  153.0256  135.6421  154.1387 H   0  0  0  0  0  0  0  0  0  0  0  0  # atno 10764 bound_to 10752
  154.1320  135.2913  155.3162 H   0  0  0  0  0  0  0  0  0  0  0  0  # atno 10765 bound_to 10752
  141.1310  133.8318  157.0965 H   0  0  0  0  0  0  0  0  0  0  0  0  # atno 11005 bound_to 11000
  146.1363  140.7119  142.9388 LP  0  0  0  0  0  0  0  0  0  0  0  0  # atno 17320 bound_to 7965
  144.7196  140.4330  143.7018 LP  0  0  0  0  0  0  0  0  0  0  0  0  # atno 17321 bound_to 7965
  140.6220  143.9239  150.6534 LP  0  0  0  0  0  0  0  0  0  0  0  0  # atno 17342 bound_to 10162
  140.2516  143.3589  152.1400 LP  0  0  0  0  0  0  0  0  0  0  0  0  # atno 17343 bound_to 10162
  157.7499  131.0312  150.4173 LP  0  0  0  0  0  0  0  0  0  0  0  0  # atno 17370 bound_to 10713
  156.4436  130.3997  149.6681 LP  0  0  0  0  0  0  0  0  0  0  0  0  # atno 17371 bound_to 10713
  140.0360  134.9878  157.0871 LP  0  0  0  0  0  0  0  0  0  0  0  0  # atno 17394 bound_to 11000
  140.4210  134.1880  155.7164 LP  0  0  0  0  0  0  0  0  0  0  0  0  # atno 17395 bound_to 11000

$$$$
