AV-unprocessed.smi:102|AV-procd|sdf|948|dock3
  -GOLD-   2262017473D 1   1.00000     0.00000
 Structure written by MMmdl.
 44 45  0  0  0  0  0  0  0  0  1 V2000
  151.9614  145.3796  159.8307 C   0  0  0  0  0  0  0  0  0  0  0  0
  152.2266  144.1863  158.9216 C   0  0  0  0  0  0  0  0  0  0  0  0
  151.9252  144.2103  157.7281 O   0  0  0  0  0  0  0  0  0  0  0  0
  152.8028  143.1614  159.5679 O   0  0  0  0  0  0  0  0  0  0  0  0
  152.8308  141.8808  158.9605 C   0  0  0  0  0  0  0  0  0  0  0  0
  151.3971  141.3227  158.8761 C   0  0  1  0  0  0  0  0  0  0  0  0
  150.7909  141.7661  157.6667 O   0  0  0  0  0  0  0  0  0  0  0  0
  151.1341  140.8984  156.6287 C   0  0  2  0  0  0  0  0  0  0  0  0
  149.9670  140.7971  155.6726 N   0  0  0  0  0  0  0  0  0  0  0  0
  148.7729  141.4460  155.9576 C   0  0  0  0  0  0  0  0  0  0  0  0
  147.6807  141.3674  155.1610 C   0  0  0  0  0  0  0  0  0  0  0  0
  146.5622  142.0297  155.5018 F   0  0  0  0  0  0  0  0  0  0  0  0
  147.7053  140.5671  153.9405 C   0  0  0  0  0  0  0  0  0  0  0  0
  146.7710  140.4406  153.1514 O   0  0  0  0  0  0  0  0  0  0  0  0
  148.9169  139.9106  153.7070 N   0  0  0  0  0  0  0  0  0  0  0  0
  150.0474  139.9774  154.5232 C   0  0  0  0  0  0  0  0  0  0  0  0
  151.0519  139.3336  154.2270 O   0  0  0  0  0  0  0  0  0  0  0  0
  151.5266  139.5432  157.2490 C   0  0  1  0  0  0  0  0  0  0  0  0
  152.8882  139.2704  156.9275 O   0  0  0  0  0  0  0  0  0  0  0  0
  153.2563  138.0548  156.4859 C   0  0  0  0  0  0  0  0  0  0  0  0
  154.6817  137.7009  156.8873 C   0  0  0  0  0  0  0  0  0  0  0  0
  152.5584  137.2751  155.8378 O   0  0  0  0  0  0  0  0  0  0  0  0
  151.3182  139.7956  158.7425 C   0  0  1  0  0  0  0  0  0  0  0  0
  152.2417  139.0840  159.5607 O   0  0  0  0  0  0  0  0  0  0  0  0
  152.2102  137.7419  159.6136 C   0  0  0  0  0  0  0  0  0  0  0  0
  153.2888  137.1732  160.5257 C   0  0  0  0  0  0  0  0  0  0  0  0
  151.4165  137.0114  159.0209 O   0  0  0  0  0  0  0  0  0  0  0  0
  148.9770  139.3331  152.8808 H   0  0  0  0  0  0  0  0  0  0  0  0
  152.4091  145.2294  160.8135 H   0  0  0  0  0  0  0  0  0  0  0  0
  150.8885  145.5244  159.9576 H   0  0  0  0  0  0  0  0  0  0  0  0
  152.3831  146.2860  159.3959 H   0  0  0  0  0  0  0  0  0  0  0  0
  153.2941  141.9356  157.9748 H   0  0  0  0  0  0  0  0  0  0  0  0
  153.4502  141.2255  159.5740 H   0  0  0  0  0  0  0  0  0  0  0  0
  150.8195  141.6592  159.7378 H   0  0  0  0  0  0  0  0  0  0  0  0
  151.9511  141.3460  156.0602 H   0  0  0  0  0  0  0  0  0  0  0  0
  148.6970  142.0494  156.8509 H   0  0  0  0  0  0  0  0  0  0  0  0
  150.8664  138.7559  156.8833 H   0  0  0  0  0  0  0  0  0  0  0  0
  155.3645  138.5062  156.6156 H   0  0  0  0  0  0  0  0  0  0  0  0
  155.0063  136.7891  156.3852 H   0  0  0  0  0  0  0  0  0  0  0  0
  154.7422  137.5423  157.9642 H   0  0  0  0  0  0  0  0  0  0  0  0
  150.3031  139.4818  158.9879 H   0  0  0  0  0  0  0  0  0  0  0  0
  154.2344  137.6922  160.3671 H   0  0  0  0  0  0  0  0  0  0  0  0
  153.4390  136.1120  160.3256 H   0  0  0  0  0  0  0  0  0  0  0  0
  152.9991  137.2914  161.5699 H   0  0  0  0  0  0  0  0  0  0  0  0
  1  2  1  0  0  0  0
  1 29  1  0  0  0  0
  1 30  1  0  0  0  0
  1 31  1  0  0  0  0
  2  3  2  0  0  0  0
  2  4  1  0  0  0  0
  4  5  1  0  0  0  0
  5  6  1  0  0  0  0
  5 32  1  0  0  0  0
  5 33  1  0  0  0  0
  6 23  1  0  0  0  0
  6  7  1  0  0  0  0
  6 34  1  0  0  0  0
  7  8  1  0  0  0  0
  8  9  1  0  0  0  0
  8 18  1  0  0  0  0
  8 35  1  0  0  0  0
  9 16  1  0  0  0  0
  9 10  1  0  0  0  0
 10 11  2  0  0  0  0
 10 36  1  0  0  0  0
 11 12  1  0  0  0  0
 11 13  1  0  0  0  0
 13 14  2  0  0  0  0
 13 15  1  0  0  0  0
 15 28  1  0  0  0  0
 15 16  1  0  0  0  0
 16 17  2  0  0  0  0
 18 19  1  0  0  0  0
 18 23  1  0  0  0  0
 18 37  1  0  0  0  0
 19 20  1  0  0  0  0
 20 21  1  0  0  0  0
 20 22  2  0  0  0  0
 21 38  1  0  0  0  0
 21 39  1  0  0  0  0
 21 40  1  0  0  0  0
 23 24  1  0  0  0  0
 23 41  1  0  0  0  0
 24 25  1  0  0  0  0
 25 26  1  0  0  0  0
 25 27  2  0  0  0  0
 26 42  1  0  0  0  0
 26 43  1  0  0  0  0
 26 44  1  0  0  0  0
M  END
> <s_m_source_file>
AV-unprocessed.smi

> <i_m_source_file_index>
102

> <i_lp_mmshare_version>
43012

> <i_f3d_flags>
0

> <s_epik_input>
W0NIM11DKD1PKU9bQ0gyXVtDQEBIXTFPW0NASF0oW0NAQEhdKE9DKD1PKVtDSDNdKVtDQEhdMU9DKD1PKVtDSDNdKW4yW2NIXWMoRiljKD1PKVtuSF1jMj1P

> <s_epik_cmdline>
J2VwaWtfcHl0aG9uJywgJy1waCcsICc3LjAnLCAnLXRuJywgJzgnLCAnLW1hJywgJzIwMCcsICctbWV0YWxfYmluZGluZycsICctaW1hZScsICc8aW5maWxlLm1hZT4nLCAnLW9tYWUnLCAnPG91dGZpbGUubWFlPic=

> <r_lp_tautomer_probability>
0.999537

> <r_epik_Ionization_Penalty>
0.058267

> <r_epik_Ionization_Penalty_Charging>
0.058267

> <r_epik_Ionization_Penalty_Neutral>
6.57791e-16

> <r_epik_State_Penalty>
0.0503774

> <r_epik_Charging_Adjusted_Penalty>
0.108644

> <i_epik_Tot_Q>
0

> <i_epik_Tot_abs_Q>
0

> <r_epik_Metal_State_Penalty>
2.6644

> <b_epik_Metal_Only>
0

> <s_epik_Chemistry_Notes>
This compound has an ester and may undergo hydrolysis at high or low pH. This compound contains an acetal/aminal-like group ( X-CH(R)-Y where X, Y are N, S, or O) that may be acid/base labile, releasing an aldehyde.

> <s_lp_Force_Field>
OPLS_2005

> <r_lp_Energy>
11.7279

> <b_lp_Chiralities_Consistent>
1

> <s_lp_Variant>
AV-unprocessed.smi:102-4

> <Gold.Version>
5.8.1

> <Gold.Id.Protein>
6NUR|6NUR_protein|mol2

> <Gold.PLP.Fitness>
44.7017

> <Gold.PLP.PLP>
-40.5459

> <Gold.PLP.part.hbond>
-5.0000

> <Gold.PLP.part.metal>
0.0000

> <Gold.PLP.part.buried>
-4.5914

> <Gold.PLP.part.nonpolar>
-33.0591

> <Gold.PLP.part.repulsive>
0.6626

> <Gold.PLP.ligand.clash>
0.0000

> <Gold.PLP.ligand.torsion>
1.5671

> <Gold.PLP.Chemscore.Hbond>
2.3534

> <Gold.PLP.Chemscore.CHOScore>
0.0211

> <Gold.PLP.Chemscore.Metal>
0.0000

> <Gold.Chemscore.Hbonds>
donor molecule, donor type, donor heavy atom, donor atom, acceptor molecule, acceptor atom, score
      L1  H    15    28       P1  7957  0.45
      P1  H  6896  6909       L1    27  0.85
      P1  H  7989  7998       L1    17  0.30
      P1  H 10752 10765       L1    22  0.72
      L1  C    10    36       P1  8028  0.01

> <Gold.PLP.Chemscore.Internal.Correction>
0.1666

> <Gold.Rescore>
     Score         DG    S(hbond)    S(metal)    S(lipo)     H(rot)  DE(clash)    DE(int)     intcor
      3.20      -8.90       2.02        0.00      60.07       4.05       2.63       3.06       ----

> <Gold.Chemscore.Fitness>
3.2044

> <Gold.Chemscore.DG>
-8.8963

> <Gold.Chemscore.ZeroCoef>
-5.4800

> <Gold.Chemscore.Hbond>
2.0245

> <Gold.Chemscore.Metal>
0.0000

> <Gold.Chemscore.Lipo>
60.0655

> <Gold.Chemscore.Internal_Hbond>
0.0000

> <Gold.Chemscore.DEClash>
2.6307

> <Gold.Chemscore.DEInternal>
3.0612

> <Gold.Chemscore.Rot>
4.0520

> <Gold.Chemscore.Internal.Correction>
   9.000000E+99

> <Gold.Chemscore.Hbonds>
donor molecule, donor type, donor heavy atom, donor atom, acceptor molecule, acceptor atom, score
      L1  H    15    28       P1  7957  0.45
      P1  H  6896  6909       L1    27  0.67
      P1  H 10752 10765       L1    22  0.67

> <Gold.Chemscore.Hbond.Weighted>
-6.7618

> <Gold.Chemscore.Metal.Weighted>
-0.0000

> <Gold.Chemscore.Lipo.Weighted>
-7.0277

> <Gold.Chemscore.Internal_Hbond.Weighted>
0.0000

> <Gold.Chemscore.DEClash.Weighted>
2.6307

> <Gold.Chemscore.DEInternal.Weighted>
3.0612

> <Gold.Chemscore.Rot.Weighted>
10.3732

> <Gold.Chemscore.Internal.Correction.Weighted>
   9.000000E+99

> <Gold.Protein.RotatedTorsions>
[ 6907 6896 6895 6894 ] final   98.50 input  -60.11 | X-H torsion
[ 7974 7965 7964 7962 ] final -136.96 input  175.53 | X-H torsion
[ 8008 7997 7996 7995 ] final   -2.69 input   59.86 | X-H torsion
[ 10167 10162 10161 10158 ] final  172.45 input  -65.29 | X-H torsion
[ 10718 10713 10712 10709 ] final   98.70 input   66.30 | X-H torsion
[ 10763 10752 10751 10750 ] final -152.18 input  -60.55 | X-H torsion
[ 11005 11000 10999 10996 ] final   35.01 input  -57.11 | X-H torsion

> <Gold.Protein.ActiveResidues>
 VAL166  LYS551  ARG553  GLY616  TRP617  ASP618  TYR619  PRO620  LYS621  CYS622 
 ASP623  PHE694  ASN695  SER759  ASP760  ASP761  ALA762  ILE779  LEU786  VAL792 
 PHE793  MET794  SER795  GLU796  ALA797  LYS798  CYS799  TRP800  GLU811  SER814 

> <Gold.Protein.RotatedAtoms>
  152.5408  134.0571  159.8135 H   0  0  0  0  0  0  0  0  0  0  0  0  # atno 6907 bound_to 6896
  151.0704  133.5463  159.2635 H   0  0  0  0  0  0  0  0  0  0  0  0  # atno 6908 bound_to 6896
  151.2329  135.0569  159.9048 H   0  0  0  0  0  0  0  0  0  0  0  0  # atno 6909 bound_to 6896
  144.8882  140.6605  143.5162 H   0  0  0  0  0  0  0  0  0  0  0  0  # atno 7974 bound_to 7965
  154.6329  140.2528  155.7412 H   0  0  0  0  0  0  0  0  0  0  0  0  # atno 8008 bound_to 7997
  156.2489  140.2903  156.0609 H   0  0  0  0  0  0  0  0  0  0  0  0  # atno 8009 bound_to 7997
  155.1716  140.0386  157.2854 H   0  0  0  0  0  0  0  0  0  0  0  0  # atno 8010 bound_to 7997
  139.5077  144.3372  152.0054 H   0  0  0  0  0  0  0  0  0  0  0  0  # atno 10167 bound_to 10162
  157.6890  131.0648  150.4836 H   0  0  0  0  0  0  0  0  0  0  0  0  # atno 10718 bound_to 10713
  154.8010  135.3242  154.7549 H   0  0  0  0  0  0  0  0  0  0  0  0  # atno 10763 bound_to 10752
  153.8217  135.6887  153.4830 H   0  0  0  0  0  0  0  0  0  0  0  0  # atno 10764 bound_to 10752
  153.1727  135.4617  154.9867 H   0  0  0  0  0  0  0  0  0  0  0  0  # atno 10765 bound_to 10752
  140.2470  134.3348  155.7904 H   0  0  0  0  0  0  0  0  0  0  0  0  # atno 11005 bound_to 11000
  145.3830  139.1633  143.4270 LP  0  0  0  0  0  0  0  0  0  0  0  0  # atno 17320 bound_to 7965
  146.3038  140.3912  142.8694 LP  0  0  0  0  0  0  0  0  0  0  0  0  # atno 17321 bound_to 7965
  140.2810  144.3859  150.6119 LP  0  0  0  0  0  0  0  0  0  0  0  0  # atno 17342 bound_to 10162
  140.6018  143.2167  151.7058 LP  0  0  0  0  0  0  0  0  0  0  0  0  # atno 17343 bound_to 10162
  156.5166  130.4152  149.6272 LP  0  0  0  0  0  0  0  0  0  0  0  0  # atno 17370 bound_to 10713
  156.3192  130.7271  151.2180 LP  0  0  0  0  0  0  0  0  0  0  0  0  # atno 17371 bound_to 10713
  141.2205  133.7331  156.8976 LP  0  0  0  0  0  0  0  0  0  0  0  0  # atno 17394 bound_to 11000
  140.1596  134.9175  157.2697 LP  0  0  0  0  0  0  0  0  0  0  0  0  # atno 17395 bound_to 11000

$$$$
