AV-unprocessed.smi:20|AV-procd|sdf|114|dock1
  -GOLD-   2262015283D 1   1.00000     0.00000
 Structure written by MMmdl.
 57 61  0  0  0  0  0  0  0  0  1 V2000
  147.7646  131.7514  153.2545 O   0  0  0  0  0  0  0  0  0  0  0  0
  146.9653  132.2447  152.4625 C   0  0  0  0  0  0  0  0  0  0  0  0
  145.6838  132.9452  152.8812 C   0  0  0  0  0  0  0  0  0  0  0  0
  145.2612  133.7046  151.6015 C   0  0  1  0  0  0  0  0  0  0  0  0
  143.7293  133.7565  151.3985 C   0  0  0  0  0  0  0  0  0  0  0  0
  143.0530  134.6693  152.4352 C   0  0  0  0  0  0  0  0  0  0  0  0
  143.6794  136.0721  152.4301 C   0  0  0  0  0  0  0  0  0  0  0  0
  145.1294  135.9846  152.5952 N   0  0  0  0  0  0  0  0  0  0  0  0
  145.8024  137.0941  152.9900 C   0  0  0  0  0  0  0  0  0  0  0  0
  146.1609  138.0322  152.0730 N   0  0  0  0  0  0  0  0  0  0  0  0
  146.8347  139.1226  152.4514 C   0  0  0  0  0  0  0  0  0  0  0  0
  147.2441  139.4688  153.6734 N   0  0  0  0  0  0  0  0  0  0  0  0
  146.8791  138.5359  154.5983 C   0  0  0  0  0  0  0  0  0  0  0  0
  146.1620  137.3327  154.3466 C   0  0  0  0  0  0  0  0  0  0  0  0
  145.9615  136.6444  155.5381 N   0  0  0  0  0  0  0  0  0  0  0  0
  146.5378  137.3914  156.4398 C   0  0  0  0  0  0  0  0  0  0  0  0
  147.1208  138.5423  155.9599 N   0  0  0  0  0  0  0  0  0  0  0  0
  147.8317  139.5475  156.7292 C   0  0  0  0  0  0  0  0  0  0  0  0
  148.6932  140.4873  155.8494 C   0  0  2  0  0  0  0  0  0  0  0  0
  149.6754  139.7140  154.9359 C   0  0  0  0  0  0  0  0  0  0  0  0
  150.0801  140.4972  153.8315 O   0  0  0  0  0  0  0  0  0  0  0  0
  149.4052  141.5720  156.6964 C   0  0  2  0  0  0  0  0  0  0  0  0
  150.6127  141.0792  157.4749 C   0  0  0  0  0  0  0  0  0  0  0  0
  150.7884  142.1718  158.5232 C   0  0  0  0  0  0  0  0  0  0  0  0
  149.4760  142.6388  158.8124 O   0  0  0  0  0  0  0  0  0  0  0  0
  148.5601  142.1536  157.8353 C   0  0  0  0  0  0  0  0  0  0  0  0
  145.8195  135.1503  151.6115 C   0  0  0  0  0  0  0  0  0  0  0  0
  145.9560  132.8947  150.4826 C   0  0  0  0  0  0  0  0  0  0  0  0
  147.0792  132.2501  151.1361 N   0  0  0  0  0  0  0  0  0  0  0  0
  144.9513  132.1881  153.1635 H   0  0  0  0  0  0  0  0  0  0  0  0
  145.8465  133.5985  153.7390 H   0  0  0  0  0  0  0  0  0  0  0  0
  143.5086  134.1312  150.3980 H   0  0  0  0  0  0  0  0  0  0  0  0
  143.3018  132.7546  151.4503 H   0  0  0  0  0  0  0  0  0  0  0  0
  141.9841  134.7384  152.2320 H   0  0  0  0  0  0  0  0  0  0  0  0
  143.1498  134.2309  153.4292 H   0  0  0  0  0  0  0  0  0  0  0  0
  143.4551  136.5791  151.4909 H   0  0  0  0  0  0  0  0  0  0  0  0
  143.2413  136.6672  153.2326 H   0  0  0  0  0  0  0  0  0  0  0  0
  147.0825  139.8162  151.6616 H   0  0  0  0  0  0  0  0  0  0  0  0
  146.5602  137.1185  157.4850 H   0  0  0  0  0  0  0  0  0  0  0  0
  147.0901  140.1162  157.2903 H   0  0  0  0  0  0  0  0  0  0  0  0
  148.4557  139.0418  157.4672 H   0  0  0  0  0  0  0  0  0  0  0  0
  148.0064  141.0085  155.1808 H   0  0  0  0  0  0  0  0  0  0  0  0
  150.5626  139.4046  155.4886 H   0  0  0  0  0  0  0  0  0  0  0  0
  149.2213  138.7954  154.5652 H   0  0  0  0  0  0  0  0  0  0  0  0
  149.7744  140.0809  153.0401 H   0  0  0  0  0  0  0  0  0  0  0  0
  149.7261  142.3903  156.0495 H   0  0  0  0  0  0  0  0  0  0  0  0
  150.3921  140.1275  157.9606 H   0  0  0  0  0  0  0  0  0  0  0  0
  151.5021  140.9496  156.8575 H   0  0  0  0  0  0  0  0  0  0  0  0
  151.2922  141.8127  159.4206 H   0  0  0  0  0  0  0  0  0  0  0  0
  151.3696  142.9999  158.1157 H   0  0  0  0  0  0  0  0  0  0  0  0
  147.8952  142.9481  157.4959 H   0  0  0  0  0  0  0  0  0  0  0  0
  147.9486  141.3784  158.2991 H   0  0  0  0  0  0  0  0  0  0  0  0
  146.8955  135.1335  151.7816 H   0  0  0  0  0  0  0  0  0  0  0  0
  145.6779  135.6072  150.6310 H   0  0  0  0  0  0  0  0  0  0  0  0
  145.3006  132.1193  150.0829 H   0  0  0  0  0  0  0  0  0  0  0  0
  146.2848  133.5158  149.6487 H   0  0  0  0  0  0  0  0  0  0  0  0
  147.8505  131.8420  150.6278 H   0  0  0  0  0  0  0  0  0  0  0  0
  1  2  2  0  0  0  0
  2 29  1  0  0  0  0
  2  3  1  0  0  0  0
  3  4  1  0  0  0  0
  3 30  1  0  0  0  0
  3 31  1  0  0  0  0
  4 27  1  0  0  0  0
  4  5  1  0  0  0  0
  4 28  1  0  0  0  0
  5  6  1  0  0  0  0
  5 32  1  0  0  0  0
  5 33  1  0  0  0  0
  6  7  1  0  0  0  0
  6 34  1  0  0  0  0
  6 35  1  0  0  0  0
  7  8  1  0  0  0  0
  7 36  1  0  0  0  0
  7 37  1  0  0  0  0
  8  9  1  0  0  0  0
  8 27  1  0  0  0  0
  9 14  1  0  0  0  0
  9 10  2  0  0  0  0
 10 11  1  0  0  0  0
 11 12  2  0  0  0  0
 11 38  1  0  0  0  0
 12 13  1  0  0  0  0
 13 17  1  0  0  0  0
 13 14  2  0  0  0  0
 14 15  1  0  0  0  0
 15 16  2  0  0  0  0
 16 17  1  0  0  0  0
 16 39  1  0  0  0  0
 17 18  1  0  0  0  0
 18 19  1  0  0  0  0
 18 40  1  0  0  0  0
 18 41  1  0  0  0  0
 19 20  1  0  0  0  0
 19 22  1  0  0  0  0
 19 42  1  0  0  0  0
 20 21  1  0  0  0  0
 20 43  1  0  0  0  0
 20 44  1  0  0  0  0
 21 45  1  0  0  0  0
 22 26  1  0  0  0  0
 22 23  1  0  0  0  0
 22 46  1  0  0  0  0
 23 24  1  0  0  0  0
 23 47  1  0  0  0  0
 23 48  1  0  0  0  0
 24 25  1  0  0  0  0
 24 49  1  0  0  0  0
 24 50  1  0  0  0  0
 25 26  1  0  0  0  0
 26 51  1  0  0  0  0
 26 52  1  0  0  0  0
 27 53  1  0  0  0  0
 27 54  1  0  0  0  0
 28 29  1  0  0  0  0
 28 55  1  0  0  0  0
 28 56  1  0  0  0  0
 29 57  1  0  0  0  0
M  END
> <s_m_source_file>
AV-unprocessed.smi

> <i_m_source_file_index>
20

> <i_lp_mmshare_version>
43012

> <i_f3d_flags>
0

> <s_epik_input>
W0NIMl0xW05IXUMoPU8pW0NIMl1bQ0BAXTEyW0NIMl1bQ0gyXVtDSDJdTihbQ0gyXTIpYyhuW2NIXW4zKWMoYzM0KW5bY0hdbjRbQ0gyXVtDQEhdKFtDSDJdW09IXSlbQ0BASF01W0NIMl1bQ0gyXU9bQ0gyXTU=

> <s_epik_cmdline>
J2VwaWtfcHl0aG9uJywgJy1waCcsICc3LjAnLCAnLXRuJywgJzgnLCAnLW1hJywgJzIwMCcsICctbWV0YWxfYmluZGluZycsICctaW1hZScsICc8aW5maWxlLm1hZT4nLCAnLW9tYWUnLCAnPG91dGZpbGUubWFlPic=

> <r_lp_tautomer_probability>
1

> <r_epik_Ionization_Penalty>
0.0019697

> <r_epik_Ionization_Penalty_Charging>
0

> <r_epik_Ionization_Penalty_Neutral>
0.0019697

> <r_epik_State_Penalty>
0.00113613

> <r_epik_Charging_Adjusted_Penalty>
0.00113613

> <i_epik_Tot_Q>
0

> <i_epik_Tot_abs_Q>
0

> <r_epik_Metal_State_Penalty>
-0

> <b_epik_Metal_Only>
0

> <s_lp_Force_Field>
OPLS_2005

> <r_lp_Energy>
58.2949

> <b_lp_Chiralities_Consistent>
1

> <s_lp_Variant>
AV-unprocessed.smi:20-2

> <Gold.Version>
5.8.1

> <Gold.Id.Protein>
6NUR|6NUR_protein|mol2

> <Gold.PLP.Fitness>
44.3685

> <Gold.PLP.PLP>
-35.4837

> <Gold.PLP.part.hbond>
-3.0301

> <Gold.PLP.part.metal>
0.0000

> <Gold.PLP.part.buried>
-7.5040

> <Gold.PLP.part.nonpolar>
-25.3274

> <Gold.PLP.part.repulsive>
0.9044

> <Gold.PLP.ligand.clash>
0.0000

> <Gold.PLP.ligand.torsion>
0.9355

> <Gold.PLP.Chemscore.Hbond>
2.6720

> <Gold.PLP.Chemscore.CHOScore>
0.7129

> <Gold.PLP.Chemscore.Metal>
0.0000

> <Gold.Chemscore.Hbonds>
donor molecule, donor type, donor heavy atom, donor atom, acceptor molecule, acceptor atom, score
      L1  H    21    45       P1  7957  1.00
      L1  H    29    57       P1 10747  1.00
      P1  H  7989  7998       L1    21  0.67
      L1  C    11    38       P1  7957  0.70

> <Gold.PLP.Chemscore.Internal.Correction>
0.6010

> <Gold.Rescore>
     Score         DG    S(hbond)    S(metal)    S(lipo)     H(rot)  DE(clash)    DE(int)     intcor
     11.11     -14.77       2.47        0.00      68.86       2.74       0.03       3.63       ----

> <Gold.Chemscore.Fitness>
11.1069

> <Gold.Chemscore.DG>
-14.7659

> <Gold.Chemscore.ZeroCoef>
-5.4800

> <Gold.Chemscore.Hbond>
2.4694

> <Gold.Chemscore.Metal>
0.0000

> <Gold.Chemscore.Lipo>
68.8582

> <Gold.Chemscore.Internal_Hbond>
0.0000

> <Gold.Chemscore.DEClash>
0.0284

> <Gold.Chemscore.DEInternal>
3.6306

> <Gold.Chemscore.Rot>
2.7415

> <Gold.Chemscore.Internal.Correction>
   9.000000E+99

> <Gold.Chemscore.Hbonds>
donor molecule, donor type, donor heavy atom, donor atom, acceptor molecule, acceptor atom, score
      L1  H    21    45       P1  7957  0.94
      L1  H    29    57       P1 10747  0.93
      P1  H  7989  7998       L1    21  0.27

> <Gold.Chemscore.Hbond.Weighted>
-8.2477

> <Gold.Chemscore.Metal.Weighted>
-0.0000

> <Gold.Chemscore.Lipo.Weighted>
-8.0564

> <Gold.Chemscore.Internal_Hbond.Weighted>
0.0000

> <Gold.Chemscore.DEClash.Weighted>
0.0284

> <Gold.Chemscore.DEInternal.Weighted>
3.6306

> <Gold.Chemscore.Rot.Weighted>
7.0182

> <Gold.Chemscore.Internal.Correction.Weighted>
   9.000000E+99

> <Gold.Protein.RotatedTorsions>
[ 6907 6896 6895 6894 ] final   76.25 input  -60.11 | X-H torsion
[ 7974 7965 7964 7962 ] final  -59.28 input  175.53 | X-H torsion
[ 8008 7997 7996 7995 ] final  149.22 input   59.86 | X-H torsion
[ 10167 10162 10161 10158 ] final -133.65 input  -65.29 | X-H torsion
[ 10718 10713 10712 10709 ] final  -19.45 input   66.30 | X-H torsion
[ 10763 10752 10751 10750 ] final -103.75 input  -60.55 | X-H torsion
[ 11005 11000 10999 10996 ] final -138.36 input  -57.11 | X-H torsion

> <Gold.Protein.ActiveResidues>
 VAL166  LYS551  ARG553  GLY616  TRP617  ASP618  TYR619  PRO620  LYS621  CYS622 
 ASP623  PHE694  ASN695  SER759  ASP760  ASP761  ALA762  ILE779  LEU786  VAL792 
 PHE793  MET794  SER795  GLU796  ALA797  LYS798  CYS799  TRP800  GLU811  SER814 

> <Gold.Protein.RotatedAtoms>
  152.5064  134.3997  159.9411 H   0  0  0  0  0  0  0  0  0  0  0  0  # atno 6907 bound_to 6896
  151.3960  133.3767  159.2734 H   0  0  0  0  0  0  0  0  0  0  0  0  # atno 6908 bound_to 6896
  150.9397  134.8828  159.7663 H   0  0  0  0  0  0  0  0  0  0  0  0  # atno 6909 bound_to 6896
  145.8293  140.8490  143.0092 H   0  0  0  0  0  0  0  0  0  0  0  0  # atno 7974 bound_to 7965
  156.2763  140.2108  156.5823 H   0  0  0  0  0  0  0  0  0  0  0  0  # atno 8008 bound_to 7997
  154.7049  140.0517  157.0517 H   0  0  0  0  0  0  0  0  0  0  0  0  # atno 8009 bound_to 7997
  155.0684  140.3174  155.4641 H   0  0  0  0  0  0  0  0  0  0  0  0  # atno 8010 bound_to 7997
  139.8961  143.6664  152.2603 H   0  0  0  0  0  0  0  0  0  0  0  0  # atno 10167 bound_to 10162
  156.5455  130.4689  149.6477 H   0  0  0  0  0  0  0  0  0  0  0  0  # atno 10718 bound_to 10713
  154.7829  135.4812  153.9884 H   0  0  0  0  0  0  0  0  0  0  0  0  # atno 10763 bound_to 10752
  153.1519  135.6793  153.8876 H   0  0  0  0  0  0  0  0  0  0  0  0  # atno 10764 bound_to 10752
  153.8518  135.3166  155.3411 H   0  0  0  0  0  0  0  0  0  0  0  0  # atno 10765 bound_to 10752
  140.8623  134.2153  157.4700 H   0  0  0  0  0  0  0  0  0  0  0  0  # atno 11005 bound_to 11000
  144.6741  140.0649  143.7475 LP  0  0  0  0  0  0  0  0  0  0  0  0  # atno 17320 bound_to 7965
  145.9588  139.2786  143.1168 LP  0  0  0  0  0  0  0  0  0  0  0  0  # atno 17321 bound_to 7965
  139.7066  144.7627  151.1182 LP  0  0  0  0  0  0  0  0  0  0  0  0  # atno 17342 bound_to 10162
  140.7716  143.5386  150.9339 LP  0  0  0  0  0  0  0  0  0  0  0  0  # atno 17343 bound_to 10162
  156.2932  130.7136  151.1990 LP  0  0  0  0  0  0  0  0  0  0  0  0  # atno 17370 bound_to 10713
  157.7397  131.0525  150.5212 LP  0  0  0  0  0  0  0  0  0  0  0  0  # atno 17371 bound_to 10713
  139.8707  134.9735  156.4813 LP  0  0  0  0  0  0  0  0  0  0  0  0  # atno 17394 bound_to 11000
  140.8668  133.8018  155.9323 LP  0  0  0  0  0  0  0  0  0  0  0  0  # atno 17395 bound_to 11000

$$$$
