AV-unprocessed.smi:2710|AV-procd|sdf|10471|dock6
  -GOLD-   2272014513D 1   1.00000     0.00000
 Structure written by MMmdl.
 53 54  0  0  0  0  0  0  0  0  2 V2000
  145.4657  134.2694  151.2279 C   0  0  0  0  0  0  0  0  0  0  0  0
  145.0241  135.7419  151.1989 C   0  0  0  0  0  0  0  0  0  0  0  0
  146.0286  136.6765  151.7855 N   0  3  1  0  0  0  0  0  0  0  0  0
  145.9559  138.0300  151.1628 C   0  0  0  0  0  0  0  0  0  0  0  0
  147.0653  138.9622  151.6698 C   0  0  0  0  0  0  0  0  0  0  0  0
  147.0095  139.0979  153.1938 C   0  0  2  0  0  0  0  0  0  0  0  0
  148.1044  139.9457  153.6574 N   0  0  0  0  0  0  0  0  0  0  0  0
  148.3148  140.3081  154.9310 C   0  0  0  0  0  0  0  0  0  0  0  0
  147.6064  139.9362  155.8654 O   0  0  0  0  0  0  0  0  0  0  0  0
  149.3926  141.1035  155.0365 N   0  0  0  0  0  0  0  0  0  0  0  0
  149.9401  141.7110  156.1989 C   0  0  0  0  0  0  0  0  0  0  0  0
  149.6145  141.3736  157.5346 C   0  0  0  0  0  0  0  0  0  0  0  0
  150.1718  142.0160  158.5831 N   0  0  0  0  0  0  0  0  0  0  0  0
  151.0736  142.9719  158.3249 C   0  0  0  0  0  0  0  0  0  0  0  0
  151.5875  143.7942  159.5197 C   0  0  0  0  0  0  0  0  0  0  0  0
  150.4160  144.4382  160.2981 C   0  0  0  0  0  0  0  0  0  0  0  0
  152.4809  144.9649  159.0460 C   0  0  0  0  0  0  0  0  0  0  0  0
  152.3917  142.8807  160.4627 C   0  0  0  0  0  0  0  0  0  0  0  0
  151.4124  143.3975  157.1008 N   0  0  0  0  0  0  0  0  0  0  0  0
  150.8628  142.7646  156.0433 C   0  0  0  0  0  0  0  0  0  0  0  0
  147.0884  137.6954  153.8158 C   0  0  0  0  0  0  0  0  0  0  0  0
  145.9811  136.7598  153.2824 C   0  0  2  0  0  0  0  0  0  0  0  0
  146.1190  135.3888  153.9767 C   0  0  0  0  0  0  0  0  0  0  0  0
  144.6371  133.6193  150.9456 H   0  0  0  0  0  0  0  0  0  0  0  0
  145.7893  133.9726  152.2260 H   0  0  0  0  0  0  0  0  0  0  0  0
  146.2764  134.0635  150.5299 H   0  0  0  0  0  0  0  0  0  0  0  0
  144.7811  136.0471  150.1801 H   0  0  0  0  0  0  0  0  0  0  0  0
  144.0957  135.7804  151.7637 H   0  0  0  0  0  0  0  0  0  0  0  0
  146.0542  137.9630  150.0808 H   0  0  0  0  0  0  0  0  0  0  0  0
  144.9775  138.4699  151.3633 H   0  0  0  0  0  0  0  0  0  0  0  0
  148.0373  138.5731  151.3624 H   0  0  0  0  0  0  0  0  0  0  0  0
  146.9621  139.9428  151.2031 H   0  0  0  0  0  0  0  0  0  0  0  0
  146.0602  139.5625  153.4685 H   0  0  0  0  0  0  0  0  0  0  0  0
  148.7402  140.2945  152.9550 H   0  0  0  0  0  0  0  0  0  0  0  0
  149.9027  141.2743  154.1820 H   0  0  0  0  0  0  0  0  0  0  0  0
  148.8959  140.6115  157.7907 H   0  0  0  0  0  0  0  0  0  0  0  0
  150.7782  145.0611  161.1168 H   0  0  0  0  0  0  0  0  0  0  0  0
  149.7584  143.6894  160.7411 H   0  0  0  0  0  0  0  0  0  0  0  0
  149.8082  145.0704  159.6497 H   0  0  0  0  0  0  0  0  0  0  0  0
  151.9463  145.6189  158.3560 H   0  0  0  0  0  0  0  0  0  0  0  0
  153.3807  144.6139  158.5394 H   0  0  0  0  0  0  0  0  0  0  0  0
  152.8125  145.5764  159.8859 H   0  0  0  0  0  0  0  0  0  0  0  0
  152.7722  143.4321  161.3231 H   0  0  0  0  0  0  0  0  0  0  0  0
  153.2471  142.4383  159.9506 H   0  0  0  0  0  0  0  0  0  0  0  0
  151.7770  142.0631  160.8413 H   0  0  0  0  0  0  0  0  0  0  0  0
  151.1604  143.1089  155.0637 H   0  0  0  0  0  0  0  0  0  0  0  0
  148.0669  137.2573  153.6116 H   0  0  0  0  0  0  0  0  0  0  0  0
  147.0091  137.7730  154.9010 H   0  0  0  0  0  0  0  0  0  0  0  0
  145.0150  137.1824  153.5637 H   0  0  0  0  0  0  0  0  0  0  0  0
  146.2410  135.5092  155.0537 H   0  0  0  0  0  0  0  0  0  0  0  0
  146.9861  134.8394  153.6084 H   0  0  0  0  0  0  0  0  0  0  0  0
  145.2354  134.7653  153.8451 H   0  0  0  0  0  0  0  0  0  0  0  0
  146.9360  136.2983  151.5533 H   0  0  0  0  0  0  0  0  0  0  0  0
  1  2  1  0  0  0  0
  1 24  1  0  0  0  0
  1 25  1  0  0  0  0
  1 26  1  0  0  0  0
  2  3  1  0  0  0  0
  2 27  1  0  0  0  0
  2 28  1  0  0  0  0
  3 22  1  0  0  0  0
  3  4  1  0  0  0  0
  3 53  1  0  0  0  0
  4  5  1  0  0  0  0
  4 29  1  0  0  0  0
  4 30  1  0  0  0  0
  5  6  1  0  0  0  0
  5 31  1  0  0  0  0
  5 32  1  0  0  0  0
  6  7  1  0  0  0  0
  6 21  1  0  0  0  0
  6 33  1  0  0  0  0
  7  8  1  0  0  0  0
  7 34  1  0  0  0  0
  8  9  2  0  0  0  0
  8 10  1  0  0  0  0
 10 11  1  0  0  0  0
 10 35  1  0  0  0  0
 11 20  1  0  0  0  0
 11 12  2  0  0  0  0
 12 13  1  0  0  0  0
 12 36  1  0  0  0  0
 13 14  2  0  0  0  0
 14 15  1  0  0  0  0
 14 19  1  0  0  0  0
 15 16  1  0  0  0  0
 15 17  1  0  0  0  0
 15 18  1  0  0  0  0
 16 37  1  0  0  0  0
 16 38  1  0  0  0  0
 16 39  1  0  0  0  0
 17 40  1  0  0  0  0
 17 41  1  0  0  0  0
 17 42  1  0  0  0  0
 18 43  1  0  0  0  0
 18 44  1  0  0  0  0
 18 45  1  0  0  0  0
 19 20  2  0  0  0  0
 20 46  1  0  0  0  0
 21 22  1  0  0  0  0
 21 47  1  0  0  0  0
 21 48  1  0  0  0  0
 22 23  1  0  0  0  0
 22 49  1  0  0  0  0
 23 50  1  0  0  0  0
 23 51  1  0  0  0  0
 23 52  1  0  0  0  0
M  CHG  1   3   1
M  END
> <s_m_source_file>
AV-unprocessed.smi

> <i_m_source_file_index>
2710

> <i_lp_mmshare_version>
43012

> <i_f3d_flags>
0

> <s_epik_input>
W0NIM11bQ0gyXU4xW0NIMl1bQ0gyXVtDQEhdKFtDSDJdW0NASF0xW0NIM10pW05IXUMoPU8pW05IXWMyW2NIXW5jKEMoW0NIM10pKFtDSDNdKVtDSDNdKW5bY0hdMg==

> <s_epik_cmdline>
J2VwaWtfcHl0aG9uJywgJy1waCcsICc3LjAnLCAnLXRuJywgJzgnLCAnLW1hJywgJzIwMCcsICctbWV0YWxfYmluZGluZycsICctaW1hZScsICc8aW5maWxlLm1hZT4nLCAnLW9tYWUnLCAnPG91dGZpbGUubWFlPic=

> <r_lp_tautomer_probability>
1

> <r_epik_Ionization_Penalty>
0.00396003

> <r_epik_Ionization_Penalty_Charging>
0.0039379

> <r_epik_Ionization_Penalty_Neutral>
2.21316e-05

> <r_epik_State_Penalty>
0.00281651

> <r_epik_Charging_Adjusted_Penalty>
0.00675441

> <i_epik_Tot_Q>
1

> <i_epik_Tot_abs_Q>
1

> <r_epik_Metal_State_Penalty>
-0

> <b_epik_Metal_Only>
0

> <s_lp_Force_Field>
OPLS_2005

> <r_lp_Energy>
20.1014

> <b_lp_Chiralities_Consistent>
1

> <s_lp_Variant>
AV-unprocessed.smi:2710-8

> <Gold.Version>
5.8.1

> <Gold.Id.Protein>
6NUR|6NUR_protein|mol2

> <Gold.PLP.Fitness>
40.0123

> <Gold.PLP.PLP>
-31.7559

> <Gold.PLP.part.hbond>
-2.0000

> <Gold.PLP.part.metal>
0.0000

> <Gold.PLP.part.buried>
5.0727

> <Gold.PLP.part.nonpolar>
-35.1416

> <Gold.PLP.part.repulsive>
0.4496

> <Gold.PLP.ligand.clash>
0.0000

> <Gold.PLP.ligand.torsion>
0.4191

> <Gold.PLP.Chemscore.Hbond>
2.9760

> <Gold.PLP.Chemscore.CHOScore>
0.0000

> <Gold.PLP.Chemscore.Metal>
0.0000

> <Gold.Chemscore.Hbonds>
donor molecule, donor type, donor heavy atom, donor atom, acceptor molecule, acceptor atom, score
      L1  H     3    53       P1  7948  2.00
      L1  H     7    34       P1  7957  0.96

> <Gold.PLP.Chemscore.Internal.Correction>
0.1667

> <Gold.Rescore>
     Score         DG    S(hbond)    S(metal)    S(lipo)     H(rot)  DE(clash)    DE(int)     intcor
     15.01     -21.59       1.84        0.00     113.90       1.31       4.81       1.77       ----

> <Gold.Chemscore.Fitness>
15.0083

> <Gold.Chemscore.DG>
-21.5894

> <Gold.Chemscore.ZeroCoef>
-5.4800

> <Gold.Chemscore.Hbond>
1.8358

> <Gold.Chemscore.Metal>
0.0000

> <Gold.Chemscore.Lipo>
113.9016

> <Gold.Chemscore.Internal_Hbond>
0.0000

> <Gold.Chemscore.DEClash>
4.8133

> <Gold.Chemscore.DEInternal>
1.7678

> <Gold.Chemscore.Rot>
1.3081

> <Gold.Chemscore.Internal.Correction>
   9.000000E+99

> <Gold.Chemscore.Hbonds>
donor molecule, donor type, donor heavy atom, donor atom, acceptor molecule, acceptor atom, score
      L1  H     3    53       P1  7948  0.91
      L1  H     7    34       P1  7957  0.88

> <Gold.Chemscore.Hbond.Weighted>
-6.1317

> <Gold.Chemscore.Metal.Weighted>
-0.0000

> <Gold.Chemscore.Lipo.Weighted>
-13.3265

> <Gold.Chemscore.Internal_Hbond.Weighted>
0.0000

> <Gold.Chemscore.DEClash.Weighted>
4.8133

> <Gold.Chemscore.DEInternal.Weighted>
1.7678

> <Gold.Chemscore.Rot.Weighted>
3.3488

> <Gold.Chemscore.Internal.Correction.Weighted>
   9.000000E+99

> <Gold.Protein.RotatedTorsions>
[ 6907 6896 6895 6894 ] final   15.65 input  -60.11 | X-H torsion
[ 7974 7965 7964 7962 ] final   32.15 input  175.53 | X-H torsion
[ 8008 7997 7996 7995 ] final    8.21 input   59.86 | X-H torsion
[ 10167 10162 10161 10158 ] final  -53.73 input  -65.29 | X-H torsion
[ 10718 10713 10712 10709 ] final  -36.27 input   66.30 | X-H torsion
[ 10763 10752 10751 10750 ] final  158.71 input  -60.55 | X-H torsion
[ 11005 11000 10999 10996 ] final  -52.70 input  -57.11 | X-H torsion

> <Gold.Protein.ActiveResidues>
 VAL166  LYS551  ARG553  GLY616  TRP617  ASP618  TYR619  PRO620  LYS621  CYS622 
 ASP623  PHE694  ASN695  SER759  ASP760  ASP761  ALA762  ILE779  LEU786  VAL792 
 PHE793  MET794  SER795  GLU796  ALA797  LYS798  CYS799  TRP800  GLU811  SER814 

> <Gold.Protein.RotatedAtoms>
  151.8214  135.0650  160.0425 H   0  0  0  0  0  0  0  0  0  0  0  0  # atno 6907 bound_to 6896
  152.2948  133.5592  159.5589 H   0  0  0  0  0  0  0  0  0  0  0  0  # atno 6908 bound_to 6896
  150.7246  134.0293  159.3770 H   0  0  0  0  0  0  0  0  0  0  0  0  # atno 6909 bound_to 6896
  146.1505  139.6564  142.9102 H   0  0  0  0  0  0  0  0  0  0  0  0  # atno 7974 bound_to 7965
  154.7638  140.2789  155.6192 H   0  0  0  0  0  0  0  0  0  0  0  0  # atno 8008 bound_to 7997
  156.2921  140.2654  156.2351 H   0  0  0  0  0  0  0  0  0  0  0  0  # atno 8009 bound_to 7997
  154.9984  140.0373  157.2339 H   0  0  0  0  0  0  0  0  0  0  0  0  # atno 8010 bound_to 7997
  140.6469  143.2541  151.4834 H   0  0  0  0  0  0  0  0  0  0  0  0  # atno 10167 bound_to 10162
  156.3288  130.4276  149.7892 H   0  0  0  0  0  0  0  0  0  0  0  0  # atno 10718 bound_to 10713
  154.2204  135.2782  155.2927 H   0  0  0  0  0  0  0  0  0  0  0  0  # atno 10763 bound_to 10752
  154.5706  135.5619  153.7095 H   0  0  0  0  0  0  0  0  0  0  0  0  # atno 10764 bound_to 10752
  153.0043  135.6320  154.2344 H   0  0  0  0  0  0  0  0  0  0  0  0  # atno 10765 bound_to 10752
  141.0938  133.6628  156.4063 H   0  0  0  0  0  0  0  0  0  0  0  0  # atno 11005 bound_to 11000
  145.4835  141.0438  143.2633 LP  0  0  0  0  0  0  0  0  0  0  0  0  # atno 17320 bound_to 7965
  144.7898  139.6352  143.7118 LP  0  0  0  0  0  0  0  0  0  0  0  0  # atno 17321 bound_to 7965
  139.5680  144.1996  152.1794 LP  0  0  0  0  0  0  0  0  0  0  0  0  # atno 17342 bound_to 10162
  140.1283  144.5311  150.6818 LP  0  0  0  0  0  0  0  0  0  0  0  0  # atno 17343 bound_to 10162
  156.5172  130.8199  151.3190 LP  0  0  0  0  0  0  0  0  0  0  0  0  # atno 17370 bound_to 10713
  157.7426  130.9894  150.2531 LP  0  0  0  0  0  0  0  0  0  0  0  0  # atno 17371 bound_to 10713
  140.5189  134.6323  157.5311 LP  0  0  0  0  0  0  0  0  0  0  0  0  # atno 17394 bound_to 11000
  139.9770  134.7200  155.9932 LP  0  0  0  0  0  0  0  0  0  0  0  0  # atno 17395 bound_to 11000

$$$$
