AV-unprocessed.smi:1126|AV-procd|sdf|4837|dock6
  -GOLD-   22720 3403D 1   1.00000     0.00000
 Structure written by MMmdl.
 48 49  0  0  0  0  0  0  0  0  2 V2000
  143.9999  132.8385  149.7796 C   0  0  0  0  0  0  0  0  0  0  0  0
  145.3560  132.6654  150.1532 O   0  0  0  0  0  0  0  0  0  0  0  0
  145.7082  133.4318  151.2931 C   0  0  0  0  0  0  0  0  0  0  0  0
  147.0779  132.9618  151.8077 C   0  0  0  0  0  0  0  0  0  0  0  0
  147.6447  133.8678  152.8393 N   0  3  2  0  0  0  0  0  0  0  0  0
  148.8625  133.3013  153.4733 C   0  0  0  0  0  0  0  0  0  0  0  0
  149.5167  134.3128  154.4293 C   0  0  0  0  0  0  0  0  0  0  0  0
  148.5260  134.7898  155.5093 C   0  0  1  0  0  0  0  0  0  0  0  0
  149.1390  135.8404  156.4537 C   0  0  0  0  0  0  0  0  0  0  0  0
  149.8593  136.8682  155.7142 N   0  0  0  0  0  0  0  0  0  0  0  0
  151.1572  136.7968  155.3849 C   0  0  0  0  0  0  0  0  0  0  0  0
  151.8821  135.8495  155.6877 O   0  0  0  0  0  0  0  0  0  0  0  0
  151.7251  137.9737  154.5912 C   0  0  0  0  0  0  0  0  0  0  0  0
  151.5751  139.2181  155.3240 N   0  0  0  0  0  0  0  0  0  0  0  0
  152.0116  139.5198  156.5970 C   0  0  0  0  0  0  0  0  0  0  0  0
  151.6492  140.8102  156.8611 C   0  0  0  0  0  0  0  0  0  0  0  0
  151.8878  141.6150  158.1063 C   0  0  0  0  0  0  0  0  0  0  0  0
  150.9868  141.2184  155.6686 C   0  0  0  0  0  0  0  0  0  0  0  0
  150.9446  140.2659  154.7509 N   0  0  0  0  0  0  0  0  0  0  0  0
  147.2625  135.3333  154.8204 C   0  0  0  0  0  0  0  0  0  0  0  0
  146.6535  134.2977  153.8606 C   0  0  0  0  0  0  0  0  0  0  0  0
  143.7839  132.2386  148.8955 H   0  0  0  0  0  0  0  0  0  0  0  0
  143.7862  133.8806  149.5387 H   0  0  0  0  0  0  0  0  0  0  0  0
  143.3272  132.5177  150.5762 H   0  0  0  0  0  0  0  0  0  0  0  0
  145.7107  134.4960  151.0573 H   0  0  0  0  0  0  0  0  0  0  0  0
  144.9612  133.2825  152.0744 H   0  0  0  0  0  0  0  0  0  0  0  0
  147.0083  131.9492  152.2076 H   0  0  0  0  0  0  0  0  0  0  0  0
  147.7557  132.9088  150.9544 H   0  0  0  0  0  0  0  0  0  0  0  0
  148.6032  132.3876  154.0105 H   0  0  0  0  0  0  0  0  0  0  0  0
  149.5834  133.0230  152.7037 H   0  0  0  0  0  0  0  0  0  0  0  0
  150.3924  133.8544  154.8900 H   0  0  0  0  0  0  0  0  0  0  0  0
  149.8820  135.1685  153.8592 H   0  0  0  0  0  0  0  0  0  0  0  0
  148.2346  133.9266  156.1104 H   0  0  0  0  0  0  0  0  0  0  0  0
  148.3569  136.3047  157.0569 H   0  0  0  0  0  0  0  0  0  0  0  0
  149.8321  135.3600  157.1462 H   0  0  0  0  0  0  0  0  0  0  0  0
  149.3361  137.6796  155.4181 H   0  0  0  0  0  0  0  0  0  0  0  0
  152.7798  137.8027  154.3689 H   0  0  0  0  0  0  0  0  0  0  0  0
  151.2062  138.0653  153.6361 H   0  0  0  0  0  0  0  0  0  0  0  0
  152.5405  138.7977  157.2019 H   0  0  0  0  0  0  0  0  0  0  0  0
  151.3119  142.5406  158.1077 H   0  0  0  0  0  0  0  0  0  0  0  0
  152.9375  141.8896  158.2116 H   0  0  0  0  0  0  0  0  0  0  0  0
  151.6081  141.0618  159.0029 H   0  0  0  0  0  0  0  0  0  0  0  0
  150.5382  142.1748  155.4439 H   0  0  0  0  0  0  0  0  0  0  0  0
  146.5216  135.6147  155.5697 H   0  0  0  0  0  0  0  0  0  0  0  0
  147.5031  136.2433  154.2687 H   0  0  0  0  0  0  0  0  0  0  0  0
  145.7791  134.7375  153.3829 H   0  0  0  0  0  0  0  0  0  0  0  0
  146.3031  133.4284  154.4195 H   0  0  0  0  0  0  0  0  0  0  0  0
  147.9442  134.6994  152.3501 H   0  0  0  0  0  0  0  0  0  0  0  0
  1  2  1  0  0  0  0
  1 22  1  0  0  0  0
  1 23  1  0  0  0  0
  1 24  1  0  0  0  0
  2  3  1  0  0  0  0
  3  4  1  0  0  0  0
  3 25  1  0  0  0  0
  3 26  1  0  0  0  0
  4  5  1  0  0  0  0
  4 27  1  0  0  0  0
  4 28  1  0  0  0  0
  5 21  1  0  0  0  0
  5  6  1  0  0  0  0
  5 48  1  0  0  0  0
  6  7  1  0  0  0  0
  6 29  1  0  0  0  0
  6 30  1  0  0  0  0
  7  8  1  0  0  0  0
  7 31  1  0  0  0  0
  7 32  1  0  0  0  0
  8  9  1  0  0  0  0
  8 20  1  0  0  0  0
  8 33  1  0  0  0  0
  9 10  1  0  0  0  0
  9 34  1  0  0  0  0
  9 35  1  0  0  0  0
 10 11  1  0  0  0  0
 10 36  1  0  0  0  0
 11 12  2  0  0  0  0
 11 13  1  0  0  0  0
 13 14  1  0  0  0  0
 13 37  1  0  0  0  0
 13 38  1  0  0  0  0
 14 19  1  0  0  0  0
 14 15  1  0  0  0  0
 15 16  2  0  0  0  0
 15 39  1  0  0  0  0
 16 17  1  0  0  0  0
 16 18  1  0  0  0  0
 17 40  1  0  0  0  0
 17 41  1  0  0  0  0
 17 42  1  0  0  0  0
 18 19  2  0  0  0  0
 18 43  1  0  0  0  0
 20 21  1  0  0  0  0
 20 44  1  0  0  0  0
 20 45  1  0  0  0  0
 21 46  1  0  0  0  0
 21 47  1  0  0  0  0
M  CHG  1   5   1
M  END
> <s_m_source_file>
AV-unprocessed.smi

> <i_m_source_file_index>
1126

> <i_lp_mmshare_version>
43012

> <i_f3d_flags>
0

> <s_epik_input>
W0NIM11PW0NIMl1bQ0gyXU4xW0NIMl1bQ0gyXVtDSF0oW0NIMl1bQ0gyXTEpW0NIMl1bTkhdQyg9TylbQ0gyXW4yW2NIXWMoW0NIM10pW2NIXW4y

> <s_epik_cmdline>
J2VwaWtfcHl0aG9uJywgJy1waCcsICc3LjAnLCAnLXRuJywgJzgnLCAnLW1hJywgJzIwMCcsICctbWV0YWxfYmluZGluZycsICctaW1hZScsICc8aW5maWxlLm1hZT4nLCAnLW9tYWUnLCAnPG91dGZpbGUubWFlPic=

> <r_lp_tautomer_probability>
1

> <r_epik_Ionization_Penalty>
0.00992859

> <r_epik_Ionization_Penalty_Charging>
0.00990284

> <r_epik_Ionization_Penalty_Neutral>
2.57527e-05

> <r_epik_State_Penalty>
0.00754525

> <r_epik_Charging_Adjusted_Penalty>
0.0174481

> <i_epik_Tot_Q>
1

> <i_epik_Tot_abs_Q>
1

> <r_epik_Metal_State_Penalty>
0.00754529

> <b_epik_Metal_Only>
0

> <s_lp_Force_Field>
OPLS_2005

> <r_lp_Energy>
19.6202

> <b_lp_Chiralities_Consistent>
1

> <s_lp_Variant>
AV-unprocessed.smi:1126-1

> <Gold.Version>
5.8.1

> <Gold.Id.Protein>
6NUR|6NUR_protein|mol2

> <Gold.PLP.Fitness>
48.7725

> <Gold.PLP.PLP>
-35.0456

> <Gold.PLP.part.hbond>
-3.0000

> <Gold.PLP.part.metal>
0.0000

> <Gold.PLP.part.buried>
-2.7899

> <Gold.PLP.part.nonpolar>
-28.1498

> <Gold.PLP.part.repulsive>
0.2974

> <Gold.PLP.ligand.clash>
0.0000

> <Gold.PLP.ligand.torsion>
0.4702

> <Gold.PLP.Chemscore.Hbond>
3.9500

> <Gold.PLP.Chemscore.CHOScore>
0.9270

> <Gold.PLP.Chemscore.Metal>
0.0000

> <Gold.Chemscore.Hbonds>
donor molecule, donor type, donor heavy atom, donor atom, acceptor molecule, acceptor atom, score
      L1  H     5    48       P1  7948  2.00
      P1  H  7989  7998       L1    19  1.00
      P1  H 10752 10763       L1    12  0.83

> <Gold.PLP.Chemscore.Internal.Correction>
0.0362

> <Gold.Rescore>
     Score         DG    S(hbond)    S(metal)    S(lipo)     H(rot)  DE(clash)    DE(int)     intcor
     16.63     -17.51       2.49        0.00      77.61       2.10       0.11       0.77       ----

> <Gold.Chemscore.Fitness>
16.6314

> <Gold.Chemscore.DG>
-17.5070

> <Gold.Chemscore.ZeroCoef>
-5.4800

> <Gold.Chemscore.Hbond>
2.4924

> <Gold.Chemscore.Metal>
0.0000

> <Gold.Chemscore.Lipo>
77.6075

> <Gold.Chemscore.Internal_Hbond>
0.0000

> <Gold.Chemscore.DEClash>
0.1105

> <Gold.Chemscore.DEInternal>
0.7651

> <Gold.Chemscore.Rot>
2.1006

> <Gold.Chemscore.Internal.Correction>
   9.000000E+99

> <Gold.Chemscore.Hbonds>
donor molecule, donor type, donor heavy atom, donor atom, acceptor molecule, acceptor atom, score
      L1  H     5    48       P1  7948  0.55
      P1  H  7989  7998       L1    19  0.44
      P1  H 10752 10763       L1    12  0.76

> <Gold.Chemscore.Hbond.Weighted>
-8.3245

> <Gold.Chemscore.Metal.Weighted>
-0.0000

> <Gold.Chemscore.Lipo.Weighted>
-9.0801

> <Gold.Chemscore.Internal_Hbond.Weighted>
0.0000

> <Gold.Chemscore.DEClash.Weighted>
0.1105

> <Gold.Chemscore.DEInternal.Weighted>
0.7651

> <Gold.Chemscore.Rot.Weighted>
5.3775

> <Gold.Chemscore.Internal.Correction.Weighted>
   9.000000E+99

> <Gold.Protein.RotatedTorsions>
[ 6907 6896 6895 6894 ] final  -81.09 input  -60.11 | X-H torsion
[ 7974 7965 7964 7962 ] final   59.00 input  175.53 | X-H torsion
[ 8008 7997 7996 7995 ] final  -99.13 input   59.86 | X-H torsion
[ 10167 10162 10161 10158 ] final  -46.77 input  -65.29 | X-H torsion
[ 10718 10713 10712 10709 ] final   89.53 input   66.30 | X-H torsion
[ 10763 10752 10751 10750 ] final   69.36 input  -60.55 | X-H torsion
[ 11005 11000 10999 10996 ] final  121.72 input  -57.11 | X-H torsion

> <Gold.Protein.ActiveResidues>
 VAL166  LYS551  ARG553  GLY616  TRP617  ASP618  TYR619  PRO620  LYS621  CYS622 
 ASP623  PHE694  ASN695  SER759  ASP760  ASP761  ALA762  ILE779  LEU786  VAL792 
 PHE793  MET794  SER795  GLU796  ALA797  LYS798  CYS799  TRP800  GLU811  SER814 

> <Gold.Protein.RotatedAtoms>
  150.6918  134.3870  159.5059 H   0  0  0  0  0  0  0  0  0  0  0  0  # atno 6907 bound_to 6896
  152.1664  134.8868  160.0547 H   0  0  0  0  0  0  0  0  0  0  0  0  # atno 6908 bound_to 6896
  151.9910  133.3756  159.4181 H   0  0  0  0  0  0  0  0  0  0  0  0  # atno 6909 bound_to 6896
  145.9120  139.3661  143.0530 H   0  0  0  0  0  0  0  0  0  0  0  0  # atno 7974 bound_to 7965
  154.8106  140.0450  157.1339 H   0  0  0  0  0  0  0  0  0  0  0  0  # atno 8008 bound_to 7997
  154.9373  140.3048  155.5118 H   0  0  0  0  0  0  0  0  0  0  0  0  # atno 8009 bound_to 7997
  156.2971  140.2312  156.4439 H   0  0  0  0  0  0  0  0  0  0  0  0  # atno 8010 bound_to 7997
  140.6803  143.2815  151.3830 H   0  0  0  0  0  0  0  0  0  0  0  0  # atno 10167 bound_to 10162
  157.6955  131.0336  150.3439 H   0  0  0  0  0  0  0  0  0  0  0  0  # atno 10718 bound_to 10713
  153.0283  135.5213  154.7276 H   0  0  0  0  0  0  0  0  0  0  0  0  # atno 10763 bound_to 10752
  154.6313  135.2900  155.0215 H   0  0  0  0  0  0  0  0  0  0  0  0  # atno 10764 bound_to 10752
  154.1166  135.6614  153.4947 H   0  0  0  0  0  0  0  0  0  0  0  0  # atno 10765 bound_to 10752
  139.9238  134.9639  156.8001 H   0  0  0  0  0  0  0  0  0  0  0  0  # atno 11005 bound_to 11000
  145.8660  140.9448  143.0675 LP  0  0  0  0  0  0  0  0  0  0  0  0  # atno 17320 bound_to 7965
  144.6744  140.0592  143.7476 LP  0  0  0  0  0  0  0  0  0  0  0  0  # atno 17321 bound_to 7965
  139.6122  144.1075  152.2310 LP  0  0  0  0  0  0  0  0  0  0  0  0  # atno 17342 bound_to 10162
  140.0493  144.5945  150.7349 LP  0  0  0  0  0  0  0  0  0  0  0  0  # atno 17343 bound_to 10162
  156.3896  130.3895  149.7039 LP  0  0  0  0  0  0  0  0  0  0  0  0  # atno 17370 bound_to 10713
  156.4394  130.7853  151.2874 LP  0  0  0  0  0  0  0  0  0  0  0  0  # atno 17371 bound_to 10713
  140.6396  133.9830  155.7701 LP  0  0  0  0  0  0  0  0  0  0  0  0  # atno 17394 bound_to 11000
  141.0780  134.0106  157.3429 LP  0  0  0  0  0  0  0  0  0  0  0  0  # atno 17395 bound_to 11000

$$$$
