AV-unprocessed.smi:2768|AV-procd|sdf|10653|dock3
  -GOLD-   2272015103D 1   1.00000     0.00000
 Structure written by MMmdl.
 34 35  0  0  0  0  0  0  0  0  2 V2000
  151.8338  139.1990  158.5724 O   0  0  0  0  0  0  0  0  0  0  0  0
  151.6422  139.9584  157.6157 C   0  0  0  0  0  0  0  0  0  0  0  0
  151.6649  141.3218  157.5654 N   0  5  0  0  0  0  0  0  0  0  0  0
  151.4705  142.1968  158.7252 C   0  0  1  0  0  0  0  0  0  0  0  0
  152.8356  142.6106  159.3315 C   0  0  0  0  0  0  0  0  0  0  0  0
  152.7032  143.6316  160.4901 C   0  0  0  0  0  0  0  0  0  0  0  0
  151.9274  144.9015  160.0807 C   0  0  0  0  0  0  0  0  0  0  0  0
  150.5603  144.5091  159.4770 C   0  0  0  0  0  0  0  0  0  0  0  0
  150.6697  143.4705  158.3278 C   0  0  1  0  0  0  0  0  0  0  0  0
  151.2522  144.1001  157.2009 O   0  0  0  0  0  0  0  0  0  0  0  0
  151.3403  139.3371  156.2351 C   0  0  0  0  0  0  0  0  0  0  0  0
  152.3295  139.6477  155.3924 F   0  0  0  0  0  0  0  0  0  0  0  0
  151.3096  138.0038  156.3346 F   0  0  0  0  0  0  0  0  0  0  0  0
  150.0131  139.8602  155.6877 C   0  0  0  0  0  0  0  0  0  0  0  0
  148.8077  139.6741  156.4029 C   0  0  0  0  0  0  0  0  0  0  0  0
  147.6134  140.1864  155.8618 C   0  0  0  0  0  0  0  0  0  0  0  0
  147.6626  140.8626  154.6282 C   0  0  0  0  0  0  0  0  0  0  0  0
  148.9112  141.0002  153.9910 C   0  0  0  0  0  0  0  0  0  0  0  0
  150.0622  140.5149  154.5021 N   0  0  0  0  0  0  0  0  0  0  0  0
  150.9030  141.6992  159.5135 H   0  0  0  0  0  0  0  0  0  0  0  0
  149.6633  143.1705  158.0325 H   0  0  0  0  0  0  0  0  0  0  0  0
  153.3613  141.7253  159.6909 H   0  0  0  0  0  0  0  0  0  0  0  0
  153.4686  143.0410  158.5540 H   0  0  0  0  0  0  0  0  0  0  0  0
  152.2101  143.1655  161.3458 H   0  0  0  0  0  0  0  0  0  0  0  0
  153.6970  143.9133  160.8389 H   0  0  0  0  0  0  0  0  0  0  0  0
  151.7889  145.5572  160.9405 H   0  0  0  0  0  0  0  0  0  0  0  0
  152.5059  145.4646  159.3475 H   0  0  0  0  0  0  0  0  0  0  0  0
  149.9265  144.1096  160.2711 H   0  0  0  0  0  0  0  0  0  0  0  0
  150.0489  145.4036  159.1192 H   0  0  0  0  0  0  0  0  0  0  0  0
  150.5849  144.1512  156.5324 H   0  0  0  0  0  0  0  0  0  0  0  0
  148.8003  139.1601  157.3528 H   0  0  0  0  0  0  0  0  0  0  0  0
  146.6764  140.0645  156.3847 H   0  0  0  0  0  0  0  0  0  0  0  0
  146.7665  141.2683  154.1826 H   0  0  0  0  0  0  0  0  0  0  0  0
  148.9871  141.5138  153.0439 H   0  0  0  0  0  0  0  0  0  0  0  0
  1  2  2  0  0  0  0
  2  3  1  0  0  0  0
  2 11  1  0  0  0  0
  3  4  1  0  0  0  0
  4 20  1  0  0  0  0
  4  9  1  0  0  0  0
  4  5  1  0  0  0  0
  5  6  1  0  0  0  0
  5 22  1  0  0  0  0
  5 23  1  0  0  0  0
  6  7  1  0  0  0  0
  6 24  1  0  0  0  0
  6 25  1  0  0  0  0
  7  8  1  0  0  0  0
  7 26  1  0  0  0  0
  7 27  1  0  0  0  0
  8  9  1  0  0  0  0
  8 28  1  0  0  0  0
  8 29  1  0  0  0  0
  9 21  1  0  0  0  0
  9 10  1  0  0  0  0
 10 30  1  0  0  0  0
 11 12  1  0  0  0  0
 11 13  1  0  0  0  0
 11 14  1  0  0  0  0
 14 19  1  0  0  0  0
 14 15  2  0  0  0  0
 15 16  1  0  0  0  0
 15 31  1  0  0  0  0
 16 17  2  0  0  0  0
 16 32  1  0  0  0  0
 17 18  1  0  0  0  0
 17 33  1  0  0  0  0
 18 19  2  0  0  0  0
 18 34  1  0  0  0  0
M  CHG  1   3  -1
M  END
> <s_m_source_file>
AV-unprocessed.smi

> <i_m_source_file_index>
2768

> <i_lp_mmshare_version>
43012

> <i_f3d_flags>
0

> <s_epik_input>
bjFbY0hdW2NIXVtjSF1bY0hdYzFDKEYpKEYpQyg9TylbTkhdW0NAQEhdMltDSDJdW0NIMl1bQ0gyXVtDSDJdW0NASF0yW09IXQ==

> <s_epik_cmdline>
J2VwaWtfcHl0aG9uJywgJy1waCcsICc3LjAnLCAnLXRuJywgJzgnLCAnLW1hJywgJzIwMCcsICctbWV0YWxfYmluZGluZycsICctaW1hZScsICc8aW5maWxlLm1hZT4nLCAnLW9tYWUnLCAnPG91dGZpbGUubWFlPic=

> <r_lp_tautomer_probability>
1

> <r_epik_Ionization_Penalty>
5.70553

> <r_epik_Ionization_Penalty_Charging>
5.70553

> <r_epik_Ionization_Penalty_Neutral>
5.5493e-06

> <r_epik_State_Penalty>
5.70549

> <r_epik_Charging_Adjusted_Penalty>
11.411

> <i_epik_Tot_Q>
-1

> <i_epik_Tot_abs_Q>
1

> <r_epik_Metal_State_Penalty>
1.6859

> <b_epik_Metal_Only>
1

> <s_lp_Force_Field>
OPLS_2005

> <r_lp_Energy>
27.4562

> <b_lp_Chiralities_Consistent>
1

> <s_lp_Variant>
AV-unprocessed.smi:2768-6

> <Gold.Version>
5.8.1

> <Gold.Id.Protein>
6NUR|6NUR_protein|mol2

> <Gold.PLP.Fitness>
40.6457

> <Gold.PLP.PLP>
-33.8628

> <Gold.PLP.part.hbond>
-2.0000

> <Gold.PLP.part.metal>
0.0000

> <Gold.PLP.part.buried>
-5.0609

> <Gold.PLP.part.nonpolar>
-27.4693

> <Gold.PLP.part.repulsive>
0.1179

> <Gold.PLP.ligand.clash>
0.0000

> <Gold.PLP.ligand.torsion>
0.4797

> <Gold.PLP.Chemscore.Hbond>
1.8640

> <Gold.PLP.Chemscore.CHOScore>
0.7098

> <Gold.PLP.Chemscore.Metal>
0.0000

> <Gold.Chemscore.Hbonds>
donor molecule, donor type, donor heavy atom, donor atom, acceptor molecule, acceptor atom, score
      L1  H    10    30       P1  8028  1.00
      P1  H  7989  7998       L1    19  0.88
      L1  C    18    34       P1  7957  0.69

> <Gold.PLP.Chemscore.Internal.Correction>
0.0207

> <Gold.Rescore>
     Score         DG    S(hbond)    S(metal)    S(lipo)     H(rot)  DE(clash)    DE(int)     intcor
     16.63     -17.21       1.81        0.00      91.32       1.95       0.16       0.42       ----

> <Gold.Chemscore.Fitness>
16.6318

> <Gold.Chemscore.DG>
-17.2065

> <Gold.Chemscore.ZeroCoef>
-5.4800

> <Gold.Chemscore.Hbond>
1.8068

> <Gold.Chemscore.Metal>
0.0000

> <Gold.Chemscore.Lipo>
91.3208

> <Gold.Chemscore.Internal_Hbond>
0.0000

> <Gold.Chemscore.DEClash>
0.1552

> <Gold.Chemscore.DEInternal>
0.4195

> <Gold.Chemscore.Rot>
1.9503

> <Gold.Chemscore.Internal.Correction>
   9.000000E+99

> <Gold.Chemscore.Hbonds>
donor molecule, donor type, donor heavy atom, donor atom, acceptor molecule, acceptor atom, score
      L1  H    10    30       P1  8028  0.97
      P1  H  7989  7998       L1    19  0.78

> <Gold.Chemscore.Hbond.Weighted>
-6.0347

> <Gold.Chemscore.Metal.Weighted>
-0.0000

> <Gold.Chemscore.Lipo.Weighted>
-10.6845

> <Gold.Chemscore.Internal_Hbond.Weighted>
0.0000

> <Gold.Chemscore.DEClash.Weighted>
0.1552

> <Gold.Chemscore.DEInternal.Weighted>
0.4195

> <Gold.Chemscore.Rot.Weighted>
4.9928

> <Gold.Chemscore.Internal.Correction.Weighted>
   9.000000E+99

> <Gold.Protein.RotatedTorsions>
[ 6907 6896 6895 6894 ] final   96.35 input  -60.11 | X-H torsion
[ 7974 7965 7964 7962 ] final   28.86 input  175.53 | X-H torsion
[ 8008 7997 7996 7995 ] final -164.60 input   59.86 | X-H torsion
[ 10167 10162 10161 10158 ] final  -17.01 input  -65.29 | X-H torsion
[ 10718 10713 10712 10709 ] final   70.25 input   66.30 | X-H torsion
[ 10763 10752 10751 10750 ] final   83.54 input  -60.55 | X-H torsion
[ 11005 11000 10999 10996 ] final  -97.67 input  -57.11 | X-H torsion

> <Gold.Protein.ActiveResidues>
 VAL166  LYS551  ARG553  GLY616  TRP617  ASP618  TYR619  PRO620  LYS621  CYS622 
 ASP623  PHE694  ASN695  SER759  ASP760  ASP761  ALA762  ILE779  LEU786  VAL792 
 PHE793  MET794  SER795  GLU796  ALA797  LYS798  CYS799  TRP800  GLU811  SER814 

> <Gold.Protein.RotatedAtoms>
  152.5436  134.0899  159.8272 H   0  0  0  0  0  0  0  0  0  0  0  0  # atno 6907 bound_to 6896
  151.0990  133.5250  159.2618 H   0  0  0  0  0  0  0  0  0  0  0  0  # atno 6908 bound_to 6896
  151.2013  135.0452  159.8927 H   0  0  0  0  0  0  0  0  0  0  0  0  # atno 6909 bound_to 6896
  146.1705  139.6999  142.8971 H   0  0  0  0  0  0  0  0  0  0  0  0  # atno 7974 bound_to 7965
  155.8380  140.0944  157.1752 H   0  0  0  0  0  0  0  0  0  0  0  0  # atno 8008 bound_to 7997
  154.3981  140.1406  156.3755 H   0  0  0  0  0  0  0  0  0  0  0  0  # atno 8009 bound_to 7997
  155.8095  140.3450  155.5452 H   0  0  0  0  0  0  0  0  0  0  0  0  # atno 8010 bound_to 7997
  140.7241  143.5059  150.9811 H   0  0  0  0  0  0  0  0  0  0  0  0  # atno 10167 bound_to 10162
  157.6390  130.9467  150.0625 H   0  0  0  0  0  0  0  0  0  0  0  0  # atno 10718 bound_to 10713
  153.1300  135.4687  154.9334 H   0  0  0  0  0  0  0  0  0  0  0  0  # atno 10763 bound_to 10752
  154.7655  135.3143  154.8296 H   0  0  0  0  0  0  0  0  0  0  0  0  # atno 10764 bound_to 10752
  153.8841  135.6891  153.4819 H   0  0  0  0  0  0  0  0  0  0  0  0  # atno 10765 bound_to 10752
  141.1371  133.8188  157.0737 H   0  0  0  0  0  0  0  0  0  0  0  0  # atno 11005 bound_to 11000
  145.4354  141.0418  143.2887 LP  0  0  0  0  0  0  0  0  0  0  0  0  # atno 17320 bound_to 7965
  144.8155  139.5884  143.7010 LP  0  0  0  0  0  0  0  0  0  0  0  0  # atno 17321 bound_to 7965
  139.8770  143.7120  152.3161 LP  0  0  0  0  0  0  0  0  0  0  0  0  # atno 17342 bound_to 10162
  139.7389  144.7564  151.0684 LP  0  0  0  0  0  0  0  0  0  0  0  0  # atno 17343 bound_to 10162
  156.1653  130.3645  149.9241 LP  0  0  0  0  0  0  0  0  0  0  0  0  # atno 17370 bound_to 10713
  156.7229  130.9014  151.3619 LP  0  0  0  0  0  0  0  0  0  0  0  0  # atno 17371 bound_to 10713
  140.0495  134.9813  157.1110 LP  0  0  0  0  0  0  0  0  0  0  0  0  # atno 17394 bound_to 11000
  140.4012  134.2081  155.7163 LP  0  0  0  0  0  0  0  0  0  0  0  0  # atno 17395 bound_to 11000

$$$$
