AV-unprocessed.smi:3232|AV-procd|sdf|12346|dock3
  -GOLD-   2272018213D 1   1.00000     0.00000
 Structure written by MMmdl.
 40 41  0  0  0  0  0  0  0  0  2 V2000
  151.0662  134.1804  156.9011 C   0  0  0  0  0  0  0  0  0  0  0  0
  150.6382  135.1371  155.7802 C   0  0  0  0  0  0  0  0  0  0  0  0
  149.5304  134.5839  154.9648 N   0  3  1  0  0  0  0  0  0  0  0  0
  149.7938  133.2487  154.3866 C   0  0  0  0  0  0  0  0  0  0  0  0
  148.4169  132.6486  154.1342 C   0  0  0  0  0  0  0  0  0  0  0  0
  147.6075  133.1537  155.3222 C   0  0  0  0  0  0  0  0  0  0  0  0
  148.2231  134.5244  155.6676 C   0  0  2  0  0  0  0  0  0  0  0  0
  147.3425  135.7215  155.2520 C   0  0  0  0  0  0  0  0  0  0  0  0
  148.0906  136.7412  154.5251 N   0  0  0  0  0  0  0  0  0  0  0  0
  148.5587  137.8814  155.0557 C   0  0  0  0  0  0  0  0  0  0  0  0
  148.3996  138.1864  156.2384 O   0  0  0  0  0  0  0  0  0  0  0  0
  149.3220  138.8103  154.1002 C   0  0  1  0  0  0  0  0  0  0  0  0
  148.7321  140.2319  154.0564 C   0  0  0  0  0  0  0  0  0  0  0  0
  150.7351  138.8366  154.4490 N   0  0  0  0  0  0  0  0  0  0  0  0
  151.6462  137.8601  154.4909 C   0  0  0  0  0  0  0  0  0  0  0  0
  152.8564  138.2698  154.8434 N   0  0  0  0  0  0  0  0  0  0  0  0
  152.6054  139.6015  155.0145 C   0  0  0  0  0  0  0  0  0  0  0  0
  151.3520  139.9942  154.7870 N   0  0  0  0  0  0  0  0  0  0  0  0
  151.9126  134.5889  157.4535 H   0  0  0  0  0  0  0  0  0  0  0  0
  151.3692  133.2131  156.4997 H   0  0  0  0  0  0  0  0  0  0  0  0
  150.2614  134.0112  157.6162 H   0  0  0  0  0  0  0  0  0  0  0  0
  150.3513  136.1049  156.1939 H   0  0  0  0  0  0  0  0  0  0  0  0
  151.4956  135.3167  155.1301 H   0  0  0  0  0  0  0  0  0  0  0  0
  150.3918  133.3117  153.4770 H   0  0  0  0  0  0  0  0  0  0  0  0
  150.3345  132.6315  155.1062 H   0  0  0  0  0  0  0  0  0  0  0  0
  148.0019  133.0444  153.2060 H   0  0  0  0  0  0  0  0  0  0  0  0
  148.4333  131.5607  154.0617 H   0  0  0  0  0  0  0  0  0  0  0  0
  146.5394  133.1904  155.1062 H   0  0  0  0  0  0  0  0  0  0  0  0
  147.7427  132.4741  156.1649 H   0  0  0  0  0  0  0  0  0  0  0  0
  148.3894  134.5578  156.7460 H   0  0  0  0  0  0  0  0  0  0  0  0
  146.5044  135.3830  154.6401 H   0  0  0  0  0  0  0  0  0  0  0  0
  146.9076  136.1895  156.1359 H   0  0  0  0  0  0  0  0  0  0  0  0
  148.2734  136.5654  153.5472 H   0  0  0  0  0  0  0  0  0  0  0  0
  149.2306  138.3918  153.0957 H   0  0  0  0  0  0  0  0  0  0  0  0
  147.6729  140.2121  153.7974 H   0  0  0  0  0  0  0  0  0  0  0  0
  149.2399  140.8381  153.3057 H   0  0  0  0  0  0  0  0  0  0  0  0
  148.8314  140.7437  155.0146 H   0  0  0  0  0  0  0  0  0  0  0  0
  151.4200  136.8301  154.2562 H   0  0  0  0  0  0  0  0  0  0  0  0
  153.3701  140.3034  155.3128 H   0  0  0  0  0  0  0  0  0  0  0  0
  149.3914  135.2083  154.1833 H   0  0  0  0  0  0  0  0  0  0  0  0
  1  2  1  0  0  0  0
  1 19  1  0  0  0  0
  1 20  1  0  0  0  0
  1 21  1  0  0  0  0
  2  3  1  0  0  0  0
  2 22  1  0  0  0  0
  2 23  1  0  0  0  0
  3  7  1  0  0  0  0
  3  4  1  0  0  0  0
  3 40  1  0  0  0  0
  4  5  1  0  0  0  0
  4 24  1  0  0  0  0
  4 25  1  0  0  0  0
  5  6  1  0  0  0  0
  5 26  1  0  0  0  0
  5 27  1  0  0  0  0
  6  7  1  0  0  0  0
  6 28  1  0  0  0  0
  6 29  1  0  0  0  0
  7  8  1  0  0  0  0
  7 30  1  0  0  0  0
  8  9  1  0  0  0  0
  8 31  1  0  0  0  0
  8 32  1  0  0  0  0
  9 10  1  0  0  0  0
  9 33  1  0  0  0  0
 10 11  2  0  0  0  0
 10 12  1  0  0  0  0
 12 13  1  0  0  0  0
 12 14  1  0  0  0  0
 12 34  1  0  0  0  0
 13 35  1  0  0  0  0
 13 36  1  0  0  0  0
 13 37  1  0  0  0  0
 14 18  1  0  0  0  0
 14 15  1  0  0  0  0
 15 16  2  0  0  0  0
 15 38  1  0  0  0  0
 16 17  1  0  0  0  0
 17 18  2  0  0  0  0
 17 39  1  0  0  0  0
M  CHG  1   3   1
M  END
> <s_m_source_file>
AV-unprocessed.smi

> <i_m_source_file_index>
3232

> <i_lp_mmshare_version>
43012

> <i_f3d_flags>
0

> <s_epik_input>
W0NIM11bQ0gyXU4xW0NIMl1bQ0gyXVtDSDJdW0NASF0xW0NIMl1bTkhdQyg9TylbQ0BIXShbQ0gzXSluMltjSF1uW2NIXW4y

> <s_epik_cmdline>
J2VwaWtfcHl0aG9uJywgJy1waCcsICc3LjAnLCAnLXRuJywgJzgnLCAnLW1hJywgJzIwMCcsICctbWV0YWxfYmluZGluZycsICctaW1hZScsICc8aW5maWxlLm1hZT4nLCAnLW9tYWUnLCAnPG91dGZpbGUubWFlPic=

> <r_lp_tautomer_probability>
1

> <r_epik_Ionization_Penalty>
0.00177695

> <r_epik_Ionization_Penalty_Charging>
0.00176881

> <r_epik_Ionization_Penalty_Neutral>
8.13528e-06

> <r_epik_State_Penalty>
0.00119827

> <r_epik_Charging_Adjusted_Penalty>
0.00296709

> <i_epik_Tot_Q>
1

> <i_epik_Tot_abs_Q>
1

> <r_epik_Metal_State_Penalty>
-0

> <b_epik_Metal_Only>
0

> <s_lp_Force_Field>
OPLS_2005

> <r_lp_Energy>
32.5075

> <b_lp_Chiralities_Consistent>
1

> <s_lp_Variant>
AV-unprocessed.smi:3232-8

> <Gold.Version>
5.8.1

> <Gold.Id.Protein>
6NUR|6NUR_protein|mol2

> <Gold.PLP.Fitness>
43.5714

> <Gold.PLP.PLP>
-30.5162

> <Gold.PLP.part.hbond>
-4.0000

> <Gold.PLP.part.metal>
0.0000

> <Gold.PLP.part.buried>
-2.0438

> <Gold.PLP.part.nonpolar>
-24.0935

> <Gold.PLP.part.repulsive>
0.1219

> <Gold.PLP.ligand.clash>
0.0000

> <Gold.PLP.ligand.torsion>
0.9864

> <Gold.PLP.Chemscore.Hbond>
3.9924

> <Gold.PLP.Chemscore.CHOScore>
0.9633

> <Gold.PLP.Chemscore.Metal>
0.0000

> <Gold.Chemscore.Hbonds>
donor molecule, donor type, donor heavy atom, donor atom, acceptor molecule, acceptor atom, score
      L1  H     9    33       P1  7948  1.00
      P1  H  7989  7998       L1    18  0.85
      L1  C    15    38       P1  7949  0.06

> <Gold.PLP.Chemscore.Internal.Correction>
0.1611

> <Gold.Rescore>
     Score         DG    S(hbond)    S(metal)    S(lipo)     H(rot)  DE(clash)    DE(int)     intcor
     11.88     -13.01       2.78        0.00      39.50       2.49       0.10       1.03       ----

> <Gold.Chemscore.Fitness>
11.8820

> <Gold.Chemscore.DG>
-13.0120

> <Gold.Chemscore.ZeroCoef>
-5.4800

> <Gold.Chemscore.Hbond>
2.7786

> <Gold.Chemscore.Metal>
0.0000

> <Gold.Chemscore.Lipo>
39.4987

> <Gold.Chemscore.Internal_Hbond>
0.0000

> <Gold.Chemscore.DEClash>
0.0977

> <Gold.Chemscore.DEInternal>
1.0324

> <Gold.Chemscore.Rot>
2.4882

> <Gold.Chemscore.Internal.Correction>
   9.000000E+99

> <Gold.Chemscore.Hbonds>
donor molecule, donor type, donor heavy atom, donor atom, acceptor molecule, acceptor atom, score
      L1  H     9    33       P1  7948  1.00
      P1  H  7989  7998       L1    18  0.11

> <Gold.Chemscore.Hbond.Weighted>
-9.2804

> <Gold.Chemscore.Metal.Weighted>
-0.0000

> <Gold.Chemscore.Lipo.Weighted>
-4.6213

> <Gold.Chemscore.Internal_Hbond.Weighted>
0.0000

> <Gold.Chemscore.DEClash.Weighted>
0.0977

> <Gold.Chemscore.DEInternal.Weighted>
1.0324

> <Gold.Chemscore.Rot.Weighted>
6.3697

> <Gold.Chemscore.Internal.Correction.Weighted>
   9.000000E+99

> <Gold.Protein.RotatedTorsions>
[ 6907 6896 6895 6894 ] final   87.57 input  -60.11 | X-H torsion
[ 7974 7965 7964 7962 ] final   91.27 input  175.53 | X-H torsion
[ 8008 7997 7996 7995 ] final  -25.04 input   59.86 | X-H torsion
[ 10167 10162 10161 10158 ] final  112.68 input  -65.29 | X-H torsion
[ 10718 10713 10712 10709 ] final  154.31 input   66.30 | X-H torsion
[ 10763 10752 10751 10750 ] final  -99.10 input  -60.55 | X-H torsion
[ 11005 11000 10999 10996 ] final   99.55 input  -57.11 | X-H torsion

> <Gold.Protein.ActiveResidues>
 VAL166  LYS551  ARG553  GLY616  TRP617  ASP618  TYR619  PRO620  LYS621  CYS622 
 ASP623  PHE694  ASN695  SER759  ASP760  ASP761  ALA762  ILE779  LEU786  VAL792 
 PHE793  MET794  SER795  GLU796  ALA797  LYS798  CYS799  TRP800  GLU811  SER814 

> <Gold.Protein.RotatedAtoms>
  152.5413  134.2256  159.8804 H   0  0  0  0  0  0  0  0  0  0  0  0  # atno 6907 bound_to 6896
  151.2231  133.4485  159.2609 H   0  0  0  0  0  0  0  0  0  0  0  0  # atno 6908 bound_to 6896
  151.0787  134.9857  159.8401 H   0  0  0  0  0  0  0  0  0  0  0  0  # atno 6909 bound_to 6896
  145.5080  139.2276  143.2740 H   0  0  0  0  0  0  0  0  0  0  0  0  # atno 7974 bound_to 7965
  154.4497  140.1937  156.0557 H   0  0  0  0  0  0  0  0  0  0  0  0  # atno 8008 bound_to 7997
  156.0620  140.3295  155.7446 H   0  0  0  0  0  0  0  0  0  0  0  0  # atno 8009 bound_to 7997
  155.5396  140.0585  157.2863 H   0  0  0  0  0  0  0  0  0  0  0  0  # atno 8010 bound_to 7997
  139.6518  144.7128  151.2034 H   0  0  0  0  0  0  0  0  0  0  0  0  # atno 10167 bound_to 10162
  157.2333  131.0743  151.1839 H   0  0  0  0  0  0  0  0  0  0  0  0  # atno 10718 bound_to 10713
  154.7470  135.4985  153.9221 H   0  0  0  0  0  0  0  0  0  0  0  0  # atno 10763 bound_to 10752
  153.1102  135.6707  153.9521 H   0  0  0  0  0  0  0  0  0  0  0  0  # atno 10764 bound_to 10752
  153.9283  135.3081  155.3425 H   0  0  0  0  0  0  0  0  0  0  0  0  # atno 10765 bound_to 10752
  139.8771  134.9101  156.4623 H   0  0  0  0  0  0  0  0  0  0  0  0  # atno 11005 bound_to 11000
  146.2185  140.5884  142.9028 LP  0  0  0  0  0  0  0  0  0  0  0  0  # atno 17320 bound_to 7965
  144.7743  140.5706  143.6648 LP  0  0  0  0  0  0  0  0  0  0  0  0  # atno 17321 bound_to 7965
  140.7541  143.6138  150.8579 LP  0  0  0  0  0  0  0  0  0  0  0  0  # atno 17342 bound_to 10162
  139.9787  143.5975  152.2950 LP  0  0  0  0  0  0  0  0  0  0  0  0  # atno 17343 bound_to 10162
  157.3455  130.7055  149.6408 LP  0  0  0  0  0  0  0  0  0  0  0  0  # atno 17370 bound_to 10713
  155.9674  130.4267  150.4712 LP  0  0  0  0  0  0  0  0  0  0  0  0  # atno 17371 bound_to 10713
  140.8855  133.7886  155.9513 LP  0  0  0  0  0  0  0  0  0  0  0  0  # atno 17394 bound_to 11000
  140.8809  134.2612  157.5144 LP  0  0  0  0  0  0  0  0  0  0  0  0  # atno 17395 bound_to 11000

$$$$
