AV-unprocessed.smi:1644|AV-procd|sdf|6594|dock7
  -GOLD-   22720 7293D 1   1.00000     0.00000
 Structure written by MMmdl.
 48 50  0  0  0  0  0  0  0  0  2 V2000
  143.0796  145.1881  154.5918 C   0  0  0  0  0  0  0  0  0  0  0  0
  144.4156  145.2331  155.3415 C   0  0  0  0  0  0  0  0  0  0  0  0
  144.6254  144.0001  156.2329 C   0  0  0  0  0  0  0  0  0  0  0  0
  144.7537  142.6844  155.4399 C   0  0  2  0  0  0  0  0  0  0  0  0
  145.2172  141.5990  156.2790 N   0  5  0  0  0  0  0  0  0  0  0  0
  146.3429  141.0816  155.7342 C   0  0  0  0  0  0  0  0  0  0  0  0
  146.9886  140.1235  156.1573 O   0  0  0  0  0  0  0  0  0  0  0  0
  146.6977  141.7528  154.6214 N   0  0  0  0  0  0  0  0  0  0  0  0
  147.8218  141.4019  153.7435 C   0  0  0  0  0  0  0  0  0  0  0  0
  149.0962  140.9355  154.4832 C   0  0  1  0  0  0  0  0  0  0  0  0
  150.0829  140.7048  153.4987 O   0  0  0  0  0  0  0  0  0  0  0  0
  149.6768  141.9452  155.4975 C   0  0  0  0  0  0  0  0  0  0  0  0
  150.7074  141.3889  156.3579 N   0  0  0  0  0  0  0  0  0  0  0  0
  151.4173  140.2625  156.1480 C   0  0  0  0  0  0  0  0  0  0  0  0
  152.3651  139.9632  157.0308 N   0  0  0  0  0  0  0  0  0  0  0  0
  152.2643  141.0221  157.9151 C   0  0  0  0  0  0  0  0  0  0  0  0
  152.9993  141.3079  159.0868 C   0  0  0  0  0  0  0  0  0  0  0  0
  152.7156  142.4577  159.8573 C   0  0  0  0  0  0  0  0  0  0  0  0
  153.5161  142.7151  161.1214 C   0  0  0  0  0  0  0  0  0  0  0  0
  151.6909  143.3496  159.4511 C   0  0  0  0  0  0  0  0  0  0  0  0
  151.3590  144.5840  160.2694 C   0  0  0  0  0  0  0  0  0  0  0  0
  150.9578  143.0869  158.2752 C   0  0  0  0  0  0  0  0  0  0  0  0
  151.2383  141.9319  157.5237 C   0  0  0  0  0  0  0  0  0  0  0  0
  145.8318  142.7422  154.3762 C   0  0  0  0  0  0  0  0  0  0  0  0
  145.8593  143.5583  153.4539 O   0  0  0  0  0  0  0  0  0  0  0  0
  142.9565  146.0708  153.9644 H   0  0  0  0  0  0  0  0  0  0  0  0
  142.2401  145.1525  155.2865 H   0  0  0  0  0  0  0  0  0  0  0  0
  143.0199  144.3099  153.9483 H   0  0  0  0  0  0  0  0  0  0  0  0
  145.2292  145.3079  154.6192 H   0  0  0  0  0  0  0  0  0  0  0  0
  144.4582  146.1369  155.9501 H   0  0  0  0  0  0  0  0  0  0  0  0
  145.5219  144.1564  156.8349 H   0  0  0  0  0  0  0  0  0  0  0  0
  143.7979  143.9250  156.9358 H   0  0  0  0  0  0  0  0  0  0  0  0
  143.8087  142.4551  154.9456 H   0  0  0  0  0  0  0  0  0  0  0  0
  147.4805  140.6074  153.0772 H   0  0  0  0  0  0  0  0  0  0  0  0
  148.0703  142.2375  153.0866 H   0  0  0  0  0  0  0  0  0  0  0  0
  148.9228  139.9735  154.9650 H   0  0  0  0  0  0  0  0  0  0  0  0
  149.7800  140.0151  152.9284 H   0  0  0  0  0  0  0  0  0  0  0  0
  150.1377  142.7791  154.9659 H   0  0  0  0  0  0  0  0  0  0  0  0
  148.8817  142.3741  156.1081 H   0  0  0  0  0  0  0  0  0  0  0  0
  151.2369  139.6309  155.2907 H   0  0  0  0  0  0  0  0  0  0  0  0
  153.7770  140.6258  159.3964 H   0  0  0  0  0  0  0  0  0  0  0  0
  154.0722  143.6488  161.0373 H   0  0  0  0  0  0  0  0  0  0  0  0
  154.2309  141.9135  161.3095 H   0  0  0  0  0  0  0  0  0  0  0  0
  152.8554  142.7813  161.9859 H   0  0  0  0  0  0  0  0  0  0  0  0
  150.5560  145.1611  159.8099 H   0  0  0  0  0  0  0  0  0  0  0  0
  152.2309  145.2325  160.3562 H   0  0  0  0  0  0  0  0  0  0  0  0
  151.0348  144.3000  161.2709 H   0  0  0  0  0  0  0  0  0  0  0  0
  150.1712  143.7562  157.9598 H   0  0  0  0  0  0  0  0  0  0  0  0
  1  2  1  0  0  0  0
  1 26  1  0  0  0  0
  1 27  1  0  0  0  0
  1 28  1  0  0  0  0
  2  3  1  0  0  0  0
  2 29  1  0  0  0  0
  2 30  1  0  0  0  0
  3  4  1  0  0  0  0
  3 31  1  0  0  0  0
  3 32  1  0  0  0  0
  4 24  1  0  0  0  0
  4  5  1  0  0  0  0
  4 33  1  0  0  0  0
  5  6  1  0  0  0  0
  6  7  2  0  0  0  0
  6  8  1  0  0  0  0
  8  9  1  0  0  0  0
  8 24  1  0  0  0  0
  9 10  1  0  0  0  0
  9 34  1  0  0  0  0
  9 35  1  0  0  0  0
 10 11  1  0  0  0  0
 10 12  1  0  0  0  0
 10 36  1  0  0  0  0
 11 37  1  0  0  0  0
 12 13  1  0  0  0  0
 12 38  1  0  0  0  0
 12 39  1  0  0  0  0
 13 23  1  0  0  0  0
 13 14  1  0  0  0  0
 14 15  2  0  0  0  0
 14 40  1  0  0  0  0
 15 16  1  0  0  0  0
 16 23  2  0  0  0  0
 16 17  1  0  0  0  0
 17 18  2  0  0  0  0
 17 41  1  0  0  0  0
 18 19  1  0  0  0  0
 18 20  1  0  0  0  0
 19 42  1  0  0  0  0
 19 43  1  0  0  0  0
 19 44  1  0  0  0  0
 20 21  1  0  0  0  0
 20 22  2  0  0  0  0
 21 45  1  0  0  0  0
 21 46  1  0  0  0  0
 21 47  1  0  0  0  0
 22 23  1  0  0  0  0
 22 48  1  0  0  0  0
 24 25  2  0  0  0  0
M  CHG  1   5  -1
M  END
> <s_m_source_file>
AV-unprocessed.smi

> <i_m_source_file_index>
1644

> <i_lp_mmshare_version>
43012

> <i_f3d_flags>
0

> <s_epik_input>
W0NIM11bQ0gyXVtDSDJdW0NAQEhdMVtOSF1DKD1PKU4oQzE9TylbQ0gyXVtDQEhdKFtPSF0pW0NIMl1uKFtjSF1uMiljKGMyMylbY0hdYyhbQ0gzXSljKFtjSF0zKVtDSDNd

> <s_epik_cmdline>
J2VwaWtfcHl0aG9uJywgJy1waCcsICc3LjAnLCAnLXRuJywgJzgnLCAnLW1hJywgJzIwMCcsICctbWV0YWxfYmluZGluZycsICctaW1hZScsICc8aW5maWxlLm1hZT4nLCAnLW9tYWUnLCAnPG91dGZpbGUubWFlPic=

> <r_lp_tautomer_probability>
1

> <r_epik_Ionization_Penalty>
5.95212

> <r_epik_Ionization_Penalty_Charging>
5.84419

> <r_epik_Ionization_Penalty_Neutral>
0.107924

> <r_epik_State_Penalty>
5.94088

> <r_epik_Charging_Adjusted_Penalty>
11.7851

> <i_epik_Tot_Q>
-1

> <i_epik_Tot_abs_Q>
1

> <r_epik_Metal_State_Penalty>
1.99095

> <b_epik_Metal_Only>
1

> <s_lp_Force_Field>
OPLS_2005

> <r_lp_Energy>
16.2411

> <b_lp_Chiralities_Consistent>
1

> <s_lp_Variant>
AV-unprocessed.smi:1644-11

> <Gold.Version>
5.8.1

> <Gold.Id.Protein>
6NUR|6NUR_protein|mol2

> <Gold.PLP.Fitness>
53.2069

> <Gold.PLP.PLP>
-45.4281

> <Gold.PLP.part.hbond>
-2.6086

> <Gold.PLP.part.metal>
0.0000

> <Gold.PLP.part.buried>
-2.4879

> <Gold.PLP.part.nonpolar>
-38.8426

> <Gold.PLP.part.repulsive>
0.2588

> <Gold.PLP.ligand.clash>
0.0268

> <Gold.PLP.ligand.torsion>
0.6375

> <Gold.PLP.Chemscore.Hbond>
2.9825

> <Gold.PLP.Chemscore.CHOScore>
0.0000

> <Gold.PLP.Chemscore.Metal>
0.0000

> <Gold.Chemscore.Hbonds>
donor molecule, donor type, donor heavy atom, donor atom, acceptor molecule, acceptor atom, score
      L1  H    11    37       P1  7957  0.56
      P1  H  7989  7998       L1    11  0.41
      P1  H  7997  8010       L1    15  0.96
      P1  H  8011  8017       L1    11  0.88

> <Gold.PLP.Chemscore.Internal.Correction>
0.1330

> <Gold.Rescore>
     Score         DG    S(hbond)    S(metal)    S(lipo)     H(rot)  DE(clash)    DE(int)     intcor
     12.57     -16.27       1.42        0.00     109.70       2.65       1.13       2.57       ----

> <Gold.Chemscore.Fitness>
12.5706

> <Gold.Chemscore.DG>
-16.2652

> <Gold.Chemscore.ZeroCoef>
-5.4800

> <Gold.Chemscore.Hbond>
1.4164

> <Gold.Chemscore.Metal>
0.0000

> <Gold.Chemscore.Lipo>
109.6990

> <Gold.Chemscore.Internal_Hbond>
0.0000

> <Gold.Chemscore.DEClash>
1.1285

> <Gold.Chemscore.DEInternal>
2.5661

> <Gold.Chemscore.Rot>
2.6486

> <Gold.Chemscore.Internal.Correction>
   9.000000E+99

> <Gold.Chemscore.Hbonds>
donor molecule, donor type, donor heavy atom, donor atom, acceptor molecule, acceptor atom, score
      L1  H    11    37       P1  7957  0.56
      P1  H  7989  7998       L1    11  0.32
      P1  H  7997  8010       L1    15  0.23
      P1  H  8011  8017       L1    11  0.07

> <Gold.Chemscore.Hbond.Weighted>
-4.7308

> <Gold.Chemscore.Metal.Weighted>
-0.0000

> <Gold.Chemscore.Lipo.Weighted>
-12.8348

> <Gold.Chemscore.Internal_Hbond.Weighted>
0.0000

> <Gold.Chemscore.DEClash.Weighted>
1.1285

> <Gold.Chemscore.DEInternal.Weighted>
2.5661

> <Gold.Chemscore.Rot.Weighted>
6.7804

> <Gold.Chemscore.Internal.Correction.Weighted>
   9.000000E+99

> <Gold.Protein.RotatedTorsions>
[ 6907 6896 6895 6894 ] final  -52.17 input  -60.11 | X-H torsion
[ 7974 7965 7964 7962 ] final   22.51 input  175.53 | X-H torsion
[ 8008 7997 7996 7995 ] final   67.29 input   59.86 | X-H torsion
[ 10167 10162 10161 10158 ] final  131.43 input  -65.29 | X-H torsion
[ 10718 10713 10712 10709 ] final   95.48 input   66.30 | X-H torsion
[ 10763 10752 10751 10750 ] final -134.81 input  -60.55 | X-H torsion
[ 11005 11000 10999 10996 ] final    7.30 input  -57.11 | X-H torsion

> <Gold.Protein.ActiveResidues>
 VAL166  LYS551  ARG553  GLY616  TRP617  ASP618  TYR619  PRO620  LYS621  CYS622 
 ASP623  PHE694  ASN695  SER759  ASP760  ASP761  ALA762  ILE779  LEU786  VAL792 
 PHE793  MET794  SER795  GLU796  ALA797  LYS798  CYS799  TRP800  GLU811  SER814 

> <Gold.Protein.RotatedAtoms>
  150.8543  134.7877  159.7032 H   0  0  0  0  0  0  0  0  0  0  0  0  # atno 6907 bound_to 6896
  152.4599  134.5204  159.9791 H   0  0  0  0  0  0  0  0  0  0  0  0  # atno 6908 bound_to 6896
  151.5320  133.3409  159.2955 H   0  0  0  0  0  0  0  0  0  0  0  0  # atno 6909 bound_to 6896
  146.2025  139.7875  142.8750 H   0  0  0  0  0  0  0  0  0  0  0  0  # atno 7974 bound_to 7965
  155.6906  140.3496  155.4892 H   0  0  0  0  0  0  0  0  0  0  0  0  # atno 8008 bound_to 7997
  155.9527  140.1122  157.0985 H   0  0  0  0  0  0  0  0  0  0  0  0  # atno 8009 bound_to 7997
  154.4125  140.1191  156.5060 H   0  0  0  0  0  0  0  0  0  0  0  0  # atno 8010 bound_to 7997
  139.5384  144.6706  151.4707 H   0  0  0  0  0  0  0  0  0  0  0  0  # atno 10167 bound_to 10162
  157.6938  131.0547  150.4345 H   0  0  0  0  0  0  0  0  0  0  0  0  # atno 10718 bound_to 10713
  154.8713  135.3723  154.4796 H   0  0  0  0  0  0  0  0  0  0  0  0  # atno 10763 bound_to 10752
  153.5451  135.7026  153.5623 H   0  0  0  0  0  0  0  0  0  0  0  0  # atno 10764 bound_to 10752
  153.3767  135.4007  155.1792 H   0  0  0  0  0  0  0  0  0  0  0  0  # atno 10765 bound_to 10752
  140.5498  134.0294  155.7933 H   0  0  0  0  0  0  0  0  0  0  0  0  # atno 11005 bound_to 11000
  145.3433  141.0292  143.3380 LP  0  0  0  0  0  0  0  0  0  0  0  0  # atno 17320 bound_to 7965
  144.8717  139.5029  143.6765 LP  0  0  0  0  0  0  0  0  0  0  0  0  # atno 17321 bound_to 7965
  140.6602  143.8514  150.6880 LP  0  0  0  0  0  0  0  0  0  0  0  0  # atno 17342 bound_to 10162
  140.1906  143.4040  152.1866 LP  0  0  0  0  0  0  0  0  0  0  0  0  # atno 17343 bound_to 10162
  156.4709  130.4052  149.6519 LP  0  0  0  0  0  0  0  0  0  0  0  0  # atno 17370 bound_to 10713
  156.3599  130.7476  151.2447 LP  0  0  0  0  0  0  0  0  0  0  0  0  # atno 17371 bound_to 10713
  141.1178  133.9511  157.2789 LP  0  0  0  0  0  0  0  0  0  0  0  0  # atno 17394 bound_to 11000
  139.9461  135.0184  156.8855 LP  0  0  0  0  0  0  0  0  0  0  0  0  # atno 17395 bound_to 11000

$$$$
