AV-unprocessed.smi:767|AV-procd|sdf|3670|dock1
  -GOLD-   22720 1 83D 1   1.00000     0.00000
 Structure written by MMmdl.
 48 50  0  0  0  0  0  0  0  0  2 V2000
  143.7421  132.5665  148.8058 C   0  0  0  0  0  0  0  0  0  0  0  0
  144.4256  133.1982  149.9999 C   0  0  0  0  0  0  0  0  0  0  0  0
  145.7209  132.8178  150.4102 C   0  0  0  0  0  0  0  0  0  0  0  0
  146.3011  133.4490  151.5295 C   0  0  0  0  0  0  0  0  0  0  0  0
  145.5777  134.4498  152.2147 C   0  0  0  0  0  0  0  0  0  0  0  0
  146.1917  135.1676  153.4055 C   0  0  0  0  0  0  0  0  0  0  0  0
  146.2018  136.7050  153.2693 C   0  0  0  0  0  0  0  0  0  0  0  0
  147.4491  137.3177  153.7179 N   0  0  0  0  0  0  0  0  0  0  0  0
  147.5995  138.0455  154.8328 C   0  0  0  0  0  0  0  0  0  0  0  0
  146.6887  138.3035  155.6192 O   0  0  0  0  0  0  0  0  0  0  0  0
  148.8702  138.4326  154.9980 N   0  0  0  0  0  0  0  0  0  0  0  0
  149.3741  139.2155  156.1278 C   0  0  1  0  0  0  0  0  0  0  0  0
  150.8587  138.9320  156.4645 C   0  0  1  0  0  0  0  0  0  0  0  0
  151.6247  137.7609  155.9007 C   0  0  0  0  0  0  0  0  0  0  0  0
  152.3281  138.3644  154.6815 C   0  0  0  0  0  0  0  0  0  0  0  0
  151.5988  139.5546  154.3873 O   0  0  0  0  0  0  0  0  0  0  0  0
  151.2127  140.1487  155.6255 C   0  0  1  0  0  0  0  0  0  0  0  0
  149.7607  140.6624  155.7216 C   0  0  0  0  0  0  0  0  0  0  0  0
  149.1608  141.2571  154.4401 C   0  0  0  0  0  0  0  0  0  0  0  0
  149.5388  141.7046  156.8222 C   0  0  0  0  0  0  0  0  0  0  0  0
  144.2822  134.7827  151.7640 C   0  0  0  0  0  0  0  0  0  0  0  0
  143.7609  134.1543  150.6874 N   0  3  0  0  0  0  0  0  0  0  0  0
  144.4770  132.1649  148.1074 H   0  0  0  0  0  0  0  0  0  0  0  0
  143.1348  133.2988  148.2724 H   0  0  0  0  0  0  0  0  0  0  0  0
  143.0944  131.7510  149.1288 H   0  0  0  0  0  0  0  0  0  0  0  0
  146.2676  132.0560  149.8735 H   0  0  0  0  0  0  0  0  0  0  0  0
  147.2966  133.1748  151.8478 H   0  0  0  0  0  0  0  0  0  0  0  0
  145.6490  134.8822  154.3071 H   0  0  0  0  0  0  0  0  0  0  0  0
  147.2125  134.8100  153.5466 H   0  0  0  0  0  0  0  0  0  0  0  0
  146.0788  136.9735  152.2199 H   0  0  0  0  0  0  0  0  0  0  0  0
  145.3538  137.1416  153.7987 H   0  0  0  0  0  0  0  0  0  0  0  0
  148.2619  137.1692  153.1379 H   0  0  0  0  0  0  0  0  0  0  0  0
  149.5471  138.1626  154.2993 H   0  0  0  0  0  0  0  0  0  0  0  0
  148.7265  139.1837  157.0062 H   0  0  0  0  0  0  0  0  0  0  0  0
  151.0558  139.1144  157.5220 H   0  0  0  0  0  0  0  0  0  0  0  0
  152.3482  137.3620  156.6122 H   0  0  0  0  0  0  0  0  0  0  0  0
  150.9675  136.9422  155.6163 H   0  0  0  0  0  0  0  0  0  0  0  0
  153.3568  138.6313  154.9275 H   0  0  0  0  0  0  0  0  0  0  0  0
  152.3457  137.6852  153.8289 H   0  0  0  0  0  0  0  0  0  0  0  0
  151.9814  140.7866  156.0641 H   0  0  0  0  0  0  0  0  0  0  0  0
  149.5789  142.2403  154.2225 H   0  0  0  0  0  0  0  0  0  0  0  0
  148.0795  141.3708  154.5223 H   0  0  0  0  0  0  0  0  0  0  0  0
  149.3550  140.6359  153.5658 H   0  0  0  0  0  0  0  0  0  0  0  0
  150.0390  142.6453  156.5897 H   0  0  0  0  0  0  0  0  0  0  0  0
  149.9265  141.3659  157.7836 H   0  0  0  0  0  0  0  0  0  0  0  0
  148.4791  141.9197  156.9617 H   0  0  0  0  0  0  0  0  0  0  0  0
  143.6557  135.5339  152.2226 H   0  0  0  0  0  0  0  0  0  0  0  0
  142.8248  134.4157  150.3769 H   0  0  0  0  0  0  0  0  0  0  0  0
  1  2  1  0  0  0  0
  1 23  1  0  0  0  0
  1 24  1  0  0  0  0
  1 25  1  0  0  0  0
  2 22  1  0  0  0  0
  2  3  2  0  0  0  0
  3  4  1  0  0  0  0
  3 26  1  0  0  0  0
  4  5  2  0  0  0  0
  4 27  1  0  0  0  0
  5  6  1  0  0  0  0
  5 21  1  0  0  0  0
  6  7  1  0  0  0  0
  6 28  1  0  0  0  0
  6 29  1  0  0  0  0
  7  8  1  0  0  0  0
  7 30  1  0  0  0  0
  7 31  1  0  0  0  0
  8  9  1  0  0  0  0
  8 32  1  0  0  0  0
  9 10  2  0  0  0  0
  9 11  1  0  0  0  0
 11 12  1  0  0  0  0
 11 33  1  0  0  0  0
 12 18  1  0  0  0  0
 12 13  1  0  0  0  0
 12 34  1  0  0  0  0
 13 17  1  0  0  0  0
 13 14  1  0  0  0  0
 13 35  1  0  0  0  0
 14 15  1  0  0  0  0
 14 36  1  0  0  0  0
 14 37  1  0  0  0  0
 15 16  1  0  0  0  0
 15 38  1  0  0  0  0
 15 39  1  0  0  0  0
 16 17  1  0  0  0  0
 17 18  1  0  0  0  0
 17 40  1  0  0  0  0
 18 19  1  0  0  0  0
 18 20  1  0  0  0  0
 19 41  1  0  0  0  0
 19 42  1  0  0  0  0
 19 43  1  0  0  0  0
 20 44  1  0  0  0  0
 20 45  1  0  0  0  0
 20 46  1  0  0  0  0
 21 22  2  0  0  0  0
 21 47  1  0  0  0  0
 22 48  1  0  0  0  0
M  CHG  1  22   1
M  END
> <s_m_source_file>
AV-unprocessed.smi

> <i_m_source_file_index>
767

> <i_lp_mmshare_version>
43012

> <i_f3d_flags>
0

> <s_epik_input>
W0NIM11jMVtjSF1bY0hdYyhbY0hdbjEpW0NIMl1bQ0gyXVtOSF1DKD1PKVtOSF1bQ0BIXTJDKFtDSDNdKShbQ0gzXSlbQ0BIXShbQ0BASF0yMylPW0NIMl1bQ0gyXTM=

> <s_epik_cmdline>
J2VwaWtfcHl0aG9uJywgJy1waCcsICc3LjAnLCAnLXRuJywgJzgnLCAnLW1hJywgJzIwMCcsICctbWV0YWxfYmluZGluZycsICctaW1hZScsICc8aW5maWxlLm1hZT4nLCAnLW9tYWUnLCAnPG91dGZpbGUubWFlPic=

> <r_epik_Ionization_Penalty>
1.41853

> <r_epik_Ionization_Penalty_Charging>
1.41848

> <r_epik_Ionization_Penalty_Neutral>
5.17407e-05

> <r_epik_State_Penalty>
1.50205

> <r_epik_Charging_Adjusted_Penalty>
2.92053

> <i_epik_Tot_Q>
1

> <i_epik_Tot_abs_Q>
1

> <r_epik_Metal_State_Penalty>
1.5544

> <b_epik_Metal_Only>
0

> <s_lp_Force_Field>
OPLS_2005

> <r_lp_Energy>
40.9756

> <b_lp_Chiralities_Consistent>
1

> <s_lp_Variant>
AV-unprocessed.smi:767-14

> <Gold.Version>
5.8.1

> <Gold.Id.Protein>
6NUR|6NUR_protein|mol2

> <Gold.PLP.Fitness>
45.0982

> <Gold.PLP.PLP>
-34.4110

> <Gold.PLP.part.hbond>
-2.9589

> <Gold.PLP.part.metal>
0.0000

> <Gold.PLP.part.buried>
-0.8898

> <Gold.PLP.part.nonpolar>
-28.5470

> <Gold.PLP.part.repulsive>
0.1384

> <Gold.PLP.ligand.clash>
0.0000

> <Gold.PLP.ligand.torsion>
0.6273

> <Gold.PLP.Chemscore.Hbond>
3.9120

> <Gold.PLP.Chemscore.CHOScore>
0.0000

> <Gold.PLP.Chemscore.Metal>
0.0000

> <Gold.Chemscore.Hbonds>
donor molecule, donor type, donor heavy atom, donor atom, acceptor molecule, acceptor atom, score
      L1  H     8    32       P1  7948  0.93
      L1  H    22    48       P1 10186  2.00
      P1  H  7989  7998       L1    16  1.00

> <Gold.PLP.Chemscore.Internal.Correction>
0.2058

> <Gold.Rescore>
     Score         DG    S(hbond)    S(metal)    S(lipo)     H(rot)  DE(clash)    DE(int)     intcor
     20.84     -21.67       2.76        0.00      92.92       1.52       0.11       0.72       ----

> <Gold.Chemscore.Fitness>
20.8362

> <Gold.Chemscore.DG>
-21.6660

> <Gold.Chemscore.ZeroCoef>
-5.4800

> <Gold.Chemscore.Hbond>
2.7586

> <Gold.Chemscore.Metal>
0.0000

> <Gold.Chemscore.Lipo>
92.9212

> <Gold.Chemscore.Internal_Hbond>
0.0000

> <Gold.Chemscore.DEClash>
0.1103

> <Gold.Chemscore.DEInternal>
0.7196

> <Gold.Chemscore.Rot>
1.5233

> <Gold.Chemscore.Internal.Correction>
   9.000000E+99

> <Gold.Chemscore.Hbonds>
donor molecule, donor type, donor heavy atom, donor atom, acceptor molecule, acceptor atom, score
      L1  H     8    32       P1  7948  0.90
      L1  H    22    48       P1 10186  0.63
      P1  H  7989  7998       L1    16  0.25

> <Gold.Chemscore.Hbond.Weighted>
-9.2138

> <Gold.Chemscore.Metal.Weighted>
-0.0000

> <Gold.Chemscore.Lipo.Weighted>
-10.8718

> <Gold.Chemscore.Internal_Hbond.Weighted>
0.0000

> <Gold.Chemscore.DEClash.Weighted>
0.1103

> <Gold.Chemscore.DEInternal.Weighted>
0.7196

> <Gold.Chemscore.Rot.Weighted>
3.8995

> <Gold.Chemscore.Internal.Correction.Weighted>
   9.000000E+99

> <Gold.Protein.RotatedTorsions>
[ 6907 6896 6895 6894 ] final   70.19 input  -60.11 | X-H torsion
[ 7974 7965 7964 7962 ] final  -72.27 input  175.53 | X-H torsion
[ 8008 7997 7996 7995 ] final  -94.30 input   59.86 | X-H torsion
[ 10167 10162 10161 10158 ] final  162.44 input  -65.29 | X-H torsion
[ 10718 10713 10712 10709 ] final -138.94 input   66.30 | X-H torsion
[ 10763 10752 10751 10750 ] final  -10.79 input  -60.55 | X-H torsion
[ 11005 11000 10999 10996 ] final -150.55 input  -57.11 | X-H torsion

> <Gold.Protein.ActiveResidues>
 VAL166  LYS551  ARG553  GLY616  TRP617  ASP618  TYR619  PRO620  LYS621  CYS622 
 ASP623  PHE694  ASN695  SER759  ASP760  ASP761  ALA762  ILE779  LEU786  VAL792 
 PHE793  MET794  SER795  GLU796  ALA797  LYS798  CYS799  TRP800  GLU811  SER814 

> <Gold.Protein.RotatedAtoms>
  152.4734  134.4905  159.9693 H   0  0  0  0  0  0  0  0  0  0  0  0  # atno 6907 bound_to 6896
  151.4927  133.3515  159.2864 H   0  0  0  0  0  0  0  0  0  0  0  0  # atno 6908 bound_to 6896
  150.8757  134.8166  159.7249 H   0  0  0  0  0  0  0  0  0  0  0  0  # atno 6909 bound_to 6896
  145.6673  140.9233  143.0902 H   0  0  0  0  0  0  0  0  0  0  0  0  # atno 7974 bound_to 7965
  154.7467  140.0490  157.0858 H   0  0  0  0  0  0  0  0  0  0  0  0  # atno 8008 bound_to 7997
  155.0109  140.3136  155.4811 H   0  0  0  0  0  0  0  0  0  0  0  0  # atno 8009 bound_to 7997
  156.2876  140.2184  156.5223 H   0  0  0  0  0  0  0  0  0  0  0  0  # atno 8010 bound_to 7997
  139.4861  144.4437  151.8919 H   0  0  0  0  0  0  0  0  0  0  0  0  # atno 10167 bound_to 10162
  156.3050  130.7450  151.1511 H   0  0  0  0  0  0  0  0  0  0  0  0  # atno 10718 bound_to 10713
  153.4743  135.7017  153.5975 H   0  0  0  0  0  0  0  0  0  0  0  0  # atno 10763 bound_to 10752
  153.4215  135.3824  155.2114 H   0  0  0  0  0  0  0  0  0  0  0  0  # atno 10764 bound_to 10752
  154.8724  135.3929  154.4185 H   0  0  0  0  0  0  0  0  0  0  0  0  # atno 10765 bound_to 10752
  140.7390  134.3535  157.5151 H   0  0  0  0  0  0  0  0  0  0  0  0  # atno 11005 bound_to 11000
  144.7068  139.8527  143.7427 LP  0  0  0  0  0  0  0  0  0  0  0  0  # atno 17320 bound_to 7965
  146.1075  139.4076  143.0308 LP  0  0  0  0  0  0  0  0  0  0  0  0  # atno 17321 bound_to 7965
  140.3890  144.2640  150.5901 LP  0  0  0  0  0  0  0  0  0  0  0  0  # atno 17342 bound_to 10162
  140.5163  143.2277  151.8457 LP  0  0  0  0  0  0  0  0  0  0  0  0  # atno 17343 bound_to 10162
  157.7377  131.0548  150.5337 LP  0  0  0  0  0  0  0  0  0  0  0  0  # atno 17370 bound_to 10713
  156.5470  130.4222  149.6126 LP  0  0  0  0  0  0  0  0  0  0  0  0  # atno 17371 bound_to 10713
  139.8810  134.9069  156.2932 LP  0  0  0  0  0  0  0  0  0  0  0  0  # atno 17394 bound_to 11000
  140.9853  133.7242  156.0733 LP  0  0  0  0  0  0  0  0  0  0  0  0  # atno 17395 bound_to 11000

$$$$
