AV-unprocessed.smi:648|AV-procd|sdf|3172|dock5
  -GOLD-   22720 0 93D 1   1.00000     0.00000
 Structure written by MMmdl.
 46 47  0  0  0  0  0  0  0  0  2 V2000
  142.1890  135.3031  153.9717 C   0  0  0  0  0  0  0  0  0  0  0  0
  143.3366  135.4512  152.9616 C   0  0  2  0  0  0  0  0  0  0  0  0
  143.5216  134.1592  152.1424 C   0  0  0  0  0  0  0  0  0  0  0  0
  144.6567  134.2398  151.0935 C   0  0  0  0  0  0  0  0  0  0  0  0
  144.9465  132.8120  150.5814 C   0  0  0  0  0  0  0  0  0  0  0  0
  144.2106  135.0615  149.8622 C   0  0  0  0  0  0  0  0  0  0  0  0
  145.9627  134.7842  151.7473 C   0  0  0  0  0  0  0  0  0  0  0  0
  145.8472  136.0179  152.6944 C   0  0  2  0  0  0  0  0  0  0  0  0
  145.6823  137.3296  151.8787 C   0  0  0  0  0  0  0  0  0  0  0  0
  146.7182  137.4917  150.9282 O   0  0  0  0  0  0  0  0  0  0  0  0
  147.1403  136.1787  153.4230 N   0  3  0  0  0  0  0  0  0  0  0  0
  147.3635  137.3919  154.2439 C   0  0  0  0  0  0  0  0  0  0  0  0
  148.5483  137.1879  155.1987 C   0  0  0  0  0  0  0  0  0  0  0  0
  149.6577  138.0614  154.8707 N   0  0  0  0  0  0  0  0  0  0  0  0
  150.0621  138.5522  153.6979 C   0  0  0  0  0  0  0  0  0  0  0  0
  151.1323  139.3298  153.7842 N   0  0  0  0  0  0  0  0  0  0  0  0
  151.3522  139.2677  155.1314 C   0  0  0  0  0  0  0  0  0  0  0  0
  150.4959  138.5207  155.8288 N   0  0  0  0  0  0  0  0  0  0  0  0
  144.6548  135.8128  153.6715 C   0  0  0  0  0  0  0  0  0  0  0  0
  142.3902  134.5082  154.6907 H   0  0  0  0  0  0  0  0  0  0  0  0
  141.2510  135.0665  153.4686 H   0  0  0  0  0  0  0  0  0  0  0  0
  142.0366  136.2267  154.5311 H   0  0  0  0  0  0  0  0  0  0  0  0
  143.0546  136.2615  152.2912 H   0  0  0  0  0  0  0  0  0  0  0  0
  143.7304  133.3429  152.8360 H   0  0  0  0  0  0  0  0  0  0  0  0
  142.5842  133.8944  151.6508 H   0  0  0  0  0  0  0  0  0  0  0  0
  145.7396  132.8124  149.8323 H   0  0  0  0  0  0  0  0  0  0  0  0
  144.0639  132.3636  150.1233 H   0  0  0  0  0  0  0  0  0  0  0  0
  145.2602  132.1479  151.3875 H   0  0  0  0  0  0  0  0  0  0  0  0
  145.0471  135.2639  149.1927 H   0  0  0  0  0  0  0  0  0  0  0  0
  143.7475  136.0099  150.1169 H   0  0  0  0  0  0  0  0  0  0  0  0
  143.4609  134.5205  149.2832 H   0  0  0  0  0  0  0  0  0  0  0  0
  146.3803  133.9608  152.3248 H   0  0  0  0  0  0  0  0  0  0  0  0
  146.7070  134.9801  150.9741 H   0  0  0  0  0  0  0  0  0  0  0  0
  144.7290  137.3364  151.3490 H   0  0  0  0  0  0  0  0  0  0  0  0
  145.6983  138.2178  152.4996 H   0  0  0  0  0  0  0  0  0  0  0  0
  147.4852  137.0329  151.2371 H   0  0  0  0  0  0  0  0  0  0  0  0
  147.2558  135.3697  154.0162 H   0  0  0  0  0  0  0  0  0  0  0  0
  147.5766  138.2402  153.5928 H   0  0  0  0  0  0  0  0  0  0  0  0
  146.4723  137.6395  154.8190 H   0  0  0  0  0  0  0  0  0  0  0  0
  148.2479  137.3825  156.2294 H   0  0  0  0  0  0  0  0  0  0  0  0
  148.8971  136.1549  155.1584 H   0  0  0  0  0  0  0  0  0  0  0  0
  149.5638  138.3398  152.7633 H   0  0  0  0  0  0  0  0  0  0  0  0
  152.1671  139.7887  155.6121 H   0  0  0  0  0  0  0  0  0  0  0  0
  144.5155  136.6986  154.2920 H   0  0  0  0  0  0  0  0  0  0  0  0
  144.8659  134.9966  154.3619 H   0  0  0  0  0  0  0  0  0  0  0  0
  147.8718  136.1580  152.7260 H   0  0  0  0  0  0  0  0  0  0  0  0
  1  2  1  0  0  0  0
  1 20  1  0  0  0  0
  1 21  1  0  0  0  0
  1 22  1  0  0  0  0
  2 19  1  0  0  0  0
  2  3  1  0  0  0  0
  2 23  1  0  0  0  0
  3  4  1  0  0  0  0
  3 24  1  0  0  0  0
  3 25  1  0  0  0  0
  4  5  1  0  0  0  0
  4  6  1  0  0  0  0
  4  7  1  0  0  0  0
  5 26  1  0  0  0  0
  5 27  1  0  0  0  0
  5 28  1  0  0  0  0
  6 29  1  0  0  0  0
  6 30  1  0  0  0  0
  6 31  1  0  0  0  0
  7  8  1  0  0  0  0
  7 32  1  0  0  0  0
  7 33  1  0  0  0  0
  8  9  1  0  0  0  0
  8 11  1  0  0  0  0
  8 19  1  0  0  0  0
  9 10  1  0  0  0  0
  9 34  1  0  0  0  0
  9 35  1  0  0  0  0
 10 36  1  0  0  0  0
 11 12  1  0  0  0  0
 11 37  1  0  0  0  0
 11 46  1  0  0  0  0
 12 13  1  0  0  0  0
 12 38  1  0  0  0  0
 12 39  1  0  0  0  0
 13 14  1  0  0  0  0
 13 40  1  0  0  0  0
 13 41  1  0  0  0  0
 14 18  1  0  0  0  0
 14 15  1  0  0  0  0
 15 16  2  0  0  0  0
 15 42  1  0  0  0  0
 16 17  1  0  0  0  0
 17 18  2  0  0  0  0
 17 43  1  0  0  0  0
 19 44  1  0  0  0  0
 19 45  1  0  0  0  0
M  CHG  1  11   1
M  END
> <s_m_source_file>
AV-unprocessed.smi

> <i_m_source_file_index>
648

> <i_lp_mmshare_version>
43012

> <i_f3d_flags>
0

> <s_epik_input>
W0NIM11DMShbQ0gzXSlbQ0gyXVtDQEBIXShbQ0gzXSlbQ0gyXVtDQF0oW0NIMl0xKShbQ0gyXVtPSF0pW05IXVtDSDJdW0NIMl1uMltjSF1uW2NIXW4y

> <s_epik_cmdline>
J2VwaWtfcHl0aG9uJywgJy1waCcsICc3LjAnLCAnLXRuJywgJzgnLCAnLW1hJywgJzIwMCcsICctbWV0YWxfYmluZGluZycsICctaW1hZScsICc8aW5maWxlLm1hZT4nLCAnLW9tYWUnLCAnPG91dGZpbGUubWFlPic=

> <r_lp_tautomer_probability>
1

> <r_epik_Ionization_Penalty>
0.00942316

> <r_epik_Ionization_Penalty_Charging>
0.00942185

> <r_epik_Ionization_Penalty_Neutral>
1.31257e-06

> <r_epik_State_Penalty>
0.00715409

> <r_epik_Charging_Adjusted_Penalty>
0.0165759

> <i_epik_Tot_Q>
1

> <i_epik_Tot_abs_Q>
1

> <r_epik_Metal_State_Penalty>
0.00715563

> <b_epik_Metal_Only>
0

> <s_lp_Force_Field>
OPLS_2005

> <r_lp_Energy>
31.5344

> <b_lp_Chiralities_Consistent>
1

> <s_lp_Variant>
AV-unprocessed.smi:648-3

> <Gold.Version>
5.8.1

> <Gold.Id.Protein>
6NUR|6NUR_protein|mol2

> <Gold.PLP.Fitness>
44.0309

> <Gold.PLP.PLP>
-28.2519

> <Gold.PLP.part.hbond>
-4.0000

> <Gold.PLP.part.metal>
0.0000

> <Gold.PLP.part.buried>
-0.3146

> <Gold.PLP.part.nonpolar>
-23.1795

> <Gold.PLP.part.repulsive>
0.1544

> <Gold.PLP.ligand.clash>
0.0000

> <Gold.PLP.ligand.torsion>
0.8610

> <Gold.PLP.Chemscore.Hbond>
4.0000

> <Gold.PLP.Chemscore.CHOScore>
1.7955

> <Gold.PLP.Chemscore.Metal>
0.0000

> <Gold.Chemscore.Hbonds>
donor molecule, donor type, donor heavy atom, donor atom, acceptor molecule, acceptor atom, score
      L1  H    10    36       P1  7948  1.00
      L1  H    11    46       P1  7948  1.27
      P1  H  7989  7998       L1    16  0.99
      L1  C    15    42       P1  7948  0.98
      L1  C    15    42       P1  7957  0.74

> <Gold.PLP.Chemscore.Internal.Correction>
0.1144

> <Gold.Rescore>
     Score         DG    S(hbond)    S(metal)    S(lipo)     H(rot)  DE(clash)    DE(int)     intcor
     12.76     -13.57       2.99        0.00      53.15       3.17       0.19       0.63       ----

> <Gold.Chemscore.Fitness>
12.7568

> <Gold.Chemscore.DG>
-13.5739

> <Gold.Chemscore.ZeroCoef>
-5.4800

> <Gold.Chemscore.Hbond>
2.9950

> <Gold.Chemscore.Metal>
0.0000

> <Gold.Chemscore.Lipo>
53.1497

> <Gold.Chemscore.Internal_Hbond>
0.0000

> <Gold.Chemscore.DEClash>
0.1863

> <Gold.Chemscore.DEInternal>
0.6308

> <Gold.Chemscore.Rot>
3.1750

> <Gold.Chemscore.Internal.Correction>
   9.000000E+99

> <Gold.Chemscore.Hbonds>
donor molecule, donor type, donor heavy atom, donor atom, acceptor molecule, acceptor atom, score
      L1  H    10    36       P1  7948  1.00
      L1  H    11    46       P1  7948  0.63
      P1  H  7989  7998       L1    16  0.28

> <Gold.Chemscore.Hbond.Weighted>
-10.0033

> <Gold.Chemscore.Metal.Weighted>
-0.0000

> <Gold.Chemscore.Lipo.Weighted>
-6.2185

> <Gold.Chemscore.Internal_Hbond.Weighted>
0.0000

> <Gold.Chemscore.DEClash.Weighted>
0.1863

> <Gold.Chemscore.DEInternal.Weighted>
0.6308

> <Gold.Chemscore.Rot.Weighted>
8.1279

> <Gold.Chemscore.Internal.Correction.Weighted>
   9.000000E+99

> <Gold.Protein.RotatedTorsions>
[ 6907 6896 6895 6894 ] final  142.55 input  -60.11 | X-H torsion
[ 7974 7965 7964 7962 ] final -177.15 input  175.53 | X-H torsion
[ 8008 7997 7996 7995 ] final  156.05 input   59.86 | X-H torsion
[ 10167 10162 10161 10158 ] final -128.80 input  -65.29 | X-H torsion
[ 10718 10713 10712 10709 ] final   85.89 input   66.30 | X-H torsion
[ 10763 10752 10751 10750 ] final   63.26 input  -60.55 | X-H torsion
[ 11005 11000 10999 10996 ] final  167.30 input  -57.11 | X-H torsion

> <Gold.Protein.ActiveResidues>
 VAL166  LYS551  ARG553  GLY616  TRP617  ASP618  TYR619  PRO620  LYS621  CYS622 
 ASP623  PHE694  ASN695  SER759  ASP760  ASP761  ALA762  ILE779  LEU786  VAL792 
 PHE793  MET794  SER795  GLU796  ALA797  LYS798  CYS799  TRP800  GLU811  SER814 

> <Gold.Protein.RotatedAtoms>
  152.2174  133.4957  159.5142 H   0  0  0  0  0  0  0  0  0  0  0  0  # atno 6907 bound_to 6896
  150.7004  134.1388  159.4106 H   0  0  0  0  0  0  0  0  0  0  0  0  # atno 6908 bound_to 6896
  151.9308  135.0257  160.0580 H   0  0  0  0  0  0  0  0  0  0  0  0  # atno 6909 bound_to 6896
  144.7127  140.1063  143.6413 H   0  0  0  0  0  0  0  0  0  0  0  0  # atno 7974 bound_to 7965
  156.2444  140.1923  156.6896 H   0  0  0  0  0  0  0  0  0  0  0  0  # atno 8008 bound_to 7997
  154.6261  140.0602  156.9701 H   0  0  0  0  0  0  0  0  0  0  0  0  # atno 8009 bound_to 7997
  155.1784  140.3274  155.4382 H   0  0  0  0  0  0  0  0  0  0  0  0  # atno 8010 bound_to 7997
  139.9465  143.6104  152.2488 H   0  0  0  0  0  0  0  0  0  0  0  0  # atno 10167 bound_to 10162
  157.6921  131.0193  150.2891 H   0  0  0  0  0  0  0  0  0  0  0  0  # atno 10718 bound_to 10713
  153.0011  135.5435  154.6323 H   0  0  0  0  0  0  0  0  0  0  0  0  # atno 10763 bound_to 10752
  154.5598  135.2833  155.0932 H   0  0  0  0  0  0  0  0  0  0  0  0  # atno 10764 bound_to 10752
  154.2139  135.6462  153.5176 H   0  0  0  0  0  0  0  0  0  0  0  0  # atno 10765 bound_to 10752
  140.2754  134.7793  157.3712 H   0  0  0  0  0  0  0  0  0  0  0  0  # atno 11005 bound_to 11000
  145.9494  139.2723  143.1221 LP  0  0  0  0  0  0  0  0  0  0  0  0  # atno 17320 bound_to 7965
  145.9340  140.9028  143.0342 LP  0  0  0  0  0  0  0  0  0  0  0  0  # atno 17321 bound_to 7965
  139.6663  144.7662  151.1868 LP  0  0  0  0  0  0  0  0  0  0  0  0  # atno 17342 bound_to 10162
  140.7596  143.5933  150.8774 LP  0  0  0  0  0  0  0  0  0  0  0  0  # atno 17343 bound_to 10162
  156.3425  130.3817  149.7397 LP  0  0  0  0  0  0  0  0  0  0  0  0  # atno 17370 bound_to 10713
  156.4901  130.8081  151.3091 LP  0  0  0  0  0  0  0  0  0  0  0  0  # atno 17371 bound_to 10713
  140.1333  134.5066  155.8088 LP  0  0  0  0  0  0  0  0  0  0  0  0  # atno 17394 bound_to 11000
  141.2171  133.6798  156.7079 LP  0  0  0  0  0  0  0  0  0  0  0  0  # atno 17395 bound_to 11000

$$$$
