AV-unprocessed.smi:912|AV-procd|sdf|4142|dock6
  -GOLD-   22720 2 43D 1   1.00000     0.00000
 Structure written by MMmdl.
 27 27  0  0  0  0  0  0  0  0  2 V2000
  146.8439  138.7702  152.2034 C   0  0  0  0  0  0  0  0  0  0  0  0
  148.2027  138.7145  152.7919 N   0  3  0  0  0  0  0  0  0  0  0  0
  148.3499  138.9927  154.2504 C   0  0  1  0  0  0  0  0  0  0  0  0
  147.6183  140.3114  154.6145 C   0  0  0  0  0  0  0  0  0  0  0  0
  147.7678  137.7832  155.0263 C   0  0  0  0  0  0  0  0  0  0  0  0
  147.4627  136.6815  154.3299 N   0  0  0  0  0  0  0  0  0  0  0  0
  147.5788  137.8412  156.2400 O   0  0  0  0  0  0  0  0  0  0  0  0
  149.8419  139.1359  154.6197 C   0  0  0  0  0  0  0  0  0  0  0  0
  150.8023  138.1333  154.3284 C   0  0  0  0  0  0  0  0  0  0  0  0
  152.1463  138.3447  154.6966 C   0  0  0  0  0  0  0  0  0  0  0  0
  152.5807  139.4595  155.3182 N   0  0  0  0  0  0  0  0  0  0  0  0
  151.6729  140.4169  155.5960 C   0  0  0  0  0  0  0  0  0  0  0  0
  150.3071  140.3046  155.2707 C   0  0  0  0  0  0  0  0  0  0  0  0
  146.8907  138.4474  151.1636 H   0  0  0  0  0  0  0  0  0  0  0  0
  146.4452  139.7844  152.2098 H   0  0  0  0  0  0  0  0  0  0  0  0
  146.1452  138.1136  152.7217 H   0  0  0  0  0  0  0  0  0  0  0  0
  148.5768  137.7920  152.6220 H   0  0  0  0  0  0  0  0  0  0  0  0
  147.7308  140.5632  155.6694 H   0  0  0  0  0  0  0  0  0  0  0  0
  146.5456  140.2625  154.4265 H   0  0  0  0  0  0  0  0  0  0  0  0
  148.0137  141.1495  154.0398 H   0  0  0  0  0  0  0  0  0  0  0  0
  147.0543  135.8814  154.7909 H   0  0  0  0  0  0  0  0  0  0  0  0
  147.6169  136.6656  153.3316 H   0  0  0  0  0  0  0  0  0  0  0  0
  150.5459  137.2091  153.8336 H   0  0  0  0  0  0  0  0  0  0  0  0
  152.8935  137.5942  154.4854 H   0  0  0  0  0  0  0  0  0  0  0  0
  152.0449  141.2998  156.0945 H   0  0  0  0  0  0  0  0  0  0  0  0
  149.6314  141.1080  155.5260 H   0  0  0  0  0  0  0  0  0  0  0  0
  148.7755  139.3820  152.2954 H   0  0  0  0  0  0  0  0  0  0  0  0
  1  2  1  0  0  0  0
  1 14  1  0  0  0  0
  1 15  1  0  0  0  0
  1 16  1  0  0  0  0
  2  3  1  0  0  0  0
  2 17  1  0  0  0  0
  2 27  1  0  0  0  0
  3  4  1  0  0  0  0
  3  5  1  0  0  0  0
  3  8  1  0  0  0  0
  4 18  1  0  0  0  0
  4 19  1  0  0  0  0
  4 20  1  0  0  0  0
  5  6  1  0  0  0  0
  5  7  2  0  0  0  0
  6 21  1  0  0  0  0
  6 22  1  0  0  0  0
  8 13  1  0  0  0  0
  8  9  2  0  0  0  0
  9 10  1  0  0  0  0
  9 23  1  0  0  0  0
 10 11  2  0  0  0  0
 10 24  1  0  0  0  0
 11 12  1  0  0  0  0
 12 13  2  0  0  0  0
 12 25  1  0  0  0  0
 13 26  1  0  0  0  0
M  CHG  1   2   1
M  END
> <s_m_source_file>
AV-unprocessed.smi

> <i_m_source_file_index>
912

> <i_lp_mmshare_version>
43012

> <i_f3d_flags>
0

> <s_epik_input>
W0NIM11bTkhdW0NAQF0oW0NIM10pKEMoPU8pW05IMl0pYzFbY0hdW2NIXW5bY0hdW2NIXTE=

> <s_epik_cmdline>
J2VwaWtfcHl0aG9uJywgJy1waCcsICc3LjAnLCAnLXRuJywgJzgnLCAnLW1hJywgJzIwMCcsICctbWV0YWxfYmluZGluZycsICctaW1hZScsICc8aW5maWxlLm1hZT4nLCAnLW9tYWUnLCAnPG91dGZpbGUubWFlPic=

> <r_epik_Ionization_Penalty>
0.8426

> <r_epik_Ionization_Penalty_Charging>
0.842363

> <r_epik_Ionization_Penalty_Neutral>
0.000236815

> <r_epik_State_Penalty>
0.498415

> <r_epik_Charging_Adjusted_Penalty>
1.34078

> <i_epik_Tot_Q>
1

> <i_epik_Tot_abs_Q>
1

> <r_epik_Metal_State_Penalty>
0.661775

> <b_epik_Metal_Only>
0

> <s_lp_Force_Field>
OPLS_2005

> <r_lp_Energy>
11.5285

> <b_lp_Chiralities_Consistent>
1

> <s_lp_Variant>
AV-unprocessed.smi:912-3

> <Gold.Version>
5.8.1

> <Gold.Id.Protein>
6NUR|6NUR_protein|mol2

> <Gold.PLP.Fitness>
38.1204

> <Gold.PLP.PLP>
-24.3781

> <Gold.PLP.part.hbond>
-4.4743

> <Gold.PLP.part.metal>
0.0000

> <Gold.PLP.part.buried>
-1.7841

> <Gold.PLP.part.nonpolar>
-18.6707

> <Gold.PLP.part.repulsive>
0.0889

> <Gold.PLP.ligand.clash>
0.0000

> <Gold.PLP.ligand.torsion>
0.4790

> <Gold.PLP.Chemscore.Hbond>
4.8960

> <Gold.PLP.Chemscore.CHOScore>
0.0000

> <Gold.PLP.Chemscore.Metal>
0.0000

> <Gold.Chemscore.Hbonds>
donor molecule, donor type, donor heavy atom, donor atom, acceptor molecule, acceptor atom, score
      L1  H     2    17       P1  7948  2.00
      L1  H     2    27       P1  7957  1.00
      L1  H     6    22       P1  7948  0.89
      P1  H  7997  8009       L1    11  0.91

> <Gold.PLP.Chemscore.Internal.Correction>
0.0123

> <Gold.Rescore>
     Score         DG    S(hbond)    S(metal)    S(lipo)     H(rot)  DE(clash)    DE(int)     intcor
     19.21     -20.10       3.89        0.00      53.85       1.83       0.24       0.65       ----

> <Gold.Chemscore.Fitness>
19.2090

> <Gold.Chemscore.DG>
-20.0978

> <Gold.Chemscore.ZeroCoef>
-5.4800

> <Gold.Chemscore.Hbond>
3.8907

> <Gold.Chemscore.Metal>
0.0000

> <Gold.Chemscore.Lipo>
53.8453

> <Gold.Chemscore.Internal_Hbond>
0.0000

> <Gold.Chemscore.DEClash>
0.2406

> <Gold.Chemscore.DEInternal>
0.6483

> <Gold.Chemscore.Rot>
1.8270

> <Gold.Chemscore.Internal.Correction>
   9.000000E+99

> <Gold.Chemscore.Hbonds>
donor molecule, donor type, donor heavy atom, donor atom, acceptor molecule, acceptor atom, score
      L1  H     2    17       P1  7948  1.00
      L1  H     2    27       P1  7957  0.94
      L1  H     6    22       P1  7948  0.81
      P1  H  7997  8009       L1    11  0.44

> <Gold.Chemscore.Hbond.Weighted>
-12.9950

> <Gold.Chemscore.Metal.Weighted>
-0.0000

> <Gold.Chemscore.Lipo.Weighted>
-6.2999

> <Gold.Chemscore.Internal_Hbond.Weighted>
0.0000

> <Gold.Chemscore.DEClash.Weighted>
0.2406

> <Gold.Chemscore.DEInternal.Weighted>
0.6483

> <Gold.Chemscore.Rot.Weighted>
4.6771

> <Gold.Chemscore.Internal.Correction.Weighted>
   9.000000E+99

> <Gold.Protein.RotatedTorsions>
[ 6907 6896 6895 6894 ] final -141.33 input  -60.11 | X-H torsion
[ 7974 7965 7964 7962 ] final -104.96 input  175.53 | X-H torsion
[ 8008 7997 7996 7995 ] final -148.36 input   59.86 | X-H torsion
[ 10167 10162 10161 10158 ] final  -95.24 input  -65.29 | X-H torsion
[ 10718 10713 10712 10709 ] final   48.20 input   66.30 | X-H torsion
[ 10763 10752 10751 10750 ] final  166.32 input  -60.55 | X-H torsion
[ 11005 11000 10999 10996 ] final  -72.17 input  -57.11 | X-H torsion

> <Gold.Protein.ActiveResidues>
 VAL166  LYS551  ARG553  GLY616  TRP617  ASP618  TYR619  PRO620  LYS621  CYS622 
 ASP623  PHE694  ASN695  SER759  ASP760  ASP761  ALA762  ILE779  LEU786  VAL792 
 PHE793  MET794  SER795  GLU796  ALA797  LYS798  CYS799  TRP800  GLU811  SER814 

> <Gold.Protein.RotatedAtoms>
  151.0724  133.5455  159.2625 H   0  0  0  0  0  0  0  0  0  0  0  0  # atno 6907 bound_to 6896
  151.2390  135.0581  159.9027 H   0  0  0  0  0  0  0  0  0  0  0  0  # atno 6908 bound_to 6896
  152.5413  134.0502  159.8160 H   0  0  0  0  0  0  0  0  0  0  0  0  # atno 6909 bound_to 6896
  145.2365  140.9190  143.3174 H   0  0  0  0  0  0  0  0  0  0  0  0  # atno 7974 bound_to 7965
  155.5904  140.0652  157.2760 H   0  0  0  0  0  0  0  0  0  0  0  0  # atno 8008 bound_to 7997
  154.4307  140.1836  156.1116 H   0  0  0  0  0  0  0  0  0  0  0  0  # atno 8009 bound_to 7997
  156.0237  140.3314  155.7069 H   0  0  0  0  0  0  0  0  0  0  0  0  # atno 8010 bound_to 7997
  140.3062  143.3132  152.0196 H   0  0  0  0  0  0  0  0  0  0  0  0  # atno 10167 bound_to 10162
  157.4662  130.8227  149.7939 H   0  0  0  0  0  0  0  0  0  0  0  0  # atno 10718 bound_to 10713
  154.3372  135.2754  155.2441 H   0  0  0  0  0  0  0  0  0  0  0  0  # atno 10763 bound_to 10752
  154.4727  135.5878  153.6337 H   0  0  0  0  0  0  0  0  0  0  0  0  # atno 10764 bound_to 10752
  152.9861  135.6092  154.3570 H   0  0  0  0  0  0  0  0  0  0  0  0  # atno 10765 bound_to 10752
  141.1604  133.6839  156.7018 H   0  0  0  0  0  0  0  0  0  0  0  0  # atno 11005 bound_to 11000
  144.9628  139.3962  143.6347 LP  0  0  0  0  0  0  0  0  0  0  0  0  # atno 17320 bound_to 7965
  146.3339  139.8689  142.8843 LP  0  0  0  0  0  0  0  0  0  0  0  0  # atno 17321 bound_to 7965
  139.4904  144.6419  151.6860 LP  0  0  0  0  0  0  0  0  0  0  0  0  # atno 17342 bound_to 10162
  140.5608  144.0272  150.6169 LP  0  0  0  0  0  0  0  0  0  0  0  0  # atno 17343 bound_to 10162
  156.0051  130.3859  150.2459 LP  0  0  0  0  0  0  0  0  0  0  0  0  # atno 17370 bound_to 10713
  157.0640  131.0098  151.3213 LP  0  0  0  0  0  0  0  0  0  0  0  0  # atno 17371 bound_to 10713
  140.2953  134.8207  157.4052 LP  0  0  0  0  0  0  0  0  0  0  0  0  # atno 17394 bound_to 11000
  140.1310  134.5095  155.8106 LP  0  0  0  0  0  0  0  0  0  0  0  0  # atno 17395 bound_to 11000

$$$$
