AV-unprocessed.smi:807|AV-procd|sdf|3802|dock6
  -GOLD-   22720 1243D 1   1.00000     0.00000
 Structure written by MMmdl.
 35 37  0  0  0  0  0  0  0  0  1 V2000
  146.7453  142.8320  158.2854 C   0  0  0  0  0  0  0  0  0  0  0  0
  147.9982  142.2169  157.8779 N   0  0  0  0  0  0  0  0  0  0  0  0
  148.2323  141.9032  156.5318 C   0  0  0  0  0  0  0  0  0  0  0  0
  147.3638  142.3165  155.5799 N   0  0  0  0  0  0  0  0  0  0  0  0
  147.6286  141.9923  154.3074 C   0  0  0  0  0  0  0  0  0  0  0  0
  148.6623  141.2959  153.8094 N   0  0  0  0  0  0  0  0  0  0  0  0
  149.5279  140.8820  154.7447 C   0  0  0  0  0  0  0  0  0  0  0  0
  150.6770  140.1438  154.5190 N   0  0  0  0  0  0  0  0  0  0  0  0
  151.1534  140.0011  155.7531 C   0  0  0  0  0  0  0  0  0  0  0  0
  150.4495  140.5559  156.7596 N   0  0  0  0  0  0  0  0  0  0  0  0
  150.7741  140.5058  158.1745 C   0  0  0  0  0  0  0  0  0  0  0  0
  152.2128  140.9809  158.4622 C   0  0  2  0  0  0  0  0  0  0  0  0
  153.0570  139.8474  158.4538 O   0  0  0  0  0  0  0  0  0  0  0  0
  152.3146  141.7695  159.7676 C   0  0  0  0  0  0  0  0  0  0  0  0
  152.9792  141.1893  160.8725 C   0  0  0  0  0  0  0  0  0  0  0  0
  153.0794  141.8788  162.0952 C   0  0  0  0  0  0  0  0  0  0  0  0
  152.5118  143.1584  162.2281 C   0  0  0  0  0  0  0  0  0  0  0  0
  151.8425  143.7440  161.1380 C   0  0  0  0  0  0  0  0  0  0  0  0
  151.7380  143.0587  159.9107 C   0  0  0  0  0  0  0  0  0  0  0  0
  150.8863  143.8290  158.6173 Cl  0  0  0  0  0  0  0  0  0  0  0  0
  149.3610  141.1596  156.1347 C   0  0  0  0  0  0  0  0  0  0  0  0
  146.7343  142.9714  159.3663 H   0  0  0  0  0  0  0  0  0  0  0  0
  145.8985  142.2006  158.0147 H   0  0  0  0  0  0  0  0  0  0  0  0
  146.6211  143.8074  157.8138 H   0  0  0  0  0  0  0  0  0  0  0  0
  148.6569  141.9283  158.5868 H   0  0  0  0  0  0  0  0  0  0  0  0
  146.9101  142.3408  153.5805 H   0  0  0  0  0  0  0  0  0  0  0  0
  152.0644  139.4508  155.9384 H   0  0  0  0  0  0  0  0  0  0  0  0
  150.0515  141.1118  158.7232 H   0  0  0  0  0  0  0  0  0  0  0  0
  150.6351  139.4793  158.5153 H   0  0  0  0  0  0  0  0  0  0  0  0
  152.5585  141.5929  157.6311 H   0  0  0  0  0  0  0  0  0  0  0  0
  152.5555  139.0963  158.7314 H   0  0  0  0  0  0  0  0  0  0  0  0
  153.4145  140.2044  160.7888 H   0  0  0  0  0  0  0  0  0  0  0  0
  153.5903  141.4248  162.9318 H   0  0  0  0  0  0  0  0  0  0  0  0
  152.5864  143.6887  163.1661 H   0  0  0  0  0  0  0  0  0  0  0  0
  151.4032  144.7248  161.2459 H   0  0  0  0  0  0  0  0  0  0  0  0
  1  2  1  0  0  0  0
  1 22  1  0  0  0  0
  1 23  1  0  0  0  0
  1 24  1  0  0  0  0
  2  3  1  0  0  0  0
  2 25  1  0  0  0  0
  3 21  1  0  0  0  0
  3  4  2  0  0  0  0
  4  5  1  0  0  0  0
  5  6  2  0  0  0  0
  5 26  1  0  0  0  0
  6  7  1  0  0  0  0
  7 21  2  0  0  0  0
  7  8  1  0  0  0  0
  8  9  2  0  0  0  0
  9 10  1  0  0  0  0
  9 27  1  0  0  0  0
 10 11  1  0  0  0  0
 10 21  1  0  0  0  0
 11 12  1  0  0  0  0
 11 28  1  0  0  0  0
 11 29  1  0  0  0  0
 12 13  1  0  0  0  0
 12 14  1  0  0  0  0
 12 30  1  0  0  0  0
 13 31  1  0  0  0  0
 14 19  1  0  0  0  0
 14 15  2  0  0  0  0
 15 16  1  0  0  0  0
 15 32  1  0  0  0  0
 16 17  2  0  0  0  0
 16 33  1  0  0  0  0
 17 18  1  0  0  0  0
 17 34  1  0  0  0  0
 18 19  2  0  0  0  0
 18 35  1  0  0  0  0
 19 20  1  0  0  0  0
M  END
> <s_m_source_file>
AV-unprocessed.smi

> <i_m_source_file_index>
807

> <i_lp_mmshare_version>
43012

> <i_f3d_flags>
0

> <s_epik_input>
bjFbY0hdbmMoW05IXVtDSDNdKWMoYzEyKW4oW2NIXW4yKVtDSDJdW0NASF0oW09IXSljM1tjSF1bY0hdW2NIXVtjSF1jM0Ns

> <s_epik_cmdline>
J2VwaWtfcHl0aG9uJywgJy1waCcsICc3LjAnLCAnLXRuJywgJzgnLCAnLW1hJywgJzIwMCcsICctbWV0YWxfYmluZGluZycsICctaW1hZScsICc8aW5maWxlLm1hZT4nLCAnLW9tYWUnLCAnPG91dGZpbGUubWFlPic=

> <r_lp_tautomer_probability>
1

> <r_epik_Ionization_Penalty>
0.00695285

> <r_epik_Ionization_Penalty_Charging>
0

> <r_epik_Ionization_Penalty_Neutral>
0.00695285

> <r_epik_State_Penalty>
-0

> <r_epik_Charging_Adjusted_Penalty>
0

> <i_epik_Tot_Q>
0

> <i_epik_Tot_abs_Q>
0

> <r_epik_Metal_State_Penalty>
-0

> <b_epik_Metal_Only>
0

> <s_lp_Force_Field>
OPLS_2005

> <r_lp_Energy>
11.3951

> <b_lp_Chiralities_Consistent>
1

> <s_lp_Variant>
AV-unprocessed.smi:807-1

> <Gold.Version>
5.8.1

> <Gold.Id.Protein>
6NUR|6NUR_protein|mol2

> <Gold.PLP.Fitness>
49.4131

> <Gold.PLP.PLP>
-43.6182

> <Gold.PLP.part.hbond>
-2.8198

> <Gold.PLP.part.metal>
0.0000

> <Gold.PLP.part.buried>
-3.8911

> <Gold.PLP.part.nonpolar>
-37.8877

> <Gold.PLP.part.repulsive>
2.7895

> <Gold.PLP.ligand.clash>
0.0000

> <Gold.PLP.ligand.torsion>
0.7475

> <Gold.PLP.Chemscore.Hbond>
2.4199

> <Gold.PLP.Chemscore.CHOScore>
0.0000

> <Gold.PLP.Chemscore.Metal>
0.0000

> <Gold.Chemscore.Hbonds>
donor molecule, donor type, donor heavy atom, donor atom, acceptor molecule, acceptor atom, score
      P1  H  7989  7998       L1     8  1.00
      P1  H  7997  8010       L1    13  0.81
      P1  H  8011  8017       L1     6  0.52

> <Gold.PLP.Chemscore.Internal.Correction>
0.0303

> <Gold.Rescore>
     Score         DG    S(hbond)    S(metal)    S(lipo)     H(rot)  DE(clash)    DE(int)     intcor
     15.38     -15.89       1.71        0.00      90.78       2.31       0.03       0.47       ----

> <Gold.Chemscore.Fitness>
15.3840

> <Gold.Chemscore.DG>
-15.8897

> <Gold.Chemscore.ZeroCoef>
-5.4800

> <Gold.Chemscore.Hbond>
1.7084

> <Gold.Chemscore.Metal>
0.0000

> <Gold.Chemscore.Lipo>
90.7789

> <Gold.Chemscore.Internal_Hbond>
0.0000

> <Gold.Chemscore.DEClash>
0.0308

> <Gold.Chemscore.DEInternal>
0.4749

> <Gold.Chemscore.Rot>
2.3115

> <Gold.Chemscore.Internal.Correction>
   9.000000E+99

> <Gold.Chemscore.Hbonds>
donor molecule, donor type, donor heavy atom, donor atom, acceptor molecule, acceptor atom, score
      P1  H  7989  7998       L1     8  0.71
      P1  H  7997  8010       L1    13  0.62
      P1  H  8011  8017       L1     6  0.28

> <Gold.Chemscore.Hbond.Weighted>
-5.7060

> <Gold.Chemscore.Metal.Weighted>
-0.0000

> <Gold.Chemscore.Lipo.Weighted>
-10.6211

> <Gold.Chemscore.Internal_Hbond.Weighted>
0.0000

> <Gold.Chemscore.DEClash.Weighted>
0.0308

> <Gold.Chemscore.DEInternal.Weighted>
0.4749

> <Gold.Chemscore.Rot.Weighted>
5.9174

> <Gold.Chemscore.Internal.Correction.Weighted>
   9.000000E+99

> <Gold.Protein.RotatedTorsions>
[ 6907 6896 6895 6894 ] final  112.14 input  -60.11 | X-H torsion
[ 7974 7965 7964 7962 ] final  -32.97 input  175.53 | X-H torsion
[ 8008 7997 7996 7995 ] final   37.35 input   59.86 | X-H torsion
[ 10167 10162 10161 10158 ] final   60.99 input  -65.29 | X-H torsion
[ 10718 10713 10712 10709 ] final  155.83 input   66.30 | X-H torsion
[ 10763 10752 10751 10750 ] final  -25.52 input  -60.55 | X-H torsion
[ 11005 11000 10999 10996 ] final -122.94 input  -57.11 | X-H torsion

> <Gold.Protein.ActiveResidues>
 VAL166  LYS551  ARG553  GLY616  TRP617  ASP618  TYR619  PRO620  LYS621  CYS622 
 ASP623  PHE694  ASN695  SER759  ASP760  ASP761  ALA762  ILE779  LEU786  VAL792 
 PHE793  MET794  SER795  GLU796  ALA797  LYS798  CYS799  TRP800  GLU811  SER814 

> <Gold.Protein.RotatedAtoms>
  152.4932  133.8559  159.7224 H   0  0  0  0  0  0  0  0  0  0  0  0  # atno 6907 bound_to 6896
  150.9083  133.7020  159.2868 H   0  0  0  0  0  0  0  0  0  0  0  0  # atno 6908 bound_to 6896
  151.4438  135.1027  159.9730 H   0  0  0  0  0  0  0  0  0  0  0  0  # atno 6909 bound_to 6896
  146.0948  140.5859  142.8848 H   0  0  0  0  0  0  0  0  0  0  0  0  # atno 7974 bound_to 7965
  155.2023  140.3317  155.4341 H   0  0  0  0  0  0  0  0  0  0  0  0  # atno 8008 bound_to 7997
  156.2402  140.1891  156.7059 H   0  0  0  0  0  0  0  0  0  0  0  0  # atno 8009 bound_to 7997
  154.6133  140.0606  156.9507 H   0  0  0  0  0  0  0  0  0  0  0  0  # atno 8010 bound_to 7997
  140.1596  144.4383  150.6716 H   0  0  0  0  0  0  0  0  0  0  0  0  # atno 10167 bound_to 10162
  157.2131  131.0702  151.1958 H   0  0  0  0  0  0  0  0  0  0  0  0  # atno 10718 bound_to 10713
  153.7011  135.6956  153.5063 H   0  0  0  0  0  0  0  0  0  0  0  0  # atno 10763 bound_to 10752
  153.2342  135.4327  155.0627 H   0  0  0  0  0  0  0  0  0  0  0  0  # atno 10764 bound_to 10752
  154.8344  135.3491  154.6550 H   0  0  0  0  0  0  0  0  0  0  0  0  # atno 10765 bound_to 10752
  140.9957  134.0475  157.3600 H   0  0  0  0  0  0  0  0  0  0  0  0  # atno 11005 bound_to 11000
  144.7387  140.4881  143.6885 LP  0  0  0  0  0  0  0  0  0  0  0  0  # atno 17320 bound_to 7965
  145.5970  139.1500  143.3150 LP  0  0  0  0  0  0  0  0  0  0  0  0  # atno 17321 bound_to 7965
  140.6651  143.2265  151.5762 LP  0  0  0  0  0  0  0  0  0  0  0  0  # atno 17342 bound_to 10162
  139.5387  144.2707  152.1306 LP  0  0  0  0  0  0  0  0  0  0  0  0  # atno 17343 bound_to 10162
  157.3652  130.7152  149.6528 LP  0  0  0  0  0  0  0  0  0  0  0  0  # atno 17370 bound_to 10713
  155.9689  130.4214  150.4468 LP  0  0  0  0  0  0  0  0  0  0  0  0  # atno 17371 bound_to 10713
  139.9013  135.0165  156.7284 LP  0  0  0  0  0  0  0  0  0  0  0  0  # atno 17394 bound_to 11000
  140.6969  133.9340  155.8000 LP  0  0  0  0  0  0  0  0  0  0  0  0  # atno 17395 bound_to 11000

$$$$
