AV-unprocessed.smi:798|AV-procd|sdf|3775|dock2
  -GOLD-   22720 1203D 1   1.00000     0.00000
 Structure written by MMmdl.
 34 36  0  0  0  0  0  0  0  0  1 V2000
  144.1968  137.4899  155.5327 O   0  0  0  0  0  0  0  0  0  0  0  0
  143.9124  138.4276  154.7873 C   0  0  0  0  0  0  0  0  0  0  0  0
  142.7011  138.6555  154.2499 N   0  0  0  0  0  0  0  0  0  0  0  0
  141.5156  137.8869  154.3920 C   0  0  0  0  0  0  0  0  0  0  0  0
  141.4174  136.8089  155.1857 N   0  0  0  0  0  0  0  0  0  0  0  0
  140.1507  136.2413  155.1365 N   0  0  0  0  0  0  0  0  0  0  0  0
  139.3448  136.9123  154.3088 C   0  0  0  0  0  0  0  0  0  0  0  0
  140.0545  138.3036  153.5081 S   0  0  0  0  0  0  0  0  0  0  0  0
  144.7956  139.3599  154.4017 N   0  0  0  0  0  0  0  0  0  0  0  0
  146.1990  139.4197  154.8138 C   0  0  2  0  0  0  0  0  0  0  0  0
  146.5115  140.7974  155.4369 C   0  0  1  0  0  0  0  0  0  0  0  0
  147.8433  140.7121  156.2045 C   0  0  0  0  0  0  0  0  0  0  0  0
  148.8784  140.6197  155.0673 C   0  0  0  0  0  0  0  0  0  0  0  0
  148.0017  140.6619  153.7997 C   0  0  2  0  0  0  0  0  0  0  0  0
  146.9057  141.6314  154.2238 C   0  0  0  0  0  0  0  0  0  0  0  0
  147.2390  139.3212  153.6555 C   0  0  2  0  0  0  0  0  0  0  0  0
  146.6654  139.0936  152.2383 C   0  0  0  0  0  0  0  0  0  0  0  0
  147.5553  138.3176  151.4637 O   0  0  0  0  0  0  0  0  0  0  0  0
  142.6183  139.4721  153.6627 H   0  0  0  0  0  0  0  0  0  0  0  0
  138.3252  136.5854  154.1685 H   0  0  0  0  0  0  0  0  0  0  0  0
  144.4746  140.0926  153.7860 H   0  0  0  0  0  0  0  0  0  0  0  0
  146.3804  138.6370  155.5530 H   0  0  0  0  0  0  0  0  0  0  0  0
  145.6983  141.2096  156.0355 H   0  0  0  0  0  0  0  0  0  0  0  0
  148.0070  141.6114  156.7996 H   0  0  0  0  0  0  0  0  0  0  0  0
  147.8845  139.8547  156.8773 H   0  0  0  0  0  0  0  0  0  0  0  0
  149.5555  141.4743  155.0980 H   0  0  0  0  0  0  0  0  0  0  0  0
  149.4834  139.7140  155.1257 H   0  0  0  0  0  0  0  0  0  0  0  0
  148.5561  140.9609  152.9097 H   0  0  0  0  0  0  0  0  0  0  0  0
  146.1064  141.7380  153.4892 H   0  0  0  0  0  0  0  0  0  0  0  0
  147.2819  142.6225  154.4844 H   0  0  0  0  0  0  0  0  0  0  0  0
  147.9173  138.4923  153.8650 H   0  0  0  0  0  0  0  0  0  0  0  0
  145.7203  138.5529  152.2901 H   0  0  0  0  0  0  0  0  0  0  0  0
  146.4747  140.0362  151.7251 H   0  0  0  0  0  0  0  0  0  0  0  0
  147.8352  137.5769  151.9792 H   0  0  0  0  0  0  0  0  0  0  0  0
  1  2  2  0  0  0  0
  2  3  1  0  0  0  0
  2  9  1  0  0  0  0
  3  4  1  0  0  0  0
  3 19  1  0  0  0  0
  4  8  1  0  0  0  0
  4  5  2  0  0  0  0
  5  6  1  0  0  0  0
  6  7  2  0  0  0  0
  7  8  1  0  0  0  0
  7 20  1  0  0  0  0
  9 10  1  0  0  0  0
  9 21  1  0  0  0  0
 10 16  1  0  0  0  0
 10 11  1  0  0  0  0
 10 22  1  0  0  0  0
 11 15  1  0  0  0  0
 11 12  1  0  0  0  0
 11 23  1  0  0  0  0
 12 13  1  0  0  0  0
 12 24  1  0  0  0  0
 12 25  1  0  0  0  0
 13 14  1  0  0  0  0
 13 26  1  0  0  0  0
 13 27  1  0  0  0  0
 14 15  1  0  0  0  0
 14 16  1  0  0  0  0
 14 28  1  0  0  0  0
 15 29  1  0  0  0  0
 15 30  1  0  0  0  0
 16 17  1  0  0  0  0
 16 31  1  0  0  0  0
 17 18  1  0  0  0  0
 17 32  1  0  0  0  0
 17 33  1  0  0  0  0
 18 34  1  0  0  0  0
M  END
> <s_m_source_file>
AV-unprocessed.smi

> <i_m_source_file_index>
798

> <i_lp_mmshare_version>
43012

> <i_f3d_flags>
0

> <s_epik_input>
W0NIMl0xW0NIMl1bQ0BASF0oW0NIMl0yKVtDQEBIXShbQ0gyXVtPSF0pW0NAQEhdKFtDQEhdMTIpW05IXUMoPU8pW05IXWMzbm5bY0hdczM=

> <s_epik_cmdline>
J2VwaWtfcHl0aG9uJywgJy1waCcsICc3LjAnLCAnLXRuJywgJzgnLCAnLW1hJywgJzIwMCcsICctbWV0YWxfYmluZGluZycsICctaW1hZScsICc8aW5maWxlLm1hZT4nLCAnLW9tYWUnLCAnPG91dGZpbGUubWFlPic=

> <r_lp_tautomer_probability>
1

> <r_epik_Ionization_Penalty>
0.000329046

> <r_epik_Ionization_Penalty_Charging>
0

> <r_epik_Ionization_Penalty_Neutral>
0.000329046

> <r_epik_State_Penalty>
-0

> <r_epik_Charging_Adjusted_Penalty>
0

> <i_epik_Tot_Q>
0

> <i_epik_Tot_abs_Q>
0

> <r_epik_Metal_State_Penalty>
0.173433

> <b_epik_Metal_Only>
0

> <s_lp_Force_Field>
OPLS_2005

> <r_lp_Energy>
48.6988

> <b_lp_Chiralities_Consistent>
1

> <s_lp_Variant>
AV-unprocessed.smi:798-7

> <Gold.Version>
5.8.1

> <Gold.Id.Protein>
6NUR|6NUR_protein|mol2

> <Gold.PLP.Fitness>
39.7578

> <Gold.PLP.PLP>
-26.6165

> <Gold.PLP.part.hbond>
-5.8909

> <Gold.PLP.part.metal>
0.0000

> <Gold.PLP.part.buried>
0.1590

> <Gold.PLP.part.nonpolar>
-19.5522

> <Gold.PLP.part.repulsive>
0.1070

> <Gold.PLP.ligand.clash>
0.0000

> <Gold.PLP.ligand.torsion>
0.4672

> <Gold.PLP.Chemscore.Hbond>
4.6880

> <Gold.PLP.Chemscore.CHOScore>
0.0000

> <Gold.PLP.Chemscore.Metal>
0.0000

> <Gold.Chemscore.Hbonds>
donor molecule, donor type, donor heavy atom, donor atom, acceptor molecule, acceptor atom, score
      L1  H     3    19       P1 10175  0.82
      L1  H     9    21       P1 10175  0.96
      L1  H    18    34       P1  7948  0.74
      P1  H  7954  7966       L1    18  1.00
      P1  H 11000 11005       L1     6  0.94

> <Gold.PLP.Chemscore.Internal.Correction>
0.0118

> <Gold.Rescore>
     Score         DG    S(hbond)    S(metal)    S(lipo)     H(rot)  DE(clash)    DE(int)     intcor
     18.79     -20.63       4.08        0.00      55.61       1.94       0.06       1.77       ----

> <Gold.Chemscore.Fitness>
18.7929

> <Gold.Chemscore.DG>
-20.6259

> <Gold.Chemscore.ZeroCoef>
-5.4800

> <Gold.Chemscore.Hbond>
4.0769

> <Gold.Chemscore.Metal>
0.0000

> <Gold.Chemscore.Lipo>
55.6085

> <Gold.Chemscore.Internal_Hbond>
0.0000

> <Gold.Chemscore.DEClash>
0.0639

> <Gold.Chemscore.DEInternal>
1.7691

> <Gold.Chemscore.Rot>
1.9442

> <Gold.Chemscore.Internal.Correction>
   9.000000E+99

> <Gold.Chemscore.Hbonds>
donor molecule, donor type, donor heavy atom, donor atom, acceptor molecule, acceptor atom, score
      L1  H     3    19       P1 10175  0.81
      L1  H     9    21       P1 10175  0.89
      L1  H    18    34       P1  7948  0.74
      P1  H  7954  7966       L1    18  0.30
      P1  H 11000 11005       L1     6  0.82

> <Gold.Chemscore.Hbond.Weighted>
-13.6168

> <Gold.Chemscore.Metal.Weighted>
-0.0000

> <Gold.Chemscore.Lipo.Weighted>
-6.5062

> <Gold.Chemscore.Internal_Hbond.Weighted>
0.0000

> <Gold.Chemscore.DEClash.Weighted>
0.0639

> <Gold.Chemscore.DEInternal.Weighted>
1.7691

> <Gold.Chemscore.Rot.Weighted>
4.9771

> <Gold.Chemscore.Internal.Correction.Weighted>
   9.000000E+99

> <Gold.Protein.RotatedTorsions>
[ 6907 6896 6895 6894 ] final  -57.42 input  -60.11 | X-H torsion
[ 7974 7965 7964 7962 ] final  173.96 input  175.53 | X-H torsion
[ 8008 7997 7996 7995 ] final   96.53 input   59.86 | X-H torsion
[ 10167 10162 10161 10158 ] final  -75.69 input  -65.29 | X-H torsion
[ 10718 10713 10712 10709 ] final   29.86 input   66.30 | X-H torsion
[ 10763 10752 10751 10750 ] final -154.26 input  -60.55 | X-H torsion
[ 11005 11000 10999 10996 ] final   67.31 input  -57.11 | X-H torsion

> <Gold.Protein.ActiveResidues>
 VAL166  LYS551  ARG553  GLY616  TRP617  ASP618  TYR619  PRO620  LYS621  CYS622 
 ASP623  PHE694  ASN695  SER759  ASP760  ASP761  ALA762  ILE779  LEU786  VAL792 
 PHE793  MET794  SER795  GLU796  ALA797  LYS798  CYS799  TRP800  GLU811  SER814 

> <Gold.Protein.RotatedAtoms>
  150.8088  134.7229  159.6668 H   0  0  0  0  0  0  0  0  0  0  0  0  # atno 6907 bound_to 6896
  152.4207  134.5956  159.9996 H   0  0  0  0  0  0  0  0  0  0  0  0  # atno 6908 bound_to 6896
  151.6172  133.3305  159.3116 H   0  0  0  0  0  0  0  0  0  0  0  0  # atno 6909 bound_to 6896
  144.7232  139.9726  143.6437 H   0  0  0  0  0  0  0  0  0  0  0  0  # atno 7974 bound_to 7965
  156.0806  140.3271  155.7689 H   0  0  0  0  0  0  0  0  0  0  0  0  # atno 8008 bound_to 7997
  155.5159  140.0581  157.2932 H   0  0  0  0  0  0  0  0  0  0  0  0  # atno 8009 bound_to 7997
  154.4580  140.1952  156.0342 H   0  0  0  0  0  0  0  0  0  0  0  0  # atno 8010 bound_to 7997
  140.4921  143.2378  151.7890 H   0  0  0  0  0  0  0  0  0  0  0  0  # atno 10167 bound_to 10162
  157.2521  130.7120  149.6410 H   0  0  0  0  0  0  0  0  0  0  0  0  # atno 10718 bound_to 10713
  154.7871  135.3194  154.7861 H   0  0  0  0  0  0  0  0  0  0  0  0  # atno 10763 bound_to 10752
  153.8559  135.6858  153.4792 H   0  0  0  0  0  0  0  0  0  0  0  0  # atno 10764 bound_to 10752
  153.1527  135.4693  154.9599 H   0  0  0  0  0  0  0  0  0  0  0  0  # atno 10765 bound_to 10752
  139.9778  134.6793  156.0320 H   0  0  0  0  0  0  0  0  0  0  0  0  # atno 11005 bound_to 11000
  146.0551  139.3549  143.0615 LP  0  0  0  0  0  0  0  0  0  0  0  0  # atno 17320 bound_to 7965
  145.8165  140.9700  143.0921 LP  0  0  0  0  0  0  0  0  0  0  0  0  # atno 17321 bound_to 7965
  139.4853  144.4635  151.9512 LP  0  0  0  0  0  0  0  0  0  0  0  0  # atno 17342 bound_to 10162
  140.3722  144.2841  150.5918 LP  0  0  0  0  0  0  0  0  0  0  0  0  # atno 17343 bound_to 10162
  155.9666  130.4424  150.5381 LP  0  0  0  0  0  0  0  0  0  0  0  0  # atno 17370 bound_to 10713
  157.3267  131.0692  151.1891 LP  0  0  0  0  0  0  0  0  0  0  0  0  # atno 17371 bound_to 10713
  141.1454  133.6557  156.3851 LP  0  0  0  0  0  0  0  0  0  0  0  0  # atno 17394 bound_to 11000
  140.5158  134.6351  157.5301 LP  0  0  0  0  0  0  0  0  0  0  0  0  # atno 17395 bound_to 11000

$$$$
