AV-unprocessed.smi:1754|AV-procd|sdf|7067|dock10
  -GOLD-   22720 8283D 1   1.00000     0.00000
 Structure written by MMmdl.
 44 45  0  0  0  0  0  0  0  0  1 V2000
  151.7320  144.3847  159.0055 C   0  0  0  0  0  0  0  0  0  0  0  0
  152.9708  143.4794  159.0669 C   0  0  0  0  0  0  0  0  0  0  0  0
  153.1659  142.8840  160.3900 N   0  0  0  0  0  0  0  0  0  0  0  0
  152.5044  143.5379  161.5203 C   0  0  0  0  0  0  0  0  0  0  0  0
  153.2441  143.3313  162.8516 C   0  0  0  0  0  0  0  0  0  0  0  0
  153.4063  141.4890  160.4234 C   0  0  0  0  0  0  0  0  0  0  0  0
  152.9109  140.6103  159.4273 C   0  0  0  0  0  0  0  0  0  0  0  0
  153.1875  139.2327  159.5201 C   0  0  0  0  0  0  0  0  0  0  0  0
  153.9624  138.7608  160.6040 C   0  0  0  0  0  0  0  0  0  0  0  0
  154.2922  137.3977  160.8282 N   0  0  0  0  0  0  0  0  0  0  0  0
  154.5981  136.7760  161.9836 C   0  0  0  0  0  0  0  0  0  0  0  0
  154.5530  137.2990  163.0946 O   0  0  0  0  0  0  0  0  0  0  0  0
  154.9361  135.4816  161.8375 N   0  0  0  0  0  0  0  0  0  0  0  0
  155.3202  134.5256  162.8780 C   0  0  1  0  0  0  0  0  0  0  0  0
  154.5893  134.7863  164.2126 C   0  0  0  0  0  0  0  0  0  0  0  0
  154.7490  133.5557  165.1138 C   0  0  0  0  0  0  0  0  0  0  0  0
  154.9076  132.1156  163.9905 S   0  0  0  0  0  0  0  0  0  0  0  0
  156.2065  131.4689  164.2305 O   0  0  0  0  0  0  0  0  0  0  0  0
  153.6598  131.3376  164.0024 O   0  0  0  0  0  0  0  0  0  0  0  0
  154.9927  133.0917  162.4430 C   0  0  0  0  0  0  0  0  0  0  0  0
  154.4040  139.7065  161.5490 C   0  0  0  0  0  0  0  0  0  0  0  0
  154.1412  141.0263  161.4633 N   0  0  0  0  0  0  0  0  0  0  0  0
  151.6269  144.8257  158.0144 H   0  0  0  0  0  0  0  0  0  0  0  0
  151.7992  145.2007  159.7256 H   0  0  0  0  0  0  0  0  0  0  0  0
  150.8205  143.8247  159.2162 H   0  0  0  0  0  0  0  0  0  0  0  0
  152.9103  142.7111  158.2961 H   0  0  0  0  0  0  0  0  0  0  0  0
  153.8557  144.0654  158.8172 H   0  0  0  0  0  0  0  0  0  0  0  0
  152.4472  144.6090  161.3237 H   0  0  0  0  0  0  0  0  0  0  0  0
  151.4711  143.1998  161.5962 H   0  0  0  0  0  0  0  0  0  0  0  0
  152.7449  143.8737  163.6546 H   0  0  0  0  0  0  0  0  0  0  0  0
  154.2677  143.7020  162.7906 H   0  0  0  0  0  0  0  0  0  0  0  0
  153.2877  142.2829  163.1447 H   0  0  0  0  0  0  0  0  0  0  0  0
  152.3260  140.9625  158.5920 H   0  0  0  0  0  0  0  0  0  0  0  0
  152.7889  138.5715  158.7667 H   0  0  0  0  0  0  0  0  0  0  0  0
  154.2767  136.8127  160.0057 H   0  0  0  0  0  0  0  0  0  0  0  0
  154.8872  135.1117  160.8990 H   0  0  0  0  0  0  0  0  0  0  0  0
  156.3969  134.5764  163.0510 H   0  0  0  0  0  0  0  0  0  0  0  0
  154.9484  135.6881  164.7093 H   0  0  0  0  0  0  0  0  0  0  0  0
  153.5272  134.9371  164.0141 H   0  0  0  0  0  0  0  0  0  0  0  0
  155.6629  133.6235  165.7044 H   0  0  0  0  0  0  0  0  0  0  0  0
  153.9063  133.4151  165.7910 H   0  0  0  0  0  0  0  0  0  0  0  0
  154.0148  133.0366  161.9633 H   0  0  0  0  0  0  0  0  0  0  0  0
  155.7364  132.6659  161.7692 H   0  0  0  0  0  0  0  0  0  0  0  0
  154.9895  139.3968  162.4024 H   0  0  0  0  0  0  0  0  0  0  0  0
  1  2  1  0  0  0  0
  1 23  1  0  0  0  0
  1 24  1  0  0  0  0
  1 25  1  0  0  0  0
  2  3  1  0  0  0  0
  2 26  1  0  0  0  0
  2 27  1  0  0  0  0
  3  4  1  0  0  0  0
  3  6  1  0  0  0  0
  4  5  1  0  0  0  0
  4 28  1  0  0  0  0
  4 29  1  0  0  0  0
  5 30  1  0  0  0  0
  5 31  1  0  0  0  0
  5 32  1  0  0  0  0
  6 22  1  0  0  0  0
  6  7  2  0  0  0  0
  7  8  1  0  0  0  0
  7 33  1  0  0  0  0
  8  9  2  0  0  0  0
  8 34  1  0  0  0  0
  9 10  1  0  0  0  0
  9 21  1  0  0  0  0
 10 11  1  0  0  0  0
 10 35  1  0  0  0  0
 11 12  2  0  0  0  0
 11 13  1  0  0  0  0
 13 14  1  0  0  0  0
 13 36  1  0  0  0  0
 14 20  1  0  0  0  0
 14 15  1  0  0  0  0
 14 37  1  0  0  0  0
 15 16  1  0  0  0  0
 15 38  1  0  0  0  0
 15 39  1  0  0  0  0
 16 17  1  0  0  0  0
 16 40  1  0  0  0  0
 16 41  1  0  0  0  0
 17 18  2  0  0  0  0
 17 19  2  0  0  0  0
 17 20  1  0  0  0  0
 20 42  1  0  0  0  0
 20 43  1  0  0  0  0
 21 22  2  0  0  0  0
 21 44  1  0  0  0  0
M  END
> <s_m_source_file>
AV-unprocessed.smi

> <i_m_source_file_index>
1754

> <i_lp_mmshare_version>
43012

> <i_f3d_flags>
0

> <s_epik_input>
W0NIM11bQ0gyXU4oW0NIMl1bQ0gzXSljMVtjSF1bY0hdYyhbY0hdbjEpW05IXUMoPU8pW05IXVtDQEBIXShbQ0gyXTIpW0NIMl1bQ0gyXVMyKD1PKT1P

> <s_epik_cmdline>
J2VwaWtfcHl0aG9uJywgJy1waCcsICc3LjAnLCAnLXRuJywgJzgnLCAnLW1hJywgJzIwMCcsICctbWV0YWxfYmluZGluZycsICctaW1hZScsICc8aW5maWxlLm1hZT4nLCAnLW9tYWUnLCAnPG91dGZpbGUubWFlPic=

> <r_lp_tautomer_probability>
1

> <r_epik_Ionization_Penalty>
0.615754

> <r_epik_Ionization_Penalty_Charging>
0

> <r_epik_Ionization_Penalty_Neutral>
0.615754

> <r_epik_State_Penalty>
2.08676

> <r_epik_Charging_Adjusted_Penalty>
2.08676

> <i_epik_Tot_Q>
0

> <i_epik_Tot_abs_Q>
0

> <r_epik_Metal_State_Penalty>
1.53042

> <b_epik_Metal_Only>
0

> <s_lp_Force_Field>
OPLS_2005

> <r_lp_Energy>
21.6605

> <b_lp_Chiralities_Consistent>
1

> <s_lp_Variant>
AV-unprocessed.smi:1754-4

> <Gold.Version>
5.8.1

> <Gold.Id.Protein>
6NUR|6NUR_protein|mol2

> <Gold.PLP.Fitness>
43.9698

> <Gold.PLP.PLP>
-46.2255

> <Gold.PLP.part.hbond>
0.0000

> <Gold.PLP.part.metal>
0.0000

> <Gold.PLP.part.buried>
-6.4082

> <Gold.PLP.part.nonpolar>
-39.9562

> <Gold.PLP.part.repulsive>
0.1283

> <Gold.PLP.ligand.clash>
0.0000

> <Gold.PLP.ligand.torsion>
1.5795

> <Gold.PLP.Chemscore.Hbond>
0.0000

> <Gold.PLP.Chemscore.CHOScore>
0.0000

> <Gold.PLP.Chemscore.Metal>
0.0000

> <Gold.PLP.Chemscore.Internal.Correction>
0.9033

> <Gold.Rescore>
     Score         DG    S(hbond)    S(metal)    S(lipo)     H(rot)  DE(clash)    DE(int)     intcor
      9.46     -15.01       0.00        0.00     111.79       1.39       0.07       5.48       ----

> <Gold.Chemscore.Fitness>
9.4557

> <Gold.Chemscore.DG>
-15.0076

> <Gold.Chemscore.ZeroCoef>
-5.4800

> <Gold.Chemscore.Hbond>
0.0000

> <Gold.Chemscore.Metal>
0.0000

> <Gold.Chemscore.Lipo>
111.7946

> <Gold.Chemscore.Internal_Hbond>
0.0000

> <Gold.Chemscore.DEClash>
0.0729

> <Gold.Chemscore.DEInternal>
5.4791

> <Gold.Chemscore.Rot>
1.3876

> <Gold.Chemscore.Internal.Correction>
   9.000000E+99

> <Gold.Chemscore.Hbond.Weighted>
-0.0000

> <Gold.Chemscore.Metal.Weighted>
-0.0000

> <Gold.Chemscore.Lipo.Weighted>
-13.0800

> <Gold.Chemscore.Internal_Hbond.Weighted>
0.0000

> <Gold.Chemscore.DEClash.Weighted>
0.0729

> <Gold.Chemscore.DEInternal.Weighted>
5.4791

> <Gold.Chemscore.Rot.Weighted>
3.5524

> <Gold.Chemscore.Internal.Correction.Weighted>
   9.000000E+99

> <Gold.Protein.RotatedTorsions>
[ 6907 6896 6895 6894 ] final  -55.68 input  -60.11 | X-H torsion
[ 7974 7965 7964 7962 ] final -163.50 input  175.53 | X-H torsion
[ 8008 7997 7996 7995 ] final   91.19 input   59.86 | X-H torsion
[ 10167 10162 10161 10158 ] final -165.65 input  -65.29 | X-H torsion
[ 10718 10713 10712 10709 ] final  -91.53 input   66.30 | X-H torsion
[ 10763 10752 10751 10750 ] final -165.31 input  -60.55 | X-H torsion
[ 11005 11000 10999 10996 ] final -178.30 input  -57.11 | X-H torsion

> <Gold.Protein.ActiveResidues>
 VAL166  LYS551  ARG553  GLY616  TRP617  ASP618  TYR619  PRO620  LYS621  CYS622 
 ASP623  PHE694  ASN695  SER759  ASP760  ASP761  ALA762  ILE779  LEU786  VAL792 
 PHE793  MET794  SER795  GLU796  ALA797  LYS798  CYS799  TRP800  GLU811  SER814 

> <Gold.Protein.RotatedAtoms>
  150.8231  134.7449  159.6789 H   0  0  0  0  0  0  0  0  0  0  0  0  # atno 6907 bound_to 6896
  152.4345  134.5710  159.9931 H   0  0  0  0  0  0  0  0  0  0  0  0  # atno 6908 bound_to 6896
  151.5889  133.3331  159.3059 H   0  0  0  0  0  0  0  0  0  0  0  0  # atno 6909 bound_to 6896
  144.7324  140.3098  143.6190 H   0  0  0  0  0  0  0  0  0  0  0  0  # atno 7974 bound_to 7965
  156.0209  140.3340  155.7038 H   0  0  0  0  0  0  0  0  0  0  0  0  # atno 8008 bound_to 7997
  155.6024  140.0657  157.2747 H   0  0  0  0  0  0  0  0  0  0  0  0  # atno 8009 bound_to 7997
  154.4315  140.1808  156.1175 H   0  0  0  0  0  0  0  0  0  0  0  0  # atno 8010 bound_to 7997
  139.6167  144.0705  152.1895 H   0  0  0  0  0  0  0  0  0  0  0  0  # atno 10167 bound_to 10162
  155.9994  130.4951  150.5488 H   0  0  0  0  0  0  0  0  0  0  0  0  # atno 10718 bound_to 10713
  154.6944  135.2976  154.9433 H   0  0  0  0  0  0  0  0  0  0  0  0  # atno 10763 bound_to 10752
  154.0385  135.6660  153.4791 H   0  0  0  0  0  0  0  0  0  0  0  0  # atno 10764 bound_to 10752
  153.0635  135.5101  154.8054 H   0  0  0  0  0  0  0  0  0  0  0  0  # atno 10765 bound_to 10752
  140.4313  134.6516  157.4713 H   0  0  0  0  0  0  0  0  0  0  0  0  # atno 11005 bound_to 11000
  145.7676  139.1846  143.2231 LP  0  0  0  0  0  0  0  0  0  0  0  0  # atno 17320 bound_to 7965
  146.0936  140.7627  142.9583 LP  0  0  0  0  0  0  0  0  0  0  0  0  # atno 17321 bound_to 7965
  140.0337  144.6061  150.7467 LP  0  0  0  0  0  0  0  0  0  0  0  0  # atno 17342 bound_to 10162
  140.7356  143.2742  151.3792 LP  0  0  0  0  0  0  0  0  0  0  0  0  # atno 17343 bound_to 10162
  157.3414  131.0717  151.1785 LP  0  0  0  0  0  0  0  0  0  0  0  0  # atno 17370 bound_to 10713
  157.2632  130.6669  149.5984 LP  0  0  0  0  0  0  0  0  0  0  0  0  # atno 17371 bound_to 10713
  140.0132  134.6659  155.9349 LP  0  0  0  0  0  0  0  0  0  0  0  0  # atno 17394 bound_to 11000
  141.1744  133.6539  156.4773 LP  0  0  0  0  0  0  0  0  0  0  0  0  # atno 17395 bound_to 11000

$$$$
