AV-unprocessed.smi:703|AV-procd|sdf|3426|dock4
  -GOLD-   22720 0413D 1   1.00000     0.00000
 Structure written by MMmdl.
 38 39  0  0  0  0  0  0  0  0  2 V2000
  147.1275  139.4123  152.8715 C   0  0  0  0  0  0  0  0  0  0  0  0
  147.2905  138.5038  154.0975 C   0  0  0  0  0  0  0  0  0  0  0  0
  148.5846  137.7817  154.0929 N   0  3  1  0  0  0  0  0  0  0  0  0
  149.7815  138.6480  154.1785 C   0  0  0  0  0  0  0  0  0  0  0  0
  150.8568  137.7859  154.8377 C   0  0  1  0  0  0  0  0  0  0  0  0
  152.0638  138.5591  155.3952 C   0  0  0  0  0  0  0  0  0  0  0  0
  150.0564  136.9492  155.8428 C   0  0  1  0  0  0  0  0  0  0  0  0
  149.8731  137.6671  157.1100 N   0  0  0  0  0  0  0  0  0  0  0  0
  149.6893  136.7399  158.5523 S   0  0  0  0  0  0  0  0  0  0  0  0
  149.7385  135.3178  158.1793 O   0  0  0  0  0  0  0  0  0  0  0  0
  150.6408  137.2725  159.5391 O   0  0  0  0  0  0  0  0  0  0  0  0
  147.9734  137.1512  159.0806 C   0  0  0  0  0  0  0  0  0  0  0  0
  147.6517  136.4179  160.3509 C   0  0  0  0  0  0  0  0  0  0  0  0
  147.6638  135.0157  160.5896 C   0  0  0  0  0  0  0  0  0  0  0  0
  147.2977  134.9127  161.9007 C   0  0  0  0  0  0  0  0  0  0  0  0
  147.0723  136.1420  162.4290 O   0  0  0  0  0  0  0  0  0  0  0  0
  147.2998  137.0966  161.4312 N   0  0  0  0  0  0  0  0  0  0  0  0
  148.7019  136.7406  155.1435 C   0  0  0  0  0  0  0  0  0  0  0  0
  146.1453  139.8856  152.8715 H   0  0  0  0  0  0  0  0  0  0  0  0
  147.2212  138.8446  151.9453 H   0  0  0  0  0  0  0  0  0  0  0  0
  147.8727  140.2078  152.8564 H   0  0  0  0  0  0  0  0  0  0  0  0
  147.1901  139.0825  155.0170 H   0  0  0  0  0  0  0  0  0  0  0  0
  146.4824  137.7711  154.0979 H   0  0  0  0  0  0  0  0  0  0  0  0
  150.0842  139.0101  153.1955 H   0  0  0  0  0  0  0  0  0  0  0  0
  149.5675  139.5156  154.8050 H   0  0  0  0  0  0  0  0  0  0  0  0
  151.2335  137.0984  154.0782 H   0  0  0  0  0  0  0  0  0  0  0  0
  151.7636  139.3233  156.1123 H   0  0  0  0  0  0  0  0  0  0  0  0
  152.6057  139.0605  154.5929 H   0  0  0  0  0  0  0  0  0  0  0  0
  152.7613  137.8861  155.8947 H   0  0  0  0  0  0  0  0  0  0  0  0
  150.5571  136.0010  156.0444 H   0  0  0  0  0  0  0  0  0  0  0  0
  150.5925  138.3804  157.2297 H   0  0  0  0  0  0  0  0  0  0  0  0
  147.9022  138.2310  159.2141 H   0  0  0  0  0  0  0  0  0  0  0  0
  147.2883  136.8677  158.2820 H   0  0  0  0  0  0  0  0  0  0  0  0
  147.9076  134.2137  159.9090 H   0  0  0  0  0  0  0  0  0  0  0  0
  147.1585  134.0759  162.5692 H   0  0  0  0  0  0  0  0  0  0  0  0
  147.8678  136.7680  155.8463 H   0  0  0  0  0  0  0  0  0  0  0  0
  148.6743  135.7663  154.6548 H   0  0  0  0  0  0  0  0  0  0  0  0
  148.6476  137.2900  153.2129 H   0  0  0  0  0  0  0  0  0  0  0  0
  1  2  1  0  0  0  0
  1 19  1  0  0  0  0
  1 20  1  0  0  0  0
  1 21  1  0  0  0  0
  2  3  1  0  0  0  0
  2 22  1  0  0  0  0
  2 23  1  0  0  0  0
  3 18  1  0  0  0  0
  3  4  1  0  0  0  0
  3 38  1  0  0  0  0
  4  5  1  0  0  0  0
  4 24  1  0  0  0  0
  4 25  1  0  0  0  0
  5  6  1  0  0  0  0
  5  7  1  0  0  0  0
  5 26  1  0  0  0  0
  6 27  1  0  0  0  0
  6 28  1  0  0  0  0
  6 29  1  0  0  0  0
  7  8  1  0  0  0  0
  7 18  1  0  0  0  0
  7 30  1  0  0  0  0
  8  9  1  0  0  0  0
  8 31  1  0  0  0  0
  9 10  2  0  0  0  0
  9 11  2  0  0  0  0
  9 12  1  0  0  0  0
 12 13  1  0  0  0  0
 12 32  1  0  0  0  0
 12 33  1  0  0  0  0
 13 17  2  0  0  0  0
 13 14  1  0  0  0  0
 14 15  2  0  0  0  0
 14 34  1  0  0  0  0
 15 16  1  0  0  0  0
 15 35  1  0  0  0  0
 16 17  1  0  0  0  0
 18 36  1  0  0  0  0
 18 37  1  0  0  0  0
M  CHG  1   3   1
M  END
> <s_m_source_file>
AV-unprocessed.smi

> <i_m_source_file_index>
703

> <i_lp_mmshare_version>
43012

> <i_f3d_flags>
0

> <s_epik_input>
W0NIM11bQ0gyXU4xW0NIMl1bQ0BASF0oW0NIM10pW0NASF0oW0NIMl0xKVtOSF1TKD1PKSg9TylbQ0gyXWMyW2NIXVtjSF1vbjI=

> <s_epik_cmdline>
J2VwaWtfcHl0aG9uJywgJy1waCcsICc3LjAnLCAnLXRuJywgJzgnLCAnLW1hJywgJzIwMCcsICctbWV0YWxfYmluZGluZycsICctaW1hZScsICc8aW5maWxlLm1hZT4nLCAnLW9tYWUnLCAnPG91dGZpbGUubWFlPic=

> <r_epik_Ionization_Penalty>
0.00324529

> <r_epik_Ionization_Penalty_Charging>
0.0019384

> <r_epik_Ionization_Penalty_Neutral>
0.00130689

> <r_epik_State_Penalty>
0.00218682

> <r_epik_Charging_Adjusted_Penalty>
0.00412522

> <i_epik_Tot_Q>
1

> <i_epik_Tot_abs_Q>
1

> <r_epik_Metal_State_Penalty>
0.310831

> <b_epik_Metal_Only>
0

> <s_lp_Force_Field>
OPLS_2005

> <r_lp_Energy>
19.6136

> <b_lp_Chiralities_Consistent>
1

> <s_lp_Variant>
AV-unprocessed.smi:703-1

> <Gold.Version>
5.8.1

> <Gold.Id.Protein>
6NUR|6NUR_protein|mol2

> <Gold.PLP.Fitness>
42.1390

> <Gold.PLP.PLP>
-28.5632

> <Gold.PLP.part.hbond>
-4.3034

> <Gold.PLP.part.metal>
0.0000

> <Gold.PLP.part.buried>
-4.3873

> <Gold.PLP.part.nonpolar>
-19.7922

> <Gold.PLP.part.repulsive>
0.0000

> <Gold.PLP.ligand.clash>
0.0000

> <Gold.PLP.ligand.torsion>
0.5046

> <Gold.PLP.Chemscore.Hbond>
4.8080

> <Gold.PLP.Chemscore.CHOScore>
0.0000

> <Gold.PLP.Chemscore.Metal>
0.0000

> <Gold.Chemscore.Hbonds>
donor molecule, donor type, donor heavy atom, donor atom, acceptor molecule, acceptor atom, score
      L1  H     3    38       P1  7948  2.00
      P1  H  6896  6909       L1    10  1.00
      P1  H  6931  6943       L1    17  0.68
      P1  H  6934  6947       L1    17  0.98

> <Gold.PLP.Chemscore.Internal.Correction>
0.1610

> <Gold.Rescore>
     Score         DG    S(hbond)    S(metal)    S(lipo)     H(rot)  DE(clash)    DE(int)     intcor
     17.04     -17.67       2.97        0.00      61.91       1.94       0.09       0.55       ----

> <Gold.Chemscore.Fitness>
17.0381

> <Gold.Chemscore.DG>
-17.6724

> <Gold.Chemscore.ZeroCoef>
-5.4800

> <Gold.Chemscore.Hbond>
2.9687

> <Gold.Chemscore.Metal>
0.0000

> <Gold.Chemscore.Lipo>
61.9105

> <Gold.Chemscore.Internal_Hbond>
0.0000

> <Gold.Chemscore.DEClash>
0.0859

> <Gold.Chemscore.DEInternal>
0.5484

> <Gold.Chemscore.Rot>
1.9400

> <Gold.Chemscore.Internal.Correction>
   9.000000E+99

> <Gold.Chemscore.Hbonds>
donor molecule, donor type, donor heavy atom, donor atom, acceptor molecule, acceptor atom, score
      L1  H     3    38       P1  7948  1.00
      P1  H  6896  6909       L1    10  0.44
      P1  H  6931  6943       L1    17  0.22
      P1  H  6934  6947       L1    17  0.59

> <Gold.Chemscore.Hbond.Weighted>
-9.9153

> <Gold.Chemscore.Metal.Weighted>
-0.0000

> <Gold.Chemscore.Lipo.Weighted>
-7.2435

> <Gold.Chemscore.Internal_Hbond.Weighted>
0.0000

> <Gold.Chemscore.DEClash.Weighted>
0.0859

> <Gold.Chemscore.DEInternal.Weighted>
0.5484

> <Gold.Chemscore.Rot.Weighted>
4.9665

> <Gold.Chemscore.Internal.Correction.Weighted>
   9.000000E+99

> <Gold.Protein.RotatedTorsions>
[ 6907 6896 6895 6894 ] final   47.03 input  -60.11 | X-H torsion
[ 7974 7965 7964 7962 ] final -116.60 input  175.53 | X-H torsion
[ 8008 7997 7996 7995 ] final  143.84 input   59.86 | X-H torsion
[ 10167 10162 10161 10158 ] final  -18.99 input  -65.29 | X-H torsion
[ 10718 10713 10712 10709 ] final   49.10 input   66.30 | X-H torsion
[ 10763 10752 10751 10750 ] final -114.72 input  -60.55 | X-H torsion
[ 11005 11000 10999 10996 ] final -129.85 input  -57.11 | X-H torsion

> <Gold.Protein.ActiveResidues>
 VAL166  LYS551  ARG553  GLY616  TRP617  ASP618  TYR619  PRO620  LYS621  CYS622 
 ASP623  PHE694  ASN695  SER759  ASP760  ASP761  ALA762  ILE779  LEU786  VAL792 
 PHE793  MET794  SER795  GLU796  ALA797  LYS798  CYS799  TRP800  GLU811  SER814 

> <Gold.Protein.RotatedAtoms>
  152.2634  134.8010  160.0426 H   0  0  0  0  0  0  0  0  0  0  0  0  # atno 6907 bound_to 6896
  151.8649  133.3459  159.3724 H   0  0  0  0  0  0  0  0  0  0  0  0  # atno 6908 bound_to 6896
  150.7125  134.5098  159.5646 H   0  0  0  0  0  0  0  0  0  0  0  0  # atno 6909 bound_to 6896
  145.0949  140.8514  143.3960 H   0  0  0  0  0  0  0  0  0  0  0  0  # atno 7974 bound_to 7965
  156.2921  140.2252  156.4956 H   0  0  0  0  0  0  0  0  0  0  0  0  # atno 8008 bound_to 7997
  154.7734  140.0465  157.1091 H   0  0  0  0  0  0  0  0  0  0  0  0  # atno 8009 bound_to 7997
  154.9846  140.3082  155.4935 H   0  0  0  0  0  0  0  0  0  0  0  0  # atno 8010 bound_to 7997
  140.7264  143.4862  151.0051 H   0  0  0  0  0  0  0  0  0  0  0  0  # atno 10167 bound_to 10162
  157.4753  130.8281  149.8033 H   0  0  0  0  0  0  0  0  0  0  0  0  # atno 10718 bound_to 10713
  154.8452  135.4407  154.1550 H   0  0  0  0  0  0  0  0  0  0  0  0  # atno 10763 bound_to 10752
  153.2701  135.6944  153.7495 H   0  0  0  0  0  0  0  0  0  0  0  0  # atno 10764 bound_to 10752
  153.6739  135.3414  155.3136 H   0  0  0  0  0  0  0  0  0  0  0  0  # atno 10765 bound_to 10752
  140.9396  134.1211  157.4163 H   0  0  0  0  0  0  0  0  0  0  0  0  # atno 11005 bound_to 11000
  145.1023  139.2814  143.5680 LP  0  0  0  0  0  0  0  0  0  0  0  0  # atno 17320 bound_to 7965
  146.3531  140.0593  142.8630 LP  0  0  0  0  0  0  0  0  0  0  0  0  # atno 17321 bound_to 7965
  139.8564  143.7371  152.3176 LP  0  0  0  0  0  0  0  0  0  0  0  0  # atno 17342 bound_to 10162
  139.7571  144.7517  151.0419 LP  0  0  0  0  0  0  0  0  0  0  0  0  # atno 17343 bound_to 10162
  156.0094  130.3840  150.2318 LP  0  0  0  0  0  0  0  0  0  0  0  0  # atno 17370 bound_to 10713
  157.0502  131.0060  151.3256 LP  0  0  0  0  0  0  0  0  0  0  0  0  # atno 17371 bound_to 10713
  139.8817  135.0032  156.6173 LP  0  0  0  0  0  0  0  0  0  0  0  0  # atno 17394 bound_to 11000
  140.7752  133.8705  155.8523 LP  0  0  0  0  0  0  0  0  0  0  0  0  # atno 17395 bound_to 11000

$$$$
