AV-unprocessed.smi:2938|AV-procd|sdf|11260|dock8
  -GOLD-   2272016153D 1   1.00000     0.00000
 Structure written by MMmdl.
 26 27  0  0  0  0  0  0  0  0  2 V2000
  152.1722  136.2229  156.7057 N   0  0  0  0  0  0  0  0  0  0  0  0
  151.7165  137.2658  156.4950 C   0  0  0  0  0  0  0  0  0  0  0  0
  151.1395  138.5822  156.2299 C   0  0  0  0  0  0  0  0  0  0  0  0
  151.7862  139.5291  155.3955 C   0  0  0  0  0  0  0  0  0  0  0  0
  152.9846  139.2890  154.7816 O   0  5  0  0  0  0  0  0  0  0  0  0
  151.2549  140.7456  155.1491 N   0  0  0  0  0  0  0  0  0  0  0  0
  150.0874  141.0196  155.7283 C   0  0  0  0  0  0  0  0  0  0  0  0
  149.5548  142.2584  155.4730 N   0  0  0  0  0  0  0  0  0  0  0  0
  149.3837  140.2187  156.5287 N   0  0  0  0  0  0  0  0  0  0  0  0
  149.8997  138.9918  156.7894 C   0  0  0  0  0  0  0  0  0  0  0  0
  149.1628  138.1439  157.6355 N   0  0  0  0  0  0  0  0  0  0  0  0
  149.8865  137.7453  158.8360 C   0  0  0  0  0  0  0  0  0  0  0  0
  149.0631  136.7132  159.6259 C   0  0  0  0  0  0  0  0  0  0  0  0
  147.7761  137.2508  159.9191 O   0  0  0  0  0  0  0  0  0  0  0  0
  147.0475  137.5688  158.7362 C   0  0  0  0  0  0  0  0  0  0  0  0
  147.8176  138.6244  157.9238 C   0  0  0  0  0  0  0  0  0  0  0  0
  150.0396  142.9108  154.8750 H   0  0  0  0  0  0  0  0  0  0  0  0
  148.6714  142.5238  155.8827 H   0  0  0  0  0  0  0  0  0  0  0  0
  150.8538  137.3228  158.5611 H   0  0  0  0  0  0  0  0  0  0  0  0
  150.0798  138.6202  159.4583 H   0  0  0  0  0  0  0  0  0  0  0  0
  148.9606  135.7841  159.0626 H   0  0  0  0  0  0  0  0  0  0  0  0
  149.5666  136.4655  160.5604 H   0  0  0  0  0  0  0  0  0  0  0  0
  146.8829  136.6667  158.1447 H   0  0  0  0  0  0  0  0  0  0  0  0
  146.0654  137.9509  159.0149 H   0  0  0  0  0  0  0  0  0  0  0  0
  147.8705  139.5580  158.4856 H   0  0  0  0  0  0  0  0  0  0  0  0
  147.2934  138.8362  156.9910 H   0  0  0  0  0  0  0  0  0  0  0  0
  1  2  3  0  0  0  0
  2  3  1  0  0  0  0
  3 10  1  0  0  0  0
  3  4  2  0  0  0  0
  4  5  1  0  0  0  0
  4  6  1  0  0  0  0
  6  7  2  0  0  0  0
  7  8  1  0  0  0  0
  7  9  1  0  0  0  0
  8 17  1  0  0  0  0
  8 18  1  0  0  0  0
  9 10  2  0  0  0  0
 10 11  1  0  0  0  0
 11 16  1  0  0  0  0
 11 12  1  0  0  0  0
 12 13  1  0  0  0  0
 12 19  1  0  0  0  0
 12 20  1  0  0  0  0
 13 14  1  0  0  0  0
 13 21  1  0  0  0  0
 13 22  1  0  0  0  0
 14 15  1  0  0  0  0
 15 16  1  0  0  0  0
 15 23  1  0  0  0  0
 15 24  1  0  0  0  0
 16 25  1  0  0  0  0
 16 26  1  0  0  0  0
M  CHG  1   5  -1
M  END
> <s_m_source_file>
AV-unprocessed.smi

> <i_m_source_file_index>
2938

> <i_lp_mmshare_version>
43012

> <i_f3d_flags>
0

> <s_epik_input>
TiNDYzFjKFtPSF0pbmMoW05IMl0pbmMxTjJbQ0gyXVtDSDJdT1tDSDJdW0NIMl0y

> <s_epik_cmdline>
J2VwaWtfcHl0aG9uJywgJy1waCcsICc3LjAnLCAnLXRuJywgJzgnLCAnLW1hJywgJzIwMCcsICctbWV0YWxfYmluZGluZycsICctaW1hZScsICc8aW5maWxlLm1hZT4nLCAnLW9tYWUnLCAnPG91dGZpbGUubWFlPic=

> <r_lp_tautomer_probability>
1

> <r_epik_Ionization_Penalty>
0.00503702

> <r_epik_Ionization_Penalty_Charging>
2.31924e-12

> <r_epik_Ionization_Penalty_Neutral>
0.00503702

> <r_epik_State_Penalty>
-0

> <r_epik_Charging_Adjusted_Penalty>
2.31924e-12

> <i_epik_Tot_Q>
-1

> <i_epik_Tot_abs_Q>
1

> <r_epik_Metal_State_Penalty>
-0

> <b_epik_Metal_Only>
0

> <s_lp_Force_Field>
OPLS_2005

> <r_lp_Energy>
14.7587

> <b_lp_Chiralities_Consistent>
1

> <s_lp_Variant>
AV-unprocessed.smi:2938-1

> <Gold.Version>
5.8.1

> <Gold.Id.Protein>
6NUR|6NUR_protein|mol2

> <Gold.PLP.Fitness>
30.7978

> <Gold.PLP.PLP>
-17.9969

> <Gold.PLP.part.hbond>
-5.5798

> <Gold.PLP.part.metal>
0.0000

> <Gold.PLP.part.buried>
-2.1639

> <Gold.PLP.part.nonpolar>
-10.6873

> <Gold.PLP.part.repulsive>
0.2932

> <Gold.PLP.ligand.clash>
0.0000

> <Gold.PLP.ligand.torsion>
0.1010

> <Gold.PLP.Chemscore.Hbond>
4.2955

> <Gold.PLP.Chemscore.CHOScore>
0.0000

> <Gold.PLP.Chemscore.Metal>
0.0000

> <Gold.Chemscore.Hbonds>
donor molecule, donor type, donor heavy atom, donor atom, acceptor molecule, acceptor atom, score
      P1  H  6934  6947       L1    14  0.41
      P1  H  7989  7998       L1     6  0.80
      P1  H  7997  8010       L1     5  1.62
      P1  H 10752 10765       L1     1  0.96

> <Gold.PLP.Chemscore.Internal.Correction>
0.1165

> <Gold.Rescore>
     Score         DG    S(hbond)    S(metal)    S(lipo)     H(rot)  DE(clash)    DE(int)     intcor
     12.29     -13.48       2.63        0.00      15.08       1.00       0.09       1.10       ----

> <Gold.Chemscore.Fitness>
12.2939

> <Gold.Chemscore.DG>
-13.4755

> <Gold.Chemscore.ZeroCoef>
-5.4800

> <Gold.Chemscore.Hbond>
2.6319

> <Gold.Chemscore.Metal>
0.0000

> <Gold.Chemscore.Lipo>
15.0838

> <Gold.Chemscore.Internal_Hbond>
0.0000

> <Gold.Chemscore.DEClash>
0.0853

> <Gold.Chemscore.DEInternal>
1.0962

> <Gold.Chemscore.Rot>
1.0000

> <Gold.Chemscore.Internal.Correction>
   9.000000E+99

> <Gold.Chemscore.Hbonds>
donor molecule, donor type, donor heavy atom, donor atom, acceptor molecule, acceptor atom, score
      L1  H     8    17       P1  8028  0.01
      L1  H     8    18       P1  8028  0.02
      P1  H  6934  6947       L1    14  0.04
      P1  H  7989  7998       L1     6  0.20
      P1  H  7997  8010       L1     5  0.73
      P1  H 10752 10765       L1     1  0.85

> <Gold.Chemscore.Hbond.Weighted>
-8.7907

> <Gold.Chemscore.Metal.Weighted>
-0.0000

> <Gold.Chemscore.Lipo.Weighted>
-1.7648

> <Gold.Chemscore.Internal_Hbond.Weighted>
0.0000

> <Gold.Chemscore.DEClash.Weighted>
0.0853

> <Gold.Chemscore.DEInternal.Weighted>
1.0962

> <Gold.Chemscore.Rot.Weighted>
2.5600

> <Gold.Chemscore.Internal.Correction.Weighted>
   9.000000E+99

> <Gold.Protein.RotatedTorsions>
[ 6907 6896 6895 6894 ] final   61.12 input  -60.11 | X-H torsion
[ 7974 7965 7964 7962 ] final   47.92 input  175.53 | X-H torsion
[ 8008 7997 7996 7995 ] final  124.34 input   59.86 | X-H torsion
[ 10167 10162 10161 10158 ] final -129.14 input  -65.29 | X-H torsion
[ 10718 10713 10712 10709 ] final  -86.03 input   66.30 | X-H torsion
[ 10763 10752 10751 10750 ] final -131.98 input  -60.55 | X-H torsion
[ 11005 11000 10999 10996 ] final   77.95 input  -57.11 | X-H torsion

> <Gold.Protein.ActiveResidues>
 VAL166  LYS551  ARG553  GLY616  TRP617  ASP618  TYR619  PRO620  LYS621  CYS622 
 ASP623  PHE694  ASN695  SER759  ASP760  ASP761  ALA762  ILE779  LEU786  VAL792 
 PHE793  MET794  SER795  GLU796  ALA797  LYS798  CYS799  TRP800  GLU811  SER814 

> <Gold.Protein.RotatedAtoms>
  152.4062  134.6203  160.0048 H   0  0  0  0  0  0  0  0  0  0  0  0  # atno 6907 bound_to 6896
  151.6394  133.3321  159.3135 H   0  0  0  0  0  0  0  0  0  0  0  0  # atno 6908 bound_to 6896
  150.7956  134.7055  159.6619 H   0  0  0  0  0  0  0  0  0  0  0  0  # atno 6909 bound_to 6896
  146.0253  139.4699  142.9871 H   0  0  0  0  0  0  0  0  0  0  0  0  # atno 7974 bound_to 7965
  156.2798  140.2742  156.1772 H   0  0  0  0  0  0  0  0  0  0  0  0  # atno 8008 bound_to 7997
  155.0594  140.0386  157.2589 H   0  0  0  0  0  0  0  0  0  0  0  0  # atno 8009 bound_to 7997
  154.7130  140.2672  155.6617 H   0  0  0  0  0  0  0  0  0  0  0  0  # atno 8010 bound_to 7997
  139.9430  143.6142  152.2498 H   0  0  0  0  0  0  0  0  0  0  0  0  # atno 10167 bound_to 10162
  155.9992  130.4751  150.4652 H   0  0  0  0  0  0  0  0  0  0  0  0  # atno 10718 bound_to 10713
  154.8747  135.3812  154.4336 H   0  0  0  0  0  0  0  0  0  0  0  0  # atno 10763 bound_to 10752
  153.5027  135.7030  153.5828 H   0  0  0  0  0  0  0  0  0  0  0  0  # atno 10764 bound_to 10752
  153.4152  135.3915  155.2043 H   0  0  0  0  0  0  0  0  0  0  0  0  # atno 10765 bound_to 10752
  139.9233  134.7725  156.1588 H   0  0  0  0  0  0  0  0  0  0  0  0  # atno 11005 bound_to 11000
  145.7128  141.0101  143.1444 LP  0  0  0  0  0  0  0  0  0  0  0  0  # atno 17320 bound_to 7965
  144.7007  139.8777  143.7445 LP  0  0  0  0  0  0  0  0  0  0  0  0  # atno 17321 bound_to 7965
  139.6689  144.7661  151.1820 LP  0  0  0  0  0  0  0  0  0  0  0  0  # atno 17342 bound_to 10162
  140.7605  143.5894  150.8811 LP  0  0  0  0  0  0  0  0  0  0  0  0  # atno 17343 bound_to 10162
  157.2672  131.0579  151.2283 LP  0  0  0  0  0  0  0  0  0  0  0  0  # atno 17370 bound_to 10713
  157.3376  130.7017  149.6362 LP  0  0  0  0  0  0  0  0  0  0  0  0  # atno 17371 bound_to 10713
  141.0771  133.6771  156.2258 LP  0  0  0  0  0  0  0  0  0  0  0  0  # atno 17394 bound_to 11000
  140.6411  134.5165  157.5569 LP  0  0  0  0  0  0  0  0  0  0  0  0  # atno 17395 bound_to 11000

$$$$
