AV-unprocessed.smi:930|AV-procd|sdf|4196|dock5
  -GOLD-   22720 2103D 1   1.00000     0.00000
 Structure written by MMmdl.
 32 33  0  0  0  0  0  0  0  0  1 V2000
  146.5494  138.6830  152.2101 C   0  0  0  0  0  0  0  0  0  0  0  0
  147.4519  139.3501  153.1912 C   0  0  0  0  0  0  0  0  0  0  0  0
  148.3939  138.6905  153.8764 N   0  0  0  0  0  0  0  0  0  0  0  0
  149.1062  139.5240  154.7272 N   0  0  0  0  0  0  0  0  0  0  0  0
  148.6777  140.7920  154.6591 C   0  0  0  0  0  0  0  0  0  0  0  0
  149.2293  141.8536  155.4241 N   0  0  0  0  0  0  0  0  0  0  0  0
  150.2118  141.7979  156.3404 C   0  0  0  0  0  0  0  0  0  0  0  0
  150.8151  140.7785  156.6767 O   0  0  0  0  0  0  0  0  0  0  0  0
  150.4621  143.0099  156.8570 N   0  0  0  0  0  0  0  0  0  0  0  0
  151.4709  143.3017  157.8714 C   0  0  0  0  0  0  0  0  0  0  0  0
  151.4900  142.2028  158.9548 C   0  0  0  0  0  0  0  0  0  0  0  0
  152.4945  142.5315  160.0711 C   0  0  0  0  0  0  0  0  0  0  0  0
  152.2103  143.9091  160.6896 C   0  0  0  0  0  0  0  0  0  0  0  0
  152.1948  145.0069  159.6142 C   0  0  0  0  0  0  0  0  0  0  0  0
  151.1897  144.6807  158.4977 C   0  0  0  0  0  0  0  0  0  0  0  0
  147.3564  141.0721  153.5380 S   0  0  0  0  0  0  0  0  0  0  0  0
  146.8285  137.6370  152.0789 H   0  0  0  0  0  0  0  0  0  0  0  0
  146.6131  139.1848  151.2445 H   0  0  0  0  0  0  0  0  0  0  0  0
  145.5188  138.7282  152.5620 H   0  0  0  0  0  0  0  0  0  0  0  0
  148.8285  142.7637  155.2527 H   0  0  0  0  0  0  0  0  0  0  0  0
  149.9170  143.7911  156.5229 H   0  0  0  0  0  0  0  0  0  0  0  0
  152.4516  143.3423  157.3932 H   0  0  0  0  0  0  0  0  0  0  0  0
  150.4942  142.0930  159.3867 H   0  0  0  0  0  0  0  0  0  0  0  0
  151.7421  141.2385  158.5119 H   0  0  0  0  0  0  0  0  0  0  0  0
  152.4568  141.7626  160.8430 H   0  0  0  0  0  0  0  0  0  0  0  0
  153.5075  142.5141  159.6668 H   0  0  0  0  0  0  0  0  0  0  0  0
  151.2494  143.8874  161.2051 H   0  0  0  0  0  0  0  0  0  0  0  0
  152.9618  144.1396  161.4452 H   0  0  0  0  0  0  0  0  0  0  0  0
  151.9485  145.9676  160.0671 H   0  0  0  0  0  0  0  0  0  0  0  0
  153.1927  145.1134  159.1867 H   0  0  0  0  0  0  0  0  0  0  0  0
  151.2309  145.4553  157.7308 H   0  0  0  0  0  0  0  0  0  0  0  0
  150.1779  144.7034  158.9056 H   0  0  0  0  0  0  0  0  0  0  0  0
  1  2  1  0  0  0  0
  1 17  1  0  0  0  0
  1 18  1  0  0  0  0
  1 19  1  0  0  0  0
  2 16  1  0  0  0  0
  2  3  2  0  0  0  0
  3  4  1  0  0  0  0
  4  5  2  0  0  0  0
  5  6  1  0  0  0  0
  5 16  1  0  0  0  0
  6  7  1  0  0  0  0
  6 20  1  0  0  0  0
  7  8  2  0  0  0  0
  7  9  1  0  0  0  0
  9 10  1  0  0  0  0
  9 21  1  0  0  0  0
 10 15  1  0  0  0  0
 10 11  1  0  0  0  0
 10 22  1  0  0  0  0
 11 12  1  0  0  0  0
 11 23  1  0  0  0  0
 11 24  1  0  0  0  0
 12 13  1  0  0  0  0
 12 25  1  0  0  0  0
 12 26  1  0  0  0  0
 13 14  1  0  0  0  0
 13 27  1  0  0  0  0
 13 28  1  0  0  0  0
 14 15  1  0  0  0  0
 14 29  1  0  0  0  0
 14 30  1  0  0  0  0
 15 31  1  0  0  0  0
 15 32  1  0  0  0  0
M  END
> <s_m_source_file>
AV-unprocessed.smi

> <i_m_source_file_index>
930

> <i_lp_mmshare_version>
43012

> <i_f3d_flags>
0

> <s_epik_input>
W0NIM11jMW5uYyhzMSlbTkhdQyg9TylbTkhdW0NIXTJbQ0gyXVtDSDJdW0NIMl1bQ0gyXVtDSDJdMg==

> <s_epik_cmdline>
J2VwaWtfcHl0aG9uJywgJy1waCcsICc3LjAnLCAnLXRuJywgJzgnLCAnLW1hJywgJzIwMCcsICctbWV0YWxfYmluZGluZycsICctaW1hZScsICc8aW5maWxlLm1hZT4nLCAnLW9tYWUnLCAnPG91dGZpbGUubWFlPic=

> <r_lp_tautomer_probability>
1

> <r_epik_Ionization_Penalty>
0.000369052

> <r_epik_Ionization_Penalty_Charging>
0

> <r_epik_Ionization_Penalty_Neutral>
0.000369052

> <r_epik_State_Penalty>
-0

> <r_epik_Charging_Adjusted_Penalty>
0

> <i_epik_Tot_Q>
0

> <i_epik_Tot_abs_Q>
0

> <r_epik_Metal_State_Penalty>
0.185018

> <b_epik_Metal_Only>
0

> <s_lp_Force_Field>
OPLS_2005

> <r_lp_Energy>
7.80656

> <b_lp_Chiralities_Consistent>
1

> <s_lp_Variant>
AV-unprocessed.smi:930-1

> <Gold.Version>
5.8.1

> <Gold.Id.Protein>
6NUR|6NUR_protein|mol2

> <Gold.PLP.Fitness>
41.9636

> <Gold.PLP.PLP>
-36.5563

> <Gold.PLP.part.hbond>
-2.0000

> <Gold.PLP.part.metal>
0.0000

> <Gold.PLP.part.buried>
-4.7342

> <Gold.PLP.part.nonpolar>
-31.6877

> <Gold.PLP.part.repulsive>
0.5539

> <Gold.PLP.ligand.clash>
0.0000

> <Gold.PLP.ligand.torsion>
0.2380

> <Gold.PLP.Chemscore.Hbond>
1.9600

> <Gold.PLP.Chemscore.CHOScore>
0.0000

> <Gold.PLP.Chemscore.Metal>
0.0000

> <Gold.Chemscore.Hbonds>
donor molecule, donor type, donor heavy atom, donor atom, acceptor molecule, acceptor atom, score
      L1  H     6    20       P1  8028  0.96
      L1  H     9    21       P1  8028  1.00

> <Gold.PLP.Chemscore.Internal.Correction>
0.0033

> <Gold.Rescore>
     Score         DG    S(hbond)    S(metal)    S(lipo)     H(rot)  DE(clash)    DE(int)     intcor
     17.31     -20.12       1.93        0.00      91.81       1.00       0.02       2.78       ----

> <Gold.Chemscore.Fitness>
17.3128

> <Gold.Chemscore.DG>
-20.1186

> <Gold.Chemscore.ZeroCoef>
-5.4800

> <Gold.Chemscore.Hbond>
1.9332

> <Gold.Chemscore.Metal>
0.0000

> <Gold.Chemscore.Lipo>
91.8099

> <Gold.Chemscore.Internal_Hbond>
0.0000

> <Gold.Chemscore.DEClash>
0.0225

> <Gold.Chemscore.DEInternal>
2.7833

> <Gold.Chemscore.Rot>
1.0000

> <Gold.Chemscore.Internal.Correction>
   9.000000E+99

> <Gold.Chemscore.Hbonds>
donor molecule, donor type, donor heavy atom, donor atom, acceptor molecule, acceptor atom, score
      L1  H     6    20       P1  8028  0.90
      L1  H     9    21       P1  8028  0.99

> <Gold.Chemscore.Hbond.Weighted>
-6.4569

> <Gold.Chemscore.Metal.Weighted>
-0.0000

> <Gold.Chemscore.Lipo.Weighted>
-10.7418

> <Gold.Chemscore.Internal_Hbond.Weighted>
0.0000

> <Gold.Chemscore.DEClash.Weighted>
0.0225

> <Gold.Chemscore.DEInternal.Weighted>
2.7833

> <Gold.Chemscore.Rot.Weighted>
2.5600

> <Gold.Chemscore.Internal.Correction.Weighted>
   9.000000E+99

> <Gold.Protein.RotatedTorsions>
[ 6907 6896 6895 6894 ] final  -38.98 input  -60.11 | X-H torsion
[ 7974 7965 7964 7962 ] final  177.29 input  175.53 | X-H torsion
[ 8008 7997 7996 7995 ] final   59.61 input   59.86 | X-H torsion
[ 10167 10162 10161 10158 ] final  104.63 input  -65.29 | X-H torsion
[ 10718 10713 10712 10709 ] final -141.31 input   66.30 | X-H torsion
[ 10763 10752 10751 10750 ] final   74.65 input  -60.55 | X-H torsion
[ 11005 11000 10999 10996 ] final -146.81 input  -57.11 | X-H torsion

> <Gold.Protein.ActiveResidues>
 VAL166  LYS551  ARG553  GLY616  TRP617  ASP618  TYR619  PRO620  LYS621  CYS622 
 ASP623  PHE694  ASN695  SER759  ASP760  ASP761  ALA762  ILE779  LEU786  VAL792 
 PHE793  MET794  SER795  GLU796  ALA797  LYS798  CYS799  TRP800  GLU811  SER814 

> <Gold.Protein.RotatedAtoms>
  150.9959  134.9283  159.7925 H   0  0  0  0  0  0  0  0  0  0  0  0  # atno 6907 bound_to 6896
  152.5264  134.3219  159.9161 H   0  0  0  0  0  0  0  0  0  0  0  0  # atno 6908 bound_to 6896
  151.3225  133.3993  159.2690 H   0  0  0  0  0  0  0  0  0  0  0  0  # atno 6909 bound_to 6896
  144.7171  140.0225  143.6440 H   0  0  0  0  0  0  0  0  0  0  0  0  # atno 7974 bound_to 7965
  155.5689  140.3489  155.4510 H   0  0  0  0  0  0  0  0  0  0  0  0  # atno 8008 bound_to 7997
  156.0459  140.1306  157.0130 H   0  0  0  0  0  0  0  0  0  0  0  0  # atno 8009 bound_to 7997
  154.4412  140.1014  156.6290 H   0  0  0  0  0  0  0  0  0  0  0  0  # atno 8010 bound_to 7997
  139.7161  144.7068  151.0948 H   0  0  0  0  0  0  0  0  0  0  0  0  # atno 10167 bound_to 10162
  156.3325  130.7594  151.1715 H   0  0  0  0  0  0  0  0  0  0  0  0  # atno 10718 bound_to 10713
  153.0601  135.5018  154.8074 H   0  0  0  0  0  0  0  0  0  0  0  0  # atno 10763 bound_to 10752
  154.6869  135.2978  154.9536 H   0  0  0  0  0  0  0  0  0  0  0  0  # atno 10764 bound_to 10752
  154.0304  135.6730  153.4833 H   0  0  0  0  0  0  0  0  0  0  0  0  # atno 10765 bound_to 10752
  140.7781  134.3111  157.5054 H   0  0  0  0  0  0  0  0  0  0  0  0  # atno 11005 bound_to 11000
  146.0169  139.3217  143.0836 LP  0  0  0  0  0  0  0  0  0  0  0  0  # atno 17320 bound_to 7965
  145.8615  140.9472  143.0697 LP  0  0  0  0  0  0  0  0  0  0  0  0  # atno 17321 bound_to 7965
  140.7744  143.5228  150.9516 LP  0  0  0  0  0  0  0  0  0  0  0  0  # atno 17342 bound_to 10162
  139.8914  143.6948  152.3144 LP  0  0  0  0  0  0  0  0  0  0  0  0  # atno 17343 bound_to 10162
  157.7433  131.0477  150.4958 LP  0  0  0  0  0  0  0  0  0  0  0  0  # atno 17370 bound_to 10713
  156.5126  130.4143  149.6293 LP  0  0  0  0  0  0  0  0  0  0  0  0  # atno 17371 bound_to 10713
  139.8746  134.9302  156.3495 LP  0  0  0  0  0  0  0  0  0  0  0  0  # atno 17394 bound_to 11000
  140.9509  133.7452  156.0270 LP  0  0  0  0  0  0  0  0  0  0  0  0  # atno 17395 bound_to 11000

$$$$
