AV-unprocessed.smi:447|AV-procd|sdf|2600|dock7
  -GOLD-   2262022593D 1   1.00000     0.00000
 Structure written by MMmdl.
 45 47  0  0  0  0  0  0  0  0  1 V2000
  138.6780  136.8525  153.5747 C   0  0  0  0  0  0  0  0  0  0  0  0
  140.1345  136.7383  154.0105 C   0  0  0  0  0  0  0  0  0  0  0  0
  140.5582  135.6796  154.4731 O   0  0  0  0  0  0  0  0  0  0  0  0
  140.8858  137.8390  153.8561 N   0  0  0  0  0  0  0  0  0  0  0  0
  142.2935  137.9698  154.2280 C   0  0  1  0  0  0  0  0  0  0  0  0
  142.4764  137.7723  155.7395 C   0  0  0  0  0  0  0  0  0  0  0  0
  143.0811  136.9673  153.4223 C   0  0  0  0  0  0  0  0  0  0  0  0
  142.4958  135.9316  152.8125 N   0  0  0  0  0  0  0  0  0  0  0  0
  143.5565  135.2878  152.2079 C   0  0  0  0  0  0  0  0  0  0  0  0
  143.5891  134.1250  151.4050 C   0  0  0  0  0  0  0  0  0  0  0  0
  144.8122  133.6477  150.8895 C   0  0  0  0  0  0  0  0  0  0  0  0
  146.0170  134.3250  151.1684 C   0  0  0  0  0  0  0  0  0  0  0  0
  146.0059  135.4851  151.9664 C   0  0  0  0  0  0  0  0  0  0  0  0
  144.7823  135.9567  152.4790 C   0  0  0  0  0  0  0  0  0  0  0  0
  144.4314  137.0397  153.2784 N   0  0  0  0  0  0  0  0  0  0  0  0
  145.3612  138.0232  153.8200 C   0  0  0  0  0  0  0  0  0  0  0  0
  146.4957  138.3736  152.8352 C   0  0  1  0  0  0  0  0  0  0  0  0
  145.9635  138.8223  151.6035 O   0  0  0  0  0  0  0  0  0  0  0  0
  147.4599  139.3805  153.4421 C   0  0  0  0  0  0  0  0  0  0  0  0
  147.0800  140.7339  153.5710 C   0  0  0  0  0  0  0  0  0  0  0  0
  147.9719  141.6719  154.1266 C   0  0  0  0  0  0  0  0  0  0  0  0
  149.2497  141.2624  154.5538 C   0  0  0  0  0  0  0  0  0  0  0  0
  149.6360  139.9145  154.4239 C   0  0  0  0  0  0  0  0  0  0  0  0
  148.7444  138.9760  153.8690 C   0  0  0  0  0  0  0  0  0  0  0  0
  138.1492  137.5694  154.2033 H   0  0  0  0  0  0  0  0  0  0  0  0
  138.1726  135.8895  153.6556 H   0  0  0  0  0  0  0  0  0  0  0  0
  138.6132  137.1855  152.5386 H   0  0  0  0  0  0  0  0  0  0  0  0
  140.4464  138.6630  153.4714 H   0  0  0  0  0  0  0  0  0  0  0  0
  142.6222  138.9762  153.9747 H   0  0  0  0  0  0  0  0  0  0  0  0
  143.5248  137.8764  156.0210 H   0  0  0  0  0  0  0  0  0  0  0  0
  142.1428  136.7835  156.0559 H   0  0  0  0  0  0  0  0  0  0  0  0
  141.9085  138.5128  156.3035 H   0  0  0  0  0  0  0  0  0  0  0  0
  142.6714  133.5997  151.1856 H   0  0  0  0  0  0  0  0  0  0  0  0
  144.8262  132.7580  150.2770 H   0  0  0  0  0  0  0  0  0  0  0  0
  146.9495  133.9533  150.7694 H   0  0  0  0  0  0  0  0  0  0  0  0
  146.9268  136.0064  152.1818 H   0  0  0  0  0  0  0  0  0  0  0  0
  144.8156  138.9130  154.1319 H   0  0  0  0  0  0  0  0  0  0  0  0
  145.7887  137.6121  154.7354 H   0  0  0  0  0  0  0  0  0  0  0  0
  147.0519  137.4622  152.6119 H   0  0  0  0  0  0  0  0  0  0  0  0
  145.3122  139.4835  151.7816 H   0  0  0  0  0  0  0  0  0  0  0  0
  146.1032  141.0586  153.2435 H   0  0  0  0  0  0  0  0  0  0  0  0
  147.6764  142.7064  154.2244 H   0  0  0  0  0  0  0  0  0  0  0  0
  149.9340  141.9818  154.9789 H   0  0  0  0  0  0  0  0  0  0  0  0
  150.6169  139.6002  154.7492 H   0  0  0  0  0  0  0  0  0  0  0  0
  149.0505  137.9444  153.7698 H   0  0  0  0  0  0  0  0  0  0  0  0
  1  2  1  0  0  0  0
  1 25  1  0  0  0  0
  1 26  1  0  0  0  0
  1 27  1  0  0  0  0
  2  3  2  0  0  0  0
  2  4  1  0  0  0  0
  4  5  1  0  0  0  0
  4 28  1  0  0  0  0
  5  6  1  0  0  0  0
  5  7  1  0  0  0  0
  5 29  1  0  0  0  0
  6 30  1  0  0  0  0
  6 31  1  0  0  0  0
  6 32  1  0  0  0  0
  7 15  1  0  0  0  0
  7  8  2  0  0  0  0
  8  9  1  0  0  0  0
  9 14  2  0  0  0  0
  9 10  1  0  0  0  0
 10 11  2  0  0  0  0
 10 33  1  0  0  0  0
 11 12  1  0  0  0  0
 11 34  1  0  0  0  0
 12 13  2  0  0  0  0
 12 35  1  0  0  0  0
 13 14  1  0  0  0  0
 13 36  1  0  0  0  0
 14 15  1  0  0  0  0
 15 16  1  0  0  0  0
 16 17  1  0  0  0  0
 16 37  1  0  0  0  0
 16 38  1  0  0  0  0
 17 18  1  0  0  0  0
 17 19  1  0  0  0  0
 17 39  1  0  0  0  0
 18 40  1  0  0  0  0
 19 24  1  0  0  0  0
 19 20  2  0  0  0  0
 20 21  1  0  0  0  0
 20 41  1  0  0  0  0
 21 22  2  0  0  0  0
 21 42  1  0  0  0  0
 22 23  1  0  0  0  0
 22 43  1  0  0  0  0
 23 24  2  0  0  0  0
 23 44  1  0  0  0  0
 24 45  1  0  0  0  0
M  END
> <s_m_source_file>
AV-unprocessed.smi

> <i_m_source_file_index>
447

> <i_lp_mmshare_version>
43012

> <i_f3d_flags>
0

> <s_epik_input>
W0NIM11DKD1PKVtOSF1bQ0BIXShbQ0gzXSljKG4xKW4oYyhjMTIpW2NIXVtjSF1bY0hdW2NIXTIpW0NIMl1bQ0BIXShbT0hdKWMzW2NIXVtjSF1bY0hdW2NIXVtjSF0z

> <s_epik_cmdline>
J2VwaWtfcHl0aG9uJywgJy1waCcsICc3LjAnLCAnLXRuJywgJzgnLCAnLW1hJywgJzIwMCcsICctbWV0YWxfYmluZGluZycsICctaW1hZScsICc8aW5maWxlLm1hZT4nLCAnLW9tYWUnLCAnPG91dGZpbGUubWFlPic=

> <r_epik_Ionization_Penalty>
0.13301

> <r_epik_Ionization_Penalty_Charging>
0

> <r_epik_Ionization_Penalty_Neutral>
0.13301

> <r_epik_State_Penalty>
0.122384

> <r_epik_Charging_Adjusted_Penalty>
0.122384

> <i_epik_Tot_Q>
0

> <i_epik_Tot_abs_Q>
0

> <r_epik_Metal_State_Penalty>
0.0997374

> <b_epik_Metal_Only>
0

> <s_lp_Force_Field>
OPLS_2005

> <r_lp_Energy>
8.36794

> <b_lp_Chiralities_Consistent>
1

> <s_lp_Variant>
AV-unprocessed.smi:447-4

> <Gold.Version>
5.8.1

> <Gold.Id.Protein>
6NUR|6NUR_protein|mol2

> <Gold.PLP.Fitness>
45.7896

> <Gold.PLP.PLP>
-41.6703

> <Gold.PLP.part.hbond>
-3.0000

> <Gold.PLP.part.metal>
0.0000

> <Gold.PLP.part.buried>
-0.6466

> <Gold.PLP.part.nonpolar>
-36.7111

> <Gold.PLP.part.repulsive>
0.2915

> <Gold.PLP.ligand.clash>
0.0000

> <Gold.PLP.ligand.torsion>
0.9867

> <Gold.PLP.Chemscore.Hbond>
2.0000

> <Gold.PLP.Chemscore.CHOScore>
0.0000

> <Gold.PLP.Chemscore.Metal>
0.0000

> <Gold.Chemscore.Hbonds>
donor molecule, donor type, donor heavy atom, donor atom, acceptor molecule, acceptor atom, score
      L1  H    18    40       P1 10175  1.00
      P1  H 11000 11005       L1     3  0.99

> <Gold.PLP.Chemscore.Internal.Correction>
0.0928

> <Gold.Rescore>
     Score         DG    S(hbond)    S(metal)    S(lipo)     H(rot)  DE(clash)    DE(int)     intcor
     11.39     -16.31       1.91        0.00      89.40       2.35       0.45       4.47       ----

> <Gold.Chemscore.Fitness>
11.3917

> <Gold.Chemscore.DG>
-16.3108

> <Gold.Chemscore.ZeroCoef>
-5.4800

> <Gold.Chemscore.Hbond>
1.9145

> <Gold.Chemscore.Metal>
0.0000

> <Gold.Chemscore.Lipo>
89.3957

> <Gold.Chemscore.Internal_Hbond>
0.0000

> <Gold.Chemscore.DEClash>
0.4464

> <Gold.Chemscore.DEInternal>
4.4727

> <Gold.Chemscore.Rot>
2.3528

> <Gold.Chemscore.Internal.Correction>
   9.000000E+99

> <Gold.Chemscore.Hbonds>
donor molecule, donor type, donor heavy atom, donor atom, acceptor molecule, acceptor atom, score
      L1  H    18    40       P1 10175  0.81
      P1  H 11000 11005       L1     3  0.94

> <Gold.Chemscore.Hbond.Weighted>
-6.3946

> <Gold.Chemscore.Metal.Weighted>
-0.0000

> <Gold.Chemscore.Lipo.Weighted>
-10.4593

> <Gold.Chemscore.Internal_Hbond.Weighted>
0.0000

> <Gold.Chemscore.DEClash.Weighted>
0.4464

> <Gold.Chemscore.DEInternal.Weighted>
4.4727

> <Gold.Chemscore.Rot.Weighted>
6.0231

> <Gold.Chemscore.Internal.Correction.Weighted>
   9.000000E+99

> <Gold.Protein.RotatedTorsions>
[ 6907 6896 6895 6894 ] final  141.23 input  -60.11 | X-H torsion
[ 7974 7965 7964 7962 ] final  -86.90 input  175.53 | X-H torsion
[ 8008 7997 7996 7995 ] final -118.87 input   59.86 | X-H torsion
[ 10167 10162 10161 10158 ] final  -90.86 input  -65.29 | X-H torsion
[ 10718 10713 10712 10709 ] final   16.43 input   66.30 | X-H torsion
[ 10763 10752 10751 10750 ] final  -61.06 input  -60.55 | X-H torsion
[ 11005 11000 10999 10996 ] final   49.07 input  -57.11 | X-H torsion

> <Gold.Protein.ActiveResidues>
 VAL166  LYS551  ARG553  GLY616  TRP617  ASP618  TYR619  PRO620  LYS621  CYS622 
 ASP623  PHE694  ASN695  SER759  ASP760  ASP761  ALA762  ILE779  LEU786  VAL792 
 PHE793  MET794  SER795  GLU796  ALA797  LYS798  CYS799  TRP800  GLU811  SER814 

> <Gold.Protein.RotatedAtoms>
  152.2334  133.5077  159.5228 H   0  0  0  0  0  0  0  0  0  0  0  0  # atno 6907 bound_to 6896
  150.7044  134.1185  159.4035 H   0  0  0  0  0  0  0  0  0  0  0  0  # atno 6908 bound_to 6896
  151.9107  135.0340  160.0565 H   0  0  0  0  0  0  0  0  0  0  0  0  # atno 6909 bound_to 6896
  145.4738  140.9559  143.1902 H   0  0  0  0  0  0  0  0  0  0  0  0  # atno 7974 bound_to 7965
  155.1066  140.0396  157.2712 H   0  0  0  0  0  0  0  0  0  0  0  0  # atno 8008 bound_to 7997
  154.6717  140.2614  155.6974 H   0  0  0  0  0  0  0  0  0  0  0  0  # atno 8009 bound_to 7997
  156.2661  140.2796  156.1229 H   0  0  0  0  0  0  0  0  0  0  0  0  # atno 8010 bound_to 7997
  140.3507  143.2893  151.9729 H   0  0  0  0  0  0  0  0  0  0  0  0  # atno 10167 bound_to 10162
  157.0677  130.6335  149.5799 H   0  0  0  0  0  0  0  0  0  0  0  0  # atno 10718 bound_to 10713
  154.2788  135.6276  153.5339 H   0  0  0  0  0  0  0  0  0  0  0  0  # atno 10763 bound_to 10752
  152.9869  135.5628  154.5519 H   0  0  0  0  0  0  0  0  0  0  0  0  # atno 10764 bound_to 10752
  154.5105  135.2876  155.1322 H   0  0  0  0  0  0  0  0  0  0  0  0  # atno 10765 bound_to 10752
  140.1135  134.4923  155.8657 H   0  0  0  0  0  0  0  0  0  0  0  0  # atno 11005 bound_to 11000
  144.7929  139.6291  143.7105 LP  0  0  0  0  0  0  0  0  0  0  0  0  # atno 17320 bound_to 7965
  146.2381  139.5946  142.9510 LP  0  0  0  0  0  0  0  0  0  0  0  0  # atno 17321 bound_to 7965
  139.4827  144.6078  151.7489 LP  0  0  0  0  0  0  0  0  0  0  0  0  # atno 17342 bound_to 10162
  140.5222  144.0862  150.6026 LP  0  0  0  0  0  0  0  0  0  0  0  0  # atno 17343 bound_to 10162
  155.9959  130.5028  150.7479 LP  0  0  0  0  0  0  0  0  0  0  0  0  # atno 17370 bound_to 10713
  157.4904  131.0910  151.0434 LP  0  0  0  0  0  0  0  0  0  0  0  0  # atno 17371 bound_to 10713
  141.2136  133.6735  156.6751 LP  0  0  0  0  0  0  0  0  0  0  0  0  # atno 17394 bound_to 11000
  140.3059  134.8126  157.4136 LP  0  0  0  0  0  0  0  0  0  0  0  0  # atno 17395 bound_to 11000

$$$$
