AV-unprocessed.smi:2439|AV-procd|sdf|9614|dock2
  -GOLD-   2272013243D 1   1.00000     0.00000
 Structure written by MMmdl.
 40 42  0  0  0  0  0  0  0  0  1 V2000
  154.9057  139.1854  159.3545 N   0  0  0  0  0  0  0  0  0  0  0  0
  154.7874  138.6468  160.3716 C   0  0  0  0  0  0  0  0  0  0  0  0
  154.6387  137.9684  161.6534 C   0  0  0  0  0  0  0  0  0  0  0  0
  154.1710  136.6375  161.6713 C   0  0  0  0  0  0  0  0  0  0  0  0
  154.0254  135.9778  162.9053 C   0  0  0  0  0  0  0  0  0  0  0  0
  154.3579  136.6793  164.0781 C   0  0  0  0  0  0  0  0  0  0  0  0
  154.8079  137.9511  164.0752 N   0  0  0  0  0  0  0  0  0  0  0  0
  154.9469  138.5961  162.8905 C   0  0  0  0  0  0  0  0  0  0  0  0
  155.4196  139.9218  162.9175 N   0  0  0  0  0  0  0  0  0  0  0  0
  154.5391  141.0483  163.2053 C   0  0  0  0  0  0  0  0  0  0  0  0
  153.6677  141.4355  161.9992 C   0  0  1  0  0  0  0  0  0  0  0  0
  153.1237  142.8697  162.1298 C   0  0  0  0  0  0  0  0  0  0  0  0
  152.3585  143.2692  160.9557 N   0  0  0  0  0  0  0  0  0  0  0  0
  151.8525  144.6344  161.0897 C   0  0  0  0  0  0  0  0  0  0  0  0
  151.0114  145.0684  159.8787 C   0  0  0  0  0  0  0  0  0  0  0  0
  151.8265  144.9273  158.5853 C   0  0  0  0  0  0  0  0  0  0  0  0
  152.4013  143.5065  158.4766 C   0  0  0  0  0  0  0  0  0  0  0  0
  153.1829  143.1282  159.7517 C   0  0  2  0  0  0  0  0  0  0  0  0
  153.7518  141.6990  159.6384 C   0  0  0  0  0  0  0  0  0  0  0  0
  154.4696  141.3675  160.8227 O   0  0  0  0  0  0  0  0  0  0  0  0
  153.9254  136.1236  160.7528 H   0  0  0  0  0  0  0  0  0  0  0  0
  153.6689  134.9595  162.9512 H   0  0  0  0  0  0  0  0  0  0  0  0
  154.2612  136.2070  165.0446 H   0  0  0  0  0  0  0  0  0  0  0  0
  156.3354  140.1211  162.5411 H   0  0  0  0  0  0  0  0  0  0  0  0
  153.9137  140.8101  164.0661 H   0  0  0  0  0  0  0  0  0  0  0  0
  155.1529  141.8978  163.5052 H   0  0  0  0  0  0  0  0  0  0  0  0
  152.8294  140.7426  161.9074 H   0  0  0  0  0  0  0  0  0  0  0  0
  152.4947  142.9389  163.0179 H   0  0  0  0  0  0  0  0  0  0  0  0
  153.9547  143.5606  162.2815 H   0  0  0  0  0  0  0  0  0  0  0  0
  151.2441  144.7124  161.9915 H   0  0  0  0  0  0  0  0  0  0  0  0
  152.6856  145.3270  161.2190 H   0  0  0  0  0  0  0  0  0  0  0  0
  150.1129  144.4529  159.8178 H   0  0  0  0  0  0  0  0  0  0  0  0
  150.6766  146.0986  160.0022 H   0  0  0  0  0  0  0  0  0  0  0  0
  151.2053  145.1535  157.7183 H   0  0  0  0  0  0  0  0  0  0  0  0
  152.6414  145.6523  158.5855 H   0  0  0  0  0  0  0  0  0  0  0  0
  151.5877  142.7969  158.3191 H   0  0  0  0  0  0  0  0  0  0  0  0
  153.0485  143.4367  157.6017 H   0  0  0  0  0  0  0  0  0  0  0  0
  154.0313  143.8100  159.8338 H   0  0  0  0  0  0  0  0  0  0  0  0
  152.9543  140.9719  159.4769 H   0  0  0  0  0  0  0  0  0  0  0  0
  154.4288  141.6248  158.7870 H   0  0  0  0  0  0  0  0  0  0  0  0
  1  2  3  0  0  0  0
  2  3  1  0  0  0  0
  3  8  1  0  0  0  0
  3  4  2  0  0  0  0
  4  5  1  0  0  0  0
  4 21  1  0  0  0  0
  5  6  2  0  0  0  0
  5 22  1  0  0  0  0
  6  7  1  0  0  0  0
  6 23  1  0  0  0  0
  7  8  2  0  0  0  0
  8  9  1  0  0  0  0
  9 10  1  0  0  0  0
  9 24  1  0  0  0  0
 10 11  1  0  0  0  0
 10 25  1  0  0  0  0
 10 26  1  0  0  0  0
 11 20  1  0  0  0  0
 11 12  1  0  0  0  0
 11 27  1  0  0  0  0
 12 13  1  0  0  0  0
 12 28  1  0  0  0  0
 12 29  1  0  0  0  0
 13 18  1  0  0  0  0
 13 14  1  0  0  0  0
 14 15  1  0  0  0  0
 14 30  1  0  0  0  0
 14 31  1  0  0  0  0
 15 16  1  0  0  0  0
 15 32  1  0  0  0  0
 15 33  1  0  0  0  0
 16 17  1  0  0  0  0
 16 34  1  0  0  0  0
 16 35  1  0  0  0  0
 17 18  1  0  0  0  0
 17 36  1  0  0  0  0
 17 37  1  0  0  0  0
 18 19  1  0  0  0  0
 18 38  1  0  0  0  0
 19 20  1  0  0  0  0
 19 39  1  0  0  0  0
 19 40  1  0  0  0  0
M  END
> <s_m_source_file>
AV-unprocessed.smi

> <i_m_source_file_index>
2439

> <i_lp_mmshare_version>
43012

> <i_f3d_flags>
0

> <s_epik_input>
TiNDYzFbY0hdW2NIXVtjSF1uYzFbTkhdW0NIMl1bQ0BIXShbQ0gyXTIpT1tDSDJdW0NAQEhdKE4yMylbQ0gyXVtDSDJdW0NIMl1bQ0gyXTM=

> <s_epik_cmdline>
J2VwaWtfcHl0aG9uJywgJy1waCcsICc3LjAnLCAnLXRuJywgJzgnLCAnLW1hJywgJzIwMCcsICctbWV0YWxfYmluZGluZycsICctaW1hZScsICc8aW5maWxlLm1hZT4nLCAnLW9tYWUnLCAnPG91dGZpbGUubWFlPic=

> <r_epik_Ionization_Penalty>
1.22355

> <r_epik_Ionization_Penalty_Charging>
0

> <r_epik_Ionization_Penalty_Neutral>
1.22355

> <r_epik_State_Penalty>
1.29103

> <r_epik_Charging_Adjusted_Penalty>
1.29103

> <i_epik_Tot_Q>
0

> <i_epik_Tot_abs_Q>
0

> <r_epik_Metal_State_Penalty>
1.29103

> <b_epik_Metal_Only>
0

> <s_lp_Force_Field>
OPLS_2005

> <r_lp_Energy>
37.4095

> <b_lp_Chiralities_Consistent>
1

> <s_lp_Variant>
AV-unprocessed.smi:2439-12

> <Gold.Version>
5.8.1

> <Gold.Id.Protein>
6NUR|6NUR_protein|mol2

> <Gold.PLP.Fitness>
44.2985

> <Gold.PLP.PLP>
-43.3433

> <Gold.PLP.part.hbond>
-1.8707

> <Gold.PLP.part.metal>
0.0000

> <Gold.PLP.part.buried>
-3.7428

> <Gold.PLP.part.nonpolar>
-37.6148

> <Gold.PLP.part.repulsive>
0.1060

> <Gold.PLP.ligand.clash>
0.0000

> <Gold.PLP.ligand.torsion>
1.0244

> <Gold.PLP.Chemscore.Hbond>
1.0000

> <Gold.PLP.Chemscore.CHOScore>
0.0000

> <Gold.PLP.Chemscore.Metal>
0.0000

> <Gold.Chemscore.Hbonds>
donor molecule, donor type, donor heavy atom, donor atom, acceptor molecule, acceptor atom, score
      P1  H  7997  8008       L1     1  0.62

> <Gold.PLP.Chemscore.Internal.Correction>
0.0041

> <Gold.Rescore>
     Score         DG    S(hbond)    S(metal)    S(lipo)     H(rot)  DE(clash)    DE(int)     intcor
     19.37     -20.53       0.99        0.00     127.56       1.25       0.28       0.88       ----

> <Gold.Chemscore.Fitness>
19.3698

> <Gold.Chemscore.DG>
-20.5278

> <Gold.Chemscore.ZeroCoef>
-5.4800

> <Gold.Chemscore.Hbond>
0.9937

> <Gold.Chemscore.Metal>
0.0000

> <Gold.Chemscore.Lipo>
127.5624

> <Gold.Chemscore.Internal_Hbond>
0.0000

> <Gold.Chemscore.DEClash>
0.2788

> <Gold.Chemscore.DEInternal>
0.8792

> <Gold.Chemscore.Rot>
1.2485

> <Gold.Chemscore.Internal.Correction>
   9.000000E+99

> <Gold.Chemscore.Hbonds>
donor molecule, donor type, donor heavy atom, donor atom, acceptor molecule, acceptor atom, score
      P1  H  7997  8008       L1     1  0.63

> <Gold.Chemscore.Hbond.Weighted>
-3.3191

> <Gold.Chemscore.Metal.Weighted>
-0.0000

> <Gold.Chemscore.Lipo.Weighted>
-14.9248

> <Gold.Chemscore.Internal_Hbond.Weighted>
0.0000

> <Gold.Chemscore.DEClash.Weighted>
0.2788

> <Gold.Chemscore.DEInternal.Weighted>
0.8792

> <Gold.Chemscore.Rot.Weighted>
3.1961

> <Gold.Chemscore.Internal.Correction.Weighted>
   9.000000E+99

> <Gold.Protein.RotatedTorsions>
[ 6907 6896 6895 6894 ] final   -6.72 input  -60.11 | X-H torsion
[ 7974 7965 7964 7962 ] final -103.91 input  175.53 | X-H torsion
[ 8008 7997 7996 7995 ] final -123.05 input   59.86 | X-H torsion
[ 10167 10162 10161 10158 ] final -156.22 input  -65.29 | X-H torsion
[ 10718 10713 10712 10709 ] final    7.16 input   66.30 | X-H torsion
[ 10763 10752 10751 10750 ] final   -4.95 input  -60.55 | X-H torsion
[ 11005 11000 10999 10996 ] final   72.82 input  -57.11 | X-H torsion

> <Gold.Protein.ActiveResidues>
 VAL166  LYS551  ARG553  GLY616  TRP617  ASP618  TYR619  PRO620  LYS621  CYS622 
 ASP623  PHE694  ASN695  SER759  ASP760  ASP761  ALA762  ILE779  LEU786  VAL792 
 PHE793  MET794  SER795  GLU796  ALA797  LYS798  CYS799  TRP800  GLU811  SER814 

> <Gold.Protein.RotatedAtoms>
  151.4611  135.1038  159.9724 H   0  0  0  0  0  0  0  0  0  0  0  0  # atno 6907 bound_to 6896
  152.4852  133.8352  159.7134 H   0  0  0  0  0  0  0  0  0  0  0  0  # atno 6908 bound_to 6896
  150.8957  133.7124  159.2919 H   0  0  0  0  0  0  0  0  0  0  0  0  # atno 6909 bound_to 6896
  145.2499  140.9234  143.3101 H   0  0  0  0  0  0  0  0  0  0  0  0  # atno 7974 bound_to 7965
  155.1743  140.0409  157.2869 H   0  0  0  0  0  0  0  0  0  0  0  0  # atno 8008 bound_to 7997
  154.6248  140.2509  155.7478 H   0  0  0  0  0  0  0  0  0  0  0  0  # atno 8009 bound_to 7997
  156.2453  140.2887  156.0572 H   0  0  0  0  0  0  0  0  0  0  0  0  # atno 8010 bound_to 7997
  139.6867  143.9489  152.2365 H   0  0  0  0  0  0  0  0  0  0  0  0  # atno 10167 bound_to 10162
  156.9328  130.5832  149.5650 H   0  0  0  0  0  0  0  0  0  0  0  0  # atno 10718 bound_to 10713
  153.3918  135.7002  153.6489 H   0  0  0  0  0  0  0  0  0  0  0  0  # atno 10763 bound_to 10752
  153.5058  135.3642  155.2563 H   0  0  0  0  0  0  0  0  0  0  0  0  # atno 10764 bound_to 10752
  154.8703  135.4123  154.3236 H   0  0  0  0  0  0  0  0  0  0  0  0  # atno 10765 bound_to 10752
  139.9471  134.7293  156.0952 H   0  0  0  0  0  0  0  0  0  0  0  0  # atno 11005 bound_to 11000
  144.9512  139.4081  143.6401 LP  0  0  0  0  0  0  0  0  0  0  0  0  # atno 17320 bound_to 7965
  146.3305  139.8520  142.8871 LP  0  0  0  0  0  0  0  0  0  0  0  0  # atno 17321 bound_to 7965
  139.9294  144.6751  150.8379 LP  0  0  0  0  0  0  0  0  0  0  0  0  # atno 17342 bound_to 10162
  140.7670  143.3319  151.2391 LP  0  0  0  0  0  0  0  0  0  0  0  0  # atno 17343 bound_to 10162
  156.0439  130.5518  150.8836 LP  0  0  0  0  0  0  0  0  0  0  0  0  # atno 17370 bound_to 10713
  157.5836  131.0946  150.9232 LP  0  0  0  0  0  0  0  0  0  0  0  0  # atno 17371 bound_to 10713
  141.1124  133.6639  156.3012 LP  0  0  0  0  0  0  0  0  0  0  0  0  # atno 17394 bound_to 11000
  140.5808  134.5747  157.5479 LP  0  0  0  0  0  0  0  0  0  0  0  0  # atno 17395 bound_to 11000

$$$$
