AV-unprocessed.smi:1680|AV-procd|sdf|6737|dock5
  -GOLD-   22720 7483D 1   1.00000     0.00000
 Structure written by MMmdl.
 38 39  0  0  0  0  0  0  0  0  1 V2000
  152.1803  144.0049  159.2277 C   0  0  0  0  0  0  0  0  0  0  0  0
  152.6006  142.5500  159.4462 C   0  0  0  0  0  0  0  0  0  0  0  0
  153.5999  142.3333  160.1319 O   0  0  0  0  0  0  0  0  0  0  0  0
  151.8695  141.5588  158.8832 N   0  0  0  0  0  0  0  0  0  0  0  0
  152.1751  140.1257  158.9389 C   0  0  0  0  0  0  0  0  0  0  0  0
  152.4756  139.6246  157.5129 C   0  0  0  0  0  0  0  0  0  0  0  0
  151.3225  139.8631  156.6404 N   0  0  0  0  0  0  0  0  0  0  0  0
  151.6071  139.3456  155.3019 C   0  0  0  0  0  0  0  0  0  0  0  0
  150.3464  139.2169  154.4213 C   0  0  0  0  0  0  0  0  0  0  0  0
  150.0067  137.8205  154.1640 N   0  0  0  0  0  0  0  0  0  0  0  0
  150.1458  136.8146  155.0403 C   0  0  0  0  0  0  0  0  0  0  0  0
  150.5484  136.9675  156.1940 O   0  0  0  0  0  0  0  0  0  0  0  0
  149.7952  135.6392  154.4893 N   0  0  0  0  0  0  0  0  0  0  0  0
  149.8430  134.3452  155.0721 C   0  0  0  0  0  0  0  0  0  0  0  0
  150.2511  134.1086  156.3287 N   0  0  0  0  0  0  0  0  0  0  0  0
  150.2045  132.7570  156.6445 N   0  0  0  0  0  0  0  0  0  0  0  0
  149.7649  132.0282  155.6147 C   0  0  0  0  0  0  0  0  0  0  0  0
  149.3605  132.9223  154.1597 S   0  0  0  0  0  0  0  0  0  0  0  0
  151.0070  141.2965  156.6079 C   0  0  0  0  0  0  0  0  0  0  0  0
  150.7029  141.8036  158.0306 C   0  0  0  0  0  0  0  0  0  0  0  0
  151.1823  144.1831  159.6288 H   0  0  0  0  0  0  0  0  0  0  0  0
  152.1877  144.2541  158.1661 H   0  0  0  0  0  0  0  0  0  0  0  0
  152.8680  144.6836  159.7335 H   0  0  0  0  0  0  0  0  0  0  0  0
  153.0137  139.8832  159.5896 H   0  0  0  0  0  0  0  0  0  0  0  0
  151.3175  139.5919  159.3523 H   0  0  0  0  0  0  0  0  0  0  0  0
  153.3604  140.1236  157.1137 H   0  0  0  0  0  0  0  0  0  0  0  0
  152.6947  138.5566  157.5445 H   0  0  0  0  0  0  0  0  0  0  0  0
  152.3477  139.9795  154.8122 H   0  0  0  0  0  0  0  0  0  0  0  0
  152.0590  138.3564  155.3889 H   0  0  0  0  0  0  0  0  0  0  0  0
  149.4990  139.7649  154.8340 H   0  0  0  0  0  0  0  0  0  0  0  0
  150.5478  139.6802  153.4554 H   0  0  0  0  0  0  0  0  0  0  0  0
  149.6661  137.6013  153.2394 H   0  0  0  0  0  0  0  0  0  0  0  0
  149.4773  135.6705  153.5320 H   0  0  0  0  0  0  0  0  0  0  0  0
  149.6772  130.9563  155.7132 H   0  0  0  0  0  0  0  0  0  0  0  0
  151.8398  141.8555  156.1782 H   0  0  0  0  0  0  0  0  0  0  0  0
  150.1383  141.4815  155.9776 H   0  0  0  0  0  0  0  0  0  0  0  0
  149.8366  141.2820  158.4408 H   0  0  0  0  0  0  0  0  0  0  0  0
  150.4255  142.8578  157.9888 H   0  0  0  0  0  0  0  0  0  0  0  0
  1  2  1  0  0  0  0
  1 21  1  0  0  0  0
  1 22  1  0  0  0  0
  1 23  1  0  0  0  0
  2  3  2  0  0  0  0
  2  4  1  0  0  0  0
  4 20  1  0  0  0  0
  4  5  1  0  0  0  0
  5  6  1  0  0  0  0
  5 24  1  0  0  0  0
  5 25  1  0  0  0  0
  6  7  1  0  0  0  0
  6 26  1  0  0  0  0
  6 27  1  0  0  0  0
  7  8  1  0  0  0  0
  7 19  1  0  0  0  0
  8  9  1  0  0  0  0
  8 28  1  0  0  0  0
  8 29  1  0  0  0  0
  9 10  1  0  0  0  0
  9 30  1  0  0  0  0
  9 31  1  0  0  0  0
 10 11  1  0  0  0  0
 10 32  1  0  0  0  0
 11 12  2  0  0  0  0
 11 13  1  0  0  0  0
 13 14  1  0  0  0  0
 13 33  1  0  0  0  0
 14 18  1  0  0  0  0
 14 15  2  0  0  0  0
 15 16  1  0  0  0  0
 16 17  2  0  0  0  0
 17 18  1  0  0  0  0
 17 34  1  0  0  0  0
 19 20  1  0  0  0  0
 19 35  1  0  0  0  0
 19 36  1  0  0  0  0
 20 37  1  0  0  0  0
 20 38  1  0  0  0  0
M  END
> <s_m_source_file>
AV-unprocessed.smi

> <i_m_source_file_index>
1680

> <i_lp_mmshare_version>
43012

> <i_f3d_flags>
0

> <s_epik_input>
W0NIM11DKD1PKU4xW0NIMl1bQ0gyXU4oW0NIMl1bQ0gyXTEpW0NIMl1bQ0gyXVtOSF1DKD1PKVtOSF1jMm5uW2NIXXMy

> <s_epik_cmdline>
J2VwaWtfcHl0aG9uJywgJy1waCcsICc3LjAnLCAnLXRuJywgJzgnLCAnLW1hJywgJzIwMCcsICctbWV0YWxfYmluZGluZycsICctaW1hZScsICc8aW5maWxlLm1hZT4nLCAnLW9tYWUnLCAnPG91dGZpbGUubWFlPic=

> <r_lp_tautomer_probability>
1

> <r_epik_Ionization_Penalty>
0.229992

> <r_epik_Ionization_Penalty_Charging>
0

> <r_epik_Ionization_Penalty_Neutral>
0.229992

> <r_epik_State_Penalty>
0.219013

> <r_epik_Charging_Adjusted_Penalty>
0.219013

> <i_epik_Tot_Q>
0

> <i_epik_Tot_abs_Q>
0

> <r_epik_Metal_State_Penalty>
0.556868

> <b_epik_Metal_Only>
0

> <s_lp_Force_Field>
OPLS_2005

> <r_lp_Energy>
36.5244

> <b_lp_Chiralities_Consistent>
1

> <s_lp_Variant>
AV-unprocessed.smi:1680-1

> <Gold.Version>
5.8.1

> <Gold.Id.Protein>
6NUR|6NUR_protein|mol2

> <Gold.PLP.Fitness>
40.6658

> <Gold.PLP.PLP>
-35.9149

> <Gold.PLP.part.hbond>
-2.2579

> <Gold.PLP.part.metal>
0.0000

> <Gold.PLP.part.buried>
-3.7933

> <Gold.PLP.part.nonpolar>
-30.0273

> <Gold.PLP.part.repulsive>
0.1186

> <Gold.PLP.ligand.clash>
0.0000

> <Gold.PLP.ligand.torsion>
0.6215

> <Gold.PLP.Chemscore.Hbond>
1.9920

> <Gold.PLP.Chemscore.CHOScore>
0.0000

> <Gold.PLP.Chemscore.Metal>
0.0000

> <Gold.Chemscore.Hbonds>
donor molecule, donor type, donor heavy atom, donor atom, acceptor molecule, acceptor atom, score
      L1  H    10    32       P1  7948  0.99
      L1  H    13    33       P1  7948  1.00

> <Gold.PLP.Chemscore.Internal.Correction>
0.0179

> <Gold.Rescore>
     Score         DG    S(hbond)    S(metal)    S(lipo)     H(rot)  DE(clash)    DE(int)     intcor
     10.02     -14.20       1.86        0.00      60.82       1.79       0.40       3.78       ----

> <Gold.Chemscore.Fitness>
10.0221

> <Gold.Chemscore.DG>
-14.2043

> <Gold.Chemscore.ZeroCoef>
-5.4800

> <Gold.Chemscore.Hbond>
1.8555

> <Gold.Chemscore.Metal>
0.0000

> <Gold.Chemscore.Lipo>
60.8207

> <Gold.Chemscore.Internal_Hbond>
0.0000

> <Gold.Chemscore.DEClash>
0.3991

> <Gold.Chemscore.DEInternal>
3.7831

> <Gold.Chemscore.Rot>
1.7926

> <Gold.Chemscore.Internal.Correction>
   9.000000E+99

> <Gold.Chemscore.Hbonds>
donor molecule, donor type, donor heavy atom, donor atom, acceptor molecule, acceptor atom, score
      L1  H    10    32       P1  7948  0.66
      L1  H    13    33       P1  7948  0.26

> <Gold.Chemscore.Hbond.Weighted>
-6.1973

> <Gold.Chemscore.Metal.Weighted>
-0.0000

> <Gold.Chemscore.Lipo.Weighted>
-7.1160

> <Gold.Chemscore.Internal_Hbond.Weighted>
0.0000

> <Gold.Chemscore.DEClash.Weighted>
0.3991

> <Gold.Chemscore.DEInternal.Weighted>
3.7831

> <Gold.Chemscore.Rot.Weighted>
4.5890

> <Gold.Chemscore.Internal.Correction.Weighted>
   9.000000E+99

> <Gold.Protein.RotatedTorsions>
[ 6907 6896 6895 6894 ] final  -82.26 input  -60.11 | X-H torsion
[ 7974 7965 7964 7962 ] final  175.68 input  175.53 | X-H torsion
[ 8008 7997 7996 7995 ] final  124.21 input   59.86 | X-H torsion
[ 10167 10162 10161 10158 ] final  -33.51 input  -65.29 | X-H torsion
[ 10718 10713 10712 10709 ] final   82.91 input   66.30 | X-H torsion
[ 10763 10752 10751 10750 ] final  -24.19 input  -60.55 | X-H torsion
[ 11005 11000 10999 10996 ] final  -56.06 input  -57.11 | X-H torsion

> <Gold.Protein.ActiveResidues>
 VAL166  LYS551  ARG553  GLY616  TRP617  ASP618  TYR619  PRO620  LYS621  CYS622 
 ASP623  PHE694  ASN695  SER759  ASP760  ASP761  ALA762  ILE779  LEU786  VAL792 
 PHE793  MET794  SER795  GLU796  ALA797  LYS798  CYS799  TRP800  GLU811  SER814 

> <Gold.Protein.RotatedAtoms>
  150.6900  134.3692  159.4984 H   0  0  0  0  0  0  0  0  0  0  0  0  # atno 6907 bound_to 6896
  152.1510  134.8985  160.0557 H   0  0  0  0  0  0  0  0  0  0  0  0  # atno 6908 bound_to 6896
  152.0083  133.3816  159.4246 H   0  0  0  0  0  0  0  0  0  0  0  0  # atno 6909 bound_to 6896
  144.7197  139.9984  143.6440 H   0  0  0  0  0  0  0  0  0  0  0  0  # atno 7974 bound_to 7965
  156.2793  140.2745  156.1752 H   0  0  0  0  0  0  0  0  0  0  0  0  # atno 8008 bound_to 7997
  155.0614  140.0386  157.2596 H   0  0  0  0  0  0  0  0  0  0  0  0  # atno 8009 bound_to 7997
  154.7114  140.2669  155.6631 H   0  0  0  0  0  0  0  0  0  0  0  0  # atno 8010 bound_to 7997
  140.7203  143.3615  151.1954 H   0  0  0  0  0  0  0  0  0  0  0  0  # atno 10167 bound_to 10162
  157.6868  131.0068  150.2445 H   0  0  0  0  0  0  0  0  0  0  0  0  # atno 10718 bound_to 10713
  153.6798  135.6967  153.5121 H   0  0  0  0  0  0  0  0  0  0  0  0  # atno 10763 bound_to 10752
  153.2494  135.4280  155.0780 H   0  0  0  0  0  0  0  0  0  0  0  0  # atno 10764 bound_to 10752
  154.8403  135.3527  154.6341 H   0  0  0  0  0  0  0  0  0  0  0  0  # atno 10765 bound_to 10752
  141.1103  133.6611  156.4563 H   0  0  0  0  0  0  0  0  0  0  0  0  # atno 11005 bound_to 11000
  146.0356  139.3374  143.0729 LP  0  0  0  0  0  0  0  0  0  0  0  0  # atno 17320 bound_to 7965
  145.8399  140.9586  143.0804 LP  0  0  0  0  0  0  0  0  0  0  0  0  # atno 17321 bound_to 7965
  139.7167  143.9288  152.2969 LP  0  0  0  0  0  0  0  0  0  0  0  0  # atno 17342 bound_to 10162
  139.9032  144.6900  150.8643 LP  0  0  0  0  0  0  0  0  0  0  0  0  # atno 17343 bound_to 10162
  156.3053  130.3764  149.7712 LP  0  0  0  0  0  0  0  0  0  0  0  0  # atno 17370 bound_to 10713
  156.5329  130.8266  151.3243 LP  0  0  0  0  0  0  0  0  0  0  0  0  # atno 17371 bound_to 10713
  140.4794  134.6679  157.5164 LP  0  0  0  0  0  0  0  0  0  0  0  0  # atno 17394 bound_to 11000
  139.9993  134.6862  155.9557 LP  0  0  0  0  0  0  0  0  0  0  0  0  # atno 17395 bound_to 11000

$$$$
