AV-unprocessed.smi:1983|AV-procd|sdf|8029|dock1
  -GOLD-   2272010223D 1   1.00000     0.00000
 Structure written by MMmdl.
 49 50  0  0  0  0  0  0  0  0  1 V2000
  144.8804  134.7251  153.4908 C   0  0  0  0  0  0  0  0  0  0  0  0
  145.5542  135.0979  152.1583 C   0  0  1  0  0  0  0  0  0  0  0  0
  144.5299  135.4446  151.0643 C   0  0  0  0  0  0  0  0  0  0  0  0
  145.1718  136.0280  149.9508 O   0  0  0  0  0  0  0  0  0  0  0  0
  146.4567  136.2309  152.3437 N   0  0  0  0  0  0  0  0  0  0  0  0
  146.0775  137.4869  152.6189 C   0  0  0  0  0  0  0  0  0  0  0  0
  144.9057  137.8435  152.7446 O   0  0  0  0  0  0  0  0  0  0  0  0
  147.1288  138.3097  152.7349 N   0  0  0  0  0  0  0  0  0  0  0  0
  147.0357  139.7406  152.9990 C   0  0  0  0  0  0  0  0  0  0  0  0
  148.0364  140.2125  154.0387 C   0  0  0  0  0  0  0  0  0  0  0  0
  147.6204  140.9554  155.1603 C   0  0  0  0  0  0  0  0  0  0  0  0
  148.5861  141.3776  156.0936 C   0  0  0  0  0  0  0  0  0  0  0  0
  149.9446  141.0436  155.8809 C   0  0  0  0  0  0  0  0  0  0  0  0
  150.9261  141.4570  156.8064 N   0  0  0  0  0  0  0  0  0  0  0  0
  151.3613  140.4366  157.7552 C   0  0  0  0  0  0  0  0  0  0  0  0
  152.6361  140.8940  158.4898 C   0  0  2  0  0  0  0  0  0  0  0  0
  153.0526  139.9072  159.5855 C   0  0  0  0  0  0  0  0  0  0  0  0
  152.4013  142.1625  159.0963 O   0  0  0  0  0  0  0  0  0  0  0  0
  152.0843  143.1727  158.1421 C   0  0  2  0  0  0  0  0  0  0  0  0
  151.9471  144.5081  158.8803 C   0  0  0  0  0  0  0  0  0  0  0  0
  150.7891  142.7818  157.4065 C   0  0  0  0  0  0  0  0  0  0  0  0
  150.3392  140.3236  154.8014 N   0  0  0  0  0  0  0  0  0  0  0  0
  149.4099  139.9256  153.9073 C   0  0  0  0  0  0  0  0  0  0  0  0
  144.2158  133.8695  153.3697 H   0  0  0  0  0  0  0  0  0  0  0  0
  144.2884  135.5525  153.8827 H   0  0  0  0  0  0  0  0  0  0  0  0
  145.6181  134.4564  154.2475 H   0  0  0  0  0  0  0  0  0  0  0  0
  146.1449  134.2475  151.8114 H   0  0  0  0  0  0  0  0  0  0  0  0
  143.9764  134.5597  150.7477 H   0  0  0  0  0  0  0  0  0  0  0  0
  143.8009  136.1639  151.4397 H   0  0  0  0  0  0  0  0  0  0  0  0
  144.6475  136.7531  149.6471 H   0  0  0  0  0  0  0  0  0  0  0  0
  147.4445  136.0416  152.2584 H   0  0  0  0  0  0  0  0  0  0  0  0
  148.0545  137.9246  152.6181 H   0  0  0  0  0  0  0  0  0  0  0  0
  147.1554  140.3042  152.0719 H   0  0  0  0  0  0  0  0  0  0  0  0
  146.0310  139.9576  153.3620 H   0  0  0  0  0  0  0  0  0  0  0  0
  146.5786  141.2011  155.3055 H   0  0  0  0  0  0  0  0  0  0  0  0
  148.2756  141.9373  156.9632 H   0  0  0  0  0  0  0  0  0  0  0  0
  150.5574  140.2609  158.4714 H   0  0  0  0  0  0  0  0  0  0  0  0
  151.5557  139.4865  157.2591 H   0  0  0  0  0  0  0  0  0  0  0  0
  153.4570  140.9859  157.7763 H   0  0  0  0  0  0  0  0  0  0  0  0
  153.2509  138.9195  159.1688 H   0  0  0  0  0  0  0  0  0  0  0  0
  152.2719  139.8020  160.3396 H   0  0  0  0  0  0  0  0  0  0  0  0
  153.9592  140.2438  160.0889 H   0  0  0  0  0  0  0  0  0  0  0  0
  152.9029  143.2568  157.4249 H   0  0  0  0  0  0  0  0  0  0  0  0
  151.7176  145.3178  158.1871 H   0  0  0  0  0  0  0  0  0  0  0  0
  152.8729  144.7648  159.3957 H   0  0  0  0  0  0  0  0  0  0  0  0
  151.1511  144.4686  159.6246 H   0  0  0  0  0  0  0  0  0  0  0  0
  150.5721  143.5216  156.6347 H   0  0  0  0  0  0  0  0  0  0  0  0
  149.9479  142.7774  158.1012 H   0  0  0  0  0  0  0  0  0  0  0  0
  149.7744  139.3597  153.0628 H   0  0  0  0  0  0  0  0  0  0  0  0
  1  2  1  0  0  0  0
  1 24  1  0  0  0  0
  1 25  1  0  0  0  0
  1 26  1  0  0  0  0
  2  3  1  0  0  0  0
  2  5  1  0  0  0  0
  2 27  1  0  0  0  0
  3  4  1  0  0  0  0
  3 28  1  0  0  0  0
  3 29  1  0  0  0  0
  4 30  1  0  0  0  0
  5  6  1  0  0  0  0
  5 31  1  0  0  0  0
  6  7  2  0  0  0  0
  6  8  1  0  0  0  0
  8  9  1  0  0  0  0
  8 32  1  0  0  0  0
  9 10  1  0  0  0  0
  9 33  1  0  0  0  0
  9 34  1  0  0  0  0
 10 23  1  0  0  0  0
 10 11  2  0  0  0  0
 11 12  1  0  0  0  0
 11 35  1  0  0  0  0
 12 13  2  0  0  0  0
 12 36  1  0  0  0  0
 13 14  1  0  0  0  0
 13 22  1  0  0  0  0
 14 21  1  0  0  0  0
 14 15  1  0  0  0  0
 15 16  1  0  0  0  0
 15 37  1  0  0  0  0
 15 38  1  0  0  0  0
 16 17  1  0  0  0  0
 16 18  1  0  0  0  0
 16 39  1  0  0  0  0
 17 40  1  0  0  0  0
 17 41  1  0  0  0  0
 17 42  1  0  0  0  0
 18 19  1  0  0  0  0
 19 20  1  0  0  0  0
 19 21  1  0  0  0  0
 19 43  1  0  0  0  0
 20 44  1  0  0  0  0
 20 45  1  0  0  0  0
 20 46  1  0  0  0  0
 21 47  1  0  0  0  0
 21 48  1  0  0  0  0
 22 23  2  0  0  0  0
 23 49  1  0  0  0  0
M  END
> <s_m_source_file>
AV-unprocessed.smi

> <i_m_source_file_index>
1983

> <i_lp_mmshare_version>
43012

> <i_f3d_flags>
0

> <s_epik_input>
W09IXVtDSDJdW0NAQEhdKFtDSDNdKVtOSF1DKD1PKVtOSF1bQ0gyXWMxW2NIXVtjSF1jKG5bY0hdMSlOMltDSDJdW0NAQEhdKFtDSDNdKU9bQ0BASF0oW0NIM10pW0NIMl0y

> <s_epik_cmdline>
J2VwaWtfcHl0aG9uJywgJy1waCcsICc3LjAnLCAnLXRuJywgJzgnLCAnLW1hJywgJzIwMCcsICctbWV0YWxfYmluZGluZycsICctaW1hZScsICc8aW5maWxlLm1hZT4nLCAnLW9tYWUnLCAnPG91dGZpbGUubWFlPic=

> <r_lp_tautomer_probability>
1

> <r_epik_Ionization_Penalty>
0.00801967

> <r_epik_Ionization_Penalty_Charging>
0

> <r_epik_Ionization_Penalty_Neutral>
0.00801967

> <r_epik_State_Penalty>
0.00598289

> <r_epik_Charging_Adjusted_Penalty>
0.00598289

> <i_epik_Tot_Q>
0

> <i_epik_Tot_abs_Q>
0

> <r_epik_Metal_State_Penalty>
0.00590297

> <b_epik_Metal_Only>
0

> <s_lp_Force_Field>
OPLS_2005

> <r_lp_Energy>
11.3831

> <b_lp_Chiralities_Consistent>
1

> <s_lp_Variant>
AV-unprocessed.smi:1983-2

> <Gold.Version>
5.8.1

> <Gold.Id.Protein>
6NUR|6NUR_protein|mol2

> <Gold.PLP.Fitness>
47.9116

> <Gold.PLP.PLP>
-36.2138

> <Gold.PLP.part.hbond>
-4.8952

> <Gold.PLP.part.metal>
0.0000

> <Gold.PLP.part.buried>
-2.7668

> <Gold.PLP.part.nonpolar>
-30.6112

> <Gold.PLP.part.repulsive>
1.9306

> <Gold.PLP.ligand.clash>
0.0000

> <Gold.PLP.ligand.torsion>
0.8781

> <Gold.PLP.Chemscore.Hbond>
3.5340

> <Gold.PLP.Chemscore.CHOScore>
0.8374

> <Gold.PLP.Chemscore.Metal>
0.0000

> <Gold.Chemscore.Hbonds>
donor molecule, donor type, donor heavy atom, donor atom, acceptor molecule, acceptor atom, score
      L1  H     4    30       P1 10171  1.00
      L1  H     5    31       P1  7948  1.00
      L1  H     8    32       P1  7948  0.78
      P1  H  7989  7998       L1    22  0.75
      L1  C    23    49       P1  7957  0.84

> <Gold.PLP.Chemscore.Internal.Correction>
0.3399

> <Gold.Rescore>
     Score         DG    S(hbond)    S(metal)    S(lipo)     H(rot)  DE(clash)    DE(int)     intcor
     15.83     -18.65       2.73        0.00      91.79       2.61       0.78       2.04       ----

> <Gold.Chemscore.Fitness>
15.8279

> <Gold.Chemscore.DG>
-18.6487

> <Gold.Chemscore.ZeroCoef>
-5.4800

> <Gold.Chemscore.Hbond>
2.7277

> <Gold.Chemscore.Metal>
0.0000

> <Gold.Chemscore.Lipo>
91.7878

> <Gold.Chemscore.Internal_Hbond>
0.0000

> <Gold.Chemscore.DEClash>
0.7841

> <Gold.Chemscore.DEInternal>
2.0367

> <Gold.Chemscore.Rot>
2.6097

> <Gold.Chemscore.Internal.Correction>
   9.000000E+99

> <Gold.Chemscore.Hbonds>
donor molecule, donor type, donor heavy atom, donor atom, acceptor molecule, acceptor atom, score
      L1  H     4    30       P1 10171  0.96
      L1  H     5    31       P1  7948  0.95
      L1  H     8    32       P1  7948  0.73
      P1  H  7989  7998       L1    22  0.09

> <Gold.Chemscore.Hbond.Weighted>
-9.1105

> <Gold.Chemscore.Metal.Weighted>
-0.0000

> <Gold.Chemscore.Lipo.Weighted>
-10.7392

> <Gold.Chemscore.Internal_Hbond.Weighted>
0.0000

> <Gold.Chemscore.DEClash.Weighted>
0.7841

> <Gold.Chemscore.DEInternal.Weighted>
2.0367

> <Gold.Chemscore.Rot.Weighted>
6.6809

> <Gold.Chemscore.Internal.Correction.Weighted>
   9.000000E+99

> <Gold.Protein.RotatedTorsions>
[ 6907 6896 6895 6894 ] final -122.96 input  -60.11 | X-H torsion
[ 7974 7965 7964 7962 ] final  178.90 input  175.53 | X-H torsion
[ 8008 7997 7996 7995 ] final   47.82 input   59.86 | X-H torsion
[ 10167 10162 10161 10158 ] final   33.37 input  -65.29 | X-H torsion
[ 10718 10713 10712 10709 ] final  153.18 input   66.30 | X-H torsion
[ 10763 10752 10751 10750 ] final  175.36 input  -60.55 | X-H torsion
[ 11005 11000 10999 10996 ] final  142.94 input  -57.11 | X-H torsion

> <Gold.Protein.ActiveResidues>
 VAL166  LYS551  ARG553  GLY616  TRP617  ASP618  TYR619  PRO620  LYS621  CYS622 
 ASP623  PHE694  ASN695  SER759  ASP760  ASP761  ALA762  ILE779  LEU786  VAL792 
 PHE793  MET794  SER795  GLU796  ALA797  LYS798  CYS799  TRP800  GLU811  SER814 

> <Gold.Protein.RotatedAtoms>
  150.8625  133.7622  159.2987 H   0  0  0  0  0  0  0  0  0  0  0  0  # atno 6907 bound_to 6896
  151.5260  135.1066  159.9900 H   0  0  0  0  0  0  0  0  0  0  0  0  # atno 6908 bound_to 6896
  152.4637  133.7832  159.6918 H   0  0  0  0  0  0  0  0  0  0  0  0  # atno 6909 bound_to 6896
  144.7151  140.0467  143.6436 H   0  0  0  0  0  0  0  0  0  0  0  0  # atno 7974 bound_to 7965
  155.3754  140.3426  155.4244 H   0  0  0  0  0  0  0  0  0  0  0  0  # atno 8008 bound_to 7997
  156.1640  140.1610  156.8598 H   0  0  0  0  0  0  0  0  0  0  0  0  # atno 8009 bound_to 7997
  154.5167  140.0777  156.8076 H   0  0  0  0  0  0  0  0  0  0  0  0  # atno 8010 bound_to 7997
  140.4413  144.1183  150.6174 H   0  0  0  0  0  0  0  0  0  0  0  0  # atno 10167 bound_to 10162
  157.2481  131.0773  151.1748 H   0  0  0  0  0  0  0  0  0  0  0  0  # atno 10718 bound_to 10713
  154.4666  135.2769  155.1674 H   0  0  0  0  0  0  0  0  0  0  0  0  # atno 10763 bound_to 10752
  154.3440  135.6164  153.5613 H   0  0  0  0  0  0  0  0  0  0  0  0  # atno 10764 bound_to 10752
  152.9860  135.5795  154.5039 H   0  0  0  0  0  0  0  0  0  0  0  0  # atno 10765 bound_to 10752
  140.0516  134.9253  157.1026 H   0  0  0  0  0  0  0  0  0  0  0  0  # atno 11005 bound_to 11000
  145.9979  139.3067  143.0945 LP  0  0  0  0  0  0  0  0  0  0  0  0  # atno 17320 bound_to 7965
  145.8828  140.9352  143.0592 LP  0  0  0  0  0  0  0  0  0  0  0  0  # atno 17321 bound_to 7965
  140.4315  143.2566  151.9590 LP  0  0  0  0  0  0  0  0  0  0  0  0  # atno 17342 bound_to 10162
  139.4790  144.5740  151.8042 LP  0  0  0  0  0  0  0  0  0  0  0  0  # atno 17343 bound_to 10162
  157.3307  130.6983  149.6323 LP  0  0  0  0  0  0  0  0  0  0  0  0  # atno 17370 bound_to 10713
  155.9667  130.4308  150.4893 LP  0  0  0  0  0  0  0  0  0  0  0  0  # atno 17371 bound_to 10713
  140.3909  134.2185  155.7166 LP  0  0  0  0  0  0  0  0  0  0  0  0  # atno 17394 bound_to 11000
  141.1933  133.8155  157.0806 LP  0  0  0  0  0  0  0  0  0  0  0  0  # atno 17395 bound_to 11000

$$$$
