AV-unprocessed.smi:45|AV-procd|sdf|416|dock8
  -GOLD-   2262016293D 1   1.00000     0.00000
 Structure written by MMmdl.
 60 63  0  0  0  0  0  0  0  0  3 V2000
  137.3654  141.2900  153.8188 C   0  0  0  0  0  0  0  0  0  0  0  0
  136.9821  139.9374  154.0191 O   0  0  0  0  0  0  0  0  0  0  0  0
  137.9607  138.9665  153.9648 C   0  0  0  0  0  0  0  0  0  0  0  0
  139.3349  139.2430  153.7497 C   0  0  0  0  0  0  0  0  0  0  0  0
  140.2774  138.1977  153.7075 C   0  0  0  0  0  0  0  0  0  0  0  0
  139.8653  136.8613  153.8784 C   0  0  0  0  0  0  0  0  0  0  0  0
  140.8812  135.7373  153.8339 C   0  0  0  0  0  0  0  0  0  0  0  0
  141.7695  135.7245  154.9867 N   0  0  0  0  0  0  0  0  0  0  0  0
  143.0989  135.2789  154.8885 C   0  0  0  0  0  0  0  0  0  0  0  0
  143.4792  134.6729  153.7402 N   0  0  0  0  0  0  0  0  0  0  0  0
  144.7373  134.2387  153.5848 C   0  0  0  0  0  0  0  0  0  0  0  0
  145.0858  133.6260  152.3823 N   0  0  0  0  0  0  0  0  0  0  0  0
  145.7988  132.3532  152.3506 C   0  0  0  0  0  0  0  0  0  0  0  0
  145.3076  131.6239  151.0991 C   0  0  0  0  0  0  0  0  0  0  0  0
  144.9543  132.7635  150.1509 C   0  0  0  0  0  0  0  0  0  0  0  0
  144.4173  133.8459  151.0993 C   0  0  2  0  0  0  0  0  0  0  0  0
  144.5373  135.2884  150.5565 C   0  0  0  0  0  0  0  0  0  0  0  0
  143.9593  136.2295  151.4380 O   0  0  0  0  0  0  0  0  0  0  0  0
  145.6640  134.3909  154.5431 N   0  3  0  0  0  0  0  0  0  0  0  0
  145.3359  134.9916  155.7121 C   0  0  0  0  0  0  0  0  0  0  0  0
  144.0274  135.4710  155.9415 C   0  0  0  0  0  0  0  0  0  0  0  0
  143.6641  136.1121  157.2574 C   0  0  0  0  0  0  0  0  0  0  0  0
  142.4679  136.2550  157.5349 O   0  0  0  0  0  0  0  0  0  0  0  0
  144.7708  136.4745  157.9616 N   0  5  0  0  0  0  0  0  0  0  0  0
  144.7324  137.2651  159.1909 C   0  0  0  0  0  0  0  0  0  0  0  0
  145.5504  136.6173  160.2992 C   0  0  0  0  0  0  0  0  0  0  0  0
  146.0299  135.3903  160.0592 N   0  0  0  0  0  0  0  0  0  0  0  0
  146.7751  134.8222  161.0320 C   0  0  0  0  0  0  0  0  0  0  0  0
  147.0389  135.4849  162.2474 C   0  0  0  0  0  0  0  0  0  0  0  0
  146.4814  136.7712  162.3894 C   0  0  0  0  0  0  0  0  0  0  0  0
  145.7369  137.3353  161.4137 N   0  0  0  0  0  0  0  0  0  0  0  0
  138.5024  136.5784  154.0930 C   0  0  0  0  0  0  0  0  0  0  0  0
  137.5577  137.6227  154.1350 C   0  0  0  0  0  0  0  0  0  0  0  0
  135.8937  137.2409  154.3983 Cl  0  0  0  0  0  0  0  0  0  0  0  0
  143.3600  133.6383  151.2699 H   0  0  0  0  0  0  0  0  0  0  0  0
  136.4856  141.9285  153.8979 H   0  0  0  0  0  0  0  0  0  0  0  0
  137.7932  141.4407  152.8268 H   0  0  0  0  0  0  0  0  0  0  0  0
  138.0796  141.6183  154.5749 H   0  0  0  0  0  0  0  0  0  0  0  0
  139.6935  140.2518  153.6133 H   0  0  0  0  0  0  0  0  0  0  0  0
  141.3204  138.4254  153.5425 H   0  0  0  0  0  0  0  0  0  0  0  0
  140.3432  134.7899  153.7823 H   0  0  0  0  0  0  0  0  0  0  0  0
  141.4768  135.8186  152.9236 H   0  0  0  0  0  0  0  0  0  0  0  0
  141.4206  136.0514  155.8770 H   0  0  0  0  0  0  0  0  0  0  0  0
  146.8684  132.5551  152.2841 H   0  0  0  0  0  0  0  0  0  0  0  0
  145.6222  131.7544  153.2449 H   0  0  0  0  0  0  0  0  0  0  0  0
  146.0489  130.9378  150.6883 H   0  0  0  0  0  0  0  0  0  0  0  0
  144.4097  131.0504  151.3337 H   0  0  0  0  0  0  0  0  0  0  0  0
  145.8598  133.0950  149.6415 H   0  0  0  0  0  0  0  0  0  0  0  0
  144.2304  132.4736  149.3888 H   0  0  0  0  0  0  0  0  0  0  0  0
  145.5900  135.5442  150.4344 H   0  0  0  0  0  0  0  0  0  0  0  0
  144.0794  135.3968  149.5745 H   0  0  0  0  0  0  0  0  0  0  0  0
  144.0330  137.0890  151.0514 H   0  0  0  0  0  0  0  0  0  0  0  0
  146.1375  135.0660  156.4330 H   0  0  0  0  0  0  0  0  0  0  0  0
  145.1085  138.2772  159.0310 H   0  0  0  0  0  0  0  0  0  0  0  0
  143.7105  137.3943  159.5512 H   0  0  0  0  0  0  0  0  0  0  0  0
  147.1631  133.8331  160.8394 H   0  0  0  0  0  0  0  0  0  0  0  0
  147.6344  135.0323  163.0261 H   0  0  0  0  0  0  0  0  0  0  0  0
  146.6329  137.3496  163.2886 H   0  0  0  0  0  0  0  0  0  0  0  0
  138.1757  135.5571  154.2240 H   0  0  0  0  0  0  0  0  0  0  0  0
  146.6179  134.0584  154.4048 H   0  0  0  0  0  0  0  0  0  0  0  0
  1  2  1  0  0  0  0
  1 36  1  0  0  0  0
  1 37  1  0  0  0  0
  1 38  1  0  0  0  0
  2  3  1  0  0  0  0
  3 33  1  0  0  0  0
  3  4  2  0  0  0  0
  4  5  1  0  0  0  0
  4 39  1  0  0  0  0
  5  6  2  0  0  0  0
  5 40  1  0  0  0  0
  6  7  1  0  0  0  0
  6 32  1  0  0  0  0
  7  8  1  0  0  0  0
  7 41  1  0  0  0  0
  7 42  1  0  0  0  0
  8  9  1  0  0  0  0
  8 43  1  0  0  0  0
  9 21  1  0  0  0  0
  9 10  2  0  0  0  0
 10 11  1  0  0  0  0
 11 12  1  0  0  0  0
 11 19  2  0  0  0  0
 12 16  1  0  0  0  0
 12 13  1  0  0  0  0
 13 14  1  0  0  0  0
 13 44  1  0  0  0  0
 13 45  1  0  0  0  0
 14 15  1  0  0  0  0
 14 46  1  0  0  0  0
 14 47  1  0  0  0  0
 15 16  1  0  0  0  0
 15 48  1  0  0  0  0
 15 49  1  0  0  0  0
 16 35  1  0  0  0  0
 16 17  1  0  0  0  0
 17 18  1  0  0  0  0
 17 50  1  0  0  0  0
 17 51  1  0  0  0  0
 18 52  1  0  0  0  0
 19 20  1  0  0  0  0
 19 60  1  0  0  0  0
 20 21  2  0  0  0  0
 20 53  1  0  0  0  0
 21 22  1  0  0  0  0
 22 23  2  0  0  0  0
 22 24  1  0  0  0  0
 24 25  1  0  0  0  0
 25 26  1  0  0  0  0
 25 54  1  0  0  0  0
 25 55  1  0  0  0  0
 26 31  1  0  0  0  0
 26 27  2  0  0  0  0
 27 28  1  0  0  0  0
 28 29  2  0  0  0  0
 28 56  1  0  0  0  0
 29 30  1  0  0  0  0
 29 57  1  0  0  0  0
 30 31  2  0  0  0  0
 30 58  1  0  0  0  0
 32 33  2  0  0  0  0
 32 59  1  0  0  0  0
 33 34  1  0  0  0  0
M  CHG  1  19   1
M  CHG  1  24  -1
M  END
> <s_m_source_file>
AV-unprocessed.smi

> <i_m_source_file_index>
45

> <i_lp_mmshare_version>
43012

> <i_f3d_flags>
0

> <s_epik_input>
W0NIM11PYzFbY0hdW2NIXWMoW2NIXWMxQ2wpW0NIMl1bTkhdYzJuYyhOM1tDSDJdW0NIMl1bQ0gyXVtDQEhdM1tDSDJdW09IXSluW2NIXWMyQyg9TylbTkhdW0NIMl1jNG5bY0hdW2NIXVtjSF1uNA==

> <s_epik_cmdline>
J2VwaWtfcHl0aG9uJywgJy1waCcsICc3LjAnLCAnLXRuJywgJzgnLCAnLW1hJywgJzIwMCcsICctbWV0YWxfYmluZGluZycsICctaW1hZScsICc8aW5maWxlLm1hZT4nLCAnLW9tYWUnLCAnPG91dGZpbGUubWFlPic=

> <r_lp_tautomer_probability>
0.575011

> <r_epik_Ionization_Penalty>
6.73124

> <r_epik_Ionization_Penalty_Charging>
6.73106

> <r_epik_Ionization_Penalty_Neutral>
0.000179426

> <r_epik_State_Penalty>
8.26145

> <r_epik_Charging_Adjusted_Penalty>
14.9925

> <i_epik_Tot_Q>
0

> <i_epik_Tot_abs_Q>
2

> <r_epik_Metal_State_Penalty>
4.22532

> <b_epik_Metal_Only>
1

> <s_epik_Chemistry_Notes>
This compound contains an electron-poor aromatic ring that is susceptible to covalent hydrolysis at low pH, typically resulting in measured values for nitrogen ring protonation that are around two units higher than predicted values.

> <s_lp_Force_Field>
OPLS_2005

> <r_lp_Energy>
47.4245

> <b_lp_Chiralities_Consistent>
1

> <s_lp_Variant>
AV-unprocessed.smi:45-10

> <Gold.Version>
5.8.1

> <Gold.Id.Protein>
6NUR|6NUR_protein|mol2

> <Gold.PLP.Fitness>
54.8987

> <Gold.PLP.PLP>
-50.3410

> <Gold.PLP.part.hbond>
-3.0000

> <Gold.PLP.part.metal>
0.0000

> <Gold.PLP.part.buried>
-8.3102

> <Gold.PLP.part.nonpolar>
-38.3252

> <Gold.PLP.part.repulsive>
0.1369

> <Gold.PLP.ligand.clash>
0.0000

> <Gold.PLP.ligand.torsion>
1.1007

> <Gold.PLP.Chemscore.Hbond>
2.0000

> <Gold.PLP.Chemscore.CHOScore>
0.0000

> <Gold.PLP.Chemscore.Metal>
0.0000

> <Gold.Chemscore.Hbonds>
donor molecule, donor type, donor heavy atom, donor atom, acceptor molecule, acceptor atom, score
      L1  H    18    52       P1 10171  1.00
      P1  H  6934  6947       L1    31  0.37

> <Gold.PLP.Chemscore.Internal.Correction>
0.7590

> <Gold.Rescore>
     Score         DG    S(hbond)    S(metal)    S(lipo)     H(rot)  DE(clash)    DE(int)     intcor
     14.28     -17.60       1.67        0.00     119.24       2.90       0.04       3.27       ----

> <Gold.Chemscore.Fitness>
14.2842

> <Gold.Chemscore.DG>
-17.5964

> <Gold.Chemscore.ZeroCoef>
-5.4800

> <Gold.Chemscore.Hbond>
1.6724

> <Gold.Chemscore.Metal>
0.0000

> <Gold.Chemscore.Lipo>
119.2436

> <Gold.Chemscore.Internal_Hbond>
0.0000

> <Gold.Chemscore.DEClash>
0.0442

> <Gold.Chemscore.DEInternal>
3.2679

> <Gold.Chemscore.Rot>
2.8988

> <Gold.Chemscore.Internal.Correction>
   9.000000E+99

> <Gold.Chemscore.Hbonds>
donor molecule, donor type, donor heavy atom, donor atom, acceptor molecule, acceptor atom, score
      L1  H    18    52       P1 10171  0.99
      P1  H  6934  6947       L1    31  0.04

> <Gold.Chemscore.Hbond.Weighted>
-5.5858

> <Gold.Chemscore.Metal.Weighted>
-0.0000

> <Gold.Chemscore.Lipo.Weighted>
-13.9515

> <Gold.Chemscore.Internal_Hbond.Weighted>
0.0000

> <Gold.Chemscore.DEClash.Weighted>
0.0442

> <Gold.Chemscore.DEInternal.Weighted>
3.2679

> <Gold.Chemscore.Rot.Weighted>
7.4209

> <Gold.Chemscore.Internal.Correction.Weighted>
   9.000000E+99

> <Gold.Protein.RotatedTorsions>
[ 6907 6896 6895 6894 ] final  -95.72 input  -60.11 | X-H torsion
[ 7974 7965 7964 7962 ] final   73.54 input  175.53 | X-H torsion
[ 8008 7997 7996 7995 ] final  155.26 input   59.86 | X-H torsion
[ 10167 10162 10161 10158 ] final  -98.22 input  -65.29 | X-H torsion
[ 10718 10713 10712 10709 ] final   35.68 input   66.30 | X-H torsion
[ 10763 10752 10751 10750 ] final -101.42 input  -60.55 | X-H torsion
[ 11005 11000 10999 10996 ] final  179.50 input  -57.11 | X-H torsion

> <Gold.Protein.ActiveResidues>
 VAL166  LYS551  ARG553  GLY616  TRP617  ASP618  TYR619  PRO620  LYS621  CYS622 
 ASP623  PHE694  ASN695  SER759  ASP760  ASP761  ALA762  ILE779  LEU786  VAL792 
 PHE793  MET794  SER795  GLU796  ALA797  LYS798  CYS799  TRP800  GLU811  SER814 

> <Gold.Protein.RotatedAtoms>
  150.6971  134.1613  159.4177 H   0  0  0  0  0  0  0  0  0  0  0  0  # atno 6907 bound_to 6896
  151.9593  135.0129  160.0556 H   0  0  0  0  0  0  0  0  0  0  0  0  # atno 6908 bound_to 6896
  152.1941  133.4759  159.5060 H   0  0  0  0  0  0  0  0  0  0  0  0  # atno 6909 bound_to 6896
  145.7395  139.2715  143.1494 H   0  0  0  0  0  0  0  0  0  0  0  0  # atno 7974 bound_to 7965
  156.2488  140.1944  156.6773 H   0  0  0  0  0  0  0  0  0  0  0  0  # atno 8008 bound_to 7997
  154.6348  140.0591  156.9801 H   0  0  0  0  0  0  0  0  0  0  0  0  # atno 8009 bound_to 7997
  155.1655  140.3263  155.4405 H   0  0  0  0  0  0  0  0  0  0  0  0  # atno 8010 bound_to 7997
  140.2752  143.3317  152.0495 H   0  0  0  0  0  0  0  0  0  0  0  0  # atno 10167 bound_to 10162
  157.3257  130.7471  149.6814 H   0  0  0  0  0  0  0  0  0  0  0  0  # atno 10718 bound_to 10713
  154.7656  135.4898  153.9548 H   0  0  0  0  0  0  0  0  0  0  0  0  # atno 10763 bound_to 10752
  153.1304  135.6751  153.9196 H   0  0  0  0  0  0  0  0  0  0  0  0  # atno 10764 bound_to 10752
  153.8901  135.3122  155.3426 H   0  0  0  0  0  0  0  0  0  0  0  0  # atno 10765 bound_to 10752
  140.4069  134.6727  157.4593 H   0  0  0  0  0  0  0  0  0  0  0  0  # atno 11005 bound_to 11000
  146.0461  140.8116  142.9804 LP  0  0  0  0  0  0  0  0  0  0  0  0  # atno 17320 bound_to 7965
  144.6874  140.2983  143.7267 LP  0  0  0  0  0  0  0  0  0  0  0  0  # atno 17321 bound_to 7965
  139.4977  144.6629  151.6423 LP  0  0  0  0  0  0  0  0  0  0  0  0  # atno 17342 bound_to 10162
  140.5857  143.9868  150.6294 LP  0  0  0  0  0  0  0  0  0  0  0  0  # atno 17343 bound_to 10162
  155.9690  130.4210  150.4449 LP  0  0  0  0  0  0  0  0  0  0  0  0  # atno 17370 bound_to 10713
  157.2472  131.0538  151.2401 LP  0  0  0  0  0  0  0  0  0  0  0  0  # atno 17371 bound_to 10713
  140.0295  134.6426  155.9125 LP  0  0  0  0  0  0  0  0  0  0  0  0  # atno 17394 bound_to 11000
  141.1836  133.6551  156.5122 LP  0  0  0  0  0  0  0  0  0  0  0  0  # atno 17395 bound_to 11000

$$$$
