AV-unprocessed.smi:266|AV-procd|sdf|2036|dock7
  -GOLD-   2262021253D 1   1.00000     0.00000
 Structure written by MMmdl.
 52 55  0  0  0  0  0  0  0  0  1 V2000
  143.9680  132.5580  149.5183 C   0  0  0  0  0  0  0  0  0  0  0  0
  144.6143  132.4194  150.9059 C   0  0  1  0  0  0  0  0  0  0  0  0
  145.5402  131.3413  150.9081 O   0  0  0  0  0  0  0  0  0  0  0  0
  146.4147  131.5379  152.0035 C   0  0  0  0  0  0  0  0  0  0  0  0
  146.7245  133.0255  151.9134 C   0  0  0  0  0  0  0  0  0  0  0  0
  145.4022  133.6447  151.4435 C   0  0  1  0  0  0  0  0  0  0  0  0
  145.6904  134.5752  150.4136 O   0  0  0  0  0  0  0  0  0  0  0  0
  144.6094  134.3724  152.5611 C   0  0  0  0  0  0  0  0  0  0  0  0
  145.1309  135.6851  152.9158 N   0  0  0  0  0  0  0  0  0  0  0  0
  144.7671  136.8912  152.3616 C   0  0  0  0  0  0  0  0  0  0  0  0
  145.3834  137.9341  152.8448 N   0  0  0  0  0  0  0  0  0  0  0  0
  146.2574  137.4102  153.7909 C   0  0  0  0  0  0  0  0  0  0  0  0
  147.2239  137.9677  154.6799 C   0  0  0  0  0  0  0  0  0  0  0  0
  147.5299  139.2842  154.7882 N   0  0  0  0  0  0  0  0  0  0  0  0
  147.3360  140.0199  153.5454 C   0  0  0  0  0  0  0  0  0  0  0  0
  148.6313  139.7025  155.6551 C   0  0  0  0  0  0  0  0  0  0  0  0
  149.8233  140.3359  154.8969 C   0  0  1  0  0  0  0  0  0  0  0  0
  150.6884  141.1824  155.8529 C   0  0  0  0  0  0  0  0  0  0  0  0
  151.5973  140.2568  156.6743 C   0  0  0  0  0  0  0  0  0  0  0  0
  151.9198  138.7962  155.6145 S   0  0  0  0  0  0  0  0  0  0  0  0
  153.2947  138.8519  155.0956 O   0  0  0  0  0  0  0  0  0  0  0  0
  151.4151  137.5941  156.2954 O   0  0  0  0  0  0  0  0  0  0  0  0
  150.7551  139.2759  154.2846 C   0  0  0  0  0  0  0  0  0  0  0  0
  147.8907  137.1138  155.4976 N   0  0  0  0  0  0  0  0  0  0  0  0
  147.6533  135.8006  155.4401 C   0  0  0  0  0  0  0  0  0  0  0  0
  146.7985  135.1416  154.6561 N   0  0  0  0  0  0  0  0  0  0  0  0
  146.1094  135.9944  153.8456 C   0  0  0  0  0  0  0  0  0  0  0  0
  143.2628  133.3893  149.4950 H   0  0  0  0  0  0  0  0  0  0  0  0
  143.4213  131.6523  149.2557 H   0  0  0  0  0  0  0  0  0  0  0  0
  144.7157  132.7254  148.7424 H   0  0  0  0  0  0  0  0  0  0  0  0
  143.8331  132.1516  151.6194 H   0  0  0  0  0  0  0  0  0  0  0  0
  145.9020  131.2976  152.9362 H   0  0  0  0  0  0  0  0  0  0  0  0
  147.3058  130.9146  151.9251 H   0  0  0  0  0  0  0  0  0  0  0  0
  147.1040  133.4235  152.8530 H   0  0  0  0  0  0  0  0  0  0  0  0
  147.5065  133.1690  151.1654 H   0  0  0  0  0  0  0  0  0  0  0  0
  146.4790  135.0431  150.6422 H   0  0  0  0  0  0  0  0  0  0  0  0
  143.5668  134.4914  152.2621 H   0  0  0  0  0  0  0  0  0  0  0  0
  144.5967  133.7631  153.4660 H   0  0  0  0  0  0  0  0  0  0  0  0
  144.0206  136.9753  151.5850 H   0  0  0  0  0  0  0  0  0  0  0  0
  146.2798  140.0533  153.2762 H   0  0  0  0  0  0  0  0  0  0  0  0
  147.8858  139.5513  152.7281 H   0  0  0  0  0  0  0  0  0  0  0  0
  147.6848  141.0485  153.6406 H   0  0  0  0  0  0  0  0  0  0  0  0
  148.2515  140.3889  156.4114 H   0  0  0  0  0  0  0  0  0  0  0  0
  148.9822  138.8296  156.2062 H   0  0  0  0  0  0  0  0  0  0  0  0
  149.4470  140.9843  154.1060 H   0  0  0  0  0  0  0  0  0  0  0  0
  151.3174  141.8429  155.2547 H   0  0  0  0  0  0  0  0  0  0  0  0
  150.0845  141.8265  156.4933 H   0  0  0  0  0  0  0  0  0  0  0  0
  152.5369  140.7302  156.9587 H   0  0  0  0  0  0  0  0  0  0  0  0
  151.0924  139.9141  157.5776 H   0  0  0  0  0  0  0  0  0  0  0  0
  150.2380  138.3969  153.8991 H   0  0  0  0  0  0  0  0  0  0  0  0
  151.3397  139.7091  153.4727 H   0  0  0  0  0  0  0  0  0  0  0  0
  148.2305  135.1911  156.1197 H   0  0  0  0  0  0  0  0  0  0  0  0
  1  2  1  0  0  0  0
  1 28  1  0  0  0  0
  1 29  1  0  0  0  0
  1 30  1  0  0  0  0
  2  6  1  0  0  0  0
  2  3  1  0  0  0  0
  2 31  1  0  0  0  0
  3  4  1  0  0  0  0
  4  5  1  0  0  0  0
  4 32  1  0  0  0  0
  4 33  1  0  0  0  0
  5  6  1  0  0  0  0
  5 34  1  0  0  0  0
  5 35  1  0  0  0  0
  6  7  1  0  0  0  0
  6  8  1  0  0  0  0
  7 36  1  0  0  0  0
  8  9  1  0  0  0  0
  8 37  1  0  0  0  0
  8 38  1  0  0  0  0
  9 27  1  0  0  0  0
  9 10  1  0  0  0  0
 10 11  2  0  0  0  0
 10 39  1  0  0  0  0
 11 12  1  0  0  0  0
 12 27  2  0  0  0  0
 12 13  1  0  0  0  0
 13 14  1  0  0  0  0
 13 24  2  0  0  0  0
 14 15  1  0  0  0  0
 14 16  1  0  0  0  0
 15 40  1  0  0  0  0
 15 41  1  0  0  0  0
 15 42  1  0  0  0  0
 16 17  1  0  0  0  0
 16 43  1  0  0  0  0
 16 44  1  0  0  0  0
 17 23  1  0  0  0  0
 17 18  1  0  0  0  0
 17 45  1  0  0  0  0
 18 19  1  0  0  0  0
 18 46  1  0  0  0  0
 18 47  1  0  0  0  0
 19 20  1  0  0  0  0
 19 48  1  0  0  0  0
 19 49  1  0  0  0  0
 20 21  2  0  0  0  0
 20 22  2  0  0  0  0
 20 23  1  0  0  0  0
 23 50  1  0  0  0  0
 23 51  1  0  0  0  0
 24 25  1  0  0  0  0
 25 26  2  0  0  0  0
 25 52  1  0  0  0  0
 26 27  1  0  0  0  0
M  END
> <s_m_source_file>
AV-unprocessed.smi

> <i_m_source_file_index>
266

> <i_lp_mmshare_version>
43012

> <i_f3d_flags>
0

> <s_epik_input>
W0NIMl0xW0NIMl1PW0NAQEhdKFtDSDNdKVtDQEBdMShbT0hdKVtDSDJdbihbY0hdbjIpYyhjMjMpbltjSF1uYzNOKFtDSDNdKVtDSDJdW0NAQEhdKFtDSDJdNClbQ0gyXVtDSDJdUzQoPU8pPU8=

> <s_epik_cmdline>
J2VwaWtfcHl0aG9uJywgJy1waCcsICc3LjAnLCAnLXRuJywgJzgnLCAnLW1hJywgJzIwMCcsICctbWV0YWxfYmluZGluZycsICctaW1hZScsICc8aW5maWxlLm1hZT4nLCAnLW9tYWUnLCAnPG91dGZpbGUubWFlPic=

> <r_lp_tautomer_probability>
1

> <r_epik_Ionization_Penalty>
0.00155497

> <r_epik_Ionization_Penalty_Charging>
0

> <r_epik_Ionization_Penalty_Neutral>
0.00155497

> <r_epik_State_Penalty>
-0

> <r_epik_Charging_Adjusted_Penalty>
0

> <i_epik_Tot_Q>
0

> <i_epik_Tot_abs_Q>
0

> <r_epik_Metal_State_Penalty>
-0

> <b_epik_Metal_Only>
0

> <s_lp_Force_Field>
OPLS_2005

> <r_lp_Energy>
31.7584

> <b_lp_Chiralities_Consistent>
1

> <s_lp_Variant>
AV-unprocessed.smi:266-6

> <Gold.Version>
5.8.1

> <Gold.Id.Protein>
6NUR|6NUR_protein|mol2

> <Gold.PLP.Fitness>
39.3520

> <Gold.PLP.PLP>
-35.0464

> <Gold.PLP.part.hbond>
-2.0000

> <Gold.PLP.part.metal>
0.0000

> <Gold.PLP.part.buried>
-4.0332

> <Gold.PLP.part.nonpolar>
-28.5690

> <Gold.PLP.part.repulsive>
0.4943

> <Gold.PLP.ligand.clash>
0.0000

> <Gold.PLP.ligand.torsion>
1.1273

> <Gold.PLP.Chemscore.Hbond>
1.0000

> <Gold.PLP.Chemscore.CHOScore>
1.0000

> <Gold.PLP.Chemscore.Metal>
0.0000

> <Gold.Chemscore.Hbonds>
donor molecule, donor type, donor heavy atom, donor atom, acceptor molecule, acceptor atom, score
      P1  H  7997  8009       L1    21  1.00
      L1  C    10    39       P1 10171  0.99

> <Gold.PLP.Chemscore.Internal.Correction>
0.5602

> <Gold.Rescore>
     Score         DG    S(hbond)    S(metal)    S(lipo)     H(rot)  DE(clash)    DE(int)     intcor
      9.20     -11.53       0.93        0.00      78.68       2.45       0.09       2.25       ----

> <Gold.Chemscore.Fitness>
9.1975

> <Gold.Chemscore.DG>
-11.5278

> <Gold.Chemscore.ZeroCoef>
-5.4800

> <Gold.Chemscore.Hbond>
0.9303

> <Gold.Chemscore.Metal>
0.0000

> <Gold.Chemscore.Lipo>
78.6763

> <Gold.Chemscore.Internal_Hbond>
0.0000

> <Gold.Chemscore.DEClash>
0.0852

> <Gold.Chemscore.DEInternal>
2.2451

> <Gold.Chemscore.Rot>
2.4471

> <Gold.Chemscore.Internal.Correction>
   9.000000E+99

> <Gold.Chemscore.Hbonds>
donor molecule, donor type, donor heavy atom, donor atom, acceptor molecule, acceptor atom, score
      P1  H  7997  8009       L1    21  0.91

> <Gold.Chemscore.Hbond.Weighted>
-3.1072

> <Gold.Chemscore.Metal.Weighted>
-0.0000

> <Gold.Chemscore.Lipo.Weighted>
-9.2051

> <Gold.Chemscore.Internal_Hbond.Weighted>
0.0000

> <Gold.Chemscore.DEClash.Weighted>
0.0852

> <Gold.Chemscore.DEInternal.Weighted>
2.2451

> <Gold.Chemscore.Rot.Weighted>
6.2645

> <Gold.Chemscore.Internal.Correction.Weighted>
   9.000000E+99

> <Gold.Protein.RotatedTorsions>
[ 6907 6896 6895 6894 ] final   90.30 input  -60.11 | X-H torsion
[ 7974 7965 7964 7962 ] final   21.63 input  175.53 | X-H torsion
[ 8008 7997 7996 7995 ] final -134.64 input   59.86 | X-H torsion
[ 10167 10162 10161 10158 ] final    6.23 input  -65.29 | X-H torsion
[ 10718 10713 10712 10709 ] final   31.05 input   66.30 | X-H torsion
[ 10763 10752 10751 10750 ] final  -91.41 input  -60.55 | X-H torsion
[ 11005 11000 10999 10996 ] final   25.74 input  -57.11 | X-H torsion

> <Gold.Protein.ActiveResidues>
 VAL166  LYS551  ARG553  GLY616  TRP617  ASP618  TYR619  PRO620  LYS621  CYS622 
 ASP623  PHE694  ASN695  SER759  ASP760  ASP761  ALA762  ILE779  LEU786  VAL792 
 PHE793  MET794  SER795  GLU796  ALA797  LYS798  CYS799  TRP800  GLU811  SER814 

> <Gold.Protein.RotatedAtoms>
  152.5443  134.1833  159.8644 H   0  0  0  0  0  0  0  0  0  0  0  0  # atno 6907 bound_to 6896
  151.1834  133.4704  159.2602 H   0  0  0  0  0  0  0  0  0  0  0  0  # atno 6908 bound_to 6896
  151.1155  135.0062  159.8569 H   0  0  0  0  0  0  0  0  0  0  0  0  # atno 6909 bound_to 6896
  146.2063  139.8000  142.8723 H   0  0  0  0  0  0  0  0  0  0  0  0  # atno 7974 bound_to 7965
  155.3654  140.0485  157.3046 H   0  0  0  0  0  0  0  0  0  0  0  0  # atno 8008 bound_to 7997
  154.5157  140.2207  155.9034 H   0  0  0  0  0  0  0  0  0  0  0  0  # atno 8009 bound_to 7997
  156.1633  140.3111  155.8851 H   0  0  0  0  0  0  0  0  0  0  0  0  # atno 8010 bound_to 7997
  140.6439  143.7709  150.7469 H   0  0  0  0  0  0  0  0  0  0  0  0  # atno 10167 bound_to 10162
  157.2675  130.7191  149.6486 H   0  0  0  0  0  0  0  0  0  0  0  0  # atno 10718 bound_to 10713
  154.6758  135.5269  153.8197 H   0  0  0  0  0  0  0  0  0  0  0  0  # atno 10763 bound_to 10752
  153.0531  135.6540  154.0654 H   0  0  0  0  0  0  0  0  0  0  0  0  # atno 10764 bound_to 10752
  154.0547  135.2966  155.3314 H   0  0  0  0  0  0  0  0  0  0  0  0  # atno 10765 bound_to 10752
  140.3445  134.2296  155.7686 H   0  0  0  0  0  0  0  0  0  0  0  0  # atno 11005 bound_to 11000
  145.3307  141.0266  143.3448 LP  0  0  0  0  0  0  0  0  0  0  0  0  # atno 17320 bound_to 7965
  144.8801  139.4916  143.6727 LP  0  0  0  0  0  0  0  0  0  0  0  0  # atno 17321 bound_to 7965
  140.1346  143.4495  152.2232 LP  0  0  0  0  0  0  0  0  0  0  0  0  # atno 17342 bound_to 10162
  139.5649  144.7429  151.4051 LP  0  0  0  0  0  0  0  0  0  0  0  0  # atno 17343 bound_to 10162
  155.9663  130.4378  150.5191 LP  0  0  0  0  0  0  0  0  0  0  0  0  # atno 17370 bound_to 10713
  157.3108  131.0663  151.2002 LP  0  0  0  0  0  0  0  0  0  0  0  0  # atno 17371 bound_to 10713
  141.2029  133.7925  157.0366 LP  0  0  0  0  0  0  0  0  0  0  0  0  # atno 17394 bound_to 11000
  140.0753  134.9679  157.1535 LP  0  0  0  0  0  0  0  0  0  0  0  0  # atno 17395 bound_to 11000

$$$$
