AV-unprocessed.smi:2693|AV-procd|sdf|10403|dock1
  -GOLD-   2272014433D 1   1.00000     0.00000
 Structure written by MMmdl.
 45 47  0  0  0  0  0  0  0  0  1 V2000
  145.8120  132.0952  149.8298 C   0  0  0  0  0  0  0  0  0  0  0  0
  144.7142  132.7608  150.5257 N   0  0  0  0  0  0  0  0  0  0  0  0
  143.4912  131.9949  150.7486 C   0  0  0  0  0  0  0  0  0  0  0  0
  144.8298  134.0842  150.9613 C   0  0  0  0  0  0  0  0  0  0  0  0
  145.9891  134.7132  150.7261 N   0  0  0  0  0  0  0  0  0  0  0  0
  146.1057  135.9895  151.1496 C   0  0  0  0  0  0  0  0  0  0  0  0
  145.0546  136.6566  151.8099 C   0  0  0  0  0  0  0  0  0  0  0  0
  145.2529  137.9920  152.2516 N   0  0  0  0  0  0  0  0  0  0  0  0
  146.4037  138.5893  152.6038 C   0  0  0  0  0  0  0  0  0  0  0  0
  147.4957  138.0298  152.6991 O   0  0  0  0  0  0  0  0  0  0  0  0
  146.2175  139.8904  152.8596 N   0  0  0  0  0  0  0  0  0  0  0  0
  147.2822  140.8140  153.2336 C   0  0  2  0  0  0  0  0  0  0  0  0
  148.2513  140.2101  154.2505 C   0  0  1  0  0  0  0  0  0  0  0  0
  149.6857  139.8190  154.2230 C   0  0  0  0  0  0  0  0  0  0  0  0
  150.1107  140.4768  155.5634 C   0  0  0  0  0  0  0  0  0  0  0  0
  148.9970  141.3104  155.9682 O   0  0  0  0  0  0  0  0  0  0  0  0
  148.3630  141.6380  154.7489 C   0  0  2  0  0  0  0  0  0  0  0  0
  146.8760  141.8138  154.3821 C   0  0  0  0  0  0  0  0  0  0  0  0
  146.4805  143.2165  153.9197 C   0  0  0  0  0  0  0  0  0  0  0  0
  145.8237  141.3913  155.4279 C   0  0  0  0  0  0  0  0  0  0  0  0
  143.8773  135.8978  152.0137 C   0  0  0  0  0  0  0  0  0  0  0  0
  143.7742  134.6213  151.5869 N   0  0  0  0  0  0  0  0  0  0  0  0
  146.1036  132.6625  148.9454 H   0  0  0  0  0  0  0  0  0  0  0  0
  145.5395  131.0916  149.5034 H   0  0  0  0  0  0  0  0  0  0  0  0
  146.6792  132.0103  150.4853 H   0  0  0  0  0  0  0  0  0  0  0  0
  142.6547  132.4555  150.2224 H   0  0  0  0  0  0  0  0  0  0  0  0
  143.2520  131.9591  151.8118 H   0  0  0  0  0  0  0  0  0  0  0  0
  143.5834  130.9677  150.3954 H   0  0  0  0  0  0  0  0  0  0  0  0
  147.0485  136.4808  150.9578 H   0  0  0  0  0  0  0  0  0  0  0  0
  144.4190  138.5580  152.3112 H   0  0  0  0  0  0  0  0  0  0  0  0
  145.2877  140.2724  152.7677 H   0  0  0  0  0  0  0  0  0  0  0  0
  147.7879  141.2839  152.3849 H   0  0  0  0  0  0  0  0  0  0  0  0
  147.7159  139.5555  154.9424 H   0  0  0  0  0  0  0  0  0  0  0  0
  149.8317  138.7387  154.2215 H   0  0  0  0  0  0  0  0  0  0  0  0
  150.2109  140.2516  153.3703 H   0  0  0  0  0  0  0  0  0  0  0  0
  150.3101  139.7347  156.3369 H   0  0  0  0  0  0  0  0  0  0  0  0
  151.0102  141.0795  155.4319 H   0  0  0  0  0  0  0  0  0  0  0  0
  149.0128  142.2721  154.1348 H   0  0  0  0  0  0  0  0  0  0  0  0
  146.4985  143.9295  154.7447 H   0  0  0  0  0  0  0  0  0  0  0  0
  145.4773  143.2305  153.4928 H   0  0  0  0  0  0  0  0  0  0  0  0
  147.1593  143.5919  153.1535 H   0  0  0  0  0  0  0  0  0  0  0  0
  145.8315  142.0652  156.2850 H   0  0  0  0  0  0  0  0  0  0  0  0
  145.9728  140.3875  155.8209 H   0  0  0  0  0  0  0  0  0  0  0  0
  144.8173  141.4149  155.0087 H   0  0  0  0  0  0  0  0  0  0  0  0
  143.0148  136.2829  152.5344 H   0  0  0  0  0  0  0  0  0  0  0  0
  1  2  1  0  0  0  0
  1 23  1  0  0  0  0
  1 24  1  0  0  0  0
  1 25  1  0  0  0  0
  2  3  1  0  0  0  0
  2  4  1  0  0  0  0
  3 26  1  0  0  0  0
  3 27  1  0  0  0  0
  3 28  1  0  0  0  0
  4 22  1  0  0  0  0
  4  5  2  0  0  0  0
  5  6  1  0  0  0  0
  6  7  2  0  0  0  0
  6 29  1  0  0  0  0
  7  8  1  0  0  0  0
  7 21  1  0  0  0  0
  8  9  1  0  0  0  0
  8 30  1  0  0  0  0
  9 10  2  0  0  0  0
  9 11  1  0  0  0  0
 11 12  1  0  0  0  0
 11 31  1  0  0  0  0
 12 18  1  0  0  0  0
 12 13  1  0  0  0  0
 12 32  1  0  0  0  0
 13 17  1  0  0  0  0
 13 14  1  0  0  0  0
 13 33  1  0  0  0  0
 14 15  1  0  0  0  0
 14 34  1  0  0  0  0
 14 35  1  0  0  0  0
 15 16  1  0  0  0  0
 15 36  1  0  0  0  0
 15 37  1  0  0  0  0
 16 17  1  0  0  0  0
 17 18  1  0  0  0  0
 17 38  1  0  0  0  0
 18 19  1  0  0  0  0
 18 20  1  0  0  0  0
 19 39  1  0  0  0  0
 19 40  1  0  0  0  0
 19 41  1  0  0  0  0
 20 42  1  0  0  0  0
 20 43  1  0  0  0  0
 20 44  1  0  0  0  0
 21 22  2  0  0  0  0
 21 45  1  0  0  0  0
M  END
> <s_m_source_file>
AV-unprocessed.smi

> <i_m_source_file_index>
2693

> <i_lp_mmshare_version>
43012

> <i_f3d_flags>
0

> <s_epik_input>
W0NIM11OKFtDSDNdKWMxbltjSF1jKFtjSF1uMSlbTkhdQyg9TylbTkhdW0NASF0yQyhbQ0gzXSkoW0NIM10pW0NAQEhdKFtDQEhdMjMpT1tDSDJdW0NIMl0z

> <s_epik_cmdline>
J2VwaWtfcHl0aG9uJywgJy1waCcsICc3LjAnLCAnLXRuJywgJzgnLCAnLW1hJywgJzIwMCcsICctbWV0YWxfYmluZGluZycsICctaW1hZScsICc8aW5maWxlLm1hZT4nLCAnLW9tYWUnLCAnPG91dGZpbGUubWFlPic=

> <r_lp_tautomer_probability>
1

> <r_epik_Ionization_Penalty>
0.00031779

> <r_epik_Ionization_Penalty_Charging>
0

> <r_epik_Ionization_Penalty_Neutral>
0.00031779

> <r_epik_State_Penalty>
-0

> <r_epik_Charging_Adjusted_Penalty>
0

> <i_epik_Tot_Q>
0

> <i_epik_Tot_abs_Q>
0

> <r_epik_Metal_State_Penalty>
-0

> <b_epik_Metal_Only>
0

> <s_lp_Force_Field>
OPLS_2005

> <r_lp_Energy>
52.7661

> <b_lp_Chiralities_Consistent>
1

> <s_lp_Variant>
AV-unprocessed.smi:2693-7

> <Gold.Version>
5.8.1

> <Gold.Id.Protein>
6NUR|6NUR_protein|mol2

> <Gold.PLP.Fitness>
43.1976

> <Gold.PLP.PLP>
-34.9702

> <Gold.PLP.part.hbond>
-3.0000

> <Gold.PLP.part.metal>
0.0000

> <Gold.PLP.part.buried>
-0.4373

> <Gold.PLP.part.nonpolar>
-36.0062

> <Gold.PLP.part.repulsive>
5.0135

> <Gold.PLP.ligand.clash>
0.0000

> <Gold.PLP.ligand.torsion>
0.4162

> <Gold.PLP.Chemscore.Hbond>
1.9280

> <Gold.PLP.Chemscore.CHOScore>
1.0000

> <Gold.PLP.Chemscore.Metal>
0.0000

> <Gold.Chemscore.Hbonds>
donor molecule, donor type, donor heavy atom, donor atom, acceptor molecule, acceptor atom, score
      L1  H     8    30       P1 10175  0.92
      L1  H    11    31       P1 10175  1.00
      L1  C     6    29       P1  7948  1.00

> <Gold.PLP.Chemscore.Internal.Correction>
0.2757

> <Gold.Rescore>
     Score         DG    S(hbond)    S(metal)    S(lipo)     H(rot)  DE(clash)    DE(int)     intcor
     12.70     -18.91       1.76        0.00      86.56       1.00       3.10       3.12       ----

> <Gold.Chemscore.Fitness>
12.6956

> <Gold.Chemscore.DG>
-18.9136

> <Gold.Chemscore.ZeroCoef>
-5.4800

> <Gold.Chemscore.Hbond>
1.7562

> <Gold.Chemscore.Metal>
0.0000

> <Gold.Chemscore.Lipo>
86.5624

> <Gold.Chemscore.Internal_Hbond>
0.0000

> <Gold.Chemscore.DEClash>
3.0992

> <Gold.Chemscore.DEInternal>
3.1189

> <Gold.Chemscore.Rot>
1.0000

> <Gold.Chemscore.Internal.Correction>
   9.000000E+99

> <Gold.Chemscore.Hbonds>
donor molecule, donor type, donor heavy atom, donor atom, acceptor molecule, acceptor atom, score
      L1  H     8    30       P1 10175  0.83
      L1  H    11    31       P1 10175  0.94

> <Gold.Chemscore.Hbond.Weighted>
-5.8658

> <Gold.Chemscore.Metal.Weighted>
-0.0000

> <Gold.Chemscore.Lipo.Weighted>
-10.1278

> <Gold.Chemscore.Internal_Hbond.Weighted>
0.0000

> <Gold.Chemscore.DEClash.Weighted>
3.0992

> <Gold.Chemscore.DEInternal.Weighted>
3.1189

> <Gold.Chemscore.Rot.Weighted>
2.5600

> <Gold.Chemscore.Internal.Correction.Weighted>
   9.000000E+99

> <Gold.Protein.RotatedTorsions>
[ 6907 6896 6895 6894 ] final  170.18 input  -60.11 | X-H torsion
[ 7974 7965 7964 7962 ] final   11.41 input  175.53 | X-H torsion
[ 8008 7997 7996 7995 ] final  147.43 input   59.86 | X-H torsion
[ 10167 10162 10161 10158 ] final -135.07 input  -65.29 | X-H torsion
[ 10718 10713 10712 10709 ] final  -83.58 input   66.30 | X-H torsion
[ 10763 10752 10751 10750 ] final    9.87 input  -60.55 | X-H torsion
[ 11005 11000 10999 10996 ] final -117.26 input  -57.11 | X-H torsion

> <Gold.Protein.ActiveResidues>
 VAL166  LYS551  ARG553  GLY616  TRP617  ASP618  TYR619  PRO620  LYS621  CYS622 
 ASP623  PHE694  ASN695  SER759  ASP760  ASP761  ALA762  ILE779  LEU786  VAL792 
 PHE793  MET794  SER795  GLU796  ALA797  LYS798  CYS799  TRP800  GLU811  SER814 

> <Gold.Protein.RotatedAtoms>
  151.8202  133.3393  159.3581 H   0  0  0  0  0  0  0  0  0  0  0  0  # atno 6907 bound_to 6896
  150.7297  134.5581  159.5838 H   0  0  0  0  0  0  0  0  0  0  0  0  # atno 6908 bound_to 6896
  152.3011  134.7610  160.0408 H   0  0  0  0  0  0  0  0  0  0  0  0  # atno 6909 bound_to 6896
  146.2371  139.9489  142.8473 H   0  0  0  0  0  0  0  0  0  0  0  0  # atno 7974 bound_to 7965
  156.2825  140.2156  156.5537 H   0  0  0  0  0  0  0  0  0  0  0  0  # atno 8008 bound_to 7997
  154.7270  140.0498  157.0714 H   0  0  0  0  0  0  0  0  0  0  0  0  # atno 8009 bound_to 7997
  155.0403  140.3145  155.4730 H   0  0  0  0  0  0  0  0  0  0  0  0  # atno 8010 bound_to 7997
  139.8816  143.6832  152.2626 H   0  0  0  0  0  0  0  0  0  0  0  0  # atno 10167 bound_to 10162
  156.0016  130.4670  150.4279 H   0  0  0  0  0  0  0  0  0  0  0  0  # atno 10718 bound_to 10713
  153.2093  135.6867  153.8134 H   0  0  0  0  0  0  0  0  0  0  0  0  # atno 10763 bound_to 10752
  153.7372  135.3243  155.3298 H   0  0  0  0  0  0  0  0  0  0  0  0  # atno 10764 bound_to 10752
  154.8213  135.4650  154.0893 H   0  0  0  0  0  0  0  0  0  0  0  0  # atno 10765 bound_to 10752
  141.0366  133.9900  157.3060 H   0  0  0  0  0  0  0  0  0  0  0  0  # atno 11005 bound_to 11000
  145.1880  140.9798  143.4227 LP  0  0  0  0  0  0  0  0  0  0  0  0  # atno 17320 bound_to 7965
  144.9882  139.3715  143.6228 LP  0  0  0  0  0  0  0  0  0  0  0  0  # atno 17321 bound_to 7965
  139.7191  144.7606  151.0985 LP  0  0  0  0  0  0  0  0  0  0  0  0  # atno 17342 bound_to 10162
  140.7743  143.5231  150.9513 LP  0  0  0  0  0  0  0  0  0  0  0  0  # atno 17343 bound_to 10162
  157.2330  131.0508  151.2481 LP  0  0  0  0  0  0  0  0  0  0  0  0  # atno 17370 bound_to 10713
  157.3693  130.7172  149.6554 LP  0  0  0  0  0  0  0  0  0  0  0  0  # atno 17371 bound_to 10713
  139.9245  135.0201  156.8185 LP  0  0  0  0  0  0  0  0  0  0  0  0  # atno 17394 bound_to 11000
  140.6310  133.9905  155.7662 LP  0  0  0  0  0  0  0  0  0  0  0  0  # atno 17395 bound_to 11000

$$$$
