AV-unprocessed.smi:855|AV-procd|sdf|3957|dock6
  -GOLD-   22720 1423D 1   1.00000     0.00000
 Structure written by MMmdl.
 35 36  0  0  0  0  0  0  0  0  3 V2000
  152.0710  140.4209  159.2763 C   0  0  0  0  0  0  0  0  0  0  0  0
  151.8197  140.2850  157.8134 C   0  0  0  0  0  0  0  0  0  0  0  0
  150.6959  140.4203  157.0488 C   0  0  0  0  0  0  0  0  0  0  0  0
  151.1626  140.1459  155.7342 C   0  0  0  0  0  0  0  0  0  0  0  0
  150.4236  140.1633  154.6140 N   0  5  0  0  0  0  0  0  0  0  0  0
  149.1219  139.7981  154.6527 C   0  0  0  0  0  0  0  0  0  0  0  0
  148.4761  139.4898  155.6571 O   0  0  0  0  0  0  0  0  0  0  0  0
  148.5288  139.7874  153.4519 N   0  0  0  0  0  0  0  0  0  0  0  0
  147.1413  139.4172  153.2123 C   0  0  0  0  0  0  0  0  0  0  0  0
  146.9386  138.9992  151.7491 C   0  0  0  0  0  0  0  0  0  0  0  0
  146.7264  137.5392  151.6179 N   0  3  0  0  0  0  0  0  0  0  0  0
  145.6548  136.9790  152.4642 C   0  0  0  0  0  0  0  0  0  0  0  0
  145.3110  135.6230  151.8419 C   0  0  0  0  0  0  0  0  0  0  0  0
  145.7963  135.7042  150.3890 C   0  0  0  0  0  0  0  0  0  0  0  0
  146.4286  137.0920  150.2446 C   0  0  0  0  0  0  0  0  0  0  0  0
  152.4588  139.8848  155.7019 N   0  0  0  0  0  0  0  0  0  0  0  0
  152.8865  139.9646  157.0325 O   0  0  0  0  0  0  0  0  0  0  0  0
  151.6708  141.3634  159.6505 H   0  0  0  0  0  0  0  0  0  0  0  0
  153.1386  140.3971  159.4959 H   0  0  0  0  0  0  0  0  0  0  0  0
  151.5946  139.6089  159.8257 H   0  0  0  0  0  0  0  0  0  0  0  0
  149.6983  140.6711  157.3769 H   0  0  0  0  0  0  0  0  0  0  0  0
  149.0883  140.0441  152.6517 H   0  0  0  0  0  0  0  0  0  0  0  0
  146.8664  138.5968  153.8772 H   0  0  0  0  0  0  0  0  0  0  0  0
  146.5040  140.2665  153.4621 H   0  0  0  0  0  0  0  0  0  0  0  0
  146.1002  139.5396  151.3067 H   0  0  0  0  0  0  0  0  0  0  0  0
  147.8261  139.2727  151.1765 H   0  0  0  0  0  0  0  0  0  0  0  0
  145.9625  136.8879  153.5063 H   0  0  0  0  0  0  0  0  0  0  0  0
  144.7804  137.6310  152.4262 H   0  0  0  0  0  0  0  0  0  0  0  0
  145.8410  134.8246  152.3632 H   0  0  0  0  0  0  0  0  0  0  0  0
  144.2443  135.4076  151.9108 H   0  0  0  0  0  0  0  0  0  0  0  0
  146.5389  134.9274  150.2025 H   0  0  0  0  0  0  0  0  0  0  0  0
  144.9841  135.5599  149.6759 H   0  0  0  0  0  0  0  0  0  0  0  0
  145.7098  137.7746  149.7879 H   0  0  0  0  0  0  0  0  0  0  0  0
  147.3242  137.0810  149.6226 H   0  0  0  0  0  0  0  0  0  0  0  0
  147.5848  137.0800  151.8876 H   0  0  0  0  0  0  0  0  0  0  0  0
  1  2  1  0  0  0  0
  1 18  1  0  0  0  0
  1 19  1  0  0  0  0
  1 20  1  0  0  0  0
  2 17  1  0  0  0  0
  2  3  2  0  0  0  0
  3  4  1  0  0  0  0
  3 21  1  0  0  0  0
  4  5  1  0  0  0  0
  4 16  2  0  0  0  0
  5  6  1  0  0  0  0
  6  7  2  0  0  0  0
  6  8  1  0  0  0  0
  8  9  1  0  0  0  0
  8 22  1  0  0  0  0
  9 10  1  0  0  0  0
  9 23  1  0  0  0  0
  9 24  1  0  0  0  0
 10 11  1  0  0  0  0
 10 25  1  0  0  0  0
 10 26  1  0  0  0  0
 11 15  1  0  0  0  0
 11 12  1  0  0  0  0
 11 35  1  0  0  0  0
 12 13  1  0  0  0  0
 12 27  1  0  0  0  0
 12 28  1  0  0  0  0
 13 14  1  0  0  0  0
 13 29  1  0  0  0  0
 13 30  1  0  0  0  0
 14 15  1  0  0  0  0
 14 31  1  0  0  0  0
 14 32  1  0  0  0  0
 15 33  1  0  0  0  0
 15 34  1  0  0  0  0
 16 17  1  0  0  0  0
M  CHG  1   5  -1
M  CHG  1  11   1
M  END
> <s_m_source_file>
AV-unprocessed.smi

> <i_m_source_file_index>
855

> <i_lp_mmshare_version>
43012

> <i_f3d_flags>
0

> <s_epik_input>
W0NIM11jMVtjSF1jKG5vMSlbTkhdQyg9TylbTkhdW0NIMl1bQ0gyXU4yW0NIMl1bQ0gyXVtDSDJdW0NIMl0y

> <s_epik_cmdline>
J2VwaWtfcHl0aG9uJywgJy1waCcsICc3LjAnLCAnLXRuJywgJzgnLCAnLW1hJywgJzIwMCcsICctbWV0YWxfYmluZGluZycsICctaW1hZScsICc8aW5maWxlLm1hZT4nLCAnLW9tYWUnLCAnPG91dGZpbGUubWFlPic=

> <r_epik_Ionization_Penalty>
6.22372

> <r_epik_Ionization_Penalty_Charging>
6.22363

> <r_epik_Ionization_Penalty_Neutral>
9.36971e-05

> <r_epik_State_Penalty>
6.22291

> <r_epik_Charging_Adjusted_Penalty>
12.4465

> <i_epik_Tot_Q>
0

> <i_epik_Tot_abs_Q>
2

> <r_epik_Metal_State_Penalty>
2.16624

> <b_epik_Metal_Only>
1

> <s_lp_Force_Field>
OPLS_2005

> <r_lp_Energy>
15.2309

> <b_lp_Chiralities_Consistent>
1

> <s_lp_Variant>
AV-unprocessed.smi:855-2

> <Gold.Version>
5.8.1

> <Gold.Id.Protein>
6NUR|6NUR_protein|mol2

> <Gold.PLP.Fitness>
43.4586

> <Gold.PLP.PLP>
-30.6530

> <Gold.PLP.part.hbond>
-4.5902

> <Gold.PLP.part.metal>
0.0000

> <Gold.PLP.part.buried>
-1.3990

> <Gold.PLP.part.nonpolar>
-26.2598

> <Gold.PLP.part.repulsive>
0.2959

> <Gold.PLP.ligand.clash>
0.0000

> <Gold.PLP.ligand.torsion>
0.7267

> <Gold.PLP.Chemscore.Hbond>
4.7413

> <Gold.PLP.Chemscore.CHOScore>
0.0000

> <Gold.PLP.Chemscore.Metal>
0.0000

> <Gold.Chemscore.Hbonds>
donor molecule, donor type, donor heavy atom, donor atom, acceptor molecule, acceptor atom, score
      L1  H     8    22       P1  7957  1.00
      L1  H    11    35       P1  7948  2.00
      P1  H  7989  7998       L1     5  0.95
      P1  H  7997  8010       L1    17  0.85

> <Gold.PLP.Chemscore.Internal.Correction>
0.0352

> <Gold.Rescore>
     Score         DG    S(hbond)    S(metal)    S(lipo)     H(rot)  DE(clash)    DE(int)     intcor
     14.93     -17.19       2.79        0.00      54.74       1.57       0.20       2.05       ----

> <Gold.Chemscore.Fitness>
14.9335

> <Gold.Chemscore.DG>
-17.1862

> <Gold.Chemscore.ZeroCoef>
-5.4800

> <Gold.Chemscore.Hbond>
2.7931

> <Gold.Chemscore.Metal>
0.0000

> <Gold.Chemscore.Lipo>
54.7372

> <Gold.Chemscore.Internal_Hbond>
0.0000

> <Gold.Chemscore.DEClash>
0.2003

> <Gold.Chemscore.DEInternal>
2.0525

> <Gold.Chemscore.Rot>
1.5731

> <Gold.Chemscore.Internal.Correction>
   9.000000E+99

> <Gold.Chemscore.Hbonds>
donor molecule, donor type, donor heavy atom, donor atom, acceptor molecule, acceptor atom, score
      L1  H     8    22       P1  7957  0.97
      L1  H    11    35       P1  7948  0.98
      P1  H  7989  7998       L1     5  0.21
      P1  H  7997  8010       L1    17  0.14

> <Gold.Chemscore.Hbond.Weighted>
-9.3291

> <Gold.Chemscore.Metal.Weighted>
-0.0000

> <Gold.Chemscore.Lipo.Weighted>
-6.4042

> <Gold.Chemscore.Internal_Hbond.Weighted>
0.0000

> <Gold.Chemscore.DEClash.Weighted>
0.2003

> <Gold.Chemscore.DEInternal.Weighted>
2.0525

> <Gold.Chemscore.Rot.Weighted>
4.0271

> <Gold.Chemscore.Internal.Correction.Weighted>
   9.000000E+99

> <Gold.Protein.RotatedTorsions>
[ 6907 6896 6895 6894 ] final -166.97 input  -60.11 | X-H torsion
[ 7974 7965 7964 7962 ] final  110.51 input  175.53 | X-H torsion
[ 8008 7997 7996 7995 ] final   53.80 input   59.86 | X-H torsion
[ 10167 10162 10161 10158 ] final  145.25 input  -65.29 | X-H torsion
[ 10718 10713 10712 10709 ] final  -26.00 input   66.30 | X-H torsion
[ 10763 10752 10751 10750 ] final  -13.44 input  -60.55 | X-H torsion
[ 11005 11000 10999 10996 ] final  -10.37 input  -57.11 | X-H torsion

> <Gold.Protein.ActiveResidues>
 VAL166  LYS551  ARG553  GLY616  TRP617  ASP618  TYR619  PRO620  LYS621  CYS622 
 ASP623  PHE694  ASN695  SER759  ASP760  ASP761  ALA762  ILE779  LEU786  VAL792 
 PHE793  MET794  SER795  GLU796  ALA797  LYS798  CYS799  TRP800  GLU811  SER814 

> <Gold.Protein.RotatedAtoms>
  151.4521  133.3615  159.2796 H   0  0  0  0  0  0  0  0  0  0  0  0  # atno 6907 bound_to 6896
  150.9084  134.8501  159.7419 H   0  0  0  0  0  0  0  0  0  0  0  0  # atno 6908 bound_to 6896
  152.4918  134.4448  159.9607 H   0  0  0  0  0  0  0  0  0  0  0  0  # atno 6909 bound_to 6896
  145.2540  139.2728  143.4052 H   0  0  0  0  0  0  0  0  0  0  0  0  # atno 7974 bound_to 7965
  155.4742  140.3466  155.4330 H   0  0  0  0  0  0  0  0  0  0  0  0  # atno 8008 bound_to 7997
  156.1081  140.1453  156.9405 H   0  0  0  0  0  0  0  0  0  0  0  0  # atno 8009 bound_to 7997
  154.4738  140.0892  156.7189 H   0  0  0  0  0  0  0  0  0  0  0  0  # atno 8010 bound_to 7997
  139.4930  144.5915  151.6672 H   0  0  0  0  0  0  0  0  0  0  0  0  # atno 10167 bound_to 10162
  156.4569  130.4495  149.6953 H   0  0  0  0  0  0  0  0  0  0  0  0  # atno 10718 bound_to 10713
  153.5133  135.7016  153.5769 H   0  0  0  0  0  0  0  0  0  0  0  0  # atno 10763 bound_to 10752
  153.3850  135.3910  155.1883 H   0  0  0  0  0  0  0  0  0  0  0  0  # atno 10764 bound_to 10752
  154.8701  135.3844  154.4615 H   0  0  0  0  0  0  0  0  0  0  0  0  # atno 10765 bound_to 10752
  140.7440  133.8646  155.8991 H   0  0  0  0  0  0  0  0  0  0  0  0  # atno 11005 bound_to 11000
  146.3294  140.2939  142.8617 LP  0  0  0  0  0  0  0  0  0  0  0  0  # atno 17320 bound_to 7965
  144.9477  140.8145  143.5591 LP  0  0  0  0  0  0  0  0  0  0  0  0  # atno 17321 bound_to 7965
  140.5542  144.0375  150.6140 LP  0  0  0  0  0  0  0  0  0  0  0  0  # atno 17342 bound_to 10162
  140.3439  143.3003  152.0559 LP  0  0  0  0  0  0  0  0  0  0  0  0  # atno 17343 bound_to 10162
  156.3757  130.7553  151.2541 LP  0  0  0  0  0  0  0  0  0  0  0  0  # atno 17370 bound_to 10713
  157.7500  131.0310  150.4163 LP  0  0  0  0  0  0  0  0  0  0  0  0  # atno 17371 bound_to 10713
  140.9811  134.1405  157.4494 LP  0  0  0  0  0  0  0  0  0  0  0  0  # atno 17394 bound_to 11000
  139.8800  135.0010  156.6045 LP  0  0  0  0  0  0  0  0  0  0  0  0  # atno 17395 bound_to 11000

$$$$
