AV-unprocessed.smi:3258|AV-procd|sdf|12471|dock4
  -GOLD-   2272018373D 1   1.00000     0.00000
 Structure written by MMmdl.
 38 39  0  0  0  0  0  0  0  0  1 V2000
  148.7134  131.8090  153.8319 C   0  0  0  0  0  0  0  0  0  0  0  0
  147.8746  132.7773  152.9824 C   0  0  1  0  0  0  0  0  0  0  0  0
  146.3495  132.5594  153.1410 C   0  0  0  0  0  0  0  0  0  0  0  0
  145.6244  132.5457  151.8805 N   0  0  0  0  0  0  0  0  0  0  0  0
  145.8714  131.7862  150.7560 C   0  0  0  0  0  0  0  0  0  0  0  0
  144.9313  132.1211  149.8241 C   0  0  0  0  0  0  0  0  0  0  0  0
  144.1456  133.1114  150.4773 C   0  0  0  0  0  0  0  0  0  0  0  0
  144.5636  133.3645  151.7065 N   0  0  0  0  0  0  0  0  0  0  0  0
  148.2572  134.1515  153.3005 N   0  0  0  0  0  0  0  0  0  0  0  0
  148.5218  134.6208  154.5274 C   0  0  0  0  0  0  0  0  0  0  0  0
  148.4281  133.9526  155.5574 O   0  0  0  0  0  0  0  0  0  0  0  0
  148.9254  135.8983  154.4915 N   0  0  0  0  0  0  0  0  0  0  0  0
  149.3650  136.6764  155.6448 C   0  0  0  0  0  0  0  0  0  0  0  0
  149.7249  138.1207  155.2493 C   0  0  1  0  0  0  0  0  0  0  0  0
  149.9746  139.0361  156.4303 C   0  0  0  0  0  0  0  0  0  0  0  0
  150.7251  140.1947  155.7799 C   0  0  0  0  0  0  0  0  0  0  0  0
  151.4401  139.6313  154.6835 O   0  0  0  0  0  0  0  0  0  0  0  0
  151.0374  138.2806  154.4792 C   0  0  0  0  0  0  0  0  0  0  0  0
  148.4517  130.7729  153.6163 H   0  0  0  0  0  0  0  0  0  0  0  0
  148.5670  131.9748  154.8996 H   0  0  0  0  0  0  0  0  0  0  0  0
  149.7772  131.9289  153.6237 H   0  0  0  0  0  0  0  0  0  0  0  0
  148.1292  132.5942  151.9371 H   0  0  0  0  0  0  0  0  0  0  0  0
  146.1424  131.6298  153.6735 H   0  0  0  0  0  0  0  0  0  0  0  0
  145.9320  133.3552  153.7587 H   0  0  0  0  0  0  0  0  0  0  0  0
  146.6849  131.0768  150.7146 H   0  0  0  0  0  0  0  0  0  0  0  0
  144.8224  131.7216  148.8269 H   0  0  0  0  0  0  0  0  0  0  0  0
  143.2907  133.6508  150.0973 H   0  0  0  0  0  0  0  0  0  0  0  0
  148.3696  134.7814  152.5197 H   0  0  0  0  0  0  0  0  0  0  0  0
  148.9683  136.3561  153.5927 H   0  0  0  0  0  0  0  0  0  0  0  0
  148.5481  136.6902  156.3666 H   0  0  0  0  0  0  0  0  0  0  0  0
  150.2056  136.1925  156.1454 H   0  0  0  0  0  0  0  0  0  0  0  0
  148.9161  138.5442  154.6511 H   0  0  0  0  0  0  0  0  0  0  0  0
  149.0588  139.3520  156.9307 H   0  0  0  0  0  0  0  0  0  0  0  0
  150.6134  138.5441  157.1652 H   0  0  0  0  0  0  0  0  0  0  0  0
  150.0224  140.9330  155.3916 H   0  0  0  0  0  0  0  0  0  0  0  0
  151.3950  140.6990  156.4766 H   0  0  0  0  0  0  0  0  0  0  0  0
  151.8082  137.6268  154.8900 H   0  0  0  0  0  0  0  0  0  0  0  0
  150.9324  138.0536  153.4179 H   0  0  0  0  0  0  0  0  0  0  0  0
  1  2  1  0  0  0  0
  1 19  1  0  0  0  0
  1 20  1  0  0  0  0
  1 21  1  0  0  0  0
  2  3  1  0  0  0  0
  2  9  1  0  0  0  0
  2 22  1  0  0  0  0
  3  4  1  0  0  0  0
  3 23  1  0  0  0  0
  3 24  1  0  0  0  0
  4  8  1  0  0  0  0
  4  5  1  0  0  0  0
  5  6  2  0  0  0  0
  5 25  1  0  0  0  0
  6  7  1  0  0  0  0
  6 26  1  0  0  0  0
  7  8  2  0  0  0  0
  7 27  1  0  0  0  0
  9 10  1  0  0  0  0
  9 28  1  0  0  0  0
 10 11  2  0  0  0  0
 10 12  1  0  0  0  0
 12 13  1  0  0  0  0
 12 29  1  0  0  0  0
 13 14  1  0  0  0  0
 13 30  1  0  0  0  0
 13 31  1  0  0  0  0
 14 18  1  0  0  0  0
 14 15  1  0  0  0  0
 14 32  1  0  0  0  0
 15 16  1  0  0  0  0
 15 33  1  0  0  0  0
 15 34  1  0  0  0  0
 16 17  1  0  0  0  0
 16 35  1  0  0  0  0
 16 36  1  0  0  0  0
 17 18  1  0  0  0  0
 18 37  1  0  0  0  0
 18 38  1  0  0  0  0
M  END
> <s_m_source_file>
AV-unprocessed.smi

> <i_m_source_file_index>
3258

> <i_lp_mmshare_version>
43012

> <i_f3d_flags>
0

> <s_epik_input>
bjFbY0hdW2NIXVtjSF1uMVtDSDJdW0NAQEhdKFtDSDNdKVtOSF1DKD1PKVtOSF1bQ0gyXVtDQEBIXTJbQ0gyXVtDSDJdT1tDSDJdMg==

> <s_epik_cmdline>
J2VwaWtfcHl0aG9uJywgJy1waCcsICc3LjAnLCAnLXRuJywgJzgnLCAnLW1hJywgJzIwMCcsICctbWV0YWxfYmluZGluZycsICctaW1hZScsICc8aW5maWxlLm1hZT4nLCAnLW9tYWUnLCAnPG91dGZpbGUubWFlPic=

> <r_lp_tautomer_probability>
1

> <r_epik_Ionization_Penalty>
6.85079e-05

> <r_epik_Ionization_Penalty_Charging>
0

> <r_epik_Ionization_Penalty_Neutral>
6.85079e-05

> <r_epik_State_Penalty>
-0

> <r_epik_Charging_Adjusted_Penalty>
0

> <i_epik_Tot_Q>
0

> <i_epik_Tot_abs_Q>
0

> <r_epik_Metal_State_Penalty>
-0

> <b_epik_Metal_Only>
0

> <s_lp_Force_Field>
OPLS_2005

> <r_lp_Energy>
16.3591

> <b_lp_Chiralities_Consistent>
1

> <s_lp_Variant>
AV-unprocessed.smi:3258-4

> <Gold.Version>
5.8.1

> <Gold.Id.Protein>
6NUR|6NUR_protein|mol2

> <Gold.PLP.Fitness>
42.5809

> <Gold.PLP.PLP>
-29.7929

> <Gold.PLP.part.hbond>
-3.0000

> <Gold.PLP.part.metal>
0.0000

> <Gold.PLP.part.buried>
-3.5914

> <Gold.PLP.part.nonpolar>
-23.2262

> <Gold.PLP.part.repulsive>
0.2182

> <Gold.PLP.ligand.clash>
0.0000

> <Gold.PLP.ligand.torsion>
1.0515

> <Gold.PLP.Chemscore.Hbond>
2.9500

> <Gold.PLP.Chemscore.CHOScore>
2.0000

> <Gold.PLP.Chemscore.Metal>
0.0000

> <Gold.Chemscore.Hbonds>
donor molecule, donor type, donor heavy atom, donor atom, acceptor molecule, acceptor atom, score
      L1  H     9    28       P1  7948  1.00
      L1  H    12    29       P1  7948  0.98
      P1  H  7989  7998       L1    17  1.00
      L1  C     5    25       P1 10747  1.00
      L1  C     7    27       P1 10186  1.00

> <Gold.PLP.Chemscore.Internal.Correction>
0.0410

> <Gold.Rescore>
     Score         DG    S(hbond)    S(metal)    S(lipo)     H(rot)  DE(clash)    DE(int)     intcor
     13.60     -16.11       2.33        0.00      65.30       1.87       0.00       2.50       ----

> <Gold.Chemscore.Fitness>
13.5986

> <Gold.Chemscore.DG>
-16.1060

> <Gold.Chemscore.ZeroCoef>
-5.4800

> <Gold.Chemscore.Hbond>
2.3291

> <Gold.Chemscore.Metal>
0.0000

> <Gold.Chemscore.Lipo>
65.2993

> <Gold.Chemscore.Internal_Hbond>
0.0000

> <Gold.Chemscore.DEClash>
0.0029

> <Gold.Chemscore.DEInternal>
2.5046

> <Gold.Chemscore.Rot>
1.8724

> <Gold.Chemscore.Internal.Correction>
   9.000000E+99

> <Gold.Chemscore.Hbonds>
donor molecule, donor type, donor heavy atom, donor atom, acceptor molecule, acceptor atom, score
      L1  H     9    28       P1  7948  0.29
      L1  H    12    29       P1  7948  0.92
      P1  H  7989  7998       L1    17  0.65

> <Gold.Chemscore.Hbond.Weighted>
-7.7793

> <Gold.Chemscore.Metal.Weighted>
-0.0000

> <Gold.Chemscore.Lipo.Weighted>
-7.6400

> <Gold.Chemscore.Internal_Hbond.Weighted>
0.0000

> <Gold.Chemscore.DEClash.Weighted>
0.0029

> <Gold.Chemscore.DEInternal.Weighted>
2.5046

> <Gold.Chemscore.Rot.Weighted>
4.7933

> <Gold.Chemscore.Internal.Correction.Weighted>
   9.000000E+99

> <Gold.Protein.RotatedTorsions>
[ 6907 6896 6895 6894 ] final  -52.33 input  -60.11 | X-H torsion
[ 7974 7965 7964 7962 ] final   37.71 input  175.53 | X-H torsion
[ 8008 7997 7996 7995 ] final  -78.87 input   59.86 | X-H torsion
[ 10167 10162 10161 10158 ] final -167.36 input  -65.29 | X-H torsion
[ 10718 10713 10712 10709 ] final -129.98 input   66.30 | X-H torsion
[ 10763 10752 10751 10750 ] final  -36.78 input  -60.55 | X-H torsion
[ 11005 11000 10999 10996 ] final  142.91 input  -57.11 | X-H torsion

> <Gold.Protein.ActiveResidues>
 VAL166  LYS551  ARG553  GLY616  TRP617  ASP618  TYR619  PRO620  LYS621  CYS622 
 ASP623  PHE694  ASN695  SER759  ASP760  ASP761  ALA762  ILE779  LEU786  VAL792 
 PHE793  MET794  SER795  GLU796  ALA797  LYS798  CYS799  TRP800  GLU811  SER814 

> <Gold.Protein.RotatedAtoms>
  150.8528  134.7858  159.7021 H   0  0  0  0  0  0  0  0  0  0  0  0  # atno 6907 bound_to 6896
  152.4588  134.5228  159.9797 H   0  0  0  0  0  0  0  0  0  0  0  0  # atno 6908 bound_to 6896
  151.5346  133.3405  159.2960 H   0  0  0  0  0  0  0  0  0  0  0  0  # atno 6909 bound_to 6896
  146.1117  139.5860  142.9348 H   0  0  0  0  0  0  0  0  0  0  0  0  # atno 7974 bound_to 7965
  154.5731  140.0687  156.8994 H   0  0  0  0  0  0  0  0  0  0  0  0  # atno 8008 bound_to 7997
  155.2598  140.3357  155.4256 H   0  0  0  0  0  0  0  0  0  0  0  0  # atno 8009 bound_to 7997
  156.2133  140.1768  156.7631 H   0  0  0  0  0  0  0  0  0  0  0  0  # atno 8010 bound_to 7997
  139.6054  144.0923  152.1788 H   0  0  0  0  0  0  0  0  0  0  0  0  # atno 10167 bound_to 10162
  156.2100  130.6912  151.0638 H   0  0  0  0  0  0  0  0  0  0  0  0  # atno 10718 bound_to 10713
  153.8854  135.6817  153.4764 H   0  0  0  0  0  0  0  0  0  0  0  0  # atno 10763 bound_to 10752
  153.1210  135.4740  154.9193 H   0  0  0  0  0  0  0  0  0  0  0  0  # atno 10764 bound_to 10752
  154.7648  135.3221  154.8260 H   0  0  0  0  0  0  0  0  0  0  0  0  # atno 10765 bound_to 10752
  140.0513  134.9254  157.1022 H   0  0  0  0  0  0  0  0  0  0  0  0  # atno 11005 bound_to 11000
  145.5651  141.0400  143.2205 LP  0  0  0  0  0  0  0  0  0  0  0  0  # atno 17320 bound_to 7965
  144.7517  139.7177  143.7270 LP  0  0  0  0  0  0  0  0  0  0  0  0  # atno 17321 bound_to 7965
  140.0529  144.5918  150.7322 LP  0  0  0  0  0  0  0  0  0  0  0  0  # atno 17342 bound_to 10162
  140.7281  143.2658  151.4049 LP  0  0  0  0  0  0  0  0  0  0  0  0  # atno 17343 bound_to 10162
  157.7033  131.0767  150.6750 LP  0  0  0  0  0  0  0  0  0  0  0  0  # atno 17370 bound_to 10713
  156.6809  130.4567  149.5628 LP  0  0  0  0  0  0  0  0  0  0  0  0  # atno 17371 bound_to 10713
  140.3913  134.2182  155.7166 LP  0  0  0  0  0  0  0  0  0  0  0  0  # atno 17394 bound_to 11000
  141.1931  133.8157  157.0810 LP  0  0  0  0  0  0  0  0  0  0  0  0  # atno 17395 bound_to 11000

$$$$
