AV-unprocessed.smi:1019|AV-procd|sdf|4446|dock6
  -GOLD-   22720 2413D 1   1.00000     0.00000
 Structure written by MMmdl.
 44 46  0  0  0  0  0  0  0  0  2 V2000
  148.8946  141.4569  157.7166 C   0  0  0  0  0  0  0  0  0  0  0  0
  149.8692  140.6408  156.9574 N   0  3  2  0  0  0  0  0  0  0  0  0
  151.1204  141.3850  156.6720 C   0  0  0  0  0  0  0  0  0  0  0  0
  151.7234  141.9709  157.9376 C   0  0  0  0  0  0  0  0  0  0  0  0
  152.1804  141.1140  158.9614 C   0  0  0  0  0  0  0  0  0  0  0  0
  152.7555  141.6505  160.1297 C   0  0  0  0  0  0  0  0  0  0  0  0
  152.8715  143.0458  160.2811 C   0  0  0  0  0  0  0  0  0  0  0  0
  152.4106  143.9047  159.2649 C   0  0  0  0  0  0  0  0  0  0  0  0
  151.8369  143.3688  158.0955 C   0  0  0  0  0  0  0  0  0  0  0  0
  149.2662  139.9989  155.7596 C   0  0  0  0  0  0  0  0  0  0  0  0
  148.8541  141.0425  154.7052 C   0  0  1  0  0  0  0  0  0  0  0  0
  149.7539  140.9547  153.6183 O   0  0  0  0  0  0  0  0  0  0  0  0
  147.4116  140.8316  154.1996 C   0  0  0  0  0  0  0  0  0  0  0  0
  146.4237  141.4589  155.0580 N   0  0  0  0  0  0  0  0  0  0  0  0
  145.9071  140.9570  156.1960 C   0  0  0  0  0  0  0  0  0  0  0  0
  145.0073  141.6971  156.8362 N   0  0  0  0  0  0  0  0  0  0  0  0
  144.9288  142.8110  156.0179 C   0  0  0  0  0  0  0  0  0  0  0  0
  144.1459  143.9815  156.1360 C   0  0  0  0  0  0  0  0  0  0  0  0
  144.2330  145.0000  155.1643 C   0  0  0  0  0  0  0  0  0  0  0  0
  145.1022  144.8644  154.0622 C   0  0  0  0  0  0  0  0  0  0  0  0
  145.8926  143.7073  153.9231 C   0  0  0  0  0  0  0  0  0  0  0  0
  145.8025  142.6930  154.8946 C   0  0  0  0  0  0  0  0  0  0  0  0
  148.5836  142.3296  157.1411 H   0  0  0  0  0  0  0  0  0  0  0  0
  149.3309  141.8041  158.6538 H   0  0  0  0  0  0  0  0  0  0  0  0
  148.0056  140.8762  157.9640 H   0  0  0  0  0  0  0  0  0  0  0  0
  151.8357  140.7362  156.1637 H   0  0  0  0  0  0  0  0  0  0  0  0
  150.9128  142.2136  155.9934 H   0  0  0  0  0  0  0  0  0  0  0  0
  152.0967  140.0426  158.8518 H   0  0  0  0  0  0  0  0  0  0  0  0
  153.1080  140.9922  160.9103 H   0  0  0  0  0  0  0  0  0  0  0  0
  153.3127  143.4576  161.1772 H   0  0  0  0  0  0  0  0  0  0  0  0
  152.4980  144.9750  159.3826 H   0  0  0  0  0  0  0  0  0  0  0  0
  151.4883  144.0350  157.3199 H   0  0  0  0  0  0  0  0  0  0  0  0
  149.9753  139.2834  155.3390 H   0  0  0  0  0  0  0  0  0  0  0  0
  148.3866  139.4141  156.0284 H   0  0  0  0  0  0  0  0  0  0  0  0
  148.9530  142.0457  155.1214 H   0  0  0  0  0  0  0  0  0  0  0  0
  149.3636  140.4238  152.9405 H   0  0  0  0  0  0  0  0  0  0  0  0
  147.2973  141.2220  153.1874 H   0  0  0  0  0  0  0  0  0  0  0  0
  147.1796  139.7673  154.1461 H   0  0  0  0  0  0  0  0  0  0  0  0
  146.2106  139.9930  156.5776 H   0  0  0  0  0  0  0  0  0  0  0  0
  143.4770  144.0960  156.9761 H   0  0  0  0  0  0  0  0  0  0  0  0
  143.6295  145.8902  155.2655 H   0  0  0  0  0  0  0  0  0  0  0  0
  145.1615  145.6504  153.3236 H   0  0  0  0  0  0  0  0  0  0  0  0
  146.5593  143.6028  153.0802 H   0  0  0  0  0  0  0  0  0  0  0  0
  150.1441  139.8875  157.5713 H   0  0  0  0  0  0  0  0  0  0  0  0
  1  2  1  0  0  0  0
  1 23  1  0  0  0  0
  1 24  1  0  0  0  0
  1 25  1  0  0  0  0
  2  3  1  0  0  0  0
  2 10  1  0  0  0  0
  2 44  1  0  0  0  0
  3  4  1  0  0  0  0
  3 26  1  0  0  0  0
  3 27  1  0  0  0  0
  4  9  1  0  0  0  0
  4  5  2  0  0  0  0
  5  6  1  0  0  0  0
  5 28  1  0  0  0  0
  6  7  2  0  0  0  0
  6 29  1  0  0  0  0
  7  8  1  0  0  0  0
  7 30  1  0  0  0  0
  8  9  2  0  0  0  0
  8 31  1  0  0  0  0
  9 32  1  0  0  0  0
 10 11  1  0  0  0  0
 10 33  1  0  0  0  0
 10 34  1  0  0  0  0
 11 12  1  0  0  0  0
 11 13  1  0  0  0  0
 11 35  1  0  0  0  0
 12 36  1  0  0  0  0
 13 14  1  0  0  0  0
 13 37  1  0  0  0  0
 13 38  1  0  0  0  0
 14 22  1  0  0  0  0
 14 15  1  0  0  0  0
 15 16  2  0  0  0  0
 15 39  1  0  0  0  0
 16 17  1  0  0  0  0
 17 22  2  0  0  0  0
 17 18  1  0  0  0  0
 18 19  2  0  0  0  0
 18 40  1  0  0  0  0
 19 20  1  0  0  0  0
 19 41  1  0  0  0  0
 20 21  2  0  0  0  0
 20 42  1  0  0  0  0
 21 22  1  0  0  0  0
 21 43  1  0  0  0  0
M  CHG  1   2   1
M  END
> <s_m_source_file>
AV-unprocessed.smi

> <i_m_source_file_index>
1019

> <i_lp_mmshare_version>
43012

> <i_f3d_flags>
0

> <s_epik_input>
W2NIXTFbY0hdW2NIXVtjSF1bY0hdYzFbQ0gyXU4oW0NIM10pW0NIMl1bQ0BIXShbT0hdKVtDSDJdbihbY0hdbjIpYyhjMjMpW2NIXVtjSF1bY0hdW2NIXTM=

> <s_epik_cmdline>
J2VwaWtfcHl0aG9uJywgJy1waCcsICc3LjAnLCAnLXRuJywgJzgnLCAnLW1hJywgJzIwMCcsICctbWV0YWxfYmluZGluZycsICctaW1hZScsICc8aW5maWxlLm1hZT4nLCAnLW9tYWUnLCAnPG91dGZpbGUubWFlPic=

> <r_epik_Ionization_Penalty>
0.0996557

> <r_epik_Ionization_Penalty_Charging>
0.0475377

> <r_epik_Ionization_Penalty_Neutral>
0.0521179

> <r_epik_State_Penalty>
0.0851777

> <r_epik_Charging_Adjusted_Penalty>
0.132715

> <i_epik_Tot_Q>
1

> <i_epik_Tot_abs_Q>
1

> <r_epik_Metal_State_Penalty>
0.0423478

> <b_epik_Metal_Only>
0

> <s_lp_Force_Field>
OPLS_2005

> <r_lp_Energy>
16.6774

> <b_lp_Chiralities_Consistent>
1

> <s_lp_Variant>
AV-unprocessed.smi:1019-4

> <Gold.Version>
5.8.1

> <Gold.Id.Protein>
6NUR|6NUR_protein|mol2

> <Gold.PLP.Fitness>
54.7087

> <Gold.PLP.PLP>
-51.1181

> <Gold.PLP.part.hbond>
-2.7462

> <Gold.PLP.part.metal>
0.0000

> <Gold.PLP.part.buried>
-6.7373

> <Gold.PLP.part.nonpolar>
-42.5718

> <Gold.PLP.part.repulsive>
0.0703

> <Gold.PLP.ligand.clash>
0.0000

> <Gold.PLP.ligand.torsion>
1.3224

> <Gold.PLP.Chemscore.Hbond>
1.9280

> <Gold.PLP.Chemscore.CHOScore>
0.0000

> <Gold.PLP.Chemscore.Metal>
0.0000

> <Gold.Chemscore.Hbonds>
donor molecule, donor type, donor heavy atom, donor atom, acceptor molecule, acceptor atom, score
      L1  H    12    36       P1  7957  0.77
      P1  H  7989  7998       L1    12  0.34
      P1  H  8011  8017       L1    12  0.40

> <Gold.PLP.Chemscore.Internal.Correction>
0.4514

> <Gold.Rescore>
     Score         DG    S(hbond)    S(metal)    S(lipo)     H(rot)  DE(clash)    DE(int)     intcor
     16.92     -18.42       1.14        0.00     129.84       2.36       0.09       1.42       ----

> <Gold.Chemscore.Fitness>
16.9176

> <Gold.Chemscore.DG>
-18.4202

> <Gold.Chemscore.ZeroCoef>
-5.4800

> <Gold.Chemscore.Hbond>
1.1361

> <Gold.Chemscore.Metal>
0.0000

> <Gold.Chemscore.Lipo>
129.8399

> <Gold.Chemscore.Internal_Hbond>
0.0000

> <Gold.Chemscore.DEClash>
0.0866

> <Gold.Chemscore.DEInternal>
1.4160

> <Gold.Chemscore.Rot>
2.3616

> <Gold.Chemscore.Internal.Correction>
   9.000000E+99

> <Gold.Chemscore.Hbonds>
donor molecule, donor type, donor heavy atom, donor atom, acceptor molecule, acceptor atom, score
      L1  H    12    36       P1  7957  0.78
      P1  H  7989  7998       L1    12  0.22
      P1  H  8011  8017       L1    12  0.01

> <Gold.Chemscore.Hbond.Weighted>
-3.7947

> <Gold.Chemscore.Metal.Weighted>
-0.0000

> <Gold.Chemscore.Lipo.Weighted>
-15.1913

> <Gold.Chemscore.Internal_Hbond.Weighted>
0.0000

> <Gold.Chemscore.DEClash.Weighted>
0.0866

> <Gold.Chemscore.DEInternal.Weighted>
1.4160

> <Gold.Chemscore.Rot.Weighted>
6.0457

> <Gold.Chemscore.Internal.Correction.Weighted>
   9.000000E+99

> <Gold.Protein.RotatedTorsions>
[ 6907 6896 6895 6894 ] final  -54.85 input  -60.11 | X-H torsion
[ 7974 7965 7964 7962 ] final  -51.24 input  175.53 | X-H torsion
[ 8008 7997 7996 7995 ] final  -49.20 input   59.86 | X-H torsion
[ 10167 10162 10161 10158 ] final  132.70 input  -65.29 | X-H torsion
[ 10718 10713 10712 10709 ] final  -87.29 input   66.30 | X-H torsion
[ 10763 10752 10751 10750 ] final -134.05 input  -60.55 | X-H torsion
[ 11005 11000 10999 10996 ] final   18.72 input  -57.11 | X-H torsion

> <Gold.Protein.ActiveResidues>
 VAL166  LYS551  ARG553  GLY616  TRP617  ASP618  TYR619  PRO620  LYS621  CYS622 
 ASP623  PHE694  ASN695  SER759  ASP760  ASP761  ALA762  ILE779  LEU786  VAL792 
 PHE793  MET794  SER795  GLU796  ALA797  LYS798  CYS799  TRP800  GLU811  SER814 

> <Gold.Protein.RotatedAtoms>
  150.8302  134.7552  159.6847 H   0  0  0  0  0  0  0  0  0  0  0  0  # atno 6907 bound_to 6896
  152.4408  134.5592  159.9899 H   0  0  0  0  0  0  0  0  0  0  0  0  # atno 6908 bound_to 6896
  151.5754  133.3347  159.3034 H   0  0  0  0  0  0  0  0  0  0  0  0  # atno 6909 bound_to 6896
  145.9212  140.7832  142.9646 H   0  0  0  0  0  0  0  0  0  0  0  0  # atno 7974 bound_to 7965
  154.4040  140.1302  156.4464 H   0  0  0  0  0  0  0  0  0  0  0  0  # atno 8008 bound_to 7997
  155.7409  140.3490  155.5084 H   0  0  0  0  0  0  0  0  0  0  0  0  # atno 8009 bound_to 7997
  155.9040  140.1024  157.1319 H   0  0  0  0  0  0  0  0  0  0  0  0  # atno 8010 bound_to 7997
  139.5328  144.6650  151.4890 H   0  0  0  0  0  0  0  0  0  0  0  0  # atno 10167 bound_to 10162
  155.9986  130.4795  150.4845 H   0  0  0  0  0  0  0  0  0  0  0  0  # atno 10718 bound_to 10713
  154.8724  135.3747  154.4672 H   0  0  0  0  0  0  0  0  0  0  0  0  # atno 10763 bound_to 10752
  153.5336  135.7027  153.5676 H   0  0  0  0  0  0  0  0  0  0  0  0  # atno 10764 bound_to 10752
  153.3870  135.3982  155.1861 H   0  0  0  0  0  0  0  0  0  0  0  0  # atno 10765 bound_to 10752
  140.4216  134.1512  155.7673 H   0  0  0  0  0  0  0  0  0  0  0  0  # atno 11005 bound_to 11000
  144.6753  140.1978  143.7390 LP  0  0  0  0  0  0  0  0  0  0  0  0  # atno 17320 bound_to 7965
  145.8548  139.2193  143.1751 LP  0  0  0  0  0  0  0  0  0  0  0  0  # atno 17321 bound_to 7965
  140.6517  143.8683  150.6792 LP  0  0  0  0  0  0  0  0  0  0  0  0  # atno 17342 bound_to 10162
  140.2049  143.3929  152.1763 LP  0  0  0  0  0  0  0  0  0  0  0  0  # atno 17343 bound_to 10162
  157.2847  131.0614  151.2174 LP  0  0  0  0  0  0  0  0  0  0  0  0  # atno 17370 bound_to 10713
  157.3208  130.6936  149.6268 LP  0  0  0  0  0  0  0  0  0  0  0  0  # atno 17371 bound_to 10713
  141.1781  133.8471  157.1351 LP  0  0  0  0  0  0  0  0  0  0  0  0  # atno 17394 bound_to 11000
  140.0196  134.9952  157.0564 LP  0  0  0  0  0  0  0  0  0  0  0  0  # atno 17395 bound_to 11000

$$$$
