AV-unprocessed.smi:2126|AV-procd|sdf|8677|dock9
  -GOLD-   2272011433D 1   1.00000     0.00000
 Structure written by MMmdl.
 41 43  0  0  0  0  0  0  0  0  2 V2000
  144.6896  133.4572  162.7605 C   0  0  0  0  0  0  0  0  0  0  0  0
  145.8030  134.2692  163.1029 O   0  0  0  0  0  0  0  0  0  0  0  0
  146.5693  134.7838  162.0794 C   0  0  0  0  0  0  0  0  0  0  0  0
  146.4827  134.3641  160.7293 C   0  0  0  0  0  0  0  0  0  0  0  0
  147.3074  134.9475  159.7481 C   0  0  0  0  0  0  0  0  0  0  0  0
  148.2314  135.9566  160.0836 C   0  0  0  0  0  0  0  0  0  0  0  0
  148.9971  136.4716  159.0596 O   0  0  0  0  0  0  0  0  0  0  0  0
  150.0647  137.3493  159.3926 C   0  0  0  0  0  0  0  0  0  0  0  0
  149.8546  138.6877  158.6690 C   0  0  2  0  0  0  0  0  0  0  0  0
  149.5459  138.4212  157.3152 O   0  0  0  0  0  0  0  0  0  0  0  0
  151.0897  139.6064  158.7595 C   0  0  0  0  0  0  0  0  0  0  0  0
  150.8213  140.9695  158.2792 N   0  0  0  0  0  0  0  0  0  0  0  0
  149.8706  141.4106  157.4117 C   0  0  0  0  0  0  0  0  0  0  0  0
  150.0237  142.7575  157.2822 N   0  3  0  0  0  0  0  0  0  0  0  0
  151.0883  143.1845  158.0785 C   0  0  0  0  0  0  0  0  0  0  0  0
  151.6236  144.4532  158.2789 C   0  0  0  0  0  0  0  0  0  0  0  0
  152.7190  144.5460  159.1624 C   0  0  0  0  0  0  0  0  0  0  0  0
  153.2430  143.4054  159.8046 C   0  0  0  0  0  0  0  0  0  0  0  0
  152.6934  142.1238  159.5928 C   0  0  0  0  0  0  0  0  0  0  0  0
  151.6075  142.0404  158.7214 C   0  0  0  0  0  0  0  0  0  0  0  0
  148.3184  136.3756  161.4338 C   0  0  0  0  0  0  0  0  0  0  0  0
  147.4944  135.7918  162.4150 C   0  0  0  0  0  0  0  0  0  0  0  0
  144.1909  133.1291  163.6722 H   0  0  0  0  0  0  0  0  0  0  0  0
  144.9992  132.5649  162.2148 H   0  0  0  0  0  0  0  0  0  0  0  0
  143.9607  134.0100  162.1663 H   0  0  0  0  0  0  0  0  0  0  0  0
  145.7911  133.5955  160.4194 H   0  0  0  0  0  0  0  0  0  0  0  0
  147.2283  134.6151  158.7235 H   0  0  0  0  0  0  0  0  0  0  0  0
  150.1133  137.5098  160.4710 H   0  0  0  0  0  0  0  0  0  0  0  0
  151.0090  136.9048  159.0730 H   0  0  0  0  0  0  0  0  0  0  0  0
  148.9928  139.1946  159.1054 H   0  0  0  0  0  0  0  0  0  0  0  0
  148.7520  138.8832  157.0920 H   0  0  0  0  0  0  0  0  0  0  0  0
  151.4120  139.6941  159.7978 H   0  0  0  0  0  0  0  0  0  0  0  0
  151.9366  139.1897  158.2140 H   0  0  0  0  0  0  0  0  0  0  0  0
  149.1281  140.8017  156.9160 H   0  0  0  0  0  0  0  0  0  0  0  0
  151.2261  145.3281  157.7857 H   0  0  0  0  0  0  0  0  0  0  0  0
  153.1675  145.5111  159.3498 H   0  0  0  0  0  0  0  0  0  0  0  0
  154.0853  143.5149  160.4725 H   0  0  0  0  0  0  0  0  0  0  0  0
  153.1077  141.2563  160.0847 H   0  0  0  0  0  0  0  0  0  0  0  0
  149.0098  137.1436  161.7449 H   0  0  0  0  0  0  0  0  0  0  0  0
  147.5741  136.1229  163.4402 H   0  0  0  0  0  0  0  0  0  0  0  0
  149.4422  143.3398  156.6930 H   0  0  0  0  0  0  0  0  0  0  0  0
  1  2  1  0  0  0  0
  1 23  1  0  0  0  0
  1 24  1  0  0  0  0
  1 25  1  0  0  0  0
  2  3  1  0  0  0  0
  3 22  1  0  0  0  0
  3  4  2  0  0  0  0
  4  5  1  0  0  0  0
  4 26  1  0  0  0  0
  5  6  2  0  0  0  0
  5 27  1  0  0  0  0
  6  7  1  0  0  0  0
  6 21  1  0  0  0  0
  7  8  1  0  0  0  0
  8  9  1  0  0  0  0
  8 28  1  0  0  0  0
  8 29  1  0  0  0  0
  9 10  1  0  0  0  0
  9 11  1  0  0  0  0
  9 30  1  0  0  0  0
 10 31  1  0  0  0  0
 11 12  1  0  0  0  0
 11 32  1  0  0  0  0
 11 33  1  0  0  0  0
 12 20  1  0  0  0  0
 12 13  1  0  0  0  0
 13 14  2  0  0  0  0
 13 34  1  0  0  0  0
 14 15  1  0  0  0  0
 14 41  1  0  0  0  0
 15 20  2  0  0  0  0
 15 16  1  0  0  0  0
 16 17  2  0  0  0  0
 16 35  1  0  0  0  0
 17 18  1  0  0  0  0
 17 36  1  0  0  0  0
 18 19  2  0  0  0  0
 18 37  1  0  0  0  0
 19 20  1  0  0  0  0
 19 38  1  0  0  0  0
 21 22  2  0  0  0  0
 21 39  1  0  0  0  0
 22 40  1  0  0  0  0
M  CHG  1  14   1
M  END
> <s_m_source_file>
AV-unprocessed.smi

> <i_m_source_file_index>
2126

> <i_lp_mmshare_version>
43012

> <i_f3d_flags>
0

> <s_epik_input>
W0NIM11PYzFbY0hdW2NIXWMoW2NIXVtjSF0xKU9bQ0gyXVtDQEhdKFtPSF0pW0NIMl1uKFtjSF1uMiljKGMyMylbY0hdW2NIXVtjSF1bY0hdMw==

> <s_epik_cmdline>
J2VwaWtfcHl0aG9uJywgJy1waCcsICc3LjAnLCAnLXRuJywgJzgnLCAnLW1hJywgJzIwMCcsICctbWV0YWxfYmluZGluZycsICctaW1hZScsICc8aW5maWxlLm1hZT4nLCAnLW9tYWUnLCAnPG91dGZpbGUubWFlPic=

> <r_lp_tautomer_probability>
1

> <r_epik_Ionization_Penalty>
1.37822

> <r_epik_Ionization_Penalty_Charging>
1.37822

> <r_epik_Ionization_Penalty_Neutral>
2.3993e-06

> <r_epik_State_Penalty>
1.45852

> <r_epik_Charging_Adjusted_Penalty>
2.83674

> <i_epik_Tot_Q>
1

> <i_epik_Tot_abs_Q>
1

> <r_epik_Metal_State_Penalty>
5.4985

> <b_epik_Metal_Only>
0

> <s_lp_Force_Field>
OPLS_2005

> <r_lp_Energy>
23.2038

> <b_lp_Chiralities_Consistent>
1

> <s_lp_Variant>
AV-unprocessed.smi:2126-3

> <Gold.Version>
5.8.1

> <Gold.Id.Protein>
6NUR|6NUR_protein|mol2

> <Gold.PLP.Fitness>
50.4737

> <Gold.PLP.PLP>
-46.5242

> <Gold.PLP.part.hbond>
-2.0000

> <Gold.PLP.part.metal>
0.0000

> <Gold.PLP.part.buried>
-4.7509

> <Gold.PLP.part.nonpolar>
-40.3993

> <Gold.PLP.part.repulsive>
0.0525

> <Gold.PLP.ligand.clash>
0.0000

> <Gold.PLP.ligand.torsion>
1.0357

> <Gold.PLP.Chemscore.Hbond>
1.9840

> <Gold.PLP.Chemscore.CHOScore>
0.0000

> <Gold.PLP.Chemscore.Metal>
0.0000

> <Gold.Chemscore.Hbonds>
donor molecule, donor type, donor heavy atom, donor atom, acceptor molecule, acceptor atom, score
      L1  H    14    41       P1  8028  2.00

> <Gold.PLP.Chemscore.Internal.Correction>
0.0688

> <Gold.Rescore>
     Score         DG    S(hbond)    S(metal)    S(lipo)     H(rot)  DE(clash)    DE(int)     intcor
     15.69     -16.80       0.99        0.00     125.48       2.60       0.08       1.03       ----

> <Gold.Chemscore.Fitness>
15.6946

> <Gold.Chemscore.DG>
-16.8004

> <Gold.Chemscore.ZeroCoef>
-5.4800

> <Gold.Chemscore.Hbond>
0.9899

> <Gold.Chemscore.Metal>
0.0000

> <Gold.Chemscore.Lipo>
125.4794

> <Gold.Chemscore.Internal_Hbond>
0.0000

> <Gold.Chemscore.DEClash>
0.0777

> <Gold.Chemscore.DEInternal>
1.0282

> <Gold.Chemscore.Rot>
2.6043

> <Gold.Chemscore.Internal.Correction>
   9.000000E+99

> <Gold.Chemscore.Hbonds>
donor molecule, donor type, donor heavy atom, donor atom, acceptor molecule, acceptor atom, score
      L1  H    14    41       P1  8028  0.99

> <Gold.Chemscore.Hbond.Weighted>
-3.3064

> <Gold.Chemscore.Metal.Weighted>
-0.0000

> <Gold.Chemscore.Lipo.Weighted>
-14.6811

> <Gold.Chemscore.Internal_Hbond.Weighted>
0.0000

> <Gold.Chemscore.DEClash.Weighted>
0.0777

> <Gold.Chemscore.DEInternal.Weighted>
1.0282

> <Gold.Chemscore.Rot.Weighted>
6.6670

> <Gold.Chemscore.Internal.Correction.Weighted>
   9.000000E+99

> <Gold.Protein.RotatedTorsions>
[ 6907 6896 6895 6894 ] final    3.02 input  -60.11 | X-H torsion
[ 7974 7965 7964 7962 ] final   96.95 input  175.53 | X-H torsion
[ 8008 7997 7996 7995 ] final  178.99 input   59.86 | X-H torsion
[ 10167 10162 10161 10158 ] final  175.88 input  -65.29 | X-H torsion
[ 10718 10713 10712 10709 ] final  124.72 input   66.30 | X-H torsion
[ 10763 10752 10751 10750 ] final -133.57 input  -60.55 | X-H torsion
[ 11005 11000 10999 10996 ] final   24.05 input  -57.11 | X-H torsion

> <Gold.Protein.ActiveResidues>
 VAL166  LYS551  ARG553  GLY616  TRP617  ASP618  TYR619  PRO620  LYS621  CYS622 
 ASP623  PHE694  ASN695  SER759  ASP760  ASP761  ALA762  ILE779  LEU786  VAL792 
 PHE793  MET794  SER795  GLU796  ALA797  LYS798  CYS799  TRP800  GLU811  SER814 

> <Gold.Protein.RotatedAtoms>
  151.6183  135.1034  160.0095 H   0  0  0  0  0  0  0  0  0  0  0  0  # atno 6907 bound_to 6896
  152.4171  133.7052  159.6457 H   0  0  0  0  0  0  0  0  0  0  0  0  # atno 6908 bound_to 6896
  150.8059  133.8437  159.3227 H   0  0  0  0  0  0  0  0  0  0  0  0  # atno 6909 bound_to 6896
  145.4319  139.2309  143.3139 H   0  0  0  0  0  0  0  0  0  0  0  0  # atno 7974 bound_to 7965
  156.0485  140.1320  157.0077 H   0  0  0  0  0  0  0  0  0  0  0  0  # atno 8008 bound_to 7997
  154.4423  140.1016  156.6412 H   0  0  0  0  0  0  0  0  0  0  0  0  # atno 8009 bound_to 7997
  155.5560  140.3464  155.4482 H   0  0  0  0  0  0  0  0  0  0  0  0  # atno 8010 bound_to 7997
  139.5193  144.2980  152.0404 H   0  0  0  0  0  0  0  0  0  0  0  0  # atno 10167 bound_to 10162
  157.5562  131.1092  150.8618 H   0  0  0  0  0  0  0  0  0  0  0  0  # atno 10718 bound_to 10713
  154.8731  135.3762  154.4594 H   0  0  0  0  0  0  0  0  0  0  0  0  # atno 10763 bound_to 10752
  153.5263  135.7028  153.5710 H   0  0  0  0  0  0  0  0  0  0  0  0  # atno 10764 bound_to 10752
  153.3935  135.3966  155.1904 H   0  0  0  0  0  0  0  0  0  0  0  0  # atno 10765 bound_to 10752
  140.3629  134.2106  155.7671 H   0  0  0  0  0  0  0  0  0  0  0  0  # atno 11005 bound_to 11000
  146.2602  140.5057  142.8856 LP  0  0  0  0  0  0  0  0  0  0  0  0  # atno 17320 bound_to 7965
  144.8177  140.6496  143.6373 LP  0  0  0  0  0  0  0  0  0  0  0  0  # atno 17321 bound_to 7965
  140.2429  144.4251  150.6253 LP  0  0  0  0  0  0  0  0  0  0  0  0  # atno 17342 bound_to 10162
  140.6278  143.2183  151.6559 LP  0  0  0  0  0  0  0  0  0  0  0  0  # atno 17343 bound_to 10162
  156.9129  130.5287  149.5280 LP  0  0  0  0  0  0  0  0  0  0  0  0  # atno 17370 bound_to 10713
  156.0620  130.5671  150.9213 LP  0  0  0  0  0  0  0  0  0  0  0  0  # atno 17371 bound_to 10713
  141.1978  133.8049  157.0609 LP  0  0  0  0  0  0  0  0  0  0  0  0  # atno 17394 bound_to 11000
  140.0612  134.9753  157.1308 LP  0  0  0  0  0  0  0  0  0  0  0  0  # atno 17395 bound_to 11000

$$$$
