AV-unprocessed.smi:1675|AV-procd|sdf|6716|dock4
  -GOLD-   22720 7463D 1   1.00000     0.00000
 Structure written by MMmdl.
 40 42  0  0  0  0  0  0  0  0  1 V2000
  147.2687  137.7122  153.0388 N   0  0  0  0  0  0  0  0  0  0  0  0
  146.5904  138.6860  152.4264 C   0  0  0  0  0  0  0  0  0  0  0  0
  146.6059  138.8254  151.2046 O   0  0  0  0  0  0  0  0  0  0  0  0
  145.7864  139.6378  153.3181 C   0  0  0  0  0  0  0  0  0  0  0  0
  146.6407  140.6011  153.9926 N   0  0  0  0  0  0  0  0  0  0  0  0
  147.7723  140.3579  154.7474 C   0  0  0  0  0  0  0  0  0  0  0  0
  148.2136  141.5835  155.1593 C   0  0  0  0  0  0  0  0  0  0  0  0
  149.3335  141.9144  155.9636 N   0  0  0  0  0  0  0  0  0  0  0  0
  150.2862  141.0846  156.4244 C   0  0  0  0  0  0  0  0  0  0  0  0
  150.3110  139.8719  156.2159 O   0  0  0  0  0  0  0  0  0  0  0  0
  151.3792  141.7306  157.2820 C   0  0  0  0  0  0  0  0  0  0  0  0
  151.0609  143.1887  157.6860 C   0  0  1  0  0  0  0  0  0  0  0  0
  150.0937  143.3102  158.8837 C   0  0  0  0  0  0  0  0  0  0  0  0
  150.8065  144.3184  159.8046 C   0  0  1  0  0  0  0  0  0  0  0  0
  152.0048  143.6256  160.4780 C   0  0  0  0  0  0  0  0  0  0  0  0
  153.0097  143.4899  159.3198 C   0  0  0  0  0  0  0  0  0  0  0  0
  152.2412  144.0926  158.1255 C   0  0  2  0  0  0  0  0  0  0  0  0
  151.4965  145.2382  158.8037 C   0  0  0  0  0  0  0  0  0  0  0  0
  147.3038  142.5256  154.6132 C   0  0  0  0  0  0  0  0  0  0  0  0
  146.3582  141.9255  153.9067 N   0  0  0  0  0  0  0  0  0  0  0  0
  147.8142  137.0623  152.4912 H   0  0  0  0  0  0  0  0  0  0  0  0
  147.2365  137.6288  154.0443 H   0  0  0  0  0  0  0  0  0  0  0  0
  145.0508  140.1862  152.7280 H   0  0  0  0  0  0  0  0  0  0  0  0
  145.2357  139.0554  154.0583 H   0  0  0  0  0  0  0  0  0  0  0  0
  148.1431  139.3579  154.9172 H   0  0  0  0  0  0  0  0  0  0  0  0
  149.4233  142.8887  156.2134 H   0  0  0  0  0  0  0  0  0  0  0  0
  151.5262  141.1357  158.1848 H   0  0  0  0  0  0  0  0  0  0  0  0
  152.3236  141.6739  156.7410 H   0  0  0  0  0  0  0  0  0  0  0  0
  150.5844  143.6662  156.8276 H   0  0  0  0  0  0  0  0  0  0  0  0
  149.1275  143.6963  158.5565 H   0  0  0  0  0  0  0  0  0  0  0  0
  149.9149  142.3589  159.3863 H   0  0  0  0  0  0  0  0  0  0  0  0
  150.1389  144.8175  160.5074 H   0  0  0  0  0  0  0  0  0  0  0  0
  152.4181  144.2472  161.2734 H   0  0  0  0  0  0  0  0  0  0  0  0
  151.7363  142.6615  160.9115 H   0  0  0  0  0  0  0  0  0  0  0  0
  153.9050  144.0766  159.5281 H   0  0  0  0  0  0  0  0  0  0  0  0
  153.3298  142.4619  159.1553 H   0  0  0  0  0  0  0  0  0  0  0  0
  152.8863  144.4032  157.3032 H   0  0  0  0  0  0  0  0  0  0  0  0
  150.8010  145.7578  158.1422 H   0  0  0  0  0  0  0  0  0  0  0  0
  152.1580  145.9694  159.2722 H   0  0  0  0  0  0  0  0  0  0  0  0
  147.2978  143.6019  154.7031 H   0  0  0  0  0  0  0  0  0  0  0  0
  1  2  1  0  0  0  0
  1 21  1  0  0  0  0
  1 22  1  0  0  0  0
  2  3  2  0  0  0  0
  2  4  1  0  0  0  0
  4  5  1  0  0  0  0
  4 23  1  0  0  0  0
  4 24  1  0  0  0  0
  5 20  1  0  0  0  0
  5  6  1  0  0  0  0
  6  7  2  0  0  0  0
  6 25  1  0  0  0  0
  7  8  1  0  0  0  0
  7 19  1  0  0  0  0
  8  9  1  0  0  0  0
  8 26  1  0  0  0  0
  9 10  2  0  0  0  0
  9 11  1  0  0  0  0
 11 12  1  0  0  0  0
 11 27  1  0  0  0  0
 11 28  1  0  0  0  0
 12 17  1  0  0  0  0
 12 13  1  0  0  0  0
 12 29  1  0  0  0  0
 13 14  1  0  0  0  0
 13 30  1  0  0  0  0
 13 31  1  0  0  0  0
 14 18  1  0  0  0  0
 14 15  1  0  0  0  0
 14 32  1  0  0  0  0
 15 16  1  0  0  0  0
 15 33  1  0  0  0  0
 15 34  1  0  0  0  0
 16 17  1  0  0  0  0
 16 35  1  0  0  0  0
 16 36  1  0  0  0  0
 17 18  1  0  0  0  0
 17 37  1  0  0  0  0
 18 38  1  0  0  0  0
 18 39  1  0  0  0  0
 19 20  2  0  0  0  0
 19 40  1  0  0  0  0
M  END
> <s_m_source_file>
AV-unprocessed.smi

> <i_m_source_file_index>
1675

> <i_lp_mmshare_version>
43012

> <i_f3d_flags>
0

> <s_epik_input>
W05IMl1DKD1PKVtDSDJdbjFbY0hdYyhbY0hdbjEpW05IXUMoPU8pW0NIMl1bQ0BIXShbQ0gyXVtDQEBIXTIzKVtDQEBIXShbQ0gyXTMpW0NIMl1bQ0gyXTI=

> <s_epik_cmdline>
J2VwaWtfcHl0aG9uJywgJy1waCcsICc3LjAnLCAnLXRuJywgJzgnLCAnLW1hJywgJzIwMCcsICctbWV0YWxfYmluZGluZycsICctaW1hZScsICc8aW5maWxlLm1hZT4nLCAnLW9tYWUnLCAnPG91dGZpbGUubWFlPic=

> <r_lp_tautomer_probability>
1

> <r_epik_Ionization_Penalty>
2.17494e-05

> <r_epik_Ionization_Penalty_Charging>
0

> <r_epik_Ionization_Penalty_Neutral>
2.17494e-05

> <r_epik_State_Penalty>
-0

> <r_epik_Charging_Adjusted_Penalty>
0

> <i_epik_Tot_Q>
0

> <i_epik_Tot_abs_Q>
0

> <r_epik_Metal_State_Penalty>
-0

> <b_epik_Metal_Only>
0

> <s_lp_Force_Field>
OPLS_2005

> <r_lp_Energy>
53.8381

> <b_lp_Chiralities_Consistent>
1

> <s_lp_Variant>
AV-unprocessed.smi:1675-2

> <Gold.Version>
5.8.1

> <Gold.Id.Protein>
6NUR|6NUR_protein|mol2

> <Gold.PLP.Fitness>
46.1364

> <Gold.PLP.PLP>
-35.9819

> <Gold.PLP.part.hbond>
-2.8874

> <Gold.PLP.part.metal>
0.0000

> <Gold.PLP.part.buried>
0.7354

> <Gold.PLP.part.nonpolar>
-35.7068

> <Gold.PLP.part.repulsive>
1.1629

> <Gold.PLP.ligand.clash>
0.0000

> <Gold.PLP.ligand.torsion>
0.5849

> <Gold.PLP.Chemscore.Hbond>
2.8303

> <Gold.PLP.Chemscore.CHOScore>
0.9285

> <Gold.PLP.Chemscore.Metal>
0.0000

> <Gold.Chemscore.Hbonds>
donor molecule, donor type, donor heavy atom, donor atom, acceptor molecule, acceptor atom, score
      L1  H     1    21       P1  7948  1.00
      L1  H     8    26       P1  8028  0.85
      P1  H  7954  7966       L1     3  0.45
      L1  C    19    40       P1  8028  0.59

> <Gold.PLP.Chemscore.Internal.Correction>
0.0480

> <Gold.Rescore>
     Score         DG    S(hbond)    S(metal)    S(lipo)     H(rot)  DE(clash)    DE(int)     intcor
     16.77     -21.06       2.55        0.00     107.38       2.15       2.86       1.43       ----

> <Gold.Chemscore.Fitness>
16.7720

> <Gold.Chemscore.DG>
-21.0643

> <Gold.Chemscore.ZeroCoef>
-5.4800

> <Gold.Chemscore.Hbond>
2.5512

> <Gold.Chemscore.Metal>
0.0000

> <Gold.Chemscore.Lipo>
107.3822

> <Gold.Chemscore.Internal_Hbond>
0.0000

> <Gold.Chemscore.DEClash>
2.8587

> <Gold.Chemscore.DEInternal>
1.4336

> <Gold.Chemscore.Rot>
2.1486

> <Gold.Chemscore.Internal.Correction>
   9.000000E+99

> <Gold.Chemscore.Hbonds>
donor molecule, donor type, donor heavy atom, donor atom, acceptor molecule, acceptor atom, score
      L1  H     1    21       P1  7948  0.93
      L1  H     8    26       P1  8028  0.83
      P1  H  7954  7966       L1     3  0.42

> <Gold.Chemscore.Hbond.Weighted>
-8.5210

> <Gold.Chemscore.Metal.Weighted>
-0.0000

> <Gold.Chemscore.Lipo.Weighted>
-12.5637

> <Gold.Chemscore.Internal_Hbond.Weighted>
0.0000

> <Gold.Chemscore.DEClash.Weighted>
2.8587

> <Gold.Chemscore.DEInternal.Weighted>
1.4336

> <Gold.Chemscore.Rot.Weighted>
5.5004

> <Gold.Chemscore.Internal.Correction.Weighted>
   9.000000E+99

> <Gold.Protein.RotatedTorsions>
[ 6907 6896 6895 6894 ] final   56.29 input  -60.11 | X-H torsion
[ 7974 7965 7964 7962 ] final  -78.76 input  175.53 | X-H torsion
[ 8008 7997 7996 7995 ] final  112.09 input   59.86 | X-H torsion
[ 10167 10162 10161 10158 ] final   43.63 input  -65.29 | X-H torsion
[ 10718 10713 10712 10709 ] final   83.46 input   66.30 | X-H torsion
[ 10763 10752 10751 10750 ] final  178.70 input  -60.55 | X-H torsion
[ 11005 11000 10999 10996 ] final   98.22 input  -57.11 | X-H torsion

> <Gold.Protein.ActiveResidues>
 VAL166  LYS551  ARG553  GLY616  TRP617  ASP618  TYR619  PRO620  LYS621  CYS622 
 ASP623  PHE694  ASN695  SER759  ASP760  ASP761  ALA762  ILE779  LEU786  VAL792 
 PHE793  MET794  SER795  GLU796  ALA797  LYS798  CYS799  TRP800  GLU811  SER814 

> <Gold.Protein.RotatedAtoms>
  152.3621  134.6856  160.0203 H   0  0  0  0  0  0  0  0  0  0  0  0  # atno 6907 bound_to 6896
  151.7176  133.3308  159.3315 H   0  0  0  0  0  0  0  0  0  0  0  0  # atno 6908 bound_to 6896
  150.7612  134.6411  159.6282 H   0  0  0  0  0  0  0  0  0  0  0  0  # atno 6909 bound_to 6896
  145.5821  140.9446  143.1338 H   0  0  0  0  0  0  0  0  0  0  0  0  # atno 7974 bound_to 7965
  156.2169  140.3006  155.9860 H   0  0  0  0  0  0  0  0  0  0  0  0  # atno 8008 bound_to 7997
  155.2583  140.0428  157.3011 H   0  0  0  0  0  0  0  0  0  0  0  0  # atno 8009 bound_to 7997
  154.5781  140.2367  155.8102 H   0  0  0  0  0  0  0  0  0  0  0  0  # atno 8010 bound_to 7997
  140.3424  144.2453  150.6154 H   0  0  0  0  0  0  0  0  0  0  0  0  # atno 10167 bound_to 10162
  157.6879  131.0091  150.2526 H   0  0  0  0  0  0  0  0  0  0  0  0  # atno 10718 bound_to 10713
  154.5111  135.2788  155.1341 H   0  0  0  0  0  0  0  0  0  0  0  0  # atno 10763 bound_to 10752
  154.2936  135.6262  153.5399 H   0  0  0  0  0  0  0  0  0  0  0  0  # atno 10764 bound_to 10752
  152.9919  135.5680  154.5577 H   0  0  0  0  0  0  0  0  0  0  0  0  # atno 10765 bound_to 10752
  139.8773  134.9039  156.4424 H   0  0  0  0  0  0  0  0  0  0  0  0  # atno 11005 bound_to 11000
  144.7389  139.7506  143.7318 LP  0  0  0  0  0  0  0  0  0  0  0  0  # atno 17320 bound_to 7965
  146.1708  139.4858  142.9928 LP  0  0  0  0  0  0  0  0  0  0  0  0  # atno 17321 bound_to 7965
  140.5296  143.2246  151.8260 LP  0  0  0  0  0  0  0  0  0  0  0  0  # atno 17342 bound_to 10162
  139.4838  144.4737  151.9394 LP  0  0  0  0  0  0  0  0  0  0  0  0  # atno 17343 bound_to 10162
  156.3120  130.3773  149.7653 LP  0  0  0  0  0  0  0  0  0  0  0  0  # atno 17370 bound_to 10713
  156.5250  130.8232  151.3217 LP  0  0  0  0  0  0  0  0  0  0  0  0  # atno 17371 bound_to 10713
  140.8990  133.7793  155.9658 LP  0  0  0  0  0  0  0  0  0  0  0  0  # atno 17394 bound_to 11000
  140.8672  134.2770  157.5208 LP  0  0  0  0  0  0  0  0  0  0  0  0  # atno 17395 bound_to 11000

$$$$
