AV-unprocessed.smi:662|AV-procd|sdf|3245|dock8
  -GOLD-   22720 0193D 1   1.00000     0.00000
 Structure written by MMmdl.
 33 34  0  0  0  0  0  0  0  0  1 V2000
  146.4917  139.6388  154.8401 O   0  0  0  0  0  0  0  0  0  0  0  0
  147.4132  139.8612  154.0537 C   0  0  0  0  0  0  0  0  0  0  0  0
  147.4820  139.3163  152.8295 N   0  0  0  0  0  0  0  0  0  0  0  0
  146.5037  138.3925  152.2676 C   0  0  0  0  0  0  0  0  0  0  0  0
  146.3211  137.1502  153.1549 C   0  0  0  0  0  0  0  0  0  0  0  0
  145.4734  136.1076  152.5078 C   0  0  0  0  0  0  0  0  0  0  0  0
  145.9303  134.9068  152.1433 N   0  0  0  0  0  0  0  0  0  0  0  0
  144.9514  134.1181  151.5289 C   0  0  0  0  0  0  0  0  0  0  0  0
  145.2914  132.7292  151.0715 C   0  0  0  0  0  0  0  0  0  0  0  0
  144.2525  132.1388  150.4804 F   0  0  0  0  0  0  0  0  0  0  0  0
  146.2963  132.7433  150.1960 F   0  0  0  0  0  0  0  0  0  0  0  0
  145.6581  131.9629  152.0982 F   0  0  0  0  0  0  0  0  0  0  0  0
  143.7389  134.7552  151.4215 C   0  0  0  0  0  0  0  0  0  0  0  0
  143.7849  136.3647  152.0865 S   0  0  0  0  0  0  0  0  0  0  0  0
  148.5617  140.7975  154.4480 C   0  0  2  0  0  0  0  0  0  0  0  0
  149.9351  140.1086  154.3904 C   0  0  0  0  0  0  0  0  0  0  0  0
  150.5744  140.4396  155.7335 C   0  0  0  0  0  0  0  0  0  0  0  0
  149.7568  141.6212  156.2508 C   0  0  0  0  0  0  0  0  0  0  0  0
  148.4056  141.3125  155.8144 N   0  0  0  0  0  0  0  0  0  0  0  0
  148.2713  139.5557  152.2473 H   0  0  0  0  0  0  0  0  0  0  0  0
  145.5501  138.9033  152.1222 H   0  0  0  0  0  0  0  0  0  0  0  0
  146.8503  138.0943  151.2777 H   0  0  0  0  0  0  0  0  0  0  0  0
  147.2917  136.7139  153.3952 H   0  0  0  0  0  0  0  0  0  0  0  0
  145.8596  137.4240  154.1042 H   0  0  0  0  0  0  0  0  0  0  0  0
  142.8239  134.3763  150.9907 H   0  0  0  0  0  0  0  0  0  0  0  0
  148.5778  141.6545  153.7717 H   0  0  0  0  0  0  0  0  0  0  0  0
  149.8774  139.0285  154.2436 H   0  0  0  0  0  0  0  0  0  0  0  0
  150.5256  140.5187  153.5704 H   0  0  0  0  0  0  0  0  0  0  0  0
  150.4692  139.5923  156.4126 H   0  0  0  0  0  0  0  0  0  0  0  0
  151.6369  140.6692  155.6479 H   0  0  0  0  0  0  0  0  0  0  0  0
  149.8150  141.7349  157.3336 H   0  0  0  0  0  0  0  0  0  0  0  0
  150.0863  142.5528  155.7878 H   0  0  0  0  0  0  0  0  0  0  0  0
  147.8010  142.1199  155.8651 H   0  0  0  0  0  0  0  0  0  0  0  0
  1  2  2  0  0  0  0
  2  3  1  0  0  0  0
  2 15  1  0  0  0  0
  3  4  1  0  0  0  0
  3 20  1  0  0  0  0
  4  5  1  0  0  0  0
  4 21  1  0  0  0  0
  4 22  1  0  0  0  0
  5  6  1  0  0  0  0
  5 23  1  0  0  0  0
  5 24  1  0  0  0  0
  6 14  1  0  0  0  0
  6  7  2  0  0  0  0
  7  8  1  0  0  0  0
  8  9  1  0  0  0  0
  8 13  2  0  0  0  0
  9 10  1  0  0  0  0
  9 11  1  0  0  0  0
  9 12  1  0  0  0  0
 13 14  1  0  0  0  0
 13 25  1  0  0  0  0
 15 19  1  0  0  0  0
 15 16  1  0  0  0  0
 15 26  1  0  0  0  0
 16 17  1  0  0  0  0
 16 27  1  0  0  0  0
 16 28  1  0  0  0  0
 17 18  1  0  0  0  0
 17 29  1  0  0  0  0
 17 30  1  0  0  0  0
 18 19  1  0  0  0  0
 18 31  1  0  0  0  0
 18 32  1  0  0  0  0
 19 33  1  0  0  0  0
M  END
> <s_m_source_file>
AV-unprocessed.smi

> <i_m_source_file_index>
662

> <i_lp_mmshare_version>
43012

> <i_f3d_flags>
0

> <s_epik_input>
W05IXTFbQ0gyXVtDSDJdW0NIMl1bQ0BIXTFDKD1PKVtOSF1bQ0gyXVtDSDJdYzJuYyhDKEYpKEYpRilbY0hdczI=

> <s_epik_cmdline>
J2VwaWtfcHl0aG9uJywgJy1waCcsICc3LjAnLCAnLXRuJywgJzgnLCAnLW1hJywgJzIwMCcsICctbWV0YWxfYmluZGluZycsICctaW1hZScsICc8aW5maWxlLm1hZT4nLCAnLW9tYWUnLCAnPG91dGZpbGUubWFlPic=

> <r_epik_Ionization_Penalty>
1.64272

> <r_epik_Ionization_Penalty_Charging>
0

> <r_epik_Ionization_Penalty_Neutral>
1.64272

> <r_epik_State_Penalty>
1.74416

> <r_epik_Charging_Adjusted_Penalty>
1.74416

> <i_epik_Tot_Q>
0

> <i_epik_Tot_abs_Q>
0

> <r_epik_Metal_State_Penalty>
1.74416

> <b_epik_Metal_Only>
0

> <s_lp_Force_Field>
OPLS_2005

> <r_lp_Energy>
16.594

> <b_lp_Chiralities_Consistent>
1

> <s_lp_Variant>
AV-unprocessed.smi:662-3

> <Gold.Version>
5.8.1

> <Gold.Id.Protein>
6NUR|6NUR_protein|mol2

> <Gold.PLP.Fitness>
37.7867

> <Gold.PLP.PLP>
-31.8703

> <Gold.PLP.part.hbond>
-1.0000

> <Gold.PLP.part.metal>
0.0000

> <Gold.PLP.part.buried>
-1.0199

> <Gold.PLP.part.nonpolar>
-29.5899

> <Gold.PLP.part.repulsive>
0.2397

> <Gold.PLP.ligand.clash>
0.0000

> <Gold.PLP.ligand.torsion>
0.0550

> <Gold.PLP.Chemscore.Hbond>
1.0000

> <Gold.PLP.Chemscore.CHOScore>
1.0000

> <Gold.PLP.Chemscore.Metal>
0.0000

> <Gold.Chemscore.Hbonds>
donor molecule, donor type, donor heavy atom, donor atom, acceptor molecule, acceptor atom, score
      L1  H     3    20       P1  7957  1.00
      L1  C    13    25       P1 10186  1.00

> <Gold.PLP.Chemscore.Internal.Correction>
0.0263

> <Gold.Rescore>
     Score         DG    S(hbond)    S(metal)    S(lipo)     H(rot)  DE(clash)    DE(int)     intcor
     10.54     -11.34       1.00        0.00      63.35       1.91       0.78       0.03       ----

> <Gold.Chemscore.Fitness>
10.5381

> <Gold.Chemscore.DG>
-11.3424

> <Gold.Chemscore.ZeroCoef>
-5.4800

> <Gold.Chemscore.Hbond>
0.9997

> <Gold.Chemscore.Metal>
0.0000

> <Gold.Chemscore.Lipo>
63.3485

> <Gold.Chemscore.Internal_Hbond>
0.0000

> <Gold.Chemscore.DEClash>
0.7759

> <Gold.Chemscore.DEInternal>
0.0284

> <Gold.Chemscore.Rot>
1.9095

> <Gold.Chemscore.Internal.Correction>
   9.000000E+99

> <Gold.Chemscore.Hbonds>
donor molecule, donor type, donor heavy atom, donor atom, acceptor molecule, acceptor atom, score
      L1  H     3    20       P1  7957  1.00

> <Gold.Chemscore.Hbond.Weighted>
-3.3390

> <Gold.Chemscore.Metal.Weighted>
-0.0000

> <Gold.Chemscore.Lipo.Weighted>
-7.4118

> <Gold.Chemscore.Internal_Hbond.Weighted>
0.0000

> <Gold.Chemscore.DEClash.Weighted>
0.7759

> <Gold.Chemscore.DEInternal.Weighted>
0.0284

> <Gold.Chemscore.Rot.Weighted>
4.8883

> <Gold.Chemscore.Internal.Correction.Weighted>
   9.000000E+99

> <Gold.Protein.RotatedTorsions>
[ 6907 6896 6895 6894 ] final  -93.95 input  -60.11 | X-H torsion
[ 7974 7965 7964 7962 ] final -110.17 input  175.53 | X-H torsion
[ 8008 7997 7996 7995 ] final -165.37 input   59.86 | X-H torsion
[ 10167 10162 10161 10158 ] final  -19.28 input  -65.29 | X-H torsion
[ 10718 10713 10712 10709 ] final   12.54 input   66.30 | X-H torsion
[ 10763 10752 10751 10750 ] final -173.32 input  -60.55 | X-H torsion
[ 11005 11000 10999 10996 ] final  162.28 input  -57.11 | X-H torsion

> <Gold.Protein.ActiveResidues>
 VAL166  LYS551  ARG553  GLY616  TRP617  ASP618  TYR619  PRO620  LYS621  CYS622 
 ASP623  PHE694  ASN695  SER759  ASP760  ASP761  ALA762  ILE779  LEU786  VAL792 
 PHE793  MET794  SER795  GLU796  ALA797  LYS798  CYS799  TRP800  GLU811  SER814 

> <Gold.Protein.RotatedAtoms>
  150.6932  134.1888  159.4276 H   0  0  0  0  0  0  0  0  0  0  0  0  # atno 6907 bound_to 6896
  151.9859  135.0002  160.0569 H   0  0  0  0  0  0  0  0  0  0  0  0  # atno 6908 bound_to 6896
  152.1712  133.4610  159.4947 H   0  0  0  0  0  0  0  0  0  0  0  0  # atno 6909 bound_to 6896
  145.1715  140.8928  143.3532 H   0  0  0  0  0  0  0  0  0  0  0  0  # atno 7974 bound_to 7965
  155.8489  140.0960  157.1687 H   0  0  0  0  0  0  0  0  0  0  0  0  # atno 8008 bound_to 7997
  154.3984  140.1387  156.3881 H   0  0  0  0  0  0  0  0  0  0  0  0  # atno 8009 bound_to 7997
  155.7983  140.3453  155.5391 H   0  0  0  0  0  0  0  0  0  0  0  0  # atno 8010 bound_to 7997
  140.7267  143.4834  151.0087 H   0  0  0  0  0  0  0  0  0  0  0  0  # atno 10167 bound_to 10162
  157.0117  130.6119  149.5709 H   0  0  0  0  0  0  0  0  0  0  0  0  # atno 10718 bound_to 10713
  154.6092  135.2862  155.0451 H   0  0  0  0  0  0  0  0  0  0  0  0  # atno 10763 bound_to 10752
  154.1687  135.6476  153.5008 H   0  0  0  0  0  0  0  0  0  0  0  0  # atno 10764 bound_to 10752
  153.0188  135.5395  154.6839 H   0  0  0  0  0  0  0  0  0  0  0  0  # atno 10765 bound_to 10752
  140.2241  134.8173  157.3251 H   0  0  0  0  0  0  0  0  0  0  0  0  # atno 11005 bound_to 11000
  145.0228  139.3409  143.6064 LP  0  0  0  0  0  0  0  0  0  0  0  0  # atno 17320 bound_to 7965
  146.3468  139.9535  142.8726 LP  0  0  0  0  0  0  0  0  0  0  0  0  # atno 17321 bound_to 7965
  139.8534  143.7408  152.3177 LP  0  0  0  0  0  0  0  0  0  0  0  0  # atno 17342 bound_to 10162
  139.7598  144.7510  151.0380 LP  0  0  0  0  0  0  0  0  0  0  0  0  # atno 17343 bound_to 10162
  156.0134  130.5227  150.8059 LP  0  0  0  0  0  0  0  0  0  0  0  0  # atno 17370 bound_to 10713
  157.5316  131.0937  150.9948 LP  0  0  0  0  0  0  0  0  0  0  0  0  # atno 17371 bound_to 10713
  140.1818  134.4480  155.7767 LP  0  0  0  0  0  0  0  0  0  0  0  0  # atno 17394 bound_to 11000
  141.2221  133.6987  156.7882 LP  0  0  0  0  0  0  0  0  0  0  0  0  # atno 17395 bound_to 11000

$$$$
