AV-unprocessed.smi:519|AV-procd|sdf|2795|dock6
  -GOLD-   2262023273D 1   1.00000     0.00000
 Structure written by MMmdl.
 36 38  0  0  0  0  0  0  0  0  1 V2000
  153.2561  139.1197  157.0912 O   0  0  0  0  0  0  0  0  0  0  0  0
  151.9999  139.4557  157.6455 C   0  0  0  0  0  0  0  0  0  0  0  0
  152.0367  140.6392  158.5702 C   0  0  0  0  0  0  0  0  0  0  0  0
  152.7944  140.6835  159.6686 N   0  0  0  0  0  0  0  0  0  0  0  0
  152.5149  141.9339  160.1835 C   0  0  0  0  0  0  0  0  0  0  0  0
  153.0008  142.5790  161.3433 C   0  0  0  0  0  0  0  0  0  0  0  0
  152.5645  143.8790  161.6724 C   0  0  0  0  0  0  0  0  0  0  0  0
  151.6402  144.5518  160.8473 C   0  0  0  0  0  0  0  0  0  0  0  0
  151.1452  143.9275  159.6865 C   0  0  0  0  0  0  0  0  0  0  0  0
  151.5813  142.6285  159.3643 C   0  0  0  0  0  0  0  0  0  0  0  0
  151.2932  141.7475  158.3264 N   0  0  0  0  0  0  0  0  0  0  0  0
  150.3752  141.9880  157.2222 C   0  0  0  0  0  0  0  0  0  0  0  0
  151.0784  141.9152  155.8587 C   0  0  0  0  0  0  0  0  0  0  0  0
  150.8064  140.6578  155.2532 O   0  0  0  0  0  0  0  0  0  0  0  0
  149.6143  140.4937  154.5793 C   0  0  0  0  0  0  0  0  0  0  0  0
  148.6980  141.5466  154.3268 C   0  0  0  0  0  0  0  0  0  0  0  0
  147.4978  141.2994  153.6327 C   0  0  0  0  0  0  0  0  0  0  0  0
  147.1955  140.0011  153.1839 C   0  0  0  0  0  0  0  0  0  0  0  0
  148.0973  138.9495  153.4282 C   0  0  0  0  0  0  0  0  0  0  0  0
  149.3000  139.1944  154.1201 C   0  0  0  0  0  0  0  0  0  0  0  0
  150.3909  137.8848  154.4018 Cl  0  0  0  0  0  0  0  0  0  0  0  0
  153.3240  138.1785  157.0482 H   0  0  0  0  0  0  0  0  0  0  0  0
  151.3066  139.6648  156.8303 H   0  0  0  0  0  0  0  0  0  0  0  0
  151.6204  138.5876  158.1845 H   0  0  0  0  0  0  0  0  0  0  0  0
  153.7092  142.0718  161.9813 H   0  0  0  0  0  0  0  0  0  0  0  0
  152.9403  144.3619  162.5625 H   0  0  0  0  0  0  0  0  0  0  0  0
  151.3088  145.5465  161.1073 H   0  0  0  0  0  0  0  0  0  0  0  0
  150.4328  144.4382  159.0558 H   0  0  0  0  0  0  0  0  0  0  0  0
  149.5766  141.2468  157.2686 H   0  0  0  0  0  0  0  0  0  0  0  0
  149.8967  142.9584  157.3529 H   0  0  0  0  0  0  0  0  0  0  0  0
  150.7176  142.7243  155.2224 H   0  0  0  0  0  0  0  0  0  0  0  0
  152.1536  142.0439  155.9914 H   0  0  0  0  0  0  0  0  0  0  0  0
  148.8916  142.5560  154.6561 H   0  0  0  0  0  0  0  0  0  0  0  0
  146.8074  142.1089  153.4454 H   0  0  0  0  0  0  0  0  0  0  0  0
  146.2741  139.8122  152.6529 H   0  0  0  0  0  0  0  0  0  0  0  0
  147.8656  137.9526  153.0834 H   0  0  0  0  0  0  0  0  0  0  0  0
  1  2  1  0  0  0  0
  1 22  1  0  0  0  0
  2  3  1  0  0  0  0
  2 23  1  0  0  0  0
  2 24  1  0  0  0  0
  3 11  1  0  0  0  0
  3  4  2  0  0  0  0
  4  5  1  0  0  0  0
  5 10  2  0  0  0  0
  5  6  1  0  0  0  0
  6  7  2  0  0  0  0
  6 25  1  0  0  0  0
  7  8  1  0  0  0  0
  7 26  1  0  0  0  0
  8  9  2  0  0  0  0
  8 27  1  0  0  0  0
  9 10  1  0  0  0  0
  9 28  1  0  0  0  0
 10 11  1  0  0  0  0
 11 12  1  0  0  0  0
 12 13  1  0  0  0  0
 12 29  1  0  0  0  0
 12 30  1  0  0  0  0
 13 14  1  0  0  0  0
 13 31  1  0  0  0  0
 13 32  1  0  0  0  0
 14 15  1  0  0  0  0
 15 20  1  0  0  0  0
 15 16  2  0  0  0  0
 16 17  1  0  0  0  0
 16 33  1  0  0  0  0
 17 18  2  0  0  0  0
 17 34  1  0  0  0  0
 18 19  1  0  0  0  0
 18 35  1  0  0  0  0
 19 20  2  0  0  0  0
 19 36  1  0  0  0  0
 20 21  1  0  0  0  0
M  END
> <s_m_source_file>
AV-unprocessed.smi

> <i_m_source_file_index>
519

> <i_lp_mmshare_version>
43012

> <i_f3d_flags>
0

> <s_epik_input>
W2NIXTFbY0hdW2NIXVtjSF1jKGMxMiluKGMobjIpW0NIMl1bT0hdKVtDSDJdW0NIMl1PYzNbY0hdW2NIXVtjSF1bY0hdYzNDbA==

> <s_epik_cmdline>
J2VwaWtfcHl0aG9uJywgJy1waCcsICc3LjAnLCAnLXRuJywgJzgnLCAnLW1hJywgJzIwMCcsICctbWV0YWxfYmluZGluZycsICctaW1hZScsICc8aW5maWxlLm1hZT4nLCAnLW9tYWUnLCAnPG91dGZpbGUubWFlPic=

> <r_lp_tautomer_probability>
1

> <r_epik_Ionization_Penalty>
0.045213

> <r_epik_Ionization_Penalty_Charging>
0

> <r_epik_Ionization_Penalty_Neutral>
0.045213

> <r_epik_State_Penalty>
0.0382996

> <r_epik_Charging_Adjusted_Penalty>
0.0382996

> <i_epik_Tot_Q>
0

> <i_epik_Tot_abs_Q>
0

> <r_epik_Metal_State_Penalty>
3.95633e-05

> <b_epik_Metal_Only>
0

> <s_lp_Force_Field>
OPLS_2005

> <r_lp_Energy>
15.9183

> <b_lp_Chiralities_Consistent>
1

> <s_lp_Variant>
AV-unprocessed.smi:519-1

> <Gold.Version>
5.8.1

> <Gold.Id.Protein>
6NUR|6NUR_protein|mol2

> <Gold.PLP.Fitness>
49.8629

> <Gold.PLP.PLP>
-46.3964

> <Gold.PLP.part.hbond>
-2.0000

> <Gold.PLP.part.metal>
0.0000

> <Gold.PLP.part.buried>
-3.5671

> <Gold.PLP.part.nonpolar>
-38.9687

> <Gold.PLP.part.repulsive>
0.0619

> <Gold.PLP.ligand.clash>
0.0000

> <Gold.PLP.ligand.torsion>
0.4514

> <Gold.PLP.Chemscore.Hbond>
1.4400

> <Gold.PLP.Chemscore.CHOScore>
0.0000

> <Gold.PLP.Chemscore.Metal>
0.0000

> <Gold.Chemscore.Hbonds>
donor molecule, donor type, donor heavy atom, donor atom, acceptor molecule, acceptor atom, score
      P1  H  7989  7998       L1    14  0.32
      P1  H  7997  8008       L1     1  1.00

> <Gold.PLP.Chemscore.Internal.Correction>
0.0492

> <Gold.Rescore>
     Score         DG    S(hbond)    S(metal)    S(lipo)     H(rot)  DE(clash)    DE(int)     intcor
     16.57     -18.57       0.97        0.00     131.77       2.17       0.25       1.75       ----

> <Gold.Chemscore.Fitness>
16.5705

> <Gold.Chemscore.DG>
-18.5730

> <Gold.Chemscore.ZeroCoef>
-5.4800

> <Gold.Chemscore.Hbond>
0.9700

> <Gold.Chemscore.Metal>
0.0000

> <Gold.Chemscore.Lipo>
131.7739

> <Gold.Chemscore.Internal_Hbond>
0.0000

> <Gold.Chemscore.DEClash>
0.2515

> <Gold.Chemscore.DEInternal>
1.7511

> <Gold.Chemscore.Rot>
2.1735

> <Gold.Chemscore.Internal.Correction>
   9.000000E+99

> <Gold.Chemscore.Hbonds>
donor molecule, donor type, donor heavy atom, donor atom, acceptor molecule, acceptor atom, score
      P1  H  7997  8008       L1     1  0.91

> <Gold.Chemscore.Hbond.Weighted>
-3.2397

> <Gold.Chemscore.Metal.Weighted>
-0.0000

> <Gold.Chemscore.Lipo.Weighted>
-15.4175

> <Gold.Chemscore.Internal_Hbond.Weighted>
0.0000

> <Gold.Chemscore.DEClash.Weighted>
0.2515

> <Gold.Chemscore.DEInternal.Weighted>
1.7511

> <Gold.Chemscore.Rot.Weighted>
5.5642

> <Gold.Chemscore.Internal.Correction.Weighted>
   9.000000E+99

> <Gold.Protein.RotatedTorsions>
[ 6907 6896 6895 6894 ] final  175.04 input  -60.11 | X-H torsion
[ 7974 7965 7964 7962 ] final   46.40 input  175.53 | X-H torsion
[ 8008 7997 7996 7995 ] final  -84.76 input   59.86 | X-H torsion
[ 10167 10162 10161 10158 ] final  -50.87 input  -65.29 | X-H torsion
[ 10718 10713 10712 10709 ] final  110.55 input   66.30 | X-H torsion
[ 10763 10752 10751 10750 ] final -106.21 input  -60.55 | X-H torsion
[ 11005 11000 10999 10996 ] final -164.19 input  -57.11 | X-H torsion

> <Gold.Protein.ActiveResidues>
 VAL166  LYS551  ARG553  GLY616  TRP617  ASP618  TYR619  PRO620  LYS621  CYS622 
 ASP623  PHE694  ASN695  SER759  ASP760  ASP761  ALA762  ILE779  LEU786  VAL792 
 PHE793  MET794  SER795  GLU796  ALA797  LYS798  CYS799  TRP800  GLU811  SER814 

> <Gold.Protein.RotatedAtoms>
  151.7425  133.3323  159.3369 H   0  0  0  0  0  0  0  0  0  0  0  0  # atno 6907 bound_to 6896
  150.7567  134.6265  159.6173 H   0  0  0  0  0  0  0  0  0  0  0  0  # atno 6908 bound_to 6896
  152.3521  134.6993  160.0285 H   0  0  0  0  0  0  0  0  0  0  0  0  # atno 6909 bound_to 6896
  146.0393  139.4859  142.9788 H   0  0  0  0  0  0  0  0  0  0  0  0  # atno 7974 bound_to 7965
  154.6333  140.0600  156.9758 H   0  0  0  0  0  0  0  0  0  0  0  0  # atno 8008 bound_to 7997
  155.1631  140.3284  155.4389 H   0  0  0  0  0  0  0  0  0  0  0  0  # atno 8009 bound_to 7997
  156.2494  140.1927  156.6737 H   0  0  0  0  0  0  0  0  0  0  0  0  # atno 8010 bound_to 7997
  140.6616  143.2641  151.4422 H   0  0  0  0  0  0  0  0  0  0  0  0  # atno 10167 bound_to 10162
  157.6489  131.0935  150.6618 H   0  0  0  0  0  0  0  0  0  0  0  0  # atno 10718 bound_to 10713
  154.7998  135.4720  154.0247 H   0  0  0  0  0  0  0  0  0  0  0  0  # atno 10763 bound_to 10752
  153.1762  135.6833  153.8547 H   0  0  0  0  0  0  0  0  0  0  0  0  # atno 10764 bound_to 10752
  153.8113  135.3216  155.3378 H   0  0  0  0  0  0  0  0  0  0  0  0  # atno 10765 bound_to 10752
  140.5897  134.5057  157.5191 H   0  0  0  0  0  0  0  0  0  0  0  0  # atno 11005 bound_to 11000
  145.6912  141.0164  143.1554 LP  0  0  0  0  0  0  0  0  0  0  0  0  # atno 17320 bound_to 7965
  144.7066  139.8534  143.7428 LP  0  0  0  0  0  0  0  0  0  0  0  0  # atno 17321 bound_to 7965
  139.5852  144.1621  152.2019 LP  0  0  0  0  0  0  0  0  0  0  0  0  # atno 17342 bound_to 10162
  140.0958  144.5582  150.7023 LP  0  0  0  0  0  0  0  0  0  0  0  0  # atno 17343 bound_to 10162
  156.6932  130.4601  149.5594 LP  0  0  0  0  0  0  0  0  0  0  0  0  # atno 17370 bound_to 10713
  156.1847  130.6521  151.0993 LP  0  0  0  0  0  0  0  0  0  0  0  0  # atno 17371 bound_to 10713
  139.9280  134.8019  156.1013 LP  0  0  0  0  0  0  0  0  0  0  0  0  # atno 17394 bound_to 11000
  141.0943  133.6702  156.2610 LP  0  0  0  0  0  0  0  0  0  0  0  0  # atno 17395 bound_to 11000

$$$$
