AV-unprocessed.smi:1671|AV-procd|sdf|6697|dock6
  -GOLD-   22720 7433D 1   1.00000     0.00000
 Structure written by MMmdl.
 44 45  0  0  0  0  0  0  0  0  1 V2000
  150.4272  132.3490  155.1752 C   0  0  0  0  0  0  0  0  0  0  0  0
  149.9560  133.9806  154.5376 S   0  0  0  0  0  0  0  0  0  0  0  0
  150.8271  135.0766  155.6978 C   0  0  2  0  0  0  0  0  0  0  0  0
  150.0855  135.1244  157.0434 C   0  0  0  0  0  0  0  0  0  0  0  0
  151.0203  136.4824  155.1156 C   0  0  0  0  0  0  0  0  0  0  0  0
  152.1511  136.9097  154.8806 O   0  0  0  0  0  0  0  0  0  0  0  0
  149.9041  137.1991  154.9081 N   0  0  0  0  0  0  0  0  0  0  0  0
  149.8521  138.5743  154.4217 C   0  0  0  0  0  0  0  0  0  0  0  0
  150.4124  139.5844  155.4112 C   0  0  0  0  0  0  0  0  0  0  0  0
  151.6542  139.3595  156.0372 C   0  0  0  0  0  0  0  0  0  0  0  0
  152.1456  140.3148  156.9471 C   0  0  0  0  0  0  0  0  0  0  0  0
  151.3777  141.4731  157.2155 C   0  0  0  0  0  0  0  0  0  0  0  0
  151.8519  142.4470  158.1214 N   0  0  0  0  0  0  0  0  0  0  0  0
  151.1575  143.7321  158.1727 C   0  0  0  0  0  0  0  0  0  0  0  0
  151.9768  144.7515  158.9810 C   0  0  0  0  0  0  0  0  0  0  0  0
  152.2591  144.2228  160.2722 O   0  0  0  0  0  0  0  0  0  0  0  0
  153.0359  143.0300  160.2056 C   0  0  1  0  0  0  0  0  0  0  0  0
  153.3671  142.5914  161.6358 C   0  0  0  0  0  0  0  0  0  0  0  0
  152.2472  141.9515  159.4375 C   0  0  0  0  0  0  0  0  0  0  0  0
  150.1814  141.6846  156.6127 N   0  0  0  0  0  0  0  0  0  0  0  0
  149.7140  140.7646  155.7432 C   0  0  0  0  0  0  0  0  0  0  0  0
  149.9320  131.5664  154.6004 H   0  0  0  0  0  0  0  0  0  0  0  0
  150.1332  132.2479  156.2197 H   0  0  0  0  0  0  0  0  0  0  0  0
  151.5033  132.1978  155.0985 H   0  0  0  0  0  0  0  0  0  0  0  0
  151.8089  134.6379  155.8823 H   0  0  0  0  0  0  0  0  0  0  0  0
  150.5853  135.7883  157.7501 H   0  0  0  0  0  0  0  0  0  0  0  0
  150.0453  134.1344  157.4985 H   0  0  0  0  0  0  0  0  0  0  0  0
  149.0588  135.4736  156.9256 H   0  0  0  0  0  0  0  0  0  0  0  0
  149.0200  136.7651  155.1300 H   0  0  0  0  0  0  0  0  0  0  0  0
  150.3817  138.6792  153.4736 H   0  0  0  0  0  0  0  0  0  0  0  0
  148.8083  138.8110  154.2135 H   0  0  0  0  0  0  0  0  0  0  0  0
  152.2306  138.4722  155.8198 H   0  0  0  0  0  0  0  0  0  0  0  0
  153.1072  140.1565  157.4117 H   0  0  0  0  0  0  0  0  0  0  0  0
  150.9965  144.1166  157.1649 H   0  0  0  0  0  0  0  0  0  0  0  0
  150.1770  143.5945  158.6310 H   0  0  0  0  0  0  0  0  0  0  0  0
  152.9061  145.0007  158.4661 H   0  0  0  0  0  0  0  0  0  0  0  0
  151.4164  145.6797  159.0919 H   0  0  0  0  0  0  0  0  0  0  0  0
  153.9708  143.2415  159.6832 H   0  0  0  0  0  0  0  0  0  0  0  0
  153.9752  141.6866  161.6374 H   0  0  0  0  0  0  0  0  0  0  0  0
  152.4604  142.3873  162.2060 H   0  0  0  0  0  0  0  0  0  0  0  0
  153.9240  143.3668  162.1622 H   0  0  0  0  0  0  0  0  0  0  0  0
  151.3481  141.6771  159.9911 H   0  0  0  0  0  0  0  0  0  0  0  0
  152.8578  141.0528  159.3622 H   0  0  0  0  0  0  0  0  0  0  0  0
  148.7539  140.9848  155.3010 H   0  0  0  0  0  0  0  0  0  0  0  0
  1  2  1  0  0  0  0
  1 22  1  0  0  0  0
  1 23  1  0  0  0  0
  1 24  1  0  0  0  0
  2  3  1  0  0  0  0
  3  4  1  0  0  0  0
  3  5  1  0  0  0  0
  3 25  1  0  0  0  0
  4 26  1  0  0  0  0
  4 27  1  0  0  0  0
  4 28  1  0  0  0  0
  5  6  2  0  0  0  0
  5  7  1  0  0  0  0
  7  8  1  0  0  0  0
  7 29  1  0  0  0  0
  8  9  1  0  0  0  0
  8 30  1  0  0  0  0
  8 31  1  0  0  0  0
  9 21  1  0  0  0  0
  9 10  2  0  0  0  0
 10 11  1  0  0  0  0
 10 32  1  0  0  0  0
 11 12  2  0  0  0  0
 11 33  1  0  0  0  0
 12 13  1  0  0  0  0
 12 20  1  0  0  0  0
 13 19  1  0  0  0  0
 13 14  1  0  0  0  0
 14 15  1  0  0  0  0
 14 34  1  0  0  0  0
 14 35  1  0  0  0  0
 15 16  1  0  0  0  0
 15 36  1  0  0  0  0
 15 37  1  0  0  0  0
 16 17  1  0  0  0  0
 17 18  1  0  0  0  0
 17 19  1  0  0  0  0
 17 38  1  0  0  0  0
 18 39  1  0  0  0  0
 18 40  1  0  0  0  0
 18 41  1  0  0  0  0
 19 42  1  0  0  0  0
 19 43  1  0  0  0  0
 20 21  2  0  0  0  0
 21 44  1  0  0  0  0
M  END
> <s_m_source_file>
AV-unprocessed.smi

> <i_m_source_file_index>
1671

> <i_lp_mmshare_version>
43012

> <i_f3d_flags>
0

> <s_epik_input>
W0NIM11TW0NASF0oW0NIM10pQyg9TylbTkhdW0NIMl1jMVtjSF1bY0hdYyhuW2NIXTEpTjJbQ0gyXVtDSDJdT1tDQEBIXShbQ0gzXSlbQ0gyXTI=

> <s_epik_cmdline>
J2VwaWtfcHl0aG9uJywgJy1waCcsICc3LjAnLCAnLXRuJywgJzgnLCAnLW1hJywgJzIwMCcsICctbWV0YWxfYmluZGluZycsICctaW1hZScsICc8aW5maWxlLm1hZT4nLCAnLW9tYWUnLCAnPG91dGZpbGUubWFlPic=

> <r_lp_tautomer_probability>
1

> <r_epik_Ionization_Penalty>
0.00480033

> <r_epik_Ionization_Penalty_Charging>
0

> <r_epik_Ionization_Penalty_Neutral>
0.00480033

> <r_epik_State_Penalty>
0.00347981

> <r_epik_Charging_Adjusted_Penalty>
0.00347981

> <i_epik_Tot_Q>
0

> <i_epik_Tot_abs_Q>
0

> <r_epik_Metal_State_Penalty>
-0

> <b_epik_Metal_Only>
0

> <s_lp_Force_Field>
OPLS_2005

> <r_lp_Energy>
16.3373

> <b_lp_Chiralities_Consistent>
1

> <s_lp_Variant>
AV-unprocessed.smi:1671-1

> <Gold.Version>
5.8.1

> <Gold.Id.Protein>
6NUR|6NUR_protein|mol2

> <Gold.PLP.Fitness>
45.8209

> <Gold.PLP.PLP>
-43.4801

> <Gold.PLP.part.hbond>
-1.6393

> <Gold.PLP.part.metal>
0.0000

> <Gold.PLP.part.buried>
-3.9417

> <Gold.PLP.part.nonpolar>
-37.6498

> <Gold.PLP.part.repulsive>
0.2903

> <Gold.PLP.ligand.clash>
0.0000

> <Gold.PLP.ligand.torsion>
0.5206

> <Gold.PLP.Chemscore.Hbond>
1.0000

> <Gold.PLP.Chemscore.CHOScore>
0.0000

> <Gold.PLP.Chemscore.Metal>
0.0000

> <Gold.Chemscore.Hbonds>
donor molecule, donor type, donor heavy atom, donor atom, acceptor molecule, acceptor atom, score
      P1  H 10752 10763       L1     6  0.82

> <Gold.PLP.Chemscore.Internal.Correction>
0.3819

> <Gold.Rescore>
     Score         DG    S(hbond)    S(metal)    S(lipo)     H(rot)  DE(clash)    DE(int)     intcor
     15.23     -17.20       0.98        0.00     107.88       1.63       0.04       1.93       ----

> <Gold.Chemscore.Fitness>
15.2337

> <Gold.Chemscore.DG>
-17.2004

> <Gold.Chemscore.ZeroCoef>
-5.4800

> <Gold.Chemscore.Hbond>
0.9773

> <Gold.Chemscore.Metal>
0.0000

> <Gold.Chemscore.Lipo>
107.8791

> <Gold.Chemscore.Internal_Hbond>
0.0000

> <Gold.Chemscore.DEClash>
0.0384

> <Gold.Chemscore.DEInternal>
1.9283

> <Gold.Chemscore.Rot>
1.6272

> <Gold.Chemscore.Internal.Correction>
   9.000000E+99

> <Gold.Chemscore.Hbonds>
donor molecule, donor type, donor heavy atom, donor atom, acceptor molecule, acceptor atom, score
      P1  H 10752 10763       L1     6  0.28

> <Gold.Chemscore.Hbond.Weighted>
-3.2643

> <Gold.Chemscore.Metal.Weighted>
-0.0000

> <Gold.Chemscore.Lipo.Weighted>
-12.6218

> <Gold.Chemscore.Internal_Hbond.Weighted>
0.0000

> <Gold.Chemscore.DEClash.Weighted>
0.0384

> <Gold.Chemscore.DEInternal.Weighted>
1.9283

> <Gold.Chemscore.Rot.Weighted>
4.1657

> <Gold.Chemscore.Internal.Correction.Weighted>
   9.000000E+99

> <Gold.Protein.RotatedTorsions>
[ 6907 6896 6895 6894 ] final  -31.76 input  -60.11 | X-H torsion
[ 7974 7965 7964 7962 ] final -176.13 input  175.53 | X-H torsion
[ 8008 7997 7996 7995 ] final  -52.57 input   59.86 | X-H torsion
[ 10167 10162 10161 10158 ] final  -89.00 input  -65.29 | X-H torsion
[ 10718 10713 10712 10709 ] final  144.30 input   66.30 | X-H torsion
[ 10763 10752 10751 10750 ] final   71.31 input  -60.55 | X-H torsion
[ 11005 11000 10999 10996 ] final   30.42 input  -57.11 | X-H torsion

> <Gold.Protein.ActiveResidues>
 VAL166  LYS551  ARG553  GLY616  TRP617  ASP618  TYR619  PRO620  LYS621  CYS622 
 ASP623  PHE694  ASN695  SER759  ASP760  ASP761  ALA762  ILE779  LEU786  VAL792 
 PHE793  MET794  SER795  GLU796  ALA797  LYS798  CYS799  TRP800  GLU811  SER814 

> <Gold.Protein.RotatedAtoms>
  151.0878  134.9898  159.8387 H   0  0  0  0  0  0  0  0  0  0  0  0  # atno 6907 bound_to 6896
  152.5426  134.2102  159.8757 H   0  0  0  0  0  0  0  0  0  0  0  0  # atno 6908 bound_to 6896
  151.2136  133.4498  159.2632 H   0  0  0  0  0  0  0  0  0  0  0  0  # atno 6909 bound_to 6896
  144.7127  140.1217  143.6405 H   0  0  0  0  0  0  0  0  0  0  0  0  # atno 7974 bound_to 7965
  154.4110  140.1220  156.5013 H   0  0  0  0  0  0  0  0  0  0  0  0  # atno 8008 bound_to 7997
  155.6892  140.3495  155.4867 H   0  0  0  0  0  0  0  0  0  0  0  0  # atno 8009 bound_to 7997
  155.9484  140.1100  157.0987 H   0  0  0  0  0  0  0  0  0  0  0  0  # atno 8010 bound_to 7997
  140.3691  143.2803  151.9522 H   0  0  0  0  0  0  0  0  0  0  0  0  # atno 10167 bound_to 10162
  157.3588  131.0962  151.0934 H   0  0  0  0  0  0  0  0  0  0  0  0  # atno 10718 bound_to 10713
  153.0391  135.5142  154.7573 H   0  0  0  0  0  0  0  0  0  0  0  0  # atno 10763 bound_to 10752
  154.6525  135.2927  154.9971 H   0  0  0  0  0  0  0  0  0  0  0  0  # atno 10764 bound_to 10752
  154.0851  135.6658  153.4896 H   0  0  0  0  0  0  0  0  0  0  0  0  # atno 10765 bound_to 10752
  140.2946  134.2826  155.7768 H   0  0  0  0  0  0  0  0  0  0  0  0  # atno 11005 bound_to 11000
  145.9365  139.2641  143.1294 LP  0  0  0  0  0  0  0  0  0  0  0  0  # atno 17320 bound_to 7965
  145.9468  140.8939  143.0279 LP  0  0  0  0  0  0  0  0  0  0  0  0  # atno 17321 bound_to 7965
  139.4805  144.5923  151.7750 LP  0  0  0  0  0  0  0  0  0  0  0  0  # atno 17342 bound_to 10162
  140.5051  144.1110  150.5980 LP  0  0  0  0  0  0  0  0  0  0  0  0  # atno 17343 bound_to 10162
  157.2082  130.6426  149.5764 LP  0  0  0  0  0  0  0  0  0  0  0  0  # atno 17370 bound_to 10713
  155.9734  130.4668  150.6304 LP  0  0  0  0  0  0  0  0  0  0  0  0  # atno 17371 bound_to 10713
  141.2140  133.7607  156.9676 LP  0  0  0  0  0  0  0  0  0  0  0  0  # atno 17394 bound_to 11000
  140.1164  134.9444  157.2141 LP  0  0  0  0  0  0  0  0  0  0  0  0  # atno 17395 bound_to 11000

$$$$
