AV-unprocessed.smi:1652|AV-procd|sdf|6639|dock1
  -GOLD-   22720 7343D 1   1.00000     0.00000
 Structure written by MMmdl.
 38 40  0  0  0  0  0  0  0  0  1 V2000
  152.4552  140.0328  156.7094 O   0  0  0  0  0  0  0  0  0  0  0  0
  151.4162  140.3906  156.1535 C   0  0  0  0  0  0  0  0  0  0  0  0
  150.5553  139.4805  155.3823 C   0  0  0  0  0  0  0  0  0  0  0  0
  150.9786  138.0182  155.2702 C   0  0  0  0  0  0  0  0  0  0  0  0
  151.9084  137.8443  154.3299 F   0  0  0  0  0  0  0  0  0  0  0  0
  151.4828  137.5843  156.4259 F   0  0  0  0  0  0  0  0  0  0  0  0
  149.9334  137.2515  154.9572 F   0  0  0  0  0  0  0  0  0  0  0  0
  149.4274  139.9475  154.7935 C   0  0  0  0  0  0  0  0  0  0  0  0
  149.0612  141.3438  154.9183 C   0  0  0  0  0  0  0  0  0  0  0  0
  147.8322  141.9301  154.2843 C   0  0  0  0  0  0  0  0  0  0  0  0
  146.4374  141.5540  154.7300 C   0  0  0  0  0  0  0  0  0  0  0  0
  146.9429  141.1141  153.3752 C   0  0  0  0  0  0  0  0  0  0  0  0
  149.8142  142.1392  155.6004 N   0  0  0  0  0  0  0  0  0  0  0  0
  150.9681  141.6795  156.2058 N   0  0  0  0  0  0  0  0  0  0  0  0
  151.7184  142.7201  156.9208 C   0  0  0  0  0  0  0  0  0  0  0  0
  150.8893  143.3557  158.0580 C   0  0  2  0  0  0  0  0  0  0  0  0
  150.6814  144.7244  157.7696 O   0  0  0  0  0  0  0  0  0  0  0  0
  151.5807  143.1738  159.4013 C   0  0  0  0  0  0  0  0  0  0  0  0
  152.5490  142.1593  159.5629 C   0  0  0  0  0  0  0  0  0  0  0  0
  153.2011  141.9901  160.7998 C   0  0  0  0  0  0  0  0  0  0  0  0
  152.8907  142.8357  161.8822 C   0  0  0  0  0  0  0  0  0  0  0  0
  153.5184  142.6729  163.0708 F   0  0  0  0  0  0  0  0  0  0  0  0
  151.9286  143.8518  161.7265 C   0  0  0  0  0  0  0  0  0  0  0  0
  151.2769  144.0222  160.4896 C   0  0  0  0  0  0  0  0  0  0  0  0
  148.7831  139.2945  154.2243 H   0  0  0  0  0  0  0  0  0  0  0  0
  147.9980  142.9710  154.0126 H   0  0  0  0  0  0  0  0  0  0  0  0
  146.3273  140.7844  155.4920 H   0  0  0  0  0  0  0  0  0  0  0  0
  145.6900  142.3443  154.7554 H   0  0  0  0  0  0  0  0  0  0  0  0
  146.5300  141.6103  152.4992 H   0  0  0  0  0  0  0  0  0  0  0  0
  147.1749  140.0583  153.2467 H   0  0  0  0  0  0  0  0  0  0  0  0
  152.5988  142.2401  157.3529 H   0  0  0  0  0  0  0  0  0  0  0  0
  152.1206  143.4844  156.2531 H   0  0  0  0  0  0  0  0  0  0  0  0
  149.9094  142.8792  158.1124 H   0  0  0  0  0  0  0  0  0  0  0  0
  149.9644  144.7969  157.1584 H   0  0  0  0  0  0  0  0  0  0  0  0
  152.7978  141.5079  158.7379 H   0  0  0  0  0  0  0  0  0  0  0  0
  153.9410  141.2122  160.9175 H   0  0  0  0  0  0  0  0  0  0  0  0
  151.6913  144.5024  162.5556 H   0  0  0  0  0  0  0  0  0  0  0  0
  150.5443  144.8082  160.3777 H   0  0  0  0  0  0  0  0  0  0  0  0
  1  2  2  0  0  0  0
  2 14  1  0  0  0  0
  2  3  1  0  0  0  0
  3  4  1  0  0  0  0
  3  8  2  0  0  0  0
  4  5  1  0  0  0  0
  4  6  1  0  0  0  0
  4  7  1  0  0  0  0
  8  9  1  0  0  0  0
  8 25  1  0  0  0  0
  9 10  1  0  0  0  0
  9 13  2  0  0  0  0
 10 12  1  0  0  0  0
 10 11  1  0  0  0  0
 10 26  1  0  0  0  0
 11 12  1  0  0  0  0
 11 27  1  0  0  0  0
 11 28  1  0  0  0  0
 12 29  1  0  0  0  0
 12 30  1  0  0  0  0
 13 14  1  0  0  0  0
 14 15  1  0  0  0  0
 15 16  1  0  0  0  0
 15 31  1  0  0  0  0
 15 32  1  0  0  0  0
 16 17  1  0  0  0  0
 16 18  1  0  0  0  0
 16 33  1  0  0  0  0
 17 34  1  0  0  0  0
 18 24  1  0  0  0  0
 18 19  2  0  0  0  0
 19 20  1  0  0  0  0
 19 35  1  0  0  0  0
 20 21  2  0  0  0  0
 20 36  1  0  0  0  0
 21 22  1  0  0  0  0
 21 23  1  0  0  0  0
 23 24  2  0  0  0  0
 23 37  1  0  0  0  0
 24 38  1  0  0  0  0
M  END
> <s_m_source_file>
AV-unprocessed.smi

> <i_m_source_file_index>
1652

> <i_lp_mmshare_version>
43012

> <i_f3d_flags>
0

> <s_epik_input>
Tz1jMWMoQyhGKShGKUYpW2NIXWMoW0NIXTJbQ0gyXVtDSDJdMilubjFbQ0gyXVtDQEhdKFtPSF0pYzNbY0hdW2NIXWMoRilbY0hdW2NIXTM=

> <s_epik_cmdline>
J2VwaWtfcHl0aG9uJywgJy1waCcsICc3LjAnLCAnLXRuJywgJzgnLCAnLW1hJywgJzIwMCcsICctbWV0YWxfYmluZGluZycsICctaW1hZScsICc8aW5maWxlLm1hZT4nLCAnLW9tYWUnLCAnPG91dGZpbGUubWFlPic=

> <r_lp_tautomer_probability>
1

> <r_epik_Ionization_Penalty>
9.17026e-08

> <r_epik_Ionization_Penalty_Charging>
9.677e-10

> <r_epik_Ionization_Penalty_Neutral>
9.07349e-08

> <r_epik_State_Penalty>
-0

> <r_epik_Charging_Adjusted_Penalty>
9.677e-10

> <i_epik_Tot_Q>
0

> <i_epik_Tot_abs_Q>
0

> <r_epik_Metal_State_Penalty>
-0

> <b_epik_Metal_Only>
0

> <s_lp_Force_Field>
OPLS_2005

> <r_lp_Energy>
34.1346

> <b_lp_Chiralities_Consistent>
1

> <s_lp_Variant>
AV-unprocessed.smi:1652-1

> <Gold.Version>
5.8.1

> <Gold.Id.Protein>
6NUR|6NUR_protein|mol2

> <Gold.PLP.Fitness>
55.0046

> <Gold.PLP.PLP>
-53.0132

> <Gold.PLP.part.hbond>
-2.2553

> <Gold.PLP.part.metal>
0.0000

> <Gold.PLP.part.buried>
-6.0664

> <Gold.PLP.part.nonpolar>
-45.6419

> <Gold.PLP.part.repulsive>
1.9341

> <Gold.PLP.ligand.clash>
0.0765

> <Gold.PLP.ligand.torsion>
2.3326

> <Gold.PLP.Chemscore.Hbond>
2.0000

> <Gold.PLP.Chemscore.CHOScore>
0.0000

> <Gold.PLP.Chemscore.Metal>
0.0000

> <Gold.Chemscore.Hbonds>
donor molecule, donor type, donor heavy atom, donor atom, acceptor molecule, acceptor atom, score
      L1  H    17    34       P1  8028  0.85
      P1  H  7997  8010       L1     1  1.00

> <Gold.PLP.Chemscore.Internal.Correction>
0.7331

> <Gold.Rescore>
     Score         DG    S(hbond)    S(metal)    S(lipo)     H(rot)  DE(clash)    DE(int)     intcor
     15.41     -21.68       1.82        0.00     134.75       2.20       2.73       3.53       ----

> <Gold.Chemscore.Fitness>
15.4130

> <Gold.Chemscore.DG>
-21.6808

> <Gold.Chemscore.ZeroCoef>
-5.4800

> <Gold.Chemscore.Hbond>
1.8166

> <Gold.Chemscore.Metal>
0.0000

> <Gold.Chemscore.Lipo>
134.7534

> <Gold.Chemscore.Internal_Hbond>
0.0000

> <Gold.Chemscore.DEClash>
2.7332

> <Gold.Chemscore.DEInternal>
3.5345

> <Gold.Chemscore.Rot>
2.2003

> <Gold.Chemscore.Internal.Correction>
   9.000000E+99

> <Gold.Chemscore.Hbonds>
donor molecule, donor type, donor heavy atom, donor atom, acceptor molecule, acceptor atom, score
      L1  H    17    34       P1  8028  0.15
      P1  H  7997  8010       L1     1  0.99

> <Gold.Chemscore.Hbond.Weighted>
-6.0674

> <Gold.Chemscore.Metal.Weighted>
-0.0000

> <Gold.Chemscore.Lipo.Weighted>
-15.7662

> <Gold.Chemscore.Internal_Hbond.Weighted>
0.0000

> <Gold.Chemscore.DEClash.Weighted>
2.7332

> <Gold.Chemscore.DEInternal.Weighted>
3.5345

> <Gold.Chemscore.Rot.Weighted>
5.6328

> <Gold.Chemscore.Internal.Correction.Weighted>
   9.000000E+99

> <Gold.Protein.RotatedTorsions>
[ 6907 6896 6895 6894 ] final   42.55 input  -60.11 | X-H torsion
[ 7974 7965 7964 7962 ] final    7.94 input  175.53 | X-H torsion
[ 8008 7997 7996 7995 ] final   69.44 input   59.86 | X-H torsion
[ 10167 10162 10161 10158 ] final   -6.59 input  -65.29 | X-H torsion
[ 10718 10713 10712 10709 ] final  127.26 input   66.30 | X-H torsion
[ 10763 10752 10751 10750 ] final -154.87 input  -60.55 | X-H torsion
[ 11005 11000 10999 10996 ] final -103.10 input  -57.11 | X-H torsion

> <Gold.Protein.ActiveResidues>
 VAL166  LYS551  ARG553  GLY616  TRP617  ASP618  TYR619  PRO620  LYS621  CYS622 
 ASP623  PHE694  ASN695  SER759  ASP760  ASP761  ALA762  ILE779  LEU786  VAL792 
 PHE793  MET794  SER795  GLU796  ALA797  LYS798  CYS799  TRP800  GLU811  SER814 

> <Gold.Protein.RotatedAtoms>
  152.2093  134.8516  160.0498 H   0  0  0  0  0  0  0  0  0  0  0  0  # atno 6907 bound_to 6896
  151.9340  133.3614  159.3949 H   0  0  0  0  0  0  0  0  0  0  0  0  # atno 6908 bound_to 6896
  150.6972  134.4432  159.5346 H   0  0  0  0  0  0  0  0  0  0  0  0  # atno 6909 bound_to 6896
  146.2421  140.0008  142.8416 H   0  0  0  0  0  0  0  0  0  0  0  0  # atno 7974 bound_to 7965
  155.7236  140.3493  155.5027 H   0  0  0  0  0  0  0  0  0  0  0  0  # atno 8008 bound_to 7997
  155.9247  140.1073  157.1201 H   0  0  0  0  0  0  0  0  0  0  0  0  # atno 8009 bound_to 7997
  154.4075  140.1243  156.4711 H   0  0  0  0  0  0  0  0  0  0  0  0  # atno 8010 bound_to 7997
  140.7002  143.6177  150.8643 H   0  0  0  0  0  0  0  0  0  0  0  0  # atno 10167 bound_to 10162
  157.5348  131.1098  150.8953 H   0  0  0  0  0  0  0  0  0  0  0  0  # atno 10718 bound_to 10713
  154.7828  135.3180  154.7953 H   0  0  0  0  0  0  0  0  0  0  0  0  # atno 10763 bound_to 10752
  153.8661  135.6849  153.4783 H   0  0  0  0  0  0  0  0  0  0  0  0  # atno 10764 bound_to 10752
  153.1469  135.4715  154.9517 H   0  0  0  0  0  0  0  0  0  0  0  0  # atno 10765 bound_to 10752
  141.1160  133.8612  157.1443 H   0  0  0  0  0  0  0  0  0  0  0  0  # atno 11005 bound_to 11000
  145.1417  140.9575  143.4484 LP  0  0  0  0  0  0  0  0  0  0  0  0  # atno 17320 bound_to 7965
  145.0289  139.3358  143.6034 LP  0  0  0  0  0  0  0  0  0  0  0  0  # atno 17321 bound_to 7965
  139.9898  143.5859  152.2914 LP  0  0  0  0  0  0  0  0  0  0  0  0  # atno 17342 bound_to 10162
  139.6510  144.7660  151.2147 LP  0  0  0  0  0  0  0  0  0  0  0  0  # atno 17343 bound_to 10162
  156.9523  130.5424  149.5283 LP  0  0  0  0  0  0  0  0  0  0  0  0  # atno 17370 bound_to 10713
  156.0450  130.5528  150.8859 LP  0  0  0  0  0  0  0  0  0  0  0  0  # atno 17371 bound_to 10713
  140.0083  134.9999  157.0341 LP  0  0  0  0  0  0  0  0  0  0  0  0  # atno 17394 bound_to 11000
  140.4643  134.1452  155.7195 LP  0  0  0  0  0  0  0  0  0  0  0  0  # atno 17395 bound_to 11000

$$$$
