AV-unprocessed.smi:3133|AV-procd|sdf|11937|dock4
  -GOLD-   2272017323D 1   1.00000     0.00000
 Structure written by MMmdl.
 32 33  0  0  0  0  0  0  0  0  1 V2000
  147.7196  140.5176  153.2085 C   0  0  0  0  0  0  0  0  0  0  0  0
  148.1986  141.6456  154.1454 C   0  0  2  0  0  0  0  0  0  0  0  0
  149.4412  141.2598  154.9665 C   0  0  0  0  0  0  0  0  0  0  0  0
  150.0607  140.2238  154.7225 O   0  0  0  0  0  0  0  0  0  0  0  0
  149.8006  142.1160  155.9368 N   0  0  0  0  0  0  0  0  0  0  0  0
  150.9365  141.9509  156.8379 C   0  0  0  0  0  0  0  0  0  0  0  0
  150.9726  143.0458  157.9169 C   0  0  2  0  0  0  0  0  0  0  0  0
  151.8804  144.2370  157.6032 C   0  0  0  0  0  0  0  0  0  0  0  0
  152.2139  144.7395  158.9887 C   0  0  0  0  0  0  0  0  0  0  0  0
  152.3659  143.4317  159.7582 C   0  0  0  0  0  0  0  0  0  0  0  0
  151.4689  142.5111  159.1420 O   0  0  0  0  0  0  0  0  0  0  0  0
  147.1310  142.1155  155.0207 N   0  0  0  0  0  0  0  0  0  0  0  0
  145.9667  142.6946  154.7192 C   0  0  0  0  0  0  0  0  0  0  0  0
  145.2448  143.0367  155.7772 N   0  0  0  0  0  0  0  0  0  0  0  0
  146.0845  142.6191  156.7704 C   0  0  0  0  0  0  0  0  0  0  0  0
  147.2310  142.0680  156.3727 N   0  0  0  0  0  0  0  0  0  0  0  0
  148.5082  140.2173  152.5176 H   0  0  0  0  0  0  0  0  0  0  0  0
  146.8698  140.8458  152.6095 H   0  0  0  0  0  0  0  0  0  0  0  0
  147.4094  139.6302  153.7620 H   0  0  0  0  0  0  0  0  0  0  0  0
  148.4876  142.4870  153.5135 H   0  0  0  0  0  0  0  0  0  0  0  0
  149.2383  142.9443  156.0672 H   0  0  0  0  0  0  0  0  0  0  0  0
  150.8392  140.9758  157.3153 H   0  0  0  0  0  0  0  0  0  0  0  0
  151.8783  141.9251  156.2870 H   0  0  0  0  0  0  0  0  0  0  0  0
  149.9619  143.4088  158.1104 H   0  0  0  0  0  0  0  0  0  0  0  0
  152.7904  143.9071  157.1000 H   0  0  0  0  0  0  0  0  0  0  0  0
  151.3977  144.9890  156.9786 H   0  0  0  0  0  0  0  0  0  0  0  0
  153.1101  145.3598  159.0182 H   0  0  0  0  0  0  0  0  0  0  0  0
  151.3804  145.3186  159.3889 H   0  0  0  0  0  0  0  0  0  0  0  0
  153.3810  143.0465  159.6541 H   0  0  0  0  0  0  0  0  0  0  0  0
  152.1540  143.5462  160.8214 H   0  0  0  0  0  0  0  0  0  0  0  0
  145.6423  142.8739  153.7047 H   0  0  0  0  0  0  0  0  0  0  0  0
  145.8455  142.7297  157.8179 H   0  0  0  0  0  0  0  0  0  0  0  0
  1  2  1  0  0  0  0
  1 17  1  0  0  0  0
  1 18  1  0  0  0  0
  1 19  1  0  0  0  0
  2  3  1  0  0  0  0
  2 12  1  0  0  0  0
  2 20  1  0  0  0  0
  3  4  2  0  0  0  0
  3  5  1  0  0  0  0
  5  6  1  0  0  0  0
  5 21  1  0  0  0  0
  6  7  1  0  0  0  0
  6 22  1  0  0  0  0
  6 23  1  0  0  0  0
  7 11  1  0  0  0  0
  7  8  1  0  0  0  0
  7 24  1  0  0  0  0
  8  9  1  0  0  0  0
  8 25  1  0  0  0  0
  8 26  1  0  0  0  0
  9 10  1  0  0  0  0
  9 27  1  0  0  0  0
  9 28  1  0  0  0  0
 10 11  1  0  0  0  0
 10 29  1  0  0  0  0
 10 30  1  0  0  0  0
 12 16  1  0  0  0  0
 12 13  1  0  0  0  0
 13 14  2  0  0  0  0
 13 31  1  0  0  0  0
 14 15  1  0  0  0  0
 15 16  2  0  0  0  0
 15 32  1  0  0  0  0
M  END
> <s_m_source_file>
AV-unprocessed.smi

> <i_m_source_file_index>
3133

> <i_lp_mmshare_version>
43012

> <i_f3d_flags>
0

> <s_epik_input>
bjFbY0hdbltjSF1uMVtDQEhdKFtDSDNdKUMoPU8pW05IXVtDSDJdW0NAQEhdMltDSDJdW0NIMl1bQ0gyXU8y

> <s_epik_cmdline>
J2VwaWtfcHl0aG9uJywgJy1waCcsICc3LjAnLCAnLXRuJywgJzgnLCAnLW1hJywgJzIwMCcsICctbWV0YWxfYmluZGluZycsICctaW1hZScsICc8aW5maWxlLm1hZT4nLCAnLW9tYWUnLCAnPG91dGZpbGUubWFlPic=

> <r_lp_tautomer_probability>
1

> <r_epik_Ionization_Penalty>
1.2027e-05

> <r_epik_Ionization_Penalty_Charging>
0

> <r_epik_Ionization_Penalty_Neutral>
1.2027e-05

> <r_epik_State_Penalty>
-0

> <r_epik_Charging_Adjusted_Penalty>
0

> <i_epik_Tot_Q>
0

> <i_epik_Tot_abs_Q>
0

> <r_epik_Metal_State_Penalty>
-0

> <b_epik_Metal_Only>
0

> <s_lp_Force_Field>
OPLS_2005

> <r_lp_Energy>
23.5717

> <b_lp_Chiralities_Consistent>
1

> <s_lp_Variant>
AV-unprocessed.smi:3133-1

> <Gold.Version>
5.8.1

> <Gold.Id.Protein>
6NUR|6NUR_protein|mol2

> <Gold.PLP.Fitness>
40.3058

> <Gold.PLP.PLP>
-35.8848

> <Gold.PLP.part.hbond>
-2.0000

> <Gold.PLP.part.metal>
0.0000

> <Gold.PLP.part.buried>
-1.3494

> <Gold.PLP.part.nonpolar>
-32.0751

> <Gold.PLP.part.repulsive>
0.5450

> <Gold.PLP.ligand.clash>
0.0000

> <Gold.PLP.ligand.torsion>
0.8482

> <Gold.PLP.Chemscore.Hbond>
2.0000

> <Gold.PLP.Chemscore.CHOScore>
0.0000

> <Gold.PLP.Chemscore.Metal>
0.0000

> <Gold.Chemscore.Hbonds>
donor molecule, donor type, donor heavy atom, donor atom, acceptor molecule, acceptor atom, score
      L1  H     5    21       P1  8028  0.99
      P1  H  7989  7998       L1     4  0.86

> <Gold.PLP.Chemscore.Internal.Correction>
0.1174

> <Gold.Rescore>
     Score         DG    S(hbond)    S(metal)    S(lipo)     H(rot)  DE(clash)    DE(int)     intcor
     10.87     -13.73       1.59        0.00      74.50       2.26       0.05       2.81       ----

> <Gold.Chemscore.Fitness>
10.8670

> <Gold.Chemscore.DG>
-13.7254

> <Gold.Chemscore.ZeroCoef>
-5.4800

> <Gold.Chemscore.Hbond>
1.5878

> <Gold.Chemscore.Metal>
0.0000

> <Gold.Chemscore.Lipo>
74.5019

> <Gold.Chemscore.Internal_Hbond>
0.0000

> <Gold.Chemscore.DEClash>
0.0479

> <Gold.Chemscore.DEInternal>
2.8105

> <Gold.Chemscore.Rot>
2.2558

> <Gold.Chemscore.Internal.Correction>
   9.000000E+99

> <Gold.Chemscore.Hbonds>
donor molecule, donor type, donor heavy atom, donor atom, acceptor molecule, acceptor atom, score
      L1  H     5    21       P1  8028  0.94
      P1  H  7989  7998       L1     4  0.32

> <Gold.Chemscore.Hbond.Weighted>
-5.3034

> <Gold.Chemscore.Metal.Weighted>
-0.0000

> <Gold.Chemscore.Lipo.Weighted>
-8.7167

> <Gold.Chemscore.Internal_Hbond.Weighted>
0.0000

> <Gold.Chemscore.DEClash.Weighted>
0.0479

> <Gold.Chemscore.DEInternal.Weighted>
2.8105

> <Gold.Chemscore.Rot.Weighted>
5.7747

> <Gold.Chemscore.Internal.Correction.Weighted>
   9.000000E+99

> <Gold.Protein.RotatedTorsions>
[ 6907 6896 6895 6894 ] final   38.24 input  -60.11 | X-H torsion
[ 7974 7965 7964 7962 ] final  -25.19 input  175.53 | X-H torsion
[ 8008 7997 7996 7995 ] final  145.11 input   59.86 | X-H torsion
[ 10167 10162 10161 10158 ] final   12.84 input  -65.29 | X-H torsion
[ 10718 10713 10712 10709 ] final  -91.86 input   66.30 | X-H torsion
[ 10763 10752 10751 10750 ] final  -32.82 input  -60.55 | X-H torsion
[ 11005 11000 10999 10996 ] final  160.54 input  -57.11 | X-H torsion

> <Gold.Protein.ActiveResidues>
 VAL166  LYS551  ARG553  GLY616  TRP617  ASP618  TYR619  PRO620  LYS621  CYS622 
 ASP623  PHE694  ASN695  SER759  ASP760  ASP761  ALA762  ILE779  LEU786  VAL792 
 PHE793  MET794  SER795  GLU796  ALA797  LYS798  CYS799  TRP800  GLU811  SER814 

> <Gold.Protein.RotatedAtoms>
  152.1538  134.8967  160.0546 H   0  0  0  0  0  0  0  0  0  0  0  0  # atno 6907 bound_to 6896
  151.9989  133.3813  159.4182 H   0  0  0  0  0  0  0  0  0  0  0  0  # atno 6908 bound_to 6896
  150.6879  134.3778  159.5064 H   0  0  0  0  0  0  0  0  0  0  0  0  # atno 6909 bound_to 6896
  146.1507  140.4852  142.8612 H   0  0  0  0  0  0  0  0  0  0  0  0  # atno 7974 bound_to 7965
  156.2891  140.2218  156.5163 H   0  0  0  0  0  0  0  0  0  0  0  0  # atno 8008 bound_to 7997
  154.7566  140.0476  157.0960 H   0  0  0  0  0  0  0  0  0  0  0  0  # atno 8009 bound_to 7997
  155.0043  140.3105  155.4858 H   0  0  0  0  0  0  0  0  0  0  0  0  # atno 8010 bound_to 7997
  140.6041  143.8543  150.6996 H   0  0  0  0  0  0  0  0  0  0  0  0  # atno 10167 bound_to 10162
  155.9997  130.4964  150.5538 H   0  0  0  0  0  0  0  0  0  0  0  0  # atno 10718 bound_to 10713
  153.8201  135.6875  153.4828 H   0  0  0  0  0  0  0  0  0  0  0  0  # atno 10763 bound_to 10752
  153.1574  135.4593  154.9722 H   0  0  0  0  0  0  0  0  0  0  0  0  # atno 10764 bound_to 10752
  154.7931  135.3309  154.7674 H   0  0  0  0  0  0  0  0  0  0  0  0  # atno 10765 bound_to 10752
  140.2069  134.8296  157.3079 H   0  0  0  0  0  0  0  0  0  0  0  0  # atno 11005 bound_to 11000
  144.7901  140.6014  143.6547 LP  0  0  0  0  0  0  0  0  0  0  0  0  # atno 17320 bound_to 7965
  145.4830  139.1494  143.3751 LP  0  0  0  0  0  0  0  0  0  0  0  0  # atno 17321 bound_to 7965
  140.2096  143.3894  152.1728 LP  0  0  0  0  0  0  0  0  0  0  0  0  # atno 17342 bound_to 10162
  139.5312  144.7161  151.5049 LP  0  0  0  0  0  0  0  0  0  0  0  0  # atno 17343 bound_to 10162
  157.3458  131.0725  151.1753 LP  0  0  0  0  0  0  0  0  0  0  0  0  # atno 17370 bound_to 10713
  157.2586  130.6648  149.5964 LP  0  0  0  0  0  0  0  0  0  0  0  0  # atno 17371 bound_to 10713
  140.1993  134.4275  155.7672 LP  0  0  0  0  0  0  0  0  0  0  0  0  # atno 17394 bound_to 11000
  141.2227  133.7064  156.8157 LP  0  0  0  0  0  0  0  0  0  0  0  0  # atno 17395 bound_to 11000

$$$$
