AV-unprocessed.smi:1663|AV-procd|sdf|6665|dock3
  -GOLD-   22720 7373D 1   1.00000     0.00000
 Structure written by MMmdl.
 39 40  0  0  0  0  0  0  0  0  2 V2000
  143.1737  132.1829  150.3093 C   0  0  0  0  0  0  0  0  0  0  0  0
  143.5626  133.5593  150.6848 N   0  3  2  0  0  0  0  0  0  0  0  0
  144.9110  133.9225  150.1835 C   0  0  0  0  0  0  0  0  0  0  0  0
  145.2335  135.3971  150.4802 C   0  0  0  0  0  0  0  0  0  0  0  0
  145.1138  135.7077  151.9859 C   0  0  1  0  0  0  0  0  0  0  0  0
  145.3821  137.1920  152.3139 C   0  0  0  0  0  0  0  0  0  0  0  0
  146.7621  137.4451  152.7167 N   0  0  0  0  0  0  0  0  0  0  0  0
  147.1489  138.3893  153.5866 C   0  0  0  0  0  0  0  0  0  0  0  0
  146.3616  139.1323  154.1735 O   0  0  0  0  0  0  0  0  0  0  0  0
  148.4869  138.4078  153.7224 N   0  0  0  0  0  0  0  0  0  0  0  0
  149.2780  139.2834  154.5131 C   0  0  0  0  0  0  0  0  0  0  0  0
  150.5503  138.7824  154.8699 C   0  0  0  0  0  0  0  0  0  0  0  0
  151.4149  139.5768  155.6477 C   0  0  0  0  0  0  0  0  0  0  0  0
  150.9842  140.8536  156.0497 C   0  0  0  0  0  0  0  0  0  0  0  0
  149.7018  141.2759  155.6534 C   0  0  0  0  0  0  0  0  0  0  0  0
  148.8714  140.5159  154.9083 N   0  0  0  0  0  0  0  0  0  0  0  0
  143.7196  135.2798  152.4780 C   0  0  0  0  0  0  0  0  0  0  0  0
  143.4285  133.8081  152.1411 C   0  0  0  0  0  0  0  0  0  0  0  0
  143.8433  131.4494  150.7602 H   0  0  0  0  0  0  0  0  0  0  0  0
  143.2057  132.0561  149.2268 H   0  0  0  0  0  0  0  0  0  0  0  0
  142.1568  131.9660  150.6385 H   0  0  0  0  0  0  0  0  0  0  0  0
  145.6591  133.2748  150.6435 H   0  0  0  0  0  0  0  0  0  0  0  0
  144.9597  133.7491  149.1079 H   0  0  0  0  0  0  0  0  0  0  0  0
  146.2396  135.6212  150.1243 H   0  0  0  0  0  0  0  0  0  0  0  0
  144.5563  136.0393  149.9153 H   0  0  0  0  0  0  0  0  0  0  0  0
  145.8514  135.1027  152.5158 H   0  0  0  0  0  0  0  0  0  0  0  0
  145.1692  137.8105  151.4416 H   0  0  0  0  0  0  0  0  0  0  0  0
  144.7071  137.5337  153.1009 H   0  0  0  0  0  0  0  0  0  0  0  0
  147.4749  136.8785  152.2807 H   0  0  0  0  0  0  0  0  0  0  0  0
  149.0024  137.7312  153.1794 H   0  0  0  0  0  0  0  0  0  0  0  0
  150.8665  137.7999  154.5509 H   0  0  0  0  0  0  0  0  0  0  0  0
  152.3916  139.2127  155.9299 H   0  0  0  0  0  0  0  0  0  0  0  0
  151.6188  141.4924  156.6460 H   0  0  0  0  0  0  0  0  0  0  0  0
  149.3331  142.2489  155.9419 H   0  0  0  0  0  0  0  0  0  0  0  0
  143.6435  135.4286  153.5557 H   0  0  0  0  0  0  0  0  0  0  0  0
  142.9564  135.9145  152.0252 H   0  0  0  0  0  0  0  0  0  0  0  0
  142.4175  133.5554  152.4632 H   0  0  0  0  0  0  0  0  0  0  0  0
  144.1092  133.1548  152.6895 H   0  0  0  0  0  0  0  0  0  0  0  0
  142.9078  134.1764  150.2255 H   0  0  0  0  0  0  0  0  0  0  0  0
  1  2  1  0  0  0  0
  1 19  1  0  0  0  0
  1 20  1  0  0  0  0
  1 21  1  0  0  0  0
  2 18  1  0  0  0  0
  2  3  1  0  0  0  0
  2 39  1  0  0  0  0
  3  4  1  0  0  0  0
  3 22  1  0  0  0  0
  3 23  1  0  0  0  0
  4  5  1  0  0  0  0
  4 24  1  0  0  0  0
  4 25  1  0  0  0  0
  5  6  1  0  0  0  0
  5 17  1  0  0  0  0
  5 26  1  0  0  0  0
  6  7  1  0  0  0  0
  6 27  1  0  0  0  0
  6 28  1  0  0  0  0
  7  8  1  0  0  0  0
  7 29  1  0  0  0  0
  8  9  2  0  0  0  0
  8 10  1  0  0  0  0
 10 11  1  0  0  0  0
 10 30  1  0  0  0  0
 11 16  1  0  0  0  0
 11 12  2  0  0  0  0
 12 13  1  0  0  0  0
 12 31  1  0  0  0  0
 13 14  2  0  0  0  0
 13 32  1  0  0  0  0
 14 15  1  0  0  0  0
 14 33  1  0  0  0  0
 15 16  2  0  0  0  0
 15 34  1  0  0  0  0
 17 18  1  0  0  0  0
 17 35  1  0  0  0  0
 17 36  1  0  0  0  0
 18 37  1  0  0  0  0
 18 38  1  0  0  0  0
M  CHG  1   2   1
M  END
> <s_m_source_file>
AV-unprocessed.smi

> <i_m_source_file_index>
1663

> <i_lp_mmshare_version>
43012

> <i_f3d_flags>
0

> <s_epik_input>
W0NIM11OMVtDSDJdW0NIMl1bQ0hdKFtDSDJdW0NIMl0xKVtDSDJdW05IXUMoPU8pW05IXWMyW2NIXVtjSF1bY0hdW2NIXW4y

> <s_epik_cmdline>
J2VwaWtfcHl0aG9uJywgJy1waCcsICc3LjAnLCAnLXRuJywgJzgnLCAnLW1hJywgJzIwMCcsICctbWV0YWxfYmluZGluZycsICctaW1hZScsICc8aW5maWxlLm1hZT4nLCAnLW9tYWUnLCAnPG91dGZpbGUubWFlPic=

> <r_epik_Ionization_Penalty>
0.00110639

> <r_epik_Ionization_Penalty_Charging>
0.00106265

> <r_epik_Ionization_Penalty_Neutral>
4.37361e-05

> <r_epik_State_Penalty>
0.000695551

> <r_epik_Charging_Adjusted_Penalty>
0.0017582

> <i_epik_Tot_Q>
1

> <i_epik_Tot_abs_Q>
1

> <r_epik_Metal_State_Penalty>
-0

> <b_epik_Metal_Only>
0

> <s_lp_Force_Field>
OPLS_2005

> <r_lp_Energy>
18.6494

> <b_lp_Chiralities_Consistent>
1

> <s_lp_Variant>
AV-unprocessed.smi:1663-1

> <Gold.Version>
5.8.1

> <Gold.Id.Protein>
6NUR|6NUR_protein|mol2

> <Gold.PLP.Fitness>
44.4559

> <Gold.PLP.PLP>
-31.1376

> <Gold.PLP.part.hbond>
-3.7487

> <Gold.PLP.part.metal>
0.0000

> <Gold.PLP.part.buried>
0.4835

> <Gold.PLP.part.nonpolar>
-29.3648

> <Gold.PLP.part.repulsive>
0.3123

> <Gold.PLP.ligand.clash>
0.0000

> <Gold.PLP.ligand.torsion>
0.8067

> <Gold.PLP.Chemscore.Hbond>
3.9760

> <Gold.PLP.Chemscore.CHOScore>
1.0000

> <Gold.PLP.Chemscore.Metal>
0.0000

> <Gold.Chemscore.Hbonds>
donor molecule, donor type, donor heavy atom, donor atom, acceptor molecule, acceptor atom, score
      L1  H     2    39       P1 10186  1.86
      L1  H     7    29       P1  7948  1.00
      L1  H    10    30       P1  7948  0.98
      L1  C    15    34       P1  8028  1.00

> <Gold.PLP.Chemscore.Internal.Correction>
0.0036

> <Gold.Rescore>
     Score         DG    S(hbond)    S(metal)    S(lipo)     H(rot)  DE(clash)    DE(int)     intcor
     17.21     -19.94       2.73        0.00      73.56       1.28       0.82       1.91       ----

> <Gold.Chemscore.Fitness>
17.2097

> <Gold.Chemscore.DG>
-19.9386

> <Gold.Chemscore.ZeroCoef>
-5.4800

> <Gold.Chemscore.Hbond>
2.7310

> <Gold.Chemscore.Metal>
0.0000

> <Gold.Chemscore.Lipo>
73.5561

> <Gold.Chemscore.Internal_Hbond>
0.0000

> <Gold.Chemscore.DEClash>
0.8179

> <Gold.Chemscore.DEInternal>
1.9110

> <Gold.Chemscore.Rot>
1.2770

> <Gold.Chemscore.Internal.Correction>
   9.000000E+99

> <Gold.Chemscore.Hbonds>
donor molecule, donor type, donor heavy atom, donor atom, acceptor molecule, acceptor atom, score
      L1  H     2    39       P1 10186  0.80
      L1  H     7    29       P1  7948  1.00
      L1  H    10    30       P1  7948  0.91

> <Gold.Chemscore.Hbond.Weighted>
-9.1217

> <Gold.Chemscore.Metal.Weighted>
-0.0000

> <Gold.Chemscore.Lipo.Weighted>
-8.6061

> <Gold.Chemscore.Internal_Hbond.Weighted>
0.0000

> <Gold.Chemscore.DEClash.Weighted>
0.8179

> <Gold.Chemscore.DEInternal.Weighted>
1.9110

> <Gold.Chemscore.Rot.Weighted>
3.2691

> <Gold.Chemscore.Internal.Correction.Weighted>
   9.000000E+99

> <Gold.Protein.RotatedTorsions>
[ 6907 6896 6895 6894 ] final -154.58 input  -60.11 | X-H torsion
[ 7974 7965 7964 7962 ] final  -28.49 input  175.53 | X-H torsion
[ 8008 7997 7996 7995 ] final  -88.61 input   59.86 | X-H torsion
[ 10167 10162 10161 10158 ] final   -8.45 input  -65.29 | X-H torsion
[ 10718 10713 10712 10709 ] final   34.73 input   66.30 | X-H torsion
[ 10763 10752 10751 10750 ] final   54.27 input  -60.55 | X-H torsion
[ 11005 11000 10999 10996 ] final  -86.23 input  -57.11 | X-H torsion

> <Gold.Protein.ActiveResidues>
 VAL166  LYS551  ARG553  GLY616  TRP617  ASP618  TYR619  PRO620  LYS621  CYS622 
 ASP623  PHE694  ASN695  SER759  ASP760  ASP761  ALA762  ILE779  LEU786  VAL792 
 PHE793  MET794  SER795  GLU796  ALA797  LYS798  CYS799  TRP800  GLU811  SER814 

> <Gold.Protein.RotatedAtoms>
  151.2597  133.4308  159.2615 H   0  0  0  0  0  0  0  0  0  0  0  0  # atno 6907 bound_to 6896
  151.0542  134.9694  159.8237 H   0  0  0  0  0  0  0  0  0  0  0  0  # atno 6908 bound_to 6896
  152.5388  134.2550  159.8966 H   0  0  0  0  0  0  0  0  0  0  0  0  # atno 6909 bound_to 6896
  146.1284  140.5290  142.8704 H   0  0  0  0  0  0  0  0  0  0  0  0  # atno 7974 bound_to 7965
  154.6768  140.0551  157.0224 H   0  0  0  0  0  0  0  0  0  0  0  0  # atno 8008 bound_to 7997
  155.1009  140.3229  155.4529 H   0  0  0  0  0  0  0  0  0  0  0  0  # atno 8009 bound_to 7997
  156.2679  140.2031  156.6135 H   0  0  0  0  0  0  0  0  0  0  0  0  # atno 8010 bound_to 7997
  140.7059  143.5967  150.8839 H   0  0  0  0  0  0  0  0  0  0  0  0  # atno 10167 bound_to 10162
  157.3140  130.7413  149.6742 H   0  0  0  0  0  0  0  0  0  0  0  0  # atno 10718 bound_to 10713
  152.9803  135.5750  154.4877 H   0  0  0  0  0  0  0  0  0  0  0  0  # atno 10763 bound_to 10752
  154.4416  135.2776  155.1845 H   0  0  0  0  0  0  0  0  0  0  0  0  # atno 10764 bound_to 10752
  154.3511  135.6209  153.5697 H   0  0  0  0  0  0  0  0  0  0  0  0  # atno 10765 bound_to 10752
  141.1632  133.7443  156.9131 H   0  0  0  0  0  0  0  0  0  0  0  0  # atno 11005 bound_to 11000
  144.7666  140.5543  143.6699 LP  0  0  0  0  0  0  0  0  0  0  0  0  # atno 17320 bound_to 7965
  145.5314  139.1475  143.3497 LP  0  0  0  0  0  0  0  0  0  0  0  0  # atno 17321 bound_to 7965
  139.9692  143.6076  152.2979 LP  0  0  0  0  0  0  0  0  0  0  0  0  # atno 17342 bound_to 10162
  139.6657  144.7662  151.1879 LP  0  0  0  0  0  0  0  0  0  0  0  0  # atno 17343 bound_to 10162
  155.9680  130.4243  150.4601 LP  0  0  0  0  0  0  0  0  0  0  0  0  # atno 17370 bound_to 10713
  157.2605  131.0566  151.2323 LP  0  0  0  0  0  0  0  0  0  0  0  0  # atno 17371 bound_to 10713
  140.1503  134.9234  157.2584 LP  0  0  0  0  0  0  0  0  0  0  0  0  # atno 17394 bound_to 11000
  140.2731  134.3437  155.7367 LP  0  0  0  0  0  0  0  0  0  0  0  0  # atno 17395 bound_to 11000

$$$$
