AV-unprocessed.smi:227|AV-procd|sdf|1734|dock5
  -GOLD-   2262020233D 1   1.00000     0.00000
 Structure written by MMmdl.
 54 58  0  0  0  0  0  0  0  0  1 V2000
  150.4664  139.7874  154.2444 O   0  0  0  0  0  0  0  0  0  0  0  0
  149.3406  138.9339  154.2315 C   0  0  0  0  0  0  0  0  0  0  0  0
  148.0656  139.6784  153.7577 C   0  0  1  0  0  0  0  0  0  0  0  0
  146.7780  138.9583  154.2581 C   0  0  0  0  0  0  0  0  0  0  0  0
  146.3722  137.8225  153.4421 N   0  0  0  0  0  0  0  0  0  0  0  0
  145.6964  137.8710  152.2449 C   0  0  0  0  0  0  0  0  0  0  0  0
  145.4487  136.7128  151.6993 N   0  0  0  0  0  0  0  0  0  0  0  0
  145.9795  135.7868  152.5903 C   0  0  0  0  0  0  0  0  0  0  0  0
  146.0666  134.3623  152.6249 C   0  0  0  0  0  0  0  0  0  0  0  0
  145.5915  133.5285  151.6573 N   0  0  0  0  0  0  0  0  0  0  0  0
  144.5785  132.5243  151.9499 C   0  0  1  0  0  0  0  0  0  0  0  0
  143.2840  133.3423  152.1253 C   0  0  0  0  0  0  0  0  0  0  0  0
  143.5049  134.4698  151.1053 C   0  0  0  0  0  0  0  0  0  0  0  0
  144.8784  134.0790  150.5111 C   0  0  2  0  0  0  0  0  0  0  0  0
  144.7741  132.8396  149.5935 C   0  0  2  0  0  0  0  0  0  0  0  0
  143.7689  132.9003  148.4276 C   0  0  0  0  0  0  0  0  0  0  0  0
  143.5825  134.2349  148.0073 O   0  0  0  0  0  0  0  0  0  0  0  0
  144.4926  131.7371  150.6293 C   0  0  0  0  0  0  0  0  0  0  0  0
  146.6485  133.8045  153.7198 N   0  0  0  0  0  0  0  0  0  0  0  0
  147.1324  134.5711  154.6996 C   0  0  0  0  0  0  0  0  0  0  0  0
  147.1377  135.9006  154.7898 N   0  0  0  0  0  0  0  0  0  0  0  0
  146.5466  136.4738  153.7036 C   0  0  0  0  0  0  0  0  0  0  0  0
  148.0980  141.1904  154.1474 C   0  0  2  0  0  0  0  0  0  0  0  0
  148.2341  141.4455  155.6462 C   0  0  0  0  0  0  0  0  0  0  0  0
  146.7953  141.4011  156.1615 C   0  0  0  0  0  0  0  0  0  0  0  0
  145.9669  141.6375  155.0293 O   0  0  0  0  0  0  0  0  0  0  0  0
  146.7860  141.9534  153.9133 C   0  0  0  0  0  0  0  0  0  0  0  0
  150.7046  139.9569  155.1432 H   0  0  0  0  0  0  0  0  0  0  0  0
  149.5490  138.0673  153.6048 H   0  0  0  0  0  0  0  0  0  0  0  0
  149.2367  138.5660  155.2496 H   0  0  0  0  0  0  0  0  0  0  0  0
  148.0547  139.6212  152.6684 H   0  0  0  0  0  0  0  0  0  0  0  0
  146.8912  138.6190  155.2862 H   0  0  0  0  0  0  0  0  0  0  0  0
  145.9422  139.6573  154.2950 H   0  0  0  0  0  0  0  0  0  0  0  0
  145.3966  138.8000  151.7817 H   0  0  0  0  0  0  0  0  0  0  0  0
  144.7919  131.8659  152.7896 H   0  0  0  0  0  0  0  0  0  0  0  0
  142.3857  132.7575  151.9251 H   0  0  0  0  0  0  0  0  0  0  0  0
  143.2069  133.7461  153.1357 H   0  0  0  0  0  0  0  0  0  0  0  0
  142.7085  134.5486  150.3674 H   0  0  0  0  0  0  0  0  0  0  0  0
  143.5663  135.4317  151.6160 H   0  0  0  0  0  0  0  0  0  0  0  0
  145.3826  134.9103  150.0174 H   0  0  0  0  0  0  0  0  0  0  0  0
  145.7637  132.6573  149.1699 H   0  0  0  0  0  0  0  0  0  0  0  0
  144.1486  132.3251  147.5828 H   0  0  0  0  0  0  0  0  0  0  0  0
  142.8070  132.4621  148.6910 H   0  0  0  0  0  0  0  0  0  0  0  0
  144.4245  134.6631  147.9834 H   0  0  0  0  0  0  0  0  0  0  0  0
  145.2609  130.9642  150.5824 H   0  0  0  0  0  0  0  0  0  0  0  0
  143.5236  131.2544  150.4967 H   0  0  0  0  0  0  0  0  0  0  0  0
  147.5800  134.0438  155.5291 H   0  0  0  0  0  0  0  0  0  0  0  0
  148.9054  141.6795  153.6012 H   0  0  0  0  0  0  0  0  0  0  0  0
  148.8848  140.7573  156.1812 H   0  0  0  0  0  0  0  0  0  0  0  0
  148.6402  142.4463  155.8012 H   0  0  0  0  0  0  0  0  0  0  0  0
  146.5560  140.4201  156.5730 H   0  0  0  0  0  0  0  0  0  0  0  0
  146.6218  142.1466  156.9379 H   0  0  0  0  0  0  0  0  0  0  0  0
  146.9782  143.0277  153.9275 H   0  0  0  0  0  0  0  0  0  0  0  0
  146.2812  141.7424  152.9738 H   0  0  0  0  0  0  0  0  0  0  0  0
  1  2  1  0  0  0  0
  1 28  1  0  0  0  0
  2  3  1  0  0  0  0
  2 29  1  0  0  0  0
  2 30  1  0  0  0  0
  3  4  1  0  0  0  0
  3 23  1  0  0  0  0
  3 31  1  0  0  0  0
  4  5  1  0  0  0  0
  4 32  1  0  0  0  0
  4 33  1  0  0  0  0
  5 22  1  0  0  0  0
  5  6  1  0  0  0  0
  6  7  2  0  0  0  0
  6 34  1  0  0  0  0
  7  8  1  0  0  0  0
  8 22  2  0  0  0  0
  8  9  1  0  0  0  0
  9 10  1  0  0  0  0
  9 19  2  0  0  0  0
 10 14  1  0  0  0  0
 10 11  1  0  0  0  0
 11 18  1  0  0  0  0
 11 12  1  0  0  0  0
 11 35  1  0  0  0  0
 12 13  1  0  0  0  0
 12 36  1  0  0  0  0
 12 37  1  0  0  0  0
 13 14  1  0  0  0  0
 13 38  1  0  0  0  0
 13 39  1  0  0  0  0
 14 15  1  0  0  0  0
 14 40  1  0  0  0  0
 15 16  1  0  0  0  0
 15 18  1  0  0  0  0
 15 41  1  0  0  0  0
 16 17  1  0  0  0  0
 16 42  1  0  0  0  0
 16 43  1  0  0  0  0
 17 44  1  0  0  0  0
 18 45  1  0  0  0  0
 18 46  1  0  0  0  0
 19 20  1  0  0  0  0
 20 21  2  0  0  0  0
 20 47  1  0  0  0  0
 21 22  1  0  0  0  0
 23 27  1  0  0  0  0
 23 24  1  0  0  0  0
 23 48  1  0  0  0  0
 24 25  1  0  0  0  0
 24 49  1  0  0  0  0
 24 50  1  0  0  0  0
 25 26  1  0  0  0  0
 25 51  1  0  0  0  0
 25 52  1  0  0  0  0
 26 27  1  0  0  0  0
 27 53  1  0  0  0  0
 27 54  1  0  0  0  0
M  END
> <s_m_source_file>
AV-unprocessed.smi

> <i_m_source_file_index>
227

> <i_lp_mmshare_version>
43012

> <i_f3d_flags>
0

> <s_epik_input>
W0NIMl0xT1tDSDJdW0NIMl1bQ0BIXTFbQ0BIXShbQ0gyXVtPSF0pW0NIMl1uKFtjSF1uMiljKGMyMyluW2NIXW5jM04oW0NASF00NSlbQ0BASF0oW0NIMl1bQ0gyXTQpW0NASF0oW0NIMl01KVtDSDJdW09IXQ==

> <s_epik_cmdline>
J2VwaWtfcHl0aG9uJywgJy1waCcsICc3LjAnLCAnLXRuJywgJzgnLCAnLW1hJywgJzIwMCcsICctbWV0YWxfYmluZGluZycsICctaW1hZScsICc8aW5maWxlLm1hZT4nLCAnLW9tYWUnLCAnPG91dGZpbGUubWFlPic=

> <r_lp_tautomer_probability>
1

> <r_epik_Ionization_Penalty>
0.0055791

> <r_epik_Ionization_Penalty_Charging>
0

> <r_epik_Ionization_Penalty_Neutral>
0.0055791

> <r_epik_State_Penalty>
0.00401299

> <r_epik_Charging_Adjusted_Penalty>
0.00401299

> <i_epik_Tot_Q>
0

> <i_epik_Tot_abs_Q>
0

> <r_epik_Metal_State_Penalty>
-0

> <b_epik_Metal_Only>
0

> <s_lp_Force_Field>
OPLS_2005

> <r_lp_Energy>
91.5897

> <b_lp_Chiralities_Consistent>
1

> <s_lp_Variant>
AV-unprocessed.smi:227-8

> <Gold.Version>
5.8.1

> <Gold.Id.Protein>
6NUR|6NUR_protein|mol2

> <Gold.PLP.Fitness>
47.8775

> <Gold.PLP.PLP>
-36.2739

> <Gold.PLP.part.hbond>
-4.5823

> <Gold.PLP.part.metal>
0.0000

> <Gold.PLP.part.buried>
1.9278

> <Gold.PLP.part.nonpolar>
-35.0186

> <Gold.PLP.part.repulsive>
0.7993

> <Gold.PLP.ligand.clash>
0.0000

> <Gold.PLP.ligand.torsion>
1.3617

> <Gold.PLP.Chemscore.Hbond>
3.0000

> <Gold.PLP.Chemscore.CHOScore>
1.7265

> <Gold.PLP.Chemscore.Metal>
0.0000

> <Gold.Chemscore.Hbonds>
donor molecule, donor type, donor heavy atom, donor atom, acceptor molecule, acceptor atom, score
      L1  H    17    44       P1  7921  1.00
      P1  H  7989  7998       L1     1  0.90
      P1  H 10192 10197       L1    17  1.00
      L1  C     6    34       P1 10171  0.73
      L1  C     6    34       P1 10175  1.00

> <Gold.PLP.Chemscore.Internal.Correction>
0.1475

> <Gold.Rescore>
     Score         DG    S(hbond)    S(metal)    S(lipo)     H(rot)  DE(clash)    DE(int)     intcor
     10.39     -16.07       2.64        0.00      93.97       3.61       1.10       4.58       ----

> <Gold.Chemscore.Fitness>
10.3913

> <Gold.Chemscore.DG>
-16.0706

> <Gold.Chemscore.ZeroCoef>
-5.4800

> <Gold.Chemscore.Hbond>
2.6438

> <Gold.Chemscore.Metal>
0.0000

> <Gold.Chemscore.Lipo>
93.9697

> <Gold.Chemscore.Internal_Hbond>
0.0000

> <Gold.Chemscore.DEClash>
1.0978

> <Gold.Chemscore.DEInternal>
4.5814

> <Gold.Chemscore.Rot>
3.6071

> <Gold.Chemscore.Internal.Correction>
   9.000000E+99

> <Gold.Chemscore.Hbonds>
donor molecule, donor type, donor heavy atom, donor atom, acceptor molecule, acceptor atom, score
      L1  H    17    44       P1  7921  0.99
      P1  H  7989  7998       L1     1  0.18
      P1  H 10192 10197       L1    17  0.91

> <Gold.Chemscore.Hbond.Weighted>
-8.8303

> <Gold.Chemscore.Metal.Weighted>
-0.0000

> <Gold.Chemscore.Lipo.Weighted>
-10.9945

> <Gold.Chemscore.Internal_Hbond.Weighted>
0.0000

> <Gold.Chemscore.DEClash.Weighted>
1.0978

> <Gold.Chemscore.DEInternal.Weighted>
4.5814

> <Gold.Chemscore.Rot.Weighted>
9.2342

> <Gold.Chemscore.Internal.Correction.Weighted>
   9.000000E+99

> <Gold.Protein.RotatedTorsions>
[ 6907 6896 6895 6894 ] final  173.28 input  -60.11 | X-H torsion
[ 7974 7965 7964 7962 ] final   76.44 input  175.53 | X-H torsion
[ 8008 7997 7996 7995 ] final -118.49 input   59.86 | X-H torsion
[ 10167 10162 10161 10158 ] final   88.16 input  -65.29 | X-H torsion
[ 10718 10713 10712 10709 ] final  165.61 input   66.30 | X-H torsion
[ 10763 10752 10751 10750 ] final -122.59 input  -60.55 | X-H torsion
[ 11005 11000 10999 10996 ] final  -99.40 input  -57.11 | X-H torsion

> <Gold.Protein.ActiveResidues>
 VAL166  LYS551  ARG553  GLY616  TRP617  ASP618  TYR619  PRO620  LYS621  CYS622 
 ASP623  PHE694  ASN695  SER759  ASP760  ASP761  ALA762  ILE779  LEU786  VAL792 
 PHE793  MET794  SER795  GLU796  ALA797  LYS798  CYS799  TRP800  GLU811  SER814 

> <Gold.Protein.RotatedAtoms>
  151.7708  133.3341  159.3443 H   0  0  0  0  0  0  0  0  0  0  0  0  # atno 6907 bound_to 6896
  150.7462  134.6020  159.6051 H   0  0  0  0  0  0  0  0  0  0  0  0  # atno 6908 bound_to 6896
  152.3342  134.7221  160.0333 H   0  0  0  0  0  0  0  0  0  0  0  0  # atno 6909 bound_to 6896
  145.7028  139.2588  143.1695 H   0  0  0  0  0  0  0  0  0  0  0  0  # atno 7974 bound_to 7965
  155.1005  140.0396  157.2695 H   0  0  0  0  0  0  0  0  0  0  0  0  # atno 8008 bound_to 7997
  154.6761  140.2623  155.6931 H   0  0  0  0  0  0  0  0  0  0  0  0  # atno 8009 bound_to 7997
  156.2677  140.2788  156.1289 H   0  0  0  0  0  0  0  0  0  0  0  0  # atno 8010 bound_to 7997
  139.8701  144.6497  150.8959 H   0  0  0  0  0  0  0  0  0  0  0  0  # atno 10167 bound_to 10162
  157.0777  131.0383  151.2587 H   0  0  0  0  0  0  0  0  0  0  0  0  # atno 10718 bound_to 10713
  154.8692  135.4127  154.2806 H   0  0  0  0  0  0  0  0  0  0  0  0  # atno 10763 bound_to 10752
  153.3700  135.7007  153.6651 H   0  0  0  0  0  0  0  0  0  0  0  0  # atno 10764 bound_to 10752
  153.5517  135.3627  155.2734 H   0  0  0  0  0  0  0  0  0  0  0  0  # atno 10765 bound_to 10752
  141.1310  133.8319  157.0967 H   0  0  0  0  0  0  0  0  0  0  0  0  # atno 11005 bound_to 11000
  146.0783  140.7793  142.9654 LP  0  0  0  0  0  0  0  0  0  0  0  0  # atno 17320 bound_to 7965
  144.6964  140.3449  143.7192 LP  0  0  0  0  0  0  0  0  0  0  0  0  # atno 17321 bound_to 7965
  140.7762  143.3671  151.1718 LP  0  0  0  0  0  0  0  0  0  0  0  0  # atno 17342 bound_to 10162
  139.7292  143.9100  152.3013 LP  0  0  0  0  0  0  0  0  0  0  0  0  # atno 17343 bound_to 10162
  157.4826  130.7774  149.7428 LP  0  0  0  0  0  0  0  0  0  0  0  0  # atno 17370 bound_to 10713
  155.9932  130.3926  150.2909 LP  0  0  0  0  0  0  0  0  0  0  0  0  # atno 17371 bound_to 10713
  140.0359  134.9878  157.0869 LP  0  0  0  0  0  0  0  0  0  0  0  0  # atno 17394 bound_to 11000
  140.4212  134.1879  155.7164 LP  0  0  0  0  0  0  0  0  0  0  0  0  # atno 17395 bound_to 11000

$$$$
