AV-unprocessed.smi:3335|AV-procd|sdf|12845|dock8
  -GOLD-   2272019233D 1   1.00000     0.00000
 Structure written by MMmdl.
 46 47  0  0  0  0  0  0  0  0  1 V2000
  144.1951  137.8622  156.1881 C   0  0  0  0  0  0  0  0  0  0  0  0
  145.3234  138.8493  156.2682 C   0  0  0  0  0  0  0  0  0  0  0  0
  146.2686  139.0142  157.3200 C   0  0  0  0  0  0  0  0  0  0  0  0
  147.1375  139.9822  157.0827 N   0  0  0  0  0  0  0  0  0  0  0  0
  146.7839  140.4683  155.8718 N   0  0  0  0  0  0  0  0  0  0  0  0
  147.5232  141.5751  155.2777 C   0  0  2  0  0  0  0  0  0  0  0  0
  146.8513  142.0177  153.9630 C   0  0  0  0  0  0  0  0  0  0  0  0
  149.0281  141.2356  155.1009 C   0  0  2  0  0  0  0  0  0  0  0  0
  149.2819  139.9734  154.2557 C   0  0  0  0  0  0  0  0  0  0  0  0
  149.6214  140.9967  156.4146 N   0  0  0  0  0  0  0  0  0  0  0  0
  151.0317  141.4099  156.5167 C   0  0  2  0  0  0  0  0  0  0  0  0
  151.9575  140.3949  155.8189 C   0  0  0  0  0  0  0  0  0  0  0  0
  151.4454  141.5576  157.9946 C   0  0  0  0  0  0  0  0  0  0  0  0
  151.6290  140.5410  158.6675 O   0  0  0  0  0  0  0  0  0  0  0  0
  151.6041  142.7927  158.5196 N   0  0  0  0  0  0  0  0  0  0  0  0
  151.9848  143.0265  159.9123 C   0  0  0  0  0  0  0  0  0  0  0  0
  151.8312  144.5300  160.1416 C   0  0  0  0  0  0  0  0  0  0  0  0
  152.0006  145.1348  158.7558 C   0  0  0  0  0  0  0  0  0  0  0  0
  151.4517  144.0646  157.8123 C   0  0  0  0  0  0  0  0  0  0  0  0
  145.6909  139.8007  155.3594 C   0  0  0  0  0  0  0  0  0  0  0  0
  143.9375  137.4611  157.1685 H   0  0  0  0  0  0  0  0  0  0  0  0
  144.4474  137.0153  155.5500 H   0  0  0  0  0  0  0  0  0  0  0  0
  143.2912  138.3152  155.7802 H   0  0  0  0  0  0  0  0  0  0  0  0
  146.3467  138.4625  158.2452 H   0  0  0  0  0  0  0  0  0  0  0  0
  147.4450  142.4073  155.9795 H   0  0  0  0  0  0  0  0  0  0  0  0
  147.2940  142.9368  153.5790 H   0  0  0  0  0  0  0  0  0  0  0  0
  145.7886  142.2101  154.1123 H   0  0  0  0  0  0  0  0  0  0  0  0
  146.9466  141.2568  153.1879 H   0  0  0  0  0  0  0  0  0  0  0  0
  149.5162  142.0700  154.5947 H   0  0  0  0  0  0  0  0  0  0  0  0
  148.9434  140.1033  153.2278 H   0  0  0  0  0  0  0  0  0  0  0  0
  148.7645  139.1068  154.6687 H   0  0  0  0  0  0  0  0  0  0  0  0
  150.3459  139.7370  154.2117 H   0  0  0  0  0  0  0  0  0  0  0  0
  149.4983  140.0299  156.6797 H   0  0  0  0  0  0  0  0  0  0  0  0
  151.1292  142.3766  156.0240 H   0  0  0  0  0  0  0  0  0  0  0  0
  153.0053  140.6807  155.9180 H   0  0  0  0  0  0  0  0  0  0  0  0
  151.7472  140.3235  154.7518 H   0  0  0  0  0  0  0  0  0  0  0  0
  151.8464  139.3961  156.2433 H   0  0  0  0  0  0  0  0  0  0  0  0
  151.3688  142.4550  160.6084 H   0  0  0  0  0  0  0  0  0  0  0  0
  153.0234  142.7231  160.0516 H   0  0  0  0  0  0  0  0  0  0  0  0
  150.8279  144.7435  160.5129 H   0  0  0  0  0  0  0  0  0  0  0  0
  152.5457  144.9230  160.8653 H   0  0  0  0  0  0  0  0  0  0  0  0
  151.4950  146.0948  158.6474 H   0  0  0  0  0  0  0  0  0  0  0  0
  153.0612  145.2908  158.5542 H   0  0  0  0  0  0  0  0  0  0  0  0
  151.9828  144.0764  156.8596 H   0  0  0  0  0  0  0  0  0  0  0  0
  150.3925  144.2382  157.6172 H   0  0  0  0  0  0  0  0  0  0  0  0
  145.2658  140.0579  154.4004 H   0  0  0  0  0  0  0  0  0  0  0  0
  1  2  1  0  0  0  0
  1 21  1  0  0  0  0
  1 22  1  0  0  0  0
  1 23  1  0  0  0  0
  2 20  2  0  0  0  0
  2  3  1  0  0  0  0
  3  4  2  0  0  0  0
  3 24  1  0  0  0  0
  4  5  1  0  0  0  0
  5  6  1  0  0  0  0
  5 20  1  0  0  0  0
  6  7  1  0  0  0  0
  6  8  1  0  0  0  0
  6 25  1  0  0  0  0
  7 26  1  0  0  0  0
  7 27  1  0  0  0  0
  7 28  1  0  0  0  0
  8  9  1  0  0  0  0
  8 10  1  0  0  0  0
  8 29  1  0  0  0  0
  9 30  1  0  0  0  0
  9 31  1  0  0  0  0
  9 32  1  0  0  0  0
 10 11  1  0  0  0  0
 10 33  1  0  0  0  0
 11 12  1  0  0  0  0
 11 13  1  0  0  0  0
 11 34  1  0  0  0  0
 12 35  1  0  0  0  0
 12 36  1  0  0  0  0
 12 37  1  0  0  0  0
 13 14  2  0  0  0  0
 13 15  1  0  0  0  0
 15 19  1  0  0  0  0
 15 16  1  0  0  0  0
 16 17  1  0  0  0  0
 16 38  1  0  0  0  0
 16 39  1  0  0  0  0
 17 18  1  0  0  0  0
 17 40  1  0  0  0  0
 17 41  1  0  0  0  0
 18 19  1  0  0  0  0
 18 42  1  0  0  0  0
 18 43  1  0  0  0  0
 19 44  1  0  0  0  0
 19 45  1  0  0  0  0
 20 46  1  0  0  0  0
M  END
> <s_m_source_file>
AV-unprocessed.smi

> <i_m_source_file_index>
3335

> <i_lp_mmshare_version>
43012

> <i_f3d_flags>
0

> <s_epik_input>
W0NIM11jMVtjSF1ubihbY0hdMSlbQ0BIXShbQ0gzXSlbQ0BIXShbQ0gzXSlbTkhdW0NASF0oW0NIM10pQyg9TylOMltDSDJdW0NIMl1bQ0gyXVtDSDJdMg==

> <s_epik_cmdline>
J2VwaWtfcHl0aG9uJywgJy1waCcsICc3LjAnLCAnLXRuJywgJzgnLCAnLW1hJywgJzIwMCcsICctbWV0YWxfYmluZGluZycsICctaW1hZScsICc8aW5maWxlLm1hZT4nLCAnLW9tYWUnLCAnPG91dGZpbGUubWFlPic=

> <r_lp_tautomer_probability>
1

> <r_epik_Ionization_Penalty>
0.918803

> <r_epik_Ionization_Penalty_Charging>
0

> <r_epik_Ionization_Penalty_Neutral>
0.918803

> <r_epik_State_Penalty>
0.958258

> <r_epik_Charging_Adjusted_Penalty>
0.958258

> <i_epik_Tot_Q>
0

> <i_epik_Tot_abs_Q>
0

> <r_epik_Metal_State_Penalty>
0.956786

> <b_epik_Metal_Only>
0

> <s_lp_Force_Field>
OPLS_2005

> <r_lp_Energy>
39.0848

> <b_lp_Chiralities_Consistent>
1

> <s_lp_Variant>
AV-unprocessed.smi:3335-9

> <Gold.Version>
5.8.1

> <Gold.Id.Protein>
6NUR|6NUR_protein|mol2

> <Gold.PLP.Fitness>
39.1316

> <Gold.PLP.PLP>
-37.8011

> <Gold.PLP.part.hbond>
0.0000

> <Gold.PLP.part.metal>
0.0000

> <Gold.PLP.part.buried>
-4.7685

> <Gold.PLP.part.nonpolar>
-33.6995

> <Gold.PLP.part.repulsive>
0.0000

> <Gold.PLP.ligand.clash>
0.0000

> <Gold.PLP.ligand.torsion>
0.8913

> <Gold.PLP.Chemscore.Hbond>
0.0000

> <Gold.PLP.Chemscore.CHOScore>
1.0000

> <Gold.PLP.Chemscore.Metal>
0.0000

> <Gold.Chemscore.Hbonds>
donor molecule, donor type, donor heavy atom, donor atom, acceptor molecule, acceptor atom, score
      L1  C    20    46       P1 10175  1.00

> <Gold.PLP.Chemscore.Internal.Correction>
0.1131

> <Gold.Rescore>
     Score         DG    S(hbond)    S(metal)    S(lipo)     H(rot)  DE(clash)    DE(int)     intcor
     11.12     -12.25       0.00        0.00      93.33       1.62       0.02       1.12       ----

> <Gold.Chemscore.Fitness>
11.1155

> <Gold.Chemscore.DG>
-12.2515

> <Gold.Chemscore.ZeroCoef>
-5.4800

> <Gold.Chemscore.Hbond>
0.0000

> <Gold.Chemscore.Metal>
0.0000

> <Gold.Chemscore.Lipo>
93.3308

> <Gold.Chemscore.Internal_Hbond>
0.0000

> <Gold.Chemscore.DEClash>
0.0202

> <Gold.Chemscore.DEInternal>
1.1157

> <Gold.Chemscore.Rot>
1.6204

> <Gold.Chemscore.Internal.Correction>
   9.000000E+99

> <Gold.Chemscore.Hbond.Weighted>
-0.0000

> <Gold.Chemscore.Metal.Weighted>
-0.0000

> <Gold.Chemscore.Lipo.Weighted>
-10.9197

> <Gold.Chemscore.Internal_Hbond.Weighted>
0.0000

> <Gold.Chemscore.DEClash.Weighted>
0.0202

> <Gold.Chemscore.DEInternal.Weighted>
1.1157

> <Gold.Chemscore.Rot.Weighted>
4.1482

> <Gold.Chemscore.Internal.Correction.Weighted>
   9.000000E+99

> <Gold.Protein.RotatedTorsions>
[ 6907 6896 6895 6894 ] final -126.72 input  -60.11 | X-H torsion
[ 7974 7965 7964 7962 ] final  165.50 input  175.53 | X-H torsion
[ 8008 7997 7996 7995 ] final   75.76 input   59.86 | X-H torsion
[ 10167 10162 10161 10158 ] final  -71.99 input  -65.29 | X-H torsion
[ 10718 10713 10712 10709 ] final   36.35 input   66.30 | X-H torsion
[ 10763 10752 10751 10750 ] final  166.10 input  -60.55 | X-H torsion
[ 11005 11000 10999 10996 ] final  -23.62 input  -57.11 | X-H torsion

> <Gold.Protein.ActiveResidues>
 VAL166  LYS551  ARG553  GLY616  TRP617  ASP618  TYR619  PRO620  LYS621  CYS622 
 ASP623  PHE694  ASN695  SER759  ASP760  ASP761  ALA762  ILE779  LEU786  VAL792 
 PHE793  MET794  SER795  GLU796  ALA797  LYS798  CYS799  TRP800  GLU811  SER814 

> <Gold.Protein.RotatedAtoms>
  150.8999  133.7132  159.2881 H   0  0  0  0  0  0  0  0  0  0  0  0  # atno 6907 bound_to 6896
  151.4654  135.1040  159.9746 H   0  0  0  0  0  0  0  0  0  0  0  0  # atno 6908 bound_to 6896
  152.4870  133.8352  159.7179 H   0  0  0  0  0  0  0  0  0  0  0  0  # atno 6909 bound_to 6896
  144.7500  139.8479  143.6369 H   0  0  0  0  0  0  0  0  0  0  0  0  # atno 7974 bound_to 7965
  155.8175  140.3471  155.5494 H   0  0  0  0  0  0  0  0  0  0  0  0  # atno 8008 bound_to 7997
  155.8377  140.0936  157.1774 H   0  0  0  0  0  0  0  0  0  0  0  0  # atno 8009 bound_to 7997
  154.4004  140.1400  156.3677 H   0  0  0  0  0  0  0  0  0  0  0  0  # atno 8010 bound_to 7997
  140.5229  143.2329  151.7399 H   0  0  0  0  0  0  0  0  0  0  0  0  # atno 10167 bound_to 10162
  157.3338  130.7512  149.6865 H   0  0  0  0  0  0  0  0  0  0  0  0  # atno 10718 bound_to 10713
  154.3339  135.2754  155.2457 H   0  0  0  0  0  0  0  0  0  0  0  0  # atno 10763 bound_to 10752
  154.4757  135.5871  153.6357 H   0  0  0  0  0  0  0  0  0  0  0  0  # atno 10764 bound_to 10752
  152.9864  135.6099  154.3534 H   0  0  0  0  0  0  0  0  0  0  0  0  # atno 10765 bound_to 10752
  140.8769  133.7681  156.0254 H   0  0  0  0  0  0  0  0  0  0  0  0  # atno 11005 bound_to 11000
  146.1436  139.4500  143.0093 LP  0  0  0  0  0  0  0  0  0  0  0  0  # atno 17320 bound_to 7965
  145.6979  141.0145  143.1520 LP  0  0  0  0  0  0  0  0  0  0  0  0  # atno 17321 bound_to 7965
  139.4929  144.4229  151.9958 LP  0  0  0  0  0  0  0  0  0  0  0  0  # atno 17342 bound_to 10162
  140.3326  144.3298  150.5984 LP  0  0  0  0  0  0  0  0  0  0  0  0  # atno 17343 bound_to 10162
  155.9699  130.4187  150.4341 LP  0  0  0  0  0  0  0  0  0  0  0  0  # atno 17370 bound_to 10713
  157.2378  131.0518  151.2454 LP  0  0  0  0  0  0  0  0  0  0  0  0  # atno 17371 bound_to 10713
  140.8507  134.2957  157.5276 LP  0  0  0  0  0  0  0  0  0  0  0  0  # atno 17394 bound_to 11000
  139.8716  134.9466  156.3944 LP  0  0  0  0  0  0  0  0  0  0  0  0  # atno 17395 bound_to 11000

$$$$
