AV-unprocessed.smi:1336|AV-procd|sdf|5497|dock6
  -GOLD-   22720 5 83D 1   1.00000     0.00000
 Structure written by MMmdl.
 43 43  0  0  0  0  0  0  0  0  1 V2000
  144.3869  133.8157  161.9730 C   0  0  0  0  0  0  0  0  0  0  0  0
  145.6535  133.7877  162.8348 C   0  0  0  0  0  0  0  0  0  0  0  0
  146.5046  135.0570  162.6683 C   0  0  0  0  0  0  0  0  0  0  0  0
  147.2536  135.0421  161.4175 N   0  0  0  0  0  0  0  0  0  0  0  0
  147.8805  136.1000  160.8806 C   0  0  0  0  0  0  0  0  0  0  0  0
  147.8759  137.2199  161.3950 O   0  0  0  0  0  0  0  0  0  0  0  0
  148.6080  135.8534  159.5485 C   0  0  1  0  0  0  0  0  0  0  0  0
  147.5979  135.2564  158.5546 C   0  0  0  0  0  0  0  0  0  0  0  0
  149.1055  137.1096  158.9890 N   0  0  0  0  0  0  0  0  0  0  0  0
  150.3217  137.2893  158.4484 C   0  0  0  0  0  0  0  0  0  0  0  0
  151.1591  136.3907  158.3586 O   0  0  0  0  0  0  0  0  0  0  0  0
  150.6420  138.6968  157.9377 C   0  0  0  0  0  0  0  0  0  0  0  0
  151.7740  139.2971  158.7201 C   0  0  0  0  0  0  0  0  0  0  0  0
  152.8369  138.6301  159.2777 C   0  0  0  0  0  0  0  0  0  0  0  0
  153.9226  139.7130  160.1049 S   0  0  0  0  0  0  0  0  0  0  0  0
  152.8812  141.0577  159.6511 C   0  0  0  0  0  0  0  0  0  0  0  0
  153.1604  142.4777  160.0320 C   0  0  0  0  0  0  0  0  0  0  0  0
  153.1098  142.6871  161.5525 C   0  0  0  0  0  0  0  0  0  0  0  0
  152.2770  143.4676  159.2591 C   0  0  0  0  0  0  0  0  0  0  0  0
  151.8182  140.6782  158.9357 N   0  0  0  0  0  0  0  0  0  0  0  0
  143.8011  132.9071  162.1133 H   0  0  0  0  0  0  0  0  0  0  0  0
  144.6337  133.8924  160.9137 H   0  0  0  0  0  0  0  0  0  0  0  0
  143.7528  134.6640  162.2320 H   0  0  0  0  0  0  0  0  0  0  0  0
  145.3729  133.6689  163.8820 H   0  0  0  0  0  0  0  0  0  0  0  0
  146.2426  132.9084  162.5718 H   0  0  0  0  0  0  0  0  0  0  0  0
  145.8775  135.9487  162.7189 H   0  0  0  0  0  0  0  0  0  0  0  0
  147.2198  135.1347  163.4877 H   0  0  0  0  0  0  0  0  0  0  0  0
  147.3072  134.1604  160.9282 H   0  0  0  0  0  0  0  0  0  0  0  0
  149.4363  135.1564  159.6917 H   0  0  0  0  0  0  0  0  0  0  0  0
  147.2004  134.3072  158.9162 H   0  0  0  0  0  0  0  0  0  0  0  0
  148.0687  135.0633  157.5901 H   0  0  0  0  0  0  0  0  0  0  0  0
  146.7538  135.9257  158.3806 H   0  0  0  0  0  0  0  0  0  0  0  0
  148.4836  137.9037  159.0324 H   0  0  0  0  0  0  0  0  0  0  0  0
  150.8910  138.6643  156.8760 H   0  0  0  0  0  0  0  0  0  0  0  0
  149.7434  139.3087  158.0231 H   0  0  0  0  0  0  0  0  0  0  0  0
  153.0442  137.5706  159.2554 H   0  0  0  0  0  0  0  0  0  0  0  0
  154.1880  142.6806  159.7279 H   0  0  0  0  0  0  0  0  0  0  0  0
  153.8091  142.0243  162.0632 H   0  0  0  0  0  0  0  0  0  0  0  0
  152.1129  142.4875  161.9470 H   0  0  0  0  0  0  0  0  0  0  0  0
  153.3727  143.7116  161.8168 H   0  0  0  0  0  0  0  0  0  0  0  0
  152.4028  143.3480  158.1826 H   0  0  0  0  0  0  0  0  0  0  0  0
  152.5307  144.4982  159.5089 H   0  0  0  0  0  0  0  0  0  0  0  0
  151.2215  143.3208  159.4901 H   0  0  0  0  0  0  0  0  0  0  0  0
  1  2  1  0  0  0  0
  1 21  1  0  0  0  0
  1 22  1  0  0  0  0
  1 23  1  0  0  0  0
  2  3  1  0  0  0  0
  2 24  1  0  0  0  0
  2 25  1  0  0  0  0
  3  4  1  0  0  0  0
  3 26  1  0  0  0  0
  3 27  1  0  0  0  0
  4  5  1  0  0  0  0
  4 28  1  0  0  0  0
  5  6  2  0  0  0  0
  5  7  1  0  0  0  0
  7  8  1  0  0  0  0
  7  9  1  0  0  0  0
  7 29  1  0  0  0  0
  8 30  1  0  0  0  0
  8 31  1  0  0  0  0
  8 32  1  0  0  0  0
  9 10  1  0  0  0  0
  9 33  1  0  0  0  0
 10 11  2  0  0  0  0
 10 12  1  0  0  0  0
 12 13  1  0  0  0  0
 12 34  1  0  0  0  0
 12 35  1  0  0  0  0
 13 20  1  0  0  0  0
 13 14  2  0  0  0  0
 14 15  1  0  0  0  0
 14 36  1  0  0  0  0
 15 16  1  0  0  0  0
 16 17  1  0  0  0  0
 16 20  2  0  0  0  0
 17 18  1  0  0  0  0
 17 19  1  0  0  0  0
 17 37  1  0  0  0  0
 18 38  1  0  0  0  0
 18 39  1  0  0  0  0
 18 40  1  0  0  0  0
 19 41  1  0  0  0  0
 19 42  1  0  0  0  0
 19 43  1  0  0  0  0
M  END
> <s_m_source_file>
AV-unprocessed.smi

> <i_m_source_file_index>
1336

> <i_lp_mmshare_version>
43012

> <i_f3d_flags>
0

> <s_epik_input>
W0NIM11bQ0gyXVtDSDJdW05IXUMoPU8pW0NASF0oW0NIM10pW05IXUMoPU8pW0NIMl1jMVtjSF1zYyhuMSlbQ0hdKFtDSDNdKVtDSDNd

> <s_epik_cmdline>
J2VwaWtfcHl0aG9uJywgJy1waCcsICc3LjAnLCAnLXRuJywgJzgnLCAnLW1hJywgJzIwMCcsICctbWV0YWxfYmluZGluZycsICctaW1hZScsICc8aW5maWxlLm1hZT4nLCAnLW9tYWUnLCAnPG91dGZpbGUubWFlPic=

> <r_lp_tautomer_probability>
1

> <r_epik_Ionization_Penalty>
3.10785e-05

> <r_epik_Ionization_Penalty_Charging>
0

> <r_epik_Ionization_Penalty_Neutral>
3.10785e-05

> <r_epik_State_Penalty>
-0

> <r_epik_Charging_Adjusted_Penalty>
0

> <i_epik_Tot_Q>
0

> <i_epik_Tot_abs_Q>
0

> <r_epik_Metal_State_Penalty>
-0

> <b_epik_Metal_Only>
0

> <s_lp_Force_Field>
OPLS_2005

> <r_lp_Energy>
-5.85781

> <b_lp_Chiralities_Consistent>
1

> <s_lp_Variant>
AV-unprocessed.smi:1336-2

> <Gold.Version>
5.8.1

> <Gold.Id.Protein>
6NUR|6NUR_protein|mol2

> <Gold.PLP.Fitness>
44.7523

> <Gold.PLP.PLP>
-39.4500

> <Gold.PLP.part.hbond>
-3.0000

> <Gold.PLP.part.metal>
0.0000

> <Gold.PLP.part.buried>
-4.9651

> <Gold.PLP.part.nonpolar>
-31.7667

> <Gold.PLP.part.repulsive>
0.2190

> <Gold.PLP.ligand.clash>
0.0000

> <Gold.PLP.ligand.torsion>
0.9435

> <Gold.PLP.Chemscore.Hbond>
2.3231

> <Gold.PLP.Chemscore.CHOScore>
0.0000

> <Gold.PLP.Chemscore.Metal>
0.0000

> <Gold.Chemscore.Hbonds>
donor molecule, donor type, donor heavy atom, donor atom, acceptor molecule, acceptor atom, score
      P1  H  6896  6908       L1    11  0.49
      P1  H  6931  6943       L1     6  1.00
      P1  H  6934  6947       L1     6  0.72

> <Gold.PLP.Chemscore.Internal.Correction>
0.2199

> <Gold.Rescore>
     Score         DG    S(hbond)    S(metal)    S(lipo)     H(rot)  DE(clash)    DE(int)     intcor
     17.25     -18.95       2.45        0.00      89.64       2.04       0.01       1.70       ----

> <Gold.Chemscore.Fitness>
17.2475

> <Gold.Chemscore.DG>
-18.9505

> <Gold.Chemscore.ZeroCoef>
-5.4800

> <Gold.Chemscore.Hbond>
2.4529

> <Gold.Chemscore.Metal>
0.0000

> <Gold.Chemscore.Lipo>
89.6423

> <Gold.Chemscore.Internal_Hbond>
0.0000

> <Gold.Chemscore.DEClash>
0.0069

> <Gold.Chemscore.DEInternal>
1.6960

> <Gold.Chemscore.Rot>
2.0353

> <Gold.Chemscore.Internal.Correction>
   9.000000E+99

> <Gold.Chemscore.Hbonds>
donor molecule, donor type, donor heavy atom, donor atom, acceptor molecule, acceptor atom, score
      P1  H  6896  6908       L1    11  0.42
      P1  H  6931  6943       L1     6  0.96
      P1  H  6934  6947       L1     6  0.70

> <Gold.Chemscore.Hbond.Weighted>
-8.1928

> <Gold.Chemscore.Metal.Weighted>
-0.0000

> <Gold.Chemscore.Lipo.Weighted>
-10.4881

> <Gold.Chemscore.Internal_Hbond.Weighted>
0.0000

> <Gold.Chemscore.DEClash.Weighted>
0.0069

> <Gold.Chemscore.DEInternal.Weighted>
1.6960

> <Gold.Chemscore.Rot.Weighted>
5.2104

> <Gold.Chemscore.Internal.Correction.Weighted>
   9.000000E+99

> <Gold.Protein.RotatedTorsions>
[ 6907 6896 6895 6894 ] final -172.87 input  -60.11 | X-H torsion
[ 7974 7965 7964 7962 ] final  119.53 input  175.53 | X-H torsion
[ 8008 7997 7996 7995 ] final  -34.02 input   59.86 | X-H torsion
[ 10167 10162 10161 10158 ] final  124.79 input  -65.29 | X-H torsion
[ 10718 10713 10712 10709 ] final  -59.28 input   66.30 | X-H torsion
[ 10763 10752 10751 10750 ] final  -12.56 input  -60.55 | X-H torsion
[ 11005 11000 10999 10996 ] final  173.66 input  -57.11 | X-H torsion

> <Gold.Protein.ActiveResidues>
 VAL166  LYS551  ARG553  GLY616  TRP617  ASP618  TYR619  PRO620  LYS621  CYS622 
 ASP623  PHE694  ASN695  SER759  ASP760  ASP761  ALA762  ILE779  LEU786  VAL792 
 PHE793  MET794  SER795  GLU796  ALA797  LYS798  CYS799  TRP800  GLU811  SER814 

> <Gold.Protein.RotatedAtoms>
  151.5469  133.3423  159.2945 H   0  0  0  0  0  0  0  0  0  0  0  0  # atno 6907 bound_to 6896
  150.8502  134.7826  159.7013 H   0  0  0  0  0  0  0  0  0  0  0  0  # atno 6908 bound_to 6896
  152.4550  134.5320  159.9865 H   0  0  0  0  0  0  0  0  0  0  0  0  # atno 6909 bound_to 6896
  145.1421  139.3262  143.4610 H   0  0  0  0  0  0  0  0  0  0  0  0  # atno 7974 bound_to 7965
  154.4132  140.1695  156.1982 H   0  0  0  0  0  0  0  0  0  0  0  0  # atno 8008 bound_to 7997
  155.9546  140.3398  155.6414 H   0  0  0  0  0  0  0  0  0  0  0  0  # atno 8009 bound_to 7997
  155.6826  140.0724  157.2469 H   0  0  0  0  0  0  0  0  0  0  0  0  # atno 8010 bound_to 7997
  139.5722  144.6945  151.3748 H   0  0  0  0  0  0  0  0  0  0  0  0  # atno 10167 bound_to 10162
  156.1073  130.4179  150.0693 H   0  0  0  0  0  0  0  0  0  0  0  0  # atno 10718 bound_to 10713
  153.5002  135.7017  153.5836 H   0  0  0  0  0  0  0  0  0  0  0  0  # atno 10763 bound_to 10752
  153.3970  135.3881  155.1962 H   0  0  0  0  0  0  0  0  0  0  0  0  # atno 10764 bound_to 10752
  154.8711  135.3872  154.4472 H   0  0  0  0  0  0  0  0  0  0  0  0  # atno 10765 bound_to 10752
  140.3429  134.7261  157.4215 H   0  0  0  0  0  0  0  0  0  0  0  0  # atno 11005 bound_to 11000
  146.3504  140.1462  142.8593 LP  0  0  0  0  0  0  0  0  0  0  0  0  # atno 17320 bound_to 7965
  145.0521  140.9025  143.4989 LP  0  0  0  0  0  0  0  0  0  0  0  0  # atno 17321 bound_to 7965
  140.7006  143.7641  150.7397 LP  0  0  0  0  0  0  0  0  0  0  0  0  # atno 17342 bound_to 10162
  140.1150  143.4664  152.2347 LP  0  0  0  0  0  0  0  0  0  0  0  0  # atno 17343 bound_to 10162
  156.8665  130.9509  151.3613 LP  0  0  0  0  0  0  0  0  0  0  0  0  # atno 17370 bound_to 10713
  157.6251  130.8685  149.9176 LP  0  0  0  0  0  0  0  0  0  0  0  0  # atno 17371 bound_to 10713
  140.0766  134.5788  155.8584 LP  0  0  0  0  0  0  0  0  0  0  0  0  # atno 17394 bound_to 11000
  141.2033  133.6631  156.6058 LP  0  0  0  0  0  0  0  0  0  0  0  0  # atno 17395 bound_to 11000

$$$$
