AV-unprocessed.smi:2059|AV-procd|sdf|8353|dock7
  -GOLD-   2272011 23D 1   1.00000     0.00000
 Structure written by MMmdl.
 29 30  0  0  0  0  0  0  0  0  2 V2000
  152.8538  143.2158  161.0019 C   0  0  0  0  0  0  0  0  0  0  0  0
  152.2261  143.2967  159.6528 C   0  0  0  0  0  0  0  0  0  0  0  0
  151.7427  142.3499  158.7944 C   0  0  0  0  0  0  0  0  0  0  0  0
  151.2842  143.1163  157.6890 C   0  0  0  0  0  0  0  0  0  0  0  0
  150.6948  142.4649  156.5673 N   0  0  0  0  0  0  0  0  0  0  0  0
  150.8957  141.2401  156.0349 C   0  0  0  0  0  0  0  0  0  0  0  0
  151.7424  140.5520  156.6142 O   0  0  0  0  0  0  0  0  0  0  0  0
  150.1702  140.8831  154.9354 N   0  5  0  0  0  0  0  0  0  0  0  0
  148.9262  141.5207  154.4976 C   0  0  1  0  0  0  0  0  0  0  0  0
  148.2442  140.6849  153.3964 C   0  0  0  0  0  0  0  0  0  0  0  0
  146.8030  141.1853  153.2195 C   0  0  0  0  0  0  0  0  0  0  0  0
  146.2703  141.7688  154.8758 S   0  0  0  0  0  0  0  0  0  0  0  0
  145.8607  143.1787  154.7759 O   0  0  0  0  0  0  0  0  0  0  0  0
  145.3808  140.7693  155.4875 O   0  0  0  0  0  0  0  0  0  0  0  0
  147.9278  141.6587  155.6574 C   0  0  0  0  0  0  0  0  0  0  0  0
  151.4745  144.4169  157.8629 N   0  0  0  0  0  0  0  0  0  0  0  0
  152.0770  144.5388  159.1201 O   0  0  0  0  0  0  0  0  0  0  0  0
  153.2967  142.2334  161.1663 H   0  0  0  0  0  0  0  0  0  0  0  0
  152.1126  143.3878  161.7823 H   0  0  0  0  0  0  0  0  0  0  0  0
  153.6403  143.9628  161.1106 H   0  0  0  0  0  0  0  0  0  0  0  0
  151.7205  141.2797  158.9365 H   0  0  0  0  0  0  0  0  0  0  0  0
  150.0122  143.0223  156.0760 H   0  0  0  0  0  0  0  0  0  0  0  0
  149.1031  142.5156  154.0857 H   0  0  0  0  0  0  0  0  0  0  0  0
  148.7973  140.7241  152.4574 H   0  0  0  0  0  0  0  0  0  0  0  0
  148.2129  139.6379  153.7028 H   0  0  0  0  0  0  0  0  0  0  0  0
  146.7577  142.0291  152.5293 H   0  0  0  0  0  0  0  0  0  0  0  0
  146.1290  140.4079  152.8604 H   0  0  0  0  0  0  0  0  0  0  0  0
  147.9368  140.7740  156.2953 H   0  0  0  0  0  0  0  0  0  0  0  0
  148.1136  142.5367  156.2757 H   0  0  0  0  0  0  0  0  0  0  0  0
  1  2  1  0  0  0  0
  1 18  1  0  0  0  0
  1 19  1  0  0  0  0
  1 20  1  0  0  0  0
  2 17  1  0  0  0  0
  2  3  2  0  0  0  0
  3  4  1  0  0  0  0
  3 21  1  0  0  0  0
  4  5  1  0  0  0  0
  4 16  2  0  0  0  0
  5  6  1  0  0  0  0
  5 22  1  0  0  0  0
  6  7  2  0  0  0  0
  6  8  1  0  0  0  0
  8  9  1  0  0  0  0
  9 15  1  0  0  0  0
  9 10  1  0  0  0  0
  9 23  1  0  0  0  0
 10 11  1  0  0  0  0
 10 24  1  0  0  0  0
 10 25  1  0  0  0  0
 11 12  1  0  0  0  0
 11 26  1  0  0  0  0
 11 27  1  0  0  0  0
 12 13  2  0  0  0  0
 12 14  2  0  0  0  0
 12 15  1  0  0  0  0
 15 28  1  0  0  0  0
 15 29  1  0  0  0  0
 16 17  1  0  0  0  0
M  CHG  1   8  -1
M  END
> <s_m_source_file>
AV-unprocessed.smi

> <i_m_source_file_index>
2059

> <i_lp_mmshare_version>
43012

> <i_f3d_flags>
0

> <s_epik_input>
W0NIM11jMVtjSF1jKG5vMSlbTkhdQyg9TylbTkhdW0NAQEhdKFtDSDJdMilbQ0gyXVtDSDJdUzIoPU8pPU8=

> <s_epik_cmdline>
J2VwaWtfcHl0aG9uJywgJy1waCcsICc3LjAnLCAnLXRuJywgJzgnLCAnLW1hJywgJzIwMCcsICctbWV0YWxfYmluZGluZycsICctaW1hZScsICc8aW5maWxlLm1hZT4nLCAnLW9tYWUnLCAnPG91dGZpbGUubWFlPic=

> <r_lp_tautomer_probability>
1

> <r_epik_Ionization_Penalty>
6.6071

> <r_epik_Ionization_Penalty_Charging>
6.60709

> <r_epik_Ionization_Penalty_Neutral>
5.42629e-06

> <r_epik_State_Penalty>
6.6352

> <r_epik_Charging_Adjusted_Penalty>
13.2423

> <i_epik_Tot_Q>
-1

> <i_epik_Tot_abs_Q>
1

> <r_epik_Metal_State_Penalty>
2.57602

> <b_epik_Metal_Only>
1

> <s_lp_Force_Field>
OPLS_2005

> <r_lp_Energy>
11.3948

> <b_lp_Chiralities_Consistent>
1

> <s_lp_Variant>
AV-unprocessed.smi:2059-6

> <Gold.Version>
5.8.1

> <Gold.Id.Protein>
6NUR|6NUR_protein|mol2

> <Gold.PLP.Fitness>
32.8900

> <Gold.PLP.PLP>
-28.6581

> <Gold.PLP.part.hbond>
-2.0000

> <Gold.PLP.part.metal>
0.0000

> <Gold.PLP.part.buried>
-1.6522

> <Gold.PLP.part.nonpolar>
-24.7817

> <Gold.PLP.part.repulsive>
0.6635

> <Gold.PLP.ligand.clash>
0.0000

> <Gold.PLP.ligand.torsion>
0.3779

> <Gold.PLP.Chemscore.Hbond>
1.6620

> <Gold.PLP.Chemscore.CHOScore>
0.0000

> <Gold.PLP.Chemscore.Metal>
0.0000

> <Gold.Chemscore.Hbonds>
donor molecule, donor type, donor heavy atom, donor atom, acceptor molecule, acceptor atom, score
      L1  H     5    22       P1  8028  0.88
      P1  H  7989  7998       L1     8  0.73

> <Gold.PLP.Chemscore.Internal.Correction>
0.0017

> <Gold.Rescore>
     Score         DG    S(hbond)    S(metal)    S(lipo)     H(rot)  DE(clash)    DE(int)     intcor
     11.19     -14.38       1.27        0.00      61.57       1.00       1.34       1.85       ----

> <Gold.Chemscore.Fitness>
11.1873

> <Gold.Chemscore.DG>
-14.3786

> <Gold.Chemscore.ZeroCoef>
-5.4800

> <Gold.Chemscore.Hbond>
1.2739

> <Gold.Chemscore.Metal>
0.0000

> <Gold.Chemscore.Lipo>
61.5701

> <Gold.Chemscore.Internal_Hbond>
0.0000

> <Gold.Chemscore.DEClash>
1.3436

> <Gold.Chemscore.DEInternal>
1.8477

> <Gold.Chemscore.Rot>
1.0000

> <Gold.Chemscore.Internal.Correction>
   9.000000E+99

> <Gold.Chemscore.Hbonds>
donor molecule, donor type, donor heavy atom, donor atom, acceptor molecule, acceptor atom, score
      L1  H     5    22       P1  8028  0.84
      P1  H  7989  7998       L1     8  0.18

> <Gold.Chemscore.Hbond.Weighted>
-4.2549

> <Gold.Chemscore.Metal.Weighted>
-0.0000

> <Gold.Chemscore.Lipo.Weighted>
-7.2037

> <Gold.Chemscore.Internal_Hbond.Weighted>
0.0000

> <Gold.Chemscore.DEClash.Weighted>
1.3436

> <Gold.Chemscore.DEInternal.Weighted>
1.8477

> <Gold.Chemscore.Rot.Weighted>
2.5600

> <Gold.Chemscore.Internal.Correction.Weighted>
   9.000000E+99

> <Gold.Protein.RotatedTorsions>
[ 6907 6896 6895 6894 ] final -125.88 input  -60.11 | X-H torsion
[ 7974 7965 7964 7962 ] final  -58.37 input  175.53 | X-H torsion
[ 8008 7997 7996 7995 ] final  -87.05 input   59.86 | X-H torsion
[ 10167 10162 10161 10158 ] final -153.23 input  -65.29 | X-H torsion
[ 10718 10713 10712 10709 ] final -148.44 input   66.30 | X-H torsion
[ 10763 10752 10751 10750 ] final  -58.10 input  -60.55 | X-H torsion
[ 11005 11000 10999 10996 ] final   -1.16 input  -57.11 | X-H torsion

> <Gold.Protein.ActiveResidues>
 VAL166  LYS551  ARG553  GLY616  TRP617  ASP618  TYR619  PRO620  LYS621  CYS622 
 ASP623  PHE694  ASN695  SER759  ASP760  ASP761  ALA762  ILE779  LEU786  VAL792 
 PHE793  MET794  SER795  GLU796  ALA797  LYS798  CYS799  TRP800  GLU811  SER814 

> <Gold.Protein.RotatedAtoms>
  150.8912  133.7241  159.2904 H   0  0  0  0  0  0  0  0  0  0  0  0  # atno 6907 bound_to 6896
  151.4790  135.1049  159.9782 H   0  0  0  0  0  0  0  0  0  0  0  0  # atno 6908 bound_to 6896
  152.4821  133.8233  159.7120 H   0  0  0  0  0  0  0  0  0  0  0  0  # atno 6909 bound_to 6896
  145.8401  140.8422  143.0039 H   0  0  0  0  0  0  0  0  0  0  0  0  # atno 7974 bound_to 7965
  154.6588  140.0571  157.0039 H   0  0  0  0  0  0  0  0  0  0  0  0  # atno 8008 bound_to 7997
  155.1260  140.3252  155.4467 H   0  0  0  0  0  0  0  0  0  0  0  0  # atno 8009 bound_to 7997
  156.2609  140.1989  156.6381 H   0  0  0  0  0  0  0  0  0  0  0  0  # atno 8010 bound_to 7997
  139.7114  143.9102  152.2469 H   0  0  0  0  0  0  0  0  0  0  0  0  # atno 10167 bound_to 10162
  156.4203  130.8025  151.2248 H   0  0  0  0  0  0  0  0  0  0  0  0  # atno 10718 bound_to 10713
  154.2329  135.6357  153.5181 H   0  0  0  0  0  0  0  0  0  0  0  0  # atno 10763 bound_to 10752
  152.9945  135.5523  154.5993 H   0  0  0  0  0  0  0  0  0  0  0  0  # atno 10764 bound_to 10752
  154.5480  135.2899  155.1009 H   0  0  0  0  0  0  0  0  0  0  0  0  # atno 10765 bound_to 10752
  140.6443  133.9461  155.8344 H   0  0  0  0  0  0  0  0  0  0  0  0  # atno 11005 bound_to 11000
  144.6734  140.0800  143.7469 LP  0  0  0  0  0  0  0  0  0  0  0  0  # atno 17320 bound_to 7965
  145.9474  139.2710  143.1232 LP  0  0  0  0  0  0  0  0  0  0  0  0  # atno 17321 bound_to 7965
  139.8973  144.6932  150.8704 LP  0  0  0  0  0  0  0  0  0  0  0  0  # atno 17342 bound_to 10162
  140.7734  143.3541  151.1957 LP  0  0  0  0  0  0  0  0  0  0  0  0  # atno 17343 bound_to 10162
  157.7508  131.0230  150.3816 LP  0  0  0  0  0  0  0  0  0  0  0  0  # atno 17370 bound_to 10713
  156.4132  130.3938  149.6877 LP  0  0  0  0  0  0  0  0  0  0  0  0  # atno 17371 bound_to 10713
  141.0584  134.0383  157.3692 LP  0  0  0  0  0  0  0  0  0  0  0  0  # atno 17394 bound_to 11000
  139.9069  135.0181  156.7523 LP  0  0  0  0  0  0  0  0  0  0  0  0  # atno 17395 bound_to 11000

$$$$
