AV-unprocessed.smi:234|AV-procd|sdf|1790|dock2
  -GOLD-   2262020343D 1   1.00000     0.00000
 Structure written by MMmdl.
 59 62  0  0  0  0  0  0  0  0  1 V2000
  152.4097  143.3349  159.4325 C   0  0  0  0  0  0  0  0  0  0  0  0
  151.9267  143.2136  157.9856 C   0  0  0  0  0  0  0  0  0  0  0  0
  150.9584  142.1812  157.9113 O   0  0  0  0  0  0  0  0  0  0  0  0
  150.5523  141.8986  156.5812 C   0  0  1  0  0  0  0  0  0  0  0  0
  151.3826  140.8225  155.8765 C   0  0  0  0  0  0  0  0  0  0  0  0
  150.0581  140.3726  155.2542 C   0  0  1  0  0  0  0  0  0  0  0  0
  149.9476  138.9215  155.0847 N   0  0  0  0  0  0  0  0  0  0  0  0
  151.0197  138.2718  154.3418 C   0  0  0  0  0  0  0  0  0  0  0  0
  148.7414  138.4741  154.6638 C   0  0  0  0  0  0  0  0  0  0  0  0
  147.7923  139.3533  154.2456 N   0  0  0  0  0  0  0  0  0  0  0  0
  146.6026  138.9065  153.8322 C   0  0  0  0  0  0  0  0  0  0  0  0
  146.1641  137.6479  153.7546 N   0  0  0  0  0  0  0  0  0  0  0  0
  147.1187  136.7648  154.1667 C   0  0  0  0  0  0  0  0  0  0  0  0
  148.4254  137.0903  154.6248 C   0  0  0  0  0  0  0  0  0  0  0  0
  149.1184  135.9327  154.9546 N   0  0  0  0  0  0  0  0  0  0  0  0
  148.2663  134.9748  154.7094 C   0  0  0  0  0  0  0  0  0  0  0  0
  147.0381  135.3857  154.2409 N   0  0  0  0  0  0  0  0  0  0  0  0
  145.9076  134.5390  153.8962 C   0  0  0  0  0  0  0  0  0  0  0  0
  145.6360  134.4627  152.3746 C   0  0  2  0  0  0  0  0  0  0  0  0
  146.8563  134.1824  151.7065 O   0  0  0  0  0  0  0  0  0  0  0  0
  145.0555  135.7395  151.7839 C   0  0  0  0  0  0  0  0  0  0  0  0
  144.3299  135.2289  150.5457 C   0  0  0  0  0  0  0  0  0  0  0  0
  143.7791  133.9826  150.9474 O   0  0  0  0  0  0  0  0  0  0  0  0
  144.5528  133.4219  152.0073 C   0  0  1  0  0  0  0  0  0  0  0  0
  145.0488  132.0151  151.6355 C   0  0  0  0  0  0  0  0  0  0  0  0
  149.3270  140.9546  156.4998 C   0  0  0  0  0  0  0  0  0  0  0  0
  149.1283  140.0257  157.7121 C   0  0  0  0  0  0  0  0  0  0  0  0
  147.9880  141.6444  156.2396 C   0  0  0  0  0  0  0  0  0  0  0  0
  153.1618  144.1181  159.5276 H   0  0  0  0  0  0  0  0  0  0  0  0
  152.8539  142.4003  159.7759 H   0  0  0  0  0  0  0  0  0  0  0  0
  151.5845  143.5802  160.1015 H   0  0  0  0  0  0  0  0  0  0  0  0
  151.4933  144.1592  157.6570 H   0  0  0  0  0  0  0  0  0  0  0  0
  152.7706  142.9913  157.3312 H   0  0  0  0  0  0  0  0  0  0  0  0
  150.4220  142.7971  155.9728 H   0  0  0  0  0  0  0  0  0  0  0  0
  152.1141  141.2052  155.1646 H   0  0  0  0  0  0  0  0  0  0  0  0
  151.8235  140.0968  156.5621 H   0  0  0  0  0  0  0  0  0  0  0  0
  149.8416  140.9397  154.3462 H   0  0  0  0  0  0  0  0  0  0  0  0
  150.8706  137.1924  154.2901 H   0  0  0  0  0  0  0  0  0  0  0  0
  151.9811  138.4472  154.8242 H   0  0  0  0  0  0  0  0  0  0  0  0
  151.0731  138.6603  153.3242 H   0  0  0  0  0  0  0  0  0  0  0  0
  145.9010  139.6661  153.5209 H   0  0  0  0  0  0  0  0  0  0  0  0
  148.5101  133.9348  154.8707 H   0  0  0  0  0  0  0  0  0  0  0  0
  146.0873  133.5411  154.2984 H   0  0  0  0  0  0  0  0  0  0  0  0
  145.0298  134.9232  154.4175 H   0  0  0  0  0  0  0  0  0  0  0  0
  147.5005  134.8185  151.9778 H   0  0  0  0  0  0  0  0  0  0  0  0
  144.3282  136.1765  152.4695 H   0  0  0  0  0  0  0  0  0  0  0  0
  145.8034  136.5010  151.5588 H   0  0  0  0  0  0  0  0  0  0  0  0
  143.5578  135.9144  150.1963 H   0  0  0  0  0  0  0  0  0  0  0  0
  145.0324  135.0605  149.7282 H   0  0  0  0  0  0  0  0  0  0  0  0
  143.8622  133.3245  152.8460 H   0  0  0  0  0  0  0  0  0  0  0  0
  145.6487  131.5856  152.4382 H   0  0  0  0  0  0  0  0  0  0  0  0
  145.6538  132.0273  150.7286 H   0  0  0  0  0  0  0  0  0  0  0  0
  144.2073  131.3455  151.4565 H   0  0  0  0  0  0  0  0  0  0  0  0
  148.3127  139.3201  157.5530 H   0  0  0  0  0  0  0  0  0  0  0  0
  148.8879  140.5931  158.6116 H   0  0  0  0  0  0  0  0  0  0  0  0
  150.0201  139.4393  157.9331 H   0  0  0  0  0  0  0  0  0  0  0  0
  147.1866  140.9222  156.0808 H   0  0  0  0  0  0  0  0  0  0  0  0
  148.0304  142.2780  155.3535 H   0  0  0  0  0  0  0  0  0  0  0  0
  147.6977  142.2779  157.0782 H   0  0  0  0  0  0  0  0  0  0  0  0
  1  2  1  0  0  0  0
  1 29  1  0  0  0  0
  1 30  1  0  0  0  0
  1 31  1  0  0  0  0
  2  3  1  0  0  0  0
  2 32  1  0  0  0  0
  2 33  1  0  0  0  0
  3  4  1  0  0  0  0
  4 26  1  0  0  0  0
  4  5  1  0  0  0  0
  4 34  1  0  0  0  0
  5  6  1  0  0  0  0
  5 35  1  0  0  0  0
  5 36  1  0  0  0  0
  6  7  1  0  0  0  0
  6 26  1  0  0  0  0
  6 37  1  0  0  0  0
  7  8  1  0  0  0  0
  7  9  1  0  0  0  0
  8 38  1  0  0  0  0
  8 39  1  0  0  0  0
  8 40  1  0  0  0  0
  9 14  1  0  0  0  0
  9 10  2  0  0  0  0
 10 11  1  0  0  0  0
 11 12  2  0  0  0  0
 11 41  1  0  0  0  0
 12 13  1  0  0  0  0
 13 17  1  0  0  0  0
 13 14  2  0  0  0  0
 14 15  1  0  0  0  0
 15 16  2  0  0  0  0
 16 17  1  0  0  0  0
 16 42  1  0  0  0  0
 17 18  1  0  0  0  0
 18 19  1  0  0  0  0
 18 43  1  0  0  0  0
 18 44  1  0  0  0  0
 19 24  1  0  0  0  0
 19 20  1  0  0  0  0
 19 21  1  0  0  0  0
 20 45  1  0  0  0  0
 21 22  1  0  0  0  0
 21 46  1  0  0  0  0
 21 47  1  0  0  0  0
 22 23  1  0  0  0  0
 22 48  1  0  0  0  0
 22 49  1  0  0  0  0
 23 24  1  0  0  0  0
 24 25  1  0  0  0  0
 24 50  1  0  0  0  0
 25 51  1  0  0  0  0
 25 52  1  0  0  0  0
 25 53  1  0  0  0  0
 26 27  1  0  0  0  0
 26 28  1  0  0  0  0
 27 54  1  0  0  0  0
 27 55  1  0  0  0  0
 27 56  1  0  0  0  0
 28 57  1  0  0  0  0
 28 58  1  0  0  0  0
 28 59  1  0  0  0  0
M  END
> <s_m_source_file>
AV-unprocessed.smi

> <i_m_source_file_index>
234

> <i_lp_mmshare_version>
43012

> <i_f3d_flags>
0

> <s_epik_input>
W0NIM11bQ0gyXU9bQ0BASF0oQzEoW0NIM10pW0NIM10pW0NIMl1bQ0BIXTFOKFtDSDNdKWMobltjSF1uMiljKGMyMyluW2NIXW4zW0NIMl1bQ0BAXTQoW09IXSlbQ0gyXVtDSDJdT1tDQEhdNFtDSDNd

> <s_epik_cmdline>
J2VwaWtfcHl0aG9uJywgJy1waCcsICc3LjAnLCAnLXRuJywgJzgnLCAnLW1hJywgJzIwMCcsICctbWV0YWxfYmluZGluZycsICctaW1hZScsICc8aW5maWxlLm1hZT4nLCAnLW9tYWUnLCAnPG91dGZpbGUubWFlPic=

> <r_lp_tautomer_probability>
1

> <r_epik_Ionization_Penalty>
0.00349132

> <r_epik_Ionization_Penalty_Charging>
0

> <r_epik_Ionization_Penalty_Neutral>
0.00349132

> <r_epik_State_Penalty>
0.00242418

> <r_epik_Charging_Adjusted_Penalty>
0.00242418

> <i_epik_Tot_Q>
0

> <i_epik_Tot_abs_Q>
0

> <r_epik_Metal_State_Penalty>
-0

> <b_epik_Metal_Only>
0

> <s_lp_Force_Field>
OPLS_2005

> <r_lp_Energy>
47.69

> <b_lp_Chiralities_Consistent>
1

> <s_lp_Variant>
AV-unprocessed.smi:234-6

> <Gold.Version>
5.8.1

> <Gold.Id.Protein>
6NUR|6NUR_protein|mol2

> <Gold.PLP.Fitness>
38.9026

> <Gold.PLP.PLP>
-33.5904

> <Gold.PLP.part.hbond>
-1.0000

> <Gold.PLP.part.metal>
0.0000

> <Gold.PLP.part.buried>
-2.6357

> <Gold.PLP.part.nonpolar>
-30.7302

> <Gold.PLP.part.repulsive>
0.7724

> <Gold.PLP.ligand.clash>
0.0000

> <Gold.PLP.ligand.torsion>
0.7357

> <Gold.PLP.Chemscore.Hbond>
1.0000

> <Gold.PLP.Chemscore.CHOScore>
0.9988

> <Gold.PLP.Chemscore.Metal>
0.0000

> <Gold.Chemscore.Hbonds>
donor molecule, donor type, donor heavy atom, donor atom, acceptor molecule, acceptor atom, score
      L1  H    20    45       P1  7948  1.00
      L1  C    11    41       P1 10175  0.87

> <Gold.PLP.Chemscore.Internal.Correction>
0.7873

> <Gold.Rescore>
     Score         DG    S(hbond)    S(metal)    S(lipo)     H(rot)  DE(clash)    DE(int)     intcor
     10.13     -12.09       0.73        0.00      92.87       2.62       0.32       1.64       ----

> <Gold.Chemscore.Fitness>
10.1282

> <Gold.Chemscore.DG>
-12.0876

> <Gold.Chemscore.ZeroCoef>
-5.4800

> <Gold.Chemscore.Hbond>
0.7347

> <Gold.Chemscore.Metal>
0.0000

> <Gold.Chemscore.Lipo>
92.8698

> <Gold.Chemscore.Internal_Hbond>
0.0000

> <Gold.Chemscore.DEClash>
0.3207

> <Gold.Chemscore.DEInternal>
1.6387

> <Gold.Chemscore.Rot>
2.6219

> <Gold.Chemscore.Internal.Correction>
   9.000000E+99

> <Gold.Chemscore.Hbonds>
donor molecule, donor type, donor heavy atom, donor atom, acceptor molecule, acceptor atom, score
      L1  H    20    45       P1  7948  0.76

> <Gold.Chemscore.Hbond.Weighted>
-2.4540

> <Gold.Chemscore.Metal.Weighted>
-0.0000

> <Gold.Chemscore.Lipo.Weighted>
-10.8658

> <Gold.Chemscore.Internal_Hbond.Weighted>
0.0000

> <Gold.Chemscore.DEClash.Weighted>
0.3207

> <Gold.Chemscore.DEInternal.Weighted>
1.6387

> <Gold.Chemscore.Rot.Weighted>
6.7121

> <Gold.Chemscore.Internal.Correction.Weighted>
   9.000000E+99

> <Gold.Protein.RotatedTorsions>
[ 6907 6896 6895 6894 ] final  -17.37 input  -60.11 | X-H torsion
[ 7974 7965 7964 7962 ] final -157.94 input  175.53 | X-H torsion
[ 8008 7997 7996 7995 ] final   75.37 input   59.86 | X-H torsion
[ 10167 10162 10161 10158 ] final   -0.94 input  -65.29 | X-H torsion
[ 10718 10713 10712 10709 ] final -114.56 input   66.30 | X-H torsion
[ 10763 10752 10751 10750 ] final -123.43 input  -60.55 | X-H torsion
[ 11005 11000 10999 10996 ] final    8.47 input  -57.11 | X-H torsion

> <Gold.Protein.ActiveResidues>
 VAL166  LYS551  ARG553  GLY616  TRP617  ASP618  TYR619  PRO620  LYS621  CYS622 
 ASP623  PHE694  ASN695  SER759  ASP760  ASP761  ALA762  ILE779  LEU786  VAL792 
 PHE793  MET794  SER795  GLU796  ALA797  LYS798  CYS799  TRP800  GLU811  SER814 

> <Gold.Protein.RotatedAtoms>
  151.2944  135.0751  159.9215 H   0  0  0  0  0  0  0  0  0  0  0  0  # atno 6907 bound_to 6896
  152.5310  133.9899  159.7856 H   0  0  0  0  0  0  0  0  0  0  0  0  # atno 6908 bound_to 6896
  151.0174  133.5857  159.2706 H   0  0  0  0  0  0  0  0  0  0  0  0  # atno 6909 bound_to 6896
  144.7526  140.3898  143.6036 H   0  0  0  0  0  0  0  0  0  0  0  0  # atno 7974 bound_to 7965
  155.8119  140.3473  155.5463 H   0  0  0  0  0  0  0  0  0  0  0  0  # atno 8008 bound_to 7997
  155.8432  140.0944  157.1742 H   0  0  0  0  0  0  0  0  0  0  0  0  # atno 8009 bound_to 7997
  154.4005  140.1390  156.3741 H   0  0  0  0  0  0  0  0  0  0  0  0  # atno 8010 bound_to 7997
  140.6789  143.6835  150.8086 H   0  0  0  0  0  0  0  0  0  0  0  0  # atno 10167 bound_to 10162
  156.0838  130.6033  150.8791 H   0  0  0  0  0  0  0  0  0  0  0  0  # atno 10718 bound_to 10713
  154.8707  135.4098  154.2942 H   0  0  0  0  0  0  0  0  0  0  0  0  # atno 10763 bound_to 10752
  153.3813  135.7011  153.6569 H   0  0  0  0  0  0  0  0  0  0  0  0  # atno 10764 bound_to 10752
  153.5390  135.3652  155.2681 H   0  0  0  0  0  0  0  0  0  0  0  0  # atno 10765 bound_to 10752
  140.5366  134.0415  155.7890 H   0  0  0  0  0  0  0  0  0  0  0  0  # atno 11005 bound_to 11000
  145.6889  139.1634  143.2658 LP  0  0  0  0  0  0  0  0  0  0  0  0  # atno 17320 bound_to 7965
  146.1497  140.6943  142.9328 LP  0  0  0  0  0  0  0  0  0  0  0  0  # atno 17321 bound_to 7965
  140.0532  143.5229  152.2663 LP  0  0  0  0  0  0  0  0  0  0  0  0  # atno 17342 bound_to 10162
  139.6098  144.7606  151.2978 LP  0  0  0  0  0  0  0  0  0  0  0  0  # atno 17343 bound_to 10162
  157.5965  131.0943  150.9032 LP  0  0  0  0  0  0  0  0  0  0  0  0  # atno 17370 bound_to 10713
  156.9198  130.5311  149.5279 LP  0  0  0  0  0  0  0  0  0  0  0  0  # atno 17371 bound_to 10713
  141.1251  133.9396  157.2651 LP  0  0  0  0  0  0  0  0  0  0  0  0  # atno 17394 bound_to 11000
  139.9526  135.0172  156.9037 LP  0  0  0  0  0  0  0  0  0  0  0  0  # atno 17395 bound_to 11000

$$$$
