AV-unprocessed.smi:2936|AV-procd|sdf|11258|dock3
  -GOLD-   2272016153D 1   1.00000     0.00000
 Structure written by MMmdl.
 24 25  0  0  0  0  0  0  0  0  1 V2000
  151.1032  138.1093  154.2188 O   0  0  0  0  0  0  0  0  0  0  0  0
  150.7028  139.2109  154.5898 C   0  0  0  0  0  0  0  0  0  0  0  0
  149.9517  139.9980  153.7829 N   0  0  0  0  0  0  0  0  0  0  0  0
  149.4483  141.2399  154.0871 N   0  0  0  0  0  0  0  0  0  0  0  0
  149.7011  141.7340  155.2506 C   0  0  0  0  0  0  0  0  0  0  0  0
  150.4939  141.0340  156.2495 C   0  0  0  0  0  0  0  0  0  0  0  0
  150.7321  141.6208  157.4830 N   0  0  0  0  0  0  0  0  0  0  0  0
  149.7010  142.2814  158.2699 C   0  0  0  0  0  0  0  0  0  0  0  0
  150.1292  143.7200  158.6098 C   0  0  0  0  0  0  0  0  0  0  0  0
  151.3948  143.6985  159.2651 O   0  0  0  0  0  0  0  0  0  0  0  0
  152.4148  143.1273  158.4497 C   0  0  0  0  0  0  0  0  0  0  0  0
  152.0457  141.6729  158.1077 C   0  0  0  0  0  0  0  0  0  0  0  0
  150.9721  139.8045  155.9070 C   0  0  0  0  0  0  0  0  0  0  0  0
  151.9245  138.8791  157.0173 Cl  0  0  0  0  0  0  0  0  0  0  0  0
  149.7173  139.6720  152.8563 H   0  0  0  0  0  0  0  0  0  0  0  0
  149.3294  142.7146  155.5490 H   0  0  0  0  0  0  0  0  0  0  0  0
  148.7581  142.2885  157.7223 H   0  0  0  0  0  0  0  0  0  0  0  0
  149.5352  141.7112  159.1846 H   0  0  0  0  0  0  0  0  0  0  0  0
  150.1832  144.3371  157.7122 H   0  0  0  0  0  0  0  0  0  0  0  0
  149.3955  144.1836  159.2693 H   0  0  0  0  0  0  0  0  0  0  0  0
  152.5480  143.7222  157.5452 H   0  0  0  0  0  0  0  0  0  0  0  0
  153.3604  143.1570  158.9911 H   0  0  0  0  0  0  0  0  0  0  0  0
  152.0317  141.0642  159.0122 H   0  0  0  0  0  0  0  0  0  0  0  0
  152.7947  141.2408  157.4430 H   0  0  0  0  0  0  0  0  0  0  0  0
  1  2  2  0  0  0  0
  2 13  1  0  0  0  0
  2  3  1  0  0  0  0
  3 15  1  0  0  0  0
  3  4  1  0  0  0  0
  4  5  2  0  0  0  0
  5  6  1  0  0  0  0
  5 16  1  0  0  0  0
  6  7  1  0  0  0  0
  6 13  2  0  0  0  0
  7 12  1  0  0  0  0
  7  8  1  0  0  0  0
  8  9  1  0  0  0  0
  8 17  1  0  0  0  0
  8 18  1  0  0  0  0
  9 10  1  0  0  0  0
  9 19  1  0  0  0  0
  9 20  1  0  0  0  0
 10 11  1  0  0  0  0
 11 12  1  0  0  0  0
 11 21  1  0  0  0  0
 11 22  1  0  0  0  0
 12 23  1  0  0  0  0
 12 24  1  0  0  0  0
 13 14  1  0  0  0  0
M  END
> <s_m_source_file>
AV-unprocessed.smi

> <i_m_source_file_index>
2936

> <i_lp_mmshare_version>
43012

> <i_f3d_flags>
0

> <s_epik_input>
Tz1jMVtuSF1uW2NIXWMoYzFDbClOMltDSDJdW0NIMl1PW0NIMl1bQ0gyXTI=

> <s_epik_cmdline>
J2VwaWtfcHl0aG9uJywgJy1waCcsICc3LjAnLCAnLXRuJywgJzgnLCAnLW1hJywgJzIwMCcsICctbWV0YWxfYmluZGluZycsICctaW1hZScsICc8aW5maWxlLm1hZT4nLCAnLW9tYWUnLCAnPG91dGZpbGUubWFlPic=

> <r_lp_tautomer_probability>
0.986175

> <r_epik_Ionization_Penalty>
0.0102925

> <r_epik_Ionization_Penalty_Charging>
0.0102925

> <r_epik_Ionization_Penalty_Neutral>
4.87729e-09

> <r_epik_State_Penalty>
1.65855

> <r_epik_Charging_Adjusted_Penalty>
1.66884

> <i_epik_Tot_Q>
0

> <i_epik_Tot_abs_Q>
0

> <r_epik_Metal_State_Penalty>
3.9956

> <b_epik_Metal_Only>
0

> <s_lp_Force_Field>
OPLS_2005

> <r_lp_Energy>
35.1147

> <b_lp_Chiralities_Consistent>
1

> <s_lp_Variant>
AV-unprocessed.smi:2936-2

> <Gold.Version>
5.8.1

> <Gold.Id.Protein>
6NUR|6NUR_protein|mol2

> <Gold.PLP.Fitness>
30.7478

> <Gold.PLP.PLP>
-23.1882

> <Gold.PLP.part.hbond>
-3.0000

> <Gold.PLP.part.metal>
0.0000

> <Gold.PLP.part.buried>
-3.3298

> <Gold.PLP.part.nonpolar>
-18.7566

> <Gold.PLP.part.repulsive>
3.1792

> <Gold.PLP.ligand.clash>
0.0000

> <Gold.PLP.ligand.torsion>
0.7777

> <Gold.PLP.Chemscore.Hbond>
1.5216

> <Gold.PLP.Chemscore.CHOScore>
1.0000

> <Gold.PLP.Chemscore.Metal>
0.0000

> <Gold.Chemscore.Hbonds>
donor molecule, donor type, donor heavy atom, donor atom, acceptor molecule, acceptor atom, score
      L1  H     3    15       P1  7957  0.94
      P1  H  8011  8017       L1     4  0.56
      L1  C     5    16       P1  8028  1.00

> <Gold.PLP.Chemscore.Internal.Correction>
1.5501

> <Gold.Rescore>
     Score         DG    S(hbond)    S(metal)    S(lipo)     H(rot)  DE(clash)    DE(int)     intcor
     14.33     -15.83       1.23        0.00      53.40       0.00       0.41       1.10       ----

> <Gold.Chemscore.Fitness>
14.3254

> <Gold.Chemscore.DG>
-15.8344

> <Gold.Chemscore.ZeroCoef>
-5.4800

> <Gold.Chemscore.Hbond>
1.2296

> <Gold.Chemscore.Metal>
0.0000

> <Gold.Chemscore.Lipo>
53.3967

> <Gold.Chemscore.Internal_Hbond>
0.0000

> <Gold.Chemscore.DEClash>
0.4104

> <Gold.Chemscore.DEInternal>
1.0986

> <Gold.Chemscore.Rot>
0.0000

> <Gold.Chemscore.Internal.Correction>
   9.000000E+99

> <Gold.Chemscore.Hbonds>
donor molecule, donor type, donor heavy atom, donor atom, acceptor molecule, acceptor atom, score
      L1  H     3    15       P1  7957  0.91
      P1  H  8011  8017       L1     4  0.27

> <Gold.Chemscore.Hbond.Weighted>
-4.1070

> <Gold.Chemscore.Metal.Weighted>
-0.0000

> <Gold.Chemscore.Lipo.Weighted>
-6.2474

> <Gold.Chemscore.Internal_Hbond.Weighted>
0.0000

> <Gold.Chemscore.DEClash.Weighted>
0.4104

> <Gold.Chemscore.DEInternal.Weighted>
1.0986

> <Gold.Chemscore.Rot.Weighted>
0.0000

> <Gold.Chemscore.Internal.Correction.Weighted>
   9.000000E+99

> <Gold.Protein.RotatedTorsions>
[ 6907 6896 6895 6894 ] final  -69.66 input  -60.11 | X-H torsion
[ 7974 7965 7964 7962 ] final   29.35 input  175.53 | X-H torsion
[ 8008 7997 7996 7995 ] final -136.89 input   59.86 | X-H torsion
[ 10167 10162 10161 10158 ] final -118.19 input  -65.29 | X-H torsion
[ 10718 10713 10712 10709 ] final    5.12 input   66.30 | X-H torsion
[ 10763 10752 10751 10750 ] final  138.28 input  -60.55 | X-H torsion
[ 11005 11000 10999 10996 ] final  144.13 input  -57.11 | X-H torsion

> <Gold.Protein.ActiveResidues>
 VAL166  LYS551  ARG553  GLY616  TRP617  ASP618  TYR619  PRO620  LYS621  CYS622 
 ASP623  PHE694  ASN695  SER759  ASP760  ASP761  ALA762  ILE779  LEU786  VAL792 
 PHE793  MET794  SER795  GLU796  ALA797  LYS798  CYS799  TRP800  GLU811  SER814 

> <Gold.Protein.RotatedAtoms>
  150.7294  134.5564  159.5820 H   0  0  0  0  0  0  0  0  0  0  0  0  # atno 6907 bound_to 6896
  152.3038  134.7576  160.0361 H   0  0  0  0  0  0  0  0  0  0  0  0  # atno 6908 bound_to 6896
  151.8147  133.3351  159.3602 H   0  0  0  0  0  0  0  0  0  0  0  0  # atno 6909 bound_to 6896
  146.1676  139.6933  142.8990 H   0  0  0  0  0  0  0  0  0  0  0  0  # atno 7974 bound_to 7965
  155.4027  140.0507  157.3036 H   0  0  0  0  0  0  0  0  0  0  0  0  # atno 8008 bound_to 7997
  154.4983  140.2147  155.9361 H   0  0  0  0  0  0  0  0  0  0  0  0  # atno 8009 bound_to 7997
  156.1434  140.3150  155.8537 H   0  0  0  0  0  0  0  0  0  0  0  0  # atno 8010 bound_to 7997
  140.0602  143.4975  152.2036 H   0  0  0  0  0  0  0  0  0  0  0  0  # atno 10167 bound_to 10162
  156.9027  130.5727  149.5648 H   0  0  0  0  0  0  0  0  0  0  0  0  # atno 10718 bound_to 10713
  153.8869  135.3037  155.3446 H   0  0  0  0  0  0  0  0  0  0  0  0  # atno 10763 bound_to 10752
  154.7735  135.4873  153.9699 H   0  0  0  0  0  0  0  0  0  0  0  0  # atno 10764 bound_to 10752
  153.1319  135.6806  153.9262 H   0  0  0  0  0  0  0  0  0  0  0  0  # atno 10765 bound_to 10752
  140.0608  134.9205  157.1181 H   0  0  0  0  0  0  0  0  0  0  0  0  # atno 11005 bound_to 11000
  145.4425  141.0423  143.2849 LP  0  0  0  0  0  0  0  0  0  0  0  0  # atno 17320 bound_to 7965
  144.8116  139.5953  143.7027 LP  0  0  0  0  0  0  0  0  0  0  0  0  # atno 17321 bound_to 7965
  139.5898  144.7546  151.3428 LP  0  0  0  0  0  0  0  0  0  0  0  0  # atno 17342 bound_to 10162
  140.7175  143.7226  150.7684 LP  0  0  0  0  0  0  0  0  0  0  0  0  # atno 17343 bound_to 10162
  156.0574  130.5633  150.9121 LP  0  0  0  0  0  0  0  0  0  0  0  0  # atno 17370 bound_to 10713
  157.6016  131.0941  150.8950 LP  0  0  0  0  0  0  0  0  0  0  0  0  # atno 17371 bound_to 10713
  140.3773  134.2325  155.7173 LP  0  0  0  0  0  0  0  0  0  0  0  0  # atno 17394 bound_to 11000
  141.1972  133.8064  157.0637 LP  0  0  0  0  0  0  0  0  0  0  0  0  # atno 17395 bound_to 11000

$$$$
