AV-unprocessed.smi:1734|AV-procd|sdf|6982|dock8
  -GOLD-   22720 8193D 1   1.00000     0.00000
 Structure written by MMmdl.
 50 52  0  0  0  0  0  0  0  0  1 V2000
  144.0541  135.7822  151.6246 C   0  0  0  0  0  0  0  0  0  0  0  0
  144.6527  134.4987  151.0722 C   0  0  0  0  0  0  0  0  0  0  0  0
  143.8793  133.6908  150.2118 C   0  0  0  0  0  0  0  0  0  0  0  0
  144.4345  132.5050  149.7017 C   0  0  0  0  0  0  0  0  0  0  0  0
  145.7487  132.1756  150.0750 C   0  0  0  0  0  0  0  0  0  0  0  0
  146.4945  132.9411  150.8973 N   0  0  0  0  0  0  0  0  0  0  0  0
  145.9730  134.0886  151.3997 C   0  0  0  0  0  0  0  0  0  0  0  0
  146.6971  134.9378  152.2830 N   0  0  0  0  0  0  0  0  0  0  0  0
  146.4355  135.2235  153.5706 C   0  0  0  0  0  0  0  0  0  0  0  0
  145.5380  134.7201  154.2469 O   0  0  0  0  0  0  0  0  0  0  0  0
  147.2839  136.1485  154.0416 N   0  0  0  0  0  0  0  0  0  0  0  0
  147.2431  136.7141  155.3852 C   0  0  0  0  0  0  0  0  0  0  0  0
  148.6514  136.9713  156.0011 C   0  0  2  0  0  0  0  0  0  0  0  0
  148.6995  136.6638  157.5269 C   0  0  1  0  0  0  0  0  0  0  0  0
  148.0517  137.6996  158.4372 C   0  0  0  0  0  0  0  0  0  0  0  0
  147.6885  136.9129  159.6978 C   0  0  0  0  0  0  0  0  0  0  0  0
  147.7609  135.5370  159.3442 O   0  0  0  0  0  0  0  0  0  0  0  0
  147.8975  135.4252  157.9365 C   0  0  0  0  0  0  0  0  0  0  0  0
  149.1847  138.3112  155.6980 N   0  0  0  0  0  0  0  0  0  0  0  0
  148.8838  138.8058  154.3555 C   0  0  0  0  0  0  0  0  0  0  0  0
  149.3675  140.2540  154.1671 C   0  0  0  0  0  0  0  0  0  0  0  0
  150.7597  140.3382  154.4570 O   0  0  0  0  0  0  0  0  0  0  0  0
  151.0756  139.9123  155.7793 C   0  0  0  0  0  0  0  0  0  0  0  0
  150.6109  138.4596  155.9774 C   0  0  0  0  0  0  0  0  0  0  0  0
  143.0433  135.9433  151.2486 H   0  0  0  0  0  0  0  0  0  0  0  0
  144.6591  136.6415  151.3341 H   0  0  0  0  0  0  0  0  0  0  0  0
  144.0053  135.7435  152.7132 H   0  0  0  0  0  0  0  0  0  0  0  0
  142.8715  133.9732  149.9444 H   0  0  0  0  0  0  0  0  0  0  0  0
  143.8681  131.8651  149.0413 H   0  0  0  0  0  0  0  0  0  0  0  0
  146.2139  131.2738  149.7053 H   0  0  0  0  0  0  0  0  0  0  0  0
  147.4891  135.4101  151.8732 H   0  0  0  0  0  0  0  0  0  0  0  0
  147.9945  136.5056  153.4199 H   0  0  0  0  0  0  0  0  0  0  0  0
  146.6505  137.6272  155.3384 H   0  0  0  0  0  0  0  0  0  0  0  0
  146.6804  136.0251  156.0156 H   0  0  0  0  0  0  0  0  0  0  0  0
  149.3386  136.2629  155.5369 H   0  0  0  0  0  0  0  0  0  0  0  0
  149.7330  136.5270  157.8476 H   0  0  0  0  0  0  0  0  0  0  0  0
  148.7076  138.5409  158.6611 H   0  0  0  0  0  0  0  0  0  0  0  0
  147.1428  138.0919  157.9784 H   0  0  0  0  0  0  0  0  0  0  0  0
  148.3945  137.1089  160.5051 H   0  0  0  0  0  0  0  0  0  0  0  0
  146.6892  137.1683  160.0518 H   0  0  0  0  0  0  0  0  0  0  0  0
  146.9066  135.4339  157.4793 H   0  0  0  0  0  0  0  0  0  0  0  0
  148.3899  134.4909  157.6660 H   0  0  0  0  0  0  0  0  0  0  0  0
  149.3634  138.1739  153.6075 H   0  0  0  0  0  0  0  0  0  0  0  0
  147.8121  138.7636  154.1641 H   0  0  0  0  0  0  0  0  0  0  0  0
  149.1961  140.5806  153.1415 H   0  0  0  0  0  0  0  0  0  0  0  0
  148.8126  140.9327  154.8168 H   0  0  0  0  0  0  0  0  0  0  0  0
  152.1522  139.9903  155.9317 H   0  0  0  0  0  0  0  0  0  0  0  0
  150.6001  140.5736  156.5054 H   0  0  0  0  0  0  0  0  0  0  0  0
  150.8244  138.1476  157.0002 H   0  0  0  0  0  0  0  0  0  0  0  0
  151.1986  137.8163  155.3235 H   0  0  0  0  0  0  0  0  0  0  0  0
  1  2  1  0  0  0  0
  1 25  1  0  0  0  0
  1 26  1  0  0  0  0
  1 27  1  0  0  0  0
  2  7  1  0  0  0  0
  2  3  2  0  0  0  0
  3  4  1  0  0  0  0
  3 28  1  0  0  0  0
  4  5  2  0  0  0  0
  4 29  1  0  0  0  0
  5  6  1  0  0  0  0
  5 30  1  0  0  0  0
  6  7  2  0  0  0  0
  7  8  1  0  0  0  0
  8  9  1  0  0  0  0
  8 31  1  0  0  0  0
  9 10  2  0  0  0  0
  9 11  1  0  0  0  0
 11 12  1  0  0  0  0
 11 32  1  0  0  0  0
 12 13  1  0  0  0  0
 12 33  1  0  0  0  0
 12 34  1  0  0  0  0
 13 14  1  0  0  0  0
 13 19  1  0  0  0  0
 13 35  1  0  0  0  0
 14 18  1  0  0  0  0
 14 15  1  0  0  0  0
 14 36  1  0  0  0  0
 15 16  1  0  0  0  0
 15 37  1  0  0  0  0
 15 38  1  0  0  0  0
 16 17  1  0  0  0  0
 16 39  1  0  0  0  0
 16 40  1  0  0  0  0
 17 18  1  0  0  0  0
 18 41  1  0  0  0  0
 18 42  1  0  0  0  0
 19 24  1  0  0  0  0
 19 20  1  0  0  0  0
 20 21  1  0  0  0  0
 20 43  1  0  0  0  0
 20 44  1  0  0  0  0
 21 22  1  0  0  0  0
 21 45  1  0  0  0  0
 21 46  1  0  0  0  0
 22 23  1  0  0  0  0
 23 24  1  0  0  0  0
 23 47  1  0  0  0  0
 23 48  1  0  0  0  0
 24 49  1  0  0  0  0
 24 50  1  0  0  0  0
M  END
> <s_m_source_file>
AV-unprocessed.smi

> <i_m_source_file_index>
1734

> <i_lp_mmshare_version>
43012

> <i_f3d_flags>
0

> <s_epik_input>
W0NIM11jMVtjSF1bY0hdW2NIXW5jMVtOSF1DKD1PKVtOSF1bQ0gyXVtDQEhdKFtDQEBIXTJbQ0gyXVtDSDJdT1tDSDJdMilOM1tDSDJdW0NIMl1PW0NIMl1bQ0gyXTM=

> <s_epik_cmdline>
J2VwaWtfcHl0aG9uJywgJy1waCcsICc3LjAnLCAnLXRuJywgJzgnLCAnLW1hJywgJzIwMCcsICctbWV0YWxfYmluZGluZycsICctaW1hZScsICc8aW5maWxlLm1hZT4nLCAnLW9tYWUnLCAnPG91dGZpbGUubWFlPic=

> <r_epik_Ionization_Penalty>
0.125073

> <r_epik_Ionization_Penalty_Charging>
0

> <r_epik_Ionization_Penalty_Neutral>
0.125073

> <r_epik_State_Penalty>
0.114484

> <r_epik_Charging_Adjusted_Penalty>
0.114484

> <i_epik_Tot_Q>
0

> <i_epik_Tot_abs_Q>
0

> <r_epik_Metal_State_Penalty>
0.114483

> <b_epik_Metal_Only>
0

> <s_lp_Force_Field>
OPLS_2005

> <r_lp_Energy>
51.317

> <b_lp_Chiralities_Consistent>
1

> <s_lp_Variant>
AV-unprocessed.smi:1734-3

> <Gold.Version>
5.8.1

> <Gold.Id.Protein>
6NUR|6NUR_protein|mol2

> <Gold.PLP.Fitness>
42.9626

> <Gold.PLP.PLP>
-32.2891

> <Gold.PLP.part.hbond>
-3.7819

> <Gold.PLP.part.metal>
0.0000

> <Gold.PLP.part.buried>
-4.1421

> <Gold.PLP.part.nonpolar>
-25.0132

> <Gold.PLP.part.repulsive>
1.2010

> <Gold.PLP.ligand.clash>
0.0000

> <Gold.PLP.ligand.torsion>
1.6551

> <Gold.PLP.Chemscore.Hbond>
3.9040

> <Gold.PLP.Chemscore.CHOScore>
0.6697

> <Gold.PLP.Chemscore.Metal>
0.0000

> <Gold.Chemscore.Hbonds>
donor molecule, donor type, donor heavy atom, donor atom, acceptor molecule, acceptor atom, score
      L1  H     8    31       P1  7948  1.00
      L1  H    11    32       P1  7948  0.93
      P1  H  7989  7998       L1    22  0.67
      L1  C     5    30       P1 10747  0.19

> <Gold.PLP.Chemscore.Internal.Correction>
0.2625

> <Gold.Rescore>
     Score         DG    S(hbond)    S(metal)    S(lipo)     H(rot)  DE(clash)    DE(int)     intcor
     19.63     -21.30       3.28        0.00      77.57       1.65       0.25       1.41       ----

> <Gold.Chemscore.Fitness>
19.6329

> <Gold.Chemscore.DG>
-21.2966

> <Gold.Chemscore.ZeroCoef>
-5.4800

> <Gold.Chemscore.Hbond>
3.2815

> <Gold.Chemscore.Metal>
0.0000

> <Gold.Chemscore.Lipo>
77.5650

> <Gold.Chemscore.Internal_Hbond>
0.0000

> <Gold.Chemscore.DEClash>
0.2535

> <Gold.Chemscore.DEInternal>
1.4102

> <Gold.Chemscore.Rot>
1.6480

> <Gold.Chemscore.Internal.Correction>
   9.000000E+99

> <Gold.Chemscore.Hbonds>
donor molecule, donor type, donor heavy atom, donor atom, acceptor molecule, acceptor atom, score
      L1  H     8    31       P1  7948  0.98
      L1  H    11    32       P1  7948  0.90
      P1  H  7989  7998       L1    22  0.64

> <Gold.Chemscore.Hbond.Weighted>
-10.9603

> <Gold.Chemscore.Metal.Weighted>
-0.0000

> <Gold.Chemscore.Lipo.Weighted>
-9.0751

> <Gold.Chemscore.Internal_Hbond.Weighted>
0.0000

> <Gold.Chemscore.DEClash.Weighted>
0.2535

> <Gold.Chemscore.DEInternal.Weighted>
1.4102

> <Gold.Chemscore.Rot.Weighted>
4.2188

> <Gold.Chemscore.Internal.Correction.Weighted>
   9.000000E+99

> <Gold.Protein.RotatedTorsions>
[ 6907 6896 6895 6894 ] final   47.17 input  -60.11 | X-H torsion
[ 7974 7965 7964 7962 ] final  104.68 input  175.53 | X-H torsion
[ 8008 7997 7996 7995 ] final -175.28 input   59.86 | X-H torsion
[ 10167 10162 10161 10158 ] final -117.99 input  -65.29 | X-H torsion
[ 10718 10713 10712 10709 ] final  -58.58 input   66.30 | X-H torsion
[ 10763 10752 10751 10750 ] final   -9.80 input  -60.55 | X-H torsion
[ 11005 11000 10999 10996 ] final  156.37 input  -57.11 | X-H torsion

> <Gold.Protein.ActiveResidues>
 VAL166  LYS551  ARG553  GLY616  TRP617  ASP618  TYR619  PRO620  LYS621  CYS622 
 ASP623  PHE694  ASN695  SER759  ASP760  ASP761  ALA762  ILE779  LEU786  VAL792 
 PHE793  MET794  SER795  GLU796  ALA797  LYS798  CYS799  TRP800  GLU811  SER814 

> <Gold.Protein.RotatedAtoms>
  152.2650  134.7994  160.0423 H   0  0  0  0  0  0  0  0  0  0  0  0  # atno 6907 bound_to 6896
  151.8627  133.3455  159.3717 H   0  0  0  0  0  0  0  0  0  0  0  0  # atno 6908 bound_to 6896
  150.7130  134.5118  159.5655 H   0  0  0  0  0  0  0  0  0  0  0  0  # atno 6909 bound_to 6896
  145.3295  139.2490  143.3668 H   0  0  0  0  0  0  0  0  0  0  0  0  # atno 7974 bound_to 7965
  155.9806  140.1181  157.0730 H   0  0  0  0  0  0  0  0  0  0  0  0  # atno 8008 bound_to 7997
  154.4181  140.1145  156.5497 H   0  0  0  0  0  0  0  0  0  0  0  0  # atno 8009 bound_to 7997
  155.6476  140.3473  155.4739 H   0  0  0  0  0  0  0  0  0  0  0  0  # atno 8010 bound_to 7997
  140.0623  143.4956  152.2025 H   0  0  0  0  0  0  0  0  0  0  0  0  # atno 10167 bound_to 10162
  156.1124  130.4173  150.0597 H   0  0  0  0  0  0  0  0  0  0  0  0  # atno 10718 bound_to 10713
  153.4600  135.7016  153.6056 H   0  0  0  0  0  0  0  0  0  0  0  0  # atno 10763 bound_to 10752
  153.4355  135.3792  155.2196 H   0  0  0  0  0  0  0  0  0  0  0  0  # atno 10764 bound_to 10752
  154.8727  135.3961  154.4024 H   0  0  0  0  0  0  0  0  0  0  0  0  # atno 10765 bound_to 10752
  140.1668  134.8571  157.2642 H   0  0  0  0  0  0  0  0  0  0  0  0  # atno 11005 bound_to 11000
  146.3051  140.3870  142.8690 LP  0  0  0  0  0  0  0  0  0  0  0  0  # atno 17320 bound_to 7965
  144.8875  140.7481  143.5948 LP  0  0  0  0  0  0  0  0  0  0  0  0  # atno 17321 bound_to 7965
  139.5886  144.7541  151.3457 LP  0  0  0  0  0  0  0  0  0  0  0  0  # atno 17342 bound_to 10162
  140.7166  143.7250  150.7666 LP  0  0  0  0  0  0  0  0  0  0  0  0  # atno 17343 bound_to 10162
  156.8557  130.9474  151.3622 LP  0  0  0  0  0  0  0  0  0  0  0  0  # atno 17370 bound_to 10713
  157.6306  130.8726  149.9267 LP  0  0  0  0  0  0  0  0  0  0  0  0  # atno 17371 bound_to 10713
  140.2424  134.3780  155.7475 LP  0  0  0  0  0  0  0  0  0  0  0  0  # atno 17394 bound_to 11000
  141.2214  133.7272  156.8809 LP  0  0  0  0  0  0  0  0  0  0  0  0  # atno 17395 bound_to 11000

$$$$
