AV-unprocessed.smi:922|AV-procd|sdf|4173|dock1
  -GOLD-   22720 2 83D 1   1.00000     0.00000
 Structure written by MMmdl.
 32 33  0  0  0  0  0  0  0  0  2 V2000
  149.4484  144.0615  159.1646 C   0  0  0  0  0  0  0  0  0  0  0  0
  150.6825  143.1762  158.9655 C   0  0  2  0  0  0  0  0  0  0  0  0
  150.2983  141.7178  158.6540 C   0  0  0  0  0  0  0  0  0  0  0  0
  151.4899  140.8826  158.5863 N   0  0  0  0  0  0  0  0  0  0  0  0
  151.8226  140.0394  157.5249 C   0  0  0  0  0  0  0  0  0  0  0  0
  151.7044  140.5412  156.1333 C   0  0  0  0  0  0  0  0  0  0  0  0
  151.9911  139.8307  155.1160 N   0  0  0  0  0  0  0  0  0  0  0  0
  152.4615  138.4732  155.2678 N   0  5  0  0  0  0  0  0  0  0  0  0
  152.5894  137.9271  156.5144 C   0  0  0  0  0  0  0  0  0  0  0  0
  152.9770  136.7717  156.6813 O   0  0  0  0  0  0  0  0  0  0  0  0
  152.2519  138.7548  157.6804 C   0  0  0  0  0  0  0  0  0  0  0  0
  152.3698  138.0065  159.2403 Cl  0  0  0  0  0  0  0  0  0  0  0  0
  152.2413  140.9446  159.8343 C   0  0  0  0  0  0  0  0  0  0  0  0
  152.6323  142.4007  160.1755 C   0  0  0  0  0  0  0  0  0  0  0  0
  153.1673  142.4692  161.6141 C   0  0  0  0  0  0  0  0  0  0  0  0
  153.7010  142.9548  159.2087 C   0  0  0  0  0  0  0  0  0  0  0  0
  151.4546  143.2169  160.1666 O   0  0  0  0  0  0  0  0  0  0  0  0
  148.8300  144.0787  158.2669 H   0  0  0  0  0  0  0  0  0  0  0  0
  149.7383  145.0884  159.3883 H   0  0  0  0  0  0  0  0  0  0  0  0
  148.8327  143.7015  159.9894 H   0  0  0  0  0  0  0  0  0  0  0  0
  151.2641  143.5947  158.1451 H   0  0  0  0  0  0  0  0  0  0  0  0
  149.6475  141.3282  159.4377 H   0  0  0  0  0  0  0  0  0  0  0  0
  149.7289  141.6560  157.7266 H   0  0  0  0  0  0  0  0  0  0  0  0
  151.3562  141.5718  156.0263 H   0  0  0  0  0  0  0  0  0  0  0  0
  151.6241  140.5207  160.6276 H   0  0  0  0  0  0  0  0  0  0  0  0
  153.1396  140.3289  159.7740 H   0  0  0  0  0  0  0  0  0  0  0  0
  154.0636  141.8594  161.7332 H   0  0  0  0  0  0  0  0  0  0  0  0
  152.4258  142.1105  162.3286 H   0  0  0  0  0  0  0  0  0  0  0  0
  153.4223  143.4922  161.8924 H   0  0  0  0  0  0  0  0  0  0  0  0
  154.6339  142.3978  159.2995 H   0  0  0  0  0  0  0  0  0  0  0  0
  153.9194  144.0012  159.4226 H   0  0  0  0  0  0  0  0  0  0  0  0
  153.3954  142.8880  158.1651 H   0  0  0  0  0  0  0  0  0  0  0  0
  1  2  1  0  0  0  0
  1 18  1  0  0  0  0
  1 19  1  0  0  0  0
  1 20  1  0  0  0  0
  2 17  1  0  0  0  0
  2  3  1  0  0  0  0
  2 21  1  0  0  0  0
  3  4  1  0  0  0  0
  3 22  1  0  0  0  0
  3 23  1  0  0  0  0
  4  5  1  0  0  0  0
  4 13  1  0  0  0  0
  5 11  2  0  0  0  0
  5  6  1  0  0  0  0
  6  7  2  0  0  0  0
  6 24  1  0  0  0  0
  7  8  1  0  0  0  0
  8  9  1  0  0  0  0
  9 10  2  0  0  0  0
  9 11  1  0  0  0  0
 11 12  1  0  0  0  0
 13 14  1  0  0  0  0
 13 25  1  0  0  0  0
 13 26  1  0  0  0  0
 14 15  1  0  0  0  0
 14 16  1  0  0  0  0
 14 17  1  0  0  0  0
 15 27  1  0  0  0  0
 15 28  1  0  0  0  0
 15 29  1  0  0  0  0
 16 30  1  0  0  0  0
 16 31  1  0  0  0  0
 16 32  1  0  0  0  0
M  CHG  1   8  -1
M  END
> <s_m_source_file>
AV-unprocessed.smi

> <i_m_source_file_index>
922

> <i_lp_mmshare_version>
43012

> <i_f3d_flags>
0

> <s_epik_input>
W0NIM11bQ0BASF0oTzEpW0NIMl1OKFtDSDJdQzEoW0NIM10pW0NIM10pYzJbY0hdbltuSF1jKD1PKWMyQ2w=

> <s_epik_cmdline>
J2VwaWtfcHl0aG9uJywgJy1waCcsICc3LjAnLCAnLXRuJywgJzgnLCAnLW1hJywgJzIwMCcsICctbWV0YWxfYmluZGluZycsICctaW1hZScsICc8aW5maWxlLm1hZT4nLCAnLW9tYWUnLCAnPG91dGZpbGUubWFlPic=

> <r_lp_tautomer_probability>
1

> <r_epik_Ionization_Penalty>
2.48086

> <r_epik_Ionization_Penalty_Charging>
0.00187014

> <r_epik_Ionization_Penalty_Neutral>
2.47899

> <r_epik_State_Penalty>
0.0455822

> <r_epik_Charging_Adjusted_Penalty>
0.0474524

> <i_epik_Tot_Q>
-1

> <i_epik_Tot_abs_Q>
1

> <r_epik_Metal_State_Penalty>
0.000768086

> <b_epik_Metal_Only>
0

> <s_lp_Force_Field>
OPLS_2005

> <r_lp_Energy>
41.3096

> <b_lp_Chiralities_Consistent>
1

> <s_lp_Variant>
AV-unprocessed.smi:922-1

> <Gold.Version>
5.8.1

> <Gold.Id.Protein>
6NUR|6NUR_protein|mol2

> <Gold.PLP.Fitness>
34.0147

> <Gold.PLP.PLP>
-28.6269

> <Gold.PLP.part.hbond>
-2.2865

> <Gold.PLP.part.metal>
0.0000

> <Gold.PLP.part.buried>
-4.8115

> <Gold.PLP.part.nonpolar>
-21.5953

> <Gold.PLP.part.repulsive>
0.1029

> <Gold.PLP.ligand.clash>
0.0000

> <Gold.PLP.ligand.torsion>
0.6929

> <Gold.PLP.Chemscore.Hbond>
1.9360

> <Gold.PLP.Chemscore.CHOScore>
0.0000

> <Gold.PLP.Chemscore.Metal>
0.0000

> <Gold.Chemscore.Hbonds>
donor molecule, donor type, donor heavy atom, donor atom, acceptor molecule, acceptor atom, score
      P1  H  7989  7998       L1     7  0.88
      P1  H 10752 10763       L1    10  0.93

> <Gold.PLP.Chemscore.Internal.Correction>
0.9655

> <Gold.Rescore>
     Score         DG    S(hbond)    S(metal)    S(lipo)     H(rot)  DE(clash)    DE(int)     intcor
     19.15     -20.86       1.83        0.00      79.32       0.00       0.13       1.59       ----

> <Gold.Chemscore.Fitness>
19.1468

> <Gold.Chemscore.DG>
-20.8644

> <Gold.Chemscore.ZeroCoef>
-5.4800

> <Gold.Chemscore.Hbond>
1.8276

> <Gold.Chemscore.Metal>
0.0000

> <Gold.Chemscore.Lipo>
79.3188

> <Gold.Chemscore.Internal_Hbond>
0.0000

> <Gold.Chemscore.DEClash>
0.1326

> <Gold.Chemscore.DEInternal>
1.5850

> <Gold.Chemscore.Rot>
0.0000

> <Gold.Chemscore.Internal.Correction>
   9.000000E+99

> <Gold.Chemscore.Hbonds>
donor molecule, donor type, donor heavy atom, donor atom, acceptor molecule, acceptor atom, score
      P1  H  7989  7998       L1     7  0.60
      P1  H 10752 10763       L1    10  0.86

> <Gold.Chemscore.Hbond.Weighted>
-6.1040

> <Gold.Chemscore.Metal.Weighted>
-0.0000

> <Gold.Chemscore.Lipo.Weighted>
-9.2803

> <Gold.Chemscore.Internal_Hbond.Weighted>
0.0000

> <Gold.Chemscore.DEClash.Weighted>
0.1326

> <Gold.Chemscore.DEInternal.Weighted>
1.5850

> <Gold.Chemscore.Rot.Weighted>
0.0000

> <Gold.Chemscore.Internal.Correction.Weighted>
   9.000000E+99

> <Gold.Protein.RotatedTorsions>
[ 6907 6896 6895 6894 ] final   -3.06 input  -60.11 | X-H torsion
[ 7974 7965 7964 7962 ] final -133.98 input  175.53 | X-H torsion
[ 8008 7997 7996 7995 ] final -108.99 input   59.86 | X-H torsion
[ 10167 10162 10161 10158 ] final -164.65 input  -65.29 | X-H torsion
[ 10718 10713 10712 10709 ] final  -59.17 input   66.30 | X-H torsion
[ 10763 10752 10751 10750 ] final  101.59 input  -60.55 | X-H torsion
[ 11005 11000 10999 10996 ] final   59.29 input  -57.11 | X-H torsion

> <Gold.Protein.ActiveResidues>
 VAL166  LYS551  ARG553  GLY616  TRP617  ASP618  TYR619  PRO620  LYS621  CYS622 
 ASP623  PHE694  ASN695  SER759  ASP760  ASP761  ALA762  ILE779  LEU786  VAL792 
 PHE793  MET794  SER795  GLU796  ALA797  LYS798  CYS799  TRP800  GLU811  SER814 

> <Gold.Protein.RotatedAtoms>
  151.5199  135.1067  159.9875 H   0  0  0  0  0  0  0  0  0  0  0  0  # atno 6907 bound_to 6896
  152.4625  133.7848  159.6880 H   0  0  0  0  0  0  0  0  0  0  0  0  # atno 6908 bound_to 6896
  150.8593  133.7603  159.3023 H   0  0  0  0  0  0  0  0  0  0  0  0  # atno 6909 bound_to 6896
  144.9144  140.6935  143.5005 H   0  0  0  0  0  0  0  0  0  0  0  0  # atno 7974 bound_to 7965
  154.9526  140.0400  157.2151 H   0  0  0  0  0  0  0  0  0  0  0  0  # atno 8008 bound_to 7997
  154.7964  140.2844  155.5931 H   0  0  0  0  0  0  0  0  0  0  0  0  # atno 8009 bound_to 7997
  156.2956  140.2563  156.2823 H   0  0  0  0  0  0  0  0  0  0  0  0  # atno 8010 bound_to 7997
  139.6236  144.0576  152.1955 H   0  0  0  0  0  0  0  0  0  0  0  0  # atno 10167 bound_to 10162
  156.1081  130.4178  150.0677 H   0  0  0  0  0  0  0  0  0  0  0  0  # atno 10718 bound_to 10713
  153.3287  135.4039  155.1477 H   0  0  0  0  0  0  0  0  0  0  0  0  # atno 10763 bound_to 10752
  154.8618  135.3605  154.5500 H   0  0  0  0  0  0  0  0  0  0  0  0  # atno 10764 bound_to 10752
  153.5937  135.7073  153.5472 H   0  0  0  0  0  0  0  0  0  0  0  0  # atno 10765 bound_to 10752
  140.0314  134.6006  155.9501 H   0  0  0  0  0  0  0  0  0  0  0  0  # atno 11005 bound_to 11000
  145.3401  139.1735  143.4490 LP  0  0  0  0  0  0  0  0  0  0  0  0  # atno 17320 bound_to 7965
  146.3174  140.3441  142.8650 LP  0  0  0  0  0  0  0  0  0  0  0  0  # atno 17321 bound_to 7965
  140.0224  144.6143  150.7556 LP  0  0  0  0  0  0  0  0  0  0  0  0  # atno 17342 bound_to 10162
  140.7397  143.2795  151.3641 LP  0  0  0  0  0  0  0  0  0  0  0  0  # atno 17343 bound_to 10162
  156.8648  130.9504  151.3615 LP  0  0  0  0  0  0  0  0  0  0  0  0  # atno 17370 bound_to 10713
  157.6260  130.8692  149.9191 LP  0  0  0  0  0  0  0  0  0  0  0  0  # atno 17371 bound_to 10713
  141.1833  133.6550  156.5112 LP  0  0  0  0  0  0  0  0  0  0  0  0  # atno 17394 bound_to 11000
  140.4219  134.7180  157.4894 LP  0  0  0  0  0  0  0  0  0  0  0  0  # atno 17395 bound_to 11000

$$$$
