AV-unprocessed.smi:2510|AV-procd|sdf|9873|dock6
  -GOLD-   2272013503D 1   1.00000     0.00000
 Structure written by MMmdl.
 48 49  0  0  0  0  0  0  0  0  1 V2000
  149.6745  141.3058  155.1687 C   0  0  0  0  0  0  0  0  0  0  0  0
  150.2721  141.2709  156.5853 C   0  0  0  0  0  0  0  0  0  0  0  0
  150.6356  139.8592  157.1088 C   0  0  0  0  0  0  0  0  0  0  0  0
  151.3958  139.9955  158.4515 C   0  0  0  0  0  0  0  0  0  0  0  0
  152.4637  141.0999  158.4856 C   0  0  0  0  0  0  0  0  0  0  0  0
  149.4459  138.8534  157.0372 C   0  0  2  0  0  0  0  0  0  0  0  0
  149.4992  137.8012  158.0515 N   0  0  0  0  0  0  0  0  0  0  0  0
  148.4701  137.4345  158.8304 C   0  0  0  0  0  0  0  0  0  0  0  0
  147.3336  137.8915  158.7114 O   0  0  0  0  0  0  0  0  0  0  0  0
  148.7782  136.4121  159.9259 C   0  0  0  0  0  0  0  0  0  0  0  0
  147.5824  136.2485  160.8277 C   0  0  0  0  0  0  0  0  0  0  0  0
  146.8131  135.0692  161.0581 C   0  0  0  0  0  0  0  0  0  0  0  0
  145.8774  135.4499  161.9780 C   0  0  0  0  0  0  0  0  0  0  0  0
  144.7832  134.6884  162.6447 C   0  0  0  0  0  0  0  0  0  0  0  0
  146.1112  136.7807  162.2360 N   0  0  0  0  0  0  0  0  0  0  0  0
  147.1476  137.2805  161.5379 N   0  0  0  0  0  0  0  0  0  0  0  0
  149.9598  138.3603  155.6723 C   0  0  2  0  0  0  0  0  0  0  0  0
  149.8319  136.8905  155.2787 C   0  0  0  0  0  0  0  0  0  0  0  0
  151.3262  138.9298  156.0798 C   0  0  1  0  0  0  0  0  0  0  0  0
  152.0099  139.6464  155.0622 O   0  0  0  0  0  0  0  0  0  0  0  0
  153.1696  138.9806  154.5951 C   0  0  0  0  0  0  0  0  0  0  0  0
  145.5801  137.3524  162.8776 H   0  0  0  0  0  0  0  0  0  0  0  0
  149.5573  142.3351  154.8302 H   0  0  0  0  0  0  0  0  0  0  0  0
  148.6886  140.8432  155.1327 H   0  0  0  0  0  0  0  0  0  0  0  0
  150.3128  140.7945  154.4485 H   0  0  0  0  0  0  0  0  0  0  0  0
  151.1631  141.8990  156.5737 H   0  0  0  0  0  0  0  0  0  0  0  0
  149.5946  141.7786  157.2711 H   0  0  0  0  0  0  0  0  0  0  0  0
  150.7026  140.1294  159.2817 H   0  0  0  0  0  0  0  0  0  0  0  0
  151.9193  139.0667  158.6762 H   0  0  0  0  0  0  0  0  0  0  0  0
  153.0376  141.0456  159.4107 H   0  0  0  0  0  0  0  0  0  0  0  0
  152.0235  142.0953  158.4403 H   0  0  0  0  0  0  0  0  0  0  0  0
  153.1649  141.0000  157.6569 H   0  0  0  0  0  0  0  0  0  0  0  0
  148.4661  139.3262  156.9538 H   0  0  0  0  0  0  0  0  0  0  0  0
  150.3974  137.3704  158.2163 H   0  0  0  0  0  0  0  0  0  0  0  0
  149.0559  135.4596  159.4721 H   0  0  0  0  0  0  0  0  0  0  0  0
  149.6436  136.7505  160.4965 H   0  0  0  0  0  0  0  0  0  0  0  0
  146.9402  134.0889  160.6227 H   0  0  0  0  0  0  0  0  0  0  0  0
  144.8783  133.6201  162.4497 H   0  0  0  0  0  0  0  0  0  0  0  0
  143.8083  135.0124  162.2801 H   0  0  0  0  0  0  0  0  0  0  0  0
  144.8089  134.8365  163.7245 H   0  0  0  0  0  0  0  0  0  0  0  0
  149.5250  138.9921  154.8959 H   0  0  0  0  0  0  0  0  0  0  0  0
  150.4103  136.2433  155.9382 H   0  0  0  0  0  0  0  0  0  0  0  0
  150.1869  136.7203  154.2627 H   0  0  0  0  0  0  0  0  0  0  0  0
  148.7934  136.5619  155.3200 H   0  0  0  0  0  0  0  0  0  0  0  0
  151.9586  138.1852  156.5687 H   0  0  0  0  0  0  0  0  0  0  0  0
  153.6689  139.5993  153.8497 H   0  0  0  0  0  0  0  0  0  0  0  0
  152.9202  138.0296  154.1248 H   0  0  0  0  0  0  0  0  0  0  0  0
  153.8744  138.7976  155.4069 H   0  0  0  0  0  0  0  0  0  0  0  0
  1  2  1  0  0  0  0
  1 23  1  0  0  0  0
  1 24  1  0  0  0  0
  1 25  1  0  0  0  0
  2  3  1  0  0  0  0
  2 26  1  0  0  0  0
  2 27  1  0  0  0  0
  3 19  1  0  0  0  0
  3  4  1  0  0  0  0
  3  6  1  0  0  0  0
  4  5  1  0  0  0  0
  4 28  1  0  0  0  0
  4 29  1  0  0  0  0
  5 30  1  0  0  0  0
  5 31  1  0  0  0  0
  5 32  1  0  0  0  0
  6  7  1  0  0  0  0
  6 17  1  0  0  0  0
  6 33  1  0  0  0  0
  7  8  1  0  0  0  0
  7 34  1  0  0  0  0
  8  9  2  0  0  0  0
  8 10  1  0  0  0  0
 10 11  1  0  0  0  0
 10 35  1  0  0  0  0
 10 36  1  0  0  0  0
 11 16  2  0  0  0  0
 11 12  1  0  0  0  0
 12 13  2  0  0  0  0
 12 37  1  0  0  0  0
 13 14  1  0  0  0  0
 13 15  1  0  0  0  0
 14 38  1  0  0  0  0
 14 39  1  0  0  0  0
 14 40  1  0  0  0  0
 15 22  1  0  0  0  0
 15 16  1  0  0  0  0
 17 18  1  0  0  0  0
 17 19  1  0  0  0  0
 17 41  1  0  0  0  0
 18 42  1  0  0  0  0
 18 43  1  0  0  0  0
 18 44  1  0  0  0  0
 19 20  1  0  0  0  0
 19 45  1  0  0  0  0
 20 21  1  0  0  0  0
 21 46  1  0  0  0  0
 21 47  1  0  0  0  0
 21 48  1  0  0  0  0
M  END
> <s_m_source_file>
AV-unprocessed.smi

> <i_m_source_file_index>
2510

> <i_lp_mmshare_version>
43012

> <i_f3d_flags>
0

> <s_epik_input>
W0NIM11PW0NAQEhdMVtDQEhdKFtDSDNdKVtDQEBIXShDMShbQ0gyXVtDSDNdKVtDSDJdW0NIM10pW05IXUMoPU8pW0NIMl1jMltjSF1jKFtDSDNdKVtuSF1uMg==

> <s_epik_cmdline>
J2VwaWtfcHl0aG9uJywgJy1waCcsICc3LjAnLCAnLXRuJywgJzgnLCAnLW1hJywgJzIwMCcsICctbWV0YWxfYmluZGluZycsICctaW1hZScsICc8aW5maWxlLm1hZT4nLCAnLW9tYWUnLCAnPG91dGZpbGUubWFlPic=

> <r_lp_tautomer_probability>
0.5

> <r_epik_Ionization_Penalty>
9.73156e-05

> <r_epik_Ionization_Penalty_Charging>
0

> <r_epik_Ionization_Penalty_Neutral>
9.73156e-05

> <r_epik_State_Penalty>
0.41068

> <r_epik_Charging_Adjusted_Penalty>
0.41068

> <i_epik_Tot_Q>
0

> <i_epik_Tot_abs_Q>
0

> <r_epik_Metal_State_Penalty>
0.410699

> <b_epik_Metal_Only>
0

> <s_lp_Force_Field>
OPLS_2005

> <r_lp_Energy>
25.1692

> <b_lp_Chiralities_Consistent>
1

> <s_lp_Variant>
AV-unprocessed.smi:2510-4

> <Gold.Version>
5.8.1

> <Gold.Id.Protein>
6NUR|6NUR_protein|mol2

> <Gold.PLP.Fitness>
38.7274

> <Gold.PLP.PLP>
-32.4166

> <Gold.PLP.part.hbond>
-3.7709

> <Gold.PLP.part.metal>
0.0000

> <Gold.PLP.part.buried>
-5.3506

> <Gold.PLP.part.nonpolar>
-23.7433

> <Gold.PLP.part.repulsive>
0.2774

> <Gold.PLP.ligand.clash>
0.0000

> <Gold.PLP.ligand.torsion>
1.0613

> <Gold.PLP.Chemscore.Hbond>
2.6112

> <Gold.PLP.Chemscore.CHOScore>
0.0000

> <Gold.PLP.Chemscore.Metal>
0.0000

> <Gold.Chemscore.Hbonds>
donor molecule, donor type, donor heavy atom, donor atom, acceptor molecule, acceptor atom, score
      P1  H  6931  6943       L1    16  0.57
      P1  H  6934  6947       L1    16  0.96
      P1  H  7989  7998       L1    20  0.87

> <Gold.PLP.Chemscore.Internal.Correction>
0.5998

> <Gold.Rescore>
     Score         DG    S(hbond)    S(metal)    S(lipo)     H(rot)  DE(clash)    DE(int)     intcor
     11.64     -15.33       1.30        0.00      86.54       1.81       0.01       3.68       ----

> <Gold.Chemscore.Fitness>
11.6416

> <Gold.Chemscore.DG>
-15.3259

> <Gold.Chemscore.ZeroCoef>
-5.4800

> <Gold.Chemscore.Hbond>
1.3038

> <Gold.Chemscore.Metal>
0.0000

> <Gold.Chemscore.Lipo>
86.5403

> <Gold.Chemscore.Internal_Hbond>
0.0000

> <Gold.Chemscore.DEClash>
0.0073

> <Gold.Chemscore.DEInternal>
3.6770

> <Gold.Chemscore.Rot>
1.8102

> <Gold.Chemscore.Internal.Correction>
   9.000000E+99

> <Gold.Chemscore.Hbonds>
donor molecule, donor type, donor heavy atom, donor atom, acceptor molecule, acceptor atom, score
      P1  H  6931  6943       L1    16  0.14
      P1  H  6934  6947       L1    16  0.91
      P1  H  7989  7998       L1    20  0.18

> <Gold.Chemscore.Hbond.Weighted>
-4.3548

> <Gold.Chemscore.Metal.Weighted>
-0.0000

> <Gold.Chemscore.Lipo.Weighted>
-10.1252

> <Gold.Chemscore.Internal_Hbond.Weighted>
0.0000

> <Gold.Chemscore.DEClash.Weighted>
0.0073

> <Gold.Chemscore.DEInternal.Weighted>
3.6770

> <Gold.Chemscore.Rot.Weighted>
4.6341

> <Gold.Chemscore.Internal.Correction.Weighted>
   9.000000E+99

> <Gold.Protein.RotatedTorsions>
[ 6907 6896 6895 6894 ] final   63.54 input  -60.11 | X-H torsion
[ 7974 7965 7964 7962 ] final  -23.20 input  175.53 | X-H torsion
[ 8008 7997 7996 7995 ] final  -34.61 input   59.86 | X-H torsion
[ 10167 10162 10161 10158 ] final  -94.58 input  -65.29 | X-H torsion
[ 10718 10713 10712 10709 ] final   27.31 input   66.30 | X-H torsion
[ 10763 10752 10751 10750 ] final -102.99 input  -60.55 | X-H torsion
[ 11005 11000 10999 10996 ] final -147.82 input  -57.11 | X-H torsion

> <Gold.Protein.ActiveResidues>
 VAL166  LYS551  ARG553  GLY616  TRP617  ASP618  TYR619  PRO620  LYS621  CYS622 
 ASP623  PHE694  ASN695  SER759  ASP760  ASP761  ALA762  ILE779  LEU786  VAL792 
 PHE793  MET794  SER795  GLU796  ALA797  LYS798  CYS799  TRP800  GLU811  SER814 

> <Gold.Protein.RotatedAtoms>
  152.4261  134.5866  159.9962 H   0  0  0  0  0  0  0  0  0  0  0  0  # atno 6907 bound_to 6896
  151.6002  133.3351  159.3054 H   0  0  0  0  0  0  0  0  0  0  0  0  # atno 6908 bound_to 6896
  150.8150  134.7364  159.6787 H   0  0  0  0  0  0  0  0  0  0  0  0  # atno 6909 bound_to 6896
  146.1630  140.4584  142.8563 H   0  0  0  0  0  0  0  0  0  0  0  0  # atno 7974 bound_to 7965
  154.4116  140.1679  156.2078 H   0  0  0  0  0  0  0  0  0  0  0  0  # atno 8008 bound_to 7997
  155.9470  140.3404  155.6352 H   0  0  0  0  0  0  0  0  0  0  0  0  # atno 8009 bound_to 7997
  155.6918  140.0734  157.2436 H   0  0  0  0  0  0  0  0  0  0  0  0  # atno 8010 bound_to 7997
  140.3129  143.3094  152.0129 H   0  0  0  0  0  0  0  0  0  0  0  0  # atno 10167 bound_to 10162
  157.2185  130.6968  149.6260 H   0  0  0  0  0  0  0  0  0  0  0  0  # atno 10718 bound_to 10713
  154.7774  135.4840  153.9773 H   0  0  0  0  0  0  0  0  0  0  0  0  # atno 10763 bound_to 10752
  153.1448  135.6779  153.8979 H   0  0  0  0  0  0  0  0  0  0  0  0  # atno 10764 bound_to 10752
  153.8642  135.3151  155.3417 H   0  0  0  0  0  0  0  0  0  0  0  0  # atno 10765 bound_to 10752
  140.7677  134.3225  157.5084 H   0  0  0  0  0  0  0  0  0  0  0  0  # atno 11005 bound_to 11000
  144.8053  140.6288  143.6451 LP  0  0  0  0  0  0  0  0  0  0  0  0  # atno 17320 bound_to 7965
  145.4540  139.1520  143.3903 LP  0  0  0  0  0  0  0  0  0  0  0  0  # atno 17321 bound_to 7965
  139.4890  144.6370  151.6954 LP  0  0  0  0  0  0  0  0  0  0  0  0  # atno 17342 bound_to 10162
  140.5552  144.0360  150.6144 LP  0  0  0  0  0  0  0  0  0  0  0  0  # atno 17343 bound_to 10162
  155.9684  130.4527  150.5785 LP  0  0  0  0  0  0  0  0  0  0  0  0  # atno 17370 bound_to 10713
  157.3600  131.0748  151.1644 LP  0  0  0  0  0  0  0  0  0  0  0  0  # atno 17371 bound_to 10713
  139.8760  134.9241  156.3342 LP  0  0  0  0  0  0  0  0  0  0  0  0  # atno 17394 bound_to 11000
  140.9603  133.7393  156.0392 LP  0  0  0  0  0  0  0  0  0  0  0  0  # atno 17395 bound_to 11000

$$$$
