AV-unprocessed.smi:2507|AV-procd|sdf|9864|dock1
  -GOLD-   2272013493D 1   1.00000     0.00000
 Structure written by MMmdl.
 44 45  0  0  0  0  0  0  0  0  1 V2000
  143.3410  136.1075  152.3479 C   0  0  0  0  0  0  0  0  0  0  0  0
  144.7078  136.0955  151.6546 C   0  0  0  0  0  0  0  0  0  0  0  0
  145.0476  134.7373  151.1049 C   0  0  0  0  0  0  0  0  0  0  0  0
  144.2296  134.1489  150.2427 N   0  0  0  0  0  0  0  0  0  0  0  0
  144.8184  132.9661  149.9441 N   0  0  0  0  0  0  0  0  0  0  0  0
  144.1683  132.0658  149.0164 C   0  0  0  0  0  0  0  0  0  0  0  0
  146.0150  132.7943  150.6094 C   0  0  0  0  0  0  0  0  0  0  0  0
  146.1841  133.9228  151.3610 C   0  0  0  0  0  0  0  0  0  0  0  0
  147.2499  134.2680  152.2311 N   0  0  0  0  0  0  0  0  0  0  0  0
  147.6032  133.6575  153.3741 C   0  0  0  0  0  0  0  0  0  0  0  0
  147.0426  132.6717  153.8530 O   0  0  0  0  0  0  0  0  0  0  0  0
  148.6562  134.2620  153.9419 N   0  0  0  0  0  0  0  0  0  0  0  0
  149.2843  133.8533  155.1929 C   0  0  0  0  0  0  0  0  0  0  0  0
  150.4721  134.7618  155.5543 C   0  0  0  0  0  0  0  0  0  0  0  0
  150.3342  136.1821  154.9840 C   0  0  1  0  0  0  0  0  0  0  0  0
  149.4179  137.0646  155.8543 C   0  0  0  0  0  0  0  0  0  0  0  0
  149.3629  138.4943  155.3041 C   0  0  0  0  0  0  0  0  0  0  0  0
  150.7852  139.0383  155.1360 C   0  0  0  0  0  0  0  0  0  0  0  0
  151.6356  138.0611  154.3091 C   0  0  0  0  0  0  0  0  0  0  0  0
  151.6299  136.7752  154.9216 O   0  0  0  0  0  0  0  0  0  0  0  0
  143.1109  137.0997  152.7364 H   0  0  0  0  0  0  0  0  0  0  0  0
  143.3171  135.4085  153.1844 H   0  0  0  0  0  0  0  0  0  0  0  0
  142.5470  135.8287  151.6546 H   0  0  0  0  0  0  0  0  0  0  0  0
  144.7131  136.8350  150.8539 H   0  0  0  0  0  0  0  0  0  0  0  0
  145.4749  136.4144  152.3615 H   0  0  0  0  0  0  0  0  0  0  0  0
  144.7810  131.1765  148.8660 H   0  0  0  0  0  0  0  0  0  0  0  0
  144.0249  132.5639  148.0569 H   0  0  0  0  0  0  0  0  0  0  0  0
  143.1981  131.7652  149.4128 H   0  0  0  0  0  0  0  0  0  0  0  0
  146.6181  131.9071  150.4863 H   0  0  0  0  0  0  0  0  0  0  0  0
  147.8003  135.0677  151.9545 H   0  0  0  0  0  0  0  0  0  0  0  0
  149.0523  135.0648  153.4755 H   0  0  0  0  0  0  0  0  0  0  0  0
  148.5454  133.8452  155.9960 H   0  0  0  0  0  0  0  0  0  0  0  0
  149.6261  132.8247  155.0765 H   0  0  0  0  0  0  0  0  0  0  0  0
  150.5550  134.8204  156.6403 H   0  0  0  0  0  0  0  0  0  0  0  0
  151.4027  134.3170  155.1992 H   0  0  0  0  0  0  0  0  0  0  0  0
  149.9201  136.1168  153.9761 H   0  0  0  0  0  0  0  0  0  0  0  0
  148.4128  136.6434  155.8941 H   0  0  0  0  0  0  0  0  0  0  0  0
  149.7902  137.0833  156.8797 H   0  0  0  0  0  0  0  0  0  0  0  0
  148.8516  138.4975  154.3407 H   0  0  0  0  0  0  0  0  0  0  0  0
  148.7848  139.1366  155.9693 H   0  0  0  0  0  0  0  0  0  0  0  0
  150.7614  140.0176  154.6574 H   0  0  0  0  0  0  0  0  0  0  0  0
  151.2422  139.1786  156.1164 H   0  0  0  0  0  0  0  0  0  0  0  0
  151.2628  137.9904  153.2863 H   0  0  0  0  0  0  0  0  0  0  0  0
  152.6637  138.4178  154.2484 H   0  0  0  0  0  0  0  0  0  0  0  0
  1  2  1  0  0  0  0
  1 21  1  0  0  0  0
  1 22  1  0  0  0  0
  1 23  1  0  0  0  0
  2  3  1  0  0  0  0
  2 24  1  0  0  0  0
  2 25  1  0  0  0  0
  3  8  1  0  0  0  0
  3  4  2  0  0  0  0
  4  5  1  0  0  0  0
  5  6  1  0  0  0  0
  5  7  1  0  0  0  0
  6 26  1  0  0  0  0
  6 27  1  0  0  0  0
  6 28  1  0  0  0  0
  7  8  2  0  0  0  0
  7 29  1  0  0  0  0
  8  9  1  0  0  0  0
  9 10  1  0  0  0  0
  9 30  1  0  0  0  0
 10 11  2  0  0  0  0
 10 12  1  0  0  0  0
 12 13  1  0  0  0  0
 12 31  1  0  0  0  0
 13 14  1  0  0  0  0
 13 32  1  0  0  0  0
 13 33  1  0  0  0  0
 14 15  1  0  0  0  0
 14 34  1  0  0  0  0
 14 35  1  0  0  0  0
 15 20  1  0  0  0  0
 15 16  1  0  0  0  0
 15 36  1  0  0  0  0
 16 17  1  0  0  0  0
 16 37  1  0  0  0  0
 16 38  1  0  0  0  0
 17 18  1  0  0  0  0
 17 39  1  0  0  0  0
 17 40  1  0  0  0  0
 18 19  1  0  0  0  0
 18 41  1  0  0  0  0
 18 42  1  0  0  0  0
 19 20  1  0  0  0  0
 19 43  1  0  0  0  0
 19 44  1  0  0  0  0
M  END
> <s_m_source_file>
AV-unprocessed.smi

> <i_m_source_file_index>
2507

> <i_lp_mmshare_version>
43012

> <i_f3d_flags>
0

> <s_epik_input>
W0NIM11bQ0gyXWMxbm4oW0NIM10pW2NIXWMxW05IXUMoPU8pW05IXVtDSDJdW0NIMl1bQ0BASF0yW0NIMl1bQ0gyXVtDSDJdW0NIMl1PMg==

> <s_epik_cmdline>
J2VwaWtfcHl0aG9uJywgJy1waCcsICc3LjAnLCAnLXRuJywgJzgnLCAnLW1hJywgJzIwMCcsICctbWV0YWxfYmluZGluZycsICctaW1hZScsICc8aW5maWxlLm1hZT4nLCAnLW9tYWUnLCAnPG91dGZpbGUubWFlPic=

> <r_lp_tautomer_probability>
1

> <r_epik_Ionization_Penalty>
0.00072031

> <r_epik_Ionization_Penalty_Charging>
0

> <r_epik_Ionization_Penalty_Neutral>
0.00072031

> <r_epik_State_Penalty>
-0

> <r_epik_Charging_Adjusted_Penalty>
0

> <i_epik_Tot_Q>
0

> <i_epik_Tot_abs_Q>
0

> <r_epik_Metal_State_Penalty>
-0

> <b_epik_Metal_Only>
0

> <s_lp_Force_Field>
OPLS_2005

> <r_lp_Energy>
7.2839

> <b_lp_Chiralities_Consistent>
1

> <s_lp_Variant>
AV-unprocessed.smi:2507-2

> <Gold.Version>
5.8.1

> <Gold.Id.Protein>
6NUR|6NUR_protein|mol2

> <Gold.PLP.Fitness>
42.8461

> <Gold.PLP.PLP>
-33.4080

> <Gold.PLP.part.hbond>
-3.0000

> <Gold.PLP.part.metal>
0.0000

> <Gold.PLP.part.buried>
-2.6478

> <Gold.PLP.part.nonpolar>
-27.7574

> <Gold.PLP.part.repulsive>
0.4447

> <Gold.PLP.ligand.clash>
0.0000

> <Gold.PLP.ligand.torsion>
1.0472

> <Gold.PLP.Chemscore.Hbond>
2.8208

> <Gold.PLP.Chemscore.CHOScore>
0.9999

> <Gold.PLP.Chemscore.Metal>
0.0000

> <Gold.Chemscore.Hbonds>
donor molecule, donor type, donor heavy atom, donor atom, acceptor molecule, acceptor atom, score
      L1  H     9    30       P1  7948  1.00
      L1  H    12    31       P1  7948  0.90
      P1  H 10752 10764       L1    20  1.00
      L1  C     7    29       P1 10747  0.86

> <Gold.PLP.Chemscore.Internal.Correction>
0.0704

> <Gold.Rescore>
     Score         DG    S(hbond)    S(metal)    S(lipo)     H(rot)  DE(clash)    DE(int)     intcor
     15.97     -17.30       2.07        0.00      74.91       1.50       0.15       1.18       ----

> <Gold.Chemscore.Fitness>
15.9736

> <Gold.Chemscore.DG>
-17.3048

> <Gold.Chemscore.ZeroCoef>
-5.4800

> <Gold.Chemscore.Hbond>
2.0692

> <Gold.Chemscore.Metal>
0.0000

> <Gold.Chemscore.Lipo>
74.9086

> <Gold.Chemscore.Internal_Hbond>
0.0000

> <Gold.Chemscore.DEClash>
0.1537

> <Gold.Chemscore.DEInternal>
1.1776

> <Gold.Chemscore.Rot>
1.5042

> <Gold.Chemscore.Internal.Correction>
   9.000000E+99

> <Gold.Chemscore.Hbonds>
donor molecule, donor type, donor heavy atom, donor atom, acceptor molecule, acceptor atom, score
      L1  H     9    30       P1  7948  0.73
      L1  H    12    31       P1  7948  0.26
      P1  H 10752 10764       L1    20  0.87

> <Gold.Chemscore.Hbond.Weighted>
-6.9112

> <Gold.Chemscore.Metal.Weighted>
-0.0000

> <Gold.Chemscore.Lipo.Weighted>
-8.7643

> <Gold.Chemscore.Internal_Hbond.Weighted>
0.0000

> <Gold.Chemscore.DEClash.Weighted>
0.1537

> <Gold.Chemscore.DEInternal.Weighted>
1.1776

> <Gold.Chemscore.Rot.Weighted>
3.8507

> <Gold.Chemscore.Internal.Correction.Weighted>
   9.000000E+99

> <Gold.Protein.RotatedTorsions>
[ 6907 6896 6895 6894 ] final  -98.26 input  -60.11 | X-H torsion
[ 7974 7965 7964 7962 ] final  -45.92 input  175.53 | X-H torsion
[ 8008 7997 7996 7995 ] final  127.55 input   59.86 | X-H torsion
[ 10167 10162 10161 10158 ] final -108.48 input  -65.29 | X-H torsion
[ 10718 10713 10712 10709 ] final -143.42 input   66.30 | X-H torsion
[ 10763 10752 10751 10750 ] final  -54.77 input  -60.55 | X-H torsion
[ 11005 11000 10999 10996 ] final  -32.13 input  -57.11 | X-H torsion

> <Gold.Protein.ActiveResidues>
 VAL166  LYS551  ARG553  GLY616  TRP617  ASP618  TYR619  PRO620  LYS621  CYS622 
 ASP623  PHE694  ASN695  SER759  ASP760  ASP761  ALA762  ILE779  LEU786  VAL792 
 PHE793  MET794  SER795  GLU796  ALA797  LYS798  CYS799  TRP800  GLU811  SER814 

> <Gold.Protein.RotatedAtoms>
  150.7041  134.1222  159.4038 H   0  0  0  0  0  0  0  0  0  0  0  0  # atno 6907 bound_to 6896
  151.9208  135.0296  160.0531 H   0  0  0  0  0  0  0  0  0  0  0  0  # atno 6908 bound_to 6896
  152.2257  133.4983  159.5224 H   0  0  0  0  0  0  0  0  0  0  0  0  # atno 6909 bound_to 6896
  145.9771  140.7322  142.9381 H   0  0  0  0  0  0  0  0  0  0  0  0  # atno 7974 bound_to 7965
  156.2893  140.2666  156.2291 H   0  0  0  0  0  0  0  0  0  0  0  0  # atno 8008 bound_to 7997
  155.0090  140.0387  157.2410 H   0  0  0  0  0  0  0  0  0  0  0  0  # atno 8009 bound_to 7997
  154.7534  140.2747  155.6278 H   0  0  0  0  0  0  0  0  0  0  0  0  # atno 8010 bound_to 7997
  140.1657  143.4084  152.1393 H   0  0  0  0  0  0  0  0  0  0  0  0  # atno 10167 bound_to 10162
  156.3577  130.7722  151.1885 H   0  0  0  0  0  0  0  0  0  0  0  0  # atno 10718 bound_to 10713
  154.1801  135.6444  153.5032 H   0  0  0  0  0  0  0  0  0  0  0  0  # atno 10763 bound_to 10752
  153.0061  135.5404  154.6523 H   0  0  0  0  0  0  0  0  0  0  0  0  # atno 10764 bound_to 10752
  154.5885  135.2932  155.0633 H   0  0  0  0  0  0  0  0  0  0  0  0  # atno 10765 bound_to 10752
  140.9526  133.7212  156.1244 H   0  0  0  0  0  0  0  0  0  0  0  0  # atno 11005 bound_to 11000
  144.6852  140.2846  143.7287 LP  0  0  0  0  0  0  0  0  0  0  0  0  # atno 17320 bound_to 7965
  145.7822  139.1896  143.2151 LP  0  0  0  0  0  0  0  0  0  0  0  0  # atno 17321 bound_to 7965
  139.5361  144.7210  151.4889 LP  0  0  0  0  0  0  0  0  0  0  0  0  # atno 17342 bound_to 10162
  140.6615  143.8489  150.6893 LP  0  0  0  0  0  0  0  0  0  0  0  0  # atno 17343 bound_to 10162
  157.7469  131.0409  150.4620 LP  0  0  0  0  0  0  0  0  0  0  0  0  # atno 17370 bound_to 10713
  156.4826  130.4077  149.6453 LP  0  0  0  0  0  0  0  0  0  0  0  0  # atno 17371 bound_to 10713
  140.7581  134.3970  157.5530 LP  0  0  0  0  0  0  0  0  0  0  0  0  # atno 17394 bound_to 11000
  139.8852  134.8943  156.2656 LP  0  0  0  0  0  0  0  0  0  0  0  0  # atno 17395 bound_to 11000

$$$$
