AV-unprocessed.smi:1392|AV-procd|sdf|5661|dock4
  -GOLD-   22720 5283D 1   1.00000     0.00000
 Structure written by MMmdl.
 39 40  0  0  0  0  0  0  0  0  1 V2000
  150.2027  144.8964  159.4708 C   0  0  0  0  0  0  0  0  0  0  0  0
  151.4470  144.2072  159.1523 N   0  0  0  0  0  0  0  0  0  0  0  0
  151.8960  144.1194  157.7666 C   0  0  0  0  0  0  0  0  0  0  0  0
  152.2098  143.6046  160.1792 C   0  0  0  0  0  0  0  0  0  0  0  0
  152.2011  144.1119  161.5023 C   0  0  0  0  0  0  0  0  0  0  0  0
  152.9752  143.4758  162.4917 C   0  0  0  0  0  0  0  0  0  0  0  0
  153.7382  142.3388  162.1404 C   0  0  0  0  0  0  0  0  0  0  0  0
  154.5718  141.6216  163.0406 N   0  0  0  0  0  0  0  0  0  0  0  0
  155.0948  142.0352  164.2075 C   0  0  0  0  0  0  0  0  0  0  0  0
  154.9063  143.1369  164.7228 O   0  0  0  0  0  0  0  0  0  0  0  0
  155.8491  141.0785  164.7665 N   0  0  0  0  0  0  0  0  0  0  0  0
  156.5530  141.2031  166.0385 C   0  0  0  0  0  0  0  0  0  0  0  0
  155.7314  141.9839  167.0820 C   0  0  2  0  0  0  0  0  0  0  0  0
  156.0856  143.4530  167.2011 C   0  0  0  0  0  0  0  0  0  0  0  0
  155.5038  143.8051  168.5666 C   0  0  0  0  0  0  0  0  0  0  0  0
  155.5993  142.6177  169.3483 O   0  0  0  0  0  0  0  0  0  0  0  0
  155.9454  141.5117  168.5195 C   0  0  0  0  0  0  0  0  0  0  0  0
  153.6962  141.9167  160.7975 C   0  0  0  0  0  0  0  0  0  0  0  0
  152.9553  142.5225  159.8467 N   0  0  0  0  0  0  0  0  0  0  0  0
  150.3895  145.7325  160.1450 H   0  0  0  0  0  0  0  0  0  0  0  0
  149.4971  144.2140  159.9457 H   0  0  0  0  0  0  0  0  0  0  0  0
  149.7274  145.2935  158.5738 H   0  0  0  0  0  0  0  0  0  0  0  0
  152.8794  144.5764  157.6527 H   0  0  0  0  0  0  0  0  0  0  0  0
  151.2105  144.6323  157.0923 H   0  0  0  0  0  0  0  0  0  0  0  0
  151.9587  143.0780  157.4497 H   0  0  0  0  0  0  0  0  0  0  0  0
  151.6206  144.9787  161.7792 H   0  0  0  0  0  0  0  0  0  0  0  0
  152.9768  143.8820  163.4911 H   0  0  0  0  0  0  0  0  0  0  0  0
  154.7504  140.6601  162.7901 H   0  0  0  0  0  0  0  0  0  0  0  0
  155.9454  140.2007  164.2773 H   0  0  0  0  0  0  0  0  0  0  0  0
  156.8054  140.2131  166.4219 H   0  0  0  0  0  0  0  0  0  0  0  0
  157.5001  141.7098  165.8508 H   0  0  0  0  0  0  0  0  0  0  0  0
  154.6684  141.9004  166.8492 H   0  0  0  0  0  0  0  0  0  0  0  0
  157.1685  143.5846  167.2105 H   0  0  0  0  0  0  0  0  0  0  0  0
  155.6733  144.0621  166.3960 H   0  0  0  0  0  0  0  0  0  0  0  0
  156.0251  144.6375  169.0394 H   0  0  0  0  0  0  0  0  0  0  0  0
  154.4508  144.0736  168.4728 H   0  0  0  0  0  0  0  0  0  0  0  0
  155.3498  140.6312  168.7617 H   0  0  0  0  0  0  0  0  0  0  0  0
  156.9940  141.2686  168.6954 H   0  0  0  0  0  0  0  0  0  0  0  0
  154.2712  141.0617  160.4732 H   0  0  0  0  0  0  0  0  0  0  0  0
  1  2  1  0  0  0  0
  1 20  1  0  0  0  0
  1 21  1  0  0  0  0
  1 22  1  0  0  0  0
  2  3  1  0  0  0  0
  2  4  1  0  0  0  0
  3 23  1  0  0  0  0
  3 24  1  0  0  0  0
  3 25  1  0  0  0  0
  4 19  1  0  0  0  0
  4  5  2  0  0  0  0
  5  6  1  0  0  0  0
  5 26  1  0  0  0  0
  6  7  2  0  0  0  0
  6 27  1  0  0  0  0
  7  8  1  0  0  0  0
  7 18  1  0  0  0  0
  8  9  1  0  0  0  0
  8 28  1  0  0  0  0
  9 10  2  0  0  0  0
  9 11  1  0  0  0  0
 11 12  1  0  0  0  0
 11 29  1  0  0  0  0
 12 13  1  0  0  0  0
 12 30  1  0  0  0  0
 12 31  1  0  0  0  0
 13 17  1  0  0  0  0
 13 14  1  0  0  0  0
 13 32  1  0  0  0  0
 14 15  1  0  0  0  0
 14 33  1  0  0  0  0
 14 34  1  0  0  0  0
 15 16  1  0  0  0  0
 15 35  1  0  0  0  0
 15 36  1  0  0  0  0
 16 17  1  0  0  0  0
 17 37  1  0  0  0  0
 17 38  1  0  0  0  0
 18 19  2  0  0  0  0
 18 39  1  0  0  0  0
M  END
> <s_m_source_file>
AV-unprocessed.smi

> <i_m_source_file_index>
1392

> <i_lp_mmshare_version>
43012

> <i_f3d_flags>
0

> <s_epik_input>
W0NIM11OKFtDSDNdKWMxW2NIXVtjSF1jKFtjSF1uMSlbTkhdQyg9TylbTkhdW0NIMl1bQ0BASF0yW0NIMl1bQ0gyXU9bQ0gyXTI=

> <s_epik_cmdline>
J2VwaWtfcHl0aG9uJywgJy1waCcsICc3LjAnLCAnLXRuJywgJzgnLCAnLW1hJywgJzIwMCcsICctbWV0YWxfYmluZGluZycsICctaW1hZScsICc8aW5maWxlLm1hZT4nLCAnLW9tYWUnLCAnPG91dGZpbGUubWFlPic=

> <r_lp_tautomer_probability>
1

> <r_epik_Ionization_Penalty>
0.612298

> <r_epik_Ionization_Penalty_Charging>
0

> <r_epik_Ionization_Penalty_Neutral>
0.612298

> <r_epik_State_Penalty>
0.626495

> <r_epik_Charging_Adjusted_Penalty>
0.626495

> <i_epik_Tot_Q>
0

> <i_epik_Tot_abs_Q>
0

> <r_epik_Metal_State_Penalty>
0.304101

> <b_epik_Metal_Only>
0

> <s_lp_Force_Field>
OPLS_2005

> <r_lp_Energy>
22.6053

> <b_lp_Chiralities_Consistent>
1

> <s_lp_Variant>
AV-unprocessed.smi:1392-3

> <Gold.Version>
5.8.1

> <Gold.Id.Protein>
6NUR|6NUR_protein|mol2

> <Gold.PLP.Fitness>
43.0751

> <Gold.PLP.PLP>
-45.2136

> <Gold.PLP.part.hbond>
-1.0000

> <Gold.PLP.part.metal>
0.0000

> <Gold.PLP.part.buried>
-5.9817

> <Gold.PLP.part.nonpolar>
-37.1826

> <Gold.PLP.part.repulsive>
0.2628

> <Gold.PLP.ligand.clash>
0.0000

> <Gold.PLP.ligand.torsion>
1.0788

> <Gold.PLP.Chemscore.Hbond>
0.0000

> <Gold.PLP.Chemscore.CHOScore>
0.0000

> <Gold.PLP.Chemscore.Metal>
0.0000

> <Gold.PLP.Chemscore.Internal.Correction>
0.0192

> <Gold.Rescore>
     Score         DG    S(hbond)    S(metal)    S(lipo)     H(rot)  DE(clash)    DE(int)     intcor
      8.11     -13.74       0.00        0.00      97.14       1.21       0.41       5.22       ----

> <Gold.Chemscore.Fitness>
8.1070

> <Gold.Chemscore.DG>
-13.7359

> <Gold.Chemscore.ZeroCoef>
-5.4800

> <Gold.Chemscore.Hbond>
0.0000

> <Gold.Chemscore.Metal>
0.0000

> <Gold.Chemscore.Lipo>
97.1385

> <Gold.Chemscore.Internal_Hbond>
0.0000

> <Gold.Chemscore.DEClash>
0.4107

> <Gold.Chemscore.DEInternal>
5.2183

> <Gold.Chemscore.Rot>
1.2146

> <Gold.Chemscore.Internal.Correction>
   9.000000E+99

> <Gold.Chemscore.Hbond.Weighted>
-0.0000

> <Gold.Chemscore.Metal.Weighted>
-0.0000

> <Gold.Chemscore.Lipo.Weighted>
-11.3652

> <Gold.Chemscore.Internal_Hbond.Weighted>
0.0000

> <Gold.Chemscore.DEClash.Weighted>
0.4107

> <Gold.Chemscore.DEInternal.Weighted>
5.2183

> <Gold.Chemscore.Rot.Weighted>
3.1093

> <Gold.Chemscore.Internal.Correction.Weighted>
   9.000000E+99

> <Gold.Protein.RotatedTorsions>
[ 6907 6896 6895 6894 ] final   19.84 input  -60.11 | X-H torsion
[ 7974 7965 7964 7962 ] final   66.37 input  175.53 | X-H torsion
[ 8008 7997 7996 7995 ] final  111.13 input   59.86 | X-H torsion
[ 10167 10162 10161 10158 ] final  174.37 input  -65.29 | X-H torsion
[ 10718 10713 10712 10709 ] final  167.49 input   66.30 | X-H torsion
[ 10763 10752 10751 10750 ] final  -52.80 input  -60.55 | X-H torsion
[ 11005 11000 10999 10996 ] final  -65.41 input  -57.11 | X-H torsion

> <Gold.Protein.ActiveResidues>
 VAL166  LYS551  ARG553  GLY616  TRP617  ASP618  TYR619  PRO620  LYS621  CYS622 
 ASP623  PHE694  ASN695  SER759  ASP760  ASP761  ALA762  ILE779  LEU786  VAL792 
 PHE793  MET794  SER795  GLU796  ALA797  LYS798  CYS799  TRP800  GLU811  SER814 

> <Gold.Protein.RotatedAtoms>
  151.8872  135.0431  160.0494 H   0  0  0  0  0  0  0  0  0  0  0  0  # atno 6907 bound_to 6896
  152.2465  133.5175  159.5309 H   0  0  0  0  0  0  0  0  0  0  0  0  # atno 6908 bound_to 6896
  150.7070  134.0934  159.3982 H   0  0  0  0  0  0  0  0  0  0  0  0  # atno 6909 bound_to 6896
  145.8275  139.3119  143.1007 H   0  0  0  0  0  0  0  0  0  0  0  0  # atno 7974 bound_to 7965
  156.2102  140.3025  155.9716 H   0  0  0  0  0  0  0  0  0  0  0  0  # atno 8008 bound_to 7997
  155.2742  140.0435  157.3027 H   0  0  0  0  0  0  0  0  0  0  0  0  # atno 8009 bound_to 7997
  154.5689  140.2342  155.8230 H   0  0  0  0  0  0  0  0  0  0  0  0  # atno 8010 bound_to 7997
  139.5139  144.3154  152.0252 H   0  0  0  0  0  0  0  0  0  0  0  0  # atno 10167 bound_to 10162
  157.0507  131.0313  151.2681 H   0  0  0  0  0  0  0  0  0  0  0  0  # atno 10718 bound_to 10713
  154.1486  135.6493  153.4958 H   0  0  0  0  0  0  0  0  0  0  0  0  # atno 10763 bound_to 10752
  153.0144  135.5332  154.6831 H   0  0  0  0  0  0  0  0  0  0  0  0  # atno 10764 bound_to 10752
  154.6113  135.2954  155.0401 H   0  0  0  0  0  0  0  0  0  0  0  0  # atno 10765 bound_to 10752
  141.1453  133.6681  156.5982 H   0  0  0  0  0  0  0  0  0  0  0  0  # atno 11005 bound_to 11000
  145.9608  140.8837  143.0212 LP  0  0  0  0  0  0  0  0  0  0  0  0  # atno 17320 bound_to 7965
  144.6742  140.1809  143.7406 LP  0  0  0  0  0  0  0  0  0  0  0  0  # atno 17321 bound_to 7965
  140.2598  144.4080  150.6190 LP  0  0  0  0  0  0  0  0  0  0  0  0  # atno 17342 bound_to 10162
  140.6165  143.2173  151.6780 LP  0  0  0  0  0  0  0  0  0  0  0  0  # atno 17343 bound_to 10162
  157.5032  130.7893  149.7626 LP  0  0  0  0  0  0  0  0  0  0  0  0  # atno 17370 bound_to 10713
  156.0008  130.3881  150.2612 LP  0  0  0  0  0  0  0  0  0  0  0  0  # atno 17371 bound_to 10713
  140.3710  134.7606  157.4598 LP  0  0  0  0  0  0  0  0  0  0  0  0  # atno 17394 bound_to 11000
  140.0711  134.5861  155.8641 LP  0  0  0  0  0  0  0  0  0  0  0  0  # atno 17395 bound_to 11000

$$$$
