AV-unprocessed.smi:91|AV-procd|sdf|834|dock5
  -GOLD-   2262017263D 1   1.00000     0.00000
 Structure written by MMmdl.
 60 63  0  0  0  0  0  0  0  0  1 V2000
  152.9194  142.7322  162.1588 C   0  0  0  0  0  0  0  0  0  0  0  0
  153.1451  141.5150  161.4656 O   0  0  0  0  0  0  0  0  0  0  0  0
  153.9288  141.6505  160.2871 C   0  0  0  0  0  0  0  0  0  0  0  0
  153.0992  142.1032  159.0723 C   0  0  1  0  0  0  0  0  0  0  0  0
  152.3267  140.9355  158.4326 C   0  0  0  0  0  0  0  0  0  0  0  0
  151.4249  141.4335  157.4001 N   0  0  0  0  0  0  0  0  0  0  0  0
  150.9808  140.5175  156.5011 C   0  0  0  0  0  0  0  0  0  0  0  0
  150.3838  140.9937  155.3774 N   0  0  0  0  0  0  0  0  0  0  0  0
  149.9108  140.1556  154.4514 C   0  0  0  0  0  0  0  0  0  0  0  0
  149.9330  138.8225  154.4448 N   0  0  0  0  0  0  0  0  0  0  0  0
  150.5375  138.3332  155.5642 C   0  0  0  0  0  0  0  0  0  0  0  0
  151.0807  139.0990  156.6369 C   0  0  0  0  0  0  0  0  0  0  0  0
  151.6109  138.2402  157.5952 N   0  0  0  0  0  0  0  0  0  0  0  0
  151.3894  137.0452  157.1223 C   0  0  0  0  0  0  0  0  0  0  0  0
  150.7671  137.0093  155.8962 N   0  0  0  0  0  0  0  0  0  0  0  0
  150.4016  135.8219  155.1438 C   0  0  0  0  0  0  0  0  0  0  0  0
  149.7849  134.6726  155.9857 C   0  0  2  0  0  0  0  0  0  0  0  0
  150.9532  133.8481  156.5792 C   0  0  0  0  0  0  0  0  0  0  0  0
  150.5025  132.8696  157.4931 O   0  0  0  0  0  0  0  0  0  0  0  0
  148.7803  133.7922  155.1794 C   0  0  2  0  0  0  0  0  0  0  0  0
  149.3657  133.0439  153.9796 C   0  0  0  0  0  0  0  0  0  0  0  0
  148.2489  133.0244  152.9320 C   0  0  0  0  0  0  0  0  0  0  0  0
  147.1264  133.6090  153.5715 O   0  0  0  0  0  0  0  0  0  0  0  0
  147.6236  134.5425  154.5121 C   0  0  0  0  0  0  0  0  0  0  0  0
  150.5143  142.4678  157.8742 C   0  0  0  0  0  0  0  0  0  0  0  0
  151.2875  143.6255  158.5425 C   0  0  0  0  0  0  0  0  0  0  0  0
  152.0519  144.4804  157.5088 C   0  0  0  0  0  0  0  0  0  0  0  0
  150.3088  144.5241  159.3138 C   0  0  0  0  0  0  0  0  0  0  0  0
  152.1741  143.0900  159.5315 O   0  0  0  0  0  0  0  0  0  0  0  0
  152.2597  142.5478  163.0064 H   0  0  0  0  0  0  0  0  0  0  0  0
  152.4379  143.4707  161.5164 H   0  0  0  0  0  0  0  0  0  0  0  0
  153.8447  143.1557  162.5488 H   0  0  0  0  0  0  0  0  0  0  0  0
  154.7010  142.3934  160.4888 H   0  0  0  0  0  0  0  0  0  0  0  0
  154.4532  140.7182  160.0718 H   0  0  0  0  0  0  0  0  0  0  0  0
  153.7634  142.5535  158.3367 H   0  0  0  0  0  0  0  0  0  0  0  0
  153.0349  140.2110  158.0303 H   0  0  0  0  0  0  0  0  0  0  0  0
  151.7369  140.4148  159.1882 H   0  0  0  0  0  0  0  0  0  0  0  0
  149.4487  140.6203  153.5929 H   0  0  0  0  0  0  0  0  0  0  0  0
  151.6896  136.1526  157.6520 H   0  0  0  0  0  0  0  0  0  0  0  0
  149.7093  136.1136  154.3529 H   0  0  0  0  0  0  0  0  0  0  0  0
  151.3064  135.4744  154.6432 H   0  0  0  0  0  0  0  0  0  0  0  0
  149.2514  135.1260  156.8222 H   0  0  0  0  0  0  0  0  0  0  0  0
  151.5382  133.3758  155.7894 H   0  0  0  0  0  0  0  0  0  0  0  0
  151.6375  134.4914  157.1330 H   0  0  0  0  0  0  0  0  0  0  0  0
  150.4725  132.0353  157.0503 H   0  0  0  0  0  0  0  0  0  0  0  0
  148.3382  133.0582  155.8551 H   0  0  0  0  0  0  0  0  0  0  0  0
  150.2386  133.5547  153.5719 H   0  0  0  0  0  0  0  0  0  0  0  0
  149.6646  132.0312  154.2482 H   0  0  0  0  0  0  0  0  0  0  0  0
  148.5257  133.6253  152.0645 H   0  0  0  0  0  0  0  0  0  0  0  0
  148.0166  132.0165  152.5874 H   0  0  0  0  0  0  0  0  0  0  0  0
  146.8457  134.8369  155.2169 H   0  0  0  0  0  0  0  0  0  0  0  0
  147.9736  135.4325  153.9861 H   0  0  0  0  0  0  0  0  0  0  0  0
  149.9151  142.8548  157.0490 H   0  0  0  0  0  0  0  0  0  0  0  0
  149.8280  142.0188  158.5935 H   0  0  0  0  0  0  0  0  0  0  0  0
  151.3602  144.9863  156.8347 H   0  0  0  0  0  0  0  0  0  0  0  0
  152.7190  143.8857  156.8855 H   0  0  0  0  0  0  0  0  0  0  0  0
  152.6523  145.2467  157.9996 H   0  0  0  0  0  0  0  0  0  0  0  0
  149.5678  144.9674  158.6477 H   0  0  0  0  0  0  0  0  0  0  0  0
  150.8323  145.3379  159.8166 H   0  0  0  0  0  0  0  0  0  0  0  0
  149.7716  143.9596  160.0766 H   0  0  0  0  0  0  0  0  0  0  0  0
  1  2  1  0  0  0  0
  1 30  1  0  0  0  0
  1 31  1  0  0  0  0
  1 32  1  0  0  0  0
  2  3  1  0  0  0  0
  3  4  1  0  0  0  0
  3 33  1  0  0  0  0
  3 34  1  0  0  0  0
  4 29  1  0  0  0  0
  4  5  1  0  0  0  0
  4 35  1  0  0  0  0
  5  6  1  0  0  0  0
  5 36  1  0  0  0  0
  5 37  1  0  0  0  0
  6  7  1  0  0  0  0
  6 25  1  0  0  0  0
  7 12  1  0  0  0  0
  7  8  2  0  0  0  0
  8  9  1  0  0  0  0
  9 10  2  0  0  0  0
  9 38  1  0  0  0  0
 10 11  1  0  0  0  0
 11 15  1  0  0  0  0
 11 12  2  0  0  0  0
 12 13  1  0  0  0  0
 13 14  2  0  0  0  0
 14 15  1  0  0  0  0
 14 39  1  0  0  0  0
 15 16  1  0  0  0  0
 16 17  1  0  0  0  0
 16 40  1  0  0  0  0
 16 41  1  0  0  0  0
 17 18  1  0  0  0  0
 17 20  1  0  0  0  0
 17 42  1  0  0  0  0
 18 19  1  0  0  0  0
 18 43  1  0  0  0  0
 18 44  1  0  0  0  0
 19 45  1  0  0  0  0
 20 24  1  0  0  0  0
 20 21  1  0  0  0  0
 20 46  1  0  0  0  0
 21 22  1  0  0  0  0
 21 47  1  0  0  0  0
 21 48  1  0  0  0  0
 22 23  1  0  0  0  0
 22 49  1  0  0  0  0
 22 50  1  0  0  0  0
 23 24  1  0  0  0  0
 24 51  1  0  0  0  0
 24 52  1  0  0  0  0
 25 26  1  0  0  0  0
 25 53  1  0  0  0  0
 25 54  1  0  0  0  0
 26 27  1  0  0  0  0
 26 28  1  0  0  0  0
 26 29  1  0  0  0  0
 27 55  1  0  0  0  0
 27 56  1  0  0  0  0
 27 57  1  0  0  0  0
 28 58  1  0  0  0  0
 28 59  1  0  0  0  0
 28 60  1  0  0  0  0
M  END
> <s_m_source_file>
AV-unprocessed.smi

> <i_m_source_file_index>
91

> <i_lp_mmshare_version>
43012

> <i_f3d_flags>
0

> <s_epik_input>
W0NIM11PW0NIMl1bQ0BASF0oTzEpW0NIMl1OKFtDSDJdQzEoW0NIM10pW0NIM10pYyhuW2NIXW4yKWMoYzIzKW5bY0hdbjNbQ0gyXVtDQEhdKFtDSDJdW09IXSlbQ0BASF00W0NIMl1bQ0gyXU9bQ0gyXTQ=

> <s_epik_cmdline>
J2VwaWtfcHl0aG9uJywgJy1waCcsICc3LjAnLCAnLXRuJywgJzgnLCAnLW1hJywgJzIwMCcsICctbWV0YWxfYmluZGluZycsICctaW1hZScsICc8aW5maWxlLm1hZT4nLCAnLW9tYWUnLCAnPG91dGZpbGUubWFlPic=

> <r_lp_tautomer_probability>
1

> <r_epik_Ionization_Penalty>
8.63591e-05

> <r_epik_Ionization_Penalty_Charging>
0

> <r_epik_Ionization_Penalty_Neutral>
8.63591e-05

> <r_epik_State_Penalty>
-0

> <r_epik_Charging_Adjusted_Penalty>
0

> <i_epik_Tot_Q>
0

> <i_epik_Tot_abs_Q>
0

> <r_epik_Metal_State_Penalty>
-0

> <b_epik_Metal_Only>
0

> <s_lp_Force_Field>
OPLS_2005

> <r_lp_Energy>
49.706

> <b_lp_Chiralities_Consistent>
1

> <s_lp_Variant>
AV-unprocessed.smi:91-2

> <Gold.Version>
5.8.1

> <Gold.Id.Protein>
6NUR|6NUR_protein|mol2

> <Gold.PLP.Fitness>
52.4467

> <Gold.PLP.PLP>
-48.1196

> <Gold.PLP.part.hbond>
-1.8591

> <Gold.PLP.part.metal>
0.0000

> <Gold.PLP.part.buried>
-8.1805

> <Gold.PLP.part.nonpolar>
-39.0910

> <Gold.PLP.part.repulsive>
0.3961

> <Gold.PLP.ligand.clash>
0.0000

> <Gold.PLP.ligand.torsion>
1.0868

> <Gold.PLP.Chemscore.Hbond>
1.0000

> <Gold.PLP.Chemscore.CHOScore>
0.9796

> <Gold.PLP.Chemscore.Metal>
0.0000

> <Gold.Chemscore.Hbonds>
donor molecule, donor type, donor heavy atom, donor atom, acceptor molecule, acceptor atom, score
      P1  H  6896  6908       L1    19  1.00
      L1  C     9    38       P1  7957  1.00

> <Gold.PLP.Chemscore.Internal.Correction>
0.5620

> <Gold.Rescore>
     Score         DG    S(hbond)    S(metal)    S(lipo)     H(rot)  DE(clash)    DE(int)     intcor
     11.52     -15.21       0.94        0.00     122.42       3.03       0.09       3.60       ----

> <Gold.Chemscore.Fitness>
11.5157

> <Gold.Chemscore.DG>
-15.2057

> <Gold.Chemscore.ZeroCoef>
-5.4800

> <Gold.Chemscore.Hbond>
0.9446

> <Gold.Chemscore.Metal>
0.0000

> <Gold.Chemscore.Lipo>
122.4238

> <Gold.Chemscore.Internal_Hbond>
0.0000

> <Gold.Chemscore.DEClash>
0.0941

> <Gold.Chemscore.DEInternal>
3.5958

> <Gold.Chemscore.Rot>
3.0284

> <Gold.Chemscore.Internal.Correction>
   9.000000E+99

> <Gold.Chemscore.Hbonds>
donor molecule, donor type, donor heavy atom, donor atom, acceptor molecule, acceptor atom, score
      P1  H  6896  6908       L1    19  0.48

> <Gold.Chemscore.Hbond.Weighted>
-3.1549

> <Gold.Chemscore.Metal.Weighted>
-0.0000

> <Gold.Chemscore.Lipo.Weighted>
-14.3236

> <Gold.Chemscore.Internal_Hbond.Weighted>
0.0000

> <Gold.Chemscore.DEClash.Weighted>
0.0941

> <Gold.Chemscore.DEInternal.Weighted>
3.5958

> <Gold.Chemscore.Rot.Weighted>
7.7528

> <Gold.Chemscore.Internal.Correction.Weighted>
   9.000000E+99

> <Gold.Protein.RotatedTorsions>
[ 6907 6896 6895 6894 ] final   84.56 input  -60.11 | X-H torsion
[ 7974 7965 7964 7962 ] final -145.31 input  175.53 | X-H torsion
[ 8008 7997 7996 7995 ] final   52.68 input   59.86 | X-H torsion
[ 10167 10162 10161 10158 ] final -133.25 input  -65.29 | X-H torsion
[ 10718 10713 10712 10709 ] final  -41.35 input   66.30 | X-H torsion
[ 10763 10752 10751 10750 ] final  -20.95 input  -60.55 | X-H torsion
[ 11005 11000 10999 10996 ] final   24.71 input  -57.11 | X-H torsion

> <Gold.Protein.ActiveResidues>
 VAL166  LYS551  ARG553  GLY616  TRP617  ASP618  TYR619  PRO620  LYS621  CYS622 
 ASP623  PHE694  ASN695  SER759  ASP760  ASP761  ALA762  ILE779  LEU786  VAL792 
 PHE793  MET794  SER795  GLU796  ALA797  LYS798  CYS799  TRP800  GLU811  SER814 

> <Gold.Protein.RotatedAtoms>
  152.5355  134.2722  159.8975 H   0  0  0  0  0  0  0  0  0  0  0  0  # atno 6907 bound_to 6896
  151.2678  133.4263  159.2627 H   0  0  0  0  0  0  0  0  0  0  0  0  # atno 6908 bound_to 6896
  151.0395  134.9611  159.8210 H   0  0  0  0  0  0  0  0  0  0  0  0  # atno 6909 bound_to 6896
  144.8236  140.5599  143.5562 H   0  0  0  0  0  0  0  0  0  0  0  0  # atno 7974 bound_to 7965
  155.4558  140.3460  155.4306 H   0  0  0  0  0  0  0  0  0  0  0  0  # atno 8008 bound_to 7997
  156.1192  140.1482  156.9259 H   0  0  0  0  0  0  0  0  0  0  0  0  # atno 8009 bound_to 7997
  154.4811  140.0869  156.7358 H   0  0  0  0  0  0  0  0  0  0  0  0  # atno 8010 bound_to 7997
  139.9002  143.6617  152.2596 H   0  0  0  0  0  0  0  0  0  0  0  0  # atno 10167 bound_to 10162
  156.2713  130.4207  149.8434 H   0  0  0  0  0  0  0  0  0  0  0  0  # atno 10718 bound_to 10713
  153.6284  135.6990  153.5284 H   0  0  0  0  0  0  0  0  0  0  0  0  # atno 10763 bound_to 10752
  153.2879  135.4166  155.1139 H   0  0  0  0  0  0  0  0  0  0  0  0  # atno 10764 bound_to 10752
  154.8527  135.3618  154.5827 H   0  0  0  0  0  0  0  0  0  0  0  0  # atno 10765 bound_to 10752
  140.3557  134.2180  155.7676 H   0  0  0  0  0  0  0  0  0  0  0  0  # atno 11005 bound_to 11000
  145.5050  139.1481  143.3636 LP  0  0  0  0  0  0  0  0  0  0  0  0  # atno 17320 bound_to 7965
  146.2541  140.5190  142.8881 LP  0  0  0  0  0  0  0  0  0  0  0  0  # atno 17321 bound_to 7965
  139.7032  144.7632  151.1237 LP  0  0  0  0  0  0  0  0  0  0  0  0  # atno 17342 bound_to 10162
  140.7708  143.5430  150.9291 LP  0  0  0  0  0  0  0  0  0  0  0  0  # atno 17343 bound_to 10162
  156.5915  130.8508  151.3409 LP  0  0  0  0  0  0  0  0  0  0  0  0  # atno 17370 bound_to 10713
  157.7285  130.9657  150.1744 LP  0  0  0  0  0  0  0  0  0  0  0  0  # atno 17371 bound_to 10713
  141.1999  133.8000  157.0515 LP  0  0  0  0  0  0  0  0  0  0  0  0  # atno 17394 bound_to 11000
  140.0667  134.9725  157.1397 LP  0  0  0  0  0  0  0  0  0  0  0  0  # atno 17395 bound_to 11000

$$$$
