AV-unprocessed.smi:212|AV-procd|sdf|1631|dock8
  -GOLD-   2262019583D 1   1.00000     0.00000
 Structure written by MMmdl.
 65 68  0  0  0  0  0  0  0  0  2 V2000
  143.5529  136.8119  153.4136 C   0  0  0  0  0  0  0  0  0  0  0  0
  145.0580  136.7559  153.1010 C   0  0  2  0  0  0  0  0  0  0  0  0
  145.3371  136.2587  151.6674 C   0  0  0  0  0  0  0  0  0  0  0  0
  145.0684  134.8025  151.5313 N   0  3  1  0  0  0  0  0  0  0  0  0
  145.1992  134.3077  150.1356 C   0  0  0  0  0  0  0  0  0  0  0  0
  144.7064  132.8503  149.9742 C   0  0  0  0  0  0  0  0  0  0  0  0
  145.8143  131.8674  150.3887 C   0  0  0  0  0  0  0  0  0  0  0  0
  143.4229  132.5763  150.7796 C   0  0  0  0  0  0  0  0  0  0  0  0
  144.4355  132.6000  148.6094 O   0  0  0  0  0  0  0  0  0  0  0  0
  145.8376  133.9983  152.5138 C   0  0  0  0  0  0  0  0  0  0  0  0
  145.5756  134.4851  153.9511 C   0  0  0  0  0  0  0  0  0  0  0  0
  145.7821  135.9297  154.0707 N   0  0  0  0  0  0  0  0  0  0  0  0
  147.0067  136.3865  154.4450 C   0  0  0  0  0  0  0  0  0  0  0  0
  147.8983  135.5408  155.0276 N   0  0  0  0  0  0  0  0  0  0  0  0
  149.1091  135.9766  155.3872 C   0  0  0  0  0  0  0  0  0  0  0  0
  149.6271  137.1993  155.2605 N   0  0  0  0  0  0  0  0  0  0  0  0
  148.7357  138.0556  154.6851 C   0  0  0  0  0  0  0  0  0  0  0  0
  147.4174  137.7363  154.2527 C   0  0  0  0  0  0  0  0  0  0  0  0
  146.8047  138.8690  153.7287 N   0  0  0  0  0  0  0  0  0  0  0  0
  147.7100  139.8027  153.8404 C   0  0  0  0  0  0  0  0  0  0  0  0
  148.8984  139.4010  154.4063 N   0  0  0  0  0  0  0  0  0  0  0  0
  150.0650  140.2298  154.6513 C   0  0  0  0  0  0  0  0  0  0  0  0
  149.8108  141.3824  155.6622 C   0  0  1  0  0  0  0  0  0  0  0  0
  148.4932  141.2265  156.4612 C   0  0  0  0  0  0  0  0  0  0  0  0
  148.0448  142.4569  156.9919 O   0  0  0  0  0  0  0  0  0  0  0  0
  150.9966  141.6181  156.6355 C   0  0  1  0  0  0  0  0  0  0  0  0
  150.9829  142.9188  157.4368 C   0  0  0  0  0  0  0  0  0  0  0  0
  151.6135  142.5345  158.7799 C   0  0  0  0  0  0  0  0  0  0  0  0
  152.1072  141.2135  158.6025 O   0  0  0  0  0  0  0  0  0  0  0  0
  151.2276  140.5530  157.7089 C   0  0  0  0  0  0  0  0  0  0  0  0
  143.0375  137.4798  152.7232 H   0  0  0  0  0  0  0  0  0  0  0  0
  143.3799  137.1876  154.4225 H   0  0  0  0  0  0  0  0  0  0  0  0
  143.0797  135.8329  153.3366 H   0  0  0  0  0  0  0  0  0  0  0  0
  145.4189  137.7828  153.1487 H   0  0  0  0  0  0  0  0  0  0  0  0
  144.7376  136.8256  150.9552 H   0  0  0  0  0  0  0  0  0  0  0  0
  146.3815  136.4486  151.4137 H   0  0  0  0  0  0  0  0  0  0  0  0
  144.6715  134.9727  149.4496 H   0  0  0  0  0  0  0  0  0  0  0  0
  146.2458  134.3487  149.8283 H   0  0  0  0  0  0  0  0  0  0  0  0
  146.0814  131.9932  151.4386 H   0  0  0  0  0  0  0  0  0  0  0  0
  146.7204  132.0161  149.7999 H   0  0  0  0  0  0  0  0  0  0  0  0
  145.5010  130.8314  150.2526 H   0  0  0  0  0  0  0  0  0  0  0  0
  143.5780  132.7665  151.8419 H   0  0  0  0  0  0  0  0  0  0  0  0
  143.1036  131.5385  150.6759 H   0  0  0  0  0  0  0  0  0  0  0  0
  142.5938  133.2035  150.4499 H   0  0  0  0  0  0  0  0  0  0  0  0
  144.8513  133.2725  148.0909 H   0  0  0  0  0  0  0  0  0  0  0  0
  145.5560  132.9478  152.4322 H   0  0  0  0  0  0  0  0  0  0  0  0
  146.9005  134.0621  152.2771 H   0  0  0  0  0  0  0  0  0  0  0  0
  144.5463  134.2613  154.2312 H   0  0  0  0  0  0  0  0  0  0  0  0
  146.1986  133.9388  154.6604 H   0  0  0  0  0  0  0  0  0  0  0  0
  149.7560  135.2402  155.8411 H   0  0  0  0  0  0  0  0  0  0  0  0
  147.5337  140.8187  153.5181 H   0  0  0  0  0  0  0  0  0  0  0  0
  150.8716  139.5824  154.9930 H   0  0  0  0  0  0  0  0  0  0  0  0
  150.3800  140.6258  153.6870 H   0  0  0  0  0  0  0  0  0  0  0  0
  149.7229  142.3020  155.0810 H   0  0  0  0  0  0  0  0  0  0  0  0
  147.7112  140.7874  155.8409 H   0  0  0  0  0  0  0  0  0  0  0  0
  148.6358  140.5552  157.3085 H   0  0  0  0  0  0  0  0  0  0  0  0
  148.4655  143.1589  156.5191 H   0  0  0  0  0  0  0  0  0  0  0  0
  151.9100  141.6312  156.0379 H   0  0  0  0  0  0  0  0  0  0  0  0
  151.5627  143.6897  156.9281 H   0  0  0  0  0  0  0  0  0  0  0  0
  149.9810  143.3160  157.5933 H   0  0  0  0  0  0  0  0  0  0  0  0
  152.4121  143.2143  159.0775 H   0  0  0  0  0  0  0  0  0  0  0  0
  150.8592  142.5311  159.5680 H   0  0  0  0  0  0  0  0  0  0  0  0
  150.3179  140.2892  158.2476 H   0  0  0  0  0  0  0  0  0  0  0  0
  151.6708  139.6407  157.3093 H   0  0  0  0  0  0  0  0  0  0  0  0
  144.0969  134.6737  151.7755 H   0  0  0  0  0  0  0  0  0  0  0  0
  1  2  1  0  0  0  0
  1 31  1  0  0  0  0
  1 32  1  0  0  0  0
  1 33  1  0  0  0  0
  2 12  1  0  0  0  0
  2  3  1  0  0  0  0
  2 34  1  0  0  0  0
  3  4  1  0  0  0  0
  3 35  1  0  0  0  0
  3 36  1  0  0  0  0
  4  5  1  0  0  0  0
  4 10  1  0  0  0  0
  4 65  1  0  0  0  0
  5  6  1  0  0  0  0
  5 37  1  0  0  0  0
  5 38  1  0  0  0  0
  6  7  1  0  0  0  0
  6  8  1  0  0  0  0
  6  9  1  0  0  0  0
  7 39  1  0  0  0  0
  7 40  1  0  0  0  0
  7 41  1  0  0  0  0
  8 42  1  0  0  0  0
  8 43  1  0  0  0  0
  8 44  1  0  0  0  0
  9 45  1  0  0  0  0
 10 11  1  0  0  0  0
 10 46  1  0  0  0  0
 10 47  1  0  0  0  0
 11 12  1  0  0  0  0
 11 48  1  0  0  0  0
 11 49  1  0  0  0  0
 12 13  1  0  0  0  0
 13 18  1  0  0  0  0
 13 14  2  0  0  0  0
 14 15  1  0  0  0  0
 15 16  2  0  0  0  0
 15 50  1  0  0  0  0
 16 17  1  0  0  0  0
 17 21  1  0  0  0  0
 17 18  2  0  0  0  0
 18 19  1  0  0  0  0
 19 20  2  0  0  0  0
 20 21  1  0  0  0  0
 20 51  1  0  0  0  0
 21 22  1  0  0  0  0
 22 23  1  0  0  0  0
 22 52  1  0  0  0  0
 22 53  1  0  0  0  0
 23 24  1  0  0  0  0
 23 26  1  0  0  0  0
 23 54  1  0  0  0  0
 24 25  1  0  0  0  0
 24 55  1  0  0  0  0
 24 56  1  0  0  0  0
 25 57  1  0  0  0  0
 26 30  1  0  0  0  0
 26 27  1  0  0  0  0
 26 58  1  0  0  0  0
 27 28  1  0  0  0  0
 27 59  1  0  0  0  0
 27 60  1  0  0  0  0
 28 29  1  0  0  0  0
 28 61  1  0  0  0  0
 28 62  1  0  0  0  0
 29 30  1  0  0  0  0
 30 63  1  0  0  0  0
 30 64  1  0  0  0  0
M  CHG  1   4   1
M  END
> <s_m_source_file>
AV-unprocessed.smi

> <i_m_source_file_index>
212

> <i_lp_mmshare_version>
43012

> <i_f3d_flags>
0

> <s_epik_input>
W0NIM11bQ0BASF0xW0NIMl1OKFtDSDJdQyhbQ0gzXSkoW0NIM10pW09IXSlbQ0gyXVtDSDJdTjFjKG5bY0hdbjIpYyhjMjMpbltjSF1uM1tDSDJdW0NASF0oW0NIMl1bT0hdKVtDQEBIXTRbQ0gyXVtDSDJdT1tDSDJdNA==

> <s_epik_cmdline>
J2VwaWtfcHl0aG9uJywgJy1waCcsICc3LjAnLCAnLXRuJywgJzgnLCAnLW1hJywgJzIwMCcsICctbWV0YWxfYmluZGluZycsICctaW1hZScsICc8aW5maWxlLm1hZT4nLCAnLW9tYWUnLCAnPG91dGZpbGUubWFlPic=

> <r_lp_tautomer_probability>
1

> <r_epik_Ionization_Penalty>
0.00182193

> <r_epik_Ionization_Penalty_Charging>
0.00173996

> <r_epik_Ionization_Penalty_Neutral>
8.19718e-05

> <r_epik_State_Penalty>
-0

> <r_epik_Charging_Adjusted_Penalty>
0.00173996

> <i_epik_Tot_Q>
1

> <i_epik_Tot_abs_Q>
1

> <r_epik_Metal_State_Penalty>
-0

> <b_epik_Metal_Only>
0

> <s_lp_Force_Field>
OPLS_2005

> <r_lp_Energy>
59.1595

> <b_lp_Chiralities_Consistent>
1

> <s_lp_Variant>
AV-unprocessed.smi:212-15

> <Gold.Version>
5.8.1

> <Gold.Id.Protein>
6NUR|6NUR_protein|mol2

> <Gold.PLP.Fitness>
43.4911

> <Gold.PLP.PLP>
-39.0346

> <Gold.PLP.part.hbond>
-2.5659

> <Gold.PLP.part.metal>
0.0000

> <Gold.PLP.part.buried>
-1.2730

> <Gold.PLP.part.nonpolar>
-35.5297

> <Gold.PLP.part.repulsive>
0.3996

> <Gold.PLP.ligand.clash>
0.0000

> <Gold.PLP.ligand.torsion>
1.3103

> <Gold.PLP.Chemscore.Hbond>
2.0000

> <Gold.PLP.Chemscore.CHOScore>
0.0000

> <Gold.PLP.Chemscore.Metal>
0.0000

> <Gold.Chemscore.Hbonds>
donor molecule, donor type, donor heavy atom, donor atom, acceptor molecule, acceptor atom, score
      L1  H     9    45       P1  7921  1.00
      L1  H    25    57       P1  8028  1.00

> <Gold.PLP.Chemscore.Internal.Correction>
1.0771

> <Gold.Rescore>
     Score         DG    S(hbond)    S(metal)    S(lipo)     H(rot)  DE(clash)    DE(int)     intcor
      8.62     -14.01       1.49        0.00     104.69       3.40       1.70       3.68       ----

> <Gold.Chemscore.Fitness>
8.6202

> <Gold.Chemscore.DG>
-14.0052

> <Gold.Chemscore.ZeroCoef>
-5.4800

> <Gold.Chemscore.Hbond>
1.4899

> <Gold.Chemscore.Metal>
0.0000

> <Gold.Chemscore.Lipo>
104.6946

> <Gold.Chemscore.Internal_Hbond>
0.0000

> <Gold.Chemscore.DEClash>
1.7022

> <Gold.Chemscore.DEInternal>
3.6828

> <Gold.Chemscore.Rot>
3.3986

> <Gold.Chemscore.Internal.Correction>
   9.000000E+99

> <Gold.Chemscore.Hbonds>
donor molecule, donor type, donor heavy atom, donor atom, acceptor molecule, acceptor atom, score
      L1  H     9    45       P1  7921  0.56
      L1  H    25    57       P1  8028  0.70

> <Gold.Chemscore.Hbond.Weighted>
-4.9764

> <Gold.Chemscore.Metal.Weighted>
-0.0000

> <Gold.Chemscore.Lipo.Weighted>
-12.2493

> <Gold.Chemscore.Internal_Hbond.Weighted>
0.0000

> <Gold.Chemscore.DEClash.Weighted>
1.7022

> <Gold.Chemscore.DEInternal.Weighted>
3.6828

> <Gold.Chemscore.Rot.Weighted>
8.7005

> <Gold.Chemscore.Internal.Correction.Weighted>
   9.000000E+99

> <Gold.Protein.RotatedTorsions>
[ 6907 6896 6895 6894 ] final  -41.44 input  -60.11 | X-H torsion
[ 7974 7965 7964 7962 ] final   -0.36 input  175.53 | X-H torsion
[ 8008 7997 7996 7995 ] final   92.02 input   59.86 | X-H torsion
[ 10167 10162 10161 10158 ] final -138.93 input  -65.29 | X-H torsion
[ 10718 10713 10712 10709 ] final  -37.45 input   66.30 | X-H torsion
[ 10763 10752 10751 10750 ] final -119.64 input  -60.55 | X-H torsion
[ 11005 11000 10999 10996 ] final    1.02 input  -57.11 | X-H torsion

> <Gold.Protein.ActiveResidues>
 VAL166  LYS551  ARG553  GLY616  TRP617  ASP618  TYR619  PRO620  LYS621  CYS622 
 ASP623  PHE694  ASN695  SER759  ASP760  ASP761  ALA762  ILE779  LEU786  VAL792 
 PHE793  MET794  SER795  GLU796  ALA797  LYS798  CYS799  TRP800  GLU811  SER814 

> <Gold.Protein.RotatedAtoms>
  150.9667  134.9046  159.7762 H   0  0  0  0  0  0  0  0  0  0  0  0  # atno 6907 bound_to 6896
  152.5176  134.3598  159.9290 H   0  0  0  0  0  0  0  0  0  0  0  0  # atno 6908 bound_to 6896
  151.3608  133.3849  159.2724 H   0  0  0  0  0  0  0  0  0  0  0  0  # atno 6909 bound_to 6896
  146.2428  140.1257  142.8339 H   0  0  0  0  0  0  0  0  0  0  0  0  # atno 7974 bound_to 7965
  156.0305  140.3330  155.7135 H   0  0  0  0  0  0  0  0  0  0  0  0  # atno 8008 bound_to 7997
  155.5891  140.0644  157.2781 H   0  0  0  0  0  0  0  0  0  0  0  0  # atno 8009 bound_to 7997
  154.4351  140.1830  156.1044 H   0  0  0  0  0  0  0  0  0  0  0  0  # atno 8010 bound_to 7997
  139.8429  143.7298  152.2662 H   0  0  0  0  0  0  0  0  0  0  0  0  # atno 10167 bound_to 10162
  156.3150  130.4258  149.8014 H   0  0  0  0  0  0  0  0  0  0  0  0  # atno 10718 bound_to 10713
  154.8623  135.4231  154.2332 H   0  0  0  0  0  0  0  0  0  0  0  0  # atno 10763 bound_to 10752
  153.3313  135.6988  153.6951 H   0  0  0  0  0  0  0  0  0  0  0  0  # atno 10764 bound_to 10752
  153.5967  135.3544  155.2904 H   0  0  0  0  0  0  0  0  0  0  0  0  # atno 10765 bound_to 10752
  140.6201  133.9670  155.8220 H   0  0  0  0  0  0  0  0  0  0  0  0  # atno 11005 bound_to 11000
  145.0368  140.8914  143.5076 LP  0  0  0  0  0  0  0  0  0  0  0  0  # atno 17320 bound_to 7965
  145.1331  139.2619  143.5529 LP  0  0  0  0  0  0  0  0  0  0  0  0  # atno 17321 bound_to 7965
  139.7541  144.7526  151.0462 LP  0  0  0  0  0  0  0  0  0  0  0  0  # atno 17342 bound_to 10162
  140.7796  143.4826  150.9998 LP  0  0  0  0  0  0  0  0  0  0  0  0  # atno 17343 bound_to 10162
  156.5343  130.8271  151.3247 LP  0  0  0  0  0  0  0  0  0  0  0  0  # atno 17370 bound_to 10713
  157.7399  130.9841  150.2346 LP  0  0  0  0  0  0  0  0  0  0  0  0  # atno 17371 bound_to 10713
  141.0749  134.0150  157.3473 LP  0  0  0  0  0  0  0  0  0  0  0  0  # atno 17394 bound_to 11000
  139.9157  135.0196  156.7871 LP  0  0  0  0  0  0  0  0  0  0  0  0  # atno 17395 bound_to 11000

$$$$
