AV-unprocessed.smi:3308|AV-procd|sdf|12713|dock9
  -GOLD-   2272019 53D 1   1.00000     0.00000
 Structure written by MMmdl.
 40 41  0  0  0  0  0  0  0  0  1 V2000
  149.4170  140.6323  157.4837 C   0  0  0  0  0  0  0  0  0  0  0  0
  149.6527  141.4766  156.2121 C   0  0  1  0  0  0  0  0  0  0  0  0
  151.0272  141.9684  156.2266 N   0  0  0  0  0  0  0  0  0  0  0  0
  151.3533  142.6829  157.4674 C   0  0  0  0  0  0  0  0  0  0  0  0
  152.1607  141.7991  158.4231 C   0  0  0  0  0  0  0  0  0  0  0  0
  152.5595  140.7058  158.0214 O   0  0  0  0  0  0  0  0  0  0  0  0
  152.4077  142.2434  159.6739 N   0  0  0  0  0  0  0  0  0  0  0  0
  153.1652  141.5325  160.7042 C   0  0  0  0  0  0  0  0  0  0  0  0
  153.3685  142.5378  161.8379 C   0  0  0  0  0  0  0  0  0  0  0  0
  152.2118  143.5152  161.6814 C   0  0  0  0  0  0  0  0  0  0  0  0
  151.9388  143.5329  160.1774 C   0  0  0  0  0  0  0  0  0  0  0  0
  149.4329  140.6763  154.9002 C   0  0  2  0  0  0  0  0  0  0  0  0
  147.9934  140.1463  154.7609 C   0  0  0  0  0  0  0  0  0  0  0  0
  150.3722  139.5680  154.7778 N   0  0  0  0  0  0  0  0  0  0  0  0
  150.1031  138.2206  154.6395 C   0  0  0  0  0  0  0  0  0  0  0  0
  151.3010  137.5705  154.5592 C   0  0  0  0  0  0  0  0  0  0  0  0
  152.2600  138.6174  154.6518 C   0  0  0  0  0  0  0  0  0  0  0  0
  151.7020  139.8101  154.7798 N   0  0  0  0  0  0  0  0  0  0  0  0
  148.3857  140.2868  157.5524 H   0  0  0  0  0  0  0  0  0  0  0  0
  149.6150  141.1954  158.3951 H   0  0  0  0  0  0  0  0  0  0  0  0
  150.0606  139.7519  157.4953 H   0  0  0  0  0  0  0  0  0  0  0  0
  148.9605  142.3209  156.2133 H   0  0  0  0  0  0  0  0  0  0  0  0
  151.1668  142.5681  155.4258 H   0  0  0  0  0  0  0  0  0  0  0  0
  151.9404  143.5705  157.2261 H   0  0  0  0  0  0  0  0  0  0  0  0
  150.4523  143.0379  157.9664 H   0  0  0  0  0  0  0  0  0  0  0  0
  152.5804  140.6801  161.0527 H   0  0  0  0  0  0  0  0  0  0  0  0
  154.1226  141.1617  160.3361 H   0  0  0  0  0  0  0  0  0  0  0  0
  153.3947  142.0671  162.8210 H   0  0  0  0  0  0  0  0  0  0  0  0
  154.3131  143.0647  161.6946 H   0  0  0  0  0  0  0  0  0  0  0  0
  151.3368  143.1314  162.2076 H   0  0  0  0  0  0  0  0  0  0  0  0
  152.4356  144.5044  162.0822 H   0  0  0  0  0  0  0  0  0  0  0  0
  152.5072  144.3289  159.6943 H   0  0  0  0  0  0  0  0  0  0  0  0
  150.8804  143.6966  159.9685 H   0  0  0  0  0  0  0  0  0  0  0  0
  149.6179  141.3497  154.0602 H   0  0  0  0  0  0  0  0  0  0  0  0
  147.2666  140.9584  154.7375 H   0  0  0  0  0  0  0  0  0  0  0  0
  147.7281  139.4887  155.5892 H   0  0  0  0  0  0  0  0  0  0  0  0
  147.8743  139.5802  153.8363 H   0  0  0  0  0  0  0  0  0  0  0  0
  149.0919  137.8411  154.6140 H   0  0  0  0  0  0  0  0  0  0  0  0
  151.4670  136.5091  154.4497 H   0  0  0  0  0  0  0  0  0  0  0  0
  153.3375  138.5469  154.6295 H   0  0  0  0  0  0  0  0  0  0  0  0
  1  2  1  0  0  0  0
  1 19  1  0  0  0  0
  1 20  1  0  0  0  0
  1 21  1  0  0  0  0
  2  3  1  0  0  0  0
  2 12  1  0  0  0  0
  2 22  1  0  0  0  0
  3  4  1  0  0  0  0
  3 23  1  0  0  0  0
  4  5  1  0  0  0  0
  4 24  1  0  0  0  0
  4 25  1  0  0  0  0
  5  6  2  0  0  0  0
  5  7  1  0  0  0  0
  7 11  1  0  0  0  0
  7  8  1  0  0  0  0
  8  9  1  0  0  0  0
  8 26  1  0  0  0  0
  8 27  1  0  0  0  0
  9 10  1  0  0  0  0
  9 28  1  0  0  0  0
  9 29  1  0  0  0  0
 10 11  1  0  0  0  0
 10 30  1  0  0  0  0
 10 31  1  0  0  0  0
 11 32  1  0  0  0  0
 11 33  1  0  0  0  0
 12 13  1  0  0  0  0
 12 14  1  0  0  0  0
 12 34  1  0  0  0  0
 13 35  1  0  0  0  0
 13 36  1  0  0  0  0
 13 37  1  0  0  0  0
 14 18  1  0  0  0  0
 14 15  1  0  0  0  0
 15 16  2  0  0  0  0
 15 38  1  0  0  0  0
 16 17  1  0  0  0  0
 16 39  1  0  0  0  0
 17 18  2  0  0  0  0
 17 40  1  0  0  0  0
M  END
> <s_m_source_file>
AV-unprocessed.smi

> <i_m_source_file_index>
3308

> <i_lp_mmshare_version>
43012

> <i_f3d_flags>
0

> <s_epik_input>
bjFbY0hdW2NIXVtjSF1uMVtDQEBIXShbQ0gzXSlbQ0BIXShbQ0gzXSlbTkhdW0NIMl1DKD1PKU4yW0NIMl1bQ0gyXVtDSDJdW0NIMl0y

> <s_epik_cmdline>
J2VwaWtfcHl0aG9uJywgJy1waCcsICc3LjAnLCAnLXRuJywgJzgnLCAnLW1hJywgJzIwMCcsICctbWV0YWxfYmluZGluZycsICctaW1hZScsICc8aW5maWxlLm1hZT4nLCAnLW9tYWUnLCAnPG91dGZpbGUubWFlPic=

> <r_lp_tautomer_probability>
1

> <r_epik_Ionization_Penalty>
0.918676

> <r_epik_Ionization_Penalty_Charging>
0

> <r_epik_Ionization_Penalty_Neutral>
0.918676

> <r_epik_State_Penalty>
0.958258

> <r_epik_Charging_Adjusted_Penalty>
0.958258

> <i_epik_Tot_Q>
0

> <i_epik_Tot_abs_Q>
0

> <r_epik_Metal_State_Penalty>
0.956879

> <b_epik_Metal_Only>
0

> <s_lp_Force_Field>
OPLS_2005

> <r_lp_Energy>
35.768

> <b_lp_Chiralities_Consistent>
1

> <s_lp_Variant>
AV-unprocessed.smi:3308-6

> <Gold.Version>
5.8.1

> <Gold.Id.Protein>
6NUR|6NUR_protein|mol2

> <Gold.PLP.Fitness>
44.5813

> <Gold.PLP.PLP>
-41.9666

> <Gold.PLP.part.hbond>
-1.6252

> <Gold.PLP.part.metal>
0.0000

> <Gold.PLP.part.buried>
-3.0871

> <Gold.PLP.part.nonpolar>
-35.1298

> <Gold.PLP.part.repulsive>
0.0696

> <Gold.PLP.ligand.clash>
0.0000

> <Gold.PLP.ligand.torsion>
0.3855

> <Gold.PLP.Chemscore.Hbond>
1.1066

> <Gold.PLP.Chemscore.CHOScore>
0.0000

> <Gold.PLP.Chemscore.Metal>
0.0000

> <Gold.Chemscore.Hbonds>
donor molecule, donor type, donor heavy atom, donor atom, acceptor molecule, acceptor atom, score
      P1  H  7989  7998       L1    18  0.75
      P1  H  7997  8008       L1     6  0.22

> <Gold.PLP.Chemscore.Internal.Correction>
0.0659

> <Gold.Rescore>
     Score         DG    S(hbond)    S(metal)    S(lipo)     H(rot)  DE(clash)    DE(int)     intcor
     14.08     -16.30       1.20        0.00      95.75       1.72       0.10       2.13       ----

> <Gold.Chemscore.Fitness>
14.0797

> <Gold.Chemscore.DG>
-16.3025

> <Gold.Chemscore.ZeroCoef>
-5.4800

> <Gold.Chemscore.Hbond>
1.2043

> <Gold.Chemscore.Metal>
0.0000

> <Gold.Chemscore.Lipo>
95.7533

> <Gold.Chemscore.Internal_Hbond>
0.0000

> <Gold.Chemscore.DEClash>
0.0962

> <Gold.Chemscore.DEInternal>
2.1266

> <Gold.Chemscore.Rot>
1.7200

> <Gold.Chemscore.Internal.Correction>
   9.000000E+99

> <Gold.Chemscore.Hbonds>
donor molecule, donor type, donor heavy atom, donor atom, acceptor molecule, acceptor atom, score
      P1  H  7989  7998       L1    18  0.09
      P1  H  7997  8008       L1     6  0.22

> <Gold.Chemscore.Hbond.Weighted>
-4.0224

> <Gold.Chemscore.Metal.Weighted>
-0.0000

> <Gold.Chemscore.Lipo.Weighted>
-11.2031

> <Gold.Chemscore.Internal_Hbond.Weighted>
0.0000

> <Gold.Chemscore.DEClash.Weighted>
0.0962

> <Gold.Chemscore.DEInternal.Weighted>
2.1266

> <Gold.Chemscore.Rot.Weighted>
4.4031

> <Gold.Chemscore.Internal.Correction.Weighted>
   9.000000E+99

> <Gold.Protein.RotatedTorsions>
[ 6907 6896 6895 6894 ] final   48.26 input  -60.11 | X-H torsion
[ 7974 7965 7964 7962 ] final -131.21 input  175.53 | X-H torsion
[ 8008 7997 7996 7995 ] final  -74.16 input   59.86 | X-H torsion
[ 10167 10162 10161 10158 ] final -110.06 input  -65.29 | X-H torsion
[ 10718 10713 10712 10709 ] final  106.52 input   66.30 | X-H torsion
[ 10763 10752 10751 10750 ] final -164.49 input  -60.55 | X-H torsion
[ 11005 11000 10999 10996 ] final  -52.23 input  -57.11 | X-H torsion

> <Gold.Protein.ActiveResidues>
 VAL166  LYS551  ARG553  GLY616  TRP617  ASP618  TYR619  PRO620  LYS621  CYS622 
 ASP623  PHE694  ASN695  SER759  ASP760  ASP761  ALA762  ILE779  LEU786  VAL792 
 PHE793  MET794  SER795  GLU796  ALA797  LYS798  CYS799  TRP800  GLU811  SER814 

> <Gold.Protein.RotatedAtoms>
  152.2775  134.7865  160.0402 H   0  0  0  0  0  0  0  0  0  0  0  0  # atno 6907 bound_to 6896
  151.8456  133.3426  159.3665 H   0  0  0  0  0  0  0  0  0  0  0  0  # atno 6908 bound_to 6896
  150.7176  134.5277  159.5729 H   0  0  0  0  0  0  0  0  0  0  0  0  # atno 6909 bound_to 6896
  144.9401  140.7228  143.4852 H   0  0  0  0  0  0  0  0  0  0  0  0  # atno 7974 bound_to 7965
  154.5307  140.0766  156.8340 H   0  0  0  0  0  0  0  0  0  0  0  0  # atno 8008 bound_to 7997
  155.3380  140.3405  155.4221 H   0  0  0  0  0  0  0  0  0  0  0  0  # atno 8009 bound_to 7997
  156.1779  140.1642  156.8316 H   0  0  0  0  0  0  0  0  0  0  0  0  # atno 8010 bound_to 7997
  140.1486  143.4218  152.1511 H   0  0  0  0  0  0  0  0  0  0  0  0  # atno 10167 bound_to 10162
  157.6665  131.0852  150.6019 H   0  0  0  0  0  0  0  0  0  0  0  0  # atno 10718 bound_to 10713
  154.7023  135.2990  154.9322 H   0  0  0  0  0  0  0  0  0  0  0  0  # atno 10763 bound_to 10752
  154.0250  135.6677  153.4779 H   0  0  0  0  0  0  0  0  0  0  0  0  # atno 10764 bound_to 10752
  153.0691  135.5071  154.8175 H   0  0  0  0  0  0  0  0  0  0  0  0  # atno 10765 bound_to 10752
  141.0913  133.6632  156.3993 H   0  0  0  0  0  0  0  0  0  0  0  0  # atno 11005 bound_to 11000
  145.3005  139.1852  143.4692 LP  0  0  0  0  0  0  0  0  0  0  0  0  # atno 17320 bound_to 7965
  146.3282  140.2995  142.8620 LP  0  0  0  0  0  0  0  0  0  0  0  0  # atno 17321 bound_to 7965
  139.5437  144.7279  151.4652 LP  0  0  0  0  0  0  0  0  0  0  0  0  # atno 17342 bound_to 10162
  140.6716  143.8280  150.7007 LP  0  0  0  0  0  0  0  0  0  0  0  0  # atno 17343 bound_to 10162
  156.6319  130.4434  149.5783 LP  0  0  0  0  0  0  0  0  0  0  0  0  # atno 17370 bound_to 10713
  156.2275  130.6774  151.1430 LP  0  0  0  0  0  0  0  0  0  0  0  0  # atno 17371 bound_to 10713
  140.5245  134.6272  157.5329 LP  0  0  0  0  0  0  0  0  0  0  0  0  # atno 17394 bound_to 11000
  139.9740  134.7246  155.9986 LP  0  0  0  0  0  0  0  0  0  0  0  0  # atno 17395 bound_to 11000

$$$$
