AV-unprocessed.smi:2171|AV-procd|sdf|8830|dock10
  -GOLD-   2272012 23D 1   1.00000     0.00000
 Structure written by MMmdl.
 39 41  0  0  0  0  0  0  0  0  2 V2000
  144.4664  136.1823  152.2588 O   0  0  0  0  0  0  0  0  0  0  0  0
  145.6614  135.9616  152.0658 C   0  0  0  0  0  0  0  0  0  0  0  0
  146.1856  134.5229  152.0847 C   0  0  0  0  0  0  0  0  0  0  0  0
  145.5734  133.7077  151.0488 N   0  0  0  0  0  0  0  0  0  0  0  0
  146.1531  132.7172  150.2830 C   0  0  0  0  0  0  0  0  0  0  0  0
  145.1908  132.2384  149.4409 C   0  0  0  0  0  0  0  0  0  0  0  0
  144.0391  133.0056  149.7722 C   0  0  0  0  0  0  0  0  0  0  0  0
  144.2708  133.8833  150.7348 N   0  0  0  0  0  0  0  0  0  0  0  0
  146.5634  136.9330  151.8495 N   0  0  0  0  0  0  0  0  0  0  0  0
  146.2629  138.3595  151.7463 C   0  0  2  0  0  0  0  0  0  0  0  0
  146.6840  138.9616  150.3919 C   0  0  0  0  0  0  0  0  0  0  0  0
  147.2799  140.3286  150.7429 C   0  0  0  0  0  0  0  0  0  0  0  0
  147.8911  140.0935  152.0562 N   0  3  1  0  0  0  0  0  0  0  0  0
  148.3578  141.2577  152.8358 C   0  0  0  0  0  0  0  0  0  0  0  0
  149.1198  140.7410  154.0752 C   0  0  0  0  0  0  0  0  0  0  0  0
  148.2932  139.7176  154.8870 C   0  0  0  0  0  0  0  0  0  0  0  0
  147.7237  138.5965  153.9904 C   0  0  0  0  0  0  0  0  0  0  0  0
  146.9640  139.2342  152.8130 C   0  0  2  0  0  0  0  0  0  0  0  0
  147.2667  134.5280  151.9403 H   0  0  0  0  0  0  0  0  0  0  0  0
  145.9934  134.0642  153.0562 H   0  0  0  0  0  0  0  0  0  0  0  0
  147.1905  132.4394  150.3987 H   0  0  0  0  0  0  0  0  0  0  0  0
  145.2929  131.4574  148.7020 H   0  0  0  0  0  0  0  0  0  0  0  0
  143.0487  132.9511  149.3449 H   0  0  0  0  0  0  0  0  0  0  0  0
  147.5242  136.6569  151.7061 H   0  0  0  0  0  0  0  0  0  0  0  0
  145.1844  138.4977  151.8478 H   0  0  0  0  0  0  0  0  0  0  0  0
  147.4532  138.3436  149.9252 H   0  0  0  0  0  0  0  0  0  0  0  0
  145.8537  139.0376  149.6889 H   0  0  0  0  0  0  0  0  0  0  0  0
  148.0082  140.6724  150.0078 H   0  0  0  0  0  0  0  0  0  0  0  0
  146.4931  141.0797  150.8305 H   0  0  0  0  0  0  0  0  0  0  0  0
  149.0139  141.8743  152.2208 H   0  0  0  0  0  0  0  0  0  0  0  0
  147.5100  141.8786  153.1291 H   0  0  0  0  0  0  0  0  0  0  0  0
  150.0488  140.2696  153.7514 H   0  0  0  0  0  0  0  0  0  0  0  0
  149.4077  141.5780  154.7120 H   0  0  0  0  0  0  0  0  0  0  0  0
  148.9045  139.2878  155.6809 H   0  0  0  0  0  0  0  0  0  0  0  0
  147.4698  140.2352  155.3811 H   0  0  0  0  0  0  0  0  0  0  0  0
  148.5323  137.9624  153.6244 H   0  0  0  0  0  0  0  0  0  0  0  0
  147.0592  137.9606  154.5762 H   0  0  0  0  0  0  0  0  0  0  0  0
  146.1888  139.8802  153.2310 H   0  0  0  0  0  0  0  0  0  0  0  0
  148.7073  139.5275  151.8735 H   0  0  0  0  0  0  0  0  0  0  0  0
  1  2  2  0  0  0  0
  2  3  1  0  0  0  0
  2  9  1  0  0  0  0
  3  4  1  0  0  0  0
  3 19  1  0  0  0  0
  3 20  1  0  0  0  0
  4  8  1  0  0  0  0
  4  5  1  0  0  0  0
  5  6  2  0  0  0  0
  5 21  1  0  0  0  0
  6  7  1  0  0  0  0
  6 22  1  0  0  0  0
  7  8  2  0  0  0  0
  7 23  1  0  0  0  0
  9 10  1  0  0  0  0
  9 24  1  0  0  0  0
 10 18  1  0  0  0  0
 10 11  1  0  0  0  0
 10 25  1  0  0  0  0
 11 12  1  0  0  0  0
 11 26  1  0  0  0  0
 11 27  1  0  0  0  0
 12 13  1  0  0  0  0
 12 28  1  0  0  0  0
 12 29  1  0  0  0  0
 13 18  1  0  0  0  0
 13 14  1  0  0  0  0
 13 39  1  0  0  0  0
 14 15  1  0  0  0  0
 14 30  1  0  0  0  0
 14 31  1  0  0  0  0
 15 16  1  0  0  0  0
 15 32  1  0  0  0  0
 15 33  1  0  0  0  0
 16 17  1  0  0  0  0
 16 34  1  0  0  0  0
 16 35  1  0  0  0  0
 17 18  1  0  0  0  0
 17 36  1  0  0  0  0
 17 37  1  0  0  0  0
 18 38  1  0  0  0  0
M  CHG  1  13   1
M  END
> <s_m_source_file>
AV-unprocessed.smi

> <i_m_source_file_index>
2171

> <i_lp_mmshare_version>
43012

> <i_f3d_flags>
0

> <s_epik_input>
bjFbY0hdW2NIXVtjSF1uMVtDSDJdQyg9TylbTkhdW0NASF0oW0NIMl1bQ0gyXTIpW0NAQEhdKE4yMylbQ0gyXVtDSDJdW0NIMl1bQ0gyXTM=

> <s_epik_cmdline>
J2VwaWtfcHl0aG9uJywgJy1waCcsICc3LjAnLCAnLXRuJywgJzgnLCAnLW1hJywgJzIwMCcsICctbWV0YWxfYmluZGluZycsICctaW1hZScsICc8aW5maWxlLm1hZT4nLCAnLW9tYWUnLCAnPG91dGZpbGUubWFlPic=

> <r_lp_tautomer_probability>
1

> <r_epik_Ionization_Penalty>
0.00204179

> <r_epik_Ionization_Penalty_Charging>
0.00203239

> <r_epik_Ionization_Penalty_Neutral>
9.40205e-06

> <r_epik_State_Penalty>
0.00138983

> <r_epik_Charging_Adjusted_Penalty>
0.00342221

> <i_epik_Tot_Q>
1

> <i_epik_Tot_abs_Q>
1

> <r_epik_Metal_State_Penalty>
-0

> <b_epik_Metal_Only>
0

> <s_lp_Force_Field>
OPLS_2005

> <r_lp_Energy>
41.8247

> <b_lp_Chiralities_Consistent>
1

> <s_lp_Variant>
AV-unprocessed.smi:2171-5

> <Gold.Version>
5.8.1

> <Gold.Id.Protein>
6NUR|6NUR_protein|mol2

> <Gold.PLP.Fitness>
38.3964

> <Gold.PLP.PLP>
-28.9715

> <Gold.PLP.part.hbond>
-2.0000

> <Gold.PLP.part.metal>
0.0000

> <Gold.PLP.part.buried>
2.5085

> <Gold.PLP.part.nonpolar>
-28.7405

> <Gold.PLP.part.repulsive>
0.3631

> <Gold.PLP.ligand.clash>
0.0000

> <Gold.PLP.ligand.torsion>
0.3268

> <Gold.PLP.Chemscore.Hbond>
1.3593

> <Gold.PLP.Chemscore.CHOScore>
1.9999

> <Gold.PLP.Chemscore.Metal>
0.0000

> <Gold.Chemscore.Hbonds>
donor molecule, donor type, donor heavy atom, donor atom, acceptor molecule, acceptor atom, score
      L1  H     9    24       P1  7948  0.84
      L1  H    13    39       P1  7957  0.09
      L1  C     5    21       P1 10747  1.00
      L1  C     7    23       P1 10186  1.00

> <Gold.PLP.Chemscore.Internal.Correction>
0.0010

> <Gold.Rescore>
     Score         DG    S(hbond)    S(metal)    S(lipo)     H(rot)  DE(clash)    DE(int)     intcor
     13.73     -18.22       1.73        0.00      91.07       1.44       2.68       1.81       ----

> <Gold.Chemscore.Fitness>
13.7275

> <Gold.Chemscore.DG>
-18.2213

> <Gold.Chemscore.ZeroCoef>
-5.4800

> <Gold.Chemscore.Hbond>
1.7289

> <Gold.Chemscore.Metal>
0.0000

> <Gold.Chemscore.Lipo>
91.0742

> <Gold.Chemscore.Internal_Hbond>
0.0000

> <Gold.Chemscore.DEClash>
2.6802

> <Gold.Chemscore.DEInternal>
1.8135

> <Gold.Chemscore.Rot>
1.4410

> <Gold.Chemscore.Internal.Correction>
   9.000000E+99

> <Gold.Chemscore.Hbonds>
donor molecule, donor type, donor heavy atom, donor atom, acceptor molecule, acceptor atom, score
      L1  H     9    24       P1  7948  0.84
      L1  H    13    39       P1  7957  0.09

> <Gold.Chemscore.Hbond.Weighted>
-5.7746

> <Gold.Chemscore.Metal.Weighted>
-0.0000

> <Gold.Chemscore.Lipo.Weighted>
-10.6557

> <Gold.Chemscore.Internal_Hbond.Weighted>
0.0000

> <Gold.Chemscore.DEClash.Weighted>
2.6802

> <Gold.Chemscore.DEInternal.Weighted>
1.8135

> <Gold.Chemscore.Rot.Weighted>
3.6889

> <Gold.Chemscore.Internal.Correction.Weighted>
   9.000000E+99

> <Gold.Protein.RotatedTorsions>
[ 6907 6896 6895 6894 ] final   45.16 input  -60.11 | X-H torsion
[ 7974 7965 7964 7962 ] final   19.42 input  175.53 | X-H torsion
[ 8008 7997 7996 7995 ] final   94.76 input   59.86 | X-H torsion
[ 10167 10162 10161 10158 ] final  111.01 input  -65.29 | X-H torsion
[ 10718 10713 10712 10709 ] final  123.06 input   66.30 | X-H torsion
[ 10763 10752 10751 10750 ] final -116.42 input  -60.55 | X-H torsion
[ 11005 11000 10999 10996 ] final  -14.78 input  -57.11 | X-H torsion

> <Gold.Protein.ActiveResidues>
 VAL166  LYS551  ARG553  GLY616  TRP617  ASP618  TYR619  PRO620  LYS621  CYS622 
 ASP623  PHE694  ASN695  SER759  ASP760  ASP761  ALA762  ILE779  LEU786  VAL792 
 PHE793  MET794  SER795  GLU796  ALA797  LYS798  CYS799  TRP800  GLU811  SER814 

> <Gold.Protein.RotatedAtoms>
  152.2412  134.8226  160.0459 H   0  0  0  0  0  0  0  0  0  0  0  0  # atno 6907 bound_to 6896
  151.8940  133.3517  159.3816 H   0  0  0  0  0  0  0  0  0  0  0  0  # atno 6908 bound_to 6896
  150.7054  134.4822  159.5520 H   0  0  0  0  0  0  0  0  0  0  0  0  # atno 6909 bound_to 6896
  146.2150  139.8315  142.8659 H   0  0  0  0  0  0  0  0  0  0  0  0  # atno 7974 bound_to 7965
  156.0614  140.3295  155.7466 H   0  0  0  0  0  0  0  0  0  0  0  0  # atno 8008 bound_to 7997
  155.5448  140.0605  157.2880 H   0  0  0  0  0  0  0  0  0  0  0  0  # atno 8009 bound_to 7997
  154.4483  140.1904  156.0616 H   0  0  0  0  0  0  0  0  0  0  0  0  # atno 8010 bound_to 7997
  139.6644  144.7128  151.1805 H   0  0  0  0  0  0  0  0  0  0  0  0  # atno 10167 bound_to 10162
  157.5694  131.1084  150.8395 H   0  0  0  0  0  0  0  0  0  0  0  0  # atno 10718 bound_to 10713
  154.8518  135.4346  154.1817 H   0  0  0  0  0  0  0  0  0  0  0  0  # atno 10763 bound_to 10752
  153.2906  135.6961  153.7302 H   0  0  0  0  0  0  0  0  0  0  0  0  # atno 10764 bound_to 10752
  153.6471  135.3458  155.3063 H   0  0  0  0  0  0  0  0  0  0  0  0  # atno 10765 bound_to 10752
  140.7899  133.8296  155.9370 H   0  0  0  0  0  0  0  0  0  0  0  0  # atno 11005 bound_to 11000
  145.2992  141.0189  143.3618 LP  0  0  0  0  0  0  0  0  0  0  0  0  # atno 17320 bound_to 7965
  144.9018  139.4639  143.6629 LP  0  0  0  0  0  0  0  0  0  0  0  0  # atno 17321 bound_to 7965
  140.7593  143.5943  150.8764 LP  0  0  0  0  0  0  0  0  0  0  0  0  # atno 17342 bound_to 10162
  139.9603  143.6171  152.3004 LP  0  0  0  0  0  0  0  0  0  0  0  0  # atno 17343 bound_to 10162
  156.8871  130.5199  149.5288 LP  0  0  0  0  0  0  0  0  0  0  0  0  # atno 17370 bound_to 10713
  156.0740  130.5766  150.9438 LP  0  0  0  0  0  0  0  0  0  0  0  0  # atno 17371 bound_to 10713
  140.9399  134.1914  157.4805 LP  0  0  0  0  0  0  0  0  0  0  0  0  # atno 17394 bound_to 11000
  139.8732  134.9868  156.5338 LP  0  0  0  0  0  0  0  0  0  0  0  0  # atno 17395 bound_to 11000

$$$$
