AV-unprocessed.smi:700|AV-procd|sdf|3407|dock9
  -GOLD-   22720 0383D 1   1.00000     0.00000
 Structure written by MMmdl.
 43 44  0  0  0  0  0  0  0  0  1 V2000
  146.4951  134.2990  162.6599 C   0  0  0  0  0  0  0  0  0  0  0  0
  147.2768  135.2305  161.7982 C   0  0  0  0  0  0  0  0  0  0  0  0
  148.1156  135.0347  160.7384 C   0  0  0  0  0  0  0  0  0  0  0  0
  148.5148  136.3515  160.3769 C   0  0  0  0  0  0  0  0  0  0  0  0
  149.4432  136.7753  159.2678 C   0  0  0  0  0  0  0  0  0  0  0  0
  148.8664  137.9319  158.4411 C   0  0  0  0  0  0  0  0  0  0  0  0
  147.8082  138.4779  158.7584 O   0  0  0  0  0  0  0  0  0  0  0  0
  149.5780  138.2894  157.3607 N   0  0  0  0  0  0  0  0  0  0  0  0
  149.2144  139.3499  156.4278 C   0  0  0  0  0  0  0  0  0  0  0  0
  150.2937  140.4437  156.3629 C   0  0  0  0  0  0  0  0  0  0  0  0
  150.1453  141.4864  157.4801 C   0  0  0  0  0  0  0  0  0  0  0  0
  151.2263  142.5767  157.4103 C   0  0  0  0  0  0  0  0  0  0  0  0
  151.2851  143.4605  158.6687 C   0  0  0  0  0  0  0  0  0  0  0  0
  149.9473  144.1194  159.0101 C   0  0  0  0  0  0  0  0  0  0  0  0
  150.3109  145.2651  159.9575 C   0  0  0  0  0  0  0  0  0  0  0  0
  151.7436  145.6783  159.5902 C   0  0  0  0  0  0  0  0  0  0  0  0
  152.2423  144.6536  158.5625 C   0  0  0  0  0  0  0  0  0  0  0  0
  147.9681  137.2627  161.1667 N   0  0  0  0  0  0  0  0  0  0  0  0
  147.1724  136.5556  162.0750 O   0  0  0  0  0  0  0  0  0  0  0  0
  146.8939  133.2863  162.5987 H   0  0  0  0  0  0  0  0  0  0  0  0
  145.4509  134.2706  162.3484 H   0  0  0  0  0  0  0  0  0  0  0  0
  146.5299  134.6124  163.7035 H   0  0  0  0  0  0  0  0  0  0  0  0
  148.3960  134.0955  160.2859 H   0  0  0  0  0  0  0  0  0  0  0  0
  150.4110  137.0711  159.6756 H   0  0  0  0  0  0  0  0  0  0  0  0
  149.6328  135.9353  158.5990 H   0  0  0  0  0  0  0  0  0  0  0  0
  150.4343  137.7894  157.1702 H   0  0  0  0  0  0  0  0  0  0  0  0
  149.0334  138.9300  155.4367 H   0  0  0  0  0  0  0  0  0  0  0  0
  148.2691  139.7798  156.7598 H   0  0  0  0  0  0  0  0  0  0  0  0
  151.2809  139.9847  156.4266 H   0  0  0  0  0  0  0  0  0  0  0  0
  150.2489  140.9459  155.3958 H   0  0  0  0  0  0  0  0  0  0  0  0
  149.1601  141.9498  157.4163 H   0  0  0  0  0  0  0  0  0  0  0  0
  150.1891  140.9839  158.4468 H   0  0  0  0  0  0  0  0  0  0  0  0
  152.2011  142.1193  157.2360 H   0  0  0  0  0  0  0  0  0  0  0  0
  151.0299  143.2098  156.5440 H   0  0  0  0  0  0  0  0  0  0  0  0
  151.5852  142.8497  159.5220 H   0  0  0  0  0  0  0  0  0  0  0  0
  149.4900  144.5256  158.1065 H   0  0  0  0  0  0  0  0  0  0  0  0
  149.2378  143.4209  159.4549 H   0  0  0  0  0  0  0  0  0  0  0  0
  149.6075  146.0949  159.8804 H   0  0  0  0  0  0  0  0  0  0  0  0
  150.2866  144.9113  160.9889 H   0  0  0  0  0  0  0  0  0  0  0  0
  151.7749  146.6871  159.1770 H   0  0  0  0  0  0  0  0  0  0  0  0
  152.3751  145.6716  160.4795 H   0  0  0  0  0  0  0  0  0  0  0  0
  153.2809  144.3694  158.7349 H   0  0  0  0  0  0  0  0  0  0  0  0
  152.1843  145.0892  157.5639 H   0  0  0  0  0  0  0  0  0  0  0  0
  1  2  1  0  0  0  0
  1 20  1  0  0  0  0
  1 21  1  0  0  0  0
  1 22  1  0  0  0  0
  2 19  1  0  0  0  0
  2  3  2  0  0  0  0
  3  4  1  0  0  0  0
  3 23  1  0  0  0  0
  4  5  1  0  0  0  0
  4 18  2  0  0  0  0
  5  6  1  0  0  0  0
  5 24  1  0  0  0  0
  5 25  1  0  0  0  0
  6  7  2  0  0  0  0
  6  8  1  0  0  0  0
  8  9  1  0  0  0  0
  8 26  1  0  0  0  0
  9 10  1  0  0  0  0
  9 27  1  0  0  0  0
  9 28  1  0  0  0  0
 10 11  1  0  0  0  0
 10 29  1  0  0  0  0
 10 30  1  0  0  0  0
 11 12  1  0  0  0  0
 11 31  1  0  0  0  0
 11 32  1  0  0  0  0
 12 13  1  0  0  0  0
 12 33  1  0  0  0  0
 12 34  1  0  0  0  0
 13 17  1  0  0  0  0
 13 14  1  0  0  0  0
 13 35  1  0  0  0  0
 14 15  1  0  0  0  0
 14 36  1  0  0  0  0
 14 37  1  0  0  0  0
 15 16  1  0  0  0  0
 15 38  1  0  0  0  0
 15 39  1  0  0  0  0
 16 17  1  0  0  0  0
 16 40  1  0  0  0  0
 16 41  1  0  0  0  0
 17 42  1  0  0  0  0
 17 43  1  0  0  0  0
 18 19  1  0  0  0  0
M  END
> <s_m_source_file>
AV-unprocessed.smi

> <i_m_source_file_index>
700

> <i_lp_mmshare_version>
43012

> <i_f3d_flags>
0

> <s_epik_input>
W0NIM11jMVtjSF1jKG5vMSlbQ0gyXUMoPU8pW05IXVtDSDJdW0NIMl1bQ0gyXVtDSDJdW0NIXTJbQ0gyXVtDSDJdW0NIMl1bQ0gyXTI=

> <s_epik_cmdline>
J2VwaWtfcHl0aG9uJywgJy1waCcsICc3LjAnLCAnLXRuJywgJzgnLCAnLW1hJywgJzIwMCcsICctbWV0YWxfYmluZGluZycsICctaW1hZScsICc8aW5maWxlLm1hZT4nLCAnLW9tYWUnLCAnPG91dGZpbGUubWFlPic=

> <r_lp_tautomer_probability>
1

> <r_epik_Ionization_Penalty>
7.08657e-08

> <r_epik_Ionization_Penalty_Charging>
0

> <r_epik_Ionization_Penalty_Neutral>
7.08657e-08

> <r_epik_State_Penalty>
-0

> <r_epik_Charging_Adjusted_Penalty>
0

> <i_epik_Tot_Q>
0

> <i_epik_Tot_abs_Q>
0

> <r_epik_Metal_State_Penalty>
-0

> <b_epik_Metal_Only>
0

> <s_lp_Force_Field>
OPLS_2005

> <r_lp_Energy>
19.5762

> <b_lp_Chiralities_Consistent>
1

> <s_lp_Variant>
AV-unprocessed.smi:700-1

> <Gold.Version>
5.8.1

> <Gold.Id.Protein>
6NUR|6NUR_protein|mol2

> <Gold.PLP.Fitness>
43.7846

> <Gold.PLP.PLP>
-39.2511

> <Gold.PLP.part.hbond>
-3.0000

> <Gold.PLP.part.metal>
0.0000

> <Gold.PLP.part.buried>
-5.5598

> <Gold.PLP.part.nonpolar>
-31.6037

> <Gold.PLP.part.repulsive>
0.0297

> <Gold.PLP.ligand.clash>
0.0000

> <Gold.PLP.ligand.torsion>
0.3546

> <Gold.PLP.Chemscore.Hbond>
1.7280

> <Gold.PLP.Chemscore.CHOScore>
0.0000

> <Gold.PLP.Chemscore.Metal>
0.0000

> <Gold.Chemscore.Hbonds>
donor molecule, donor type, donor heavy atom, donor atom, acceptor molecule, acceptor atom, score
      P1  H  6931  6943       L1    18  0.96
      P1  H  6934  6947       L1    18  0.70

> <Gold.PLP.Chemscore.Internal.Correction>
0.0588

> <Gold.Rescore>
     Score         DG    S(hbond)    S(metal)    S(lipo)     H(rot)  DE(clash)    DE(int)     intcor
     16.14     -18.00       1.53        0.00     103.45       1.84       0.06       1.80       ----

> <Gold.Chemscore.Fitness>
16.1370

> <Gold.Chemscore.DG>
-17.9982

> <Gold.Chemscore.ZeroCoef>
-5.4800

> <Gold.Chemscore.Hbond>
1.5345

> <Gold.Chemscore.Metal>
0.0000

> <Gold.Chemscore.Lipo>
103.4463

> <Gold.Chemscore.Internal_Hbond>
0.0000

> <Gold.Chemscore.DEClash>
0.0640

> <Gold.Chemscore.DEInternal>
1.7972

> <Gold.Chemscore.Rot>
1.8399

> <Gold.Chemscore.Internal.Correction>
   9.000000E+99

> <Gold.Chemscore.Hbonds>
donor molecule, donor type, donor heavy atom, donor atom, acceptor molecule, acceptor atom, score
      P1  H  6931  6943       L1    18  0.71
      P1  H  6934  6947       L1    18  0.45

> <Gold.Chemscore.Hbond.Weighted>
-5.1252

> <Gold.Chemscore.Metal.Weighted>
-0.0000

> <Gold.Chemscore.Lipo.Weighted>
-12.1032

> <Gold.Chemscore.Internal_Hbond.Weighted>
0.0000

> <Gold.Chemscore.DEClash.Weighted>
0.0640

> <Gold.Chemscore.DEInternal.Weighted>
1.7972

> <Gold.Chemscore.Rot.Weighted>
4.7103

> <Gold.Chemscore.Internal.Correction.Weighted>
   9.000000E+99

> <Gold.Protein.RotatedTorsions>
[ 6907 6896 6895 6894 ] final -165.77 input  -60.11 | X-H torsion
[ 7974 7965 7964 7962 ] final -139.62 input  175.53 | X-H torsion
[ 8008 7997 7996 7995 ] final  -93.16 input   59.86 | X-H torsion
[ 10167 10162 10161 10158 ] final  -34.85 input  -65.29 | X-H torsion
[ 10718 10713 10712 10709 ] final  142.03 input   66.30 | X-H torsion
[ 10763 10752 10751 10750 ] final -141.65 input  -60.55 | X-H torsion
[ 11005 11000 10999 10996 ] final  -80.22 input  -57.11 | X-H torsion

> <Gold.Protein.ActiveResidues>
 VAL166  LYS551  ARG553  GLY616  TRP617  ASP618  TYR619  PRO620  LYS621  CYS622 
 ASP623  PHE694  ASN695  SER759  ASP760  ASP761  ALA762  ILE779  LEU786  VAL792 
 PHE793  MET794  SER795  GLU796  ALA797  LYS798  CYS799  TRP800  GLU811  SER814 

> <Gold.Protein.RotatedAtoms>
  151.4330  133.3665  159.2771 H   0  0  0  0  0  0  0  0  0  0  0  0  # atno 6907 bound_to 6896
  150.9211  134.8630  159.7500 H   0  0  0  0  0  0  0  0  0  0  0  0  # atno 6908 bound_to 6896
  152.4982  134.4268  159.9551 H   0  0  0  0  0  0  0  0  0  0  0  0  # atno 6909 bound_to 6896
  144.8662  140.6296  143.5296 H   0  0  0  0  0  0  0  0  0  0  0  0  # atno 7974 bound_to 7965
  154.7322  140.0501  157.0736 H   0  0  0  0  0  0  0  0  0  0  0  0  # atno 8008 bound_to 7997
  155.0287  140.3155  155.4747 H   0  0  0  0  0  0  0  0  0  0  0  0  # atno 8009 bound_to 7997
  156.2844  140.2154  156.5408 H   0  0  0  0  0  0  0  0  0  0  0  0  # atno 8010 bound_to 7997
  140.7177  143.3519  151.2138 H   0  0  0  0  0  0  0  0  0  0  0  0  # atno 10167 bound_to 10162
  157.3852  131.0997  151.0700 H   0  0  0  0  0  0  0  0  0  0  0  0  # atno 10718 bound_to 10713
  154.8537  135.3518  154.5902 H   0  0  0  0  0  0  0  0  0  0  0  0  # atno 10763 bound_to 10752
  153.6512  135.6994  153.5213 H   0  0  0  0  0  0  0  0  0  0  0  0  # atno 10764 bound_to 10752
  153.2893  135.4239  155.1110 H   0  0  0  0  0  0  0  0  0  0  0  0  # atno 10765 bound_to 10752
  141.1668  133.7141  156.8241 H   0  0  0  0  0  0  0  0  0  0  0  0  # atno 11005 bound_to 11000
  145.4217  139.1563  143.4070 LP  0  0  0  0  0  0  0  0  0  0  0  0  # atno 17320 bound_to 7965
  146.2897  140.4328  142.8744 LP  0  0  0  0  0  0  0  0  0  0  0  0  # atno 17321 bound_to 7965
  139.7051  143.9468  152.2923 LP  0  0  0  0  0  0  0  0  0  0  0  0  # atno 17342 bound_to 10162
  139.9174  144.6820  150.8497 LP  0  0  0  0  0  0  0  0  0  0  0  0  # atno 17343 bound_to 10162
  157.1754  130.6286  149.5654 LP  0  0  0  0  0  0  0  0  0  0  0  0  # atno 17370 bound_to 10713
  155.9785  130.4771  150.6659 LP  0  0  0  0  0  0  0  0  0  0  0  0  # atno 17371 bound_to 10713
  140.2098  134.8836  157.3262 LP  0  0  0  0  0  0  0  0  0  0  0  0  # atno 17394 bound_to 11000
  140.2098  134.4152  155.7618 LP  0  0  0  0  0  0  0  0  0  0  0  0  # atno 17395 bound_to 11000

$$$$
