AV-unprocessed.smi:218|AV-procd|sdf|1675|dock3
  -GOLD-   2262020103D 1   1.00000     0.00000
 Structure written by MMmdl.
 54 57  0  0  0  0  0  0  0  0  1 V2000
  150.9390  140.0197  159.3799 C   0  0  0  0  0  0  0  0  0  0  0  0
  151.7683  141.2213  158.9111 C   0  0  0  0  0  0  0  0  0  0  0  0
  151.9042  142.2720  160.0267 C   0  0  0  0  0  0  0  0  0  0  0  0
  151.0912  141.7780  157.7824 O   0  0  0  0  0  0  0  0  0  0  0  0
  150.6820  140.9612  156.7459 C   0  0  0  0  0  0  0  0  0  0  0  0
  149.5550  141.3509  155.9938 C   0  0  0  0  0  0  0  0  0  0  0  0
  149.1245  140.5283  154.9307 C   0  0  0  0  0  0  0  0  0  0  0  0
  147.9156  140.8948  154.0909 C   0  0  0  0  0  0  0  0  0  0  0  0
  147.5593  139.8864  153.1010 N   0  0  0  0  0  0  0  0  0  0  0  0
  146.4974  139.0793  153.3088 C   0  0  0  0  0  0  0  0  0  0  0  0
  145.7967  139.1316  154.4710 N   0  0  0  0  0  0  0  0  0  0  0  0
  144.7557  138.3159  154.6577 C   0  0  0  0  0  0  0  0  0  0  0  0
  144.2569  137.3983  153.8273 N   0  0  0  0  0  0  0  0  0  0  0  0
  144.9494  137.3447  152.6512 C   0  0  0  0  0  0  0  0  0  0  0  0
  146.0800  138.1462  152.3245 C   0  0  0  0  0  0  0  0  0  0  0  0
  146.5449  137.8142  151.0603 N   0  0  0  0  0  0  0  0  0  0  0  0
  145.7377  136.8668  150.6680 C   0  0  0  0  0  0  0  0  0  0  0  0
  144.7276  136.5373  151.5481 N   0  0  0  0  0  0  0  0  0  0  0  0
  143.6838  135.4663  151.3715 C   0  0  1  0  0  0  0  0  0  0  0  0
  143.8157  134.8995  150.1035 O   0  0  0  0  0  0  0  0  0  0  0  0
  144.6420  133.7469  150.1884 C   0  0  2  0  0  0  0  0  0  0  0  0
  144.5526  132.9031  148.9045 C   0  0  0  0  0  0  0  0  0  0  0  0
  143.2280  132.4597  148.6983 O   0  0  0  0  0  0  0  0  0  0  0  0
  144.1509  133.1026  151.4903 C   0  0  2  0  0  0  0  0  0  0  0  0
  142.9707  132.3485  151.2657 O   0  0  0  0  0  0  0  0  0  0  0  0
  143.9134  134.3219  152.3845 C   0  0  2  0  0  0  0  0  0  0  0  0
  142.8349  134.1446  153.2844 O   0  0  0  0  0  0  0  0  0  0  0  0
  149.8351  139.3394  154.6714 C   0  0  0  0  0  0  0  0  0  0  0  0
  150.9466  139.0316  155.4792 C   0  0  0  0  0  0  0  0  0  0  0  0
  151.3663  139.8180  156.4925 N   0  0  0  0  0  0  0  0  0  0  0  0
  142.7336  135.9910  151.4775 H   0  0  0  0  0  0  0  0  0  0  0  0
  145.6724  134.0835  150.3220 H   0  0  0  0  0  0  0  0  0  0  0  0
  144.9010  132.4356  151.9167 H   0  0  0  0  0  0  0  0  0  0  0  0
  144.8198  134.5120  152.9603 H   0  0  0  0  0  0  0  0  0  0  0  0
  151.4018  139.5337  160.2393 H   0  0  0  0  0  0  0  0  0  0  0  0
  150.8488  139.2758  158.5879 H   0  0  0  0  0  0  0  0  0  0  0  0
  149.9319  140.3222  159.6682 H   0  0  0  0  0  0  0  0  0  0  0  0
  152.7532  140.8436  158.6322 H   0  0  0  0  0  0  0  0  0  0  0  0
  152.3856  141.8453  160.9068 H   0  0  0  0  0  0  0  0  0  0  0  0
  150.9280  142.6495  160.3319 H   0  0  0  0  0  0  0  0  0  0  0  0
  152.5035  143.1249  159.7098 H   0  0  0  0  0  0  0  0  0  0  0  0
  149.0334  142.2653  156.2356 H   0  0  0  0  0  0  0  0  0  0  0  0
  147.0632  141.0644  154.7505 H   0  0  0  0  0  0  0  0  0  0  0  0
  148.1251  141.8385  153.5857 H   0  0  0  0  0  0  0  0  0  0  0  0
  148.1335  139.8536  152.2707 H   0  0  0  0  0  0  0  0  0  0  0  0
  144.2494  138.4116  155.6069 H   0  0  0  0  0  0  0  0  0  0  0  0
  145.8578  136.3788  149.7117 H   0  0  0  0  0  0  0  0  0  0  0  0
  144.8934  133.4592  148.0309 H   0  0  0  0  0  0  0  0  0  0  0  0
  145.1972  132.0284  148.9929 H   0  0  0  0  0  0  0  0  0  0  0  0
  142.6380  133.1446  148.9739 H   0  0  0  0  0  0  0  0  0  0  0  0
  142.4487  132.3729  152.0534 H   0  0  0  0  0  0  0  0  0  0  0  0
  142.8298  133.2452  153.5748 H   0  0  0  0  0  0  0  0  0  0  0  0
  149.5384  138.6760  153.8723 H   0  0  0  0  0  0  0  0  0  0  0  0
  151.5135  138.1287  155.3074 H   0  0  0  0  0  0  0  0  0  0  0  0
  1  2  1  0  0  0  0
  1 35  1  0  0  0  0
  1 36  1  0  0  0  0
  1 37  1  0  0  0  0
  2  3  1  0  0  0  0
  2  4  1  0  0  0  0
  2 38  1  0  0  0  0
  3 39  1  0  0  0  0
  3 40  1  0  0  0  0
  3 41  1  0  0  0  0
  4  5  1  0  0  0  0
  5 30  1  0  0  0  0
  5  6  2  0  0  0  0
  6  7  1  0  0  0  0
  6 42  1  0  0  0  0
  7  8  1  0  0  0  0
  7 28  2  0  0  0  0
  8  9  1  0  0  0  0
  8 43  1  0  0  0  0
  8 44  1  0  0  0  0
  9 10  1  0  0  0  0
  9 45  1  0  0  0  0
 10 15  1  0  0  0  0
 10 11  2  0  0  0  0
 11 12  1  0  0  0  0
 12 13  2  0  0  0  0
 12 46  1  0  0  0  0
 13 14  1  0  0  0  0
 14 18  1  0  0  0  0
 14 15  2  0  0  0  0
 15 16  1  0  0  0  0
 16 17  2  0  0  0  0
 17 18  1  0  0  0  0
 17 47  1  0  0  0  0
 18 19  1  0  0  0  0
 19 31  1  0  0  0  0
 19 26  1  0  0  0  0
 19 20  1  0  0  0  0
 20 21  1  0  0  0  0
 21 32  1  0  0  0  0
 21 22  1  0  0  0  0
 21 24  1  0  0  0  0
 22 23  1  0  0  0  0
 22 48  1  0  0  0  0
 22 49  1  0  0  0  0
 23 50  1  0  0  0  0
 24 33  1  0  0  0  0
 24 25  1  0  0  0  0
 24 26  1  0  0  0  0
 25 51  1  0  0  0  0
 26 34  1  0  0  0  0
 26 27  1  0  0  0  0
 27 52  1  0  0  0  0
 28 29  1  0  0  0  0
 28 53  1  0  0  0  0
 29 30  2  0  0  0  0
 29 54  1  0  0  0  0
M  END
> <s_m_source_file>
AV-unprocessed.smi

> <i_m_source_file_index>
218

> <i_lp_mmshare_version>
43012

> <i_f3d_flags>
0

> <s_epik_input>
W0NIM11bQ0hdKFtDSDNdKU9jMVtjSF1jKFtjSF1bY0hdbjEpW0NIMl1bTkhdYyhuW2NIXW4yKWMoYzIzKW5bY0hdbjNbQ0BASF00T1tDQEhdKFtDSDJdW09IXSlbQ0BASF0oW09IXSlbQ0BIXTRbT0hd

> <s_epik_cmdline>
J2VwaWtfcHl0aG9uJywgJy1waCcsICc3LjAnLCAnLXRuJywgJzgnLCAnLW1hJywgJzIwMCcsICctbWV0YWxfYmluZGluZycsICctaW1hZScsICc8aW5maWxlLm1hZT4nLCAnLW9tYWUnLCAnPG91dGZpbGUubWFlPic=

> <r_lp_tautomer_probability>
1

> <r_epik_Ionization_Penalty>
0.00457014

> <r_epik_Ionization_Penalty_Charging>
0

> <r_epik_Ionization_Penalty_Neutral>
0.00457014

> <r_epik_State_Penalty>
-0

> <r_epik_Charging_Adjusted_Penalty>
0

> <i_epik_Tot_Q>
0

> <i_epik_Tot_abs_Q>
0

> <r_epik_Metal_State_Penalty>
-0

> <b_epik_Metal_Only>
0

> <s_epik_Chemistry_Notes>
This compound contains an acetal/aminal-like group ( X-CH(R)-Y where X, Y are N, S, or O) that may be acid/base labile, releasing an aldehyde.

> <s_lp_Force_Field>
OPLS_2005

> <r_lp_Energy>
43.0364

> <b_lp_Chiralities_Consistent>
1

> <s_lp_Variant>
AV-unprocessed.smi:218-14

> <Gold.Version>
5.8.1

> <Gold.Id.Protein>
6NUR|6NUR_protein|mol2

> <Gold.PLP.Fitness>
58.9938

> <Gold.PLP.PLP>
-44.2644

> <Gold.PLP.part.hbond>
-4.8446

> <Gold.PLP.part.metal>
0.0000

> <Gold.PLP.part.buried>
0.4929

> <Gold.PLP.part.nonpolar>
-45.2384

> <Gold.PLP.part.repulsive>
3.8158

> <Gold.PLP.ligand.clash>
0.0000

> <Gold.PLP.ligand.torsion>
0.6004

> <Gold.PLP.Chemscore.Hbond>
4.2479

> <Gold.PLP.Chemscore.CHOScore>
1.0000

> <Gold.PLP.Chemscore.Metal>
0.0000

> <Gold.Chemscore.Hbonds>
donor molecule, donor type, donor heavy atom, donor atom, acceptor molecule, acceptor atom, score
      L1  H     9    45       P1  7957  1.00
      L1  H    23    50       P1 10186  0.73
      L1  H    27    52       P1 10957  1.00
      P1  H  7954  7966       L1    16  1.00
      P1  H 10785 10796       L1    23  0.26
      L1  C    17    47       P1  7921  0.85

> <Gold.PLP.Chemscore.Internal.Correction>
0.1866

> <Gold.Rescore>
     Score         DG    S(hbond)    S(metal)    S(lipo)     H(rot)  DE(clash)    DE(int)     intcor
     12.92     -16.35       3.66        0.00      95.78       4.90       2.66       0.76       ----

> <Gold.Chemscore.Fitness>
12.9220

> <Gold.Chemscore.DG>
-16.3465

> <Gold.Chemscore.ZeroCoef>
-5.4800

> <Gold.Chemscore.Hbond>
3.6561

> <Gold.Chemscore.Metal>
0.0000

> <Gold.Chemscore.Lipo>
95.7827

> <Gold.Chemscore.Internal_Hbond>
0.0000

> <Gold.Chemscore.DEClash>
2.6606

> <Gold.Chemscore.DEInternal>
0.7639

> <Gold.Chemscore.Rot>
4.9029

> <Gold.Chemscore.Internal.Correction>
   9.000000E+99

> <Gold.Chemscore.Hbonds>
donor molecule, donor type, donor heavy atom, donor atom, acceptor molecule, acceptor atom, score
      L1  H     9    45       P1  7957  1.00
      L1  H    23    50       P1 10186  0.73
      L1  H    27    52       P1 10957  0.98
      P1  H  7954  7966       L1    16  0.72
      P1  H 10785 10796       L1    23  0.18

> <Gold.Chemscore.Hbond.Weighted>
-12.2114

> <Gold.Chemscore.Metal.Weighted>
-0.0000

> <Gold.Chemscore.Lipo.Weighted>
-11.2066

> <Gold.Chemscore.Internal_Hbond.Weighted>
0.0000

> <Gold.Chemscore.DEClash.Weighted>
2.6606

> <Gold.Chemscore.DEInternal.Weighted>
0.7639

> <Gold.Chemscore.Rot.Weighted>
12.5515

> <Gold.Chemscore.Internal.Correction.Weighted>
   9.000000E+99

> <Gold.Protein.RotatedTorsions>
[ 6907 6896 6895 6894 ] final   26.11 input  -60.11 | X-H torsion
[ 7974 7965 7964 7962 ] final -176.68 input  175.53 | X-H torsion
[ 8008 7997 7996 7995 ] final   74.99 input   59.86 | X-H torsion
[ 10167 10162 10161 10158 ] final   82.77 input  -65.29 | X-H torsion
[ 10718 10713 10712 10709 ] final -129.33 input   66.30 | X-H torsion
[ 10763 10752 10751 10750 ] final  171.14 input  -60.55 | X-H torsion
[ 11005 11000 10999 10996 ] final  136.96 input  -57.11 | X-H torsion

> <Gold.Protein.ActiveResidues>
 VAL166  LYS551  ARG553  GLY616  TRP617  ASP618  TYR619  PRO620  LYS621  CYS622 
 ASP623  PHE694  ASN695  SER759  ASP760  ASP761  ALA762  ILE779  LEU786  VAL792 
 PHE793  MET794  SER795  GLU796  ALA797  LYS798  CYS799  TRP800  GLU811  SER814 

> <Gold.Protein.RotatedAtoms>
  151.9825  135.0021  160.0557 H   0  0  0  0  0  0  0  0  0  0  0  0  # atno 6907 bound_to 6896
  152.1683  133.4622  159.4904 H   0  0  0  0  0  0  0  0  0  0  0  0  # atno 6908 bound_to 6896
  150.6898  134.1903  159.4325 H   0  0  0  0  0  0  0  0  0  0  0  0  # atno 6909 bound_to 6896
  144.7127  140.1133  143.6410 H   0  0  0  0  0  0  0  0  0  0  0  0  # atno 7974 bound_to 7965
  155.8064  140.3474  155.5432 H   0  0  0  0  0  0  0  0  0  0  0  0  # atno 8008 bound_to 7997
  155.8486  140.0952  157.1710 H   0  0  0  0  0  0  0  0  0  0  0  0  # atno 8009 bound_to 7997
  154.4007  140.1381  156.3803 H   0  0  0  0  0  0  0  0  0  0  0  0  # atno 8010 bound_to 7997
  139.9253  144.6187  150.8399 H   0  0  0  0  0  0  0  0  0  0  0  0  # atno 10167 bound_to 10162
  156.2036  130.6873  151.0568 H   0  0  0  0  0  0  0  0  0  0  0  0  # atno 10718 bound_to 10713
  154.4077  135.2756  155.2057 H   0  0  0  0  0  0  0  0  0  0  0  0  # atno 10763 bound_to 10752
  154.4056  135.6034  153.5926 H   0  0  0  0  0  0  0  0  0  0  0  0  # atno 10764 bound_to 10752
  152.9831  135.5937  154.4354 H   0  0  0  0  0  0  0  0  0  0  0  0  # atno 10765 bound_to 10752
  140.0081  134.9450  157.0219 H   0  0  0  0  0  0  0  0  0  0  0  0  # atno 11005 bound_to 11000
  145.9435  139.2685  143.1254 LP  0  0  0  0  0  0  0  0  0  0  0  0  # atno 17320 bound_to 7965
  145.9398  140.8988  143.0313 LP  0  0  0  0  0  0  0  0  0  0  0  0  # atno 17321 bound_to 7965
  140.7652  143.3268  151.2498 LP  0  0  0  0  0  0  0  0  0  0  0  0  # atno 17342 bound_to 10162
  139.6827  143.9826  152.2817 LP  0  0  0  0  0  0  0  0  0  0  0  0  # atno 17343 bound_to 10162
  157.7000  131.0779  150.6851 LP  0  0  0  0  0  0  0  0  0  0  0  0  # atno 17370 bound_to 10713
  156.6909  130.4594  149.5600 LP  0  0  0  0  0  0  0  0  0  0  0  0  # atno 17371 bound_to 10713
  140.4604  134.1490  155.7190 LP  0  0  0  0  0  0  0  0  0  0  0  0  # atno 17394 bound_to 11000
  141.1692  133.8643  157.1624 LP  0  0  0  0  0  0  0  0  0  0  0  0  # atno 17395 bound_to 11000

$$$$
