AV-unprocessed.smi:145|AV-procd|sdf|1198|dock4
  -GOLD-   2262018353D 1   1.00000     0.00000
 Structure written by MMmdl.
 40 42  0  0  0  0  0  0  0  0  1 V2000
  150.8103  138.8141  159.1140 O   0  0  0  0  0  0  0  0  0  0  0  0
  150.3606  139.0941  158.0018 C   0  0  0  0  0  0  0  0  0  0  0  0
  149.6625  138.0223  157.1491 C   0  0  0  0  0  0  0  0  0  0  0  0
  148.5247  137.3693  157.8332 N   0  0  0  0  0  0  0  0  0  0  0  0
  147.2202  137.5462  157.3092 C   0  0  0  0  0  0  0  0  0  0  0  0
  147.0243  138.2220  156.2982 O   0  0  0  0  0  0  0  0  0  0  0  0
  146.1500  136.8847  158.0473 C   0  0  0  0  0  0  0  0  0  0  0  0
  144.8820  136.9858  157.6137 F   0  0  0  0  0  0  0  0  0  0  0  0
  146.4118  136.1694  159.1605 C   0  0  0  0  0  0  0  0  0  0  0  0
  147.6890  136.0203  159.6716 N   0  0  0  0  0  0  0  0  0  0  0  0
  147.9667  135.2193  160.9265 C   0  0  1  0  0  0  0  0  0  0  0  0
  147.2511  135.8448  162.1392 C   0  0  0  0  0  0  0  0  0  0  0  0
  146.5062  134.6664  162.7337 C   0  0  0  0  0  0  0  0  0  0  0  0
  146.2489  133.8052  161.5065 C   0  0  0  0  0  0  0  0  0  0  0  0
  147.4669  133.9199  160.7826 O   0  0  0  0  0  0  0  0  0  0  0  0
  148.7803  136.6195  159.0060 C   0  0  0  0  0  0  0  0  0  0  0  0
  149.9266  136.4965  159.4436 O   0  0  0  0  0  0  0  0  0  0  0  0
  150.4442  140.3100  157.4321 N   0  0  0  0  0  0  0  0  0  0  0  0
  151.0214  141.4960  157.9607 C   0  0  0  0  0  0  0  0  0  0  0  0
  150.9071  142.7628  157.3380 C   0  0  0  0  0  0  0  0  0  0  0  0
  151.5246  143.8923  157.9103 C   0  0  0  0  0  0  0  0  0  0  0  0
  152.2665  143.7658  159.0997 C   0  0  0  0  0  0  0  0  0  0  0  0
  152.3978  142.5062  159.7141 C   0  0  0  0  0  0  0  0  0  0  0  0
  153.5093  142.3115  161.4745 I   0  0  0  0  0  0  0  0  0  0  0  0
  151.7822  141.3758  159.1425 C   0  0  0  0  0  0  0  0  0  0  0  0
  149.3474  138.4829  156.2117 H   0  0  0  0  0  0  0  0  0  0  0  0
  150.4028  137.2817  156.8415 H   0  0  0  0  0  0  0  0  0  0  0  0
  145.5752  135.7024  159.6569 H   0  0  0  0  0  0  0  0  0  0  0  0
  149.0535  135.1815  161.0181 H   0  0  0  0  0  0  0  0  0  0  0  0
  147.9675  136.2934  162.8279 H   0  0  0  0  0  0  0  0  0  0  0  0
  146.5479  136.6117  161.8098 H   0  0  0  0  0  0  0  0  0  0  0  0
  147.1470  134.1328  163.4369 H   0  0  0  0  0  0  0  0  0  0  0  0
  145.5921  134.9555  163.2527 H   0  0  0  0  0  0  0  0  0  0  0  0
  146.0266  132.7677  161.7569 H   0  0  0  0  0  0  0  0  0  0  0  0
  145.4212  134.2040  160.9183 H   0  0  0  0  0  0  0  0  0  0  0  0
  150.1201  140.3734  156.4779 H   0  0  0  0  0  0  0  0  0  0  0  0
  150.3637  142.8883  156.4141 H   0  0  0  0  0  0  0  0  0  0  0  0
  151.4328  144.8564  157.4322 H   0  0  0  0  0  0  0  0  0  0  0  0
  152.7391  144.6335  159.5360 H   0  0  0  0  0  0  0  0  0  0  0  0
  151.8909  140.4132  159.6209 H   0  0  0  0  0  0  0  0  0  0  0  0
  1  2  2  0  0  0  0
  2  3  1  0  0  0  0
  2 18  1  0  0  0  0
  3  4  1  0  0  0  0
  3 26  1  0  0  0  0
  3 27  1  0  0  0  0
  4 16  1  0  0  0  0
  4  5  1  0  0  0  0
  5  6  2  0  0  0  0
  5  7  1  0  0  0  0
  7  8  1  0  0  0  0
  7  9  2  0  0  0  0
  9 10  1  0  0  0  0
  9 28  1  0  0  0  0
 10 11  1  0  0  0  0
 10 16  1  0  0  0  0
 11 15  1  0  0  0  0
 11 12  1  0  0  0  0
 11 29  1  0  0  0  0
 12 13  1  0  0  0  0
 12 30  1  0  0  0  0
 12 31  1  0  0  0  0
 13 14  1  0  0  0  0
 13 32  1  0  0  0  0
 13 33  1  0  0  0  0
 14 15  1  0  0  0  0
 14 34  1  0  0  0  0
 14 35  1  0  0  0  0
 16 17  2  0  0  0  0
 18 19  1  0  0  0  0
 18 36  1  0  0  0  0
 19 25  1  0  0  0  0
 19 20  2  0  0  0  0
 20 21  1  0  0  0  0
 20 37  1  0  0  0  0
 21 22  2  0  0  0  0
 21 38  1  0  0  0  0
 22 23  1  0  0  0  0
 22 39  1  0  0  0  0
 23 24  1  0  0  0  0
 23 25  2  0  0  0  0
 25 40  1  0  0  0  0
M  END
> <s_m_source_file>
AV-unprocessed.smi

> <i_m_source_file_index>
145

> <i_lp_mmshare_version>
43012

> <i_f3d_flags>
0

> <s_epik_input>
SWMoW2NIXTEpW2NIXVtjSF1bY0hdYzFbTkhdQyg9TylbQ0gyXW4yYyg9TyljKEYpW2NIXW4oYzI9TylbQ0BASF0zW0NIMl1bQ0gyXVtDSDJdTzM=

> <s_epik_cmdline>
J2VwaWtfcHl0aG9uJywgJy1waCcsICc3LjAnLCAnLXRuJywgJzgnLCAnLW1hJywgJzIwMCcsICctbWV0YWxfYmluZGluZycsICctaW1hZScsICc8aW5maWxlLm1hZT4nLCAnLW9tYWUnLCAnPG91dGZpbGUubWFlPic=

> <r_lp_tautomer_probability>
1

> <r_epik_Ionization_Penalty>
9.72367e-07

> <r_epik_Ionization_Penalty_Charging>
3.88729e-08

> <r_epik_Ionization_Penalty_Neutral>
9.33494e-07

> <r_epik_State_Penalty>
-0

> <r_epik_Charging_Adjusted_Penalty>
3.88729e-08

> <i_epik_Tot_Q>
0

> <i_epik_Tot_abs_Q>
0

> <r_epik_Metal_State_Penalty>
-0

> <b_epik_Metal_Only>
0

> <s_epik_Chemistry_Notes>
This compound contains an acetal/aminal-like group ( X-CH(R)-Y where X, Y are N, S, or O) that may be acid/base labile, releasing an aldehyde.

> <s_lp_Force_Field>
OPLS_2005

> <r_lp_Energy>
33.5039

> <b_lp_Chiralities_Consistent>
1

> <s_lp_Variant>
AV-unprocessed.smi:145-2

> <Gold.Version>
5.8.1

> <Gold.Id.Protein>
6NUR|6NUR_protein|mol2

> <Gold.PLP.Fitness>
43.6232

> <Gold.PLP.PLP>
-41.1468

> <Gold.PLP.part.hbond>
-1.6250

> <Gold.PLP.part.metal>
0.0000

> <Gold.PLP.part.buried>
-5.8902

> <Gold.PLP.part.nonpolar>
-33.0933

> <Gold.PLP.part.repulsive>
0.0508

> <Gold.PLP.ligand.clash>
0.3621

> <Gold.PLP.ligand.torsion>
0.0744

> <Gold.PLP.Chemscore.Hbond>
0.9920

> <Gold.PLP.Chemscore.CHOScore>
0.0000

> <Gold.PLP.Chemscore.Metal>
0.0000

> <Gold.Chemscore.Hbonds>
donor molecule, donor type, donor heavy atom, donor atom, acceptor molecule, acceptor atom, score
      P1  H  6896  6908       L1    17  1.00

> <Gold.PLP.Chemscore.Internal.Correction>
0.0114

> <Gold.Rescore>
     Score         DG    S(hbond)    S(metal)    S(lipo)     H(rot)  DE(clash)    DE(int)     intcor
     12.71     -15.85       1.00        0.00      96.53       1.66       0.02       3.12       ----

> <Gold.Chemscore.Fitness>
12.7112

> <Gold.Chemscore.DG>
-15.8534

> <Gold.Chemscore.ZeroCoef>
-5.4800

> <Gold.Chemscore.Hbond>
0.9982

> <Gold.Chemscore.Metal>
0.0000

> <Gold.Chemscore.Lipo>
96.5319

> <Gold.Chemscore.Internal_Hbond>
0.0000

> <Gold.Chemscore.DEClash>
0.0224

> <Gold.Chemscore.DEInternal>
3.1198

> <Gold.Chemscore.Rot>
1.6621

> <Gold.Chemscore.Internal.Correction>
   9.000000E+99

> <Gold.Chemscore.Hbonds>
donor molecule, donor type, donor heavy atom, donor atom, acceptor molecule, acceptor atom, score
      P1  H  6896  6908       L1    17  0.95

> <Gold.Chemscore.Hbond.Weighted>
-3.3341

> <Gold.Chemscore.Metal.Weighted>
-0.0000

> <Gold.Chemscore.Lipo.Weighted>
-11.2942

> <Gold.Chemscore.Internal_Hbond.Weighted>
0.0000

> <Gold.Chemscore.DEClash.Weighted>
0.0224

> <Gold.Chemscore.DEInternal.Weighted>
3.1198

> <Gold.Chemscore.Rot.Weighted>
4.2550

> <Gold.Chemscore.Internal.Correction.Weighted>
   9.000000E+99

> <Gold.Protein.RotatedTorsions>
[ 6907 6896 6895 6894 ] final -179.08 input  -60.11 | X-H torsion
[ 7974 7965 7964 7962 ] final   20.02 input  175.53 | X-H torsion
[ 8008 7997 7996 7995 ] final -154.80 input   59.86 | X-H torsion
[ 10167 10162 10161 10158 ] final   95.03 input  -65.29 | X-H torsion
[ 10718 10713 10712 10709 ] final  133.57 input   66.30 | X-H torsion
[ 10763 10752 10751 10750 ] final  -73.41 input  -60.55 | X-H torsion
[ 11005 11000 10999 10996 ] final   15.64 input  -57.11 | X-H torsion

> <Gold.Protein.ActiveResidues>
 VAL166  LYS551  ARG553  GLY616  TRP617  ASP618  TYR619  PRO620  LYS621  CYS622 
 ASP623  PHE694  ASN695  SER759  ASP760  ASP761  ALA762  ILE779  LEU786  VAL792 
 PHE793  MET794  SER795  GLU796  ALA797  LYS798  CYS799  TRP800  GLU811  SER814 

> <Gold.Protein.RotatedAtoms>
  151.6476  133.3322  159.3144 H   0  0  0  0  0  0  0  0  0  0  0  0  # atno 6907 bound_to 6896
  150.7976  134.7051  159.6581 H   0  0  0  0  0  0  0  0  0  0  0  0  # atno 6908 bound_to 6896
  152.4065  134.6202  160.0100 H   0  0  0  0  0  0  0  0  0  0  0  0  # atno 6909 bound_to 6896
  146.2127  139.8230  142.8676 H   0  0  0  0  0  0  0  0  0  0  0  0  # atno 7974 bound_to 7965
  155.6920  140.0756  157.2444 H   0  0  0  0  0  0  0  0  0  0  0  0  # atno 8008 bound_to 7997
  154.4087  140.1663  156.2149 H   0  0  0  0  0  0  0  0  0  0  0  0  # atno 8009 bound_to 7997
  155.9443  140.3382  155.6357 H   0  0  0  0  0  0  0  0  0  0  0  0  # atno 8010 bound_to 7997
  139.8027  144.6807  150.9743 H   0  0  0  0  0  0  0  0  0  0  0  0  # atno 10167 bound_to 10162
  157.4759  131.1083  150.9743 H   0  0  0  0  0  0  0  0  0  0  0  0  # atno 10718 bound_to 10713
  154.4591  135.5898  153.6243 H   0  0  0  0  0  0  0  0  0  0  0  0  # atno 10763 bound_to 10752
  152.9821  135.6039  154.3508 H   0  0  0  0  0  0  0  0  0  0  0  0  # atno 10764 bound_to 10752
  154.3378  135.2842  155.2417 H   0  0  0  0  0  0  0  0  0  0  0  0  # atno 10765 bound_to 10752
  140.4560  134.1175  155.7709 H   0  0  0  0  0  0  0  0  0  0  0  0  # atno 11005 bound_to 11000
  145.3077  141.0211  143.3572 LP  0  0  0  0  0  0  0  0  0  0  0  0  # atno 17320 bound_to 7965
  144.8959  139.4713  143.6655 LP  0  0  0  0  0  0  0  0  0  0  0  0  # atno 17321 bound_to 7965
  140.7820  143.4265  151.0761 LP  0  0  0  0  0  0  0  0  0  0  0  0  # atno 17342 bound_to 10162
  139.7936  143.8184  152.3155 LP  0  0  0  0  0  0  0  0  0  0  0  0  # atno 17343 bound_to 10162
  157.0493  130.5780  149.5368 LP  0  0  0  0  0  0  0  0  0  0  0  0  # atno 17370 bound_to 10713
  156.0097  130.5187  150.7947 LP  0  0  0  0  0  0  0  0  0  0  0  0  # atno 17371 bound_to 10713
  141.1642  133.8734  157.1761 LP  0  0  0  0  0  0  0  0  0  0  0  0  # atno 17394 bound_to 11000
  139.9976  135.0041  157.0117 LP  0  0  0  0  0  0  0  0  0  0  0  0  # atno 17395 bound_to 11000

$$$$
