AV-unprocessed.smi:1971|AV-procd|sdf|7964|dock9
  -GOLD-   2272010133D 1   1.00000     0.00000
 Structure written by MMmdl.
 44 45  0  0  0  0  0  0  0  0  2 V2000
  152.0041  139.4306  157.1252 C   0  0  0  0  0  0  0  0  0  0  0  0
  150.7601  138.5762  156.8418 C   0  0  0  0  0  0  0  0  0  0  0  0
  150.8813  137.8274  155.5884 N   0  0  0  0  0  0  0  0  0  0  0  0
  149.7553  136.9147  155.3721 C   0  0  0  0  0  0  0  0  0  0  0  0
  148.4537  137.6707  155.0318 C   0  0  0  0  0  0  0  0  0  0  0  0
  148.6489  138.5113  153.8215 N   0  3  0  0  0  0  0  0  0  0  0  0
  147.4229  139.1701  153.2822 C   0  0  2  0  0  0  0  0  0  0  0  0
  147.0843  140.4961  153.9994 C   0  0  0  0  0  0  0  0  0  0  0  0
  146.2366  138.1825  153.2668 C   0  0  0  0  0  0  0  0  0  0  0  0
  146.5678  136.9490  152.5606 N   0  0  0  0  0  0  0  0  0  0  0  0
  145.6658  136.0707  152.1012 C   0  0  0  0  0  0  0  0  0  0  0  0
  144.4513  136.2114  152.2464 O   0  0  0  0  0  0  0  0  0  0  0  0
  146.2603  135.0390  151.4763 N   0  0  0  0  0  0  0  0  0  0  0  0
  145.6452  133.9439  150.8139 C   0  0  0  0  0  0  0  0  0  0  0  0
  146.1234  132.6941  150.8194 N   0  0  0  0  0  0  0  0  0  0  0  0
  145.3120  131.8187  150.0930 C   0  0  0  0  0  0  0  0  0  0  0  0
  144.2120  132.4232  149.5373 C   0  0  0  0  0  0  0  0  0  0  0  0
  144.1497  134.1256  149.9085 S   0  0  0  0  0  0  0  0  0  0  0  0
  149.7902  139.4393  154.0193 C   0  0  0  0  0  0  0  0  0  0  0  0
  151.0647  138.6512  154.3882 C   0  0  0  0  0  0  0  0  0  0  0  0
  151.9459  139.8662  158.1228 H   0  0  0  0  0  0  0  0  0  0  0  0
  152.1047  140.2555  156.4205 H   0  0  0  0  0  0  0  0  0  0  0  0
  152.9145  138.8319  157.0812 H   0  0  0  0  0  0  0  0  0  0  0  0
  150.6526  137.8620  157.6591 H   0  0  0  0  0  0  0  0  0  0  0  0
  149.8654  139.1975  156.8562 H   0  0  0  0  0  0  0  0  0  0  0  0
  150.0079  136.2361  154.5562 H   0  0  0  0  0  0  0  0  0  0  0  0
  149.6123  136.2908  156.2551 H   0  0  0  0  0  0  0  0  0  0  0  0
  147.6623  136.9422  154.8597 H   0  0  0  0  0  0  0  0  0  0  0  0
  148.1370  138.2796  155.8788 H   0  0  0  0  0  0  0  0  0  0  0  0
  147.6297  139.4114  152.2384 H   0  0  0  0  0  0  0  0  0  0  0  0
  146.2820  141.0274  153.4873 H   0  0  0  0  0  0  0  0  0  0  0  0
  147.9395  141.1707  154.0286 H   0  0  0  0  0  0  0  0  0  0  0  0
  146.7534  140.3286  155.0245 H   0  0  0  0  0  0  0  0  0  0  0  0
  145.9452  137.9277  154.2867 H   0  0  0  0  0  0  0  0  0  0  0  0
  145.3683  138.6460  152.7969 H   0  0  0  0  0  0  0  0  0  0  0  0
  147.5464  136.7557  152.4045 H   0  0  0  0  0  0  0  0  0  0  0  0
  147.2693  135.0436  151.4567 H   0  0  0  0  0  0  0  0  0  0  0  0
  145.5936  130.7784  150.0232 H   0  0  0  0  0  0  0  0  0  0  0  0
  143.4376  131.9714  148.9355 H   0  0  0  0  0  0  0  0  0  0  0  0
  149.9741  139.9913  153.0970 H   0  0  0  0  0  0  0  0  0  0  0  0
  149.5568  140.1814  154.7825 H   0  0  0  0  0  0  0  0  0  0  0  0
  151.9080  139.3291  154.5134 H   0  0  0  0  0  0  0  0  0  0  0  0
  151.3328  137.9936  153.5602 H   0  0  0  0  0  0  0  0  0  0  0  0
  148.9507  137.8787  153.0943 H   0  0  0  0  0  0  0  0  0  0  0  0
  1  2  1  0  0  0  0
  1 21  1  0  0  0  0
  1 22  1  0  0  0  0
  1 23  1  0  0  0  0
  2  3  1  0  0  0  0
  2 24  1  0  0  0  0
  2 25  1  0  0  0  0
  3 20  1  0  0  0  0
  3  4  1  0  0  0  0
  4  5  1  0  0  0  0
  4 26  1  0  0  0  0
  4 27  1  0  0  0  0
  5  6  1  0  0  0  0
  5 28  1  0  0  0  0
  5 29  1  0  0  0  0
  6  7  1  0  0  0  0
  6 19  1  0  0  0  0
  6 44  1  0  0  0  0
  7  8  1  0  0  0  0
  7  9  1  0  0  0  0
  7 30  1  0  0  0  0
  8 31  1  0  0  0  0
  8 32  1  0  0  0  0
  8 33  1  0  0  0  0
  9 10  1  0  0  0  0
  9 34  1  0  0  0  0
  9 35  1  0  0  0  0
 10 11  1  0  0  0  0
 10 36  1  0  0  0  0
 11 12  2  0  0  0  0
 11 13  1  0  0  0  0
 13 14  1  0  0  0  0
 13 37  1  0  0  0  0
 14 18  1  0  0  0  0
 14 15  2  0  0  0  0
 15 16  1  0  0  0  0
 16 17  2  0  0  0  0
 16 38  1  0  0  0  0
 17 18  1  0  0  0  0
 17 39  1  0  0  0  0
 19 20  1  0  0  0  0
 19 40  1  0  0  0  0
 19 41  1  0  0  0  0
 20 42  1  0  0  0  0
 20 43  1  0  0  0  0
M  CHG  1   6   1
M  END
> <s_m_source_file>
AV-unprocessed.smi

> <i_m_source_file_index>
1971

> <i_lp_mmshare_version>
43012

> <i_f3d_flags>
0

> <s_epik_input>
W0NIM11bQ0gyXU4xW0NIMl1bQ0gyXU4oW0NIMl1bQ0gyXTEpW0NASF0oW0NIM10pW0NIMl1bTkhdQyg9TylbTkhdYzJuW2NIXVtjSF1zMg==

> <s_epik_cmdline>
J2VwaWtfcHl0aG9uJywgJy1waCcsICc3LjAnLCAnLXRuJywgJzgnLCAnLW1hJywgJzIwMCcsICctbWV0YWxfYmluZGluZycsICctaW1hZScsICc8aW5maWxlLm1hZT4nLCAnLW9tYWUnLCAnPG91dGZpbGUubWFlPic=

> <r_epik_Ionization_Penalty>
0.150098

> <r_epik_Ionization_Penalty_Charging>
0.148467

> <r_epik_Ionization_Penalty_Neutral>
0.00163072

> <r_epik_State_Penalty>
0.974087

> <r_epik_Charging_Adjusted_Penalty>
1.12255

> <i_epik_Tot_Q>
1

> <i_epik_Tot_abs_Q>
1

> <r_epik_Metal_State_Penalty>
1.00741

> <b_epik_Metal_Only>
0

> <s_lp_Force_Field>
OPLS_2005

> <r_lp_Energy>
20.3005

> <b_lp_Chiralities_Consistent>
1

> <s_lp_Variant>
AV-unprocessed.smi:1971-3

> <Gold.Version>
5.8.1

> <Gold.Id.Protein>
6NUR|6NUR_protein|mol2

> <Gold.PLP.Fitness>
38.6447

> <Gold.PLP.PLP>
-28.2892

> <Gold.PLP.part.hbond>
-3.3308

> <Gold.PLP.part.metal>
0.0000

> <Gold.PLP.part.buried>
-2.0428

> <Gold.PLP.part.nonpolar>
-23.7999

> <Gold.PLP.part.repulsive>
0.4920

> <Gold.PLP.ligand.clash>
0.0000

> <Gold.PLP.ligand.torsion>
0.6442

> <Gold.PLP.Chemscore.Hbond>
3.8415

> <Gold.PLP.Chemscore.CHOScore>
0.0000

> <Gold.PLP.Chemscore.Metal>
0.0000

> <Gold.Chemscore.Hbonds>
donor molecule, donor type, donor heavy atom, donor atom, acceptor molecule, acceptor atom, score
      L1  H     6    44       P1  7948  1.98
      L1  H    10    36       P1  7948  1.00
      L1  H    13    37       P1  7948  0.86

> <Gold.PLP.Chemscore.Internal.Correction>
0.1194

> <Gold.Rescore>
     Score         DG    S(hbond)    S(metal)    S(lipo)     H(rot)  DE(clash)    DE(int)     intcor
     17.56     -18.31       2.60        0.00      74.72       1.79       0.19       0.56       ----

> <Gold.Chemscore.Fitness>
17.5560

> <Gold.Chemscore.DG>
-18.3068

> <Gold.Chemscore.ZeroCoef>
-5.4800

> <Gold.Chemscore.Hbond>
2.5978

> <Gold.Chemscore.Metal>
0.0000

> <Gold.Chemscore.Lipo>
74.7194

> <Gold.Chemscore.Internal_Hbond>
0.0000

> <Gold.Chemscore.DEClash>
0.1865

> <Gold.Chemscore.DEInternal>
0.5643

> <Gold.Chemscore.Rot>
1.7937

> <Gold.Chemscore.Internal.Correction>
   9.000000E+99

> <Gold.Chemscore.Hbonds>
donor molecule, donor type, donor heavy atom, donor atom, acceptor molecule, acceptor atom, score
      L1  H     6    44       P1  7948  0.92
      L1  H    10    36       P1  7948  0.98
      L1  H    13    37       P1  7948  0.60

> <Gold.Chemscore.Hbond.Weighted>
-8.6766

> <Gold.Chemscore.Metal.Weighted>
-0.0000

> <Gold.Chemscore.Lipo.Weighted>
-8.7422

> <Gold.Chemscore.Internal_Hbond.Weighted>
0.0000

> <Gold.Chemscore.DEClash.Weighted>
0.1865

> <Gold.Chemscore.DEInternal.Weighted>
0.5643

> <Gold.Chemscore.Rot.Weighted>
4.5919

> <Gold.Chemscore.Internal.Correction.Weighted>
   9.000000E+99

> <Gold.Protein.RotatedTorsions>
[ 6907 6896 6895 6894 ] final -121.12 input  -60.11 | X-H torsion
[ 7974 7965 7964 7962 ] final  105.01 input  175.53 | X-H torsion
[ 8008 7997 7996 7995 ] final   49.42 input   59.86 | X-H torsion
[ 10167 10162 10161 10158 ] final  -46.82 input  -65.29 | X-H torsion
[ 10718 10713 10712 10709 ] final  -33.36 input   66.30 | X-H torsion
[ 10763 10752 10751 10750 ] final   19.89 input  -60.55 | X-H torsion
[ 11005 11000 10999 10996 ] final -154.95 input  -57.11 | X-H torsion

> <Gold.Protein.ActiveResidues>
 VAL166  LYS551  ARG553  GLY616  TRP617  ASP618  TYR619  PRO620  LYS621  CYS622 
 ASP623  PHE694  ASN695  SER759  ASP760  ASP761  ALA762  ILE779  LEU786  VAL792 
 PHE793  MET794  SER795  GLU796  ALA797  LYS798  CYS799  TRP800  GLU811  SER814 

> <Gold.Protein.RotatedAtoms>
  150.8454  133.7869  159.3044 H   0  0  0  0  0  0  0  0  0  0  0  0  # atno 6907 bound_to 6896
  151.5557  135.1065  159.9970 H   0  0  0  0  0  0  0  0  0  0  0  0  # atno 6908 bound_to 6896
  152.4509  133.7585  159.6789 H   0  0  0  0  0  0  0  0  0  0  0  0  # atno 6909 bound_to 6896
  145.3253  139.2501  143.3690 H   0  0  0  0  0  0  0  0  0  0  0  0  # atno 7974 bound_to 7965
  155.4019  140.3438  155.4257 H   0  0  0  0  0  0  0  0  0  0  0  0  # atno 8008 bound_to 7997
  156.1498  140.1567  156.8820 H   0  0  0  0  0  0  0  0  0  0  0  0  # atno 8009 bound_to 7997
  154.5043  140.0806  156.7842 H   0  0  0  0  0  0  0  0  0  0  0  0  # atno 8010 bound_to 7997
  140.6801  143.2813  151.3837 H   0  0  0  0  0  0  0  0  0  0  0  0  # atno 10167 bound_to 10162
  156.3636  130.4328  149.7603 H   0  0  0  0  0  0  0  0  0  0  0  0  # atno 10718 bound_to 10713
  153.1124  135.6700  153.9477 H   0  0  0  0  0  0  0  0  0  0  0  0  # atno 10763 bound_to 10752
  153.9017  135.3035  155.3450 H   0  0  0  0  0  0  0  0  0  0  0  0  # atno 10764 bound_to 10752
  154.7543  135.5019  153.9423 H   0  0  0  0  0  0  0  0  0  0  0  0  # atno 10765 bound_to 10752
  140.6918  134.4033  157.5218 H   0  0  0  0  0  0  0  0  0  0  0  0  # atno 11005 bound_to 11000
  146.3067  140.3819  142.8685 LP  0  0  0  0  0  0  0  0  0  0  0  0  # atno 17320 bound_to 7965
  144.8907  140.7520  143.5928 LP  0  0  0  0  0  0  0  0  0  0  0  0  # atno 17321 bound_to 7965
  139.6118  144.1082  152.2307 LP  0  0  0  0  0  0  0  0  0  0  0  0  # atno 17342 bound_to 10162
  140.0499  144.5941  150.7344 LP  0  0  0  0  0  0  0  0  0  0  0  0  # atno 17343 bound_to 10162
  156.4758  130.8018  151.3034 LP  0  0  0  0  0  0  0  0  0  0  0  0  # atno 17370 bound_to 10713
  157.7476  131.0021  150.2989 LP  0  0  0  0  0  0  0  0  0  0  0  0  # atno 17371 bound_to 10713
  139.8921  134.8762  156.2286 LP  0  0  0  0  0  0  0  0  0  0  0  0  # atno 17394 bound_to 11000
  141.0235  133.7028  156.1309 LP  0  0  0  0  0  0  0  0  0  0  0  0  # atno 17395 bound_to 11000

$$$$
