AV-unprocessed.smi:1965|AV-procd|sdf|7936|dock9
  -GOLD-   2272010103D 1   1.00000     0.00000
 Structure written by MMmdl.
 37 39  0  0  0  0  0  0  0  0  2 V2000
  144.8601  136.9004  152.9116 O   0  0  0  0  0  0  0  0  0  0  0  0
  146.0136  136.7459  152.5149 C   0  0  0  0  0  0  0  0  0  0  0  0
  146.3655  135.6590  151.7964 N   0  0  0  0  0  0  0  0  0  0  0  0
  145.6028  134.5392  151.3549 C   0  0  0  0  0  0  0  0  0  0  0  0
  144.2648  134.4737  151.3476 N   0  0  0  0  0  0  0  0  0  0  0  0
  143.7989  133.2599  150.8355 C   0  0  0  0  0  0  0  0  0  0  0  0
  144.8019  132.4083  150.4454 C   0  0  0  0  0  0  0  0  0  0  0  0
  146.3799  133.1020  150.7057 S   0  0  0  0  0  0  0  0  0  0  0  0
  146.9929  137.6314  152.7640 N   0  0  0  0  0  0  0  0  0  0  0  0
  146.8625  138.8489  153.5612 C   0  0  2  0  0  0  0  0  0  0  0  0
  146.7418  140.1196  152.6975 C   0  0  0  0  0  0  0  0  0  0  0  0
  147.6283  141.1532  153.3996 C   0  0  0  0  0  0  0  0  0  0  0  0
  148.7018  140.3316  153.9700 N   0  3  1  0  0  0  0  0  0  0  0  0
  149.6291  140.9531  154.9370 C   0  0  0  0  0  0  0  0  0  0  0  0
  150.7608  139.9485  155.2431 C   0  0  0  0  0  0  0  0  0  0  0  0
  150.2175  138.5678  155.6760 C   0  0  0  0  0  0  0  0  0  0  0  0
  149.1575  138.0335  154.6888 C   0  0  0  0  0  0  0  0  0  0  0  0
  148.0715  139.1065  154.4908 C   0  0  2  0  0  0  0  0  0  0  0  0
  147.3149  135.6747  151.4522 H   0  0  0  0  0  0  0  0  0  0  0  0
  142.7343  133.0856  150.7829 H   0  0  0  0  0  0  0  0  0  0  0  0
  144.7082  131.4202  150.0196 H   0  0  0  0  0  0  0  0  0  0  0  0
  147.9099  137.4249  152.3938 H   0  0  0  0  0  0  0  0  0  0  0  0
  145.9649  138.7784  154.1786 H   0  0  0  0  0  0  0  0  0  0  0  0
  147.1308  139.9354  151.6947 H   0  0  0  0  0  0  0  0  0  0  0  0
  145.7112  140.4594  152.5917 H   0  0  0  0  0  0  0  0  0  0  0  0
  148.0129  141.9126  152.7180 H   0  0  0  0  0  0  0  0  0  0  0  0
  147.0788  141.6503  154.2003 H   0  0  0  0  0  0  0  0  0  0  0  0
  150.0433  141.8689  154.5141 H   0  0  0  0  0  0  0  0  0  0  0  0
  149.0947  141.2280  155.8476 H   0  0  0  0  0  0  0  0  0  0  0  0
  151.3759  139.8225  154.3509 H   0  0  0  0  0  0  0  0  0  0  0  0
  151.4195  140.3501  156.0139 H   0  0  0  0  0  0  0  0  0  0  0  0
  151.0374  137.8549  155.7674 H   0  0  0  0  0  0  0  0  0  0  0  0
  149.7732  138.6531  156.6684 H   0  0  0  0  0  0  0  0  0  0  0  0
  149.6263  137.7854  153.7354 H   0  0  0  0  0  0  0  0  0  0  0  0
  148.7209  137.1134  155.0780 H   0  0  0  0  0  0  0  0  0  0  0  0
  147.6555  139.3451  155.4723 H   0  0  0  0  0  0  0  0  0  0  0  0
  149.2631  140.0415  153.1819 H   0  0  0  0  0  0  0  0  0  0  0  0
  1  2  2  0  0  0  0
  2  3  1  0  0  0  0
  2  9  1  0  0  0  0
  3  4  1  0  0  0  0
  3 19  1  0  0  0  0
  4  8  1  0  0  0  0
  4  5  2  0  0  0  0
  5  6  1  0  0  0  0
  6  7  2  0  0  0  0
  6 20  1  0  0  0  0
  7  8  1  0  0  0  0
  7 21  1  0  0  0  0
  9 10  1  0  0  0  0
  9 22  1  0  0  0  0
 10 18  1  0  0  0  0
 10 11  1  0  0  0  0
 10 23  1  0  0  0  0
 11 12  1  0  0  0  0
 11 24  1  0  0  0  0
 11 25  1  0  0  0  0
 12 13  1  0  0  0  0
 12 26  1  0  0  0  0
 12 27  1  0  0  0  0
 13 18  1  0  0  0  0
 13 14  1  0  0  0  0
 13 37  1  0  0  0  0
 14 15  1  0  0  0  0
 14 28  1  0  0  0  0
 14 29  1  0  0  0  0
 15 16  1  0  0  0  0
 15 30  1  0  0  0  0
 15 31  1  0  0  0  0
 16 17  1  0  0  0  0
 16 32  1  0  0  0  0
 16 33  1  0  0  0  0
 17 18  1  0  0  0  0
 17 34  1  0  0  0  0
 17 35  1  0  0  0  0
 18 36  1  0  0  0  0
M  CHG  1  13   1
M  END
> <s_m_source_file>
AV-unprocessed.smi

> <i_m_source_file_index>
1965

> <i_lp_mmshare_version>
43012

> <i_f3d_flags>
0

> <s_epik_input>
czFbY0hdW2NIXW5jMVtOSF1DKD1PKVtOSF1bQ0BIXShbQ0gyXVtDSDJdMilbQ0BASF0oTjIzKVtDSDJdW0NIMl1bQ0gyXVtDSDJdMw==

> <s_epik_cmdline>
J2VwaWtfcHl0aG9uJywgJy1waCcsICc3LjAnLCAnLXRuJywgJzgnLCAnLW1hJywgJzIwMCcsICctbWV0YWxfYmluZGluZycsICctaW1hZScsICc8aW5maWxlLm1hZT4nLCAnLW9tYWUnLCAnPG91dGZpbGUubWFlPic=

> <r_lp_tautomer_probability>
1

> <r_epik_Ionization_Penalty>
0.00125962

> <r_epik_Ionization_Penalty_Charging>
0.00107044

> <r_epik_Ionization_Penalty_Neutral>
0.000189176

> <r_epik_State_Penalty>
-0

> <r_epik_Charging_Adjusted_Penalty>
0.00107044

> <i_epik_Tot_Q>
1

> <i_epik_Tot_abs_Q>
1

> <r_epik_Metal_State_Penalty>
0.0179285

> <b_epik_Metal_Only>
0

> <s_lp_Force_Field>
OPLS_2005

> <r_lp_Energy>
42.3256

> <b_lp_Chiralities_Consistent>
1

> <s_lp_Variant>
AV-unprocessed.smi:1965-5

> <Gold.Version>
5.8.1

> <Gold.Id.Protein>
6NUR|6NUR_protein|mol2

> <Gold.PLP.Fitness>
38.1712

> <Gold.PLP.PLP>
-27.3474

> <Gold.PLP.part.hbond>
-3.0000

> <Gold.PLP.part.metal>
0.0000

> <Gold.PLP.part.buried>
-0.4361

> <Gold.PLP.part.nonpolar>
-24.4678

> <Gold.PLP.part.repulsive>
0.5773

> <Gold.PLP.ligand.clash>
0.0000

> <Gold.PLP.ligand.torsion>
0.2924

> <Gold.PLP.Chemscore.Hbond>
2.8075

> <Gold.PLP.Chemscore.CHOScore>
0.9951

> <Gold.PLP.Chemscore.Metal>
0.0000

> <Gold.Chemscore.Hbonds>
donor molecule, donor type, donor heavy atom, donor atom, acceptor molecule, acceptor atom, score
      L1  H     3    19       P1  7948  0.90
      L1  H     9    22       P1  7948  0.94
      L1  H    13    37       P1  7957  0.93
      L1  C     6    20       P1 10186  0.97

> <Gold.PLP.Chemscore.Internal.Correction>
0.0009

> <Gold.Rescore>
     Score         DG    S(hbond)    S(metal)    S(lipo)     H(rot)  DE(clash)    DE(int)     intcor
     18.56     -20.57       2.71        0.00      73.37       1.00       0.55       1.46       ----

> <Gold.Chemscore.Fitness>
18.5643

> <Gold.Chemscore.DG>
-20.5690

> <Gold.Chemscore.ZeroCoef>
-5.4800

> <Gold.Chemscore.Hbond>
2.7140

> <Gold.Chemscore.Metal>
0.0000

> <Gold.Chemscore.Lipo>
73.3694

> <Gold.Chemscore.Internal_Hbond>
0.0000

> <Gold.Chemscore.DEClash>
0.5469

> <Gold.Chemscore.DEInternal>
1.4578

> <Gold.Chemscore.Rot>
1.0000

> <Gold.Chemscore.Internal.Correction>
   9.000000E+99

> <Gold.Chemscore.Hbonds>
donor molecule, donor type, donor heavy atom, donor atom, acceptor molecule, acceptor atom, score
      L1  H     3    19       P1  7948  0.87
      L1  H     9    22       P1  7948  0.91
      L1  H    13    37       P1  7957  0.85

> <Gold.Chemscore.Hbond.Weighted>
-9.0648

> <Gold.Chemscore.Metal.Weighted>
-0.0000

> <Gold.Chemscore.Lipo.Weighted>
-8.5842

> <Gold.Chemscore.Internal_Hbond.Weighted>
0.0000

> <Gold.Chemscore.DEClash.Weighted>
0.5469

> <Gold.Chemscore.DEInternal.Weighted>
1.4578

> <Gold.Chemscore.Rot.Weighted>
2.5600

> <Gold.Chemscore.Internal.Correction.Weighted>
   9.000000E+99

> <Gold.Protein.RotatedTorsions>
[ 6907 6896 6895 6894 ] final  -53.91 input  -60.11 | X-H torsion
[ 7974 7965 7964 7962 ] final   47.39 input  175.53 | X-H torsion
[ 8008 7997 7996 7995 ] final -143.63 input   59.86 | X-H torsion
[ 10167 10162 10161 10158 ] final  -89.31 input  -65.29 | X-H torsion
[ 10718 10713 10712 10709 ] final  -82.01 input   66.30 | X-H torsion
[ 10763 10752 10751 10750 ] final  -44.29 input  -60.55 | X-H torsion
[ 11005 11000 10999 10996 ] final  -94.41 input  -57.11 | X-H torsion

> <Gold.Protein.ActiveResidues>
 VAL166  LYS551  ARG553  GLY616  TRP617  ASP618  TYR619  PRO620  LYS621  CYS622 
 ASP623  PHE694  ASN695  SER759  ASP760  ASP761  ALA762  ILE779  LEU786  VAL792 
 PHE793  MET794  SER795  GLU796  ALA797  LYS798  CYS799  TRP800  GLU811  SER814 

> <Gold.Protein.RotatedAtoms>
  150.8384  134.7667  159.6911 H   0  0  0  0  0  0  0  0  0  0  0  0  # atno 6907 bound_to 6896
  152.4477  134.5457  159.9862 H   0  0  0  0  0  0  0  0  0  0  0  0  # atno 6908 bound_to 6896
  151.5603  133.3366  159.3005 H   0  0  0  0  0  0  0  0  0  0  0  0  # atno 6909 bound_to 6896
  146.0302  139.4755  142.9842 H   0  0  0  0  0  0  0  0  0  0  0  0  # atno 7974 bound_to 7965
  155.5137  140.0585  157.2919 H   0  0  0  0  0  0  0  0  0  0  0  0  # atno 8008 bound_to 7997
  154.4542  140.1964  156.0375 H   0  0  0  0  0  0  0  0  0  0  0  0  # atno 8009 bound_to 7997
  156.0766  140.3253  155.7646 H   0  0  0  0  0  0  0  0  0  0  0  0  # atno 8010 bound_to 7997
  140.3661  143.2817  151.9556 H   0  0  0  0  0  0  0  0  0  0  0  0  # atno 10167 bound_to 10162
  156.0040  130.4621  150.4039 H   0  0  0  0  0  0  0  0  0  0  0  0  # atno 10718 bound_to 10713
  154.0097  135.6683  153.4764 H   0  0  0  0  0  0  0  0  0  0  0  0  # atno 10763 bound_to 10752
  153.0626  135.5019  154.8124 H   0  0  0  0  0  0  0  0  0  0  0  0  # atno 10764 bound_to 10752
  154.7003  135.3077  154.9315 H   0  0  0  0  0  0  0  0  0  0  0  0  # atno 10765 bound_to 10752
  141.1471  133.7954  157.0295 H   0  0  0  0  0  0  0  0  0  0  0  0  # atno 11005 bound_to 11000
  145.7052  141.0123  143.1483 LP  0  0  0  0  0  0  0  0  0  0  0  0  # atno 17320 bound_to 7965
  144.7027  139.8692  143.7439 LP  0  0  0  0  0  0  0  0  0  0  0  0  # atno 17321 bound_to 7965
  139.4808  144.5949  151.7707 LP  0  0  0  0  0  0  0  0  0  0  0  0  # atno 17342 bound_to 10162
  140.5079  144.1069  150.5987 LP  0  0  0  0  0  0  0  0  0  0  0  0  # atno 17343 bound_to 10162
  157.2107  131.0459  151.2601 LP  0  0  0  0  0  0  0  0  0  0  0  0  # atno 17370 bound_to 10713
  157.3892  130.7272  149.6685 LP  0  0  0  0  0  0  0  0  0  0  0  0  # atno 17371 bound_to 10713
  140.0763  134.9673  157.1551 LP  0  0  0  0  0  0  0  0  0  0  0  0  # atno 17394 bound_to 11000
  140.3639  134.2464  155.7184 LP  0  0  0  0  0  0  0  0  0  0  0  0  # atno 17395 bound_to 11000

$$$$
