AV-unprocessed.smi:2928|AV-procd|sdf|11238|dock7
  -GOLD-   2272016133D 1   1.00000     0.00000
 Structure written by MMmdl.
 56 59  0  0  0  0  0  0  0  0  3 V2000
  151.2077  141.2159  156.4869 C   0  0  0  0  0  0  0  0  0  0  0  0
  150.0035  140.3612  156.3585 N   0  3  2  0  0  0  0  0  0  0  0  0
  150.0818  139.0637  157.0709 C   0  0  1  0  0  0  0  0  0  0  0  0
  148.6568  138.4834  157.2213 C   0  0  0  0  0  0  0  0  0  0  0  0
  147.8783  138.3873  155.8954 C   0  0  0  0  0  0  0  0  0  0  0  0
  148.0780  139.6270  155.0019 C   0  0  0  0  0  0  0  0  0  0  0  0
  149.5327  140.1509  154.9689 C   0  0  2  0  0  0  0  0  0  0  0  0
  150.5279  139.2834  154.1573 C   0  0  0  0  0  0  0  0  0  0  0  0
  151.0416  138.0033  154.8622 C   0  0  2  0  0  0  0  0  0  0  0  0
  150.3251  136.8151  154.4035 N   0  0  0  0  0  0  0  0  0  0  0  0
  150.4815  135.5714  154.8802 C   0  0  0  0  0  0  0  0  0  0  0  0
  151.2734  135.2806  155.7762 O   0  0  0  0  0  0  0  0  0  0  0  0
  149.6498  134.7103  154.2713 N   0  0  0  0  0  0  0  0  0  0  0  0
  149.4587  133.3270  154.5493 C   0  0  0  0  0  0  0  0  0  0  0  0
  150.3843  132.5624  155.3044 C   0  0  0  0  0  0  0  0  0  0  0  0
  150.1411  131.1924  155.5267 C   0  0  0  0  0  0  0  0  0  0  0  0
  148.9843  130.6046  154.9825 C   0  0  0  0  0  0  0  0  0  0  0  0
  148.1316  131.3558  154.2546 N   0  3  0  0  0  0  0  0  0  0  0  0
  148.3186  132.6764  154.0125 C   0  0  0  0  0  0  0  0  0  0  0  0
  147.3686  133.3689  153.2422 N   0  0  0  0  0  0  0  0  0  0  0  0
  147.2508  132.9353  151.8602 C   0  0  0  0  0  0  0  0  0  0  0  0
  145.9355  133.5347  151.3557 C   0  0  0  0  0  0  0  0  0  0  0  0
  145.1230  133.8281  152.6232 C   0  0  0  0  0  0  0  0  0  0  0  0
  146.0182  133.3736  153.7788 C   0  0  0  0  0  0  0  0  0  0  0  0
  151.1116  138.1136  156.4098 C   0  0  0  0  0  0  0  0  0  0  0  0
  152.0871  140.7629  156.0296 H   0  0  0  0  0  0  0  0  0  0  0  0
  151.4314  141.4007  157.5377 H   0  0  0  0  0  0  0  0  0  0  0  0
  151.0402  142.1825  156.0111 H   0  0  0  0  0  0  0  0  0  0  0  0
  150.4354  139.2642  158.0834 H   0  0  0  0  0  0  0  0  0  0  0  0
  148.6915  137.5075  157.7066 H   0  0  0  0  0  0  0  0  0  0  0  0
  148.0963  139.1309  157.8970 H   0  0  0  0  0  0  0  0  0  0  0  0
  148.1553  137.4855  155.3605 H   0  0  0  0  0  0  0  0  0  0  0  0
  146.8160  138.2602  156.1069 H   0  0  0  0  0  0  0  0  0  0  0  0
  147.7228  139.4221  153.9915 H   0  0  0  0  0  0  0  0  0  0  0  0
  147.4399  140.4249  155.3845 H   0  0  0  0  0  0  0  0  0  0  0  0
  149.4912  141.1277  154.4841 H   0  0  0  0  0  0  0  0  0  0  0  0
  150.1091  139.0445  153.1787 H   0  0  0  0  0  0  0  0  0  0  0  0
  151.3967  139.9047  153.9370 H   0  0  0  0  0  0  0  0  0  0  0  0
  152.0651  137.8593  154.5100 H   0  0  0  0  0  0  0  0  0  0  0  0
  149.6496  136.9546  153.6662 H   0  0  0  0  0  0  0  0  0  0  0  0
  149.0032  135.1118  153.6081 H   0  0  0  0  0  0  0  0  0  0  0  0
  151.2852  132.9997  155.7069 H   0  0  0  0  0  0  0  0  0  0  0  0
  150.8369  130.5999  156.1028 H   0  0  0  0  0  0  0  0  0  0  0  0
  148.7199  129.5637  155.1005 H   0  0  0  0  0  0  0  0  0  0  0  0
  148.1008  133.2760  151.2680 H   0  0  0  0  0  0  0  0  0  0  0  0
  147.2133  131.8468  151.8012 H   0  0  0  0  0  0  0  0  0  0  0  0
  146.1237  134.4617  150.8128 H   0  0  0  0  0  0  0  0  0  0  0  0
  145.4184  132.8530  150.6797 H   0  0  0  0  0  0  0  0  0  0  0  0
  144.9229  134.8979  152.6966 H   0  0  0  0  0  0  0  0  0  0  0  0
  144.1637  133.3097  152.6310 H   0  0  0  0  0  0  0  0  0  0  0  0
  145.7313  132.3724  154.1036 H   0  0  0  0  0  0  0  0  0  0  0  0
  145.9375  134.0420  154.6367 H   0  0  0  0  0  0  0  0  0  0  0  0
  152.1059  138.4841  156.6619 H   0  0  0  0  0  0  0  0  0  0  0  0
  151.0633  137.1305  156.8790 H   0  0  0  0  0  0  0  0  0  0  0  0
  149.2699  140.8811  156.8190 H   0  0  0  0  0  0  0  0  0  0  0  0
  147.3029  130.9048  153.8665 H   0  0  0  0  0  0  0  0  0  0  0  0
  1  2  1  0  0  0  0
  1 26  1  0  0  0  0
  1 27  1  0  0  0  0
  1 28  1  0  0  0  0
  2  7  1  0  0  0  0
  2  3  1  0  0  0  0
  2 55  1  0  0  0  0
  3 25  1  0  0  0  0
  3  4  1  0  0  0  0
  3 29  1  0  0  0  0
  4  5  1  0  0  0  0
  4 30  1  0  0  0  0
  4 31  1  0  0  0  0
  5  6  1  0  0  0  0
  5 32  1  0  0  0  0
  5 33  1  0  0  0  0
  6  7  1  0  0  0  0
  6 34  1  0  0  0  0
  6 35  1  0  0  0  0
  7  8  1  0  0  0  0
  7 36  1  0  0  0  0
  8  9  1  0  0  0  0
  8 37  1  0  0  0  0
  8 38  1  0  0  0  0
  9 10  1  0  0  0  0
  9 25  1  0  0  0  0
  9 39  1  0  0  0  0
 10 11  1  0  0  0  0
 10 40  1  0  0  0  0
 11 12  2  0  0  0  0
 11 13  1  0  0  0  0
 13 14  1  0  0  0  0
 13 41  1  0  0  0  0
 14 19  1  0  0  0  0
 14 15  2  0  0  0  0
 15 16  1  0  0  0  0
 15 42  1  0  0  0  0
 16 17  2  0  0  0  0
 16 43  1  0  0  0  0
 17 18  1  0  0  0  0
 17 44  1  0  0  0  0
 18 19  2  0  0  0  0
 18 56  1  0  0  0  0
 19 20  1  0  0  0  0
 20 24  1  0  0  0  0
 20 21  1  0  0  0  0
 21 22  1  0  0  0  0
 21 45  1  0  0  0  0
 21 46  1  0  0  0  0
 22 23  1  0  0  0  0
 22 47  1  0  0  0  0
 22 48  1  0  0  0  0
 23 24  1  0  0  0  0
 23 49  1  0  0  0  0
 23 50  1  0  0  0  0
 24 51  1  0  0  0  0
 24 52  1  0  0  0  0
 25 53  1  0  0  0  0
 25 54  1  0  0  0  0
M  CHG  1   2   1
M  CHG  1  18   1
M  END
> <s_m_source_file>
AV-unprocessed.smi

> <i_m_source_file_index>
2928

> <i_lp_mmshare_version>
43012

> <i_f3d_flags>
0

> <s_epik_input>
W0NIMl0xW0NIMl1bQ0gyXVtDQEhdKE4oW0NIM10pW0NIXTEyKVtDSDJdW0NASF0oW0NIMl0yKVtOSF1DKD1PKVtOSF1jM1tjSF1bY0hdW2NIXW5jM040W0NIMl1bQ0gyXVtDSDJdW0NIMl00

> <s_epik_cmdline>
J2VwaWtfcHl0aG9uJywgJy1waCcsICc3LjAnLCAnLXRuJywgJzgnLCAnLW1hJywgJzIwMCcsICctbWV0YWxfYmluZGluZycsICctaW1hZScsICc8aW5maWxlLm1hZT4nLCAnLW9tYWUnLCAnPG91dGZpbGUubWFlPic=

> <r_lp_tautomer_probability>
0.999994

> <r_epik_Ionization_Penalty>
1.2404

> <r_epik_Ionization_Penalty_Charging>
1.24038

> <r_epik_Ionization_Penalty_Neutral>
1.86539e-05

> <r_epik_State_Penalty>
1.30821

> <r_epik_Charging_Adjusted_Penalty>
2.54859

> <i_epik_Tot_Q>
2

> <i_epik_Tot_abs_Q>
2

> <r_epik_Metal_State_Penalty>
1.3782

> <b_epik_Metal_Only>
0

> <s_lp_Force_Field>
OPLS_2005

> <r_lp_Energy>
76.0972

> <b_lp_Chiralities_Consistent>
1

> <s_lp_Variant>
AV-unprocessed.smi:2928-8

> <Gold.Version>
5.8.1

> <Gold.Id.Protein>
6NUR|6NUR_protein|mol2

> <Gold.PLP.Fitness>
39.9015

> <Gold.PLP.PLP>
-31.6568

> <Gold.PLP.part.hbond>
-3.8993

> <Gold.PLP.part.metal>
0.0000

> <Gold.PLP.part.buried>
-0.9948

> <Gold.PLP.part.nonpolar>
-27.2895

> <Gold.PLP.part.repulsive>
0.3481

> <Gold.PLP.ligand.clash>
0.0000

> <Gold.PLP.ligand.torsion>
0.1756

> <Gold.PLP.Chemscore.Hbond>
2.8400

> <Gold.PLP.Chemscore.CHOScore>
0.0000

> <Gold.PLP.Chemscore.Metal>
0.0000

> <Gold.Chemscore.Hbonds>
donor molecule, donor type, donor heavy atom, donor atom, acceptor molecule, acceptor atom, score
      L1  H    10    40       P1  7948  0.86
      L1  H    13    41       P1  7948  0.78
      P1  H 10752 10765       L1    12  1.00

> <Gold.PLP.Chemscore.Internal.Correction>
0.0759

> <Gold.Rescore>
     Score         DG    S(hbond)    S(metal)    S(lipo)     H(rot)  DE(clash)    DE(int)     intcor
     14.33     -18.18       1.97        0.00      78.44       1.19       1.15       2.71       ----

> <Gold.Chemscore.Fitness>
14.3265

> <Gold.Chemscore.DG>
-18.1831

> <Gold.Chemscore.ZeroCoef>
-5.4800

> <Gold.Chemscore.Hbond>
1.9659

> <Gold.Chemscore.Metal>
0.0000

> <Gold.Chemscore.Lipo>
78.4449

> <Gold.Chemscore.Internal_Hbond>
0.0000

> <Gold.Chemscore.DEClash>
1.1496

> <Gold.Chemscore.DEInternal>
2.7071

> <Gold.Chemscore.Rot>
1.1879

> <Gold.Chemscore.Internal.Correction>
   9.000000E+99

> <Gold.Chemscore.Hbonds>
donor molecule, donor type, donor heavy atom, donor atom, acceptor molecule, acceptor atom, score
      L1  H    10    40       P1  7948  0.59
      L1  H    13    41       P1  7948  0.32
      P1  H 10752 10765       L1    12  0.33

> <Gold.Chemscore.Hbond.Weighted>
-6.5661

> <Gold.Chemscore.Metal.Weighted>
-0.0000

> <Gold.Chemscore.Lipo.Weighted>
-9.1781

> <Gold.Chemscore.Internal_Hbond.Weighted>
0.0000

> <Gold.Chemscore.DEClash.Weighted>
1.1496

> <Gold.Chemscore.DEInternal.Weighted>
2.7071

> <Gold.Chemscore.Rot.Weighted>
3.0410

> <Gold.Chemscore.Internal.Correction.Weighted>
   9.000000E+99

> <Gold.Protein.RotatedTorsions>
[ 6907 6896 6895 6894 ] final   49.02 input  -60.11 | X-H torsion
[ 7974 7965 7964 7962 ] final -122.10 input  175.53 | X-H torsion
[ 8008 7997 7996 7995 ] final  -70.64 input   59.86 | X-H torsion
[ 10167 10162 10161 10158 ] final   79.60 input  -65.29 | X-H torsion
[ 10718 10713 10712 10709 ] final  -12.40 input   66.30 | X-H torsion
[ 10763 10752 10751 10750 ] final -163.44 input  -60.55 | X-H torsion
[ 11005 11000 10999 10996 ] final  -47.76 input  -57.11 | X-H torsion

> <Gold.Protein.ActiveResidues>
 VAL166  LYS551  ARG553  GLY616  TRP617  ASP618  TYR619  PRO620  LYS621  CYS622 
 ASP623  PHE694  ASN695  SER759  ASP760  ASP761  ALA762  ILE779  LEU786  VAL792 
 PHE793  MET794  SER795  GLU796  ALA797  LYS798  CYS799  TRP800  GLU811  SER814 

> <Gold.Protein.RotatedAtoms>
  152.2861  134.7774  160.0386 H   0  0  0  0  0  0  0  0  0  0  0  0  # atno 6907 bound_to 6896
  151.8336  133.3407  159.3629 H   0  0  0  0  0  0  0  0  0  0  0  0  # atno 6908 bound_to 6896
  150.7210  134.5387  159.5781 H   0  0  0  0  0  0  0  0  0  0  0  0  # atno 6909 bound_to 6896
  145.0331  140.8083  143.4312 H   0  0  0  0  0  0  0  0  0  0  0  0  # atno 7974 bound_to 7965
  154.5027  140.0830  156.7831 H   0  0  0  0  0  0  0  0  0  0  0  0  # atno 8008 bound_to 7997
  155.3965  140.3435  155.4236 H   0  0  0  0  0  0  0  0  0  0  0  0  # atno 8009 bound_to 7997
  156.1477  140.1548  156.8808 H   0  0  0  0  0  0  0  0  0  0  0  0  # atno 8010 bound_to 7997
  139.9586  144.5977  150.8094 H   0  0  0  0  0  0  0  0  0  0  0  0  # atno 10167 bound_to 10162
  156.6452  130.4939  149.6081 H   0  0  0  0  0  0  0  0  0  0  0  0  # atno 10718 bound_to 10713
  154.7122  135.3008  154.9179 H   0  0  0  0  0  0  0  0  0  0  0  0  # atno 10763 bound_to 10752
  154.0077  135.6699  153.4767 H   0  0  0  0  0  0  0  0  0  0  0  0  # atno 10764 bound_to 10752
  153.0764  135.5032  154.8328 H   0  0  0  0  0  0  0  0  0  0  0  0  # atno 10765 bound_to 10752
  141.0660  133.6694  156.3343 H   0  0  0  0  0  0  0  0  0  0  0  0  # atno 11005 bound_to 11000
  145.1745  139.2386  143.5324 LP  0  0  0  0  0  0  0  0  0  0  0  0  # atno 17320 bound_to 7965
  146.3501  140.1504  142.8592 LP  0  0  0  0  0  0  0  0  0  0  0  0  # atno 17321 bound_to 7965
  140.7560  143.3058  151.2966 LP  0  0  0  0  0  0  0  0  0  0  0  0  # atno 17342 bound_to 10162
  139.6572  144.0255  152.2668 LP  0  0  0  0  0  0  0  0  0  0  0  0  # atno 17343 bound_to 10162
  156.2128  130.6689  151.1287 LP  0  0  0  0  0  0  0  0  0  0  0  0  # atno 17370 bound_to 10713
  157.7158  131.0710  150.6330 LP  0  0  0  0  0  0  0  0  0  0  0  0  # atno 17371 bound_to 10713
  140.5772  134.5781  157.5471 LP  0  0  0  0  0  0  0  0  0  0  0  0  # atno 17394 bound_to 11000
  139.9477  134.7673  156.0523 LP  0  0  0  0  0  0  0  0  0  0  0  0  # atno 17395 bound_to 11000

$$$$
