AV-unprocessed.smi:1085|AV-procd|sdf|4720|dock1
  -GOLD-   22720 3243D 1   1.00000     0.00000
 Structure written by MMmdl.
 33 34  0  0  0  0  0  0  0  0  1 V2000
  147.3951  142.0348  155.6222 O   0  0  0  0  0  0  0  0  0  0  0  0
  147.4686  141.8388  156.8348 C   0  0  0  0  0  0  0  0  0  0  0  0
  146.1949  141.7206  157.6717 C   0  0  0  0  0  0  0  0  0  0  0  0
  146.3017  142.5122  158.8838 N   0  0  0  0  0  0  0  0  0  0  0  0
  146.5595  143.8092  159.0642 C   0  0  0  0  0  0  0  0  0  0  0  0
  146.5358  144.1384  160.3467 N   0  0  0  0  0  0  0  0  0  0  0  0
  146.2403  142.9395  160.9744 N   0  0  0  0  0  0  0  0  0  0  0  0
  146.1003  141.9710  160.1117 N   0  0  0  0  0  0  0  0  0  0  0  0
  148.6280  141.6981  157.4957 N   0  0  0  0  0  0  0  0  0  0  0  0
  149.9581  141.6631  156.8931 C   0  0  2  0  0  0  0  0  0  0  0  0
  150.6678  140.3242  157.1857 C   0  0  0  0  0  0  0  0  0  0  0  0
  151.0301  140.1799  158.6732 C   0  0  0  0  0  0  0  0  0  0  0  0
  151.8795  141.3664  159.1553 C   0  0  0  0  0  0  0  0  0  0  0  0
  151.1764  142.7165  158.8990 C   0  0  1  0  0  0  0  0  0  0  0  0
  152.0222  143.9104  159.3878 C   0  0  0  0  0  0  0  0  0  0  0  0
  152.4390  143.7165  160.6395 F   0  0  0  0  0  0  0  0  0  0  0  0
  153.0853  144.0688  158.5993 F   0  0  0  0  0  0  0  0  0  0  0  0
  151.3009  145.0305  159.3423 F   0  0  0  0  0  0  0  0  0  0  0  0
  150.8007  142.8487  157.4040 C   0  0  0  0  0  0  0  0  0  0  0  0
  145.3335  142.0545  157.0912 H   0  0  0  0  0  0  0  0  0  0  0  0
  146.0192  140.6796  157.9467 H   0  0  0  0  0  0  0  0  0  0  0  0
  146.7537  144.5069  158.2627 H   0  0  0  0  0  0  0  0  0  0  0  0
  148.5819  141.5473  158.4934 H   0  0  0  0  0  0  0  0  0  0  0  0
  149.8432  141.7714  155.8130 H   0  0  0  0  0  0  0  0  0  0  0  0
  150.0496  139.4834  156.8692 H   0  0  0  0  0  0  0  0  0  0  0  0
  151.5799  140.2664  156.5902 H   0  0  0  0  0  0  0  0  0  0  0  0
  150.1206  140.1104  159.2718 H   0  0  0  0  0  0  0  0  0  0  0  0
  151.5727  139.2477  158.8323 H   0  0  0  0  0  0  0  0  0  0  0  0
  152.0909  141.2493  160.2185 H   0  0  0  0  0  0  0  0  0  0  0  0
  152.8444  141.3502  158.6467 H   0  0  0  0  0  0  0  0  0  0  0  0
  150.2523  142.7211  159.4793 H   0  0  0  0  0  0  0  0  0  0  0  0
  151.7124  142.9147  156.8089 H   0  0  0  0  0  0  0  0  0  0  0  0
  150.2624  143.7816  157.2318 H   0  0  0  0  0  0  0  0  0  0  0  0
  1  2  2  0  0  0  0
  2  3  1  0  0  0  0
  2  9  1  0  0  0  0
  3  4  1  0  0  0  0
  3 20  1  0  0  0  0
  3 21  1  0  0  0  0
  4  8  1  0  0  0  0
  4  5  1  0  0  0  0
  5  6  2  0  0  0  0
  5 22  1  0  0  0  0
  6  7  1  0  0  0  0
  7  8  2  0  0  0  0
  9 10  1  0  0  0  0
  9 23  1  0  0  0  0
 10 19  1  0  0  0  0
 10 11  1  0  0  0  0
 10 24  1  0  0  0  0
 11 12  1  0  0  0  0
 11 25  1  0  0  0  0
 11 26  1  0  0  0  0
 12 13  1  0  0  0  0
 12 27  1  0  0  0  0
 12 28  1  0  0  0  0
 13 14  1  0  0  0  0
 13 29  1  0  0  0  0
 13 30  1  0  0  0  0
 14 15  1  0  0  0  0
 14 19  1  0  0  0  0
 14 31  1  0  0  0  0
 15 16  1  0  0  0  0
 15 17  1  0  0  0  0
 15 18  1  0  0  0  0
 19 32  1  0  0  0  0
 19 33  1  0  0  0  0
M  END
> <s_m_source_file>
AV-unprocessed.smi

> <i_m_source_file_index>
1085

> <i_lp_mmshare_version>
43012

> <i_f3d_flags>
0

> <s_epik_input>
bjFubltjSF1uMVtDSDJdQyg9TylbTkhdW0NAQEhdMltDSDJdW0NIMl1bQ0gyXVtDQEBIXShDKEYpKEYpRilbQ0gyXTI=

> <s_epik_cmdline>
J2VwaWtfcHl0aG9uJywgJy1waCcsICc3LjAnLCAnLXRuJywgJzgnLCAnLW1hJywgJzIwMCcsICctbWV0YWxfYmluZGluZycsICctaW1hZScsICc8aW5maWxlLm1hZT4nLCAnLW9tYWUnLCAnPG91dGZpbGUubWFlPic=

> <r_lp_tautomer_probability>
1

> <r_epik_Ionization_Penalty>
8.41315e-07

> <r_epik_Ionization_Penalty_Charging>
0

> <r_epik_Ionization_Penalty_Neutral>
8.41315e-07

> <r_epik_State_Penalty>
-0

> <r_epik_Charging_Adjusted_Penalty>
0

> <i_epik_Tot_Q>
0

> <i_epik_Tot_abs_Q>
0

> <r_epik_Metal_State_Penalty>
-0

> <b_epik_Metal_Only>
0

> <s_lp_Force_Field>
OPLS_2005

> <r_lp_Energy>
11.1057

> <b_lp_Chiralities_Consistent>
1

> <s_lp_Variant>
AV-unprocessed.smi:1085-1

> <Gold.Version>
5.8.1

> <Gold.Id.Protein>
6NUR|6NUR_protein|mol2

> <Gold.PLP.Fitness>
37.3522

> <Gold.PLP.PLP>
-31.8817

> <Gold.PLP.part.hbond>
-2.0528

> <Gold.PLP.part.metal>
0.0000

> <Gold.PLP.part.buried>
-3.9754

> <Gold.PLP.part.nonpolar>
-26.2206

> <Gold.PLP.part.repulsive>
0.8325

> <Gold.PLP.ligand.clash>
0.0000

> <Gold.PLP.ligand.torsion>
0.2904

> <Gold.PLP.Chemscore.Hbond>
1.0024

> <Gold.PLP.Chemscore.CHOScore>
1.0000

> <Gold.PLP.Chemscore.Metal>
0.0000

> <Gold.Chemscore.Hbonds>
donor molecule, donor type, donor heavy atom, donor atom, acceptor molecule, acceptor atom, score
      P1  H  6933  6944       L1     7  0.08
      P1  H  6934  6946       L1     8  0.93
      L1  C     5    22       P1  8029  1.00

> <Gold.PLP.Chemscore.Internal.Correction>
0.0441

> <Gold.Rescore>
     Score         DG    S(hbond)    S(metal)    S(lipo)     H(rot)  DE(clash)    DE(int)     intcor
      9.76     -10.12       0.97        0.00      56.71       2.05       0.16       0.20       ----

> <Gold.Chemscore.Fitness>
9.7616

> <Gold.Chemscore.DG>
-10.1174

> <Gold.Chemscore.ZeroCoef>
-5.4800

> <Gold.Chemscore.Hbond>
0.9698

> <Gold.Chemscore.Metal>
0.0000

> <Gold.Chemscore.Lipo>
56.7099

> <Gold.Chemscore.Internal_Hbond>
0.0000

> <Gold.Chemscore.DEClash>
0.1562

> <Gold.Chemscore.DEInternal>
0.1996

> <Gold.Chemscore.Rot>
2.0456

> <Gold.Chemscore.Internal.Correction>
   9.000000E+99

> <Gold.Chemscore.Hbonds>
donor molecule, donor type, donor heavy atom, donor atom, acceptor molecule, acceptor atom, score
      P1  H  6934  6946       L1     8  0.35

> <Gold.Chemscore.Hbond.Weighted>
-3.2391

> <Gold.Chemscore.Metal.Weighted>
-0.0000

> <Gold.Chemscore.Lipo.Weighted>
-6.6351

> <Gold.Chemscore.Internal_Hbond.Weighted>
0.0000

> <Gold.Chemscore.DEClash.Weighted>
0.1562

> <Gold.Chemscore.DEInternal.Weighted>
0.1996

> <Gold.Chemscore.Rot.Weighted>
5.2368

> <Gold.Chemscore.Internal.Correction.Weighted>
   9.000000E+99

> <Gold.Protein.RotatedTorsions>
[ 6907 6896 6895 6894 ] final  142.49 input  -60.11 | X-H torsion
[ 7974 7965 7964 7962 ] final   15.14 input  175.53 | X-H torsion
[ 8008 7997 7996 7995 ] final -156.56 input   59.86 | X-H torsion
[ 10167 10162 10161 10158 ] final  -61.60 input  -65.29 | X-H torsion
[ 10718 10713 10712 10709 ] final -125.49 input   66.30 | X-H torsion
[ 10763 10752 10751 10750 ] final -175.02 input  -60.55 | X-H torsion
[ 11005 11000 10999 10996 ] final  -67.17 input  -57.11 | X-H torsion

> <Gold.Protein.ActiveResidues>
 VAL166  LYS551  ARG553  GLY616  TRP617  ASP618  TYR619  PRO620  LYS621  CYS622 
 ASP623  PHE694  ASN695  SER759  ASP760  ASP761  ALA762  ILE779  LEU786  VAL792 
 PHE793  MET794  SER795  GLU796  ALA797  LYS798  CYS799  TRP800  GLU811  SER814 

> <Gold.Protein.RotatedAtoms>
  152.2180  133.4961  159.5146 H   0  0  0  0  0  0  0  0  0  0  0  0  # atno 6907 bound_to 6896
  150.7006  134.1380  159.4103 H   0  0  0  0  0  0  0  0  0  0  0  0  # atno 6908 bound_to 6896
  151.9300  135.0260  160.0579 H   0  0  0  0  0  0  0  0  0  0  0  0  # atno 6909 bound_to 6896
  146.2286  139.8938  142.8550 H   0  0  0  0  0  0  0  0  0  0  0  0  # atno 7974 bound_to 7965
  155.7190  140.0787  157.2339 H   0  0  0  0  0  0  0  0  0  0  0  0  # atno 8008 bound_to 7997
  154.4048  140.1616  156.2435 H   0  0  0  0  0  0  0  0  0  0  0  0  # atno 8009 bound_to 7997
  155.9213  140.3397  155.6178 H   0  0  0  0  0  0  0  0  0  0  0  0  # atno 8010 bound_to 7997
  140.5995  143.2358  151.5961 H   0  0  0  0  0  0  0  0  0  0  0  0  # atno 10167 bound_to 10162
  156.1680  130.6648  151.0141 H   0  0  0  0  0  0  0  0  0  0  0  0  # atno 10718 bound_to 10713
  154.5894  135.2843  155.0651 H   0  0  0  0  0  0  0  0  0  0  0  0  # atno 10763 bound_to 10752
  154.1958  135.6433  153.5076 H   0  0  0  0  0  0  0  0  0  0  0  0  # atno 10764 bound_to 10752
  153.0116  135.5457  154.6574 H   0  0  0  0  0  0  0  0  0  0  0  0  # atno 10765 bound_to 10752
  141.1501  133.6713  156.6251 H   0  0  0  0  0  0  0  0  0  0  0  0  # atno 11005 bound_to 11000
  145.2391  141.0002  143.3946 LP  0  0  0  0  0  0  0  0  0  0  0  0  # atno 17320 bound_to 7965
  144.9467  139.4128  143.6422 LP  0  0  0  0  0  0  0  0  0  0  0  0  # atno 17321 bound_to 7965
  139.5281  144.2998  152.1083 LP  0  0  0  0  0  0  0  0  0  0  0  0  # atno 17342 bound_to 10162
  140.2176  144.4499  150.6356 LP  0  0  0  0  0  0  0  0  0  0  0  0  # atno 17343 bound_to 10162
  157.6782  131.0845  150.7440 LP  0  0  0  0  0  0  0  0  0  0  0  0  # atno 17370 bound_to 10713
  156.7500  130.4765  149.5459 LP  0  0  0  0  0  0  0  0  0  0  0  0  # atno 17371 bound_to 10713
  140.3510  134.7768  157.4467 LP  0  0  0  0  0  0  0  0  0  0  0  0  # atno 17394 bound_to 11000
  140.0861  134.5665  155.8491 LP  0  0  0  0  0  0  0  0  0  0  0  0  # atno 17395 bound_to 11000

$$$$
