AV-unprocessed.smi:281|AV-procd|sdf|2104|dock1
  -GOLD-   2262021393D 1   1.00000     0.00000
 Structure written by MMmdl.
 55 59  0  0  0  0  0  0  0  0  1 V2000
  149.9740  137.1876  158.9928 C   0  0  0  0  0  0  0  0  0  0  0  0
  149.7626  137.4358  157.4962 C   0  0  1  0  0  0  0  0  0  0  0  0
  148.6654  136.5355  156.9081 C   0  0  0  0  0  0  0  0  0  0  0  0
  148.4642  136.8761  155.5090 N   0  0  0  0  0  0  0  0  0  0  0  0
  147.6602  136.0223  154.8429 C   0  0  0  0  0  0  0  0  0  0  0  0
  147.9117  134.6989  154.9897 N   0  0  0  0  0  0  0  0  0  0  0  0
  147.1576  133.8018  154.3473 C   0  0  0  0  0  0  0  0  0  0  0  0
  146.1274  134.0121  153.5245 N   0  0  0  0  0  0  0  0  0  0  0  0
  145.8745  135.3444  153.3751 C   0  0  0  0  0  0  0  0  0  0  0  0
  146.5826  136.4103  153.9978 C   0  0  0  0  0  0  0  0  0  0  0  0
  146.0359  137.6297  153.6165 N   0  0  0  0  0  0  0  0  0  0  0  0
  145.0627  137.3033  152.8108 C   0  0  0  0  0  0  0  0  0  0  0  0
  144.9027  135.9519  152.5993 N   0  0  0  0  0  0  0  0  0  0  0  0
  143.9149  135.3124  151.7441 C   0  0  0  0  0  0  0  0  0  0  0  0
  144.5222  134.6924  150.4636 C   0  0  2  0  0  0  0  0  0  0  0  0
  144.7540  135.7188  149.5146 O   0  0  0  0  0  0  0  0  0  0  0  0
  143.6467  133.6219  149.8152 C   0  0  0  0  0  0  0  0  0  0  0  0
  144.6646  132.6473  149.2401 C   0  0  0  0  0  0  0  0  0  0  0  0
  145.6653  132.6248  150.2429 O   0  0  0  0  0  0  0  0  0  0  0  0
  145.8521  133.9541  150.7165 C   0  0  0  0  0  0  0  0  0  0  0  0
  148.1166  138.2772  155.3218 C   0  0  0  0  0  0  0  0  0  0  0  0
  149.1794  139.2038  155.9637 C   0  0  2  0  0  0  0  0  0  0  0  0
  148.6977  140.6454  155.9580 C   0  0  0  0  0  0  0  0  0  0  0  0
  149.0520  141.1136  154.5513 C   0  0  0  0  0  0  0  0  0  0  0  0
  150.2115  140.3745  154.1816 O   0  0  0  0  0  0  0  0  0  0  0  0
  150.4676  139.3268  155.1170 C   0  0  1  0  0  0  0  0  0  0  0  0
  151.7224  139.7599  155.8992 C   0  0  0  0  0  0  0  0  0  0  0  0
  149.4012  138.8077  157.3218 O   0  0  0  0  0  0  0  0  0  0  0  0
  150.2651  136.1542  159.1825 H   0  0  0  0  0  0  0  0  0  0  0  0
  149.0640  137.3899  159.5587 H   0  0  0  0  0  0  0  0  0  0  0  0
  150.7609  137.8321  159.3856 H   0  0  0  0  0  0  0  0  0  0  0  0
  150.6993  137.2312  156.9780 H   0  0  0  0  0  0  0  0  0  0  0  0
  148.9512  135.4864  156.9971 H   0  0  0  0  0  0  0  0  0  0  0  0
  147.7349  136.6676  157.4617 H   0  0  0  0  0  0  0  0  0  0  0  0
  147.4185  132.7672  154.5140 H   0  0  0  0  0  0  0  0  0  0  0  0
  144.4351  138.0459  152.3401 H   0  0  0  0  0  0  0  0  0  0  0  0
  143.3965  134.5486  152.3255 H   0  0  0  0  0  0  0  0  0  0  0  0
  143.1630  136.0573  151.4798 H   0  0  0  0  0  0  0  0  0  0  0  0
  145.4763  135.4604  148.9630 H   0  0  0  0  0  0  0  0  0  0  0  0
  143.0610  133.1022  150.5744 H   0  0  0  0  0  0  0  0  0  0  0  0
  142.9523  134.0103  149.0687 H   0  0  0  0  0  0  0  0  0  0  0  0
  144.2478  131.6555  149.0634 H   0  0  0  0  0  0  0  0  0  0  0  0
  145.0840  133.0212  148.3049 H   0  0  0  0  0  0  0  0  0  0  0  0
  146.6839  134.4133  150.1796 H   0  0  0  0  0  0  0  0  0  0  0  0
  146.1221  133.9275  151.7727 H   0  0  0  0  0  0  0  0  0  0  0  0
  148.0105  138.4907  154.2573 H   0  0  0  0  0  0  0  0  0  0  0  0
  147.1456  138.4649  155.7815 H   0  0  0  0  0  0  0  0  0  0  0  0
  147.6376  140.7545  156.1892 H   0  0  0  0  0  0  0  0  0  0  0  0
  149.2545  141.2322  156.6896 H   0  0  0  0  0  0  0  0  0  0  0  0
  148.2482  140.8771  153.8532 H   0  0  0  0  0  0  0  0  0  0  0  0
  149.2334  142.1876  154.5053 H   0  0  0  0  0  0  0  0  0  0  0  0
  150.6833  138.3997  154.5848 H   0  0  0  0  0  0  0  0  0  0  0  0
  152.0249  139.0160  156.6344 H   0  0  0  0  0  0  0  0  0  0  0  0
  151.5658  140.6999  156.4279 H   0  0  0  0  0  0  0  0  0  0  0  0
  152.5649  139.9022  155.2220 H   0  0  0  0  0  0  0  0  0  0  0  0
  1  2  1  0  0  0  0
  1 29  1  0  0  0  0
  1 30  1  0  0  0  0
  1 31  1  0  0  0  0
  2 28  1  0  0  0  0
  2  3  1  0  0  0  0
  2 32  1  0  0  0  0
  3  4  1  0  0  0  0
  3 33  1  0  0  0  0
  3 34  1  0  0  0  0
  4  5  1  0  0  0  0
  4 21  1  0  0  0  0
  5 10  1  0  0  0  0
  5  6  2  0  0  0  0
  6  7  1  0  0  0  0
  7  8  2  0  0  0  0
  7 35  1  0  0  0  0
  8  9  1  0  0  0  0
  9 13  1  0  0  0  0
  9 10  2  0  0  0  0
 10 11  1  0  0  0  0
 11 12  2  0  0  0  0
 12 13  1  0  0  0  0
 12 36  1  0  0  0  0
 13 14  1  0  0  0  0
 14 15  1  0  0  0  0
 14 37  1  0  0  0  0
 14 38  1  0  0  0  0
 15 20  1  0  0  0  0
 15 16  1  0  0  0  0
 15 17  1  0  0  0  0
 16 39  1  0  0  0  0
 17 18  1  0  0  0  0
 17 40  1  0  0  0  0
 17 41  1  0  0  0  0
 18 19  1  0  0  0  0
 18 42  1  0  0  0  0
 18 43  1  0  0  0  0
 19 20  1  0  0  0  0
 20 44  1  0  0  0  0
 20 45  1  0  0  0  0
 21 22  1  0  0  0  0
 21 46  1  0  0  0  0
 21 47  1  0  0  0  0
 22 26  1  0  0  0  0
 22 23  1  0  0  0  0
 22 28  1  0  0  0  0
 23 24  1  0  0  0  0
 23 48  1  0  0  0  0
 23 49  1  0  0  0  0
 24 25  1  0  0  0  0
 24 50  1  0  0  0  0
 24 51  1  0  0  0  0
 25 26  1  0  0  0  0
 26 27  1  0  0  0  0
 26 52  1  0  0  0  0
 27 53  1  0  0  0  0
 27 54  1  0  0  0  0
 27 55  1  0  0  0  0
M  END
> <s_m_source_file>
AV-unprocessed.smi

> <i_m_source_file_index>
281

> <i_lp_mmshare_version>
43012

> <i_f3d_flags>
0

> <s_epik_input>
W0NIM11bQ0BASF0xT1tDSDJdW0NIMl1bQ0BAXTEyW0NIMl1OKFtDSDJdW0NASF0oTzIpW0NIM10pYyhuW2NIXW4zKWMoYzM0KW5bY0hdbjRbQ0gyXVtDQEBdNShbT0hdKVtDSDJdW0NIMl1PW0NIMl01

> <s_epik_cmdline>
J2VwaWtfcHl0aG9uJywgJy1waCcsICc3LjAnLCAnLXRuJywgJzgnLCAnLW1hJywgJzIwMCcsICctbWV0YWxfYmluZGluZycsICctaW1hZScsICc8aW5maWxlLm1hZT4nLCAnLW9tYWUnLCAnPG91dGZpbGUubWFlPic=

> <r_lp_tautomer_probability>
1

> <r_epik_Ionization_Penalty>
0.00571331

> <r_epik_Ionization_Penalty_Charging>
0

> <r_epik_Ionization_Penalty_Neutral>
0.00571331

> <r_epik_State_Penalty>
0.00399586

> <r_epik_Charging_Adjusted_Penalty>
0.00399586

> <i_epik_Tot_Q>
0

> <i_epik_Tot_abs_Q>
0

> <r_epik_Metal_State_Penalty>
-0

> <b_epik_Metal_Only>
0

> <s_lp_Force_Field>
OPLS_2005

> <r_lp_Energy>
57.1517

> <b_lp_Chiralities_Consistent>
1

> <s_lp_Variant>
AV-unprocessed.smi:281-4

> <Gold.Version>
5.8.1

> <Gold.Id.Protein>
6NUR|6NUR_protein|mol2

> <Gold.PLP.Fitness>
40.7158

> <Gold.PLP.PLP>
-29.6243

> <Gold.PLP.part.hbond>
-2.1032

> <Gold.PLP.part.metal>
0.0000

> <Gold.PLP.part.buried>
-2.9632

> <Gold.PLP.part.nonpolar>
-25.7249

> <Gold.PLP.part.repulsive>
1.2577

> <Gold.PLP.ligand.clash>
0.0000

> <Gold.PLP.ligand.torsion>
0.5175

> <Gold.PLP.Chemscore.Hbond>
2.0000

> <Gold.PLP.Chemscore.CHOScore>
2.0000

> <Gold.PLP.Chemscore.Metal>
0.0000

> <Gold.Chemscore.Hbonds>
donor molecule, donor type, donor heavy atom, donor atom, acceptor molecule, acceptor atom, score
      L1  H    16    39       P1  7921  1.00
      P1  H  7989  7998       L1    25  0.91
      L1  C    12    36       P1 10171  0.73
      L1  C    12    36       P1 10175  1.00

> <Gold.PLP.Chemscore.Internal.Correction>
0.1265

> <Gold.Rescore>
     Score         DG    S(hbond)    S(metal)    S(lipo)     H(rot)  DE(clash)    DE(int)     intcor
     12.91     -15.31       1.94        0.00      74.45       2.09       0.12       2.28       ----

> <Gold.Chemscore.Fitness>
12.9110

> <Gold.Chemscore.DG>
-15.3120

> <Gold.Chemscore.ZeroCoef>
-5.4800

> <Gold.Chemscore.Hbond>
1.9396

> <Gold.Chemscore.Metal>
0.0000

> <Gold.Chemscore.Lipo>
74.4542

> <Gold.Chemscore.Internal_Hbond>
0.0000

> <Gold.Chemscore.DEClash>
0.1229

> <Gold.Chemscore.DEInternal>
2.2782

> <Gold.Chemscore.Rot>
2.0927

> <Gold.Chemscore.Internal.Correction>
   9.000000E+99

> <Gold.Chemscore.Hbonds>
donor molecule, donor type, donor heavy atom, donor atom, acceptor molecule, acceptor atom, score
      L1  H    16    39       P1  7921  0.97
      P1  H  7989  7998       L1    25  0.69

> <Gold.Chemscore.Hbond.Weighted>
-6.4782

> <Gold.Chemscore.Metal.Weighted>
-0.0000

> <Gold.Chemscore.Lipo.Weighted>
-8.7111

> <Gold.Chemscore.Internal_Hbond.Weighted>
0.0000

> <Gold.Chemscore.DEClash.Weighted>
0.1229

> <Gold.Chemscore.DEInternal.Weighted>
2.2782

> <Gold.Chemscore.Rot.Weighted>
5.3573

> <Gold.Chemscore.Internal.Correction.Weighted>
   9.000000E+99

> <Gold.Protein.RotatedTorsions>
[ 6907 6896 6895 6894 ] final   82.75 input  -60.11 | X-H torsion
[ 7974 7965 7964 7962 ] final  -81.44 input  175.53 | X-H torsion
[ 8008 7997 7996 7995 ] final   -2.44 input   59.86 | X-H torsion
[ 10167 10162 10161 10158 ] final  136.82 input  -65.29 | X-H torsion
[ 10718 10713 10712 10709 ] final  154.04 input   66.30 | X-H torsion
[ 10763 10752 10751 10750 ] final  -81.61 input  -60.55 | X-H torsion
[ 11005 11000 10999 10996 ] final  -35.09 input  -57.11 | X-H torsion

> <Gold.Protein.ActiveResidues>
 VAL166  LYS551  ARG553  GLY616  TRP617  ASP618  TYR619  PRO620  LYS621  CYS622 
 ASP623  PHE694  ASN695  SER759  ASP760  ASP761  ALA762  ILE779  LEU786  VAL792 
 PHE793  MET794  SER795  GLU796  ALA797  LYS798  CYS799  TRP800  GLU811  SER814 

> <Gold.Protein.RotatedAtoms>
  152.5308  134.3002  159.9075 H   0  0  0  0  0  0  0  0  0  0  0  0  # atno 6907 bound_to 6896
  151.2953  133.4140  159.2643 H   0  0  0  0  0  0  0  0  0  0  0  0  # atno 6908 bound_to 6896
  151.0165  134.9453  159.8093 H   0  0  0  0  0  0  0  0  0  0  0  0  # atno 6909 bound_to 6896
  145.5466  140.9502  143.1522 H   0  0  0  0  0  0  0  0  0  0  0  0  # atno 7974 bound_to 7965
  154.6357  140.2534  155.7381 H   0  0  0  0  0  0  0  0  0  0  0  0  # atno 8008 bound_to 7997
  156.2503  140.2898  156.0648 H   0  0  0  0  0  0  0  0  0  0  0  0  # atno 8009 bound_to 7997
  155.1675  140.0386  157.2846 H   0  0  0  0  0  0  0  0  0  0  0  0  # atno 8010 bound_to 7997
  139.5166  144.6444  151.5481 H   0  0  0  0  0  0  0  0  0  0  0  0  # atno 10167 bound_to 10162
  157.2369  131.0751  151.1817 H   0  0  0  0  0  0  0  0  0  0  0  0  # atno 10718 bound_to 10713
  154.5656  135.5620  153.7047 H   0  0  0  0  0  0  0  0  0  0  0  0  # atno 10763 bound_to 10752
  153.0032  135.6284  154.2185 H   0  0  0  0  0  0  0  0  0  0  0  0  # atno 10764 bound_to 10752
  154.2123  135.2873  155.2934 H   0  0  0  0  0  0  0  0  0  0  0  0  # atno 10765 bound_to 10752
  140.9768  133.7078  156.1617 H   0  0  0  0  0  0  0  0  0  0  0  0  # atno 11005 bound_to 11000
  144.7550  139.7097  143.7258 LP  0  0  0  0  0  0  0  0  0  0  0  0  # atno 17320 bound_to 7965
  146.1945  139.5203  142.9783 LP  0  0  0  0  0  0  0  0  0  0  0  0  # atno 17321 bound_to 7965
  140.6223  143.9235  150.6536 LP  0  0  0  0  0  0  0  0  0  0  0  0  # atno 17342 bound_to 10162
  140.2512  143.3592  152.1404 LP  0  0  0  0  0  0  0  0  0  0  0  0  # atno 17343 bound_to 10162
  157.3420  130.7038  149.6387 LP  0  0  0  0  0  0  0  0  0  0  0  0  # atno 17370 bound_to 10713
  155.9672  130.4277  150.4756 LP  0  0  0  0  0  0  0  0  0  0  0  0  # atno 17371 bound_to 10713
  140.7246  134.4321  157.5572 LP  0  0  0  0  0  0  0  0  0  0  0  0  # atno 17394 bound_to 11000
  139.8934  134.8732  156.2226 LP  0  0  0  0  0  0  0  0  0  0  0  0  # atno 17395 bound_to 11000

$$$$
