AV-unprocessed.smi:218|AV-procd|sdf|1666|dock4
  -GOLD-   2262020 73D 1   1.00000     0.00000
 Structure written by MMmdl.
 54 57  0  0  0  0  0  0  0  0  1 V2000
  151.9475  141.2628  159.0523 C   0  0  0  0  0  0  0  0  0  0  0  0
  151.5201  142.2963  158.0035 C   0  0  0  0  0  0  0  0  0  0  0  0
  151.6084  143.7264  158.5634 C   0  0  0  0  0  0  0  0  0  0  0  0
  150.1728  141.9871  157.6402 O   0  0  0  0  0  0  0  0  0  0  0  0
  149.9149  141.1849  156.5449 C   0  0  0  0  0  0  0  0  0  0  0  0
  148.8053  141.4991  155.7335 C   0  0  0  0  0  0  0  0  0  0  0  0
  148.5191  140.6804  154.6213 C   0  0  0  0  0  0  0  0  0  0  0  0
  147.3230  140.9652  153.7297 C   0  0  0  0  0  0  0  0  0  0  0  0
  147.0265  139.9296  152.7457 N   0  0  0  0  0  0  0  0  0  0  0  0
  146.3876  138.7939  153.1042 C   0  0  0  0  0  0  0  0  0  0  0  0
  145.9188  138.6193  154.3675 N   0  0  0  0  0  0  0  0  0  0  0  0
  145.2769  137.4935  154.6923 C   0  0  0  0  0  0  0  0  0  0  0  0
  144.9945  136.4423  153.9203 N   0  0  0  0  0  0  0  0  0  0  0  0
  145.4604  136.6122  152.6493 C   0  0  0  0  0  0  0  0  0  0  0  0
  146.1643  137.7514  152.1676 C   0  0  0  0  0  0  0  0  0  0  0  0
  146.4802  137.5770  150.8265 N   0  0  0  0  0  0  0  0  0  0  0  0
  145.9838  136.4046  150.5350 C   0  0  0  0  0  0  0  0  0  0  0  0
  145.3521  135.7551  151.5724 N   0  0  0  0  0  0  0  0  0  0  0  0
  144.6891  134.4164  151.5385 C   0  0  2  0  0  0  0  0  0  0  0  0
  145.3616  133.5749  152.4199 O   0  0  0  0  0  0  0  0  0  0  0  0
  145.3495  132.2555  151.8955 C   0  0  2  0  0  0  0  0  0  0  0  0
  146.4361  131.3900  152.5570 C   0  0  0  0  0  0  0  0  0  0  0  0
  147.7117  131.9355  152.2980 O   0  0  0  0  0  0  0  0  0  0  0  0
  145.5025  132.4759  150.3821 C   0  0  2  0  0  0  0  0  0  0  0  0
  146.8619  132.5899  150.0044 O   0  0  0  0  0  0  0  0  0  0  0  0
  144.7681  133.7919  150.1339 C   0  0  1  0  0  0  0  0  0  0  0  0
  143.4766  133.5200  149.6268 O   0  0  0  0  0  0  0  0  0  0  0  0
  149.3574  139.5777  154.3632 C   0  0  0  0  0  0  0  0  0  0  0  0
  150.4453  139.3463  155.2267 C   0  0  0  0  0  0  0  0  0  0  0  0
  150.7216  140.1233  156.2955 N   0  0  0  0  0  0  0  0  0  0  0  0
  143.6697  134.5946  151.8845 H   0  0  0  0  0  0  0  0  0  0  0  0
  144.3629  131.8236  152.0763 H   0  0  0  0  0  0  0  0  0  0  0  0
  145.0774  131.6450  149.8168 H   0  0  0  0  0  0  0  0  0  0  0  0
  145.2987  134.4425  149.4362 H   0  0  0  0  0  0  0  0  0  0  0  0
  152.9753  141.4318  159.3747 H   0  0  0  0  0  0  0  0  0  0  0  0
  151.8895  140.2517  158.6488 H   0  0  0  0  0  0  0  0  0  0  0  0
  151.3083  141.3063  159.9348 H   0  0  0  0  0  0  0  0  0  0  0  0
  152.1931  142.1869  157.1517 H   0  0  0  0  0  0  0  0  0  0  0  0
  152.6264  143.9599  158.8761 H   0  0  0  0  0  0  0  0  0  0  0  0
  150.9569  143.8498  159.4292 H   0  0  0  0  0  0  0  0  0  0  0  0
  151.3165  144.4702  157.8228 H   0  0  0  0  0  0  0  0  0  0  0  0
  148.1832  142.3507  155.9664 H   0  0  0  0  0  0  0  0  0  0  0  0
  146.4381  141.1492  154.3407 H   0  0  0  0  0  0  0  0  0  0  0  0
  147.5178  141.8929  153.1918 H   0  0  0  0  0  0  0  0  0  0  0  0
  147.3513  140.1065  151.8059 H   0  0  0  0  0  0  0  0  0  0  0  0
  144.9382  137.4269  155.7158 H   0  0  0  0  0  0  0  0  0  0  0  0
  146.0644  135.9783  149.5457 H   0  0  0  0  0  0  0  0  0  0  0  0
  146.3010  131.3791  153.6390 H   0  0  0  0  0  0  0  0  0  0  0  0
  146.3892  130.3570  152.2104 H   0  0  0  0  0  0  0  0  0  0  0  0
  148.1133  131.4368  151.6024 H   0  0  0  0  0  0  0  0  0  0  0  0
  147.2677  131.7398  150.0764 H   0  0  0  0  0  0  0  0  0  0  0  0
  142.8742  134.1538  149.9850 H   0  0  0  0  0  0  0  0  0  0  0  0
  149.1753  138.9239  153.5230 H   0  0  0  0  0  0  0  0  0  0  0  0
  151.1090  138.5113  155.0574 H   0  0  0  0  0  0  0  0  0  0  0  0
  1  2  1  0  0  0  0
  1 35  1  0  0  0  0
  1 36  1  0  0  0  0
  1 37  1  0  0  0  0
  2  3  1  0  0  0  0
  2  4  1  0  0  0  0
  2 38  1  0  0  0  0
  3 39  1  0  0  0  0
  3 40  1  0  0  0  0
  3 41  1  0  0  0  0
  4  5  1  0  0  0  0
  5 30  1  0  0  0  0
  5  6  2  0  0  0  0
  6  7  1  0  0  0  0
  6 42  1  0  0  0  0
  7  8  1  0  0  0  0
  7 28  2  0  0  0  0
  8  9  1  0  0  0  0
  8 43  1  0  0  0  0
  8 44  1  0  0  0  0
  9 10  1  0  0  0  0
  9 45  1  0  0  0  0
 10 15  1  0  0  0  0
 10 11  2  0  0  0  0
 11 12  1  0  0  0  0
 12 13  2  0  0  0  0
 12 46  1  0  0  0  0
 13 14  1  0  0  0  0
 14 18  1  0  0  0  0
 14 15  2  0  0  0  0
 15 16  1  0  0  0  0
 16 17  2  0  0  0  0
 17 18  1  0  0  0  0
 17 47  1  0  0  0  0
 18 19  1  0  0  0  0
 19 31  1  0  0  0  0
 19 26  1  0  0  0  0
 19 20  1  0  0  0  0
 20 21  1  0  0  0  0
 21 32  1  0  0  0  0
 21 22  1  0  0  0  0
 21 24  1  0  0  0  0
 22 23  1  0  0  0  0
 22 48  1  0  0  0  0
 22 49  1  0  0  0  0
 23 50  1  0  0  0  0
 24 33  1  0  0  0  0
 24 25  1  0  0  0  0
 24 26  1  0  0  0  0
 25 51  1  0  0  0  0
 26 34  1  0  0  0  0
 26 27  1  0  0  0  0
 27 52  1  0  0  0  0
 28 29  1  0  0  0  0
 28 53  1  0  0  0  0
 29 30  2  0  0  0  0
 29 54  1  0  0  0  0
M  END
> <s_m_source_file>
AV-unprocessed.smi

> <i_m_source_file_index>
218

> <i_lp_mmshare_version>
43012

> <i_f3d_flags>
0

> <s_epik_input>
W0NIM11bQ0hdKFtDSDNdKU9jMVtjSF1jKFtjSF1bY0hdbjEpW0NIMl1bTkhdYyhuW2NIXW4yKWMoYzIzKW5bY0hdbjNbQ0BASF00T1tDQEhdKFtDSDJdW09IXSlbQ0BASF0oW09IXSlbQ0BIXTRbT0hd

> <s_epik_cmdline>
J2VwaWtfcHl0aG9uJywgJy1waCcsICc3LjAnLCAnLXRuJywgJzgnLCAnLW1hJywgJzIwMCcsICctbWV0YWxfYmluZGluZycsICctaW1hZScsICc8aW5maWxlLm1hZT4nLCAnLW9tYWUnLCAnPG91dGZpbGUubWFlPic=

> <r_lp_tautomer_probability>
1

> <r_epik_Ionization_Penalty>
0.00457014

> <r_epik_Ionization_Penalty_Charging>
0

> <r_epik_Ionization_Penalty_Neutral>
0.00457014

> <r_epik_State_Penalty>
-0

> <r_epik_Charging_Adjusted_Penalty>
0

> <i_epik_Tot_Q>
0

> <i_epik_Tot_abs_Q>
0

> <r_epik_Metal_State_Penalty>
-0

> <b_epik_Metal_Only>
0

> <s_epik_Chemistry_Notes>
This compound contains an acetal/aminal-like group ( X-CH(R)-Y where X, Y are N, S, or O) that may be acid/base labile, releasing an aldehyde.

> <s_lp_Force_Field>
OPLS_2005

> <r_lp_Energy>
40.0122

> <b_lp_Chiralities_Consistent>
1

> <s_lp_Variant>
AV-unprocessed.smi:218-5

> <Gold.Version>
5.8.1

> <Gold.Id.Protein>
6NUR|6NUR_protein|mol2

> <Gold.PLP.Fitness>
58.0590

> <Gold.PLP.PLP>
-45.9100

> <Gold.PLP.part.hbond>
-5.3752

> <Gold.PLP.part.metal>
0.0000

> <Gold.PLP.part.buried>
-2.8386

> <Gold.PLP.part.nonpolar>
-40.0821

> <Gold.PLP.part.repulsive>
2.8784

> <Gold.PLP.ligand.clash>
0.0000

> <Gold.PLP.ligand.torsion>
0.9836

> <Gold.PLP.Chemscore.Hbond>
3.6380

> <Gold.PLP.Chemscore.CHOScore>
1.0000

> <Gold.PLP.Chemscore.Metal>
0.0000

> <Gold.Chemscore.Hbonds>
donor molecule, donor type, donor heavy atom, donor atom, acceptor molecule, acceptor atom, score
      L1  H     9    45       P1  7957  0.15
      L1  H    23    50       P1 10747  1.00
      L1  H    25    51       P1 10747  0.86
      L1  H    27    52       P1 10186  0.58
      P1  H  7954  7966       L1    16  1.00
      L1  C    17    47       P1  7921  1.00

> <Gold.PLP.Chemscore.Internal.Correction>
0.2023

> <Gold.Rescore>
     Score         DG    S(hbond)    S(metal)    S(lipo)     H(rot)  DE(clash)    DE(int)     intcor
     12.64     -15.76       3.41        0.00      97.92       4.90       2.36       0.76       ----

> <Gold.Chemscore.Fitness>
12.6365

> <Gold.Chemscore.DG>
-15.7599

> <Gold.Chemscore.ZeroCoef>
-5.4800

> <Gold.Chemscore.Hbond>
3.4056

> <Gold.Chemscore.Metal>
0.0000

> <Gold.Chemscore.Lipo>
97.9221

> <Gold.Chemscore.Internal_Hbond>
0.0000

> <Gold.Chemscore.DEClash>
2.3646

> <Gold.Chemscore.DEInternal>
0.7589

> <Gold.Chemscore.Rot>
4.9029

> <Gold.Chemscore.Internal.Correction>
   9.000000E+99

> <Gold.Chemscore.Hbonds>
donor molecule, donor type, donor heavy atom, donor atom, acceptor molecule, acceptor atom, score
      L1  H     9    45       P1  7957  0.15
      L1  H    23    50       P1 10747  1.00
      L1  H    25    51       P1 10747  0.84
      L1  H    27    52       P1 10186  0.57
      P1  H  7954  7966       L1    16  0.73

> <Gold.Chemscore.Hbond.Weighted>
-11.3745

> <Gold.Chemscore.Metal.Weighted>
-0.0000

> <Gold.Chemscore.Lipo.Weighted>
-11.4569

> <Gold.Chemscore.Internal_Hbond.Weighted>
0.0000

> <Gold.Chemscore.DEClash.Weighted>
2.3646

> <Gold.Chemscore.DEInternal.Weighted>
0.7589

> <Gold.Chemscore.Rot.Weighted>
12.5515

> <Gold.Chemscore.Internal.Correction.Weighted>
   9.000000E+99

> <Gold.Protein.RotatedTorsions>
[ 6907 6896 6895 6894 ] final  -14.81 input  -60.11 | X-H torsion
[ 7974 7965 7964 7962 ] final  131.79 input  175.53 | X-H torsion
[ 8008 7997 7996 7995 ] final   60.25 input   59.86 | X-H torsion
[ 10167 10162 10161 10158 ] final   61.73 input  -65.29 | X-H torsion
[ 10718 10713 10712 10709 ] final  -64.17 input   66.30 | X-H torsion
[ 10763 10752 10751 10750 ] final  -54.63 input  -60.55 | X-H torsion
[ 11005 11000 10999 10996 ] final -179.83 input  -57.11 | X-H torsion

> <Gold.Protein.ActiveResidues>
 VAL166  LYS551  ARG553  GLY616  TRP617  ASP618  TYR619  PRO620  LYS621  CYS622 
 ASP623  PHE694  ASN695  SER759  ASP760  ASP761  ALA762  ILE779  LEU786  VAL792 
 PHE793  MET794  SER795  GLU796  ALA797  LYS798  CYS799  TRP800  GLU811  SER814 

> <Gold.Protein.RotatedAtoms>
  151.3336  135.0847  159.9346 H   0  0  0  0  0  0  0  0  0  0  0  0  # atno 6907 bound_to 6896
  152.5229  133.9518  159.7686 H   0  0  0  0  0  0  0  0  0  0  0  0  # atno 6908 bound_to 6896
  150.9861  133.6143  159.2745 H   0  0  0  0  0  0  0  0  0  0  0  0  # atno 6909 bound_to 6896
  145.0036  139.4288  143.5280 H   0  0  0  0  0  0  0  0  0  0  0  0  # atno 7974 bound_to 7965
  155.5793  140.3491  155.4536 H   0  0  0  0  0  0  0  0  0  0  0  0  # atno 8008 bound_to 7997
  156.0385  140.1290  157.0206 H   0  0  0  0  0  0  0  0  0  0  0  0  # atno 8009 bound_to 7997
  154.4382  140.1029  156.6188 H   0  0  0  0  0  0  0  0  0  0  0  0  # atno 8010 bound_to 7997
  140.1516  144.4457  150.6756 H   0  0  0  0  0  0  0  0  0  0  0  0  # atno 10167 bound_to 10162
  156.0745  130.4230  150.1382 H   0  0  0  0  0  0  0  0  0  0  0  0  # atno 10718 bound_to 10713
  154.1779  135.6448  153.5026 H   0  0  0  0  0  0  0  0  0  0  0  0  # atno 10763 bound_to 10752
  153.0067  135.5399  154.6545 H   0  0  0  0  0  0  0  0  0  0  0  0  # atno 10764 bound_to 10752
  154.5901  135.2933  155.0616 H   0  0  0  0  0  0  0  0  0  0  0  0  # atno 10765 bound_to 10752
  140.4143  134.6664  157.4630 H   0  0  0  0  0  0  0  0  0  0  0  0  # atno 11005 bound_to 11000
  146.3457  139.9439  142.8737 LP  0  0  0  0  0  0  0  0  0  0  0  0  # atno 17320 bound_to 7965
  145.2119  140.9899  143.4095 LP  0  0  0  0  0  0  0  0  0  0  0  0  # atno 17321 bound_to 7965
  140.6699  143.2282  151.5651 LP  0  0  0  0  0  0  0  0  0  0  0  0  # atno 17342 bound_to 10162
  139.5423  144.2614  152.1375 LP  0  0  0  0  0  0  0  0  0  0  0  0  # atno 17343 bound_to 10162
  156.9426  130.9749  151.3513 LP  0  0  0  0  0  0  0  0  0  0  0  0  # atno 17370 bound_to 10713
  157.5834  130.8392  149.8554 LP  0  0  0  0  0  0  0  0  0  0  0  0  # atno 17371 bound_to 10713
  140.0245  134.6497  155.9192 LP  0  0  0  0  0  0  0  0  0  0  0  0  # atno 17394 bound_to 11000
  141.1809  133.6546  156.5016 LP  0  0  0  0  0  0  0  0  0  0  0  0  # atno 17395 bound_to 11000

$$$$
