AV-unprocessed.smi:3142|AV-procd|sdf|11973|dock2
  -GOLD-   2272017373D 1   1.00000     0.00000
 Structure written by MMmdl.
 37 39  0  0  0  0  0  0  0  0  2 V2000
  148.9866  141.5633  155.1532 C   0  0  0  0  0  0  0  0  0  0  0  0
  150.4178  141.0760  155.4461 C   0  0  1  0  0  0  0  0  0  0  0  0
  150.7751  141.1641  156.9368 C   0  0  0  0  0  0  0  0  0  0  0  0
  150.8953  140.1406  157.6112 O   0  0  0  0  0  0  0  0  0  0  0  0
  150.9557  142.3994  157.4304 N   0  0  0  0  0  0  0  0  0  0  0  0
  151.3248  142.7238  158.8040 C   0  0  0  0  0  0  0  0  0  0  0  0
  151.1524  144.2007  159.1176 C   0  0  0  0  0  0  0  0  0  0  0  0
  152.2568  145.1961  158.8499 C   0  0  0  0  0  0  0  0  0  0  0  0
  151.8783  144.8507  160.2719 C   0  0  0  0  0  0  0  0  0  0  0  0
  152.7415  142.2784  159.1157 C   0  0  0  0  0  0  0  0  0  0  0  0
  153.0152  140.9106  159.6937 C   0  0  0  0  0  0  0  0  0  0  0  0
  153.2331  142.1470  160.5375 C   0  0  0  0  0  0  0  0  0  0  0  0
  150.6290  139.7044  154.9562 N   0  0  0  0  0  0  0  0  0  0  0  0
  151.7805  138.9576  155.0157 C   0  0  0  0  0  0  0  0  0  0  0  0
  151.5012  137.7556  154.4187 C   0  0  0  0  0  0  0  0  0  0  0  0
  150.1956  137.8191  154.0129 N   0  3  0  0  0  0  0  0  0  0  0  0
  149.6684  139.0046  154.3362 C   0  0  0  0  0  0  0  0  0  0  0  0
  148.8474  142.5931  155.4847 H   0  0  0  0  0  0  0  0  0  0  0  0
  148.2341  140.9508  155.6513 H   0  0  0  0  0  0  0  0  0  0  0  0
  148.7782  141.5342  154.0834 H   0  0  0  0  0  0  0  0  0  0  0  0
  151.1017  141.7273  154.8983 H   0  0  0  0  0  0  0  0  0  0  0  0
  150.8320  143.1809  156.8032 H   0  0  0  0  0  0  0  0  0  0  0  0
  150.6676  142.1680  159.4762 H   0  0  0  0  0  0  0  0  0  0  0  0
  150.1433  144.5646  158.9326 H   0  0  0  0  0  0  0  0  0  0  0  0
  153.2091  144.8185  158.4832 H   0  0  0  0  0  0  0  0  0  0  0  0
  151.9687  146.1763  158.4760 H   0  0  0  0  0  0  0  0  0  0  0  0
  151.3369  145.5996  160.8463 H   0  0  0  0  0  0  0  0  0  0  0  0
  152.5792  144.2435  160.8415 H   0  0  0  0  0  0  0  0  0  0  0  0
  153.4764  142.6413  158.3992 H   0  0  0  0  0  0  0  0  0  0  0  0
  152.1607  140.2821  159.9365 H   0  0  0  0  0  0  0  0  0  0  0  0
  153.8963  140.3820  159.3359 H   0  0  0  0  0  0  0  0  0  0  0  0
  154.2598  142.4433  160.7420 H   0  0  0  0  0  0  0  0  0  0  0  0
  152.5252  142.3329  161.3426 H   0  0  0  0  0  0  0  0  0  0  0  0
  152.6901  139.3284  155.4662 H   0  0  0  0  0  0  0  0  0  0  0  0
  152.1182  136.8843  154.2544 H   0  0  0  0  0  0  0  0  0  0  0  0
  148.6632  139.3300  154.1353 H   0  0  0  0  0  0  0  0  0  0  0  0
  149.6988  137.0780  153.5346 H   0  0  0  0  0  0  0  0  0  0  0  0
  1  2  1  0  0  0  0
  1 18  1  0  0  0  0
  1 19  1  0  0  0  0
  1 20  1  0  0  0  0
  2  3  1  0  0  0  0
  2 13  1  0  0  0  0
  2 21  1  0  0  0  0
  3  4  2  0  0  0  0
  3  5  1  0  0  0  0
  5  6  1  0  0  0  0
  5 22  1  0  0  0  0
  6  7  1  0  0  0  0
  6 10  1  0  0  0  0
  6 23  1  0  0  0  0
  7  9  1  0  0  0  0
  7  8  1  0  0  0  0
  7 24  1  0  0  0  0
  8  9  1  0  0  0  0
  8 25  1  0  0  0  0
  8 26  1  0  0  0  0
  9 27  1  0  0  0  0
  9 28  1  0  0  0  0
 10 12  1  0  0  0  0
 10 11  1  0  0  0  0
 10 29  1  0  0  0  0
 11 12  1  0  0  0  0
 11 30  1  0  0  0  0
 11 31  1  0  0  0  0
 12 32  1  0  0  0  0
 12 33  1  0  0  0  0
 13 17  1  0  0  0  0
 13 14  1  0  0  0  0
 14 15  2  0  0  0  0
 14 34  1  0  0  0  0
 15 16  1  0  0  0  0
 15 35  1  0  0  0  0
 16 17  2  0  0  0  0
 16 37  1  0  0  0  0
 17 36  1  0  0  0  0
M  CHG  1  16   1
M  END
> <s_m_source_file>
AV-unprocessed.smi

> <i_m_source_file_index>
3142

> <i_lp_mmshare_version>
43012

> <i_f3d_flags>
0

> <s_epik_input>
W2NIXTFuW2NIXVtjSF1uMVtDQEhdKFtDSDNdKUMoPU8pW05IXVtDSF0oW0NIXTJbQ0gyXVtDSDJdMilbQ0hdM1tDSDJdW0NIMl0z

> <s_epik_cmdline>
J2VwaWtfcHl0aG9uJywgJy1waCcsICc3LjAnLCAnLXRuJywgJzgnLCAnLW1hJywgJzIwMCcsICctbWV0YWxfYmluZGluZycsICctaW1hZScsICc8aW5maWxlLm1hZT4nLCAnLW9tYWUnLCAnPG91dGZpbGUubWFlPic=

> <r_lp_tautomer_probability>
1

> <r_epik_Ionization_Penalty>
0.513834

> <r_epik_Ionization_Penalty_Charging>
0

> <r_epik_Ionization_Penalty_Neutral>
0.513834

> <r_epik_State_Penalty>
0.521297

> <r_epik_Charging_Adjusted_Penalty>
0.521297

> <i_epik_Tot_Q>
1

> <i_epik_Tot_abs_Q>
1

> <r_epik_Metal_State_Penalty>
0.730424

> <b_epik_Metal_Only>
0

> <s_lp_Force_Field>
OPLS_2005

> <r_lp_Energy>
30.6007

> <b_lp_Chiralities_Consistent>
1

> <s_lp_Variant>
AV-unprocessed.smi:3142-4

> <Gold.Version>
5.8.1

> <Gold.Id.Protein>
6NUR|6NUR_protein|mol2

> <Gold.PLP.Fitness>
50.2691

> <Gold.PLP.PLP>
-45.1314

> <Gold.PLP.part.hbond>
-1.2345

> <Gold.PLP.part.metal>
0.0000

> <Gold.PLP.part.buried>
-4.0349

> <Gold.PLP.part.nonpolar>
-39.9712

> <Gold.PLP.part.repulsive>
0.0905

> <Gold.PLP.ligand.clash>
0.0000

> <Gold.PLP.ligand.torsion>
1.5199

> <Gold.PLP.Chemscore.Hbond>
2.0000

> <Gold.PLP.Chemscore.CHOScore>
0.0000

> <Gold.PLP.Chemscore.Metal>
0.0000

> <Gold.Chemscore.Hbonds>
donor molecule, donor type, donor heavy atom, donor atom, acceptor molecule, acceptor atom, score
      L1  H    16    37       P1  7948  2.00

> <Gold.PLP.Chemscore.Internal.Correction>
2.1774

> <Gold.Rescore>
     Score         DG    S(hbond)    S(metal)    S(lipo)     H(rot)  DE(clash)    DE(int)     intcor
     13.18     -16.02       0.88        0.00     107.05       1.92       0.05       2.78       ----

> <Gold.Chemscore.Fitness>
13.1783

> <Gold.Chemscore.DG>
-16.0165

> <Gold.Chemscore.ZeroCoef>
-5.4800

> <Gold.Chemscore.Hbond>
0.8787

> <Gold.Chemscore.Metal>
0.0000

> <Gold.Chemscore.Lipo>
107.0505

> <Gold.Chemscore.Internal_Hbond>
0.0000

> <Gold.Chemscore.DEClash>
0.0547

> <Gold.Chemscore.DEInternal>
2.7835

> <Gold.Chemscore.Rot>
1.9232

> <Gold.Chemscore.Internal.Correction>
   9.000000E+99

> <Gold.Chemscore.Hbonds>
donor molecule, donor type, donor heavy atom, donor atom, acceptor molecule, acceptor atom, score
      L1  H    16    37       P1  7948  0.65

> <Gold.Chemscore.Hbond.Weighted>
-2.9349

> <Gold.Chemscore.Metal.Weighted>
-0.0000

> <Gold.Chemscore.Lipo.Weighted>
-12.5249

> <Gold.Chemscore.Internal_Hbond.Weighted>
0.0000

> <Gold.Chemscore.DEClash.Weighted>
0.0547

> <Gold.Chemscore.DEInternal.Weighted>
2.7835

> <Gold.Chemscore.Rot.Weighted>
4.9233

> <Gold.Chemscore.Internal.Correction.Weighted>
   9.000000E+99

> <Gold.Protein.RotatedTorsions>
[ 6907 6896 6895 6894 ] final -152.55 input  -60.11 | X-H torsion
[ 7974 7965 7964 7962 ] final  -25.47 input  175.53 | X-H torsion
[ 8008 7997 7996 7995 ] final   88.80 input   59.86 | X-H torsion
[ 10167 10162 10161 10158 ] final   43.85 input  -65.29 | X-H torsion
[ 10718 10713 10712 10709 ] final  -13.21 input   66.30 | X-H torsion
[ 10763 10752 10751 10750 ] final  -38.42 input  -60.55 | X-H torsion
[ 11005 11000 10999 10996 ] final -178.57 input  -57.11 | X-H torsion

> <Gold.Protein.ActiveResidues>
 VAL166  LYS551  ARG553  GLY616  TRP617  ASP618  TYR619  PRO620  LYS621  CYS622 
 ASP623  PHE694  ASN695  SER759  ASP760  ASP761  ALA762  ILE779  LEU786  VAL792 
 PHE793  MET794  SER795  GLU796  ALA797  LYS798  CYS799  TRP800  GLU811  SER814 

> <Gold.Protein.RotatedAtoms>
  151.2294  133.4459  159.2603 H   0  0  0  0  0  0  0  0  0  0  0  0  # atno 6907 bound_to 6896
  151.0809  134.9857  159.8365 H   0  0  0  0  0  0  0  0  0  0  0  0  # atno 6908 bound_to 6896
  152.5424  134.2233  159.8849 H   0  0  0  0  0  0  0  0  0  0  0  0  # atno 6909 bound_to 6896
  146.1488  140.4891  142.8620 H   0  0  0  0  0  0  0  0  0  0  0  0  # atno 7974 bound_to 7965
  155.9922  140.3367  155.6764 H   0  0  0  0  0  0  0  0  0  0  0  0  # atno 8008 bound_to 7997
  155.6405  140.0695  157.2638 H   0  0  0  0  0  0  0  0  0  0  0  0  # atno 8009 bound_to 7997
  154.4223  140.1743  156.1556 H   0  0  0  0  0  0  0  0  0  0  0  0  # atno 8010 bound_to 7997
  140.3402  144.2480  150.6156 H   0  0  0  0  0  0  0  0  0  0  0  0  # atno 10167 bound_to 10162
  156.6336  130.4908  149.6120 H   0  0  0  0  0  0  0  0  0  0  0  0  # atno 10718 bound_to 10713
  153.9125  135.6791  153.4750 H   0  0  0  0  0  0  0  0  0  0  0  0  # atno 10763 bound_to 10752
  153.1071  135.4800  154.8967 H   0  0  0  0  0  0  0  0  0  0  0  0  # atno 10764 bound_to 10752
  154.7519  135.3187  154.8496 H   0  0  0  0  0  0  0  0  0  0  0  0  # atno 10765 bound_to 10752
  140.4283  134.6542  157.4699 H   0  0  0  0  0  0  0  0  0  0  0  0  # atno 11005 bound_to 11000
  144.7879  140.5973  143.6561 LP  0  0  0  0  0  0  0  0  0  0  0  0  # atno 17320 bound_to 7965
  145.4872  139.1491  143.3729 LP  0  0  0  0  0  0  0  0  0  0  0  0  # atno 17321 bound_to 7965
  140.5316  143.2242  151.8229 LP  0  0  0  0  0  0  0  0  0  0  0  0  # atno 17342 bound_to 10162
  139.4842  144.4713  151.9422 LP  0  0  0  0  0  0  0  0  0  0  0  0  # atno 17343 bound_to 10162
  156.2215  130.6740  151.1373 LP  0  0  0  0  0  0  0  0  0  0  0  0  # atno 17370 bound_to 10713
  157.7192  131.0691  150.6203 LP  0  0  0  0  0  0  0  0  0  0  0  0  # atno 17371 bound_to 10713
  140.0152  134.6630  155.9320 LP  0  0  0  0  0  0  0  0  0  0  0  0  # atno 17394 bound_to 11000
  141.1756  133.6540  156.4816 LP  0  0  0  0  0  0  0  0  0  0  0  0  # atno 17395 bound_to 11000

$$$$
