AV-unprocessed.smi:861|AV-procd|sdf|3967|dock10
  -GOLD-   22720 1443D 1   1.00000     0.00000
 Structure written by MMmdl.
 44 45  0  0  0  0  0  0  0  0  2 V2000
  145.6972  130.9626  152.0037 C   0  0  0  0  0  0  0  0  0  0  0  0
  145.8422  132.3833  151.4376 C   0  0  0  0  0  0  0  0  0  0  0  0
  145.8184  132.3509  149.9000 C   0  0  0  0  0  0  0  0  0  0  0  0
  147.1101  133.0652  151.9920 C   0  0  0  0  0  0  0  0  0  0  0  0
  147.0290  133.4029  153.4933 C   0  0  0  0  0  0  0  0  0  0  0  0
  148.0792  134.3683  153.9150 N   0  3  2  0  0  0  0  0  0  0  0  0
  149.4135  133.7475  154.0992 C   0  0  0  0  0  0  0  0  0  0  0  0
  149.4932  132.9903  155.4366 C   0  0  0  0  0  0  0  0  0  0  0  0
  149.1849  133.8805  156.5017 O   0  0  0  0  0  0  0  0  0  0  0  0
  147.8616  134.4010  156.4155 C   0  0  1  0  0  0  0  0  0  0  0  0
  147.6203  135.2954  157.6392 C   0  0  0  0  0  0  0  0  0  0  0  0
  148.2159  134.7331  158.8435 N   0  0  0  0  0  0  0  0  0  0  0  0
  147.8812  135.2376  160.1072 C   0  0  0  0  0  0  0  0  0  0  0  0
  147.5321  134.3356  161.1320 C   0  0  0  0  0  0  0  0  0  0  0  0
  147.2000  134.8724  162.3880 C   0  0  0  0  0  0  0  0  0  0  0  0
  147.2425  136.2721  162.5234 C   0  0  0  0  0  0  0  0  0  0  0  0
  147.5847  137.0919  161.5041 N   0  0  0  0  0  0  0  0  0  0  0  0
  147.8997  136.5793  160.3093 N   0  0  0  0  0  0  0  0  0  0  0  0
  147.7286  135.1967  155.0979 C   0  0  0  0  0  0  0  0  0  0  0  0
  146.5347  130.3301  151.7079 H   0  0  0  0  0  0  0  0  0  0  0  0
  144.7813  130.4890  151.6486 H   0  0  0  0  0  0  0  0  0  0  0  0
  145.6569  130.9740  153.0932 H   0  0  0  0  0  0  0  0  0  0  0  0
  144.9748  132.9528  151.7737 H   0  0  0  0  0  0  0  0  0  0  0  0
  146.6859  131.8242  149.5011 H   0  0  0  0  0  0  0  0  0  0  0  0
  145.8108  133.3537  149.4738 H   0  0  0  0  0  0  0  0  0  0  0  0
  144.9263  131.8421  149.5334 H   0  0  0  0  0  0  0  0  0  0  0  0
  147.9621  132.4018  151.8372 H   0  0  0  0  0  0  0  0  0  0  0  0
  147.3149  133.9610  151.4062 H   0  0  0  0  0  0  0  0  0  0  0  0
  146.0414  133.7773  153.7583 H   0  0  0  0  0  0  0  0  0  0  0  0
  147.1623  132.4752  154.0512 H   0  0  0  0  0  0  0  0  0  0  0  0
  149.6541  133.0889  153.2639 H   0  0  0  0  0  0  0  0  0  0  0  0
  150.1644  134.5387  154.0893 H   0  0  0  0  0  0  0  0  0  0  0  0
  148.8175  132.1337  155.4505 H   0  0  0  0  0  0  0  0  0  0  0  0
  150.5003  132.6010  155.5859 H   0  0  0  0  0  0  0  0  0  0  0  0
  147.1405  133.5824  156.4322 H   0  0  0  0  0  0  0  0  0  0  0  0
  148.0196  136.2947  157.4604 H   0  0  0  0  0  0  0  0  0  0  0  0
  146.5474  135.4021  157.8052 H   0  0  0  0  0  0  0  0  0  0  0  0
  148.9469  134.0421  158.7549 H   0  0  0  0  0  0  0  0  0  0  0  0
  147.5182  133.2685  160.9646 H   0  0  0  0  0  0  0  0  0  0  0  0
  146.9231  134.2369  163.2159 H   0  0  0  0  0  0  0  0  0  0  0  0
  146.9982  136.7433  163.4639 H   0  0  0  0  0  0  0  0  0  0  0  0
  148.4090  136.0492  155.1227 H   0  0  0  0  0  0  0  0  0  0  0  0
  146.7279  135.6156  155.0005 H   0  0  0  0  0  0  0  0  0  0  0  0
  148.1775  135.0048  153.1366 H   0  0  0  0  0  0  0  0  0  0  0  0
  1  2  1  0  0  0  0
  1 20  1  0  0  0  0
  1 21  1  0  0  0  0
  1 22  1  0  0  0  0
  2  3  1  0  0  0  0
  2  4  1  0  0  0  0
  2 23  1  0  0  0  0
  3 24  1  0  0  0  0
  3 25  1  0  0  0  0
  3 26  1  0  0  0  0
  4  5  1  0  0  0  0
  4 27  1  0  0  0  0
  4 28  1  0  0  0  0
  5  6  1  0  0  0  0
  5 29  1  0  0  0  0
  5 30  1  0  0  0  0
  6 19  1  0  0  0  0
  6  7  1  0  0  0  0
  6 44  1  0  0  0  0
  7  8  1  0  0  0  0
  7 31  1  0  0  0  0
  7 32  1  0  0  0  0
  8  9  1  0  0  0  0
  8 33  1  0  0  0  0
  8 34  1  0  0  0  0
  9 10  1  0  0  0  0
 10 11  1  0  0  0  0
 10 19  1  0  0  0  0
 10 35  1  0  0  0  0
 11 12  1  0  0  0  0
 11 36  1  0  0  0  0
 11 37  1  0  0  0  0
 12 13  1  0  0  0  0
 12 38  1  0  0  0  0
 13 18  1  0  0  0  0
 13 14  2  0  0  0  0
 14 15  1  0  0  0  0
 14 39  1  0  0  0  0
 15 16  2  0  0  0  0
 15 40  1  0  0  0  0
 16 17  1  0  0  0  0
 16 41  1  0  0  0  0
 17 18  2  0  0  0  0
 19 42  1  0  0  0  0
 19 43  1  0  0  0  0
M  CHG  1   6   1
M  END
> <s_m_source_file>
AV-unprocessed.smi

> <i_m_source_file_index>
861

> <i_lp_mmshare_version>
43012

> <i_f3d_flags>
0

> <s_epik_input>
W0NIM11bQ0hdKFtDSDNdKVtDSDJdW0NIMl1OMVtDSDJdW0NIMl1PW0NASF0oW0NIMl0xKVtDSDJdW05IXWMyW2NIXVtjSF1bY0hdbm4y

> <s_epik_cmdline>
J2VwaWtfcHl0aG9uJywgJy1waCcsICc3LjAnLCAnLXRuJywgJzgnLCAnLW1hJywgJzIwMCcsICctbWV0YWxfYmluZGluZycsICctaW1hZScsICc8aW5maWxlLm1hZT4nLCAnLW9tYWUnLCAnPG91dGZpbGUubWFlPic=

> <r_lp_tautomer_probability>
0.999978

> <r_epik_Ionization_Penalty>
0.114704

> <r_epik_Ionization_Penalty_Charging>
0.0953451

> <r_epik_Ionization_Penalty_Neutral>
0.0193593

> <r_epik_State_Penalty>
0.104983

> <r_epik_Charging_Adjusted_Penalty>
0.200328

> <i_epik_Tot_Q>
1

> <i_epik_Tot_abs_Q>
1

> <r_epik_Metal_State_Penalty>
0.100113

> <b_epik_Metal_Only>
0

> <s_lp_Force_Field>
OPLS_2005

> <r_lp_Energy>
26.6721

> <b_lp_Chiralities_Consistent>
1

> <s_lp_Variant>
AV-unprocessed.smi:861-2

> <Gold.Version>
5.8.1

> <Gold.Id.Protein>
6NUR|6NUR_protein|mol2

> <Gold.PLP.Fitness>
42.7872

> <Gold.PLP.PLP>
-33.4180

> <Gold.PLP.part.hbond>
-3.0000

> <Gold.PLP.part.metal>
0.0000

> <Gold.PLP.part.buried>
-4.5441

> <Gold.PLP.part.nonpolar>
-25.3085

> <Gold.PLP.part.repulsive>
0.0849

> <Gold.PLP.ligand.clash>
0.0000

> <Gold.PLP.ligand.torsion>
1.0610

> <Gold.PLP.Chemscore.Hbond>
3.8000

> <Gold.PLP.Chemscore.CHOScore>
0.0000

> <Gold.PLP.Chemscore.Metal>
0.0000

> <Gold.Chemscore.Hbonds>
donor molecule, donor type, donor heavy atom, donor atom, acceptor molecule, acceptor atom, score
      L1  H     6    44       P1  7948  2.00
      P1  H  6931  6943       L1    17  1.00
      P1  H  6934  6947       L1    17  0.80

> <Gold.PLP.Chemscore.Internal.Correction>
0.0911

> <Gold.Rescore>
     Score         DG    S(hbond)    S(metal)    S(lipo)     H(rot)  DE(clash)    DE(int)     intcor
     15.86     -17.07       2.01        0.00      79.07       1.71       0.03       1.18       ----

> <Gold.Chemscore.Fitness>
15.8639

> <Gold.Chemscore.DG>
-17.0747

> <Gold.Chemscore.ZeroCoef>
-5.4800

> <Gold.Chemscore.Hbond>
2.0145

> <Gold.Chemscore.Metal>
0.0000

> <Gold.Chemscore.Lipo>
79.0657

> <Gold.Chemscore.Internal_Hbond>
0.0000

> <Gold.Chemscore.DEClash>
0.0310

> <Gold.Chemscore.DEInternal>
1.1798

> <Gold.Chemscore.Rot>
1.7127

> <Gold.Chemscore.Internal.Correction>
   9.000000E+99

> <Gold.Chemscore.Hbonds>
donor molecule, donor type, donor heavy atom, donor atom, acceptor molecule, acceptor atom, score
      L1  H     6    44       P1  7948  0.92
      P1  H  6931  6943       L1    17  0.38
      P1  H  6934  6947       L1    17  0.19

> <Gold.Chemscore.Hbond.Weighted>
-6.7284

> <Gold.Chemscore.Metal.Weighted>
-0.0000

> <Gold.Chemscore.Lipo.Weighted>
-9.2507

> <Gold.Chemscore.Internal_Hbond.Weighted>
0.0000

> <Gold.Chemscore.DEClash.Weighted>
0.0310

> <Gold.Chemscore.DEInternal.Weighted>
1.1798

> <Gold.Chemscore.Rot.Weighted>
4.3844

> <Gold.Chemscore.Internal.Correction.Weighted>
   9.000000E+99

> <Gold.Protein.RotatedTorsions>
[ 6907 6896 6895 6894 ] final  167.47 input  -60.11 | X-H torsion
[ 7974 7965 7964 7962 ] final   68.42 input  175.53 | X-H torsion
[ 8008 7997 7996 7995 ] final  120.33 input   59.86 | X-H torsion
[ 10167 10162 10161 10158 ] final    3.45 input  -65.29 | X-H torsion
[ 10718 10713 10712 10709 ] final   67.86 input   66.30 | X-H torsion
[ 10763 10752 10751 10750 ] final -158.58 input  -60.55 | X-H torsion
[ 11005 11000 10999 10996 ] final -107.48 input  -57.11 | X-H torsion

> <Gold.Protein.ActiveResidues>
 VAL166  LYS551  ARG553  GLY616  TRP617  ASP618  TYR619  PRO620  LYS621  CYS622 
 ASP623  PHE694  ASN695  SER759  ASP760  ASP761  ALA762  ILE779  LEU786  VAL792 
 PHE793  MET794  SER795  GLU796  ALA797  LYS798  CYS799  TRP800  GLU811  SER814 

> <Gold.Protein.RotatedAtoms>
  151.8629  133.3460  159.3709 H   0  0  0  0  0  0  0  0  0  0  0  0  # atno 6907 bound_to 6896
  150.7174  134.5189  159.5653 H   0  0  0  0  0  0  0  0  0  0  0  0  # atno 6908 bound_to 6896
  152.2706  134.7937  160.0466 H   0  0  0  0  0  0  0  0  0  0  0  0  # atno 6909 bound_to 6896
  145.8028  139.2991  143.1145 H   0  0  0  0  0  0  0  0  0  0  0  0  # atno 7974 bound_to 7965
  156.2637  140.2833  156.1132 H   0  0  0  0  0  0  0  0  0  0  0  0  # atno 8008 bound_to 7997
  155.1234  140.0392  157.2773 H   0  0  0  0  0  0  0  0  0  0  0  0  # atno 8009 bound_to 7997
  154.6653  140.2575  155.7071 H   0  0  0  0  0  0  0  0  0  0  0  0  # atno 8010 bound_to 7997
  140.6585  143.7365  150.7696 H   0  0  0  0  0  0  0  0  0  0  0  0  # atno 10167 bound_to 10162
  157.6255  130.9343  150.0299 H   0  0  0  0  0  0  0  0  0  0  0  0  # atno 10718 bound_to 10713
  154.7545  135.3101  154.8496 H   0  0  0  0  0  0  0  0  0  0  0  0  # atno 10763 bound_to 10752
  153.9274  135.6789  153.4750 H   0  0  0  0  0  0  0  0  0  0  0  0  # atno 10764 bound_to 10752
  153.1141  135.4852  154.9015 H   0  0  0  0  0  0  0  0  0  0  0  0  # atno 10765 bound_to 10752
  141.0952  133.8984  157.1981 H   0  0  0  0  0  0  0  0  0  0  0  0  # atno 11005 bound_to 11000
  145.9860  140.8643  143.0090 LP  0  0  0  0  0  0  0  0  0  0  0  0  # atno 17320 bound_to 7965
  144.6766  140.2147  143.7373 LP  0  0  0  0  0  0  0  0  0  0  0  0  # atno 17321 bound_to 7965
  140.1030  143.4770  152.2414 LP  0  0  0  0  0  0  0  0  0  0  0  0  # atno 17342 bound_to 10162
  139.5813  144.7511  151.3633 LP  0  0  0  0  0  0  0  0  0  0  0  0  # atno 17343 bound_to 10162
  156.1425  130.3642  149.9561 LP  0  0  0  0  0  0  0  0  0  0  0  0  # atno 17370 bound_to 10713
  156.7599  130.9147  151.3641 LP  0  0  0  0  0  0  0  0  0  0  0  0  # atno 17371 bound_to 10713
  139.9787  135.0105  156.9695 LP  0  0  0  0  0  0  0  0  0  0  0  0  # atno 17394 bound_to 11000
  140.5158  134.0957  155.7280 LP  0  0  0  0  0  0  0  0  0  0  0  0  # atno 17395 bound_to 11000

$$$$
