AV-unprocessed.smi:1260|AV-procd|sdf|5293|dock2
  -GOLD-   22720 4413D 1   1.00000     0.00000
 Structure written by MMmdl.
 37 39  0  0  0  0  0  0  0  0  2 V2000
  150.4204  140.2030  157.9289 O   0  0  0  0  0  0  0  0  0  0  0  0
  150.8783  140.9792  157.0911 C   0  0  0  0  0  0  0  0  0  0  0  0
  151.0119  140.5379  155.6342 C   0  0  0  0  0  0  0  0  0  0  0  0
  151.5463  139.1915  155.5555 N   0  0  0  0  0  0  0  0  0  0  0  0
  151.7593  138.3920  154.5082 C   0  0  0  0  0  0  0  0  0  0  0  0
  152.2855  137.2340  154.8757 N   0  0  0  0  0  0  0  0  0  0  0  0
  152.3894  137.3583  156.2511 N   0  0  0  0  0  0  0  0  0  0  0  0
  151.9536  138.5183  156.6602 N   0  0  0  0  0  0  0  0  0  0  0  0
  151.3000  142.2198  157.3827 N   0  0  0  0  0  0  0  0  0  0  0  0
  151.3075  142.8135  158.7168 C   0  0  2  0  0  0  0  0  0  0  0  0
  150.5684  144.1572  158.7802 C   0  0  0  0  0  0  0  0  0  0  0  0
  151.3785  145.0228  159.7663 C   0  0  0  0  0  0  0  0  0  0  0  0
  152.4921  144.1799  160.2611 N   0  3  1  0  0  0  0  0  0  0  0  0
  152.1975  143.5942  161.5985 C   0  0  0  0  0  0  0  0  0  0  0  0
  153.2304  142.5369  162.0101 C   0  0  0  0  0  0  0  0  0  0  0  0
  153.2936  141.4232  160.9619 C   0  0  0  0  0  0  0  0  0  0  0  0
  153.6567  142.0276  159.6023 C   0  0  0  0  0  0  0  0  0  0  0  0
  152.7207  143.1851  159.1850 C   0  0  1  0  0  0  0  0  0  0  0  0
  150.0378  140.5709  155.1437 H   0  0  0  0  0  0  0  0  0  0  0  0
  151.6722  141.2127  155.0877 H   0  0  0  0  0  0  0  0  0  0  0  0
  151.5375  138.6586  153.4855 H   0  0  0  0  0  0  0  0  0  0  0  0
  151.6549  142.7888  156.6276 H   0  0  0  0  0  0  0  0  0  0  0  0
  150.8443  142.1372  159.4374 H   0  0  0  0  0  0  0  0  0  0  0  0
  150.5398  144.6426  157.8034 H   0  0  0  0  0  0  0  0  0  0  0  0
  149.5372  144.0236  159.1093 H   0  0  0  0  0  0  0  0  0  0  0  0
  151.8016  145.8794  159.2401 H   0  0  0  0  0  0  0  0  0  0  0  0
  150.7614  145.4162  160.5758 H   0  0  0  0  0  0  0  0  0  0  0  0
  152.1742  144.3950  162.3385 H   0  0  0  0  0  0  0  0  0  0  0  0
  151.2035  143.1442  161.5970 H   0  0  0  0  0  0  0  0  0  0  0  0
  154.2121  142.9985  162.1250 H   0  0  0  0  0  0  0  0  0  0  0  0
  152.9674  142.1187  162.9821 H   0  0  0  0  0  0  0  0  0  0  0  0
  154.0338  140.6760  161.2500 H   0  0  0  0  0  0  0  0  0  0  0  0
  152.3352  140.9060  160.9021 H   0  0  0  0  0  0  0  0  0  0  0  0
  154.6772  142.4094  159.6573 H   0  0  0  0  0  0  0  0  0  0  0  0
  153.6738  141.2519  158.8367 H   0  0  0  0  0  0  0  0  0  0  0  0
  153.2106  143.7184  158.3673 H   0  0  0  0  0  0  0  0  0  0  0  0
  153.3226  144.7463  160.3599 H   0  0  0  0  0  0  0  0  0  0  0  0
  1  2  2  0  0  0  0
  2  3  1  0  0  0  0
  2  9  1  0  0  0  0
  3  4  1  0  0  0  0
  3 19  1  0  0  0  0
  3 20  1  0  0  0  0
  4  8  1  0  0  0  0
  4  5  1  0  0  0  0
  5  6  2  0  0  0  0
  5 21  1  0  0  0  0
  6  7  1  0  0  0  0
  7  8  2  0  0  0  0
  9 10  1  0  0  0  0
  9 22  1  0  0  0  0
 10 18  1  0  0  0  0
 10 11  1  0  0  0  0
 10 23  1  0  0  0  0
 11 12  1  0  0  0  0
 11 24  1  0  0  0  0
 11 25  1  0  0  0  0
 12 13  1  0  0  0  0
 12 26  1  0  0  0  0
 12 27  1  0  0  0  0
 13 18  1  0  0  0  0
 13 14  1  0  0  0  0
 13 37  1  0  0  0  0
 14 15  1  0  0  0  0
 14 28  1  0  0  0  0
 14 29  1  0  0  0  0
 15 16  1  0  0  0  0
 15 30  1  0  0  0  0
 15 31  1  0  0  0  0
 16 17  1  0  0  0  0
 16 32  1  0  0  0  0
 16 33  1  0  0  0  0
 17 18  1  0  0  0  0
 17 34  1  0  0  0  0
 17 35  1  0  0  0  0
 18 36  1  0  0  0  0
M  CHG  1  13   1
M  END
> <s_m_source_file>
AV-unprocessed.smi

> <i_m_source_file_index>
1260

> <i_lp_mmshare_version>
43012

> <i_f3d_flags>
0

> <s_epik_input>
bjFubltjSF1uMVtDSDJdQyg9TylbTkhdW0NASF0oW0NIMl1bQ0gyXTIpW0NAQEhdKE4yMylbQ0gyXVtDSDJdW0NIMl1bQ0gyXTM=

> <s_epik_cmdline>
J2VwaWtfcHl0aG9uJywgJy1waCcsICc3LjAnLCAnLXRuJywgJzgnLCAnLW1hJywgJzIwMCcsICctbWV0YWxfYmluZGluZycsICctaW1hZScsICc8aW5maWxlLm1hZT4nLCAnLW9tYWUnLCAnPG91dGZpbGUubWFlPic=

> <r_lp_tautomer_probability>
1

> <r_epik_Ionization_Penalty>
0.00234324

> <r_epik_Ionization_Penalty_Charging>
0.00233897

> <r_epik_Ionization_Penalty_Neutral>
4.26861e-06

> <r_epik_State_Penalty>
0.00161477

> <r_epik_Charging_Adjusted_Penalty>
0.00395374

> <i_epik_Tot_Q>
1

> <i_epik_Tot_abs_Q>
1

> <r_epik_Metal_State_Penalty>
-0

> <b_epik_Metal_Only>
0

> <s_lp_Force_Field>
OPLS_2005

> <r_lp_Energy>
39.6077

> <b_lp_Chiralities_Consistent>
1

> <s_lp_Variant>
AV-unprocessed.smi:1260-1

> <Gold.Version>
5.8.1

> <Gold.Id.Protein>
6NUR|6NUR_protein|mol2

> <Gold.PLP.Fitness>
42.9092

> <Gold.PLP.PLP>
-41.1766

> <Gold.PLP.part.hbond>
-1.4247

> <Gold.PLP.part.metal>
0.0000

> <Gold.PLP.part.buried>
-5.1661

> <Gold.PLP.part.nonpolar>
-34.4728

> <Gold.PLP.part.repulsive>
0.1610

> <Gold.PLP.ligand.clash>
0.0000

> <Gold.PLP.ligand.torsion>
0.2443

> <Gold.PLP.Chemscore.Hbond>
0.7360

> <Gold.PLP.Chemscore.CHOScore>
0.0000

> <Gold.PLP.Chemscore.Metal>
0.0000

> <Gold.Chemscore.Hbonds>
donor molecule, donor type, donor heavy atom, donor atom, acceptor molecule, acceptor atom, score
      P1  H 10752 10764       L1     6  0.74

> <Gold.PLP.Chemscore.Internal.Correction>
0.0133

> <Gold.Rescore>
     Score         DG    S(hbond)    S(metal)    S(lipo)     H(rot)  DE(clash)    DE(int)     intcor
     13.11     -15.06       0.96        0.00      97.66       1.98       0.00       1.95       ----

> <Gold.Chemscore.Fitness>
13.1075

> <Gold.Chemscore.DG>
-15.0616

> <Gold.Chemscore.ZeroCoef>
-5.4800

> <Gold.Chemscore.Hbond>
0.9620

> <Gold.Chemscore.Metal>
0.0000

> <Gold.Chemscore.Lipo>
97.6610

> <Gold.Chemscore.Internal_Hbond>
0.0000

> <Gold.Chemscore.DEClash>
0.0047

> <Gold.Chemscore.DEInternal>
1.9494

> <Gold.Chemscore.Rot>
1.9757

> <Gold.Chemscore.Internal.Correction>
   9.000000E+99

> <Gold.Chemscore.Hbonds>
donor molecule, donor type, donor heavy atom, donor atom, acceptor molecule, acceptor atom, score
      P1  H 10752 10764       L1     6  0.22

> <Gold.Chemscore.Hbond.Weighted>
-3.2130

> <Gold.Chemscore.Metal.Weighted>
-0.0000

> <Gold.Chemscore.Lipo.Weighted>
-11.4263

> <Gold.Chemscore.Internal_Hbond.Weighted>
0.0000

> <Gold.Chemscore.DEClash.Weighted>
0.0047

> <Gold.Chemscore.DEInternal.Weighted>
1.9494

> <Gold.Chemscore.Rot.Weighted>
5.0578

> <Gold.Chemscore.Internal.Correction.Weighted>
   9.000000E+99

> <Gold.Protein.RotatedTorsions>
[ 6907 6896 6895 6894 ] final -102.33 input  -60.11 | X-H torsion
[ 7974 7965 7964 7962 ] final  -30.38 input  175.53 | X-H torsion
[ 8008 7997 7996 7995 ] final  -96.80 input   59.86 | X-H torsion
[ 10167 10162 10161 10158 ] final   22.09 input  -65.29 | X-H torsion
[ 10718 10713 10712 10709 ] final   49.58 input   66.30 | X-H torsion
[ 10763 10752 10751 10750 ] final  -57.18 input  -60.55 | X-H torsion
[ 11005 11000 10999 10996 ] final   99.17 input  -57.11 | X-H torsion

> <Gold.Protein.ActiveResidues>
 VAL166  LYS551  ARG553  GLY616  TRP617  ASP618  TYR619  PRO620  LYS621  CYS622 
 ASP623  PHE694  ASN695  SER759  ASP760  ASP761  ALA762  ILE779  LEU786  VAL792 
 PHE793  MET794  SER795  GLU796  ALA797  LYS798  CYS799  TRP800  GLU811  SER814 

> <Gold.Protein.RotatedAtoms>
  150.7191  134.0598  159.3826 H   0  0  0  0  0  0  0  0  0  0  0  0  # atno 6907 bound_to 6896
  151.8577  135.0533  160.0475 H   0  0  0  0  0  0  0  0  0  0  0  0  # atno 6908 bound_to 6896
  152.2741  133.5374  159.5494 H   0  0  0  0  0  0  0  0  0  0  0  0  # atno 6909 bound_to 6896
  146.1147  140.5533  142.8762 H   0  0  0  0  0  0  0  0  0  0  0  0  # atno 7974 bound_to 7965
  154.7793  140.0468  157.1114 H   0  0  0  0  0  0  0  0  0  0  0  0  # atno 8008 bound_to 7997
  154.9724  140.3091  155.4962 H   0  0  0  0  0  0  0  0  0  0  0  0  # atno 8009 bound_to 7997
  156.2934  140.2251  156.4818 H   0  0  0  0  0  0  0  0  0  0  0  0  # atno 8010 bound_to 7997
  140.5376  143.9734  150.6500 H   0  0  0  0  0  0  0  0  0  0  0  0  # atno 10167 bound_to 10162
  157.4800  130.8309  149.8083 H   0  0  0  0  0  0  0  0  0  0  0  0  # atno 10718 bound_to 10713
  154.2184  135.6382  153.5137 H   0  0  0  0  0  0  0  0  0  0  0  0  # atno 10763 bound_to 10752
  152.9974  135.5490  154.6141 H   0  0  0  0  0  0  0  0  0  0  0  0  # atno 10764 bound_to 10752
  154.5595  135.2908  155.0907 H   0  0  0  0  0  0  0  0  0  0  0  0  # atno 10765 bound_to 10752
  139.8771  134.9083  156.4566 H   0  0  0  0  0  0  0  0  0  0  0  0  # atno 11005 bound_to 11000
  144.7542  140.5266  143.6780 LP  0  0  0  0  0  0  0  0  0  0  0  0  # atno 17320 bound_to 7965
  145.5592  139.1479  143.3351 LP  0  0  0  0  0  0  0  0  0  0  0  0  # atno 17321 bound_to 7965
  140.3126  143.3188  152.0864 LP  0  0  0  0  0  0  0  0  0  0  0  0  # atno 17342 bound_to 10162
  139.4976  144.6626  151.6429 LP  0  0  0  0  0  0  0  0  0  0  0  0  # atno 17343 bound_to 10162
  156.0117  130.3830  150.2244 LP  0  0  0  0  0  0  0  0  0  0  0  0  # atno 17370 bound_to 10713
  157.0430  131.0040  151.3277 LP  0  0  0  0  0  0  0  0  0  0  0  0  # atno 17371 bound_to 10713
  140.8894  133.7859  155.9554 LP  0  0  0  0  0  0  0  0  0  0  0  0  # atno 17394 bound_to 11000
  140.8770  134.2657  157.5163 LP  0  0  0  0  0  0  0  0  0  0  0  0  # atno 17395 bound_to 11000

$$$$
