AV-unprocessed.smi:1071|AV-procd|sdf|4680|dock9
  -GOLD-   22720 3193D 1   1.00000     0.00000
 Structure written by MMmdl.
 47 48  0  0  0  0  0  0  0  0  2 V2000
  149.3461  125.5414  150.3500 C   0  0  0  0  0  0  0  0  0  0  0  0
  148.6132  126.6675  149.9008 O   0  0  0  0  0  0  0  0  0  0  0  0
  148.4611  127.6535  150.9081 C   0  0  0  0  0  0  0  0  0  0  0  0
  147.3029  127.2544  151.8269 C   0  0  0  0  0  0  0  0  0  0  0  0
  147.2254  128.1897  152.8986 O   0  0  0  0  0  0  0  0  0  0  0  0
  146.6490  129.4202  152.6582 C   0  0  0  0  0  0  0  0  0  0  0  0
  145.8957  129.5929  151.4801 C   0  0  0  0  0  0  0  0  0  0  0  0
  145.3061  130.8461  151.2294 C   0  0  0  0  0  0  0  0  0  0  0  0
  145.4755  131.8849  152.1666 C   0  0  0  0  0  0  0  0  0  0  0  0
  144.8889  133.1472  151.8832 N   0  0  0  0  0  0  0  0  0  0  0  0
  144.7373  134.2003  152.7092 C   0  0  0  0  0  0  0  0  0  0  0  0
  144.9095  134.1430  153.9263 O   0  0  0  0  0  0  0  0  0  0  0  0
  144.2143  135.2822  152.0825 N   0  0  0  0  0  0  0  0  0  0  0  0
  144.6666  135.6329  150.7280 C   0  0  0  0  0  0  0  0  0  0  0  0
  145.8514  136.6156  150.8288 C   0  0  0  0  0  0  0  0  0  0  0  0
  145.4988  137.8147  151.6334 N   0  3  2  0  0  0  0  0  0  0  0  0
  146.6271  138.7607  151.7629 C   0  0  0  0  0  0  0  0  0  0  0  0
  144.8791  137.4862  152.9442 C   0  0  0  0  0  0  0  0  0  0  0  0
  143.7148  136.4885  152.7722 C   0  0  2  0  0  0  0  0  0  0  0  0
  142.9580  136.2234  154.0910 C   0  0  0  0  0  0  0  0  0  0  0  0
  146.2598  131.6160  153.3146 C   0  0  0  0  0  0  0  0  0  0  0  0
  146.8312  130.4178  153.5582 N   0  0  0  0  0  0  0  0  0  0  0  0
  149.4264  124.8117  149.5443 H   0  0  0  0  0  0  0  0  0  0  0  0
  148.8506  125.0585  151.1933 H   0  0  0  0  0  0  0  0  0  0  0  0
  150.3558  125.8233  150.6512 H   0  0  0  0  0  0  0  0  0  0  0  0
  149.3821  127.7410  151.4864 H   0  0  0  0  0  0  0  0  0  0  0  0
  148.2605  128.6261  150.4558 H   0  0  0  0  0  0  0  0  0  0  0  0
  146.3709  127.2449  151.2594 H   0  0  0  0  0  0  0  0  0  0  0  0
  147.4732  126.2490  152.2155 H   0  0  0  0  0  0  0  0  0  0  0  0
  145.7738  128.7793  150.7805 H   0  0  0  0  0  0  0  0  0  0  0  0
  144.7284  131.0025  150.3299 H   0  0  0  0  0  0  0  0  0  0  0  0
  144.5422  133.2645  150.9424 H   0  0  0  0  0  0  0  0  0  0  0  0
  144.9650  134.7630  150.1411 H   0  0  0  0  0  0  0  0  0  0  0  0
  143.8443  136.0895  150.1748 H   0  0  0  0  0  0  0  0  0  0  0  0
  146.7082  136.1156  151.2841 H   0  0  0  0  0  0  0  0  0  0  0  0
  146.1606  136.9260  149.8300 H   0  0  0  0  0  0  0  0  0  0  0  0
  147.4511  138.3132  152.3205 H   0  0  0  0  0  0  0  0  0  0  0  0
  146.3130  139.6658  152.2838 H   0  0  0  0  0  0  0  0  0  0  0  0
  146.9978  139.0543  150.7803 H   0  0  0  0  0  0  0  0  0  0  0  0
  145.6357  137.0706  153.6120 H   0  0  0  0  0  0  0  0  0  0  0  0
  144.5169  138.4045  153.4078 H   0  0  0  0  0  0  0  0  0  0  0  0
  142.9795  136.9475  152.1088 H   0  0  0  0  0  0  0  0  0  0  0  0
  142.4495  137.1277  154.4263 H   0  0  0  0  0  0  0  0  0  0  0  0
  143.6194  135.9177  154.9012 H   0  0  0  0  0  0  0  0  0  0  0  0
  142.1977  135.4524  153.9628 H   0  0  0  0  0  0  0  0  0  0  0  0
  146.4643  132.3735  154.0552 H   0  0  0  0  0  0  0  0  0  0  0  0
  144.7839  138.2966  151.1072 H   0  0  0  0  0  0  0  0  0  0  0  0
  1  2  1  0  0  0  0
  1 23  1  0  0  0  0
  1 24  1  0  0  0  0
  1 25  1  0  0  0  0
  2  3  1  0  0  0  0
  3  4  1  0  0  0  0
  3 26  1  0  0  0  0
  3 27  1  0  0  0  0
  4  5  1  0  0  0  0
  4 28  1  0  0  0  0
  4 29  1  0  0  0  0
  5  6  1  0  0  0  0
  6 22  1  0  0  0  0
  6  7  2  0  0  0  0
  7  8  1  0  0  0  0
  7 30  1  0  0  0  0
  8  9  2  0  0  0  0
  8 31  1  0  0  0  0
  9 10  1  0  0  0  0
  9 21  1  0  0  0  0
 10 11  1  0  0  0  0
 10 32  1  0  0  0  0
 11 12  2  0  0  0  0
 11 13  1  0  0  0  0
 13 19  1  0  0  0  0
 13 14  1  0  0  0  0
 14 15  1  0  0  0  0
 14 33  1  0  0  0  0
 14 34  1  0  0  0  0
 15 16  1  0  0  0  0
 15 35  1  0  0  0  0
 15 36  1  0  0  0  0
 16 17  1  0  0  0  0
 16 18  1  0  0  0  0
 16 47  1  0  0  0  0
 17 37  1  0  0  0  0
 17 38  1  0  0  0  0
 17 39  1  0  0  0  0
 18 19  1  0  0  0  0
 18 40  1  0  0  0  0
 18 41  1  0  0  0  0
 19 20  1  0  0  0  0
 19 42  1  0  0  0  0
 20 43  1  0  0  0  0
 20 44  1  0  0  0  0
 20 45  1  0  0  0  0
 21 22  2  0  0  0  0
 21 46  1  0  0  0  0
M  CHG  1  16   1
M  END
> <s_m_source_file>
AV-unprocessed.smi

> <i_m_source_file_index>
1071

> <i_lp_mmshare_version>
43012

> <i_f3d_flags>
0

> <s_epik_input>
W0NIM11PW0NIMl1bQ0gyXU9jMVtjSF1bY0hdYyhbY0hdbjEpW05IXUMoPU8pTjJbQ0gyXVtDSDJdTihbQ0gzXSlbQ0gyXVtDQEhdMltDSDNd

> <s_epik_cmdline>
J2VwaWtfcHl0aG9uJywgJy1waCcsICc3LjAnLCAnLXRuJywgJzgnLCAnLW1hJywgJzIwMCcsICctbWV0YWxfYmluZGluZycsICctaW1hZScsICc8aW5maWxlLm1hZT4nLCAnLW9tYWUnLCAnPG91dGZpbGUubWFlPic=

> <r_lp_tautomer_probability>
1

> <r_epik_Ionization_Penalty>
0.25455

> <r_epik_Ionization_Penalty_Charging>
0.254506

> <r_epik_Ionization_Penalty_Neutral>
4.43365e-05

> <r_epik_State_Penalty>
0.245983

> <r_epik_Charging_Adjusted_Penalty>
0.500488

> <i_epik_Tot_Q>
1

> <i_epik_Tot_abs_Q>
1

> <r_epik_Metal_State_Penalty>
0.245987

> <b_epik_Metal_Only>
0

> <s_lp_Force_Field>
OPLS_2005

> <r_lp_Energy>
54.7367

> <b_lp_Chiralities_Consistent>
1

> <s_lp_Variant>
AV-unprocessed.smi:1071-4

> <Gold.Version>
5.8.1

> <Gold.Id.Protein>
6NUR|6NUR_protein|mol2

> <Gold.PLP.Fitness>
40.0479

> <Gold.PLP.PLP>
-37.7978

> <Gold.PLP.part.hbond>
-1.0277

> <Gold.PLP.part.metal>
0.0000

> <Gold.PLP.part.buried>
-3.9993

> <Gold.PLP.part.nonpolar>
-34.2114

> <Gold.PLP.part.repulsive>
0.5660

> <Gold.PLP.ligand.clash>
0.0000

> <Gold.PLP.ligand.torsion>
0.6950

> <Gold.PLP.Chemscore.Hbond>
1.0000

> <Gold.PLP.Chemscore.CHOScore>
0.0000

> <Gold.PLP.Chemscore.Metal>
0.0000

> <Gold.Chemscore.Hbonds>
donor molecule, donor type, donor heavy atom, donor atom, acceptor molecule, acceptor atom, score
      L1  H    16    47       P1 10171  1.00

> <Gold.PLP.Chemscore.Internal.Correction>
0.6401

> <Gold.Rescore>
     Score         DG    S(hbond)    S(metal)    S(lipo)     H(rot)  DE(clash)    DE(int)     intcor
     12.05     -15.86       0.99        0.00      95.55       1.60       0.29       3.52       ----

> <Gold.Chemscore.Fitness>
12.0537

> <Gold.Chemscore.DG>
-15.8625

> <Gold.Chemscore.ZeroCoef>
-5.4800

> <Gold.Chemscore.Hbond>
0.9912

> <Gold.Chemscore.Metal>
0.0000

> <Gold.Chemscore.Lipo>
95.5499

> <Gold.Chemscore.Internal_Hbond>
0.0000

> <Gold.Chemscore.DEClash>
0.2860

> <Gold.Chemscore.DEInternal>
3.5229

> <Gold.Chemscore.Rot>
1.6045

> <Gold.Chemscore.Internal.Correction>
   9.000000E+99

> <Gold.Chemscore.Hbonds>
donor molecule, donor type, donor heavy atom, donor atom, acceptor molecule, acceptor atom, score
      L1  H    16    47       P1 10171  0.97

> <Gold.Chemscore.Hbond.Weighted>
-3.3107

> <Gold.Chemscore.Metal.Weighted>
-0.0000

> <Gold.Chemscore.Lipo.Weighted>
-11.1793

> <Gold.Chemscore.Internal_Hbond.Weighted>
0.0000

> <Gold.Chemscore.DEClash.Weighted>
0.2860

> <Gold.Chemscore.DEInternal.Weighted>
3.5229

> <Gold.Chemscore.Rot.Weighted>
4.1075

> <Gold.Chemscore.Internal.Correction.Weighted>
   9.000000E+99

> <Gold.Protein.RotatedTorsions>
[ 6907 6896 6895 6894 ] final   22.27 input  -60.11 | X-H torsion
[ 7974 7965 7964 7962 ] final -135.86 input  175.53 | X-H torsion
[ 8008 7997 7996 7995 ] final   10.93 input   59.86 | X-H torsion
[ 10167 10162 10161 10158 ] final -168.24 input  -65.29 | X-H torsion
[ 10718 10713 10712 10709 ] final -118.53 input   66.30 | X-H torsion
[ 10763 10752 10751 10750 ] final -107.87 input  -60.55 | X-H torsion
[ 11005 11000 10999 10996 ] final  -58.92 input  -57.11 | X-H torsion

> <Gold.Protein.ActiveResidues>
 VAL166  LYS551  ARG553  GLY616  TRP617  ASP618  TYR619  PRO620  LYS621  CYS622 
 ASP623  PHE694  ASN695  SER759  ASP760  ASP761  ALA762  ILE779  LEU786  VAL792 
 PHE793  MET794  SER795  GLU796  ALA797  LYS798  CYS799  TRP800  GLU811  SER814 

> <Gold.Protein.RotatedAtoms>
  151.9246  135.0283  160.0524 H   0  0  0  0  0  0  0  0  0  0  0  0  # atno 6907 bound_to 6896
  152.2170  133.4950  159.5150 H   0  0  0  0  0  0  0  0  0  0  0  0  # atno 6908 bound_to 6896
  150.6990  134.1309  159.4112 H   0  0  0  0  0  0  0  0  0  0  0  0  # atno 6909 bound_to 6896
  144.8977  140.6729  143.5105 H   0  0  0  0  0  0  0  0  0  0  0  0  # atno 7974 bound_to 7965
  154.8001  140.2850  155.5928 H   0  0  0  0  0  0  0  0  0  0  0  0  # atno 8008 bound_to 7997
  156.2976  140.2588  156.2796 H   0  0  0  0  0  0  0  0  0  0  0  0  # atno 8009 bound_to 7997
  154.9568  140.0378  157.2160 H   0  0  0  0  0  0  0  0  0  0  0  0  # atno 8010 bound_to 7997
  139.5998  144.1035  152.1730 H   0  0  0  0  0  0  0  0  0  0  0  0  # atno 10167 bound_to 10162
  156.1113  130.6251  150.9302 H   0  0  0  0  0  0  0  0  0  0  0  0  # atno 10718 bound_to 10713
  154.8101  135.4659  154.0494 H   0  0  0  0  0  0  0  0  0  0  0  0  # atno 10763 bound_to 10752
  153.1932  135.6858  153.8333 H   0  0  0  0  0  0  0  0  0  0  0  0  # atno 10764 bound_to 10752
  153.7843  135.3252  155.3347 H   0  0  0  0  0  0  0  0  0  0  0  0  # atno 10765 bound_to 10752
  141.1227  133.6614  156.4993 H   0  0  0  0  0  0  0  0  0  0  0  0  # atno 11005 bound_to 11000
  145.3671  139.1667  143.4352 LP  0  0  0  0  0  0  0  0  0  0  0  0  # atno 17320 bound_to 7965
  146.3090  140.3739  142.8677 LP  0  0  0  0  0  0  0  0  0  0  0  0  # atno 17321 bound_to 7965
  140.0629  144.5842  150.7250 LP  0  0  0  0  0  0  0  0  0  0  0  0  # atno 17342 bound_to 10162
  140.7240  143.2617  151.4181 LP  0  0  0  0  0  0  0  0  0  0  0  0  # atno 17343 bound_to 10162
  157.6294  131.0922  150.8470 LP  0  0  0  0  0  0  0  0  0  0  0  0  # atno 17370 bound_to 10713
  156.8581  130.5103  149.5306 LP  0  0  0  0  0  0  0  0  0  0  0  0  # atno 17371 bound_to 10713
  140.4459  134.6973  157.5015 LP  0  0  0  0  0  0  0  0  0  0  0  0  # atno 17394 bound_to 11000
  140.0198  134.6565  155.9257 LP  0  0  0  0  0  0  0  0  0  0  0  0  # atno 17395 bound_to 11000

$$$$
