AV-unprocessed.smi:1570|AV-procd|sdf|6314|dock6
  -GOLD-   22720 6513D 1   1.00000     0.00000
 Structure written by MMmdl.
 51 53  0  0  0  0  0  0  0  0  1 V2000
  153.6459  138.4645  154.5194 C   0  0  0  0  0  0  0  0  0  0  0  0
  153.0218  138.2619  155.9058 C   0  0  0  0  0  0  0  0  0  0  0  0
  152.1744  139.3931  156.2749 N   0  0  0  0  0  0  0  0  0  0  0  0
  151.2161  139.9669  155.5098 C   0  0  0  0  0  0  0  0  0  0  0  0
  150.8954  139.6223  154.3723 O   0  0  0  0  0  0  0  0  0  0  0  0
  150.6799  140.9955  156.2080 N   0  0  0  0  0  0  0  0  0  0  0  0
  149.6163  141.8916  155.7568 C   0  0  0  0  0  0  0  0  0  0  0  0
  148.6714  141.1997  154.7542 C   0  0  2  0  0  0  0  0  0  0  0  0
  149.1867  141.4026  153.4535 O   0  0  0  0  0  0  0  0  0  0  0  0
  147.2624  141.8259  154.7884 C   0  0  0  0  0  0  0  0  0  0  0  0
  146.5105  141.6210  156.0281 N   0  0  0  0  0  0  0  0  0  0  0  0
  146.9636  142.5380  157.0663 C   0  0  0  0  0  0  0  0  0  0  0  0
  146.1582  142.3801  158.3682 C   0  0  2  0  0  0  0  0  0  0  0  0
  146.6883  143.2834  159.4867 C   0  0  0  0  0  0  0  0  0  0  0  0
  146.2414  141.0279  158.8142 O   0  0  0  0  0  0  0  0  0  0  0  0
  145.8492  140.0448  157.8549 C   0  0  1  0  0  0  0  0  0  0  0  0
  144.3221  139.9998  157.6759 C   0  0  0  0  0  0  0  0  0  0  0  0
  146.6122  140.2518  156.5310 C   0  0  0  0  0  0  0  0  0  0  0  0
  151.3277  141.0957  157.4478 C   0  0  0  0  0  0  0  0  0  0  0  0
  151.1571  141.9985  158.5118 C   0  0  0  0  0  0  0  0  0  0  0  0
  151.9915  141.8319  159.6417 C   0  0  0  0  0  0  0  0  0  0  0  0
  152.9576  140.7935  159.6853 C   0  0  0  0  0  0  0  0  0  0  0  0
  153.1108  139.9002  158.5992 C   0  0  0  0  0  0  0  0  0  0  0  0
  152.2679  140.0872  157.4896 C   0  0  0  0  0  0  0  0  0  0  0  0
  154.2780  137.6177  154.2515 H   0  0  0  0  0  0  0  0  0  0  0  0
  154.2638  139.3624  154.4922 H   0  0  0  0  0  0  0  0  0  0  0  0
  152.8779  138.5619  153.7517 H   0  0  0  0  0  0  0  0  0  0  0  0
  152.4369  137.3411  155.9175 H   0  0  0  0  0  0  0  0  0  0  0  0
  153.8046  138.1315  156.6532 H   0  0  0  0  0  0  0  0  0  0  0  0
  149.0508  142.1975  156.6386 H   0  0  0  0  0  0  0  0  0  0  0  0
  150.0278  142.8127  155.3424 H   0  0  0  0  0  0  0  0  0  0  0  0
  148.6265  140.1326  154.9679 H   0  0  0  0  0  0  0  0  0  0  0  0
  149.1268  140.5859  152.9812 H   0  0  0  0  0  0  0  0  0  0  0  0
  147.3410  142.8974  154.5975 H   0  0  0  0  0  0  0  0  0  0  0  0
  146.6941  141.4201  153.9499 H   0  0  0  0  0  0  0  0  0  0  0  0
  148.0227  142.3714  157.2692 H   0  0  0  0  0  0  0  0  0  0  0  0
  146.8724  143.5662  156.7140 H   0  0  0  0  0  0  0  0  0  0  0  0
  145.1149  142.6380  158.1844 H   0  0  0  0  0  0  0  0  0  0  0  0
  146.6417  144.3337  159.1983 H   0  0  0  0  0  0  0  0  0  0  0  0
  147.7255  143.0471  159.7256 H   0  0  0  0  0  0  0  0  0  0  0  0
  146.1007  143.1624  160.3969 H   0  0  0  0  0  0  0  0  0  0  0  0
  146.1492  139.0805  158.2659 H   0  0  0  0  0  0  0  0  0  0  0  0
  144.0324  139.1720  157.0285 H   0  0  0  0  0  0  0  0  0  0  0  0
  143.9344  140.9140  157.2270 H   0  0  0  0  0  0  0  0  0  0  0  0
  143.8225  139.8596  158.6347 H   0  0  0  0  0  0  0  0  0  0  0  0
  146.2356  139.5405  155.7975 H   0  0  0  0  0  0  0  0  0  0  0  0
  147.6627  140.0024  156.6886 H   0  0  0  0  0  0  0  0  0  0  0  0
  150.4245  142.7908  158.4717 H   0  0  0  0  0  0  0  0  0  0  0  0
  151.8929  142.5050  160.4807 H   0  0  0  0  0  0  0  0  0  0  0  0
  153.5857  140.6853  160.5573 H   0  0  0  0  0  0  0  0  0  0  0  0
  153.8476  139.1112  158.6247 H   0  0  0  0  0  0  0  0  0  0  0  0
  1  2  1  0  0  0  0
  1 25  1  0  0  0  0
  1 26  1  0  0  0  0
  1 27  1  0  0  0  0
  2  3  1  0  0  0  0
  2 28  1  0  0  0  0
  2 29  1  0  0  0  0
  3 24  1  0  0  0  0
  3  4  1  0  0  0  0
  4  5  2  0  0  0  0
  4  6  1  0  0  0  0
  6  7  1  0  0  0  0
  6 19  1  0  0  0  0
  7  8  1  0  0  0  0
  7 30  1  0  0  0  0
  7 31  1  0  0  0  0
  8  9  1  0  0  0  0
  8 10  1  0  0  0  0
  8 32  1  0  0  0  0
  9 33  1  0  0  0  0
 10 11  1  0  0  0  0
 10 34  1  0  0  0  0
 10 35  1  0  0  0  0
 11 18  1  0  0  0  0
 11 12  1  0  0  0  0
 12 13  1  0  0  0  0
 12 36  1  0  0  0  0
 12 37  1  0  0  0  0
 13 14  1  0  0  0  0
 13 15  1  0  0  0  0
 13 38  1  0  0  0  0
 14 39  1  0  0  0  0
 14 40  1  0  0  0  0
 14 41  1  0  0  0  0
 15 16  1  0  0  0  0
 16 17  1  0  0  0  0
 16 18  1  0  0  0  0
 16 42  1  0  0  0  0
 17 43  1  0  0  0  0
 17 44  1  0  0  0  0
 17 45  1  0  0  0  0
 18 46  1  0  0  0  0
 18 47  1  0  0  0  0
 19 24  2  0  0  0  0
 19 20  1  0  0  0  0
 20 21  2  0  0  0  0
 20 48  1  0  0  0  0
 21 22  1  0  0  0  0
 21 49  1  0  0  0  0
 22 23  2  0  0  0  0
 22 50  1  0  0  0  0
 23 24  1  0  0  0  0
 23 51  1  0  0  0  0
M  END
> <s_m_source_file>
AV-unprocessed.smi

> <i_m_source_file_index>
1570

> <i_lp_mmshare_version>
43012

> <i_f3d_flags>
0

> <s_epik_input>
W2NIXTFbY0hdW2NIXVtjSF1jKGMxMiluKFtDSDJdW0NIM10pYyg9TyluMltDSDJdW0NASF0oW09IXSlbQ0gyXU4zW0NIMl1bQ0BASF0oW0NIM10pT1tDQEBIXShbQ0gzXSlbQ0gyXTM=

> <s_epik_cmdline>
J2VwaWtfcHl0aG9uJywgJy1waCcsICc3LjAnLCAnLXRuJywgJzgnLCAnLW1hJywgJzIwMCcsICctbWV0YWxfYmluZGluZycsICctaW1hZScsICc8aW5maWxlLm1hZT4nLCAnLW9tYWUnLCAnPG91dGZpbGUubWFlPic=

> <r_epik_Ionization_Penalty>
0.214359

> <r_epik_Ionization_Penalty_Charging>
2.30976e-09

> <r_epik_Ionization_Penalty_Neutral>
0.214359

> <r_epik_State_Penalty>
0.204533

> <r_epik_Charging_Adjusted_Penalty>
0.204533

> <i_epik_Tot_Q>
0

> <i_epik_Tot_abs_Q>
0

> <r_epik_Metal_State_Penalty>
0.204533

> <b_epik_Metal_Only>
0

> <s_lp_Force_Field>
OPLS_2005

> <r_lp_Energy>
63.7902

> <b_lp_Chiralities_Consistent>
1

> <s_lp_Variant>
AV-unprocessed.smi:1570-3

> <Gold.Version>
5.8.1

> <Gold.Id.Protein>
6NUR|6NUR_protein|mol2

> <Gold.PLP.Fitness>
44.7794

> <Gold.PLP.PLP>
-37.1924

> <Gold.PLP.part.hbond>
-5.0000

> <Gold.PLP.part.metal>
0.0000

> <Gold.PLP.part.buried>
0.8341

> <Gold.PLP.part.nonpolar>
-32.2899

> <Gold.PLP.part.repulsive>
0.2198

> <Gold.PLP.ligand.clash>
0.0000

> <Gold.PLP.ligand.torsion>
0.9718

> <Gold.PLP.Chemscore.Hbond>
3.1280

> <Gold.PLP.Chemscore.CHOScore>
0.0000

> <Gold.PLP.Chemscore.Metal>
0.0000

> <Gold.Chemscore.Hbonds>
donor molecule, donor type, donor heavy atom, donor atom, acceptor molecule, acceptor atom, score
      L1  H     9    33       P1  7957  0.66
      P1  H  6934  6946       L1    15  0.50
      P1  H  7989  7998       L1     5  1.00
      P1  H  8011  8017       L1     9  0.93

> <Gold.PLP.Chemscore.Internal.Correction>
0.1465

> <Gold.Rescore>
     Score         DG    S(hbond)    S(metal)    S(lipo)     H(rot)  DE(clash)    DE(int)     intcor
     11.81     -16.56       1.91        0.00      85.13       2.06       0.89       3.85       ----

> <Gold.Chemscore.Fitness>
11.8099

> <Gold.Chemscore.DG>
-16.5570

> <Gold.Chemscore.ZeroCoef>
-5.4800

> <Gold.Chemscore.Hbond>
1.9113

> <Gold.Chemscore.Metal>
0.0000

> <Gold.Chemscore.Lipo>
85.1305

> <Gold.Chemscore.Internal_Hbond>
0.0000

> <Gold.Chemscore.DEClash>
0.8929

> <Gold.Chemscore.DEInternal>
3.8542

> <Gold.Chemscore.Rot>
2.0574

> <Gold.Chemscore.Internal.Correction>
   9.000000E+99

> <Gold.Chemscore.Hbonds>
donor molecule, donor type, donor heavy atom, donor atom, acceptor molecule, acceptor atom, score
      L1  H     9    33       P1  7957  0.65
      P1  H  6934  6946       L1    15  0.44
      P1  H  7989  7998       L1     5  0.26
      P1  H  8011  8017       L1     9  0.35

> <Gold.Chemscore.Hbond.Weighted>
-6.3836

> <Gold.Chemscore.Metal.Weighted>
-0.0000

> <Gold.Chemscore.Lipo.Weighted>
-9.9603

> <Gold.Chemscore.Internal_Hbond.Weighted>
0.0000

> <Gold.Chemscore.DEClash.Weighted>
0.8929

> <Gold.Chemscore.DEInternal.Weighted>
3.8542

> <Gold.Chemscore.Rot.Weighted>
5.2669

> <Gold.Chemscore.Internal.Correction.Weighted>
   9.000000E+99

> <Gold.Protein.RotatedTorsions>
[ 6907 6896 6895 6894 ] final   68.73 input  -60.11 | X-H torsion
[ 7974 7965 7964 7962 ] final  -59.78 input  175.53 | X-H torsion
[ 8008 7997 7996 7995 ] final  -32.83 input   59.86 | X-H torsion
[ 10167 10162 10161 10158 ] final  148.85 input  -65.29 | X-H torsion
[ 10718 10713 10712 10709 ] final  108.47 input   66.30 | X-H torsion
[ 10763 10752 10751 10750 ] final   12.61 input  -60.55 | X-H torsion
[ 11005 11000 10999 10996 ] final   66.16 input  -57.11 | X-H torsion

> <Gold.Protein.ActiveResidues>
 VAL166  LYS551  ARG553  GLY616  TRP617  ASP618  TYR619  PRO620  LYS621  CYS622 
 ASP623  PHE694  ASN695  SER759  ASP760  ASP761  ALA762  ILE779  LEU786  VAL792 
 PHE793  MET794  SER795  GLU796  ALA797  LYS798  CYS799  TRP800  GLU811  SER814 

> <Gold.Protein.RotatedAtoms>
  152.4639  134.5120  159.9756 H   0  0  0  0  0  0  0  0  0  0  0  0  # atno 6907 bound_to 6896
  151.5162  133.3469  159.2901 H   0  0  0  0  0  0  0  0  0  0  0  0  # atno 6908 bound_to 6896
  150.8615  134.7997  159.7148 H   0  0  0  0  0  0  0  0  0  0  0  0  # atno 6909 bound_to 6896
  145.8234  140.8526  143.0121 H   0  0  0  0  0  0  0  0  0  0  0  0  # atno 7974 bound_to 7965
  154.4167  140.1727  156.1790 H   0  0  0  0  0  0  0  0  0  0  0  0  # atno 8008 bound_to 7997
  155.9697  140.3386  155.6541 H   0  0  0  0  0  0  0  0  0  0  0  0  # atno 8009 bound_to 7997
  155.6641  140.0704  157.2534 H   0  0  0  0  0  0  0  0  0  0  0  0  # atno 8010 bound_to 7997
  139.4869  144.5647  151.7166 H   0  0  0  0  0  0  0  0  0  0  0  0  # atno 10167 bound_to 10162
  157.6585  131.0894  150.6309 H   0  0  0  0  0  0  0  0  0  0  0  0  # atno 10718 bound_to 10713
  153.1805  135.6827  153.8484 H   0  0  0  0  0  0  0  0  0  0  0  0  # atno 10763 bound_to 10752
  153.7818  135.3181  155.3368 H   0  0  0  0  0  0  0  0  0  0  0  0  # atno 10764 bound_to 10752
  154.8056  135.4750  154.0480 H   0  0  0  0  0  0  0  0  0  0  0  0  # atno 10765 bound_to 10752
  139.9849  134.6684  156.0195 H   0  0  0  0  0  0  0  0  0  0  0  0  # atno 11005 bound_to 11000
  144.6745  140.0566  143.7477 LP  0  0  0  0  0  0  0  0  0  0  0  0  # atno 17320 bound_to 7965
  145.9650  139.2828  143.1133 LP  0  0  0  0  0  0  0  0  0  0  0  0  # atno 17321 bound_to 7965
  140.5223  144.0860  150.6026 LP  0  0  0  0  0  0  0  0  0  0  0  0  # atno 17342 bound_to 10162
  140.3822  143.2797  152.0157 LP  0  0  0  0  0  0  0  0  0  0  0  0  # atno 17343 bound_to 10162
  156.6614  130.4513  149.5686 LP  0  0  0  0  0  0  0  0  0  0  0  0  # atno 17370 bound_to 10713
  156.2064  130.6652  151.1223 LP  0  0  0  0  0  0  0  0  0  0  0  0  # atno 17371 bound_to 10713
  141.1515  133.6548  156.4029 LP  0  0  0  0  0  0  0  0  0  0  0  0  # atno 17394 bound_to 11000
  140.5023  134.6474  157.5253 LP  0  0  0  0  0  0  0  0  0  0  0  0  # atno 17395 bound_to 11000

$$$$
