AV-unprocessed.smi:3338|AV-procd|sdf|12873|dock2
  -GOLD-   2272019273D 1   1.00000     0.00000
 Structure written by MMmdl.
 44 45  0  0  0  0  0  0  0  0  2 V2000
  144.8272  131.7502  150.6457 C   0  0  0  0  0  0  0  0  0  0  0  0
  144.3719  132.5274  151.8890 C   0  0  2  0  0  0  0  0  0  0  0  0
  143.8383  133.9210  151.5157 C   0  0  0  0  0  0  0  0  0  0  0  0
  143.4218  134.6881  152.7771 C   0  0  0  0  0  0  0  0  0  0  0  0
  144.5773  134.7548  153.7884 C   0  0  0  0  0  0  0  0  0  0  0  0
  145.0619  133.3938  154.1348 N   0  3  2  0  0  0  0  0  0  0  0  0
  146.0831  133.4147  155.2113 C   0  0  0  0  0  0  0  0  0  0  0  0
  145.5235  133.9704  156.5351 C   0  0  0  0  0  0  0  0  0  0  0  0
  146.5621  134.6426  157.3058 N   0  0  0  0  0  0  0  0  0  0  0  0
  146.4411  135.0124  158.5909 C   0  0  0  0  0  0  0  0  0  0  0  0
  145.4092  134.8403  159.2411 O   0  0  0  0  0  0  0  0  0  0  0  0
  147.6767  135.6634  159.2333 C   0  0  1  0  0  0  0  0  0  0  0  0
  148.0193  137.0334  158.6146 C   0  0  0  0  0  0  0  0  0  0  0  0
  147.5143  135.7468  160.6804 N   0  0  0  0  0  0  0  0  0  0  0  0
  147.2041  134.7302  161.5611 C   0  0  0  0  0  0  0  0  0  0  0  0
  147.1348  135.2757  162.8109 C   0  0  0  0  0  0  0  0  0  0  0  0
  147.4125  136.6537  162.5939 C   0  0  0  0  0  0  0  0  0  0  0  0
  147.6318  136.9341  161.3199 N   0  0  0  0  0  0  0  0  0  0  0  0
  145.5072  132.6499  152.9254 C   0  0  0  0  0  0  0  0  0  0  0  0
  145.6436  132.2615  150.1342 H   0  0  0  0  0  0  0  0  0  0  0  0
  144.0095  131.6347  149.9335 H   0  0  0  0  0  0  0  0  0  0  0  0
  145.1750  130.7517  150.9117 H   0  0  0  0  0  0  0  0  0  0  0  0
  143.5573  131.9648  152.3480 H   0  0  0  0  0  0  0  0  0  0  0  0
  144.6061  134.4834  150.9823 H   0  0  0  0  0  0  0  0  0  0  0  0
  142.9885  133.8326  150.8374 H   0  0  0  0  0  0  0  0  0  0  0  0
  143.1010  135.6959  152.5107 H   0  0  0  0  0  0  0  0  0  0  0  0
  142.5609  134.1998  153.2358 H   0  0  0  0  0  0  0  0  0  0  0  0
  145.4012  135.3444  153.3834 H   0  0  0  0  0  0  0  0  0  0  0  0
  144.2330  135.2655  154.6887 H   0  0  0  0  0  0  0  0  0  0  0  0
  146.4949  132.4128  155.3439 H   0  0  0  0  0  0  0  0  0  0  0  0
  146.9178  134.0494  154.9097 H   0  0  0  0  0  0  0  0  0  0  0  0
  144.7318  134.6918  156.3303 H   0  0  0  0  0  0  0  0  0  0  0  0
  145.0745  133.1843  157.1433 H   0  0  0  0  0  0  0  0  0  0  0  0
  147.4390  134.8235  156.8383 H   0  0  0  0  0  0  0  0  0  0  0  0
  148.5248  135.0040  159.0411 H   0  0  0  0  0  0  0  0  0  0  0  0
  148.1820  136.9507  157.5394 H   0  0  0  0  0  0  0  0  0  0  0  0
  148.9323  137.4386  159.0519 H   0  0  0  0  0  0  0  0  0  0  0  0
  147.2261  137.7651  158.7737 H   0  0  0  0  0  0  0  0  0  0  0  0
  147.0620  133.7122  161.2297 H   0  0  0  0  0  0  0  0  0  0  0  0
  146.9182  134.7678  163.7391 H   0  0  0  0  0  0  0  0  0  0  0  0
  147.4586  137.4537  163.3182 H   0  0  0  0  0  0  0  0  0  0  0  0
  145.8430  131.6513  153.2039 H   0  0  0  0  0  0  0  0  0  0  0  0
  146.3673  133.1565  152.4841 H   0  0  0  0  0  0  0  0  0  0  0  0
  144.2638  132.9002  154.5082 H   0  0  0  0  0  0  0  0  0  0  0  0
  1  2  1  0  0  0  0
  1 20  1  0  0  0  0
  1 21  1  0  0  0  0
  1 22  1  0  0  0  0
  2 19  1  0  0  0  0
  2  3  1  0  0  0  0
  2 23  1  0  0  0  0
  3  4  1  0  0  0  0
  3 24  1  0  0  0  0
  3 25  1  0  0  0  0
  4  5  1  0  0  0  0
  4 26  1  0  0  0  0
  4 27  1  0  0  0  0
  5  6  1  0  0  0  0
  5 28  1  0  0  0  0
  5 29  1  0  0  0  0
  6  7  1  0  0  0  0
  6 19  1  0  0  0  0
  6 44  1  0  0  0  0
  7  8  1  0  0  0  0
  7 30  1  0  0  0  0
  7 31  1  0  0  0  0
  8  9  1  0  0  0  0
  8 32  1  0  0  0  0
  8 33  1  0  0  0  0
  9 10  1  0  0  0  0
  9 34  1  0  0  0  0
 10 11  2  0  0  0  0
 10 12  1  0  0  0  0
 12 13  1  0  0  0  0
 12 14  1  0  0  0  0
 12 35  1  0  0  0  0
 13 36  1  0  0  0  0
 13 37  1  0  0  0  0
 13 38  1  0  0  0  0
 14 18  1  0  0  0  0
 14 15  1  0  0  0  0
 15 16  2  0  0  0  0
 15 39  1  0  0  0  0
 16 17  1  0  0  0  0
 16 40  1  0  0  0  0
 17 18  2  0  0  0  0
 17 41  1  0  0  0  0
 19 42  1  0  0  0  0
 19 43  1  0  0  0  0
M  CHG  1   6   1
M  END
> <s_m_source_file>
AV-unprocessed.smi

> <i_m_source_file_index>
3338

> <i_lp_mmshare_version>
43012

> <i_f3d_flags>
0

> <s_epik_input>
W0NIM11bQ0BASF0xW0NIMl1bQ0gyXVtDSDJdTihbQ0gyXTEpW0NIMl1bQ0gyXVtOSF1DKD1PKVtDQEhdKFtDSDNdKW4yW2NIXVtjSF1bY0hdbjI=

> <s_epik_cmdline>
J2VwaWtfcHl0aG9uJywgJy1waCcsICc3LjAnLCAnLXRuJywgJzgnLCAnLW1hJywgJzIwMCcsICctbWV0YWxfYmluZGluZycsICctaW1hZScsICc8aW5maWxlLm1hZT4nLCAnLW9tYWUnLCAnPG91dGZpbGUubWFlPic=

> <r_lp_tautomer_probability>
1

> <r_epik_Ionization_Penalty>
0.00225707

> <r_epik_Ionization_Penalty_Charging>
0.00223709

> <r_epik_Ionization_Penalty_Neutral>
1.99775e-05

> <r_epik_State_Penalty>
0.00153978

> <r_epik_Charging_Adjusted_Penalty>
0.00377687

> <i_epik_Tot_Q>
1

> <i_epik_Tot_abs_Q>
1

> <r_epik_Metal_State_Penalty>
-0

> <b_epik_Metal_Only>
0

> <s_lp_Force_Field>
OPLS_2005

> <r_lp_Energy>
19.822

> <b_lp_Chiralities_Consistent>
1

> <s_lp_Variant>
AV-unprocessed.smi:3338-5

> <Gold.Version>
5.8.1

> <Gold.Id.Protein>
6NUR|6NUR_protein|mol2

> <Gold.PLP.Fitness>
38.6302

> <Gold.PLP.PLP>
-29.3612

> <Gold.PLP.part.hbond>
-3.0000

> <Gold.PLP.part.metal>
0.0000

> <Gold.PLP.part.buried>
-5.0526

> <Gold.PLP.part.nonpolar>
-21.9551

> <Gold.PLP.part.repulsive>
0.0000

> <Gold.PLP.ligand.clash>
0.0000

> <Gold.PLP.ligand.torsion>
0.4908

> <Gold.PLP.Chemscore.Hbond>
3.3794

> <Gold.PLP.Chemscore.CHOScore>
0.0000

> <Gold.PLP.Chemscore.Metal>
0.0000

> <Gold.Chemscore.Hbonds>
donor molecule, donor type, donor heavy atom, donor atom, acceptor molecule, acceptor atom, score
      L1  H     6    44       P1 10957  2.00
      P1  H  6931  6943       L1    18  0.40
      P1  H  6934  6947       L1    18  0.58

> <Gold.PLP.Chemscore.Internal.Correction>
0.1125

> <Gold.Rescore>
     Score         DG    S(hbond)    S(metal)    S(lipo)     H(rot)  DE(clash)    DE(int)     intcor
     13.80     -15.21       1.86        0.00      68.59       1.76       0.00       1.41       ----

> <Gold.Chemscore.Fitness>
13.7988

> <Gold.Chemscore.DG>
-15.2057

> <Gold.Chemscore.ZeroCoef>
-5.4800

> <Gold.Chemscore.Hbond>
1.8558

> <Gold.Chemscore.Metal>
0.0000

> <Gold.Chemscore.Lipo>
68.5910

> <Gold.Chemscore.Internal_Hbond>
0.0000

> <Gold.Chemscore.DEClash>
0.0000

> <Gold.Chemscore.DEInternal>
1.4069

> <Gold.Chemscore.Rot>
1.7570

> <Gold.Chemscore.Internal.Correction>
   9.000000E+99

> <Gold.Chemscore.Hbonds>
donor molecule, donor type, donor heavy atom, donor atom, acceptor molecule, acceptor atom, score
      L1  H     6    44       P1 10957  0.97
      P1  H  6931  6943       L1    18  0.01
      P1  H  6934  6947       L1    18  0.42

> <Gold.Chemscore.Hbond.Weighted>
-6.1985

> <Gold.Chemscore.Metal.Weighted>
-0.0000

> <Gold.Chemscore.Lipo.Weighted>
-8.0251

> <Gold.Chemscore.Internal_Hbond.Weighted>
0.0000

> <Gold.Chemscore.DEClash.Weighted>
0.0000

> <Gold.Chemscore.DEInternal.Weighted>
1.4069

> <Gold.Chemscore.Rot.Weighted>
4.4979

> <Gold.Chemscore.Internal.Correction.Weighted>
   9.000000E+99

> <Gold.Protein.RotatedTorsions>
[ 6907 6896 6895 6894 ] final  155.08 input  -60.11 | X-H torsion
[ 7974 7965 7964 7962 ] final  161.50 input  175.53 | X-H torsion
[ 8008 7997 7996 7995 ] final  122.30 input   59.86 | X-H torsion
[ 10167 10162 10161 10158 ] final   88.70 input  -65.29 | X-H torsion
[ 10718 10713 10712 10709 ] final  141.21 input   66.30 | X-H torsion
[ 10763 10752 10751 10750 ] final  -48.15 input  -60.55 | X-H torsion
[ 11005 11000 10999 10996 ] final  -87.70 input  -57.11 | X-H torsion

> <Gold.Protein.ActiveResidues>
 VAL166  LYS551  ARG553  GLY616  TRP617  ASP618  TYR619  PRO620  LYS621  CYS622 
 ASP623  PHE694  ASN695  SER759  ASP760  ASP761  ALA762  ILE779  LEU786  VAL792 
 PHE793  MET794  SER795  GLU796  ALA797  LYS798  CYS799  TRP800  GLU811  SER814 

> <Gold.Protein.RotatedAtoms>
  152.0493  133.4012  159.4369 H   0  0  0  0  0  0  0  0  0  0  0  0  # atno 6907 bound_to 6896
  150.6871  134.3326  159.4843 H   0  0  0  0  0  0  0  0  0  0  0  0  # atno 6908 bound_to 6896
  152.1134  134.9257  160.0616 H   0  0  0  0  0  0  0  0  0  0  0  0  # atno 6909 bound_to 6896
  144.7683  139.7907  143.6307 H   0  0  0  0  0  0  0  0  0  0  0  0  # atno 7974 bound_to 7965
  156.2722  140.2789  156.1446 H   0  0  0  0  0  0  0  0  0  0  0  0  # atno 8008 bound_to 7997
  155.0917  140.0388  157.2688 H   0  0  0  0  0  0  0  0  0  0  0  0  # atno 8009 bound_to 7997
  154.6884  140.2624  155.6843 H   0  0  0  0  0  0  0  0  0  0  0  0  # atno 8010 bound_to 7997
  139.8646  144.6525  150.9018 H   0  0  0  0  0  0  0  0  0  0  0  0  # atno 10167 bound_to 10162
  157.3946  131.1009  151.0613 H   0  0  0  0  0  0  0  0  0  0  0  0  # atno 10718 bound_to 10713
  154.0731  135.6602  153.4827 H   0  0  0  0  0  0  0  0  0  0  0  0  # atno 10763 bound_to 10752
  153.0383  135.5162  154.7547 H   0  0  0  0  0  0  0  0  0  0  0  0  # atno 10764 bound_to 10752
  154.6619  135.3016  154.9822 H   0  0  0  0  0  0  0  0  0  0  0  0  # atno 10765 bound_to 10752
  141.1613  133.7527  156.9345 H   0  0  0  0  0  0  0  0  0  0  0  0  # atno 11005 bound_to 11000
  146.1808  139.5000  142.9867 LP  0  0  0  0  0  0  0  0  0  0  0  0  # atno 17320 bound_to 7965
  145.6403  141.0286  143.1815 LP  0  0  0  0  0  0  0  0  0  0  0  0  # atno 17321 bound_to 7965
  140.7770  143.3715  151.1641 LP  0  0  0  0  0  0  0  0  0  0  0  0  # atno 17342 bound_to 10162
  139.7341  143.9027  152.3029 LP  0  0  0  0  0  0  0  0  0  0  0  0  # atno 17343 bound_to 10162
  157.1634  130.6235  149.5618 LP  0  0  0  0  0  0  0  0  0  0  0  0  # atno 17370 bound_to 10713
  155.9807  130.4809  150.6787 LP  0  0  0  0  0  0  0  0  0  0  0  0  # atno 17371 bound_to 10713
  140.1364  134.9322  157.2407 LP  0  0  0  0  0  0  0  0  0  0  0  0  # atno 17394 bound_to 11000
  140.2890  134.3262  155.7320 LP  0  0  0  0  0  0  0  0  0  0  0  0  # atno 17395 bound_to 11000

$$$$
