AV-unprocessed.smi:1258|AV-procd|sdf|5290|dock3
  -GOLD-   22720 4413D 1   1.00000     0.00000
 Structure written by MMmdl.
 33 34  0  0  0  0  0  0  0  0  1 V2000
  152.7990  142.8199  162.5713 C   0  0  0  0  0  0  0  0  0  0  0  0
  152.3221  143.1480  161.1492 C   0  0  1  0  0  0  0  0  0  0  0  0
  151.9111  144.6275  161.0233 C   0  0  0  0  0  0  0  0  0  0  0  0
  151.4399  144.9644  159.6004 C   0  0  0  0  0  0  0  0  0  0  0  0
  152.5160  144.6130  158.5599 C   0  0  0  0  0  0  0  0  0  0  0  0
  152.9615  143.1379  158.6603 C   0  0  2  0  0  0  0  0  0  0  0  0
  151.9104  142.2241  158.2148 N   0  0  0  0  0  0  0  0  0  0  0  0
  152.0344  140.8936  158.0903 C   0  0  0  0  0  0  0  0  0  0  0  0
  153.0772  140.2858  158.3355 O   0  0  0  0  0  0  0  0  0  0  0  0
  150.7928  140.1395  157.6055 C   0  0  0  0  0  0  0  0  0  0  0  0
  150.5246  140.3908  156.2013 N   0  0  0  0  0  0  0  0  0  0  0  0
  149.8245  141.3555  155.6007 C   0  0  0  0  0  0  0  0  0  0  0  0
  149.8357  141.2197  154.2833 N   0  0  0  0  0  0  0  0  0  0  0  0
  150.6052  140.0845  154.0905 N   0  0  0  0  0  0  0  0  0  0  0  0
  151.0173  139.5884  155.2250 N   0  0  0  0  0  0  0  0  0  0  0  0
  153.3959  142.7914  160.0989 C   0  0  0  0  0  0  0  0  0  0  0  0
  153.6798  143.4043  162.8392 H   0  0  0  0  0  0  0  0  0  0  0  0
  153.0581  141.7650  162.6655 H   0  0  0  0  0  0  0  0  0  0  0  0
  152.0217  143.0345  163.3053 H   0  0  0  0  0  0  0  0  0  0  0  0
  151.4397  142.5369  160.9544 H   0  0  0  0  0  0  0  0  0  0  0  0
  151.1161  144.8563  161.7339 H   0  0  0  0  0  0  0  0  0  0  0  0
  152.7535  145.2684  161.2869 H   0  0  0  0  0  0  0  0  0  0  0  0
  150.5202  144.4214  159.3793 H   0  0  0  0  0  0  0  0  0  0  0  0
  151.1939  146.0246  159.5335 H   0  0  0  0  0  0  0  0  0  0  0  0
  152.1542  144.8401  157.5566 H   0  0  0  0  0  0  0  0  0  0  0  0
  153.3828  145.2559  158.7173 H   0  0  0  0  0  0  0  0  0  0  0  0
  153.8258  142.9920  158.0097 H   0  0  0  0  0  0  0  0  0  0  0  0
  151.0177  142.6385  157.9886 H   0  0  0  0  0  0  0  0  0  0  0  0
  150.9081  139.0648  157.7573 H   0  0  0  0  0  0  0  0  0  0  0  0
  149.9289  140.4577  158.1897 H   0  0  0  0  0  0  0  0  0  0  0  0
  149.3142  142.1507  156.1240 H   0  0  0  0  0  0  0  0  0  0  0  0
  154.3139  143.3343  160.3289 H   0  0  0  0  0  0  0  0  0  0  0  0
  153.6491  141.7325  160.1652 H   0  0  0  0  0  0  0  0  0  0  0  0
  1  2  1  0  0  0  0
  1 17  1  0  0  0  0
  1 18  1  0  0  0  0
  1 19  1  0  0  0  0
  2 16  1  0  0  0  0
  2  3  1  0  0  0  0
  2 20  1  0  0  0  0
  3  4  1  0  0  0  0
  3 21  1  0  0  0  0
  3 22  1  0  0  0  0
  4  5  1  0  0  0  0
  4 23  1  0  0  0  0
  4 24  1  0  0  0  0
  5  6  1  0  0  0  0
  5 25  1  0  0  0  0
  5 26  1  0  0  0  0
  6  7  1  0  0  0  0
  6 16  1  0  0  0  0
  6 27  1  0  0  0  0
  7  8  1  0  0  0  0
  7 28  1  0  0  0  0
  8  9  2  0  0  0  0
  8 10  1  0  0  0  0
 10 11  1  0  0  0  0
 10 29  1  0  0  0  0
 10 30  1  0  0  0  0
 11 15  1  0  0  0  0
 11 12  1  0  0  0  0
 12 13  2  0  0  0  0
 12 31  1  0  0  0  0
 13 14  1  0  0  0  0
 14 15  2  0  0  0  0
 16 32  1  0  0  0  0
 16 33  1  0  0  0  0
M  END
> <s_m_source_file>
AV-unprocessed.smi

> <i_m_source_file_index>
1258

> <i_lp_mmshare_version>
43012

> <i_f3d_flags>
0

> <s_epik_input>
W0NIM11bQ0BASF0xW0NIMl1bQ0gyXVtDSDJdW0NASF0oW0NIMl0xKVtOSF1DKD1PKVtDSDJdbjJbY0hdbm5uMg==

> <s_epik_cmdline>
J2VwaWtfcHl0aG9uJywgJy1waCcsICc3LjAnLCAnLXRuJywgJzgnLCAnLW1hJywgJzIwMCcsICctbWV0YWxfYmluZGluZycsICctaW1hZScsICc8aW5maWxlLm1hZT4nLCAnLW9tYWUnLCAnPG91dGZpbGUubWFlPic=

> <r_lp_tautomer_probability>
1

> <r_epik_Ionization_Penalty>
5.03816e-07

> <r_epik_Ionization_Penalty_Charging>
0

> <r_epik_Ionization_Penalty_Neutral>
5.03816e-07

> <r_epik_State_Penalty>
-0

> <r_epik_Charging_Adjusted_Penalty>
0

> <i_epik_Tot_Q>
0

> <i_epik_Tot_abs_Q>
0

> <r_epik_Metal_State_Penalty>
-0

> <b_epik_Metal_Only>
0

> <s_lp_Force_Field>
OPLS_2005

> <r_lp_Energy>
10.3289

> <b_lp_Chiralities_Consistent>
1

> <s_lp_Variant>
AV-unprocessed.smi:1258-4

> <Gold.Version>
5.8.1

> <Gold.Id.Protein>
6NUR|6NUR_protein|mol2

> <Gold.PLP.Fitness>
47.4643

> <Gold.PLP.PLP>
-38.8520

> <Gold.PLP.part.hbond>
-4.1928

> <Gold.PLP.part.metal>
0.0000

> <Gold.PLP.part.buried>
-4.0792

> <Gold.PLP.part.nonpolar>
-32.0797

> <Gold.PLP.part.repulsive>
1.3220

> <Gold.PLP.ligand.clash>
0.0000

> <Gold.PLP.ligand.torsion>
0.5104

> <Gold.PLP.Chemscore.Hbond>
2.2078

> <Gold.PLP.Chemscore.CHOScore>
1.0000

> <Gold.PLP.Chemscore.Metal>
0.0000

> <Gold.Chemscore.Hbonds>
donor molecule, donor type, donor heavy atom, donor atom, acceptor molecule, acceptor atom, score
      P1  H  7989  7998       L1    14  0.36
      P1  H  7997  8008       L1     9  0.91
      P1  H  8011  8017       L1    13  0.25
      L1  C    12    31       P1  8028  0.71

> <Gold.PLP.Chemscore.Internal.Correction>
0.0097

> <Gold.Rescore>
     Score         DG    S(hbond)    S(metal)    S(lipo)     H(rot)  DE(clash)    DE(int)     intcor
     14.02     -14.62       1.03        0.00      90.75       1.92       0.11       0.49       ----

> <Gold.Chemscore.Fitness>
14.0215

> <Gold.Chemscore.DG>
-14.6229

> <Gold.Chemscore.ZeroCoef>
-5.4800

> <Gold.Chemscore.Hbond>
1.0277

> <Gold.Chemscore.Metal>
0.0000

> <Gold.Chemscore.Lipo>
90.7503

> <Gold.Chemscore.Internal_Hbond>
0.0000

> <Gold.Chemscore.DEClash>
0.1122

> <Gold.Chemscore.DEInternal>
0.4893

> <Gold.Chemscore.Rot>
1.9169

> <Gold.Chemscore.Internal.Correction>
   9.000000E+99

> <Gold.Chemscore.Hbonds>
donor molecule, donor type, donor heavy atom, donor atom, acceptor molecule, acceptor atom, score
      P1  H  7989  7998       L1    14  0.01
      P1  H  7997  8008       L1     9  0.82
      P1  H  8011  8017       L1    13  0.18

> <Gold.Chemscore.Hbond.Weighted>
-3.4324

> <Gold.Chemscore.Metal.Weighted>
-0.0000

> <Gold.Chemscore.Lipo.Weighted>
-10.6178

> <Gold.Chemscore.Internal_Hbond.Weighted>
0.0000

> <Gold.Chemscore.DEClash.Weighted>
0.1122

> <Gold.Chemscore.DEInternal.Weighted>
0.4893

> <Gold.Chemscore.Rot.Weighted>
4.9073

> <Gold.Chemscore.Internal.Correction.Weighted>
   9.000000E+99

> <Gold.Protein.RotatedTorsions>
[ 6907 6896 6895 6894 ] final  -53.74 input  -60.11 | X-H torsion
[ 7974 7965 7964 7962 ] final  104.28 input  175.53 | X-H torsion
[ 8008 7997 7996 7995 ] final  -78.86 input   59.86 | X-H torsion
[ 10167 10162 10161 10158 ] final  110.72 input  -65.29 | X-H torsion
[ 10718 10713 10712 10709 ] final  -92.91 input   66.30 | X-H torsion
[ 10763 10752 10751 10750 ] final  107.94 input  -60.55 | X-H torsion
[ 11005 11000 10999 10996 ] final  174.64 input  -57.11 | X-H torsion

> <Gold.Protein.ActiveResidues>
 VAL166  LYS551  ARG553  GLY616  TRP617  ASP618  TYR619  PRO620  LYS621  CYS622 
 ASP623  PHE694  ASN695  SER759  ASP760  ASP761  ALA762  ILE779  LEU786  VAL792 
 PHE793  MET794  SER795  GLU796  ALA797  LYS798  CYS799  TRP800  GLU811  SER814 

> <Gold.Protein.RotatedAtoms>
  150.8400  134.7688  159.6924 H   0  0  0  0  0  0  0  0  0  0  0  0  # atno 6907 bound_to 6896
  152.4489  134.5432  159.9855 H   0  0  0  0  0  0  0  0  0  0  0  0  # atno 6908 bound_to 6896
  151.5574  133.3370  159.3000 H   0  0  0  0  0  0  0  0  0  0  0  0  # atno 6909 bound_to 6896
  145.3349  139.2477  143.3641 H   0  0  0  0  0  0  0  0  0  0  0  0  # atno 7974 bound_to 7965
  154.5729  140.0687  156.8991 H   0  0  0  0  0  0  0  0  0  0  0  0  # atno 8008 bound_to 7997
  155.2601  140.3358  155.4256 H   0  0  0  0  0  0  0  0  0  0  0  0  # atno 8009 bound_to 7997
  156.2132  140.1768  156.7633 H   0  0  0  0  0  0  0  0  0  0  0  0  # atno 8010 bound_to 7997
  139.6666  144.7127  151.1764 H   0  0  0  0  0  0  0  0  0  0  0  0  # atno 10167 bound_to 10162
  156.0007  130.5006  150.5697 H   0  0  0  0  0  0  0  0  0  0  0  0  # atno 10718 bound_to 10713
  153.4137  135.3828  155.2067 H   0  0  0  0  0  0  0  0  0  0  0  0  # atno 10763 bound_to 10752
  154.8740  135.3800  154.4469 H   0  0  0  0  0  0  0  0  0  0  0  0  # atno 10764 bound_to 10752
  153.4981  135.7088  153.5909 H   0  0  0  0  0  0  0  0  0  0  0  0  # atno 10765 bound_to 10752
  140.3535  134.7174  157.4284 H   0  0  0  0  0  0  0  0  0  0  0  0  # atno 11005 bound_to 11000
  146.3031  140.3934  142.8697 LP  0  0  0  0  0  0  0  0  0  0  0  0  # atno 17320 bound_to 7965
  144.8835  140.7432  143.5971 LP  0  0  0  0  0  0  0  0  0  0  0  0  # atno 17321 bound_to 7965
  140.7602  143.5909  150.8797 LP  0  0  0  0  0  0  0  0  0  0  0  0  # atno 17342 bound_to 10162
  139.9571  143.6206  152.3013 LP  0  0  0  0  0  0  0  0  0  0  0  0  # atno 17343 bound_to 10162
  157.3594  131.0747  151.1649 LP  0  0  0  0  0  0  0  0  0  0  0  0  # atno 17370 bound_to 10713
  157.2439  130.6582  149.5901 LP  0  0  0  0  0  0  0  0  0  0  0  0  # atno 17371 bound_to 10713
  140.0684  134.5897  155.8669 LP  0  0  0  0  0  0  0  0  0  0  0  0  # atno 17394 bound_to 11000
  141.2005  133.6613  156.5901 LP  0  0  0  0  0  0  0  0  0  0  0  0  # atno 17395 bound_to 11000

$$$$
