AV-unprocessed.smi:2499|AV-procd|sdf|9838|dock1
  -GOLD-   2272013463D 1   1.00000     0.00000
 Structure written by MMmdl.
 27 28  0  0  0  0  0  0  0  0  1 V2000
  152.4600  141.5536  160.4476 C   0  0  0  0  0  0  0  0  0  0  0  0
  152.8279  142.4638  159.2680 C   0  0  1  0  0  0  0  0  0  0  0  0
  152.0676  142.0385  158.0969 N   0  0  0  0  0  0  0  0  0  0  0  0
  152.1078  140.8226  157.5315 C   0  0  0  0  0  0  0  0  0  0  0  0
  152.8148  139.9173  157.9857 O   0  0  0  0  0  0  0  0  0  0  0  0
  151.2458  140.7723  156.4460 N   0  0  0  0  0  0  0  0  0  0  0  0
  151.2895  139.7567  155.6391 C   0  0  0  0  0  0  0  0  0  0  0  0
  152.0537  138.5927  155.6203 N   0  0  0  0  0  0  0  0  0  0  0  0
  151.6758  137.8525  154.5352 C   0  0  0  0  0  0  0  0  0  0  0  0
  150.7175  138.5171  153.8968 C   0  0  0  0  0  0  0  0  0  0  0  0
  150.4597  139.6855  154.5488 O   0  0  0  0  0  0  0  0  0  0  0  0
  152.6180  143.9257  159.6257 C   0  0  0  0  0  0  0  0  0  0  0  0
  151.2478  144.5600  159.5770 C   0  0  0  0  0  0  0  0  0  0  0  0
  152.2967  144.9468  158.5600 C   0  0  0  0  0  0  0  0  0  0  0  0
  153.0466  141.8011  161.3328 H   0  0  0  0  0  0  0  0  0  0  0  0
  152.6511  140.5063  160.2115 H   0  0  0  0  0  0  0  0  0  0  0  0
  151.4057  141.6493  160.7100 H   0  0  0  0  0  0  0  0  0  0  0  0
  153.8905  142.3141  159.0667 H   0  0  0  0  0  0  0  0  0  0  0  0
  151.4605  142.7284  157.6775 H   0  0  0  0  0  0  0  0  0  0  0  0
  152.7700  138.3044  156.2714 H   0  0  0  0  0  0  0  0  0  0  0  0
  152.1464  136.9022  154.3308 H   0  0  0  0  0  0  0  0  0  0  0  0
  150.1440  138.3034  153.0070 H   0  0  0  0  0  0  0  0  0  0  0  0
  153.2728  144.2749  160.4220 H   0  0  0  0  0  0  0  0  0  0  0  0
  150.4159  143.9505  159.2301 H   0  0  0  0  0  0  0  0  0  0  0  0
  151.0037  145.2850  160.3509 H   0  0  0  0  0  0  0  0  0  0  0  0
  152.7515  145.9308  158.6540 H   0  0  0  0  0  0  0  0  0  0  0  0
  152.1610  144.5910  157.5405 H   0  0  0  0  0  0  0  0  0  0  0  0
  1  2  1  0  0  0  0
  1 15  1  0  0  0  0
  1 16  1  0  0  0  0
  1 17  1  0  0  0  0
  2  3  1  0  0  0  0
  2 12  1  0  0  0  0
  2 18  1  0  0  0  0
  3 19  1  0  0  0  0
  3  4  1  0  0  0  0
  4  6  1  0  0  0  0
  4  5  2  0  0  0  0
  6  7  2  0  0  0  0
  7 11  1  0  0  0  0
  7  8  1  0  0  0  0
  8 20  1  0  0  0  0
  8  9  1  0  0  0  0
  9 21  1  0  0  0  0
  9 10  2  0  0  0  0
 10 22  1  0  0  0  0
 10 11  1  0  0  0  0
 12 14  1  0  0  0  0
 12 13  1  0  0  0  0
 12 23  1  0  0  0  0
 13 14  1  0  0  0  0
 13 24  1  0  0  0  0
 13 25  1  0  0  0  0
 14 26  1  0  0  0  0
 14 27  1  0  0  0  0
M  END
> <s_m_source_file>
AV-unprocessed.smi

> <i_m_source_file_index>
2499

> <i_lp_mmshare_version>
43012

> <i_f3d_flags>
0

> <s_epik_input>
W0NIMl0xW0NIMl1bQ0hdMVtDQEhdKFtDSDNdKVtOSF1DKD1PKVtOSF1jMm5bY0hdW2NIXW8y

> <s_epik_cmdline>
J2VwaWtfcHl0aG9uJywgJy1waCcsICc3LjAnLCAnLXRuJywgJzgnLCAnLW1hJywgJzIwMCcsICctbWV0YWxfYmluZGluZycsICctaW1hZScsICc8aW5maWxlLm1hZT4nLCAnLW9tYWUnLCAnPG91dGZpbGUubWFlPic=

> <r_lp_tautomer_probability>
0.107061

> <r_epik_Ionization_Penalty>
1.51515

> <r_epik_Ionization_Penalty_Charging>
1.51478

> <r_epik_Ionization_Penalty_Neutral>
0.000369309

> <r_epik_State_Penalty>
2.62718

> <r_epik_Charging_Adjusted_Penalty>
4.14196

> <i_epik_Tot_Q>
0

> <i_epik_Tot_abs_Q>
0

> <r_epik_Metal_State_Penalty>
3.5378

> <b_epik_Metal_Only>
0

> <s_lp_Force_Field>
OPLS_2005

> <r_lp_Energy>
36.8038

> <b_lp_Chiralities_Consistent>
1

> <s_lp_Variant>
AV-unprocessed.smi:2499-8

> <Gold.Version>
5.8.1

> <Gold.Id.Protein>
6NUR|6NUR_protein|mol2

> <Gold.PLP.Fitness>
40.7004

> <Gold.PLP.PLP>
-30.9436

> <Gold.PLP.part.hbond>
-2.0000

> <Gold.PLP.part.metal>
0.0000

> <Gold.PLP.part.buried>
-3.8384

> <Gold.PLP.part.nonpolar>
-24.9661

> <Gold.PLP.part.repulsive>
0.3511

> <Gold.PLP.ligand.clash>
0.0000

> <Gold.PLP.ligand.torsion>
0.5682

> <Gold.PLP.Chemscore.Hbond>
1.5225

> <Gold.PLP.Chemscore.CHOScore>
1.7543

> <Gold.PLP.Chemscore.Metal>
0.0000

> <Gold.Chemscore.Hbonds>
donor molecule, donor type, donor heavy atom, donor atom, acceptor molecule, acceptor atom, score
      P1  H  7989  7998       L1    11  0.54
      P1  H  7997  8010       L1     5  0.93
      L1  C    10    22       P1  7948  0.83
      L1  C    10    22       P1  7957  0.81

> <Gold.PLP.Chemscore.Internal.Correction>
1.0628

> <Gold.Rescore>
     Score         DG    S(hbond)    S(metal)    S(lipo)     H(rot)  DE(clash)    DE(int)     intcor
     13.74     -14.48       0.97        0.00      77.44       1.29       0.00       0.74       ----

> <Gold.Chemscore.Fitness>
13.7411

> <Gold.Chemscore.DG>
-14.4834

> <Gold.Chemscore.ZeroCoef>
-5.4800

> <Gold.Chemscore.Hbond>
0.9729

> <Gold.Chemscore.Metal>
0.0000

> <Gold.Chemscore.Lipo>
77.4383

> <Gold.Chemscore.Internal_Hbond>
0.0000

> <Gold.Chemscore.DEClash>
0.0042

> <Gold.Chemscore.DEInternal>
0.7381

> <Gold.Chemscore.Rot>
1.2915

> <Gold.Chemscore.Internal.Correction>
   9.000000E+99

> <Gold.Chemscore.Hbonds>
donor molecule, donor type, donor heavy atom, donor atom, acceptor molecule, acceptor atom, score
      P1  H  7989  7998       L1    11  0.01
      P1  H  7997  8010       L1     5  0.19

> <Gold.Chemscore.Hbond.Weighted>
-3.2494

> <Gold.Chemscore.Metal.Weighted>
-0.0000

> <Gold.Chemscore.Lipo.Weighted>
-9.0603

> <Gold.Chemscore.Internal_Hbond.Weighted>
0.0000

> <Gold.Chemscore.DEClash.Weighted>
0.0042

> <Gold.Chemscore.DEInternal.Weighted>
0.7381

> <Gold.Chemscore.Rot.Weighted>
3.3062

> <Gold.Chemscore.Internal.Correction.Weighted>
   9.000000E+99

> <Gold.Protein.RotatedTorsions>
[ 6907 6896 6895 6894 ] final -115.63 input  -60.11 | X-H torsion
[ 7974 7965 7964 7962 ] final  -71.75 input  175.53 | X-H torsion
[ 8008 7997 7996 7995 ] final   57.11 input   59.86 | X-H torsion
[ 10167 10162 10161 10158 ] final  -19.15 input  -65.29 | X-H torsion
[ 10718 10713 10712 10709 ] final  -41.40 input   66.30 | X-H torsion
[ 10763 10752 10751 10750 ] final  106.68 input  -60.55 | X-H torsion
[ 11005 11000 10999 10996 ] final -149.46 input  -57.11 | X-H torsion

> <Gold.Protein.ActiveResidues>
 VAL166  LYS551  ARG553  GLY616  TRP617  ASP618  TYR619  PRO620  LYS621  CYS622 
 ASP623  PHE694  ASN695  SER759  ASP760  ASP761  ALA762  ILE779  LEU786  VAL792 
 PHE793  MET794  SER795  GLU796  ALA797  LYS798  CYS799  TRP800  GLU811  SER814 

> <Gold.Protein.RotatedAtoms>
  150.7992  133.8632  159.3237 H   0  0  0  0  0  0  0  0  0  0  0  0  # atno 6907 bound_to 6896
  151.6448  135.1007  160.0158 H   0  0  0  0  0  0  0  0  0  0  0  0  # atno 6908 bound_to 6896
  152.4078  133.6876  159.6406 H   0  0  0  0  0  0  0  0  0  0  0  0  # atno 6909 bound_to 6896
  145.6741  140.9211  143.0867 H   0  0  0  0  0  0  0  0  0  0  0  0  # atno 7974 bound_to 7965
  155.5285  140.3481  155.4421 H   0  0  0  0  0  0  0  0  0  0  0  0  # atno 8008 bound_to 7997
  156.0735  140.1369  156.9827 H   0  0  0  0  0  0  0  0  0  0  0  0  # atno 8009 bound_to 7997
  154.4541  140.0961  156.6680 H   0  0  0  0  0  0  0  0  0  0  0  0  # atno 8010 bound_to 7997
  140.7266  143.4846  151.0071 H   0  0  0  0  0  0  0  0  0  0  0  0  # atno 10167 bound_to 10162
  156.2708  130.4206  149.8440 H   0  0  0  0  0  0  0  0  0  0  0  0  # atno 10718 bound_to 10713
  153.3962  135.3869  155.1957 H   0  0  0  0  0  0  0  0  0  0  0  0  # atno 10763 bound_to 10752
  154.8724  135.3760  154.4675 H   0  0  0  0  0  0  0  0  0  0  0  0  # atno 10764 bound_to 10752
  153.5167  135.7087  153.5814 H   0  0  0  0  0  0  0  0  0  0  0  0  # atno 10765 bound_to 10752
  140.7505  134.3412  157.5127 H   0  0  0  0  0  0  0  0  0  0  0  0  # atno 11005 bound_to 11000
  144.7047  139.8610  143.7433 LP  0  0  0  0  0  0  0  0  0  0  0  0  # atno 17320 bound_to 7965
  146.1021  139.4017  143.0340 LP  0  0  0  0  0  0  0  0  0  0  0  0  # atno 17321 bound_to 7965
  139.8547  143.7392  152.3176 LP  0  0  0  0  0  0  0  0  0  0  0  0  # atno 17342 bound_to 10162
  139.7587  144.7513  151.0397 LP  0  0  0  0  0  0  0  0  0  0  0  0  # atno 17343 bound_to 10162
  156.5922  130.8511  151.3411 LP  0  0  0  0  0  0  0  0  0  0  0  0  # atno 17370 bound_to 10713
  157.7283  130.9655  150.1737 LP  0  0  0  0  0  0  0  0  0  0  0  0  # atno 17371 bound_to 10713
  139.8788  134.9139  156.3094 LP  0  0  0  0  0  0  0  0  0  0  0  0  # atno 17394 bound_to 11000
  140.9755  133.7300  156.0596 LP  0  0  0  0  0  0  0  0  0  0  0  0  # atno 17395 bound_to 11000

$$$$
