AV-unprocessed.smi:1424|AV-procd|sdf|5800|dock8
  -GOLD-   22720 5453D 1   1.00000     0.00000
 Structure written by MMmdl.
 45 47  0  0  0  0  0  0  0  0  1 V2000
  149.6042  132.5931  154.8148 O   0  0  0  0  0  0  0  0  0  0  0  0
  149.1985  133.5549  154.1629 C   0  0  0  0  0  0  0  0  0  0  0  0
  149.7286  134.7816  154.2542 N   0  0  0  0  0  0  0  0  0  0  0  0
  150.8297  135.1360  155.1407 C   0  0  0  0  0  0  0  0  0  0  0  0
  150.8822  136.6536  155.3868 C   0  0  1  0  0  0  0  0  0  0  0  0
  151.7434  137.0192  156.6114 C   0  0  0  0  0  0  0  0  0  0  0  0
  151.9603  138.5352  156.6203 C   0  0  0  0  0  0  0  0  0  0  0  0
  152.0769  139.0231  154.8596 S   0  0  0  0  0  0  0  0  0  0  0  0
  151.1254  140.1141  154.6003 O   0  0  0  0  0  0  0  0  0  0  0  0
  153.4922  139.1457  154.4785 O   0  0  0  0  0  0  0  0  0  0  0  0
  151.4133  137.4527  154.1830 C   0  0  0  0  0  0  0  0  0  0  0  0
  148.1963  133.5250  153.2681 N   0  0  0  0  0  0  0  0  0  0  0  0
  147.3815  132.4243  152.8727 C   0  0  0  0  0  0  0  0  0  0  0  0
  147.7461  131.0724  153.0884 C   0  0  0  0  0  0  0  0  0  0  0  0
  146.8678  130.0514  152.6826 C   0  0  0  0  0  0  0  0  0  0  0  0
  145.6499  130.4158  152.0817 C   0  0  0  0  0  0  0  0  0  0  0  0
  145.2808  131.6971  151.8812 N   0  0  0  0  0  0  0  0  0  0  0  0
  146.1234  132.6851  152.2703 C   0  0  0  0  0  0  0  0  0  0  0  0
  145.7142  134.0133  152.0545 N   0  0  0  0  0  0  0  0  0  0  0  0
  145.5325  134.3984  150.6653 C   0  0  0  0  0  0  0  0  0  0  0  0
  144.7665  135.7215  150.7135 C   0  0  0  0  0  0  0  0  0  0  0  0
  144.0411  135.7046  152.0649 C   0  0  0  0  0  0  0  0  0  0  0  0
  144.4992  134.4112  152.7464 C   0  0  0  0  0  0  0  0  0  0  0  0
  149.3452  135.5166  153.6779 H   0  0  0  0  0  0  0  0  0  0  0  0
  150.7060  134.6119  156.0898 H   0  0  0  0  0  0  0  0  0  0  0  0
  151.7689  134.7909  154.7056 H   0  0  0  0  0  0  0  0  0  0  0  0
  149.8693  137.0044  155.5918 H   0  0  0  0  0  0  0  0  0  0  0  0
  151.2893  136.6776  157.5421 H   0  0  0  0  0  0  0  0  0  0  0  0
  152.7130  136.5257  156.5296 H   0  0  0  0  0  0  0  0  0  0  0  0
  151.1009  139.0455  157.0556 H   0  0  0  0  0  0  0  0  0  0  0  0
  152.8580  138.8384  157.1588 H   0  0  0  0  0  0  0  0  0  0  0  0
  152.2354  136.9283  153.6946 H   0  0  0  0  0  0  0  0  0  0  0  0
  150.6455  137.6613  153.4380 H   0  0  0  0  0  0  0  0  0  0  0  0
  148.0372  134.3791  152.7537 H   0  0  0  0  0  0  0  0  0  0  0  0
  148.6714  130.7967  153.5690 H   0  0  0  0  0  0  0  0  0  0  0  0
  147.1205  129.0123  152.8337 H   0  0  0  0  0  0  0  0  0  0  0  0
  144.9507  129.6587  151.7590 H   0  0  0  0  0  0  0  0  0  0  0  0
  146.4916  134.5067  150.1579 H   0  0  0  0  0  0  0  0  0  0  0  0
  144.9496  133.6476  150.1299 H   0  0  0  0  0  0  0  0  0  0  0  0
  145.4632  136.5600  150.6783 H   0  0  0  0  0  0  0  0  0  0  0  0
  144.0810  135.8232  149.8718 H   0  0  0  0  0  0  0  0  0  0  0  0
  144.3322  136.5738  152.6560 H   0  0  0  0  0  0  0  0  0  0  0  0
  142.9570  135.7289  151.9507 H   0  0  0  0  0  0  0  0  0  0  0  0
  143.7317  133.6422  152.6475 H   0  0  0  0  0  0  0  0  0  0  0  0
  144.6874  134.5634  153.8096 H   0  0  0  0  0  0  0  0  0  0  0  0
  1  2  2  0  0  0  0
  2  3  1  0  0  0  0
  2 12  1  0  0  0  0
  3  4  1  0  0  0  0
  3 24  1  0  0  0  0
  4  5  1  0  0  0  0
  4 25  1  0  0  0  0
  4 26  1  0  0  0  0
  5 11  1  0  0  0  0
  5  6  1  0  0  0  0
  5 27  1  0  0  0  0
  6  7  1  0  0  0  0
  6 28  1  0  0  0  0
  6 29  1  0  0  0  0
  7  8  1  0  0  0  0
  7 30  1  0  0  0  0
  7 31  1  0  0  0  0
  8  9  2  0  0  0  0
  8 10  2  0  0  0  0
  8 11  1  0  0  0  0
 11 32  1  0  0  0  0
 11 33  1  0  0  0  0
 12 13  1  0  0  0  0
 12 34  1  0  0  0  0
 13 18  1  0  0  0  0
 13 14  2  0  0  0  0
 14 15  1  0  0  0  0
 14 35  1  0  0  0  0
 15 16  2  0  0  0  0
 15 36  1  0  0  0  0
 16 17  1  0  0  0  0
 16 37  1  0  0  0  0
 17 18  2  0  0  0  0
 18 19  1  0  0  0  0
 19 23  1  0  0  0  0
 19 20  1  0  0  0  0
 20 21  1  0  0  0  0
 20 38  1  0  0  0  0
 20 39  1  0  0  0  0
 21 22  1  0  0  0  0
 21 40  1  0  0  0  0
 21 41  1  0  0  0  0
 22 23  1  0  0  0  0
 22 42  1  0  0  0  0
 22 43  1  0  0  0  0
 23 44  1  0  0  0  0
 23 45  1  0  0  0  0
M  END
> <s_m_source_file>
AV-unprocessed.smi

> <i_m_source_file_index>
1424

> <i_lp_mmshare_version>
43012

> <i_f3d_flags>
0

> <s_epik_input>
Tz1TMSg9TylbQ0gyXVtDSDJdW0NASF0oW0NIMl0xKVtDSDJdW05IXUMoPU8pW05IXWMyW2NIXVtjSF1bY0hdbmMyTjNbQ0gyXVtDSDJdW0NIMl1bQ0gyXTM=

> <s_epik_cmdline>
J2VwaWtfcHl0aG9uJywgJy1waCcsICc3LjAnLCAnLXRuJywgJzgnLCAnLW1hJywgJzIwMCcsICctbWV0YWxfYmluZGluZycsICctaW1hZScsICc8aW5maWxlLm1hZT4nLCAnLW9tYWUnLCAnPG91dGZpbGUubWFlPic=

> <r_lp_tautomer_probability>
1

> <r_epik_Ionization_Penalty>
0.0965651

> <r_epik_Ionization_Penalty_Charging>
0

> <r_epik_Ionization_Penalty_Neutral>
0.0965651

> <r_epik_State_Penalty>
0.0861592

> <r_epik_Charging_Adjusted_Penalty>
0.0861592

> <i_epik_Tot_Q>
0

> <i_epik_Tot_abs_Q>
0

> <r_epik_Metal_State_Penalty>
0.0740444

> <b_epik_Metal_Only>
0

> <s_lp_Force_Field>
OPLS_2005

> <r_lp_Energy>
37.4342

> <b_lp_Chiralities_Consistent>
1

> <s_lp_Variant>
AV-unprocessed.smi:1424-2

> <Gold.Version>
5.8.1

> <Gold.Id.Protein>
6NUR|6NUR_protein|mol2

> <Gold.PLP.Fitness>
46.8760

> <Gold.PLP.PLP>
-37.4702

> <Gold.PLP.part.hbond>
-4.1565

> <Gold.PLP.part.metal>
0.0000

> <Gold.PLP.part.buried>
-4.0093

> <Gold.PLP.part.nonpolar>
-29.0132

> <Gold.PLP.part.repulsive>
0.3918

> <Gold.PLP.ligand.clash>
0.0000

> <Gold.PLP.ligand.torsion>
0.3587

> <Gold.PLP.Chemscore.Hbond>
3.3634

> <Gold.PLP.Chemscore.CHOScore>
0.0000

> <Gold.PLP.Chemscore.Metal>
0.0000

> <Gold.Chemscore.Hbonds>
donor molecule, donor type, donor heavy atom, donor atom, acceptor molecule, acceptor atom, score
      L1  H     3    24       P1  7948  0.94
      L1  H    12    34       P1  7948  0.50
      P1  H  7989  7998       L1     9  0.75
      P1  H  7997  8008       L1    10  1.00

> <Gold.PLP.Chemscore.Internal.Correction>
0.0329

> <Gold.Rescore>
     Score         DG    S(hbond)    S(metal)    S(lipo)     H(rot)  DE(clash)    DE(int)     intcor
     16.66     -18.28       2.42        0.00      72.44       1.47       0.21       1.41       ----

> <Gold.Chemscore.Fitness>
16.6582

> <Gold.Chemscore.DG>
-18.2798

> <Gold.Chemscore.ZeroCoef>
-5.4800

> <Gold.Chemscore.Hbond>
2.4247

> <Gold.Chemscore.Metal>
0.0000

> <Gold.Chemscore.Lipo>
72.4406

> <Gold.Chemscore.Internal_Hbond>
0.0000

> <Gold.Chemscore.DEClash>
0.2138

> <Gold.Chemscore.DEInternal>
1.4078

> <Gold.Chemscore.Rot>
1.4744

> <Gold.Chemscore.Internal.Correction>
   9.000000E+99

> <Gold.Chemscore.Hbonds>
donor molecule, donor type, donor heavy atom, donor atom, acceptor molecule, acceptor atom, score
      L1  H     3    24       P1  7948  0.36
      L1  H    12    34       P1  7948  0.23
      P1  H  7989  7998       L1     9  0.45
      P1  H  7997  8008       L1    10  0.87

> <Gold.Chemscore.Hbond.Weighted>
-8.0987

> <Gold.Chemscore.Metal.Weighted>
-0.0000

> <Gold.Chemscore.Lipo.Weighted>
-8.4756

> <Gold.Chemscore.Internal_Hbond.Weighted>
0.0000

> <Gold.Chemscore.DEClash.Weighted>
0.2138

> <Gold.Chemscore.DEInternal.Weighted>
1.4078

> <Gold.Chemscore.Rot.Weighted>
3.7744

> <Gold.Chemscore.Internal.Correction.Weighted>
   9.000000E+99

> <Gold.Protein.RotatedTorsions>
[ 6907 6896 6895 6894 ] final   76.86 input  -60.11 | X-H torsion
[ 7974 7965 7964 7962 ] final   -1.73 input  175.53 | X-H torsion
[ 8008 7997 7996 7995 ] final   -4.26 input   59.86 | X-H torsion
[ 10167 10162 10161 10158 ] final   67.06 input  -65.29 | X-H torsion
[ 10718 10713 10712 10709 ] final   45.54 input   66.30 | X-H torsion
[ 10763 10752 10751 10750 ] final   44.55 input  -60.55 | X-H torsion
[ 11005 11000 10999 10996 ] final  123.51 input  -57.11 | X-H torsion

> <Gold.Protein.ActiveResidues>
 VAL166  LYS551  ARG553  GLY616  TRP617  ASP618  TYR619  PRO620  LYS621  CYS622 
 ASP623  PHE694  ASN695  SER759  ASP760  ASP761  ALA762  ILE779  LEU786  VAL792 
 PHE793  MET794  SER795  GLU796  ALA797  LYS798  CYS799  TRP800  GLU811  SER814 

> <Gold.Protein.RotatedAtoms>
  152.5092  134.3905  159.9381 H   0  0  0  0  0  0  0  0  0  0  0  0  # atno 6907 bound_to 6896
  151.3865  133.3797  159.2723 H   0  0  0  0  0  0  0  0  0  0  0  0  # atno 6908 bound_to 6896
  150.9465  134.8890  159.7704 H   0  0  0  0  0  0  0  0  0  0  0  0  # atno 6909 bound_to 6896
  146.2413  140.1465  142.8334 H   0  0  0  0  0  0  0  0  0  0  0  0  # atno 7974 bound_to 7965
  154.6162  140.2488  155.7606 H   0  0  0  0  0  0  0  0  0  0  0  0  # atno 8008 bound_to 7997
  156.2400  140.2936  156.0367 H   0  0  0  0  0  0  0  0  0  0  0  0  # atno 8009 bound_to 7997
  155.1971  140.0393  157.2901 H   0  0  0  0  0  0  0  0  0  0  0  0  # atno 8010 bound_to 7997
  140.0936  144.4966  150.7082 H   0  0  0  0  0  0  0  0  0  0  0  0  # atno 10167 bound_to 10162
  157.4386  130.8068  149.7672 H   0  0  0  0  0  0  0  0  0  0  0  0  # atno 10718 bound_to 10713
  152.9839  135.6067  154.3293 H   0  0  0  0  0  0  0  0  0  0  0  0  # atno 10763 bound_to 10752
  154.2997  135.2773  155.2618 H   0  0  0  0  0  0  0  0  0  0  0  0  # atno 10764 bound_to 10752
  154.4876  135.5900  153.6492 H   0  0  0  0  0  0  0  0  0  0  0  0  # atno 10765 bound_to 10752
  139.9316  134.9641  156.8269 H   0  0  0  0  0  0  0  0  0  0  0  0  # atno 11005 bound_to 11000
  145.0203  140.8788  143.5170 LP  0  0  0  0  0  0  0  0  0  0  0  0  # atno 17320 bound_to 7965
  145.1512  139.2513  143.5440 LP  0  0  0  0  0  0  0  0  0  0  0  0  # atno 17321 bound_to 7965
  140.7015  143.2438  151.4850 LP  0  0  0  0  0  0  0  0  0  0  0  0  # atno 17342 bound_to 10162
  139.5710  144.1927  152.1837 LP  0  0  0  0  0  0  0  0  0  0  0  0  # atno 17343 bound_to 10162
  155.9940  130.3921  150.2877 LP  0  0  0  0  0  0  0  0  0  0  0  0  # atno 17370 bound_to 10713
  157.1040  131.0203  151.3074 LP  0  0  0  0  0  0  0  0  0  0  0  0  # atno 17371 bound_to 10713
  140.6188  134.0014  155.7609 LP  0  0  0  0  0  0  0  0  0  0  0  0  # atno 17394 bound_to 11000
  141.0907  133.9921  157.3241 LP  0  0  0  0  0  0  0  0  0  0  0  0  # atno 17395 bound_to 11000

$$$$
