AV-unprocessed.smi:3174|AV-procd|sdf|12121|dock1
  -GOLD-   2272017563D 1   1.00000     0.00000
 Structure written by MMmdl.
 32 33  0  0  0  0  0  0  0  0  1 V2000
  148.3052  136.1897  159.1061 C   0  0  0  0  0  0  0  0  0  0  0  0
  149.6802  136.2625  158.7744 O   0  0  0  0  0  0  0  0  0  0  0  0
  150.2430  137.5326  159.0579 C   0  0  0  0  0  0  0  0  0  0  0  0
  151.7084  137.5709  158.5937 C   0  0  0  0  0  0  0  0  0  0  0  0
  152.5712  138.2486  159.5681 N   0  0  0  0  0  0  0  0  0  0  0  0
  152.4450  139.6280  159.5649 N   0  0  0  0  0  0  0  0  0  0  0  0
  153.1402  140.3477  160.3855 C   0  0  0  0  0  0  0  0  0  0  0  0
  153.0315  141.8330  160.4144 C   0  0  0  0  0  0  0  0  0  0  0  0
  152.9585  142.4582  161.4739 O   0  0  0  0  0  0  0  0  0  0  0  0
  153.0183  142.4307  159.2100 N   0  0  0  0  0  0  0  0  0  0  0  0
  152.9204  143.8354  158.9792 C   0  0  0  0  0  0  0  0  0  0  0  0
  151.7809  144.5780  159.6429 C   0  0  0  0  0  0  0  0  0  0  0  0
  151.7488  144.3318  158.1598 C   0  0  0  0  0  0  0  0  0  0  0  0
  154.0631  139.7267  161.3206 C   0  0  0  0  0  0  0  0  0  0  0  0
  154.1743  138.3804  161.3138 C   0  0  0  0  0  0  0  0  0  0  0  0
  153.3975  137.5429  160.3985 C   0  0  0  0  0  0  0  0  0  0  0  0
  153.4799  136.3152  160.3792 O   0  0  0  0  0  0  0  0  0  0  0  0
  147.9249  135.1958  158.8712 H   0  0  0  0  0  0  0  0  0  0  0  0
  147.7232  136.9162  158.5376 H   0  0  0  0  0  0  0  0  0  0  0  0
  148.1461  136.3684  160.1703 H   0  0  0  0  0  0  0  0  0  0  0  0
  149.6768  138.3028  158.5324 H   0  0  0  0  0  0  0  0  0  0  0  0
  150.1752  137.7521  160.1247 H   0  0  0  0  0  0  0  0  0  0  0  0
  152.0611  136.5616  158.3759 H   0  0  0  0  0  0  0  0  0  0  0  0
  151.7655  138.1030  157.6427 H   0  0  0  0  0  0  0  0  0  0  0  0
  153.0834  141.8402  158.3931 H   0  0  0  0  0  0  0  0  0  0  0  0
  153.8506  144.3902  158.8656 H   0  0  0  0  0  0  0  0  0  0  0  0
  151.0918  144.0059  160.2616 H   0  0  0  0  0  0  0  0  0  0  0  0
  151.9736  145.5945  159.9793 H   0  0  0  0  0  0  0  0  0  0  0  0
  151.9215  145.1836  157.5050 H   0  0  0  0  0  0  0  0  0  0  0  0
  151.0370  143.5965  157.7889 H   0  0  0  0  0  0  0  0  0  0  0  0
  154.6490  140.3196  162.0081 H   0  0  0  0  0  0  0  0  0  0  0  0
  154.8560  137.9057  162.0042 H   0  0  0  0  0  0  0  0  0  0  0  0
  1  2  1  0  0  0  0
  1 18  1  0  0  0  0
  1 19  1  0  0  0  0
  1 20  1  0  0  0  0
  2  3  1  0  0  0  0
  3  4  1  0  0  0  0
  3 21  1  0  0  0  0
  3 22  1  0  0  0  0
  4  5  1  0  0  0  0
  4 23  1  0  0  0  0
  4 24  1  0  0  0  0
  5 16  1  0  0  0  0
  5  6  1  0  0  0  0
  6  7  2  0  0  0  0
  7  8  1  0  0  0  0
  7 14  1  0  0  0  0
  8  9  2  0  0  0  0
  8 10  1  0  0  0  0
 10 11  1  0  0  0  0
 10 25  1  0  0  0  0
 11 13  1  0  0  0  0
 11 12  1  0  0  0  0
 11 26  1  0  0  0  0
 12 13  1  0  0  0  0
 12 27  1  0  0  0  0
 12 28  1  0  0  0  0
 13 29  1  0  0  0  0
 13 30  1  0  0  0  0
 14 15  2  0  0  0  0
 14 31  1  0  0  0  0
 15 16  1  0  0  0  0
 15 32  1  0  0  0  0
 16 17  2  0  0  0  0
M  END
> <s_m_source_file>
AV-unprocessed.smi

> <i_m_source_file_index>
3174

> <i_lp_mmshare_version>
43012

> <i_f3d_flags>
0

> <s_epik_input>
W0NIM11PW0NIMl1bQ0gyXW4xbmMoW2NIXVtjSF1jMT1PKUMoPU8pW05IXVtDSF0yW0NIMl1bQ0gyXTI=

> <s_epik_cmdline>
J2VwaWtfcHl0aG9uJywgJy1waCcsICc3LjAnLCAnLXRuJywgJzgnLCAnLW1hJywgJzIwMCcsICctbWV0YWxfYmluZGluZycsICctaW1hZScsICc8aW5maWxlLm1hZT4nLCAnLW9tYWUnLCAnPG91dGZpbGUubWFlPic=

> <r_lp_tautomer_probability>
1

> <r_epik_Ionization_Penalty>
5.63485e-07

> <r_epik_Ionization_Penalty_Charging>
6.67133e-09

> <r_epik_Ionization_Penalty_Neutral>
5.56814e-07

> <r_epik_State_Penalty>
-0

> <r_epik_Charging_Adjusted_Penalty>
6.67133e-09

> <i_epik_Tot_Q>
0

> <i_epik_Tot_abs_Q>
0

> <r_epik_Metal_State_Penalty>
-0

> <b_epik_Metal_Only>
0

> <s_lp_Force_Field>
OPLS_2005

> <r_lp_Energy>
37.1062

> <b_lp_Chiralities_Consistent>
1

> <s_lp_Variant>
AV-unprocessed.smi:3174-1

> <Gold.Version>
5.8.1

> <Gold.Id.Protein>
6NUR|6NUR_protein|mol2

> <Gold.PLP.Fitness>
38.3262

> <Gold.PLP.PLP>
-34.6750

> <Gold.PLP.part.hbond>
-2.0000

> <Gold.PLP.part.metal>
0.0000

> <Gold.PLP.part.buried>
-5.1998

> <Gold.PLP.part.nonpolar>
-28.3002

> <Gold.PLP.part.repulsive>
0.0893

> <Gold.PLP.ligand.clash>
0.0000

> <Gold.PLP.ligand.torsion>
1.2598

> <Gold.PLP.Chemscore.Hbond>
2.0000

> <Gold.PLP.Chemscore.CHOScore>
0.0000

> <Gold.PLP.Chemscore.Metal>
0.0000

> <Gold.Chemscore.Hbonds>
donor molecule, donor type, donor heavy atom, donor atom, acceptor molecule, acceptor atom, score
      P1  H  6896  6907       L1     2  0.86
      P1  H  6896  6908       L1    17  1.00

> <Gold.PLP.Chemscore.Internal.Correction>
0.1709

> <Gold.Rescore>
     Score         DG    S(hbond)    S(metal)    S(lipo)     H(rot)  DE(clash)    DE(int)     intcor
     15.22     -16.43       1.94        0.00      74.92       1.68       0.01       1.21       ----

> <Gold.Chemscore.Fitness>
15.2164

> <Gold.Chemscore.DG>
-16.4333

> <Gold.Chemscore.ZeroCoef>
-5.4800

> <Gold.Chemscore.Hbond>
1.9393

> <Gold.Chemscore.Metal>
0.0000

> <Gold.Chemscore.Lipo>
74.9186

> <Gold.Chemscore.Internal_Hbond>
0.0000

> <Gold.Chemscore.DEClash>
0.0090

> <Gold.Chemscore.DEInternal>
1.2079

> <Gold.Chemscore.Rot>
1.6756

> <Gold.Chemscore.Internal.Correction>
   9.000000E+99

> <Gold.Chemscore.Hbonds>
donor molecule, donor type, donor heavy atom, donor atom, acceptor molecule, acceptor atom, score
      P1  H  6896  6907       L1     2  0.56
      P1  H  6896  6908       L1    17  1.00

> <Gold.Chemscore.Hbond.Weighted>
-6.4773

> <Gold.Chemscore.Metal.Weighted>
-0.0000

> <Gold.Chemscore.Lipo.Weighted>
-8.7655

> <Gold.Chemscore.Internal_Hbond.Weighted>
0.0000

> <Gold.Chemscore.DEClash.Weighted>
0.0090

> <Gold.Chemscore.DEInternal.Weighted>
1.2079

> <Gold.Chemscore.Rot.Weighted>
4.2894

> <Gold.Chemscore.Internal.Correction.Weighted>
   9.000000E+99

> <Gold.Protein.RotatedTorsions>
[ 6907 6896 6895 6894 ] final  -69.03 input  -60.11 | X-H torsion
[ 7974 7965 7964 7962 ] final  -98.34 input  175.53 | X-H torsion
[ 8008 7997 7996 7995 ] final  148.12 input   59.86 | X-H torsion
[ 10167 10162 10161 10158 ] final  -80.08 input  -65.29 | X-H torsion
[ 10718 10713 10712 10709 ] final  158.91 input   66.30 | X-H torsion
[ 10763 10752 10751 10750 ] final   42.43 input  -60.55 | X-H torsion
[ 11005 11000 10999 10996 ] final  -83.10 input  -57.11 | X-H torsion

> <Gold.Protein.ActiveResidues>
 VAL166  LYS551  ARG553  GLY616  TRP617  ASP618  TYR619  PRO620  LYS621  CYS622 
 ASP623  PHE694  ASN695  SER759  ASP760  ASP761  ALA762  ILE779  LEU786  VAL792 
 PHE793  MET794  SER795  GLU796  ALA797  LYS798  CYS799  TRP800  GLU811  SER814 

> <Gold.Protein.RotatedAtoms>
  150.7326  134.5655  159.5863 H   0  0  0  0  0  0  0  0  0  0  0  0  # atno 6907 bound_to 6896
  152.3107  134.7498  160.0346 H   0  0  0  0  0  0  0  0  0  0  0  0  # atno 6908 bound_to 6896
  151.8046  133.3338  159.3574 H   0  0  0  0  0  0  0  0  0  0  0  0  # atno 6909 bound_to 6896
  145.3218  140.9423  143.2711 H   0  0  0  0  0  0  0  0  0  0  0  0  # atno 7974 bound_to 7965
  156.2802  140.2137  156.5648 H   0  0  0  0  0  0  0  0  0  0  0  0  # atno 8008 bound_to 7997
  154.7184  140.0506  157.0639 H   0  0  0  0  0  0  0  0  0  0  0  0  # atno 8009 bound_to 7997
  155.0512  140.3156  155.4694 H   0  0  0  0  0  0  0  0  0  0  0  0  # atno 8010 bound_to 7997
  140.4535  143.2475  151.8454 H   0  0  0  0  0  0  0  0  0  0  0  0  # atno 10167 bound_to 10162
  157.1714  131.0611  151.2181 H   0  0  0  0  0  0  0  0  0  0  0  0  # atno 10718 bound_to 10713
  152.9883  135.6132  154.2948 H   0  0  0  0  0  0  0  0  0  0  0  0  # atno 10763 bound_to 10752
  154.2671  135.2780  155.2755 H   0  0  0  0  0  0  0  0  0  0  0  0  # atno 10764 bound_to 10752
  154.5154  135.5829  153.6695 H   0  0  0  0  0  0  0  0  0  0  0  0  # atno 10765 bound_to 10752
  141.1660  133.7277  156.8670 H   0  0  0  0  0  0  0  0  0  0  0  0  # atno 11005 bound_to 11000
  144.8933  139.4746  143.6667 LP  0  0  0  0  0  0  0  0  0  0  0  0  # atno 17320 bound_to 7965
  146.3079  139.7644  142.9042 LP  0  0  0  0  0  0  0  0  0  0  0  0  # atno 17321 bound_to 7965
  139.4799  144.5092  151.8956 LP  0  0  0  0  0  0  0  0  0  0  0  0  # atno 17342 bound_to 10162
  140.4179  144.2283  150.5887 LP  0  0  0  0  0  0  0  0  0  0  0  0  # atno 17343 bound_to 10162
  157.4040  130.7348  149.6788 LP  0  0  0  0  0  0  0  0  0  0  0  0  # atno 17370 bound_to 10713
  155.9738  130.4113  150.3975 LP  0  0  0  0  0  0  0  0  0  0  0  0  # atno 17371 bound_to 10713
  140.1808  134.9034  157.2946 LP  0  0  0  0  0  0  0  0  0  0  0  0  # atno 17394 bound_to 11000
  140.2397  134.3810  155.7486 LP  0  0  0  0  0  0  0  0  0  0  0  0  # atno 17395 bound_to 11000

$$$$
