AV-unprocessed.smi:375|AV-procd|sdf|2453|dock6
  -GOLD-   2262022393D 1   1.00000     0.00000
 Structure written by MMmdl.
 36 38  0  0  0  0  0  0  0  0  1 V2000
  154.0668  140.1560  160.4390 C   0  0  0  0  0  0  0  0  0  0  0  0
  153.1315  140.9540  159.6558 N   0  0  0  0  0  0  0  0  0  0  0  0
  152.6218  140.6531  158.4385 C   0  0  0  0  0  0  0  0  0  0  0  0
  152.8702  139.6440  157.7790 O   0  0  0  0  0  0  0  0  0  0  0  0
  151.8054  141.6674  158.0631 N   0  0  0  0  0  0  0  0  0  0  0  0
  151.0812  141.7896  156.7974 C   0  0  0  0  0  0  0  0  0  0  0  0
  150.7967  140.4190  156.1459 C   0  0  2  0  0  0  0  0  0  0  0  0
  151.9260  140.0515  155.3798 O   0  0  0  0  0  0  0  0  0  0  0  0
  149.5094  140.4069  155.3280 C   0  0  0  0  0  0  0  0  0  0  0  0
  148.7708  141.5981  155.1505 C   0  0  0  0  0  0  0  0  0  0  0  0
  147.5702  141.5893  154.4149 C   0  0  0  0  0  0  0  0  0  0  0  0
  147.0963  140.3881  153.8552 C   0  0  0  0  0  0  0  0  0  0  0  0
  147.8240  139.1960  154.0319 C   0  0  0  0  0  0  0  0  0  0  0  0
  149.0265  139.2027  154.7652 C   0  0  0  0  0  0  0  0  0  0  0  0
  149.7065  138.0432  154.9342 F   0  0  0  0  0  0  0  0  0  0  0  0
  151.7994  142.6456  159.0676 C   0  0  0  0  0  0  0  0  0  0  0  0
  151.1301  143.8785  159.1544 C   0  0  0  0  0  0  0  0  0  0  0  0
  151.3472  144.6509  160.3196 C   0  0  0  0  0  0  0  0  0  0  0  0
  152.2063  144.1873  161.3498 C   0  0  0  0  0  0  0  0  0  0  0  0
  152.8672  142.9415  161.2367 C   0  0  0  0  0  0  0  0  0  0  0  0
  152.6344  142.1963  160.0682 C   0  0  0  0  0  0  0  0  0  0  0  0
  154.3784  139.2536  159.9115 H   0  0  0  0  0  0  0  0  0  0  0  0
  153.6069  139.8548  161.3805 H   0  0  0  0  0  0  0  0  0  0  0  0
  154.9606  140.7378  160.6658 H   0  0  0  0  0  0  0  0  0  0  0  0
  150.1438  142.3239  156.9620 H   0  0  0  0  0  0  0  0  0  0  0  0
  151.6647  142.4133  156.1189 H   0  0  0  0  0  0  0  0  0  0  0  0
  150.7155  139.6685  156.9323 H   0  0  0  0  0  0  0  0  0  0  0  0
  152.3480  139.3188  155.8019 H   0  0  0  0  0  0  0  0  0  0  0  0
  149.1200  142.5235  155.5847 H   0  0  0  0  0  0  0  0  0  0  0  0
  147.0113  142.5040  154.2833 H   0  0  0  0  0  0  0  0  0  0  0  0
  146.1742  140.3806  153.2930 H   0  0  0  0  0  0  0  0  0  0  0  0
  147.4578  138.2732  153.6068 H   0  0  0  0  0  0  0  0  0  0  0  0
  150.4786  144.2259  158.3664 H   0  0  0  0  0  0  0  0  0  0  0  0
  150.8535  145.6055  160.4258 H   0  0  0  0  0  0  0  0  0  0  0  0
  152.3581  144.7930  162.2310 H   0  0  0  0  0  0  0  0  0  0  0  0
  153.5235  142.5817  162.0155 H   0  0  0  0  0  0  0  0  0  0  0  0
  1  2  1  0  0  0  0
  1 22  1  0  0  0  0
  1 23  1  0  0  0  0
  1 24  1  0  0  0  0
  2 21  1  0  0  0  0
  2  3  1  0  0  0  0
  3  4  2  0  0  0  0
  3  5  1  0  0  0  0
  5  6  1  0  0  0  0
  5 16  1  0  0  0  0
  6  7  1  0  0  0  0
  6 25  1  0  0  0  0
  6 26  1  0  0  0  0
  7  8  1  0  0  0  0
  7  9  1  0  0  0  0
  7 27  1  0  0  0  0
  8 28  1  0  0  0  0
  9 14  1  0  0  0  0
  9 10  2  0  0  0  0
 10 11  1  0  0  0  0
 10 29  1  0  0  0  0
 11 12  2  0  0  0  0
 11 30  1  0  0  0  0
 12 13  1  0  0  0  0
 12 31  1  0  0  0  0
 13 14  2  0  0  0  0
 13 32  1  0  0  0  0
 14 15  1  0  0  0  0
 16 21  2  0  0  0  0
 16 17  1  0  0  0  0
 17 18  2  0  0  0  0
 17 33  1  0  0  0  0
 18 19  1  0  0  0  0
 18 34  1  0  0  0  0
 19 20  2  0  0  0  0
 19 35  1  0  0  0  0
 20 21  1  0  0  0  0
 20 36  1  0  0  0  0
M  END
> <s_m_source_file>
AV-unprocessed.smi

> <i_m_source_file_index>
375

> <i_lp_mmshare_version>
43012

> <i_f3d_flags>
0

> <s_epik_input>
W2NIXTFbY0hdW2NIXVtjSF1jKGMxMiluKFtDSDNdKWMoPU8pbjJbQ0gyXVtDQEhdKFtPSF0pYzNbY0hdW2NIXVtjSF1bY0hdYzNG

> <s_epik_cmdline>
J2VwaWtfcHl0aG9uJywgJy1waCcsICc3LjAnLCAnLXRuJywgJzgnLCAnLW1hJywgJzIwMCcsICctbWV0YWxfYmluZGluZycsICctaW1hZScsICc8aW5maWxlLm1hZT4nLCAnLW9tYWUnLCAnPG91dGZpbGUubWFlPic=

> <r_lp_tautomer_probability>
1

> <r_epik_Ionization_Penalty>
1.34619e-06

> <r_epik_Ionization_Penalty_Charging>
2.57375e-09

> <r_epik_Ionization_Penalty_Neutral>
1.34362e-06

> <r_epik_State_Penalty>
-0

> <r_epik_Charging_Adjusted_Penalty>
2.57375e-09

> <i_epik_Tot_Q>
0

> <i_epik_Tot_abs_Q>
0

> <r_epik_Metal_State_Penalty>
-0

> <b_epik_Metal_Only>
0

> <s_lp_Force_Field>
OPLS_2005

> <r_lp_Energy>
41.1048

> <b_lp_Chiralities_Consistent>
1

> <s_lp_Variant>
AV-unprocessed.smi:375-1

> <Gold.Version>
5.8.1

> <Gold.Id.Protein>
6NUR|6NUR_protein|mol2

> <Gold.PLP.Fitness>
54.5335

> <Gold.PLP.PLP>
-50.7283

> <Gold.PLP.part.hbond>
-2.0000

> <Gold.PLP.part.metal>
0.0000

> <Gold.PLP.part.buried>
-3.3484

> <Gold.PLP.part.nonpolar>
-45.0963

> <Gold.PLP.part.repulsive>
0.0000

> <Gold.PLP.ligand.clash>
0.0000

> <Gold.PLP.ligand.torsion>
0.7124

> <Gold.PLP.Chemscore.Hbond>
1.7360

> <Gold.PLP.Chemscore.CHOScore>
0.0000

> <Gold.PLP.Chemscore.Metal>
0.0000

> <Gold.Chemscore.Hbonds>
donor molecule, donor type, donor heavy atom, donor atom, acceptor molecule, acceptor atom, score
      P1  H  7989  7998       L1     8  0.77
      P1  H  7997  8008       L1     4  1.00

> <Gold.PLP.Chemscore.Internal.Correction>
0.0220

> <Gold.Rescore>
     Score         DG    S(hbond)    S(metal)    S(lipo)     H(rot)  DE(clash)    DE(int)     intcor
     16.99     -19.50       1.46        0.00     118.62       1.85       0.08       2.44       ----

> <Gold.Chemscore.Fitness>
16.9859

> <Gold.Chemscore.DG>
-19.5010

> <Gold.Chemscore.ZeroCoef>
-5.4800

> <Gold.Chemscore.Hbond>
1.4580

> <Gold.Chemscore.Metal>
0.0000

> <Gold.Chemscore.Lipo>
118.6189

> <Gold.Chemscore.Internal_Hbond>
0.0000

> <Gold.Chemscore.DEClash>
0.0797

> <Gold.Chemscore.DEInternal>
2.4355

> <Gold.Chemscore.Rot>
1.8465

> <Gold.Chemscore.Internal.Correction>
   9.000000E+99

> <Gold.Chemscore.Hbonds>
donor molecule, donor type, donor heavy atom, donor atom, acceptor molecule, acceptor atom, score
      P1  H  7989  7998       L1     8  0.44
      P1  H  7997  8008       L1     4  0.39

> <Gold.Chemscore.Hbond.Weighted>
-4.8696

> <Gold.Chemscore.Metal.Weighted>
-0.0000

> <Gold.Chemscore.Lipo.Weighted>
-13.8784

> <Gold.Chemscore.Internal_Hbond.Weighted>
0.0000

> <Gold.Chemscore.DEClash.Weighted>
0.0797

> <Gold.Chemscore.DEInternal.Weighted>
2.4355

> <Gold.Chemscore.Rot.Weighted>
4.7270

> <Gold.Chemscore.Internal.Correction.Weighted>
   9.000000E+99

> <Gold.Protein.RotatedTorsions>
[ 6907 6896 6895 6894 ] final   12.34 input  -60.11 | X-H torsion
[ 7974 7965 7964 7962 ] final   52.10 input  175.53 | X-H torsion
[ 8008 7997 7996 7995 ] final  -84.78 input   59.86 | X-H torsion
[ 10167 10162 10161 10158 ] final -147.01 input  -65.29 | X-H torsion
[ 10718 10713 10712 10709 ] final    6.99 input   66.30 | X-H torsion
[ 10763 10752 10751 10750 ] final   71.81 input  -60.55 | X-H torsion
[ 11005 11000 10999 10996 ] final -127.81 input  -57.11 | X-H torsion

> <Gold.Protein.ActiveResidues>
 VAL166  LYS551  ARG553  GLY616  TRP617  ASP618  TYR619  PRO620  LYS621  CYS622 
 ASP623  PHE694  ASN695  SER759  ASP760  ASP761  ALA762  ILE779  LEU786  VAL792 
 PHE793  MET794  SER795  GLU796  ALA797  LYS798  CYS799  TRP800  GLU811  SER814 

> <Gold.Protein.RotatedAtoms>
  151.7687  135.0792  160.0356 H   0  0  0  0  0  0  0  0  0  0  0  0  # atno 6907 bound_to 6896
  152.3303  133.5947  159.5814 H   0  0  0  0  0  0  0  0  0  0  0  0  # atno 6908 bound_to 6896
  150.7419  133.9793  159.3613 H   0  0  0  0  0  0  0  0  0  0  0  0  # atno 6909 bound_to 6896
  145.9847  139.4278  143.0110 H   0  0  0  0  0  0  0  0  0  0  0  0  # atno 7974 bound_to 7965
  154.6336  140.0600  156.9761 H   0  0  0  0  0  0  0  0  0  0  0  0  # atno 8008 bound_to 7997
  155.1627  140.3284  155.4389 H   0  0  0  0  0  0  0  0  0  0  0  0  # atno 8009 bound_to 7997
  156.2495  140.1928  156.6734 H   0  0  0  0  0  0  0  0  0  0  0  0  # atno 8010 bound_to 7997
  139.7661  143.8306  152.2616 H   0  0  0  0  0  0  0  0  0  0  0  0  # atno 10167 bound_to 10162
  156.9303  130.5823  149.5649 H   0  0  0  0  0  0  0  0  0  0  0  0  # atno 10718 bound_to 10713
  153.0421  135.5123  154.7650 H   0  0  0  0  0  0  0  0  0  0  0  0  # atno 10763 bound_to 10752
  154.6579  135.2934  154.9906 H   0  0  0  0  0  0  0  0  0  0  0  0  # atno 10764 bound_to 10752
  154.0768  135.6670  153.4884 H   0  0  0  0  0  0  0  0  0  0  0  0  # atno 10765 bound_to 10752
  140.9568  134.0990  157.4008 H   0  0  0  0  0  0  0  0  0  0  0  0  # atno 11005 bound_to 11000
  145.7718  140.9893  143.1145 LP  0  0  0  0  0  0  0  0  0  0  0  0  # atno 17320 bound_to 7965
  144.6871  139.9456  143.7476 LP  0  0  0  0  0  0  0  0  0  0  0  0  # atno 17321 bound_to 7965
  139.8326  144.7246  150.9431 LP  0  0  0  0  0  0  0  0  0  0  0  0  # atno 17342 bound_to 10162
  140.7811  143.4055  151.1077 LP  0  0  0  0  0  0  0  0  0  0  0  0  # atno 17343 bound_to 10162
  156.0450  130.5528  150.8860 LP  0  0  0  0  0  0  0  0  0  0  0  0  # atno 17370 bound_to 10713
  157.5851  131.0945  150.9209 LP  0  0  0  0  0  0  0  0  0  0  0  0  # atno 17371 bound_to 10713
  139.8865  135.0082  156.6501 LP  0  0  0  0  0  0  0  0  0  0  0  0  # atno 17394 bound_to 11000
  140.7524  133.8886  155.8357 LP  0  0  0  0  0  0  0  0  0  0  0  0  # atno 17395 bound_to 11000

$$$$
