AV-unprocessed.smi:1754|AV-procd|sdf|7065|dock2
  -GOLD-   22720 8283D 1   1.00000     0.00000
 Structure written by MMmdl.
 45 46  0  0  0  0  0  0  0  0  2 V2000
  146.0377  130.1068  152.5204 C   0  0  0  0  0  0  0  0  0  0  0  0
  145.7275  131.5628  152.8923 C   0  0  0  0  0  0  0  0  0  0  0  0
  145.1649  132.3124  151.7698 N   0  0  0  0  0  0  0  0  0  0  0  0
  145.0393  131.6551  150.4713 C   0  0  0  0  0  0  0  0  0  0  0  0
  144.2375  132.4981  149.4709 C   0  0  0  0  0  0  0  0  0  0  0  0
  144.7020  133.6365  151.9514 C   0  0  0  0  0  0  0  0  0  0  0  0
  145.2476  134.7528  151.2703 C   0  0  0  0  0  0  0  0  0  0  0  0
  144.7311  136.0443  151.5020 C   0  0  0  0  0  0  0  0  0  0  0  0
  143.6595  136.2157  152.4114 C   0  0  0  0  0  0  0  0  0  0  0  0
  143.0798  137.4728  152.7308 N   0  0  0  0  0  0  0  0  0  0  0  0
  141.9027  137.7251  153.3370 C   0  0  0  0  0  0  0  0  0  0  0  0
  141.1453  136.8626  153.7760 O   0  0  0  0  0  0  0  0  0  0  0  0
  141.6162  139.0329  153.4682 N   0  0  0  0  0  0  0  0  0  0  0  0
  140.4329  139.6469  154.0729 C   0  0  1  0  0  0  0  0  0  0  0  0
  140.5886  141.1769  154.1571 C   0  0  0  0  0  0  0  0  0  0  0  0
  139.2176  141.7976  154.4548 C   0  0  0  0  0  0  0  0  0  0  0  0
  137.9762  140.6782  153.7017 S   0  0  0  0  0  0  0  0  0  0  0  0
  137.0723  140.1934  154.7558 O   0  0  0  0  0  0  0  0  0  0  0  0
  137.4485  141.2805  152.4682 O   0  0  0  0  0  0  0  0  0  0  0  0
  139.1601  139.3509  153.2633 C   0  0  0  0  0  0  0  0  0  0  0  0
  143.1627  135.0771  153.0759 C   0  0  0  0  0  0  0  0  0  0  0  0
  143.6881  133.8592  152.8235 N   0  3  0  0  0  0  0  0  0  0  0  0
  146.4729  129.5766  153.3677 H   0  0  0  0  0  0  0  0  0  0  0  0
  146.7484  130.0509  151.6955 H   0  0  0  0  0  0  0  0  0  0  0  0
  145.1359  129.5713  152.2225 H   0  0  0  0  0  0  0  0  0  0  0  0
  145.0641  131.6027  153.7566 H   0  0  0  0  0  0  0  0  0  0  0  0
  146.6485  132.0535  153.2088 H   0  0  0  0  0  0  0  0  0  0  0  0
  146.0394  131.4877  150.0702 H   0  0  0  0  0  0  0  0  0  0  0  0
  144.6022  130.6626  150.5788 H   0  0  0  0  0  0  0  0  0  0  0  0
  144.1688  131.9915  148.5081 H   0  0  0  0  0  0  0  0  0  0  0  0
  144.7089  133.4667  149.3023 H   0  0  0  0  0  0  0  0  0  0  0  0
  143.2217  132.6778  149.8234 H   0  0  0  0  0  0  0  0  0  0  0  0
  146.0688  134.6465  150.5779 H   0  0  0  0  0  0  0  0  0  0  0  0
  145.1802  136.8792  150.9871 H   0  0  0  0  0  0  0  0  0  0  0  0
  143.6458  138.2799  152.5127 H   0  0  0  0  0  0  0  0  0  0  0  0
  142.3226  139.6777  153.1436 H   0  0  0  0  0  0  0  0  0  0  0  0
  140.2973  139.2787  155.0917 H   0  0  0  0  0  0  0  0  0  0  0  0
  141.3294  141.4696  154.9020 H   0  0  0  0  0  0  0  0  0  0  0  0
  140.9392  141.5553  153.1955 H   0  0  0  0  0  0  0  0  0  0  0  0
  139.0323  141.8306  155.5288 H   0  0  0  0  0  0  0  0  0  0  0  0
  139.1110  142.8051  154.0524 H   0  0  0  0  0  0  0  0  0  0  0  0
  139.3503  139.4169  152.1912 H   0  0  0  0  0  0  0  0  0  0  0  0
  138.7250  138.3753  153.4802 H   0  0  0  0  0  0  0  0  0  0  0  0
  142.3581  135.0999  153.7967 H   0  0  0  0  0  0  0  0  0  0  0  0
  143.2968  133.0573  153.3184 H   0  0  0  0  0  0  0  0  0  0  0  0
  1  2  1  0  0  0  0
  1 23  1  0  0  0  0
  1 24  1  0  0  0  0
  1 25  1  0  0  0  0
  2  3  1  0  0  0  0
  2 26  1  0  0  0  0
  2 27  1  0  0  0  0
  3  4  1  0  0  0  0
  3  6  1  0  0  0  0
  4  5  1  0  0  0  0
  4 28  1  0  0  0  0
  4 29  1  0  0  0  0
  5 30  1  0  0  0  0
  5 31  1  0  0  0  0
  5 32  1  0  0  0  0
  6 22  1  0  0  0  0
  6  7  2  0  0  0  0
  7  8  1  0  0  0  0
  7 33  1  0  0  0  0
  8  9  2  0  0  0  0
  8 34  1  0  0  0  0
  9 10  1  0  0  0  0
  9 21  1  0  0  0  0
 10 11  1  0  0  0  0
 10 35  1  0  0  0  0
 11 12  2  0  0  0  0
 11 13  1  0  0  0  0
 13 14  1  0  0  0  0
 13 36  1  0  0  0  0
 14 20  1  0  0  0  0
 14 15  1  0  0  0  0
 14 37  1  0  0  0  0
 15 16  1  0  0  0  0
 15 38  1  0  0  0  0
 15 39  1  0  0  0  0
 16 17  1  0  0  0  0
 16 40  1  0  0  0  0
 16 41  1  0  0  0  0
 17 18  2  0  0  0  0
 17 19  2  0  0  0  0
 17 20  1  0  0  0  0
 20 42  1  0  0  0  0
 20 43  1  0  0  0  0
 21 22  2  0  0  0  0
 21 44  1  0  0  0  0
 22 45  1  0  0  0  0
M  CHG  1  22   1
M  END
> <s_m_source_file>
AV-unprocessed.smi

> <i_m_source_file_index>
1754

> <i_lp_mmshare_version>
43012

> <i_f3d_flags>
0

> <s_epik_input>
W0NIM11bQ0gyXU4oW0NIMl1bQ0gzXSljMVtjSF1bY0hdYyhbY0hdbjEpW05IXUMoPU8pW05IXVtDQEBIXShbQ0gyXTIpW0NIMl1bQ0gyXVMyKD1PKT1P

> <s_epik_cmdline>
J2VwaWtfcHl0aG9uJywgJy1waCcsICc3LjAnLCAnLXRuJywgJzgnLCAnLW1hJywgJzIwMCcsICctbWV0YWxfYmluZGluZycsICctaW1hZScsICc8aW5maWxlLm1hZT4nLCAnLW9tYWUnLCAnPG91dGZpbGUubWFlPic=

> <r_lp_tautomer_probability>
0.999994

> <r_epik_Ionization_Penalty>
0.271106

> <r_epik_Ionization_Penalty_Charging>
0.271085

> <r_epik_Ionization_Penalty_Neutral>
2.10634e-05

> <r_epik_State_Penalty>
0.017795

> <r_epik_Charging_Adjusted_Penalty>
0.28888

> <i_epik_Tot_Q>
1

> <i_epik_Tot_abs_Q>
1

> <r_epik_Metal_State_Penalty>
0.0544868

> <b_epik_Metal_Only>
0

> <s_lp_Force_Field>
OPLS_2005

> <r_lp_Energy>
29.9971

> <b_lp_Chiralities_Consistent>
1

> <s_lp_Variant>
AV-unprocessed.smi:1754-2

> <Gold.Version>
5.8.1

> <Gold.Id.Protein>
6NUR|6NUR_protein|mol2

> <Gold.PLP.Fitness>
45.6844

> <Gold.PLP.PLP>
-37.5264

> <Gold.PLP.part.hbond>
-3.2480

> <Gold.PLP.part.metal>
0.0000

> <Gold.PLP.part.buried>
-5.9617

> <Gold.PLP.part.nonpolar>
-28.9153

> <Gold.PLP.part.repulsive>
0.1727

> <Gold.PLP.ligand.clash>
0.0000

> <Gold.PLP.ligand.torsion>
1.3635

> <Gold.PLP.Chemscore.Hbond>
3.5824

> <Gold.PLP.Chemscore.CHOScore>
0.0000

> <Gold.PLP.Chemscore.Metal>
0.0000

> <Gold.Chemscore.Hbonds>
donor molecule, donor type, donor heavy atom, donor atom, acceptor molecule, acceptor atom, score
      L1  H    10    35       P1 10175  0.60
      L1  H    13    36       P1 10175  1.00
      L1  H    22    45       P1 10957  1.92

> <Gold.PLP.Chemscore.Internal.Correction>
0.1379

> <Gold.Rescore>
     Score         DG    S(hbond)    S(metal)    S(lipo)     H(rot)  DE(clash)    DE(int)     intcor
     15.84     -18.76       2.64        0.00      69.02       1.41       0.00       2.91       ----

> <Gold.Chemscore.Fitness>
15.8417

> <Gold.Chemscore.DG>
-18.7551

> <Gold.Chemscore.ZeroCoef>
-5.4800

> <Gold.Chemscore.Hbond>
2.6353

> <Gold.Chemscore.Metal>
0.0000

> <Gold.Chemscore.Lipo>
69.0182

> <Gold.Chemscore.Internal_Hbond>
0.0000

> <Gold.Chemscore.DEClash>
0.0009

> <Gold.Chemscore.DEInternal>
2.9125

> <Gold.Chemscore.Rot>
1.4070

> <Gold.Chemscore.Internal.Correction>
   9.000000E+99

> <Gold.Chemscore.Hbonds>
donor molecule, donor type, donor heavy atom, donor atom, acceptor molecule, acceptor atom, score
      L1  H    10    35       P1 10175  0.58
      L1  H    13    36       P1 10175  0.92
      L1  H    22    45       P1 10957  0.75

> <Gold.Chemscore.Hbond.Weighted>
-8.8019

> <Gold.Chemscore.Metal.Weighted>
-0.0000

> <Gold.Chemscore.Lipo.Weighted>
-8.0751

> <Gold.Chemscore.Internal_Hbond.Weighted>
0.0000

> <Gold.Chemscore.DEClash.Weighted>
0.0009

> <Gold.Chemscore.DEInternal.Weighted>
2.9125

> <Gold.Chemscore.Rot.Weighted>
3.6020

> <Gold.Chemscore.Internal.Correction.Weighted>
   9.000000E+99

> <Gold.Protein.RotatedTorsions>
[ 6907 6896 6895 6894 ] final  -21.38 input  -60.11 | X-H torsion
[ 7974 7965 7964 7962 ] final -139.39 input  175.53 | X-H torsion
[ 8008 7997 7996 7995 ] final -124.98 input   59.86 | X-H torsion
[ 10167 10162 10161 10158 ] final -140.81 input  -65.29 | X-H torsion
[ 10718 10713 10712 10709 ] final   58.56 input   66.30 | X-H torsion
[ 10763 10752 10751 10750 ] final   76.04 input  -60.55 | X-H torsion
[ 11005 11000 10999 10996 ] final  125.86 input  -57.11 | X-H torsion

> <Gold.Protein.ActiveResidues>
 VAL166  LYS551  ARG553  GLY616  TRP617  ASP618  TYR619  PRO620  LYS621  CYS622 
 ASP623  PHE694  ASN695  SER759  ASP760  ASP761  ALA762  ILE779  LEU786  VAL792 
 PHE793  MET794  SER795  GLU796  ALA797  LYS798  CYS799  TRP800  GLU811  SER814 

> <Gold.Protein.RotatedAtoms>
  151.2342  135.0565  159.8999 H   0  0  0  0  0  0  0  0  0  0  0  0  # atno 6907 bound_to 6896
  152.5401  134.0504  159.8117 H   0  0  0  0  0  0  0  0  0  0  0  0  # atno 6908 bound_to 6896
  151.0688  133.5434  159.2660 H   0  0  0  0  0  0  0  0  0  0  0  0  # atno 6909 bound_to 6896
  144.8681  140.6325  143.5285 H   0  0  0  0  0  0  0  0  0  0  0  0  # atno 7974 bound_to 7965
  155.2058  140.0417  157.2925 H   0  0  0  0  0  0  0  0  0  0  0  0  # atno 8008 bound_to 7997
  154.6044  140.2460  155.7721 H   0  0  0  0  0  0  0  0  0  0  0  0  # atno 8009 bound_to 7997
  156.2341  140.2928  156.0275 H   0  0  0  0  0  0  0  0  0  0  0  0  # atno 8010 bound_to 7997
  139.8246  143.7529  152.2666 H   0  0  0  0  0  0  0  0  0  0  0  0  # atno 10167 bound_to 10162
  157.5606  130.8832  149.9105 H   0  0  0  0  0  0  0  0  0  0  0  0  # atno 10718 bound_to 10713
  153.0697  135.4966  154.8277 H   0  0  0  0  0  0  0  0  0  0  0  0  # atno 10763 bound_to 10752
  154.7004  135.3000  154.9351 H   0  0  0  0  0  0  0  0  0  0  0  0  # atno 10764 bound_to 10752
  154.0077  135.6758  153.4816 H   0  0  0  0  0  0  0  0  0  0  0  0  # atno 10765 bound_to 10752
  139.9427  134.9633  156.8622 H   0  0  0  0  0  0  0  0  0  0  0  0  # atno 11005 bound_to 11000
  145.4183  139.1568  143.4088 LP  0  0  0  0  0  0  0  0  0  0  0  0  # atno 17320 bound_to 7965
  146.2910  140.4291  142.8739 LP  0  0  0  0  0  0  0  0  0  0  0  0  # atno 17321 bound_to 7965
  139.7717  144.7474  151.0215 LP  0  0  0  0  0  0  0  0  0  0  0  0  # atno 17342 bound_to 10162
  140.7811  143.4637  151.0241 LP  0  0  0  0  0  0  0  0  0  0  0  0  # atno 17343 bound_to 10162
  156.0659  130.3692  150.0880 LP  0  0  0  0  0  0  0  0  0  0  0  0  # atno 17370 bound_to 10713
  156.9044  130.9631  151.3572 LP  0  0  0  0  0  0  0  0  0  0  0  0  # atno 17371 bound_to 10713
  140.5910  134.0261  155.7500 LP  0  0  0  0  0  0  0  0  0  0  0  0  # atno 17394 bound_to 11000
  141.1068  133.9681  157.2983 LP  0  0  0  0  0  0  0  0  0  0  0  0  # atno 17395 bound_to 11000

$$$$
