AV-unprocessed.smi:1946|AV-procd|sdf|7861|dock5
  -GOLD-   2272010 13D 1   1.00000     0.00000
 Structure written by MMmdl.
 38 40  0  0  0  0  0  0  0  0  1 V2000
  141.6176  146.1192  155.7241 C   0  0  0  0  0  0  0  0  0  0  0  0
  142.6585  146.3832  154.2319 S   0  0  0  0  0  0  0  0  0  0  0  0
  141.8114  146.1914  153.0445 O   0  0  0  0  0  0  0  0  0  0  0  0
  143.3930  147.6462  154.4060 O   0  0  0  0  0  0  0  0  0  0  0  0
  143.8356  145.0384  154.2977 C   0  0  0  0  0  0  0  0  0  0  0  0
  143.7861  144.1142  155.3600 C   0  0  0  0  0  0  0  0  0  0  0  0
  144.6953  143.0389  155.3900 C   0  0  0  0  0  0  0  0  0  0  0  0
  145.6431  142.8771  154.3543 C   0  0  0  0  0  0  0  0  0  0  0  0
  146.6343  141.7242  154.3827 C   0  0  2  0  0  0  0  0  0  0  0  0
  145.9930  140.4631  154.3689 O   0  0  0  0  0  0  0  0  0  0  0  0
  147.5693  141.8197  155.6033 C   0  0  0  0  0  0  0  0  0  0  0  0
  148.8045  141.0820  155.4115 N   0  0  0  0  0  0  0  0  0  0  0  0
  149.2315  140.4829  154.2831 C   0  0  0  0  0  0  0  0  0  0  0  0
  150.4054  139.8589  154.3317 N   0  0  0  0  0  0  0  0  0  0  0  0
  150.7845  140.0787  155.6450 C   0  0  0  0  0  0  0  0  0  0  0  0
  151.9440  139.6758  156.3457 C   0  0  0  0  0  0  0  0  0  0  0  0
  152.1154  140.0224  157.7023 C   0  0  0  0  0  0  0  0  0  0  0  0
  151.1332  140.7754  158.3782 C   0  0  0  0  0  0  0  0  0  0  0  0
  149.9698  141.1889  157.7011 C   0  0  0  0  0  0  0  0  0  0  0  0
  149.8029  140.8406  156.3478 C   0  0  0  0  0  0  0  0  0  0  0  0
  145.6760  143.8035  153.2892 C   0  0  0  0  0  0  0  0  0  0  0  0
  144.7702  144.8811  153.2555 C   0  0  0  0  0  0  0  0  0  0  0  0
  140.8548  146.8957  155.7759 H   0  0  0  0  0  0  0  0  0  0  0  0
  142.2419  146.1640  156.6162 H   0  0  0  0  0  0  0  0  0  0  0  0
  141.1372  145.1427  155.6652 H   0  0  0  0  0  0  0  0  0  0  0  0
  143.0591  144.2247  156.1510 H   0  0  0  0  0  0  0  0  0  0  0  0
  144.6625  142.3379  156.2113 H   0  0  0  0  0  0  0  0  0  0  0  0
  147.2374  141.7748  153.4750 H   0  0  0  0  0  0  0  0  0  0  0  0
  145.3475  140.4627  153.6786 H   0  0  0  0  0  0  0  0  0  0  0  0
  147.8274  142.8617  155.7975 H   0  0  0  0  0  0  0  0  0  0  0  0
  147.0721  141.4487  156.5009 H   0  0  0  0  0  0  0  0  0  0  0  0
  148.6492  140.5093  153.3736 H   0  0  0  0  0  0  0  0  0  0  0  0
  152.7032  139.0990  155.8385 H   0  0  0  0  0  0  0  0  0  0  0  0
  153.0056  139.7080  158.2271 H   0  0  0  0  0  0  0  0  0  0  0  0
  151.2737  141.0353  159.4172 H   0  0  0  0  0  0  0  0  0  0  0  0
  149.2151  141.7662  158.2143 H   0  0  0  0  0  0  0  0  0  0  0  0
  146.3964  143.6904  152.4923 H   0  0  0  0  0  0  0  0  0  0  0  0
  144.7965  145.5803  152.4326 H   0  0  0  0  0  0  0  0  0  0  0  0
  1  2  1  0  0  0  0
  1 23  1  0  0  0  0
  1 24  1  0  0  0  0
  1 25  1  0  0  0  0
  2  3  2  0  0  0  0
  2  4  2  0  0  0  0
  2  5  1  0  0  0  0
  5 22  1  0  0  0  0
  5  6  2  0  0  0  0
  6  7  1  0  0  0  0
  6 26  1  0  0  0  0
  7  8  2  0  0  0  0
  7 27  1  0  0  0  0
  8  9  1  0  0  0  0
  8 21  1  0  0  0  0
  9 10  1  0  0  0  0
  9 11  1  0  0  0  0
  9 28  1  0  0  0  0
 10 29  1  0  0  0  0
 11 12  1  0  0  0  0
 11 30  1  0  0  0  0
 11 31  1  0  0  0  0
 12 20  1  0  0  0  0
 12 13  1  0  0  0  0
 13 14  2  0  0  0  0
 13 32  1  0  0  0  0
 14 15  1  0  0  0  0
 15 20  2  0  0  0  0
 15 16  1  0  0  0  0
 16 17  2  0  0  0  0
 16 33  1  0  0  0  0
 17 18  1  0  0  0  0
 17 34  1  0  0  0  0
 18 19  2  0  0  0  0
 18 35  1  0  0  0  0
 19 20  1  0  0  0  0
 19 36  1  0  0  0  0
 21 22  2  0  0  0  0
 21 37  1  0  0  0  0
 22 38  1  0  0  0  0
M  END
> <s_m_source_file>
AV-unprocessed.smi

> <i_m_source_file_index>
1946

> <i_lp_mmshare_version>
43012

> <i_f3d_flags>
0

> <s_epik_input>
W0NIM11TKD1PKSg9TyljMVtjSF1bY0hdYyhbY0hdW2NIXTEpW0NASF0oW09IXSlbQ0gyXW4oW2NIXW4yKWMoYzIzKVtjSF1bY0hdW2NIXVtjSF0z

> <s_epik_cmdline>
J2VwaWtfcHl0aG9uJywgJy1waCcsICc3LjAnLCAnLXRuJywgJzgnLCAnLW1hJywgJzIwMCcsICctbWV0YWxfYmluZGluZycsICctaW1hZScsICc8aW5maWxlLm1hZT4nLCAnLW9tYWUnLCAnPG91dGZpbGUubWFlPic=

> <r_epik_Ionization_Penalty>
0.0696512

> <r_epik_Ionization_Penalty_Charging>
0

> <r_epik_Ionization_Penalty_Neutral>
0.0696512

> <r_epik_State_Penalty>
0.0610247

> <r_epik_Charging_Adjusted_Penalty>
0.0610247

> <i_epik_Tot_Q>
0

> <i_epik_Tot_abs_Q>
0

> <r_epik_Metal_State_Penalty>
6.42746e-05

> <b_epik_Metal_Only>
0

> <s_lp_Force_Field>
OPLS_2005

> <r_lp_Energy>
7.3467

> <b_lp_Chiralities_Consistent>
1

> <s_lp_Variant>
AV-unprocessed.smi:1946-1

> <Gold.Version>
5.8.1

> <Gold.Id.Protein>
6NUR|6NUR_protein|mol2

> <Gold.PLP.Fitness>
48.7056

> <Gold.PLP.PLP>
-41.3459

> <Gold.PLP.part.hbond>
-3.1920

> <Gold.PLP.part.metal>
0.0000

> <Gold.PLP.part.buried>
-3.7954

> <Gold.PLP.part.nonpolar>
-35.9863

> <Gold.PLP.part.repulsive>
0.2854

> <Gold.PLP.ligand.clash>
0.0000

> <Gold.PLP.ligand.torsion>
1.4799

> <Gold.PLP.Chemscore.Hbond>
1.9100

> <Gold.PLP.Chemscore.CHOScore>
0.8494

> <Gold.PLP.Chemscore.Metal>
0.0000

> <Gold.Chemscore.Hbonds>
donor molecule, donor type, donor heavy atom, donor atom, acceptor molecule, acceptor atom, score
      L1  H    10    29       P1 10175  0.94
      P1  H  7989  7998       L1    14  1.00
      L1  C    13    32       P1  7957  0.87

> <Gold.PLP.Chemscore.Internal.Correction>
2.0414

> <Gold.Rescore>
     Score         DG    S(hbond)    S(metal)    S(lipo)     H(rot)  DE(clash)    DE(int)     intcor
     10.62     -14.38       1.63        0.00      73.05       1.98       2.07       1.69       ----

> <Gold.Chemscore.Fitness>
10.6246

> <Gold.Chemscore.DG>
-14.3846

> <Gold.Chemscore.ZeroCoef>
-5.4800

> <Gold.Chemscore.Hbond>
1.6277

> <Gold.Chemscore.Metal>
0.0000

> <Gold.Chemscore.Lipo>
73.0521

> <Gold.Chemscore.Internal_Hbond>
0.0000

> <Gold.Chemscore.DEClash>
2.0670

> <Gold.Chemscore.DEInternal>
1.6930

> <Gold.Chemscore.Rot>
1.9840

> <Gold.Chemscore.Internal.Correction>
   9.000000E+99

> <Gold.Chemscore.Hbonds>
donor molecule, donor type, donor heavy atom, donor atom, acceptor molecule, acceptor atom, score
      L1  H    10    29       P1 10175  0.89
      P1  H  7989  7998       L1    14  0.17

> <Gold.Chemscore.Hbond.Weighted>
-5.4366

> <Gold.Chemscore.Metal.Weighted>
-0.0000

> <Gold.Chemscore.Lipo.Weighted>
-8.5471

> <Gold.Chemscore.Internal_Hbond.Weighted>
0.0000

> <Gold.Chemscore.DEClash.Weighted>
2.0670

> <Gold.Chemscore.DEInternal.Weighted>
1.6930

> <Gold.Chemscore.Rot.Weighted>
5.0791

> <Gold.Chemscore.Internal.Correction.Weighted>
   9.000000E+99

> <Gold.Protein.RotatedTorsions>
[ 6907 6896 6895 6894 ] final  -26.63 input  -60.11 | X-H torsion
[ 7974 7965 7964 7962 ] final -154.97 input  175.53 | X-H torsion
[ 8008 7997 7996 7995 ] final  -38.23 input   59.86 | X-H torsion
[ 10167 10162 10161 10158 ] final   65.81 input  -65.29 | X-H torsion
[ 10718 10713 10712 10709 ] final  116.75 input   66.30 | X-H torsion
[ 10763 10752 10751 10750 ] final   60.75 input  -60.55 | X-H torsion
[ 11005 11000 10999 10996 ] final  179.48 input  -57.11 | X-H torsion

> <Gold.Protein.ActiveResidues>
 VAL166  LYS551  ARG553  GLY616  TRP617  ASP618  TYR619  PRO620  LYS621  CYS622 
 ASP623  PHE694  ASN695  SER759  ASP760  ASP761  ALA762  ILE779  LEU786  VAL792 
 PHE793  MET794  SER795  GLU796  ALA797  LYS798  CYS799  TRP800  GLU811  SER814 

> <Gold.Protein.RotatedAtoms>
  151.1583  135.0261  159.8698 H   0  0  0  0  0  0  0  0  0  0  0  0  # atno 6907 bound_to 6896
  152.5452  134.1308  159.8448 H   0  0  0  0  0  0  0  0  0  0  0  0  # atno 6908 bound_to 6896
  151.1401  133.4931  159.2629 H   0  0  0  0  0  0  0  0  0  0  0  0  # atno 6909 bound_to 6896
  144.7663  140.4314  143.5940 H   0  0  0  0  0  0  0  0  0  0  0  0  # atno 7974 bound_to 7965
  154.4040  140.1583  156.2666 H   0  0  0  0  0  0  0  0  0  0  0  0  # atno 8008 bound_to 7997
  155.8990  140.3434  155.5990 H   0  0  0  0  0  0  0  0  0  0  0  0  # atno 8009 bound_to 7997
  155.7470  140.0800  157.2209 H   0  0  0  0  0  0  0  0  0  0  0  0  # atno 8010 bound_to 7997
  140.1073  144.4850  150.7000 H   0  0  0  0  0  0  0  0  0  0  0  0  # atno 10167 bound_to 10162
  157.6140  131.1029  150.7518 H   0  0  0  0  0  0  0  0  0  0  0  0  # atno 10718 bound_to 10713
  152.9930  135.5525  154.5924 H   0  0  0  0  0  0  0  0  0  0  0  0  # atno 10763 bound_to 10752
  154.5283  135.2812  155.1205 H   0  0  0  0  0  0  0  0  0  0  0  0  # atno 10764 bound_to 10752
  154.2530  135.6395  153.5300 H   0  0  0  0  0  0  0  0  0  0  0  0  # atno 10765 bound_to 10752
  140.4067  134.6729  157.4591 H   0  0  0  0  0  0  0  0  0  0  0  0  # atno 11005 bound_to 11000
  145.6460  139.1557  143.2888 LP  0  0  0  0  0  0  0  0  0  0  0  0  # atno 17320 bound_to 7965
  146.1773  140.6553  142.9205 LP  0  0  0  0  0  0  0  0  0  0  0  0  # atno 17321 bound_to 7965
  140.6945  143.2395  151.5039 LP  0  0  0  0  0  0  0  0  0  0  0  0  # atno 17342 bound_to 10162
  139.5638  144.2091  152.1734 LP  0  0  0  0  0  0  0  0  0  0  0  0  # atno 17343 bound_to 10162
  156.7889  130.4883  149.5388 LP  0  0  0  0  0  0  0  0  0  0  0  0  # atno 17370 bound_to 10713
  156.1255  130.6140  151.0256 LP  0  0  0  0  0  0  0  0  0  0  0  0  # atno 17371 bound_to 10713
  140.0297  134.6424  155.9123 LP  0  0  0  0  0  0  0  0  0  0  0  0  # atno 17394 bound_to 11000
  141.1836  133.6551  156.5125 LP  0  0  0  0  0  0  0  0  0  0  0  0  # atno 17395 bound_to 11000

$$$$
