AV-unprocessed.smi:1703|AV-procd|sdf|6880|dock2
  -GOLD-   22720 8 83D 1   1.00000     0.00000
 Structure written by MMmdl.
 50 52  0  0  0  0  0  0  0  0  3 V2000
  149.2336  133.9519  154.0133 C   0  0  0  0  0  0  0  0  0  0  0  0
  149.5825  134.6382  155.3459 C   0  0  1  0  0  0  0  0  0  0  0  0
  150.6022  135.7851  155.1990 C   0  0  0  0  0  0  0  0  0  0  0  0
  149.9759  136.9836  154.5871 N   0  3  2  0  0  0  0  0  0  0  0  0
  150.9247  138.1062  154.3773 C   0  0  0  0  0  0  0  0  0  0  0  0
  151.6492  138.5274  155.6751 C   0  0  1  0  0  0  0  0  0  0  0  0
  153.0257  138.6965  155.4042 O   0  0  0  0  0  0  0  0  0  0  0  0
  151.1329  139.8537  156.2675 C   0  0  0  0  0  0  0  0  0  0  0  0
  151.6947  140.1478  157.5967 N   0  0  0  0  0  0  0  0  0  0  0  0
  152.1016  139.2955  158.5825 C   0  0  0  0  0  0  0  0  0  0  0  0
  152.0582  137.8028  158.5581 C   0  0  0  0  0  0  0  0  0  0  0  0
  151.3200  137.2709  159.6361 O   0  0  0  0  0  0  0  0  0  0  0  0
  152.5474  140.0591  159.6188 N   0  3  0  0  0  0  0  0  0  0  0  0
  152.4268  141.4110  159.2973 C   0  0  0  0  0  0  0  0  0  0  0  0
  152.7459  142.5507  160.0289 C   0  0  0  0  0  0  0  0  0  0  0  0
  152.4937  143.7918  159.4092 C   0  0  0  0  0  0  0  0  0  0  0  0
  151.9439  143.8660  158.1133 C   0  0  0  0  0  0  0  0  0  0  0  0
  151.6242  142.7035  157.3812 C   0  0  0  0  0  0  0  0  0  0  0  0
  151.8794  141.4781  157.9989 C   0  0  0  0  0  0  0  0  0  0  0  0
  148.7819  137.3899  155.3628 C   0  0  0  0  0  0  0  0  0  0  0  0
  147.7797  136.2258  155.4562 C   0  0  2  0  0  0  0  0  0  0  0  0
  146.5664  136.5805  156.3228 C   0  0  0  0  0  0  0  0  0  0  0  0
  148.4212  135.0949  156.0397 O   0  0  0  0  0  0  0  0  0  0  0  0
  150.1194  133.4945  153.5716 H   0  0  0  0  0  0  0  0  0  0  0  0
  148.8303  134.6492  153.2797 H   0  0  0  0  0  0  0  0  0  0  0  0
  148.4977  133.1617  154.1643 H   0  0  0  0  0  0  0  0  0  0  0  0
  150.0321  133.8758  155.9827 H   0  0  0  0  0  0  0  0  0  0  0  0
  150.9918  136.0514  156.1828 H   0  0  0  0  0  0  0  0  0  0  0  0
  151.4530  135.4448  154.6094 H   0  0  0  0  0  0  0  0  0  0  0  0
  151.6773  137.8253  153.6385 H   0  0  0  0  0  0  0  0  0  0  0  0
  150.3745  138.9420  153.9438 H   0  0  0  0  0  0  0  0  0  0  0  0
  151.5527  137.7535  156.4347 H   0  0  0  0  0  0  0  0  0  0  0  0
  153.2061  138.3986  154.5259 H   0  0  0  0  0  0  0  0  0  0  0  0
  151.4022  140.6843  155.6142 H   0  0  0  0  0  0  0  0  0  0  0  0
  150.0448  139.8607  156.3199 H   0  0  0  0  0  0  0  0  0  0  0  0
  151.6215  137.4607  157.6200 H   0  0  0  0  0  0  0  0  0  0  0  0
  153.0748  137.4110  158.5990 H   0  0  0  0  0  0  0  0  0  0  0  0
  150.4202  137.5480  159.5485 H   0  0  0  0  0  0  0  0  0  0  0  0
  153.1659  142.4961  161.0227 H   0  0  0  0  0  0  0  0  0  0  0  0
  152.7258  144.7047  159.9386 H   0  0  0  0  0  0  0  0  0  0  0  0
  151.7634  144.8353  157.6711 H   0  0  0  0  0  0  0  0  0  0  0  0
  151.2014  142.7808  156.3910 H   0  0  0  0  0  0  0  0  0  0  0  0
  149.0868  137.7125  156.3600 H   0  0  0  0  0  0  0  0  0  0  0  0
  148.3030  138.2439  154.8818 H   0  0  0  0  0  0  0  0  0  0  0  0
  147.4191  135.9717  154.4593 H   0  0  0  0  0  0  0  0  0  0  0  0
  146.0329  137.4416  155.9191 H   0  0  0  0  0  0  0  0  0  0  0  0
  146.8656  136.8201  157.3437 H   0  0  0  0  0  0  0  0  0  0  0  0
  145.8642  135.7477  156.3687 H   0  0  0  0  0  0  0  0  0  0  0  0
  149.6396  136.7142  153.6738 H   0  0  0  0  0  0  0  0  0  0  0  0
  152.9072  139.6788  160.4850 H   0  0  0  0  0  0  0  0  0  0  0  0
  1  2  1  0  0  0  0
  1 24  1  0  0  0  0
  1 25  1  0  0  0  0
  1 26  1  0  0  0  0
  2 23  1  0  0  0  0
  2  3  1  0  0  0  0
  2 27  1  0  0  0  0
  3  4  1  0  0  0  0
  3 28  1  0  0  0  0
  3 29  1  0  0  0  0
  4  5  1  0  0  0  0
  4 20  1  0  0  0  0
  4 49  1  0  0  0  0
  5  6  1  0  0  0  0
  5 30  1  0  0  0  0
  5 31  1  0  0  0  0
  6  7  1  0  0  0  0
  6  8  1  0  0  0  0
  6 32  1  0  0  0  0
  7 33  1  0  0  0  0
  8  9  1  0  0  0  0
  8 34  1  0  0  0  0
  8 35  1  0  0  0  0
  9 19  1  0  0  0  0
  9 10  1  0  0  0  0
 10 11  1  0  0  0  0
 10 13  2  0  0  0  0
 11 12  1  0  0  0  0
 11 36  1  0  0  0  0
 11 37  1  0  0  0  0
 12 38  1  0  0  0  0
 13 14  1  0  0  0  0
 13 50  1  0  0  0  0
 14 19  2  0  0  0  0
 14 15  1  0  0  0  0
 15 16  2  0  0  0  0
 15 39  1  0  0  0  0
 16 17  1  0  0  0  0
 16 40  1  0  0  0  0
 17 18  2  0  0  0  0
 17 41  1  0  0  0  0
 18 19  1  0  0  0  0
 18 42  1  0  0  0  0
 20 21  1  0  0  0  0
 20 43  1  0  0  0  0
 20 44  1  0  0  0  0
 21 22  1  0  0  0  0
 21 23  1  0  0  0  0
 21 45  1  0  0  0  0
 22 46  1  0  0  0  0
 22 47  1  0  0  0  0
 22 48  1  0  0  0  0
M  CHG  1   4   1
M  CHG  1  13   1
M  END
> <s_m_source_file>
AV-unprocessed.smi

> <i_m_source_file_index>
1703

> <i_lp_mmshare_version>
43012

> <i_f3d_flags>
0

> <s_epik_input>
W0NIM11bQ0BASF0xW0NIMl1OKFtDSDJdW0NASF0oTzEpW0NIM10pW0NIMl1bQ0BIXShbT0hdKVtDSDJdbihjKG4yKVtDSDJdW09IXSljKGMyMylbY0hdW2NIXVtjSF1bY0hdMw==

> <s_epik_cmdline>
J2VwaWtfcHl0aG9uJywgJy1waCcsICc3LjAnLCAnLXRuJywgJzgnLCAnLW1hJywgJzIwMCcsICctbWV0YWxfYmluZGluZycsICctaW1hZScsICc8aW5maWxlLm1hZT4nLCAnLW9tYWUnLCAnPG91dGZpbGUubWFlPic=

> <r_epik_Ionization_Penalty>
2.22579

> <r_epik_Ionization_Penalty_Charging>
2.22492

> <r_epik_Ionization_Penalty_Neutral>
0.000870007

> <r_epik_State_Penalty>
2.3141

> <r_epik_Charging_Adjusted_Penalty>
4.53902

> <i_epik_Tot_Q>
2

> <i_epik_Tot_abs_Q>
2

> <r_epik_Metal_State_Penalty>
6.36517

> <b_epik_Metal_Only>
0

> <s_lp_Force_Field>
OPLS_2005

> <r_lp_Energy>
31.7221

> <b_lp_Chiralities_Consistent>
1

> <s_lp_Variant>
AV-unprocessed.smi:1703-28

> <Gold.Version>
5.8.1

> <Gold.Id.Protein>
6NUR|6NUR_protein|mol2

> <Gold.PLP.Fitness>
49.4077

> <Gold.PLP.PLP>
-39.4656

> <Gold.PLP.part.hbond>
-3.0000

> <Gold.PLP.part.metal>
0.0000

> <Gold.PLP.part.buried>
-5.1879

> <Gold.PLP.part.nonpolar>
-31.6638

> <Gold.PLP.part.repulsive>
0.1957

> <Gold.PLP.ligand.clash>
0.0000

> <Gold.PLP.ligand.torsion>
1.0966

> <Gold.PLP.Chemscore.Hbond>
3.9913

> <Gold.PLP.Chemscore.CHOScore>
0.0000

> <Gold.PLP.Chemscore.Metal>
0.0000

> <Gold.Chemscore.Hbonds>
donor molecule, donor type, donor heavy atom, donor atom, acceptor molecule, acceptor atom, score
      L1  H     4    49       P1  7948  2.00
      P1  H  6896  6907       L1    12  0.73
      P1  H  7997  8010       L1     7  0.83

> <Gold.PLP.Chemscore.Internal.Correction>
0.1615

> <Gold.Rescore>
     Score         DG    S(hbond)    S(metal)    S(lipo)     H(rot)  DE(clash)    DE(int)     intcor
     15.58     -17.94       2.37        0.00     105.23       3.04       0.26       2.10       ----

> <Gold.Chemscore.Fitness>
15.5767

> <Gold.Chemscore.DG>
-17.9373

> <Gold.Chemscore.ZeroCoef>
-5.4800

> <Gold.Chemscore.Hbond>
2.3718

> <Gold.Chemscore.Metal>
0.0000

> <Gold.Chemscore.Lipo>
105.2332

> <Gold.Chemscore.Internal_Hbond>
0.0000

> <Gold.Chemscore.DEClash>
0.2614

> <Gold.Chemscore.DEInternal>
2.0991

> <Gold.Chemscore.Rot>
3.0378

> <Gold.Chemscore.Internal.Correction>
   9.000000E+99

> <Gold.Chemscore.Hbonds>
donor molecule, donor type, donor heavy atom, donor atom, acceptor molecule, acceptor atom, score
      L1  H     4    49       P1  7948  0.69
      P1  H  6896  6907       L1    12  0.59
      P1  H  7997  8010       L1     7  0.71

> <Gold.Chemscore.Hbond.Weighted>
-7.9217

> <Gold.Chemscore.Metal.Weighted>
-0.0000

> <Gold.Chemscore.Lipo.Weighted>
-12.3123

> <Gold.Chemscore.Internal_Hbond.Weighted>
0.0000

> <Gold.Chemscore.DEClash.Weighted>
0.2614

> <Gold.Chemscore.DEInternal.Weighted>
2.0991

> <Gold.Chemscore.Rot.Weighted>
7.7767

> <Gold.Chemscore.Internal.Correction.Weighted>
   9.000000E+99

> <Gold.Protein.RotatedTorsions>
[ 6907 6896 6895 6894 ] final   -0.31 input  -60.11 | X-H torsion
[ 7974 7965 7964 7962 ] final   17.75 input  175.53 | X-H torsion
[ 8008 7997 7996 7995 ] final   90.63 input   59.86 | X-H torsion
[ 10167 10162 10161 10158 ] final  -16.57 input  -65.29 | X-H torsion
[ 10718 10713 10712 10709 ] final  -90.61 input   66.30 | X-H torsion
[ 10763 10752 10751 10750 ] final  -79.81 input  -60.55 | X-H torsion
[ 11005 11000 10999 10996 ] final  -70.12 input  -57.11 | X-H torsion

> <Gold.Protein.ActiveResidues>
 VAL166  LYS551  ARG553  GLY616  TRP617  ASP618  TYR619  PRO620  LYS621  CYS622 
 ASP623  PHE694  ASN695  SER759  ASP760  ASP761  ALA762  ILE779  LEU786  VAL792 
 PHE793  MET794  SER795  GLU796  ALA797  LYS798  CYS799  TRP800  GLU811  SER814 

> <Gold.Protein.RotatedAtoms>
  151.5643  135.1064  159.9979 H   0  0  0  0  0  0  0  0  0  0  0  0  # atno 6907 bound_to 6896
  152.4431  133.7482  159.6689 H   0  0  0  0  0  0  0  0  0  0  0  0  # atno 6908 bound_to 6896
  150.8341  133.7974  159.3110 H   0  0  0  0  0  0  0  0  0  0  0  0  # atno 6909 bound_to 6896
  146.2208  139.8557  142.8614 H   0  0  0  0  0  0  0  0  0  0  0  0  # atno 7974 bound_to 7965
  156.0142  140.3347  155.6972 H   0  0  0  0  0  0  0  0  0  0  0  0  # atno 8008 bound_to 7997
  155.6115  140.0665  157.2722 H   0  0  0  0  0  0  0  0  0  0  0  0  # atno 8009 bound_to 7997
  154.4292  140.1792  156.1264 H   0  0  0  0  0  0  0  0  0  0  0  0  # atno 8010 bound_to 7997
  140.7235  143.5103  150.9758 H   0  0  0  0  0  0  0  0  0  0  0  0  # atno 10167 bound_to 10162
  155.9989  130.4916  150.5349 H   0  0  0  0  0  0  0  0  0  0  0  0  # atno 10718 bound_to 10713
  154.5434  135.5682  153.6859 H   0  0  0  0  0  0  0  0  0  0  0  0  # atno 10763 bound_to 10752
  152.9969  135.6233  154.2472 H   0  0  0  0  0  0  0  0  0  0  0  0  # atno 10764 bound_to 10752
  154.2404  135.2862  155.2836 H   0  0  0  0  0  0  0  0  0  0  0  0  # atno 10765 bound_to 10752
  141.1568  133.6782  156.6705 H   0  0  0  0  0  0  0  0  0  0  0  0  # atno 11005 bound_to 11000
  145.2755  141.0122  143.3747 LP  0  0  0  0  0  0  0  0  0  0  0  0  # atno 17320 bound_to 7965
  144.9190  139.4435  143.6550 LP  0  0  0  0  0  0  0  0  0  0  0  0  # atno 17321 bound_to 7965
  139.8816  143.7064  152.3156 LP  0  0  0  0  0  0  0  0  0  0  0  0  # atno 17342 bound_to 10162
  139.7349  144.7574  151.0744 LP  0  0  0  0  0  0  0  0  0  0  0  0  # atno 17343 bound_to 10162
  157.3293  131.0696  151.1873 LP  0  0  0  0  0  0  0  0  0  0  0  0  # atno 17370 bound_to 10713
  157.2759  130.6726  149.6042 LP  0  0  0  0  0  0  0  0  0  0  0  0  # atno 17371 bound_to 10713
  140.3179  134.8032  157.4229 LP  0  0  0  0  0  0  0  0  0  0  0  0  # atno 17394 bound_to 11000
  140.1122  134.5330  155.8256 LP  0  0  0  0  0  0  0  0  0  0  0  0  # atno 17395 bound_to 11000

$$$$
