AV-unprocessed.smi:1697|AV-procd|sdf|6811|dock7
  -GOLD-   22720 7593D 1   1.00000     0.00000
 Structure written by MMmdl.
 53 55  0  0  0  0  0  0  0  0  1 V2000
  146.5203  133.4838  152.1875 C   0  0  0  0  0  0  0  0  0  0  0  0
  147.6000  132.4378  152.4735 C   0  0  0  0  0  0  0  0  0  0  0  0
  147.7960  132.3556  153.8775 O   0  0  0  0  0  0  0  0  0  0  0  0
  148.1762  133.5806  154.4922 C   0  0  0  0  0  0  0  0  0  0  0  0
  149.6040  133.9989  154.0911 C   0  0  0  0  0  0  0  0  0  0  0  0
  150.0571  135.2199  154.9093 C   0  0  0  0  0  0  0  0  0  0  0  0
  150.0058  134.9869  156.3532 N   0  0  0  0  0  0  0  0  0  0  0  0
  150.5129  136.1530  157.0800 C   0  0  0  0  0  0  0  0  0  0  0  0
  151.9111  136.6460  156.6577 C   0  0  2  0  0  0  0  0  0  0  0  0
  152.8287  135.5940  156.8785 O   0  0  0  0  0  0  0  0  0  0  0  0
  152.3691  137.8892  157.4458 C   0  0  0  0  0  0  0  0  0  0  0  0
  151.9182  139.1236  156.8300 N   0  0  0  0  0  0  0  0  0  0  0  0
  151.3892  139.2809  155.6014 C   0  0  0  0  0  0  0  0  0  0  0  0
  151.0375  140.5131  155.2446 N   0  0  0  0  0  0  0  0  0  0  0  0
  151.3836  141.2400  156.3712 C   0  0  0  0  0  0  0  0  0  0  0  0
  151.2683  142.6206  156.6448 C   0  0  0  0  0  0  0  0  0  0  0  0
  151.6942  143.1520  157.8833 C   0  0  0  0  0  0  0  0  0  0  0  0
  151.5528  144.6429  158.1346 C   0  0  0  0  0  0  0  0  0  0  0  0
  152.2468  142.2976  158.8713 C   0  0  0  0  0  0  0  0  0  0  0  0
  152.7155  142.8460  160.2075 C   0  0  0  0  0  0  0  0  0  0  0  0
  152.3658  140.9157  158.6158 C   0  0  0  0  0  0  0  0  0  0  0  0
  151.9388  140.3997  157.3798 C   0  0  0  0  0  0  0  0  0  0  0  0
  148.6392  134.6307  156.7476 C   0  0  0  0  0  0  0  0  0  0  0  0
  148.1193  133.3827  156.0148 C   0  0  0  0  0  0  0  0  0  0  0  0
  146.3462  133.5799  151.1158 H   0  0  0  0  0  0  0  0  0  0  0  0
  146.8128  134.4628  152.5681 H   0  0  0  0  0  0  0  0  0  0  0  0
  145.5752  133.2095  152.6571 H   0  0  0  0  0  0  0  0  0  0  0  0
  147.2920  131.4746  152.0674 H   0  0  0  0  0  0  0  0  0  0  0  0
  148.5292  132.7237  151.9788 H   0  0  0  0  0  0  0  0  0  0  0  0
  147.4696  134.3678  154.2223 H   0  0  0  0  0  0  0  0  0  0  0  0
  150.2930  133.1701  154.2595 H   0  0  0  0  0  0  0  0  0  0  0  0
  149.6548  134.2372  153.0292 H   0  0  0  0  0  0  0  0  0  0  0  0
  151.0751  135.4782  154.6157 H   0  0  0  0  0  0  0  0  0  0  0  0
  149.4360  136.0792  154.6516 H   0  0  0  0  0  0  0  0  0  0  0  0
  149.8156  136.9822  156.9509 H   0  0  0  0  0  0  0  0  0  0  0  0
  150.5171  135.9332  158.1490 H   0  0  0  0  0  0  0  0  0  0  0  0
  151.9319  136.8568  155.5891 H   0  0  0  0  0  0  0  0  0  0  0  0
  153.3423  135.8022  157.6441 H   0  0  0  0  0  0  0  0  0  0  0  0
  151.9755  137.8607  158.4627 H   0  0  0  0  0  0  0  0  0  0  0  0
  153.4563  137.9130  157.5336 H   0  0  0  0  0  0  0  0  0  0  0  0
  151.2497  138.4431  154.9336 H   0  0  0  0  0  0  0  0  0  0  0  0
  150.8486  143.2711  155.8916 H   0  0  0  0  0  0  0  0  0  0  0  0
  152.5335  145.1011  158.2631 H   0  0  0  0  0  0  0  0  0  0  0  0
  150.9634  144.8268  159.0331 H   0  0  0  0  0  0  0  0  0  0  0  0
  151.0564  145.1421  157.3021 H   0  0  0  0  0  0  0  0  0  0  0  0
  153.1675  142.0658  160.8207 H   0  0  0  0  0  0  0  0  0  0  0  0
  151.8764  143.2654  160.7627 H   0  0  0  0  0  0  0  0  0  0  0  0
  153.4607  143.6281  160.0608 H   0  0  0  0  0  0  0  0  0  0  0  0
  152.7820  140.2521  159.3594 H   0  0  0  0  0  0  0  0  0  0  0  0
  148.5945  134.4297  157.8168 H   0  0  0  0  0  0  0  0  0  0  0  0
  147.9680  135.4704  156.5612 H   0  0  0  0  0  0  0  0  0  0  0  0
  147.0974  133.1652  156.3265 H   0  0  0  0  0  0  0  0  0  0  0  0
  148.7215  132.5186  156.2990 H   0  0  0  0  0  0  0  0  0  0  0  0
  1  2  1  0  0  0  0
  1 25  1  0  0  0  0
  1 26  1  0  0  0  0
  1 27  1  0  0  0  0
  2  3  1  0  0  0  0
  2 28  1  0  0  0  0
  2 29  1  0  0  0  0
  3  4  1  0  0  0  0
  4 24  1  0  0  0  0
  4  5  1  0  0  0  0
  4 30  1  0  0  0  0
  5  6  1  0  0  0  0
  5 31  1  0  0  0  0
  5 32  1  0  0  0  0
  6  7  1  0  0  0  0
  6 33  1  0  0  0  0
  6 34  1  0  0  0  0
  7  8  1  0  0  0  0
  7 23  1  0  0  0  0
  8  9  1  0  0  0  0
  8 35  1  0  0  0  0
  8 36  1  0  0  0  0
  9 10  1  0  0  0  0
  9 11  1  0  0  0  0
  9 37  1  0  0  0  0
 10 38  1  0  0  0  0
 11 12  1  0  0  0  0
 11 39  1  0  0  0  0
 11 40  1  0  0  0  0
 12 22  1  0  0  0  0
 12 13  1  0  0  0  0
 13 14  2  0  0  0  0
 13 41  1  0  0  0  0
 14 15  1  0  0  0  0
 15 22  2  0  0  0  0
 15 16  1  0  0  0  0
 16 17  2  0  0  0  0
 16 42  1  0  0  0  0
 17 18  1  0  0  0  0
 17 19  1  0  0  0  0
 18 43  1  0  0  0  0
 18 44  1  0  0  0  0
 18 45  1  0  0  0  0
 19 20  1  0  0  0  0
 19 21  2  0  0  0  0
 20 46  1  0  0  0  0
 20 47  1  0  0  0  0
 20 48  1  0  0  0  0
 21 22  1  0  0  0  0
 21 49  1  0  0  0  0
 23 24  1  0  0  0  0
 23 50  1  0  0  0  0
 23 51  1  0  0  0  0
 24 52  1  0  0  0  0
 24 53  1  0  0  0  0
M  END
> <s_m_source_file>
AV-unprocessed.smi

> <i_m_source_file_index>
1697

> <i_lp_mmshare_version>
43012

> <i_f3d_flags>
0

> <s_epik_input>
W0NIM11bQ0gyXU9bQ0hdMVtDSDJdW0NIMl1OKFtDSDJdW0NIMl0xKVtDSDJdW0NASF0oW09IXSlbQ0gyXW4oW2NIXW4yKWMoYzIzKVtjSF1jKFtDSDNdKWMoW2NIXTMpW0NIM10=

> <s_epik_cmdline>
J2VwaWtfcHl0aG9uJywgJy1waCcsICc3LjAnLCAnLXRuJywgJzgnLCAnLW1hJywgJzIwMCcsICctbWV0YWxfYmluZGluZycsICctaW1hZScsICc8aW5maWxlLm1hZT4nLCAnLW9tYWUnLCAnPG91dGZpbGUubWFlPic=

> <r_epik_Ionization_Penalty>
1.9836

> <r_epik_Ionization_Penalty_Charging>
0

> <r_epik_Ionization_Penalty_Neutral>
1.9836

> <r_epik_State_Penalty>
2.07269

> <r_epik_Charging_Adjusted_Penalty>
2.07269

> <i_epik_Tot_Q>
0

> <i_epik_Tot_abs_Q>
0

> <r_epik_Metal_State_Penalty>
2.00215

> <b_epik_Metal_Only>
0

> <s_lp_Force_Field>
OPLS_2005

> <r_lp_Energy>
30.2153

> <b_lp_Chiralities_Consistent>
1

> <s_lp_Variant>
AV-unprocessed.smi:1697-9

> <Gold.Version>
5.8.1

> <Gold.Id.Protein>
6NUR|6NUR_protein|mol2

> <Gold.PLP.Fitness>
43.5584

> <Gold.PLP.PLP>
-38.5639

> <Gold.PLP.part.hbond>
-2.0000

> <Gold.PLP.part.metal>
0.0000

> <Gold.PLP.part.buried>
-5.0226

> <Gold.PLP.part.nonpolar>
-31.6572

> <Gold.PLP.part.repulsive>
0.1063

> <Gold.PLP.ligand.clash>
0.0000

> <Gold.PLP.ligand.torsion>
0.5212

> <Gold.PLP.Chemscore.Hbond>
1.9760

> <Gold.PLP.Chemscore.CHOScore>
0.0000

> <Gold.PLP.Chemscore.Metal>
0.0000

> <Gold.Chemscore.Hbonds>
donor molecule, donor type, donor heavy atom, donor atom, acceptor molecule, acceptor atom, score
      P1  H  7989  7998       L1    14  0.96
      P1  H 10752 10765       L1    10  1.00

> <Gold.PLP.Chemscore.Internal.Correction>
0.1090

> <Gold.Rescore>
     Score         DG    S(hbond)    S(metal)    S(lipo)     H(rot)  DE(clash)    DE(int)     intcor
     17.23     -17.84       1.26        0.00     117.82       2.19       0.10       0.52       ----

> <Gold.Chemscore.Fitness>
17.2252

> <Gold.Chemscore.DG>
-17.8408

> <Gold.Chemscore.ZeroCoef>
-5.4800

> <Gold.Chemscore.Hbond>
1.2555

> <Gold.Chemscore.Metal>
0.0000

> <Gold.Chemscore.Lipo>
117.8189

> <Gold.Chemscore.Internal_Hbond>
0.0000

> <Gold.Chemscore.DEClash>
0.1000

> <Gold.Chemscore.DEInternal>
0.5156

> <Gold.Chemscore.Rot>
2.1943

> <Gold.Chemscore.Internal.Correction>
   9.000000E+99

> <Gold.Chemscore.Hbonds>
donor molecule, donor type, donor heavy atom, donor atom, acceptor molecule, acceptor atom, score
      P1  H  7989  7998       L1    14  0.68
      P1  H 10752 10765       L1    10  0.39

> <Gold.Chemscore.Hbond.Weighted>
-4.1934

> <Gold.Chemscore.Metal.Weighted>
-0.0000

> <Gold.Chemscore.Lipo.Weighted>
-13.7848

> <Gold.Chemscore.Internal_Hbond.Weighted>
0.0000

> <Gold.Chemscore.DEClash.Weighted>
0.1000

> <Gold.Chemscore.DEInternal.Weighted>
0.5156

> <Gold.Chemscore.Rot.Weighted>
5.6174

> <Gold.Chemscore.Internal.Correction.Weighted>
   9.000000E+99

> <Gold.Protein.RotatedTorsions>
[ 6907 6896 6895 6894 ] final -105.57 input  -60.11 | X-H torsion
[ 7974 7965 7964 7962 ] final -149.71 input  175.53 | X-H torsion
[ 8008 7997 7996 7995 ] final   15.46 input   59.86 | X-H torsion
[ 10167 10162 10161 10158 ] final   75.66 input  -65.29 | X-H torsion
[ 10718 10713 10712 10709 ] final   -5.32 input   66.30 | X-H torsion
[ 10763 10752 10751 10750 ] final -122.61 input  -60.55 | X-H torsion
[ 11005 11000 10999 10996 ] final  159.78 input  -57.11 | X-H torsion

> <Gold.Protein.ActiveResidues>
 VAL166  LYS551  ARG553  GLY616  TRP617  ASP618  TYR619  PRO620  LYS621  CYS622 
 ASP623  PHE694  ASN695  SER759  ASP760  ASP761  ALA762  ILE779  LEU786  VAL792 
 PHE793  MET794  SER795  GLU796  ALA797  LYS798  CYS799  TRP800  GLU811  SER814 

> <Gold.Protein.RotatedAtoms>
  150.7343  134.0107  159.3668 H   0  0  0  0  0  0  0  0  0  0  0  0  # atno 6907 bound_to 6896
  151.8067  135.0691  160.0417 H   0  0  0  0  0  0  0  0  0  0  0  0  # atno 6908 bound_to 6896
  152.3102  133.5709  159.5712 H   0  0  0  0  0  0  0  0  0  0  0  0  # atno 6909 bound_to 6896
  144.7951  140.5028  143.5746 H   0  0  0  0  0  0  0  0  0  0  0  0  # atno 7974 bound_to 7965
  154.8630  140.2947  155.5527 H   0  0  0  0  0  0  0  0  0  0  0  0  # atno 8008 bound_to 7997
  156.3020  140.2474  156.3540 H   0  0  0  0  0  0  0  0  0  0  0  0  # atno 8009 bound_to 7997
  154.8898  140.0395  157.1821 H   0  0  0  0  0  0  0  0  0  0  0  0  # atno 8010 bound_to 7997
  140.0006  144.5689  150.7740 H   0  0  0  0  0  0  0  0  0  0  0  0  # atno 10167 bound_to 10162
  156.7483  130.5231  149.5809 H   0  0  0  0  0  0  0  0  0  0  0  0  # atno 10718 bound_to 10713
  154.8693  135.4127  154.2810 H   0  0  0  0  0  0  0  0  0  0  0  0  # atno 10763 bound_to 10752
  153.3703  135.7007  153.6649 H   0  0  0  0  0  0  0  0  0  0  0  0  # atno 10764 bound_to 10752
  153.5513  135.3628  155.2732 H   0  0  0  0  0  0  0  0  0  0  0  0  # atno 10765 bound_to 10752
  140.1995  134.8348  157.3002 H   0  0  0  0  0  0  0  0  0  0  0  0  # atno 11005 bound_to 11000
  145.5695  139.1483  143.3296 LP  0  0  0  0  0  0  0  0  0  0  0  0  # atno 17320 bound_to 7965
  146.2216  140.5828  142.9014 LP  0  0  0  0  0  0  0  0  0  0  0  0  # atno 17321 bound_to 7965
  140.7420  143.2826  151.3554 LP  0  0  0  0  0  0  0  0  0  0  0  0  # atno 17342 bound_to 10162
  139.6274  144.0786  152.2447 LP  0  0  0  0  0  0  0  0  0  0  0  0  # atno 17343 bound_to 10162
  156.1418  130.6250  151.0478 LP  0  0  0  0  0  0  0  0  0  0  0  0  # atno 17370 bound_to 10713
  157.6788  131.0843  150.7423 LP  0  0  0  0  0  0  0  0  0  0  0  0  # atno 17371 bound_to 10713
  140.2070  134.4185  155.7632 LP  0  0  0  0  0  0  0  0  0  0  0  0  # atno 17394 bound_to 11000
  141.2227  133.7099  156.8276 LP  0  0  0  0  0  0  0  0  0  0  0  0  # atno 17395 bound_to 11000

$$$$
