AV-unprocessed.smi:1601|AV-procd|sdf|6433|dock6
  -GOLD-   22720 7 73D 1   1.00000     0.00000
 Structure written by MMmdl.
 41 42  0  0  0  0  0  0  0  0  1 V2000
  147.1133  137.6072  156.7188 C   0  0  0  0  0  0  0  0  0  0  0  0
  147.1069  137.5194  155.1701 C   0  0  2  0  0  0  0  0  0  0  0  0
  147.1614  136.0243  154.7518 C   0  0  0  0  0  0  0  0  0  0  0  0
  146.6290  135.8079  153.4121 N   0  0  0  0  0  0  0  0  0  0  0  0
  145.3542  135.4985  153.1312 C   0  0  0  0  0  0  0  0  0  0  0  0
  144.5033  135.3147  154.0024 O   0  0  0  0  0  0  0  0  0  0  0  0
  144.9993  135.3746  151.6384 C   0  0  1  0  0  0  0  0  0  0  0  0
  145.8588  136.2814  150.7336 C   0  0  0  0  0  0  0  0  0  0  0  0
  145.0476  133.9798  151.2106 N   0  0  0  0  0  0  0  0  0  0  0  0
  143.9996  133.1814  150.7984 C   0  0  0  0  0  0  0  0  0  0  0  0
  144.5066  131.9417  150.5337 C   0  0  0  0  0  0  0  0  0  0  0  0
  145.8927  132.0747  150.8247 C   0  0  0  0  0  0  0  0  0  0  0  0
  146.2125  133.2910  151.2348 N   0  0  0  0  0  0  0  0  0  0  0  0
  148.1698  138.3416  154.5460 N   0  0  0  0  0  0  0  0  0  0  0  0
  148.0967  139.7556  154.9325 C   0  0  0  0  0  0  0  0  0  0  0  0
  149.2190  140.6048  154.3106 C   0  0  0  0  0  0  0  0  0  0  0  0
  150.4835  140.0649  154.6682 O   0  0  0  0  0  0  0  0  0  0  0  0
  150.6276  138.7181  154.2393 C   0  0  0  0  0  0  0  0  0  0  0  0
  149.5175  137.8549  154.8632 C   0  0  0  0  0  0  0  0  0  0  0  0
  146.3680  136.9601  157.1804 H   0  0  0  0  0  0  0  0  0  0  0  0
  146.8766  138.6085  157.0760 H   0  0  0  0  0  0  0  0  0  0  0  0
  148.0853  137.3246  157.1251 H   0  0  0  0  0  0  0  0  0  0  0  0
  146.1438  137.9073  154.8346 H   0  0  0  0  0  0  0  0  0  0  0  0
  148.1829  135.6481  154.7261 H   0  0  0  0  0  0  0  0  0  0  0  0
  146.6127  135.4187  155.4757 H   0  0  0  0  0  0  0  0  0  0  0  0
  147.2676  135.9375  152.6410 H   0  0  0  0  0  0  0  0  0  0  0  0
  143.9645  135.7053  151.5363 H   0  0  0  0  0  0  0  0  0  0  0  0
  145.7529  137.3307  151.0108 H   0  0  0  0  0  0  0  0  0  0  0  0
  145.5540  136.1889  149.6910 H   0  0  0  0  0  0  0  0  0  0  0  0
  146.9182  136.0289  150.7917 H   0  0  0  0  0  0  0  0  0  0  0  0
  142.9896  133.5581  150.7297 H   0  0  0  0  0  0  0  0  0  0  0  0
  143.9690  131.0712  150.1882 H   0  0  0  0  0  0  0  0  0  0  0  0
  146.6703  131.3285  150.7538 H   0  0  0  0  0  0  0  0  0  0  0  0
  147.1552  140.1956  154.6101 H   0  0  0  0  0  0  0  0  0  0  0  0
  148.1351  139.8449  156.0193 H   0  0  0  0  0  0  0  0  0  0  0  0
  149.1220  140.6381  153.2243 H   0  0  0  0  0  0  0  0  0  0  0  0
  149.1579  141.6325  154.6687 H   0  0  0  0  0  0  0  0  0  0  0  0
  150.5905  138.6678  153.1499 H   0  0  0  0  0  0  0  0  0  0  0  0
  151.6082  138.3515  154.5433 H   0  0  0  0  0  0  0  0  0  0  0  0
  149.6526  137.8186  155.9455 H   0  0  0  0  0  0  0  0  0  0  0  0
  149.6569  136.8411  154.4924 H   0  0  0  0  0  0  0  0  0  0  0  0
  1  2  1  0  0  0  0
  1 20  1  0  0  0  0
  1 21  1  0  0  0  0
  1 22  1  0  0  0  0
  2  3  1  0  0  0  0
  2 14  1  0  0  0  0
  2 23  1  0  0  0  0
  3  4  1  0  0  0  0
  3 24  1  0  0  0  0
  3 25  1  0  0  0  0
  4  5  1  0  0  0  0
  4 26  1  0  0  0  0
  5  6  2  0  0  0  0
  5  7  1  0  0  0  0
  7  8  1  0  0  0  0
  7  9  1  0  0  0  0
  7 27  1  0  0  0  0
  8 28  1  0  0  0  0
  8 29  1  0  0  0  0
  8 30  1  0  0  0  0
  9 13  1  0  0  0  0
  9 10  1  0  0  0  0
 10 11  2  0  0  0  0
 10 31  1  0  0  0  0
 11 12  1  0  0  0  0
 11 32  1  0  0  0  0
 12 13  2  0  0  0  0
 12 33  1  0  0  0  0
 14 19  1  0  0  0  0
 14 15  1  0  0  0  0
 15 16  1  0  0  0  0
 15 34  1  0  0  0  0
 15 35  1  0  0  0  0
 16 17  1  0  0  0  0
 16 36  1  0  0  0  0
 16 37  1  0  0  0  0
 17 18  1  0  0  0  0
 18 19  1  0  0  0  0
 18 38  1  0  0  0  0
 18 39  1  0  0  0  0
 19 40  1  0  0  0  0
 19 41  1  0  0  0  0
M  END
> <s_m_source_file>
AV-unprocessed.smi

> <i_m_source_file_index>
1601

> <i_lp_mmshare_version>
43012

> <i_f3d_flags>
0

> <s_epik_input>
W0NIMl0xW0NIMl1PW0NIMl1bQ0gyXU4xW0NASF0oW0NIM10pW0NIMl1bTkhdQyg9TylbQ0BIXShbQ0gzXSluMltjSF1bY0hdW2NIXW4y

> <s_epik_cmdline>
J2VwaWtfcHl0aG9uJywgJy1waCcsICc3LjAnLCAnLXRuJywgJzgnLCAnLW1hJywgJzIwMCcsICctbWV0YWxfYmluZGluZycsICctaW1hZScsICc8aW5maWxlLm1hZT4nLCAnLW9tYWUnLCAnPG91dGZpbGUubWFlPic=

> <r_lp_tautomer_probability>
1

> <r_epik_Ionization_Penalty>
0.203323

> <r_epik_Ionization_Penalty_Charging>
0

> <r_epik_Ionization_Penalty_Neutral>
0.203323

> <r_epik_State_Penalty>
0.193192

> <r_epik_Charging_Adjusted_Penalty>
0.193192

> <i_epik_Tot_Q>
0

> <i_epik_Tot_abs_Q>
0

> <r_epik_Metal_State_Penalty>
0.193187

> <b_epik_Metal_Only>
0

> <s_lp_Force_Field>
OPLS_2005

> <r_lp_Energy>
33.4287

> <b_lp_Chiralities_Consistent>
1

> <s_lp_Variant>
AV-unprocessed.smi:1601-3

> <Gold.Version>
5.8.1

> <Gold.Id.Protein>
6NUR|6NUR_protein|mol2

> <Gold.PLP.Fitness>
36.2805

> <Gold.PLP.PLP>
-26.3700

> <Gold.PLP.part.hbond>
-2.0000

> <Gold.PLP.part.metal>
0.0000

> <Gold.PLP.part.buried>
-4.6399

> <Gold.PLP.part.nonpolar>
-20.9239

> <Gold.PLP.part.repulsive>
0.4243

> <Gold.PLP.ligand.clash>
0.0000

> <Gold.PLP.ligand.torsion>
1.1286

> <Gold.PLP.Chemscore.Hbond>
2.0000

> <Gold.PLP.Chemscore.CHOScore>
2.0000

> <Gold.PLP.Chemscore.Metal>
0.0000

> <Gold.Chemscore.Hbonds>
donor molecule, donor type, donor heavy atom, donor atom, acceptor molecule, acceptor atom, score
      L1  H     4    26       P1  7948  1.00
      P1  H  7989  7998       L1    17  0.95
      L1  C    10    31       P1 10186  1.00
      L1  C    12    33       P1 10747  1.00

> <Gold.PLP.Chemscore.Internal.Correction>
0.1676

> <Gold.Rescore>
     Score         DG    S(hbond)    S(metal)    S(lipo)     H(rot)  DE(clash)    DE(int)     intcor
     12.13     -13.06       1.38        0.00      64.51       1.79       0.10       0.82       ----

> <Gold.Chemscore.Fitness>
12.1311

> <Gold.Chemscore.DG>
-13.0582

> <Gold.Chemscore.ZeroCoef>
-5.4800

> <Gold.Chemscore.Hbond>
1.3790

> <Gold.Chemscore.Metal>
0.0000

> <Gold.Chemscore.Lipo>
64.5094

> <Gold.Chemscore.Internal_Hbond>
0.0000

> <Gold.Chemscore.DEClash>
0.1041

> <Gold.Chemscore.DEInternal>
0.8229

> <Gold.Chemscore.Rot>
1.7872

> <Gold.Chemscore.Internal.Correction>
   9.000000E+99

> <Gold.Chemscore.Hbonds>
donor molecule, donor type, donor heavy atom, donor atom, acceptor molecule, acceptor atom, score
      L1  H     4    26       P1  7948  0.98
      P1  H  7989  7998       L1    17  0.09

> <Gold.Chemscore.Hbond.Weighted>
-4.6058

> <Gold.Chemscore.Metal.Weighted>
-0.0000

> <Gold.Chemscore.Lipo.Weighted>
-7.5476

> <Gold.Chemscore.Internal_Hbond.Weighted>
0.0000

> <Gold.Chemscore.DEClash.Weighted>
0.1041

> <Gold.Chemscore.DEInternal.Weighted>
0.8229

> <Gold.Chemscore.Rot.Weighted>
4.5752

> <Gold.Chemscore.Internal.Correction.Weighted>
   9.000000E+99

> <Gold.Protein.RotatedTorsions>
[ 6907 6896 6895 6894 ] final   49.13 input  -60.11 | X-H torsion
[ 7974 7965 7964 7962 ] final  -93.78 input  175.53 | X-H torsion
[ 8008 7997 7996 7995 ] final  -36.24 input   59.86 | X-H torsion
[ 10167 10162 10161 10158 ] final  130.19 input  -65.29 | X-H torsion
[ 10718 10713 10712 10709 ] final   -6.03 input   66.30 | X-H torsion
[ 10763 10752 10751 10750 ] final  -58.68 input  -60.55 | X-H torsion
[ 11005 11000 10999 10996 ] final -143.33 input  -57.11 | X-H torsion

> <Gold.Protein.ActiveResidues>
 VAL166  LYS551  ARG553  GLY616  TRP617  ASP618  TYR619  PRO620  LYS621  CYS622 
 ASP623  PHE694  ASN695  SER759  ASP760  ASP761  ALA762  ILE779  LEU786  VAL792 
 PHE793  MET794  SER795  GLU796  ALA797  LYS798  CYS799  TRP800  GLU811  SER814 

> <Gold.Protein.RotatedAtoms>
  152.2873  134.7761  160.0384 H   0  0  0  0  0  0  0  0  0  0  0  0  # atno 6907 bound_to 6896
  151.8320  133.3405  159.3624 H   0  0  0  0  0  0  0  0  0  0  0  0  # atno 6908 bound_to 6896
  150.7215  134.5403  159.5788 H   0  0  0  0  0  0  0  0  0  0  0  0  # atno 6909 bound_to 6896
  145.3820  140.9518  143.2388 H   0  0  0  0  0  0  0  0  0  0  0  0  # atno 7974 bound_to 7965
  154.4077  140.1636  156.2342 H   0  0  0  0  0  0  0  0  0  0  0  0  # atno 8008 bound_to 7997
  155.9257  140.3418  155.6185 H   0  0  0  0  0  0  0  0  0  0  0  0  # atno 8009 bound_to 7997
  155.7168  140.0763  157.2338 H   0  0  0  0  0  0  0  0  0  0  0  0  # atno 8010 bound_to 7997
  139.5442  144.6758  151.4527 H   0  0  0  0  0  0  0  0  0  0  0  0  # atno 10167 bound_to 10162
  156.7379  130.5200  149.5830 H   0  0  0  0  0  0  0  0  0  0  0  0  # atno 10718 bound_to 10713
  154.2420  135.6342  153.5210 H   0  0  0  0  0  0  0  0  0  0  0  0  # atno 10763 bound_to 10752
  152.9928  135.5544  154.5901 H   0  0  0  0  0  0  0  0  0  0  0  0  # atno 10764 bound_to 10752
  154.5408  135.2894  155.1072 H   0  0  0  0  0  0  0  0  0  0  0  0  # atno 10765 bound_to 10752
  140.8136  134.2715  157.4930 H   0  0  0  0  0  0  0  0  0  0  0  0  # atno 11005 bound_to 11000
  144.8501  139.5335  143.6860 LP  0  0  0  0  0  0  0  0  0  0  0  0  # atno 17320 bound_to 7965
  146.2838  139.6947  142.9210 LP  0  0  0  0  0  0  0  0  0  0  0  0  # atno 17321 bound_to 7965
  140.6684  143.8348  150.6969 LP  0  0  0  0  0  0  0  0  0  0  0  0  # atno 17342 bound_to 10162
  140.1764  143.4151  152.1964 LP  0  0  0  0  0  0  0  0  0  0  0  0  # atno 17343 bound_to 10162
  156.1484  130.6293  151.0563 LP  0  0  0  0  0  0  0  0  0  0  0  0  # atno 17370 bound_to 10713
  157.6831  131.0832  150.7317 LP  0  0  0  0  0  0  0  0  0  0  0  0  # atno 17371 bound_to 10713
  139.8712  134.9497  156.4032 LP  0  0  0  0  0  0  0  0  0  0  0  0  # atno 17394 bound_to 11000
  140.9172  133.7670  155.9863 LP  0  0  0  0  0  0  0  0  0  0  0  0  # atno 17395 bound_to 11000

$$$$
