AV-unprocessed.smi:2106|AV-procd|sdf|8595|dock3
  -GOLD-   2272011333D 1   1.00000     0.00000
 Structure written by MMmdl.
 47 48  0  0  0  0  0  0  0  0  1 V2000
  144.8268  145.1213  152.9474 C   0  0  0  0  0  0  0  0  0  0  0  0
  145.2245  143.9582  153.8073 C   0  0  0  0  0  0  0  0  0  0  0  0
  144.7986  143.6541  155.1304 C   0  0  0  0  0  0  0  0  0  0  0  0
  145.4609  142.5001  155.4417 C   0  0  0  0  0  0  0  0  0  0  0  0
  145.4351  141.6844  156.6926 C   0  0  0  0  0  0  0  0  0  0  0  0
  146.2274  142.1671  154.3383 N   0  0  0  0  0  0  0  0  0  0  0  0
  147.1260  141.0396  154.1490 C   0  0  0  0  0  0  0  0  0  0  0  0
  148.5597  141.4086  154.5309 C   0  0  0  0  0  0  0  0  0  0  0  0
  149.5000  141.0074  153.8457 O   0  0  0  0  0  0  0  0  0  0  0  0
  148.7088  142.1715  155.6249 N   0  0  0  0  0  0  0  0  0  0  0  0
  149.9794  142.6579  156.1521 C   0  0  0  0  0  0  0  0  0  0  0  0
  150.5255  141.7357  157.2602 C   0  0  0  0  0  0  0  0  0  0  0  0
  151.1497  142.4136  158.3965 N   0  0  0  0  0  0  0  0  0  0  0  0
  152.1089  141.5473  159.0681 C   0  0  0  0  0  0  0  0  0  0  0  0
  152.7279  142.2275  160.3026 C   0  0  1  0  0  0  0  0  0  0  0  0
  153.8010  141.3564  160.9639 C   0  0  0  0  0  0  0  0  0  0  0  0
  153.3351  143.4581  159.9126 O   0  0  0  0  0  0  0  0  0  0  0  0
  152.4817  144.3637  159.2108 C   0  0  2  0  0  0  0  0  0  0  0  0
  151.4694  145.0404  160.1508 C   0  0  0  0  0  0  0  0  0  0  0  0
  151.8201  143.6540  158.0130 C   0  0  0  0  0  0  0  0  0  0  0  0
  146.0784  143.0635  153.3379 N   0  0  0  0  0  0  0  0  0  0  0  0
  144.0988  145.7551  153.4543 H   0  0  0  0  0  0  0  0  0  0  0  0
  144.3786  144.7841  152.0126 H   0  0  0  0  0  0  0  0  0  0  0  0
  145.6902  145.7398  152.7009 H   0  0  0  0  0  0  0  0  0  0  0  0
  144.1116  144.2023  155.7579 H   0  0  0  0  0  0  0  0  0  0  0  0
  144.7336  142.1021  157.4149 H   0  0  0  0  0  0  0  0  0  0  0  0
  146.4195  141.6572  157.1595 H   0  0  0  0  0  0  0  0  0  0  0  0
  145.1281  140.6594  156.4843 H   0  0  0  0  0  0  0  0  0  0  0  0
  146.7863  140.2005  154.7567 H   0  0  0  0  0  0  0  0  0  0  0  0
  147.0812  140.7122  153.1088 H   0  0  0  0  0  0  0  0  0  0  0  0
  147.8753  142.4434  156.1256 H   0  0  0  0  0  0  0  0  0  0  0  0
  150.6872  142.6669  155.3233 H   0  0  0  0  0  0  0  0  0  0  0  0
  149.9039  143.6942  156.4831 H   0  0  0  0  0  0  0  0  0  0  0  0
  149.6961  141.1255  157.6206 H   0  0  0  0  0  0  0  0  0  0  0  0
  151.2377  141.0348  156.8223 H   0  0  0  0  0  0  0  0  0  0  0  0
  151.6175  140.6243  159.3780 H   0  0  0  0  0  0  0  0  0  0  0  0
  152.8987  141.2610  158.3718 H   0  0  0  0  0  0  0  0  0  0  0  0
  151.9474  142.4265  161.0378 H   0  0  0  0  0  0  0  0  0  0  0  0
  153.3858  140.4032  161.2926 H   0  0  0  0  0  0  0  0  0  0  0  0
  154.2218  141.8546  161.8376 H   0  0  0  0  0  0  0  0  0  0  0  0
  154.6187  141.1458  160.2742 H   0  0  0  0  0  0  0  0  0  0  0  0
  153.1266  145.1505  158.8188 H   0  0  0  0  0  0  0  0  0  0  0  0
  150.9036  145.8073  159.6216 H   0  0  0  0  0  0  0  0  0  0  0  0
  151.9757  145.5222  160.9871 H   0  0  0  0  0  0  0  0  0  0  0  0
  150.7499  144.3307  160.5584 H   0  0  0  0  0  0  0  0  0  0  0  0
  152.5855  143.4350  157.2668 H   0  0  0  0  0  0  0  0  0  0  0  0
  151.1198  144.3406  157.5397 H   0  0  0  0  0  0  0  0  0  0  0  0
  1  2  1  0  0  0  0
  1 22  1  0  0  0  0
  1 23  1  0  0  0  0
  1 24  1  0  0  0  0
  2 21  2  0  0  0  0
  2  3  1  0  0  0  0
  3  4  2  0  0  0  0
  3 25  1  0  0  0  0
  4  5  1  0  0  0  0
  4  6  1  0  0  0  0
  5 26  1  0  0  0  0
  5 27  1  0  0  0  0
  5 28  1  0  0  0  0
  6  7  1  0  0  0  0
  6 21  1  0  0  0  0
  7  8  1  0  0  0  0
  7 29  1  0  0  0  0
  7 30  1  0  0  0  0
  8  9  2  0  0  0  0
  8 10  1  0  0  0  0
 10 11  1  0  0  0  0
 10 31  1  0  0  0  0
 11 12  1  0  0  0  0
 11 32  1  0  0  0  0
 11 33  1  0  0  0  0
 12 13  1  0  0  0  0
 12 34  1  0  0  0  0
 12 35  1  0  0  0  0
 13 20  1  0  0  0  0
 13 14  1  0  0  0  0
 14 15  1  0  0  0  0
 14 36  1  0  0  0  0
 14 37  1  0  0  0  0
 15 16  1  0  0  0  0
 15 17  1  0  0  0  0
 15 38  1  0  0  0  0
 16 39  1  0  0  0  0
 16 40  1  0  0  0  0
 16 41  1  0  0  0  0
 17 18  1  0  0  0  0
 18 19  1  0  0  0  0
 18 20  1  0  0  0  0
 18 42  1  0  0  0  0
 19 43  1  0  0  0  0
 19 44  1  0  0  0  0
 19 45  1  0  0  0  0
 20 46  1  0  0  0  0
 20 47  1  0  0  0  0
M  END
> <s_m_source_file>
AV-unprocessed.smi

> <i_m_source_file_index>
2106

> <i_lp_mmshare_version>
43012

> <i_f3d_flags>
0

> <s_epik_input>
W0NIM11jMVtjSF1jKFtDSDNdKW4objEpW0NIMl1DKD1PKVtOSF1bQ0gyXVtDSDJdTjJbQ0gyXVtDQEBIXShbQ0gzXSlPW0NAQEhdKFtDSDNdKVtDSDJdMg==

> <s_epik_cmdline>
J2VwaWtfcHl0aG9uJywgJy1waCcsICc3LjAnLCAnLXRuJywgJzgnLCAnLW1hJywgJzIwMCcsICctbWV0YWxfYmluZGluZycsICctaW1hZScsICc8aW5maWxlLm1hZT4nLCAnLW9tYWUnLCAnPG91dGZpbGUubWFlPic=

> <r_lp_tautomer_probability>
1

> <r_epik_Ionization_Penalty>
0.197284

> <r_epik_Ionization_Penalty_Charging>
0

> <r_epik_Ionization_Penalty_Neutral>
0.197284

> <r_epik_State_Penalty>
0.186684

> <r_epik_Charging_Adjusted_Penalty>
0.186684

> <i_epik_Tot_Q>
0

> <i_epik_Tot_abs_Q>
0

> <r_epik_Metal_State_Penalty>
0.186634

> <b_epik_Metal_Only>
0

> <s_lp_Force_Field>
OPLS_2005

> <r_lp_Energy>
25.1516

> <b_lp_Chiralities_Consistent>
1

> <s_lp_Variant>
AV-unprocessed.smi:2106-3

> <Gold.Version>
5.8.1

> <Gold.Id.Protein>
6NUR|6NUR_protein|mol2

> <Gold.PLP.Fitness>
44.0105

> <Gold.PLP.PLP>
-43.2705

> <Gold.PLP.part.hbond>
-2.9605

> <Gold.PLP.part.metal>
0.0000

> <Gold.PLP.part.buried>
-0.1342

> <Gold.PLP.part.nonpolar>
-42.7991

> <Gold.PLP.part.repulsive>
2.3943

> <Gold.PLP.ligand.clash>
0.0000

> <Gold.PLP.ligand.torsion>
1.3892

> <Gold.PLP.Chemscore.Hbond>
1.1672

> <Gold.PLP.Chemscore.CHOScore>
0.0000

> <Gold.PLP.Chemscore.Metal>
0.0000

> <Gold.Chemscore.Hbonds>
donor molecule, donor type, donor heavy atom, donor atom, acceptor molecule, acceptor atom, score
      P1  H  7989  7998       L1     9  0.29
      P1  H  8011  8017       L1     9  0.81

> <Gold.PLP.Chemscore.Internal.Correction>
0.0169

> <Gold.Rescore>
     Score         DG    S(hbond)    S(metal)    S(lipo)     H(rot)  DE(clash)    DE(int)     intcor
     13.80     -17.40       0.94        0.00     111.39       1.67       2.25       1.34       ----

> <Gold.Chemscore.Fitness>
13.8004

> <Gold.Chemscore.DG>
-17.3974

> <Gold.Chemscore.ZeroCoef>
-5.4800

> <Gold.Chemscore.Hbond>
0.9427

> <Gold.Chemscore.Metal>
0.0000

> <Gold.Chemscore.Lipo>
111.3922

> <Gold.Chemscore.Internal_Hbond>
0.0000

> <Gold.Chemscore.DEClash>
2.2548

> <Gold.Chemscore.DEInternal>
1.3422

> <Gold.Chemscore.Rot>
1.6657

> <Gold.Chemscore.Internal.Correction>
   9.000000E+99

> <Gold.Chemscore.Hbonds>
donor molecule, donor type, donor heavy atom, donor atom, acceptor molecule, acceptor atom, score
      P1  H  7989  7998       L1     9  0.28
      P1  H  8011  8017       L1     9  0.46

> <Gold.Chemscore.Hbond.Weighted>
-3.1486

> <Gold.Chemscore.Metal.Weighted>
-0.0000

> <Gold.Chemscore.Lipo.Weighted>
-13.0329

> <Gold.Chemscore.Internal_Hbond.Weighted>
0.0000

> <Gold.Chemscore.DEClash.Weighted>
2.2548

> <Gold.Chemscore.DEInternal.Weighted>
1.3422

> <Gold.Chemscore.Rot.Weighted>
4.2641

> <Gold.Chemscore.Internal.Correction.Weighted>
   9.000000E+99

> <Gold.Protein.RotatedTorsions>
[ 6907 6896 6895 6894 ] final  -68.02 input  -60.11 | X-H torsion
[ 7974 7965 7964 7962 ] final -109.22 input  175.53 | X-H torsion
[ 8008 7997 7996 7995 ] final  110.90 input   59.86 | X-H torsion
[ 10167 10162 10161 10158 ] final  171.21 input  -65.29 | X-H torsion
[ 10718 10713 10712 10709 ] final -139.87 input   66.30 | X-H torsion
[ 10763 10752 10751 10750 ] final  -83.34 input  -60.55 | X-H torsion
[ 11005 11000 10999 10996 ] final -124.35 input  -57.11 | X-H torsion

> <Gold.Protein.ActiveResidues>
 VAL166  LYS551  ARG553  GLY616  TRP617  ASP618  TYR619  PRO620  LYS621  CYS622 
 ASP623  PHE694  ASN695  SER759  ASP760  ASP761  ALA762  ILE779  LEU786  VAL792 
 PHE793  MET794  SER795  GLU796  ALA797  LYS798  CYS799  TRP800  GLU811  SER814 

> <Gold.Protein.RotatedAtoms>
  150.7378  134.5798  159.5932 H   0  0  0  0  0  0  0  0  0  0  0  0  # atno 6907 bound_to 6896
  152.3214  134.7372  160.0321 H   0  0  0  0  0  0  0  0  0  0  0  0  # atno 6908 bound_to 6896
  151.7886  133.3321  159.3529 H   0  0  0  0  0  0  0  0  0  0  0  0  # atno 6909 bound_to 6896
  145.1833  140.8981  143.3467 H   0  0  0  0  0  0  0  0  0  0  0  0  # atno 7974 bound_to 7965
  156.2086  140.3029  155.9682 H   0  0  0  0  0  0  0  0  0  0  0  0  # atno 8008 bound_to 7997
  155.2779  140.0436  157.3030 H   0  0  0  0  0  0  0  0  0  0  0  0  # atno 8009 bound_to 7997
  154.5668  140.2336  155.8260 H   0  0  0  0  0  0  0  0  0  0  0  0  # atno 8010 bound_to 7997
  139.5040  144.3511  151.9921 H   0  0  0  0  0  0  0  0  0  0  0  0  # atno 10167 bound_to 10162
  156.3157  130.7507  151.1593 H   0  0  0  0  0  0  0  0  0  0  0  0  # atno 10718 bound_to 10713
  154.5866  135.5559  153.7237 H   0  0  0  0  0  0  0  0  0  0  0  0  # atno 10763 bound_to 10752
  153.0101  135.6333  154.1908 H   0  0  0  0  0  0  0  0  0  0  0  0  # atno 10764 bound_to 10752
  154.1849  135.2885  155.3020 H   0  0  0  0  0  0  0  0  0  0  0  0  # atno 10765 bound_to 10752
  140.9848  134.0622  157.3723 H   0  0  0  0  0  0  0  0  0  0  0  0  # atno 11005 bound_to 11000
  145.0115  139.3506  143.6118 LP  0  0  0  0  0  0  0  0  0  0  0  0  # atno 17320 bound_to 7965
  146.3449  139.9379  142.8745 LP  0  0  0  0  0  0  0  0  0  0  0  0  # atno 17321 bound_to 7965
  140.2948  144.3713  150.6077 LP  0  0  0  0  0  0  0  0  0  0  0  0  # atno 17342 bound_to 10162
  140.5919  143.2168  151.7237 LP  0  0  0  0  0  0  0  0  0  0  0  0  # atno 17343 bound_to 10162
  157.7401  131.0521  150.5188 LP  0  0  0  0  0  0  0  0  0  0  0  0  # atno 17370 bound_to 10713
  156.5334  130.4190  149.6190 LP  0  0  0  0  0  0  0  0  0  0  0  0  # atno 17371 bound_to 10713
  139.8966  135.0146  156.7058 LP  0  0  0  0  0  0  0  0  0  0  0  0  # atno 17394 bound_to 11000
  140.7131  133.9206  155.8097 LP  0  0  0  0  0  0  0  0  0  0  0  0  # atno 17395 bound_to 11000

$$$$
