AV-unprocessed.smi:27|AV-procd|sdf|188|dock4
  -GOLD-   2262015453D 1   1.00000     0.00000
 Structure written by MMmdl.
 53 56  0  0  0  0  0  0  0  0  1 V2000
  152.7966  136.2344  156.5744 O   0  0  0  0  0  0  0  0  0  0  0  0
  151.9771  136.7544  155.8153 C   0  0  0  0  0  0  0  0  0  0  0  0
  152.2437  138.1257  155.1764 C   0  0  0  0  0  0  0  0  0  0  0  0
  151.7608  139.2607  155.9925 N   0  0  0  0  0  0  0  0  0  0  0  0
  150.8666  140.1893  155.4045 C   0  0  0  0  0  0  0  0  0  0  0  0
  150.4848  140.0593  154.2404 O   0  0  0  0  0  0  0  0  0  0  0  0
  150.4473  141.2903  156.2644 C   0  0  0  0  0  0  0  0  0  0  0  0
  149.5898  142.2118  155.7938 F   0  0  0  0  0  0  0  0  0  0  0  0
  150.9053  141.3990  157.5287 C   0  0  0  0  0  0  0  0  0  0  0  0
  151.7911  140.4930  158.0845 N   0  0  0  0  0  0  0  0  0  0  0  0
  152.2984  140.6298  159.5049 C   0  0  1  0  0  0  0  0  0  0  0  0
  153.8256  140.8320  159.5190 C   0  0  0  0  0  0  0  0  0  0  0  0
  153.9922  142.0607  160.3908 C   0  0  0  0  0  0  0  0  0  0  0  0
  152.6907  142.8058  160.1354 C   0  0  0  0  0  0  0  0  0  0  0  0
  151.7303  141.7580  160.1071 O   0  0  0  0  0  0  0  0  0  0  0  0
  152.2367  139.3943  157.3182 C   0  0  0  0  0  0  0  0  0  0  0  0
  153.0273  138.5766  157.7948 O   0  0  0  0  0  0  0  0  0  0  0  0
  150.8128  136.1767  155.4839 N   0  0  0  0  0  0  0  0  0  0  0  0
  150.3452  134.8737  155.9577 C   0  0  0  0  0  0  0  0  0  0  0  0
  149.4250  134.1785  154.9587 C   0  0  0  0  0  0  0  0  0  0  0  0
  148.1361  134.6857  154.6744 C   0  0  0  0  0  0  0  0  0  0  0  0
  147.2986  134.0253  153.7548 C   0  0  0  0  0  0  0  0  0  0  0  0
  147.7411  132.8521  153.1149 C   0  0  0  0  0  0  0  0  0  0  0  0
  149.0209  132.3378  153.3974 C   0  0  0  0  0  0  0  0  0  0  0  0
  149.8584  132.9976  154.3175 C   0  0  0  0  0  0  0  0  0  0  0  0
  149.6795  134.9766  157.3244 C   0  0  0  0  0  0  0  0  0  0  0  0
  149.1152  133.8399  157.9474 C   0  0  0  0  0  0  0  0  0  0  0  0
  148.5082  133.9503  159.2134 C   0  0  0  0  0  0  0  0  0  0  0  0
  148.4632  135.1960  159.8674 C   0  0  0  0  0  0  0  0  0  0  0  0
  149.0300  136.3307  159.2566 C   0  0  0  0  0  0  0  0  0  0  0  0
  149.6383  136.2205  157.9911 C   0  0  0  0  0  0  0  0  0  0  0  0
  153.3137  138.2106  154.9801 H   0  0  0  0  0  0  0  0  0  0  0  0
  151.7924  138.1410  154.1830 H   0  0  0  0  0  0  0  0  0  0  0  0
  150.5531  142.2353  158.1126 H   0  0  0  0  0  0  0  0  0  0  0  0
  151.9608  139.7327  160.0267 H   0  0  0  0  0  0  0  0  0  0  0  0
  154.3338  139.9518  159.9138 H   0  0  0  0  0  0  0  0  0  0  0  0
  154.1903  141.0294  158.5096 H   0  0  0  0  0  0  0  0  0  0  0  0
  154.0572  141.7709  161.4404 H   0  0  0  0  0  0  0  0  0  0  0  0
  154.8769  142.6464  160.1403 H   0  0  0  0  0  0  0  0  0  0  0  0
  152.4635  143.5384  160.9099 H   0  0  0  0  0  0  0  0  0  0  0  0
  152.7190  143.3177  159.1725 H   0  0  0  0  0  0  0  0  0  0  0  0
  150.2007  136.6752  154.8548 H   0  0  0  0  0  0  0  0  0  0  0  0
  151.2260  134.2412  156.0870 H   0  0  0  0  0  0  0  0  0  0  0  0
  147.7802  135.5815  155.1615 H   0  0  0  0  0  0  0  0  0  0  0  0
  146.3157  134.4187  153.5413 H   0  0  0  0  0  0  0  0  0  0  0  0
  147.0986  132.3462  152.4093 H   0  0  0  0  0  0  0  0  0  0  0  0
  149.3604  131.4363  152.9091 H   0  0  0  0  0  0  0  0  0  0  0  0
  150.8374  132.5934  154.5297 H   0  0  0  0  0  0  0  0  0  0  0  0
  149.1495  132.8759  157.4615 H   0  0  0  0  0  0  0  0  0  0  0  0
  148.0788  133.0779  159.6835 H   0  0  0  0  0  0  0  0  0  0  0  0
  147.9973  135.2804  160.8383 H   0  0  0  0  0  0  0  0  0  0  0  0
  148.9994  137.2863  159.7589 H   0  0  0  0  0  0  0  0  0  0  0  0
  150.0730  137.0970  157.5330 H   0  0  0  0  0  0  0  0  0  0  0  0
  1  2  2  0  0  0  0
  2  3  1  0  0  0  0
  2 18  1  0  0  0  0
  3  4  1  0  0  0  0
  3 32  1  0  0  0  0
  3 33  1  0  0  0  0
  4 16  1  0  0  0  0
  4  5  1  0  0  0  0
  5  6  2  0  0  0  0
  5  7  1  0  0  0  0
  7  8  1  0  0  0  0
  7  9  2  0  0  0  0
  9 10  1  0  0  0  0
  9 34  1  0  0  0  0
 10 11  1  0  0  0  0
 10 16  1  0  0  0  0
 11 15  1  0  0  0  0
 11 12  1  0  0  0  0
 11 35  1  0  0  0  0
 12 13  1  0  0  0  0
 12 36  1  0  0  0  0
 12 37  1  0  0  0  0
 13 14  1  0  0  0  0
 13 38  1  0  0  0  0
 13 39  1  0  0  0  0
 14 15  1  0  0  0  0
 14 40  1  0  0  0  0
 14 41  1  0  0  0  0
 16 17  2  0  0  0  0
 18 19  1  0  0  0  0
 18 42  1  0  0  0  0
 19 20  1  0  0  0  0
 19 26  1  0  0  0  0
 19 43  1  0  0  0  0
 20 25  1  0  0  0  0
 20 21  2  0  0  0  0
 21 22  1  0  0  0  0
 21 44  1  0  0  0  0
 22 23  2  0  0  0  0
 22 45  1  0  0  0  0
 23 24  1  0  0  0  0
 23 46  1  0  0  0  0
 24 25  2  0  0  0  0
 24 47  1  0  0  0  0
 25 48  1  0  0  0  0
 26 31  1  0  0  0  0
 26 27  2  0  0  0  0
 27 28  1  0  0  0  0
 27 49  1  0  0  0  0
 28 29  2  0  0  0  0
 28 50  1  0  0  0  0
 29 30  1  0  0  0  0
 29 51  1  0  0  0  0
 30 31  2  0  0  0  0
 30 52  1  0  0  0  0
 31 53  1  0  0  0  0
M  END
> <s_m_source_file>
AV-unprocessed.smi

> <i_m_source_file_index>
27

> <i_lp_mmshare_version>
43012

> <i_f3d_flags>
0

> <s_epik_input>
W2NIXTFbY0hdW2NIXVtjSF1bY0hdYzFbQ0hdKGMyW2NIXVtjSF1bY0hdW2NIXVtjSF0yKVtOSF1DKD1PKVtDSDJdbjNjKD1PKWMoRilbY0hdbihjMz1PKVtDQEBIXTRbQ0gyXVtDSDJdW0NIMl1PNA==

> <s_epik_cmdline>
J2VwaWtfcHl0aG9uJywgJy1waCcsICc3LjAnLCAnLXRuJywgJzgnLCAnLW1hJywgJzIwMCcsICctbWV0YWxfYmluZGluZycsICctaW1hZScsICc8aW5maWxlLm1hZT4nLCAnLW9tYWUnLCAnPG91dGZpbGUubWFlPic=

> <r_lp_tautomer_probability>
1

> <r_epik_Ionization_Penalty>
5.29953e-08

> <r_epik_Ionization_Penalty_Charging>
3.6115e-09

> <r_epik_Ionization_Penalty_Neutral>
4.93838e-08

> <r_epik_State_Penalty>
-0

> <r_epik_Charging_Adjusted_Penalty>
3.6115e-09

> <i_epik_Tot_Q>
0

> <i_epik_Tot_abs_Q>
0

> <r_epik_Metal_State_Penalty>
-0

> <b_epik_Metal_Only>
0

> <s_epik_Chemistry_Notes>
This compound contains an acetal/aminal-like group ( X-CH(R)-Y where X, Y are N, S, or O) that may be acid/base labile, releasing an aldehyde.

> <s_lp_Force_Field>
OPLS_2005

> <r_lp_Energy>
31.2801

> <b_lp_Chiralities_Consistent>
1

> <s_lp_Variant>
AV-unprocessed.smi:27-2

> <Gold.Version>
5.8.1

> <Gold.Id.Protein>
6NUR|6NUR_protein|mol2

> <Gold.PLP.Fitness>
52.0611

> <Gold.PLP.PLP>
-47.8074

> <Gold.PLP.part.hbond>
-2.8766

> <Gold.PLP.part.metal>
0.0000

> <Gold.PLP.part.buried>
1.5230

> <Gold.PLP.part.nonpolar>
-46.2815

> <Gold.PLP.part.repulsive>
0.2144

> <Gold.PLP.ligand.clash>
0.0000

> <Gold.PLP.ligand.torsion>
0.9014

> <Gold.PLP.Chemscore.Hbond>
1.9600

> <Gold.PLP.Chemscore.CHOScore>
0.0000

> <Gold.PLP.Chemscore.Metal>
0.0000

> <Gold.Chemscore.Hbonds>
donor molecule, donor type, donor heavy atom, donor atom, acceptor molecule, acceptor atom, score
      P1  H  7989  7998       L1     6  1.00
      P1  H  7997  8008       L1    17  0.07
      P1  H 10752 10765       L1     1  0.80

> <Gold.PLP.Chemscore.Internal.Correction>
0.1765

> <Gold.Rescore>
     Score         DG    S(hbond)    S(metal)    S(lipo)     H(rot)  DE(clash)    DE(int)     intcor
     10.85     -16.47       1.55        0.00      96.97       2.16       0.96       4.67       ----

> <Gold.Chemscore.Fitness>
10.8475

> <Gold.Chemscore.DG>
-16.4744

> <Gold.Chemscore.ZeroCoef>
-5.4800

> <Gold.Chemscore.Hbond>
1.5535

> <Gold.Chemscore.Metal>
0.0000

> <Gold.Chemscore.Lipo>
96.9745

> <Gold.Chemscore.Internal_Hbond>
0.0000

> <Gold.Chemscore.DEClash>
0.9557

> <Gold.Chemscore.DEInternal>
4.6711

> <Gold.Chemscore.Rot>
2.1642

> <Gold.Chemscore.Internal.Correction>
   9.000000E+99

> <Gold.Chemscore.Hbonds>
donor molecule, donor type, donor heavy atom, donor atom, acceptor molecule, acceptor atom, score
      P1  H  7989  7998       L1     6  0.25
      P1  H 10752 10765       L1     1  0.11

> <Gold.Chemscore.Hbond.Weighted>
-5.1888

> <Gold.Chemscore.Metal.Weighted>
-0.0000

> <Gold.Chemscore.Lipo.Weighted>
-11.3460

> <Gold.Chemscore.Internal_Hbond.Weighted>
0.0000

> <Gold.Chemscore.DEClash.Weighted>
0.9557

> <Gold.Chemscore.DEInternal.Weighted>
4.6711

> <Gold.Chemscore.Rot.Weighted>
5.5404

> <Gold.Chemscore.Internal.Correction.Weighted>
   9.000000E+99

> <Gold.Protein.RotatedTorsions>
[ 6907 6896 6895 6894 ] final  110.06 input  -60.11 | X-H torsion
[ 7974 7965 7964 7962 ] final   15.70 input  175.53 | X-H torsion
[ 8008 7997 7996 7995 ] final -103.12 input   59.86 | X-H torsion
[ 10167 10162 10161 10158 ] final  175.07 input  -65.29 | X-H torsion
[ 10718 10713 10712 10709 ] final   97.19 input   66.30 | X-H torsion
[ 10763 10752 10751 10750 ] final -114.49 input  -60.55 | X-H torsion
[ 11005 11000 10999 10996 ] final  145.01 input  -57.11 | X-H torsion

> <Gold.Protein.ActiveResidues>
 VAL166  LYS551  ARG553  GLY616  TRP617  ASP618  TYR619  PRO620  LYS621  CYS622 
 ASP623  PHE694  ASN695  SER759  ASP760  ASP761  ALA762  ILE779  LEU786  VAL792 
 PHE793  MET794  SER795  GLU796  ALA797  LYS798  CYS799  TRP800  GLU811  SER814 

> <Gold.Protein.RotatedAtoms>
  152.5038  133.8855  159.7367 H   0  0  0  0  0  0  0  0  0  0  0  0  # atno 6907 bound_to 6896
  150.9306  133.6762  159.2818 H   0  0  0  0  0  0  0  0  0  0  0  0  # atno 6908 bound_to 6896
  151.4108  135.0989  159.9637 H   0  0  0  0  0  0  0  0  0  0  0  0  # atno 6909 bound_to 6896
  146.2271  139.8856  142.8563 H   0  0  0  0  0  0  0  0  0  0  0  0  # atno 7974 bound_to 7965
  154.8664  140.0424  157.1697 H   0  0  0  0  0  0  0  0  0  0  0  0  # atno 8008 bound_to 7997
  154.8785  140.2969  155.5418 H   0  0  0  0  0  0  0  0  0  0  0  0  # atno 8009 bound_to 7997
  156.2999  140.2415  156.3784 H   0  0  0  0  0  0  0  0  0  0  0  0  # atno 8010 bound_to 7997
  139.5164  144.3074  152.0323 H   0  0  0  0  0  0  0  0  0  0  0  0  # atno 10167 bound_to 10162
  157.6916  131.0602  150.4606 H   0  0  0  0  0  0  0  0  0  0  0  0  # atno 10718 bound_to 10713
  154.8442  135.4416  154.1515 H   0  0  0  0  0  0  0  0  0  0  0  0  # atno 10763 bound_to 10752
  153.2674  135.6942  153.7521 H   0  0  0  0  0  0  0  0  0  0  0  0  # atno 10764 bound_to 10752
  153.6775  135.3408  155.3145 H   0  0  0  0  0  0  0  0  0  0  0  0  # atno 10765 bound_to 10752
  140.0678  134.9169  157.1294 H   0  0  0  0  0  0  0  0  0  0  0  0  # atno 11005 bound_to 11000
  145.2468  141.0029  143.3904 LP  0  0  0  0  0  0  0  0  0  0  0  0  # atno 17320 bound_to 7965
  144.9406  139.4193  143.6450 LP  0  0  0  0  0  0  0  0  0  0  0  0  # atno 17321 bound_to 7965
  140.2520  144.4159  150.6218 LP  0  0  0  0  0  0  0  0  0  0  0  0  # atno 17342 bound_to 10162
  140.6218  143.2177  151.6678 LP  0  0  0  0  0  0  0  0  0  0  0  0  # atno 17343 bound_to 10162
  156.4951  130.4104  149.6385 LP  0  0  0  0  0  0  0  0  0  0  0  0  # atno 17370 bound_to 10713
  156.3381  130.7367  151.2308 LP  0  0  0  0  0  0  0  0  0  0  0  0  # atno 17371 bound_to 10713
  140.3673  134.2429  155.7181 LP  0  0  0  0  0  0  0  0  0  0  0  0  # atno 17394 bound_to 11000
  141.2000  133.7999  157.0511 LP  0  0  0  0  0  0  0  0  0  0  0  0  # atno 17395 bound_to 11000

$$$$
