AV-unprocessed.smi:2918|AV-procd|sdf|11191|dock5
  -GOLD-   2272016 83D 1   1.00000     0.00000
 Structure written by MMmdl.
 41 42  0  0  0  0  0  0  0  0  1 V2000
  152.8452  144.9625  157.6764 C   0  0  0  0  0  0  0  0  0  0  0  0
  151.5424  144.3946  158.2606 C   0  0  0  0  0  0  0  0  0  0  0  0
  151.1681  145.0698  159.5907 C   0  0  0  0  0  0  0  0  0  0  0  0
  151.6247  142.9439  158.4024 N   0  0  0  0  0  0  0  0  0  0  0  0
  152.5678  142.3928  159.2022 N   0  0  0  0  0  0  0  0  0  0  0  0
  152.3906  141.0826  159.1004 C   0  0  0  0  0  0  0  0  0  0  0  0
  151.3285  140.7320  158.2203 C   0  0  0  0  0  0  0  0  0  0  0  0
  150.8755  141.9527  157.7989 C   0  0  0  0  0  0  0  0  0  0  0  0
  149.8685  142.2291  156.9274 N   0  0  0  0  0  0  0  0  0  0  0  0
  149.0867  141.3761  156.2427 C   0  0  0  0  0  0  0  0  0  0  0  0
  149.1520  140.1485  156.3030 O   0  0  0  0  0  0  0  0  0  0  0  0
  148.2080  142.0454  155.4773 N   0  0  0  0  0  0  0  0  0  0  0  0
  147.1675  141.5043  154.5892 C   0  0  0  0  0  0  0  0  0  0  0  0
  147.8171  140.6702  153.4643 C   0  0  0  0  0  0  0  0  0  0  0  0
  146.1288  140.6607  155.3681 C   0  0  0  0  0  0  0  0  0  0  0  0
  145.3057  141.5182  156.3461 C   0  0  0  0  0  0  0  0  0  0  0  0
  144.6555  142.5684  155.6398 O   0  0  0  0  0  0  0  0  0  0  0  0
  145.5668  143.4577  155.0050 C   0  0  0  0  0  0  0  0  0  0  0  0
  146.4118  142.6975  153.9649 C   0  0  0  0  0  0  0  0  0  0  0  0
  152.7625  146.0366  157.5085 H   0  0  0  0  0  0  0  0  0  0  0  0
  153.0809  144.4967  156.7192 H   0  0  0  0  0  0  0  0  0  0  0  0
  153.6901  144.7959  158.3456 H   0  0  0  0  0  0  0  0  0  0  0  0
  150.7430  144.6156  157.5531 H   0  0  0  0  0  0  0  0  0  0  0  0
  151.0294  146.1430  159.4575 H   0  0  0  0  0  0  0  0  0  0  0  0
  151.9417  144.9294  160.3466 H   0  0  0  0  0  0  0  0  0  0  0  0
  150.2362  144.6647  159.9867 H   0  0  0  0  0  0  0  0  0  0  0  0
  153.0386  140.4270  159.6632 H   0  0  0  0  0  0  0  0  0  0  0  0
  150.9797  139.7457  157.9542 H   0  0  0  0  0  0  0  0  0  0  0  0
  149.6829  143.2109  156.7854 H   0  0  0  0  0  0  0  0  0  0  0  0
  148.2570  143.0529  155.5147 H   0  0  0  0  0  0  0  0  0  0  0  0
  147.0724  140.3335  152.7426 H   0  0  0  0  0  0  0  0  0  0  0  0
  148.3113  139.7779  153.8488 H   0  0  0  0  0  0  0  0  0  0  0  0
  148.5613  141.2514  152.9186 H   0  0  0  0  0  0  0  0  0  0  0  0
  145.4420  140.1937  154.6606 H   0  0  0  0  0  0  0  0  0  0  0  0
  146.6024  139.8374  155.9020 H   0  0  0  0  0  0  0  0  0  0  0  0
  144.5474  140.9038  156.8317 H   0  0  0  0  0  0  0  0  0  0  0  0
  145.9335  141.9283  157.1384 H   0  0  0  0  0  0  0  0  0  0  0  0
  144.9979  144.2484  154.5155 H   0  0  0  0  0  0  0  0  0  0  0  0
  146.1987  143.9415  155.7513 H   0  0  0  0  0  0  0  0  0  0  0  0
  147.1099  143.3823  153.4813 H   0  0  0  0  0  0  0  0  0  0  0  0
  145.7468  142.3383  153.1780 H   0  0  0  0  0  0  0  0  0  0  0  0
  1  2  1  0  0  0  0
  1 20  1  0  0  0  0
  1 21  1  0  0  0  0
  1 22  1  0  0  0  0
  2  3  1  0  0  0  0
  2  4  1  0  0  0  0
  2 23  1  0  0  0  0
  3 24  1  0  0  0  0
  3 25  1  0  0  0  0
  3 26  1  0  0  0  0
  4  8  1  0  0  0  0
  4  5  1  0  0  0  0
  5  6  2  0  0  0  0
  6  7  1  0  0  0  0
  6 27  1  0  0  0  0
  7  8  2  0  0  0  0
  7 28  1  0  0  0  0
  8  9  1  0  0  0  0
  9 10  1  0  0  0  0
  9 29  1  0  0  0  0
 10 11  2  0  0  0  0
 10 12  1  0  0  0  0
 12 13  1  0  0  0  0
 12 30  1  0  0  0  0
 13 19  1  0  0  0  0
 13 14  1  0  0  0  0
 13 15  1  0  0  0  0
 14 31  1  0  0  0  0
 14 32  1  0  0  0  0
 14 33  1  0  0  0  0
 15 16  1  0  0  0  0
 15 34  1  0  0  0  0
 15 35  1  0  0  0  0
 16 17  1  0  0  0  0
 16 36  1  0  0  0  0
 16 37  1  0  0  0  0
 17 18  1  0  0  0  0
 18 19  1  0  0  0  0
 18 38  1  0  0  0  0
 18 39  1  0  0  0  0
 19 40  1  0  0  0  0
 19 41  1  0  0  0  0
M  END
> <s_m_source_file>
AV-unprocessed.smi

> <i_m_source_file_index>
2918

> <i_lp_mmshare_version>
43012

> <i_f3d_flags>
0

> <s_epik_input>
W0NIM11bQ0hdKFtDSDNdKW4xbltjSF1bY0hdYzFbTkhdQyg9TylbTkhdQzIoW0NIM10pW0NIMl1bQ0gyXU9bQ0gyXVtDSDJdMg==

> <s_epik_cmdline>
J2VwaWtfcHl0aG9uJywgJy1waCcsICc3LjAnLCAnLXRuJywgJzgnLCAnLW1hJywgJzIwMCcsICctbWV0YWxfYmluZGluZycsICctaW1hZScsICc8aW5maWxlLm1hZT4nLCAnLW9tYWUnLCAnPG91dGZpbGUubWFlPic=

> <r_lp_tautomer_probability>
1

> <r_epik_Ionization_Penalty>
4.13243e-05

> <r_epik_Ionization_Penalty_Charging>
0

> <r_epik_Ionization_Penalty_Neutral>
4.13243e-05

> <r_epik_State_Penalty>
-0

> <r_epik_Charging_Adjusted_Penalty>
0

> <i_epik_Tot_Q>
0

> <i_epik_Tot_abs_Q>
0

> <r_epik_Metal_State_Penalty>
-0

> <b_epik_Metal_Only>
0

> <s_lp_Force_Field>
OPLS_2005

> <r_lp_Energy>
17.4718

> <b_lp_Chiralities_Consistent>
1

> <s_lp_Variant>
AV-unprocessed.smi:2918-1

> <Gold.Version>
5.8.1

> <Gold.Id.Protein>
6NUR|6NUR_protein|mol2

> <Gold.PLP.Fitness>
41.6322

> <Gold.PLP.PLP>
-35.7099

> <Gold.PLP.part.hbond>
-2.0000

> <Gold.PLP.part.metal>
0.0000

> <Gold.PLP.part.buried>
-6.3723

> <Gold.PLP.part.nonpolar>
-27.9437

> <Gold.PLP.part.repulsive>
0.2498

> <Gold.PLP.ligand.clash>
0.0000

> <Gold.PLP.ligand.torsion>
0.0228

> <Gold.PLP.Chemscore.Hbond>
1.9760

> <Gold.PLP.Chemscore.CHOScore>
0.0000

> <Gold.PLP.Chemscore.Metal>
0.0000

> <Gold.Chemscore.Hbonds>
donor molecule, donor type, donor heavy atom, donor atom, acceptor molecule, acceptor atom, score
      L1  H     9    29       P1  8028  0.98
      L1  H    12    30       P1  8028  1.00

> <Gold.PLP.Chemscore.Internal.Correction>
0.0399

> <Gold.Rescore>
     Score         DG    S(hbond)    S(metal)    S(lipo)     H(rot)  DE(clash)    DE(int)     intcor
     14.95     -18.57       1.85        0.00      85.25       1.19       1.49       2.13       ----

> <Gold.Chemscore.Fitness>
14.9504

> <Gold.Chemscore.DG>
-18.5672

> <Gold.Chemscore.ZeroCoef>
-5.4800

> <Gold.Chemscore.Hbond>
1.8460

> <Gold.Chemscore.Metal>
0.0000

> <Gold.Chemscore.Lipo>
85.2468

> <Gold.Chemscore.Internal_Hbond>
0.0000

> <Gold.Chemscore.DEClash>
1.4916

> <Gold.Chemscore.DEInternal>
2.1253

> <Gold.Chemscore.Rot>
1.1924

> <Gold.Chemscore.Internal.Correction>
   9.000000E+99

> <Gold.Chemscore.Hbonds>
donor molecule, donor type, donor heavy atom, donor atom, acceptor molecule, acceptor atom, score
      L1  H     9    29       P1  8028  0.87
      L1  H    12    30       P1  8028  0.96

> <Gold.Chemscore.Hbond.Weighted>
-6.1658

> <Gold.Chemscore.Metal.Weighted>
-0.0000

> <Gold.Chemscore.Lipo.Weighted>
-9.9739

> <Gold.Chemscore.Internal_Hbond.Weighted>
0.0000

> <Gold.Chemscore.DEClash.Weighted>
1.4916

> <Gold.Chemscore.DEInternal.Weighted>
2.1253

> <Gold.Chemscore.Rot.Weighted>
3.0524

> <Gold.Chemscore.Internal.Correction.Weighted>
   9.000000E+99

> <Gold.Protein.RotatedTorsions>
[ 6907 6896 6895 6894 ] final  -20.90 input  -60.11 | X-H torsion
[ 7974 7965 7964 7962 ] final  -16.17 input  175.53 | X-H torsion
[ 8008 7997 7996 7995 ] final  122.99 input   59.86 | X-H torsion
[ 10167 10162 10161 10158 ] final  101.94 input  -65.29 | X-H torsion
[ 10718 10713 10712 10709 ] final   48.49 input   66.30 | X-H torsion
[ 10763 10752 10751 10750 ] final -178.79 input  -60.55 | X-H torsion
[ 11005 11000 10999 10996 ] final   12.13 input  -57.11 | X-H torsion

> <Gold.Protein.ActiveResidues>
 VAL166  LYS551  ARG553  GLY616  TRP617  ASP618  TYR619  PRO620  LYS621  CYS622 
 ASP623  PHE694  ASN695  SER759  ASP760  ASP761  ALA762  ILE779  LEU786  VAL792 
 PHE793  MET794  SER795  GLU796  ALA797  LYS798  CYS799  TRP800  GLU811  SER814 

> <Gold.Protein.RotatedAtoms>
  151.2412  135.0589  159.9025 H   0  0  0  0  0  0  0  0  0  0  0  0  # atno 6907 bound_to 6896
  152.5393  134.0432  159.8087 H   0  0  0  0  0  0  0  0  0  0  0  0  # atno 6908 bound_to 6896
  151.0626  133.5483  159.2664 H   0  0  0  0  0  0  0  0  0  0  0  0  # atno 6909 bound_to 6896
  146.2000  140.3597  142.8427 H   0  0  0  0  0  0  0  0  0  0  0  0  # atno 7974 bound_to 7965
  156.2749  140.2773  156.1556 H   0  0  0  0  0  0  0  0  0  0  0  0  # atno 8008 bound_to 7997
  155.0808  140.0388  157.2656 H   0  0  0  0  0  0  0  0  0  0  0  0  # atno 8009 bound_to 7997
  154.6966  140.2640  155.6766 H   0  0  0  0  0  0  0  0  0  0  0  0  # atno 8010 bound_to 7997
  139.7394  144.7015  151.0599 H   0  0  0  0  0  0  0  0  0  0  0  0  # atno 10167 bound_to 10162
  157.4692  130.8245  149.7969 H   0  0  0  0  0  0  0  0  0  0  0  0  # atno 10718 bound_to 10713
  154.5432  135.2807  155.1076 H   0  0  0  0  0  0  0  0  0  0  0  0  # atno 10763 bound_to 10752
  154.2550  135.6332  153.5258 H   0  0  0  0  0  0  0  0  0  0  0  0  # atno 10764 bound_to 10752
  152.9984  135.5592  154.5978 H   0  0  0  0  0  0  0  0  0  0  0  0  # atno 10765 bound_to 10752
  140.4955  134.0798  155.7781 H   0  0  0  0  0  0  0  0  0  0  0  0  # atno 11005 bound_to 11000
  144.8662  140.7209  143.6076 LP  0  0  0  0  0  0  0  0  0  0  0  0  # atno 17320 bound_to 7965
  145.3517  139.1704  143.4431 LP  0  0  0  0  0  0  0  0  0  0  0  0  # atno 17321 bound_to 7965
  140.7783  143.4944  150.9852 LP  0  0  0  0  0  0  0  0  0  0  0  0  # atno 17342 bound_to 10162
  139.8632  143.7288  152.3172 LP  0  0  0  0  0  0  0  0  0  0  0  0  # atno 17343 bound_to 10162
  156.0065  130.3853  150.2413 LP  0  0  0  0  0  0  0  0  0  0  0  0  # atno 17370 bound_to 10713
  157.0594  131.0085  151.3227 LP  0  0  0  0  0  0  0  0  0  0  0  0  # atno 17371 bound_to 10713
  141.1462  133.9050  157.2209 LP  0  0  0  0  0  0  0  0  0  0  0  0  # atno 17394 bound_to 11000
  139.9744  135.0118  156.9594 LP  0  0  0  0  0  0  0  0  0  0  0  0  # atno 17395 bound_to 11000

$$$$
