AV-unprocessed.smi:3231|AV-procd|sdf|12335|dock7
  -GOLD-   2272018193D 1   1.00000     0.00000
 Structure written by MMmdl.
 42 43  0  0  0  0  0  0  0  0  3 V2000
  148.5388  138.8618  153.5939 O   0  0  0  0  0  0  0  0  0  0  0  0
  147.1902  139.2763  153.4868 C   0  0  2  0  0  0  0  0  0  0  0  0
  146.5726  138.5682  152.2670 C   0  0  0  0  0  0  0  0  0  0  0  0
  146.3165  137.1393  152.5418 N   0  3  0  0  0  0  0  0  0  0  0  0
  145.1551  136.5859  151.8190 C   0  0  0  0  0  0  0  0  0  0  0  0
  145.6004  135.5652  150.7615 C   0  0  0  0  0  0  0  0  0  0  0  0
  144.7922  134.3618  150.8000 N   0  0  0  0  0  0  0  0  0  0  0  0
  144.7953  133.2952  149.9254 C   0  0  0  0  0  0  0  0  0  0  0  0
  143.8598  132.4047  150.3684 C   0  0  0  0  0  0  0  0  0  0  0  0
  143.3279  133.0243  151.5339 C   0  0  0  0  0  0  0  0  0  0  0  0
  143.8875  134.1961  151.7889 N   0  0  0  0  0  0  0  0  0  0  0  0
  147.1527  140.8122  153.3283 C   0  0  0  0  0  0  0  0  0  0  0  0
  146.0141  141.4543  154.0368 N   0  3  0  0  0  0  0  0  0  0  0  0
  145.9253  141.0279  155.4546 C   0  0  0  0  0  0  0  0  0  0  0  0
  144.7068  141.6700  156.1395 C   0  0  0  0  0  0  0  0  0  0  0  0
  144.7921  143.0850  156.0324 O   0  0  0  0  0  0  0  0  0  0  0  0
  144.7848  143.5165  154.6779 C   0  0  0  0  0  0  0  0  0  0  0  0
  146.0057  142.9360  153.9425 C   0  0  0  0  0  0  0  0  0  0  0  0
  149.0831  139.4480  153.0902 H   0  0  0  0  0  0  0  0  0  0  0  0
  146.6510  138.9681  154.3820 H   0  0  0  0  0  0  0  0  0  0  0  0
  145.6243  139.0405  152.0064 H   0  0  0  0  0  0  0  0  0  0  0  0
  147.2258  138.6658  151.3982 H   0  0  0  0  0  0  0  0  0  0  0  0
  147.1373  136.6144  152.2738 H   0  0  0  0  0  0  0  0  0  0  0  0
  144.4771  136.1136  152.5313 H   0  0  0  0  0  0  0  0  0  0  0  0
  144.6090  137.4034  151.3460 H   0  0  0  0  0  0  0  0  0  0  0  0
  145.5317  135.9948  149.7609 H   0  0  0  0  0  0  0  0  0  0  0  0
  146.6439  135.2875  150.9166 H   0  0  0  0  0  0  0  0  0  0  0  0
  145.4547  133.2580  149.0704 H   0  0  0  0  0  0  0  0  0  0  0  0
  143.5940  131.4558  149.9264 H   0  0  0  0  0  0  0  0  0  0  0  0
  142.5569  132.6603  152.1970 H   0  0  0  0  0  0  0  0  0  0  0  0
  148.0909  141.2211  153.7078 H   0  0  0  0  0  0  0  0  0  0  0  0
  147.1105  141.0841  152.2723 H   0  0  0  0  0  0  0  0  0  0  0  0
  145.8440  139.9419  155.5113 H   0  0  0  0  0  0  0  0  0  0  0  0
  146.8394  141.3092  155.9802 H   0  0  0  0  0  0  0  0  0  0  0  0
  143.7758  141.3133  155.6957 H   0  0  0  0  0  0  0  0  0  0  0  0
  144.6813  141.3964  157.1944 H   0  0  0  0  0  0  0  0  0  0  0  0
  143.8559  143.2139  154.1916 H   0  0  0  0  0  0  0  0  0  0  0  0
  144.8152  144.6060  154.6545 H   0  0  0  0  0  0  0  0  0  0  0  0
  146.9237  143.3367  154.3756 H   0  0  0  0  0  0  0  0  0  0  0  0
  145.9773  143.2554  152.9016 H   0  0  0  0  0  0  0  0  0  0  0  0
  146.1668  137.0205  153.5335 H   0  0  0  0  0  0  0  0  0  0  0  0
  145.1695  141.1228  153.5929 H   0  0  0  0  0  0  0  0  0  0  0  0
  1  2  1  0  0  0  0
  1 19  1  0  0  0  0
  2  3  1  0  0  0  0
  2 12  1  0  0  0  0
  2 20  1  0  0  0  0
  3  4  1  0  0  0  0
  3 21  1  0  0  0  0
  3 22  1  0  0  0  0
  4  5  1  0  0  0  0
  4 23  1  0  0  0  0
  4 41  1  0  0  0  0
  5  6  1  0  0  0  0
  5 24  1  0  0  0  0
  5 25  1  0  0  0  0
  6  7  1  0  0  0  0
  6 26  1  0  0  0  0
  6 27  1  0  0  0  0
  7 11  1  0  0  0  0
  7  8  1  0  0  0  0
  8  9  2  0  0  0  0
  8 28  1  0  0  0  0
  9 10  1  0  0  0  0
  9 29  1  0  0  0  0
 10 11  2  0  0  0  0
 10 30  1  0  0  0  0
 12 13  1  0  0  0  0
 12 31  1  0  0  0  0
 12 32  1  0  0  0  0
 13 18  1  0  0  0  0
 13 14  1  0  0  0  0
 13 42  1  0  0  0  0
 14 15  1  0  0  0  0
 14 33  1  0  0  0  0
 14 34  1  0  0  0  0
 15 16  1  0  0  0  0
 15 35  1  0  0  0  0
 15 36  1  0  0  0  0
 16 17  1  0  0  0  0
 17 18  1  0  0  0  0
 17 37  1  0  0  0  0
 17 38  1  0  0  0  0
 18 39  1  0  0  0  0
 18 40  1  0  0  0  0
M  CHG  1   4   1
M  CHG  1  13   1
M  END
> <s_m_source_file>
AV-unprocessed.smi

> <i_m_source_file_index>
3231

> <i_lp_mmshare_version>
43012

> <i_f3d_flags>
0

> <s_epik_input>
W0NIMl0xW0NIMl1PW0NIMl1bQ0gyXU4xW0NIMl1bQ0BIXShbT0hdKVtDSDJdW05IXVtDSDJdW0NIMl1uMltjSF1bY0hdW2NIXW4y

> <s_epik_cmdline>
J2VwaWtfcHl0aG9uJywgJy1waCcsICc3LjAnLCAnLXRuJywgJzgnLCAnLW1hJywgJzIwMCcsICctbWV0YWxfYmluZGluZycsICctaW1hZScsICc8aW5maWxlLm1hZT4nLCAnLW9tYWUnLCAnPG91dGZpbGUubWFlPic=

> <r_lp_tautomer_probability>
1

> <r_epik_Ionization_Penalty>
2.09881

> <r_epik_Ionization_Penalty_Charging>
2.09628

> <r_epik_Ionization_Penalty_Neutral>
0.0025303

> <r_epik_State_Penalty>
1.58657

> <r_epik_Charging_Adjusted_Penalty>
3.68285

> <i_epik_Tot_Q>
2

> <i_epik_Tot_abs_Q>
2

> <r_epik_Metal_State_Penalty>
1.58685

> <b_epik_Metal_Only>
0

> <s_lp_Force_Field>
OPLS_2005

> <r_lp_Energy>
26.6316

> <b_lp_Chiralities_Consistent>
1

> <s_lp_Variant>
AV-unprocessed.smi:3231-5

> <Gold.Version>
5.8.1

> <Gold.Id.Protein>
6NUR|6NUR_protein|mol2

> <Gold.PLP.Fitness>
53.3848

> <Gold.PLP.PLP>
-36.1758

> <Gold.PLP.part.hbond>
-4.0000

> <Gold.PLP.part.metal>
0.0000

> <Gold.PLP.part.buried>
-3.2345

> <Gold.PLP.part.nonpolar>
-29.8065

> <Gold.PLP.part.repulsive>
0.3658

> <Gold.PLP.ligand.clash>
0.0000

> <Gold.PLP.ligand.torsion>
1.5704

> <Gold.PLP.Chemscore.Hbond>
5.0000

> <Gold.PLP.Chemscore.CHOScore>
1.7020

> <Gold.PLP.Chemscore.Metal>
0.0000

> <Gold.Chemscore.Hbonds>
donor molecule, donor type, donor heavy atom, donor atom, acceptor molecule, acceptor atom, score
      L1  H     1    19       P1  7957  0.76
      L1  H     4    23       P1  7948  2.00
      L1  H    13    42       P1 10175  2.00
      L1  C     8    28       P1  7921  0.94
      L1  C    10    30       P1 10957  0.27

> <Gold.PLP.Chemscore.Internal.Correction>
0.2439

> <Gold.Rescore>
     Score         DG    S(hbond)    S(metal)    S(lipo)     H(rot)  DE(clash)    DE(int)     intcor
     14.95     -16.65       2.84        0.00      78.89       2.94       0.11       1.60       ----

> <Gold.Chemscore.Fitness>
14.9498

> <Gold.Chemscore.DG>
-16.6548

> <Gold.Chemscore.ZeroCoef>
-5.4800

> <Gold.Chemscore.Hbond>
2.8386

> <Gold.Chemscore.Metal>
0.0000

> <Gold.Chemscore.Lipo>
78.8856

> <Gold.Chemscore.Internal_Hbond>
0.0000

> <Gold.Chemscore.DEClash>
0.1076

> <Gold.Chemscore.DEInternal>
1.5974

> <Gold.Chemscore.Rot>
2.9437

> <Gold.Chemscore.Internal.Correction>
   9.000000E+99

> <Gold.Chemscore.Hbonds>
donor molecule, donor type, donor heavy atom, donor atom, acceptor molecule, acceptor atom, score
      L1  H     1    19       P1  7957  0.73
      L1  H     4    23       P1  7948  0.99
      L1  H    13    42       P1 10175  0.55

> <Gold.Chemscore.Hbond.Weighted>
-9.4811

> <Gold.Chemscore.Metal.Weighted>
-0.0000

> <Gold.Chemscore.Lipo.Weighted>
-9.2296

> <Gold.Chemscore.Internal_Hbond.Weighted>
0.0000

> <Gold.Chemscore.DEClash.Weighted>
0.1076

> <Gold.Chemscore.DEInternal.Weighted>
1.5974

> <Gold.Chemscore.Rot.Weighted>
7.5359

> <Gold.Chemscore.Internal.Correction.Weighted>
   9.000000E+99

> <Gold.Protein.RotatedTorsions>
[ 6907 6896 6895 6894 ] final  -73.86 input  -60.11 | X-H torsion
[ 7974 7965 7964 7962 ] final  138.32 input  175.53 | X-H torsion
[ 8008 7997 7996 7995 ] final -131.27 input   59.86 | X-H torsion
[ 10167 10162 10161 10158 ] final  164.23 input  -65.29 | X-H torsion
[ 10718 10713 10712 10709 ] final  -52.90 input   66.30 | X-H torsion
[ 10763 10752 10751 10750 ] final  164.79 input  -60.55 | X-H torsion
[ 11005 11000 10999 10996 ] final  -55.49 input  -57.11 | X-H torsion

> <Gold.Protein.ActiveResidues>
 VAL166  LYS551  ARG553  GLY616  TRP617  ASP618  TYR619  PRO620  LYS621  CYS622 
 ASP623  PHE694  ASN695  SER759  ASP760  ASP761  ALA762  ILE779  LEU786  VAL792 
 PHE793  MET794  SER795  GLU796  ALA797  LYS798  CYS799  TRP800  GLU811  SER814 

> <Gold.Protein.RotatedAtoms>
  150.7114  134.4954  159.5535 H   0  0  0  0  0  0  0  0  0  0  0  0  # atno 6907 bound_to 6896
  152.2562  134.8078  160.0447 H   0  0  0  0  0  0  0  0  0  0  0  0  # atno 6908 bound_to 6896
  151.8808  133.3460  159.3802 H   0  0  0  0  0  0  0  0  0  0  0  0  # atno 6909 bound_to 6896
  144.9384  139.4961  143.5584 H   0  0  0  0  0  0  0  0  0  0  0  0  # atno 7974 bound_to 7965
  155.3096  140.0456  157.3034 H   0  0  0  0  0  0  0  0  0  0  0  0  # atno 8008 bound_to 7997
  154.5441  140.2297  155.8559 H   0  0  0  0  0  0  0  0  0  0  0  0  # atno 8009 bound_to 7997
  156.1907  140.3051  155.9334 H   0  0  0  0  0  0  0  0  0  0  0  0  # atno 8010 bound_to 7997
  139.4885  144.4257  151.9133 H   0  0  0  0  0  0  0  0  0  0  0  0  # atno 10167 bound_to 10162
  156.1581  130.4150  149.9837 H   0  0  0  0  0  0  0  0  0  0  0  0  # atno 10718 bound_to 10713
  154.3142  135.2757  155.2551 H   0  0  0  0  0  0  0  0  0  0  0  0  # atno 10763 bound_to 10752
  154.4933  135.5828  153.6479 H   0  0  0  0  0  0  0  0  0  0  0  0  # atno 10764 bound_to 10752
  152.9884  135.6140  154.3322 H   0  0  0  0  0  0  0  0  0  0  0  0  # atno 10765 bound_to 10752
  141.1076  133.6612  156.4477 H   0  0  0  0  0  0  0  0  0  0  0  0  # atno 11005 bound_to 11000
  146.3276  139.8385  142.8895 LP  0  0  0  0  0  0  0  0  0  0  0  0  # atno 17320 bound_to 7965
  145.3031  141.0199  143.3597 LP  0  0  0  0  0  0  0  0  0  0  0  0  # atno 17321 bound_to 7965
  140.3702  144.2864  150.5921 LP  0  0  0  0  0  0  0  0  0  0  0  0  # atno 17342 bound_to 10162
  140.5325  143.2240  151.8215 LP  0  0  0  0  0  0  0  0  0  0  0  0  # atno 17343 bound_to 10162
  156.7674  130.9173  151.3643 LP  0  0  0  0  0  0  0  0  0  0  0  0  # atno 17370 bound_to 10713
  157.6711  130.9052  150.0042 LP  0  0  0  0  0  0  0  0  0  0  0  0  # atno 17371 bound_to 10713
  140.4861  134.6620  157.5191 LP  0  0  0  0  0  0  0  0  0  0  0  0  # atno 17394 bound_to 11000
  139.9954  134.6920  155.9619 LP  0  0  0  0  0  0  0  0  0  0  0  0  # atno 17395 bound_to 11000

$$$$
