AV-unprocessed.smi:2976|AV-procd|sdf|11361|dock9
  -GOLD-   2272016273D 1   1.00000     0.00000
 Structure written by MMmdl.
 40 41  0  0  0  0  0  0  0  0  1 V2000
  151.9814  145.0780  160.5541 C   0  0  0  0  0  0  0  0  0  0  0  0
  152.1991  144.0894  159.3937 C   0  0  2  0  0  0  0  0  0  0  0  0
  151.1159  144.3129  158.3192 C   0  0  0  0  0  0  0  0  0  0  0  0
  151.2967  143.3763  157.1198 C   0  0  0  0  0  0  0  0  0  0  0  0
  151.2891  141.9140  157.5742 C   0  0  0  0  0  0  0  0  0  0  0  0
  152.3754  141.6523  158.6320 C   0  0  2  0  0  0  0  0  0  0  0  0
  152.2911  140.2521  159.0467 N   0  0  0  0  0  0  0  0  0  0  0  0
  153.3230  139.4026  159.1700 C   0  0  0  0  0  0  0  0  0  0  0  0
  154.4887  139.7071  158.9144 O   0  0  0  0  0  0  0  0  0  0  0  0
  152.9755  137.9850  159.6453 C   0  0  0  0  0  0  0  0  0  0  0  0
  153.6706  137.6123  160.8861 N   0  0  0  0  0  0  0  0  0  0  0  0
  153.8959  138.6712  161.7483 N   0  0  0  0  0  0  0  0  0  0  0  0
  154.4748  138.4563  162.8791 C   0  0  0  0  0  0  0  0  0  0  0  0
  154.9085  137.1372  163.2843 C   0  0  0  0  0  0  0  0  0  0  0  0
  155.6788  136.9102  164.8151 Cl  0  0  0  0  0  0  0  0  0  0  0  0
  154.6911  136.1075  162.4278 C   0  0  0  0  0  0  0  0  0  0  0  0
  155.1839  134.5010  162.8417 Cl  0  0  0  0  0  0  0  0  0  0  0  0
  154.0333  136.3150  161.1300 C   0  0  0  0  0  0  0  0  0  0  0  0
  153.8190  135.4076  160.3246 O   0  0  0  0  0  0  0  0  0  0  0  0
  152.2376  142.6035  159.8530 C   0  0  1  0  0  0  0  0  0  0  0  0
  153.3554  142.3473  160.8885 C   0  0  0  0  0  0  0  0  0  0  0  0
  151.0739  144.8431  161.1110 H   0  0  0  0  0  0  0  0  0  0  0  0
  151.8862  146.0993  160.1838 H   0  0  0  0  0  0  0  0  0  0  0  0
  152.8167  145.0772  161.2535 H   0  0  0  0  0  0  0  0  0  0  0  0
  153.1633  144.3257  158.9407 H   0  0  0  0  0  0  0  0  0  0  0  0
  150.1270  144.1593  158.7536 H   0  0  0  0  0  0  0  0  0  0  0  0
  151.1421  145.3469  157.9732 H   0  0  0  0  0  0  0  0  0  0  0  0
  150.5018  143.5441  156.3927 H   0  0  0  0  0  0  0  0  0  0  0  0
  152.2356  143.6013  156.6121 H   0  0  0  0  0  0  0  0  0  0  0  0
  150.3068  141.6658  157.9793 H   0  0  0  0  0  0  0  0  0  0  0  0
  151.4421  141.2635  156.7120 H   0  0  0  0  0  0  0  0  0  0  0  0
  153.3428  141.8474  158.1649 H   0  0  0  0  0  0  0  0  0  0  0  0
  151.3705  139.9063  159.2756 H   0  0  0  0  0  0  0  0  0  0  0  0
  151.8963  137.8918  159.7824 H   0  0  0  0  0  0  0  0  0  0  0  0
  153.2298  137.2896  158.8434 H   0  0  0  0  0  0  0  0  0  0  0  0
  154.6688  139.2581  163.5916 H   0  0  0  0  0  0  0  0  0  0  0  0
  151.2862  142.3827  160.3401 H   0  0  0  0  0  0  0  0  0  0  0  0
  154.3364  142.5845  160.4759 H   0  0  0  0  0  0  0  0  0  0  0  0
  153.3787  141.3077  161.2145 H   0  0  0  0  0  0  0  0  0  0  0  0
  153.2188  142.9415  161.7909 H   0  0  0  0  0  0  0  0  0  0  0  0
  1  2  1  0  0  0  0
  1 22  1  0  0  0  0
  1 23  1  0  0  0  0
  1 24  1  0  0  0  0
  2 20  1  0  0  0  0
  2  3  1  0  0  0  0
  2 25  1  0  0  0  0
  3  4  1  0  0  0  0
  3 26  1  0  0  0  0
  3 27  1  0  0  0  0
  4  5  1  0  0  0  0
  4 28  1  0  0  0  0
  4 29  1  0  0  0  0
  5  6  1  0  0  0  0
  5 30  1  0  0  0  0
  5 31  1  0  0  0  0
  6  7  1  0  0  0  0
  6 20  1  0  0  0  0
  6 32  1  0  0  0  0
  7  8  1  0  0  0  0
  7 33  1  0  0  0  0
  8  9  2  0  0  0  0
  8 10  1  0  0  0  0
 10 11  1  0  0  0  0
 10 34  1  0  0  0  0
 10 35  1  0  0  0  0
 11 18  1  0  0  0  0
 11 12  1  0  0  0  0
 12 13  2  0  0  0  0
 13 14  1  0  0  0  0
 13 36  1  0  0  0  0
 14 15  1  0  0  0  0
 14 16  2  0  0  0  0
 16 17  1  0  0  0  0
 16 18  1  0  0  0  0
 18 19  2  0  0  0  0
 20 21  1  0  0  0  0
 20 37  1  0  0  0  0
 21 38  1  0  0  0  0
 21 39  1  0  0  0  0
 21 40  1  0  0  0  0
M  END
> <s_m_source_file>
AV-unprocessed.smi

> <i_m_source_file_index>
2976

> <i_lp_mmshare_version>
43012

> <i_f3d_flags>
0

> <s_epik_input>
W0NIM11bQ0BASF0xW0NIMl1bQ0gyXVtDSDJdW0NASF0oW0NASF0xW0NIM10pW05IXUMoPU8pW0NIMl1uMm5bY0hdYyhDbCljKENsKWMyPU8=

> <s_epik_cmdline>
J2VwaWtfcHl0aG9uJywgJy1waCcsICc3LjAnLCAnLXRuJywgJzgnLCAnLW1hJywgJzIwMCcsICctbWV0YWxfYmluZGluZycsICctaW1hZScsICc8aW5maWxlLm1hZT4nLCAnLW9tYWUnLCAnPG91dGZpbGUubWFlPic=

> <r_lp_tautomer_probability>
1

> <r_epik_Ionization_Penalty>
1.90777e-08

> <r_epik_Ionization_Penalty_Charging>
3.07942e-11

> <r_epik_Ionization_Penalty_Neutral>
1.90469e-08

> <r_epik_State_Penalty>
-0

> <r_epik_Charging_Adjusted_Penalty>
3.07942e-11

> <i_epik_Tot_Q>
0

> <i_epik_Tot_abs_Q>
0

> <r_epik_Metal_State_Penalty>
-0

> <b_epik_Metal_Only>
0

> <s_lp_Force_Field>
OPLS_2005

> <r_lp_Energy>
26.5415

> <b_lp_Chiralities_Consistent>
1

> <s_lp_Variant>
AV-unprocessed.smi:2976-3

> <Gold.Version>
5.8.1

> <Gold.Id.Protein>
6NUR|6NUR_protein|mol2

> <Gold.PLP.Fitness>
44.1492

> <Gold.PLP.PLP>
-39.2629

> <Gold.PLP.part.hbond>
-2.0000

> <Gold.PLP.part.metal>
0.0000

> <Gold.PLP.part.buried>
-3.0214

> <Gold.PLP.part.nonpolar>
-34.0766

> <Gold.PLP.part.repulsive>
0.1245

> <Gold.PLP.ligand.clash>
0.0000

> <Gold.PLP.ligand.torsion>
0.5602

> <Gold.PLP.Chemscore.Hbond>
2.0000

> <Gold.PLP.Chemscore.CHOScore>
0.0000

> <Gold.PLP.Chemscore.Metal>
0.0000

> <Gold.Chemscore.Hbonds>
donor molecule, donor type, donor heavy atom, donor atom, acceptor molecule, acceptor atom, score
      P1  H  6896  6908       L1    19  1.00
      P1  H  7997  8009       L1     9  1.00

> <Gold.PLP.Chemscore.Internal.Correction>
0.0067

> <Gold.Rescore>
     Score         DG    S(hbond)    S(metal)    S(lipo)     H(rot)  DE(clash)    DE(int)     intcor
     21.84     -22.59       1.98        0.00     122.33       1.49       0.19       0.56       ----

> <Gold.Chemscore.Fitness>
21.8410

> <Gold.Chemscore.DG>
-22.5851

> <Gold.Chemscore.ZeroCoef>
-5.4800

> <Gold.Chemscore.Hbond>
1.9754

> <Gold.Chemscore.Metal>
0.0000

> <Gold.Chemscore.Lipo>
122.3327

> <Gold.Chemscore.Internal_Hbond>
0.0000

> <Gold.Chemscore.DEClash>
0.1865

> <Gold.Chemscore.DEInternal>
0.5577

> <Gold.Chemscore.Rot>
1.4866

> <Gold.Chemscore.Internal.Correction>
   9.000000E+99

> <Gold.Chemscore.Hbonds>
donor molecule, donor type, donor heavy atom, donor atom, acceptor molecule, acceptor atom, score
      P1  H  6896  6908       L1    19  0.98
      P1  H  7997  8009       L1     9  0.93

> <Gold.Chemscore.Hbond.Weighted>
-6.5979

> <Gold.Chemscore.Metal.Weighted>
-0.0000

> <Gold.Chemscore.Lipo.Weighted>
-14.3129

> <Gold.Chemscore.Internal_Hbond.Weighted>
0.0000

> <Gold.Chemscore.DEClash.Weighted>
0.1865

> <Gold.Chemscore.DEInternal.Weighted>
0.5577

> <Gold.Chemscore.Rot.Weighted>
3.8057

> <Gold.Chemscore.Internal.Correction.Weighted>
   9.000000E+99

> <Gold.Protein.RotatedTorsions>
[ 6907 6896 6895 6894 ] final  -71.28 input  -60.11 | X-H torsion
[ 7974 7965 7964 7962 ] final   70.11 input  175.53 | X-H torsion
[ 8008 7997 7996 7995 ] final  135.51 input   59.86 | X-H torsion
[ 10167 10162 10161 10158 ] final   47.83 input  -65.29 | X-H torsion
[ 10718 10713 10712 10709 ] final -144.76 input   66.30 | X-H torsion
[ 10763 10752 10751 10750 ] final  165.28 input  -60.55 | X-H torsion
[ 11005 11000 10999 10996 ] final  153.03 input  -57.11 | X-H torsion

> <Gold.Protein.ActiveResidues>
 VAL166  LYS551  ARG553  GLY616  TRP617  ASP618  TYR619  PRO620  LYS621  CYS622 
 ASP623  PHE694  ASN695  SER759  ASP760  ASP761  ALA762  ILE779  LEU786  VAL792 
 PHE793  MET794  SER795  GLU796  ALA797  LYS798  CYS799  TRP800  GLU811  SER814 

> <Gold.Protein.RotatedAtoms>
  150.7219  134.5331  159.5709 H   0  0  0  0  0  0  0  0  0  0  0  0  # atno 6907 bound_to 6896
  152.2859  134.7773  160.0396 H   0  0  0  0  0  0  0  0  0  0  0  0  # atno 6908 bound_to 6896
  151.8403  133.3387  159.3678 H   0  0  0  0  0  0  0  0  0  0  0  0  # atno 6909 bound_to 6896
  145.7822  139.2893  143.1259 H   0  0  0  0  0  0  0  0  0  0  0  0  # atno 7974 bound_to 7965
  156.3003  140.2469  156.3592 H   0  0  0  0  0  0  0  0  0  0  0  0  # atno 8008 bound_to 7997
  154.8892  140.0410  157.1848 H   0  0  0  0  0  0  0  0  0  0  0  0  # atno 8009 bound_to 7997
  154.8615  140.2921  155.5540 H   0  0  0  0  0  0  0  0  0  0  0  0  # atno 8010 bound_to 7997
  140.2996  144.2949  150.6222 H   0  0  0  0  0  0  0  0  0  0  0  0  # atno 10167 bound_to 10162
  156.3741  130.7803  151.1987 H   0  0  0  0  0  0  0  0  0  0  0  0  # atno 10718 bound_to 10713
  154.3216  135.2756  155.2517 H   0  0  0  0  0  0  0  0  0  0  0  0  # atno 10763 bound_to 10752
  154.4868  135.5844  153.6433 H   0  0  0  0  0  0  0  0  0  0  0  0  # atno 10764 bound_to 10752
  152.9876  135.6125  154.3401 H   0  0  0  0  0  0  0  0  0  0  0  0  # atno 10765 bound_to 10752
  140.1361  134.8770  157.2268 H   0  0  0  0  0  0  0  0  0  0  0  0  # atno 11005 bound_to 11000
  146.0063  140.8476  142.9993 LP  0  0  0  0  0  0  0  0  0  0  0  0  # atno 17320 bound_to 7965
  144.6795  140.2425  143.7342 LP  0  0  0  0  0  0  0  0  0  0  0  0  # atno 17321 bound_to 7965
  140.5662  143.2186  151.7679 LP  0  0  0  0  0  0  0  0  0  0  0  0  # atno 17342 bound_to 10162
  139.4918  144.4280  151.9904 LP  0  0  0  0  0  0  0  0  0  0  0  0  # atno 17343 bound_to 10162
  157.7486  131.0363  150.4405 LP  0  0  0  0  0  0  0  0  0  0  0  0  # atno 17370 bound_to 10713
  156.4638  130.4037  149.6560 LP  0  0  0  0  0  0  0  0  0  0  0  0  # atno 17371 bound_to 10713
  140.2781  134.3382  155.7352 LP  0  0  0  0  0  0  0  0  0  0  0  0  # atno 17394 bound_to 11000
  141.2178  133.7462  156.9323 LP  0  0  0  0  0  0  0  0  0  0  0  0  # atno 17395 bound_to 11000

$$$$
