AV-unprocessed.smi:2374|AV-procd|sdf|9441|dock4
  -GOLD-   2272013 73D 1   1.00000     0.00000
 Structure written by MMmdl.
 38 39  0  0  0  0  0  0  0  0  1 V2000
  147.0418  134.6697  155.5200 C   0  0  0  0  0  0  0  0  0  0  0  0
  148.2489  133.9350  156.0292 C   0  0  0  0  0  0  0  0  0  0  0  0
  148.4261  133.7997  157.3325 N   0  0  0  0  0  0  0  0  0  0  0  0
  149.6225  133.0922  157.4855 O   0  0  0  0  0  0  0  0  0  0  0  0
  150.1262  132.8293  156.2529 C   0  0  0  0  0  0  0  0  0  0  0  0
  151.4155  132.0818  156.1984 C   0  0  0  0  0  0  0  0  0  0  0  0
  149.3046  133.3344  155.2835 C   0  0  0  0  0  0  0  0  0  0  0  0
  149.4774  133.2785  153.7877 C   0  0  0  0  0  0  0  0  0  0  0  0
  148.1456  132.9082  153.1372 C   0  0  0  0  0  0  0  0  0  0  0  0
  147.6806  131.7793  153.2884 O   0  0  0  0  0  0  0  0  0  0  0  0
  147.5570  133.8666  152.4026 N   0  0  0  0  0  0  0  0  0  0  0  0
  146.3163  133.7532  151.6344 C   0  0  0  0  0  0  0  0  0  0  0  0
  145.8917  135.0689  151.1150 C   0  0  0  0  0  0  0  0  0  0  0  0
  145.5580  136.0999  150.7087 N   0  0  0  0  0  0  0  0  0  0  0  0
  146.6011  132.8015  150.4502 C   0  0  0  0  0  0  0  0  0  0  0  0
  145.3358  132.4816  149.6359 C   0  0  0  0  0  0  0  0  0  0  0  0
  144.2409  131.8865  150.5324 C   0  0  0  0  0  0  0  0  0  0  0  0
  143.9326  132.8095  151.7199 C   0  0  0  0  0  0  0  0  0  0  0  0
  145.2068  133.1309  152.5195 C   0  0  0  0  0  0  0  0  0  0  0  0
  147.2896  135.7038  155.2793 H   0  0  0  0  0  0  0  0  0  0  0  0
  146.2386  134.6834  156.2576 H   0  0  0  0  0  0  0  0  0  0  0  0
  146.6498  134.2030  154.6163 H   0  0  0  0  0  0  0  0  0  0  0  0
  151.8621  131.9929  157.1891 H   0  0  0  0  0  0  0  0  0  0  0  0
  152.1292  132.5924  155.5515 H   0  0  0  0  0  0  0  0  0  0  0  0
  151.2612  131.0771  155.8048 H   0  0  0  0  0  0  0  0  0  0  0  0
  149.8090  134.2383  153.3896 H   0  0  0  0  0  0  0  0  0  0  0  0
  150.2398  132.5541  153.4990 H   0  0  0  0  0  0  0  0  0  0  0  0
  148.0266  134.7588  152.3522 H   0  0  0  0  0  0  0  0  0  0  0  0
  147.3542  133.2385  149.7929 H   0  0  0  0  0  0  0  0  0  0  0  0
  147.0268  131.8673  150.8210 H   0  0  0  0  0  0  0  0  0  0  0  0
  144.9648  133.3864  149.1532 H   0  0  0  0  0  0  0  0  0  0  0  0
  145.5778  131.7834  148.8342 H   0  0  0  0  0  0  0  0  0  0  0  0
  143.3354  131.7136  149.9501 H   0  0  0  0  0  0  0  0  0  0  0  0
  144.5617  130.9119  150.9024 H   0  0  0  0  0  0  0  0  0  0  0  0
  143.4792  133.7334  151.3587 H   0  0  0  0  0  0  0  0  0  0  0  0
  143.1951  132.3403  152.3715 H   0  0  0  0  0  0  0  0  0  0  0  0
  145.5761  132.2144  152.9825 H   0  0  0  0  0  0  0  0  0  0  0  0
  144.9504  133.8024  153.3394 H   0  0  0  0  0  0  0  0  0  0  0  0
  1  2  1  0  0  0  0
  1 20  1  0  0  0  0
  1 21  1  0  0  0  0
  1 22  1  0  0  0  0
  2  7  1  0  0  0  0
  2  3  2  0  0  0  0
  3  4  1  0  0  0  0
  4  5  1  0  0  0  0
  5  6  1  0  0  0  0
  5  7  2  0  0  0  0
  6 23  1  0  0  0  0
  6 24  1  0  0  0  0
  6 25  1  0  0  0  0
  7  8  1  0  0  0  0
  8  9  1  0  0  0  0
  8 26  1  0  0  0  0
  8 27  1  0  0  0  0
  9 10  2  0  0  0  0
  9 11  1  0  0  0  0
 11 12  1  0  0  0  0
 11 28  1  0  0  0  0
 12 19  1  0  0  0  0
 12 13  1  0  0  0  0
 12 15  1  0  0  0  0
 13 14  3  0  0  0  0
 15 16  1  0  0  0  0
 15 29  1  0  0  0  0
 15 30  1  0  0  0  0
 16 17  1  0  0  0  0
 16 31  1  0  0  0  0
 16 32  1  0  0  0  0
 17 18  1  0  0  0  0
 17 33  1  0  0  0  0
 17 34  1  0  0  0  0
 18 19  1  0  0  0  0
 18 35  1  0  0  0  0
 18 36  1  0  0  0  0
 19 37  1  0  0  0  0
 19 38  1  0  0  0  0
M  END
> <s_m_source_file>
AV-unprocessed.smi

> <i_m_source_file_index>
2374

> <i_lp_mmshare_version>
43012

> <i_f3d_flags>
0

> <s_epik_input>
W0NIM11jMW5vYyhbQ0gzXSljMVtDSDJdQyg9TylbTkhdQzIoQyNOKVtDSDJdW0NIMl1bQ0gyXVtDSDJdW0NIMl0y

> <s_epik_cmdline>
J2VwaWtfcHl0aG9uJywgJy1waCcsICc3LjAnLCAnLXRuJywgJzgnLCAnLW1hJywgJzIwMCcsICctbWV0YWxfYmluZGluZycsICctaW1hZScsICc8aW5maWxlLm1hZT4nLCAnLW9tYWUnLCAnPG91dGZpbGUubWFlPic=

> <r_lp_tautomer_probability>
1

> <r_epik_Ionization_Penalty>
5.32351e-07

> <r_epik_Ionization_Penalty_Charging>
0

> <r_epik_Ionization_Penalty_Neutral>
5.32351e-07

> <r_epik_State_Penalty>
-0

> <r_epik_Charging_Adjusted_Penalty>
0

> <i_epik_Tot_Q>
0

> <i_epik_Tot_abs_Q>
0

> <r_epik_Metal_State_Penalty>
-0

> <b_epik_Metal_Only>
0

> <s_lp_Force_Field>
OPLS_2005

> <r_lp_Energy>
1.24433

> <b_lp_Chiralities_Consistent>
1

> <s_lp_Variant>
AV-unprocessed.smi:2374-1

> <Gold.Version>
5.8.1

> <Gold.Id.Protein>
6NUR|6NUR_protein|mol2

> <Gold.PLP.Fitness>
34.4131

> <Gold.PLP.PLP>
-30.0826

> <Gold.PLP.part.hbond>
-1.6193

> <Gold.PLP.part.metal>
0.0000

> <Gold.PLP.part.buried>
-2.7126

> <Gold.PLP.part.nonpolar>
-25.4827

> <Gold.PLP.part.repulsive>
0.3832

> <Gold.PLP.ligand.clash>
0.0000

> <Gold.PLP.ligand.torsion>
0.3855

> <Gold.PLP.Chemscore.Hbond>
1.6988

> <Gold.PLP.Chemscore.CHOScore>
0.0000

> <Gold.PLP.Chemscore.Metal>
0.0000

> <Gold.Chemscore.Hbonds>
donor molecule, donor type, donor heavy atom, donor atom, acceptor molecule, acceptor atom, score
      L1  H    11    28       P1  7948  1.00
      P1  H  6896  6909       L1     4  0.50

> <Gold.PLP.Chemscore.Internal.Correction>
0.0053

> <Gold.Rescore>
     Score         DG    S(hbond)    S(metal)    S(lipo)     H(rot)  DE(clash)    DE(int)     intcor
     14.31     -15.81       1.88        0.00      65.28       1.40       0.18       1.32       ----

> <Gold.Chemscore.Fitness>
14.3116

> <Gold.Chemscore.DG>
-15.8059

> <Gold.Chemscore.ZeroCoef>
-5.4800

> <Gold.Chemscore.Hbond>
1.8786

> <Gold.Chemscore.Metal>
0.0000

> <Gold.Chemscore.Lipo>
65.2785

> <Gold.Chemscore.Internal_Hbond>
0.0000

> <Gold.Chemscore.DEClash>
0.1757

> <Gold.Chemscore.DEInternal>
1.3187

> <Gold.Chemscore.Rot>
1.4009

> <Gold.Chemscore.Internal.Correction>
   9.000000E+99

> <Gold.Chemscore.Hbonds>
donor molecule, donor type, donor heavy atom, donor atom, acceptor molecule, acceptor atom, score
      L1  H    11    28       P1  7948  0.55
      P1  H  6896  6909       L1     4  0.44

> <Gold.Chemscore.Hbond.Weighted>
-6.2746

> <Gold.Chemscore.Metal.Weighted>
-0.0000

> <Gold.Chemscore.Lipo.Weighted>
-7.6376

> <Gold.Chemscore.Internal_Hbond.Weighted>
0.0000

> <Gold.Chemscore.DEClash.Weighted>
0.1757

> <Gold.Chemscore.DEInternal.Weighted>
1.3187

> <Gold.Chemscore.Rot.Weighted>
3.5863

> <Gold.Chemscore.Internal.Correction.Weighted>
   9.000000E+99

> <Gold.Protein.RotatedTorsions>
[ 6907 6896 6895 6894 ] final   -2.85 input  -60.11 | X-H torsion
[ 7974 7965 7964 7962 ] final -167.80 input  175.53 | X-H torsion
[ 8008 7997 7996 7995 ] final  -84.56 input   59.86 | X-H torsion
[ 10167 10162 10161 10158 ] final  -77.54 input  -65.29 | X-H torsion
[ 10718 10713 10712 10709 ] final   88.59 input   66.30 | X-H torsion
[ 10763 10752 10751 10750 ] final   -3.52 input  -60.55 | X-H torsion
[ 11005 11000 10999 10996 ] final -107.96 input  -57.11 | X-H torsion

> <Gold.Protein.ActiveResidues>
 VAL166  LYS551  ARG553  GLY616  TRP617  ASP618  TYR619  PRO620  LYS621  CYS622 
 ASP623  PHE694  ASN695  SER759  ASP760  ASP761  ALA762  ILE779  LEU786  VAL792 
 PHE793  MET794  SER795  GLU796  ALA797  LYS798  CYS799  TRP800  GLU811  SER814 

> <Gold.Protein.RotatedAtoms>
  151.5232  135.1067  159.9883 H   0  0  0  0  0  0  0  0  0  0  0  0  # atno 6907 bound_to 6896
  152.4611  133.7821  159.6866 H   0  0  0  0  0  0  0  0  0  0  0  0  # atno 6908 bound_to 6896
  150.8574  133.7630  159.3029 H   0  0  0  0  0  0  0  0  0  0  0  0  # atno 6909 bound_to 6896
  144.7215  140.2464  143.6284 H   0  0  0  0  0  0  0  0  0  0  0  0  # atno 7974 bound_to 7965
  154.6312  140.0603  156.9734 H   0  0  0  0  0  0  0  0  0  0  0  0  # atno 8008 bound_to 7997
  155.1663  140.3287  155.4383 H   0  0  0  0  0  0  0  0  0  0  0  0  # atno 8009 bound_to 7997
  156.2483  140.1922  156.6768 H   0  0  0  0  0  0  0  0  0  0  0  0  # atno 8010 bound_to 7997
  140.4761  143.2414  151.8131 H   0  0  0  0  0  0  0  0  0  0  0  0  # atno 10167 bound_to 10162
  157.6950  131.0300  150.3298 H   0  0  0  0  0  0  0  0  0  0  0  0  # atno 10718 bound_to 10713
  153.3725  135.6995  153.6627 H   0  0  0  0  0  0  0  0  0  0  0  0  # atno 10763 bound_to 10752
  153.5271  135.3600  155.2659 H   0  0  0  0  0  0  0  0  0  0  0  0  # atno 10764 bound_to 10752
  154.8683  135.4172  154.3006 H   0  0  0  0  0  0  0  0  0  0  0  0  # atno 10765 bound_to 10752
  141.0927  133.9027  157.2038 H   0  0  0  0  0  0  0  0  0  0  0  0  # atno 11005 bound_to 11000
  145.8270  139.2069  143.1905 LP  0  0  0  0  0  0  0  0  0  0  0  0  # atno 17320 bound_to 7965
  146.0464  140.8113  142.9803 LP  0  0  0  0  0  0  0  0  0  0  0  0  # atno 17321 bound_to 7965
  139.4826  144.4831  151.9281 LP  0  0  0  0  0  0  0  0  0  0  0  0  # atno 17342 bound_to 10162
  140.3917  144.2607  150.5899 LP  0  0  0  0  0  0  0  0  0  0  0  0  # atno 17343 bound_to 10162
  156.3773  130.3874  149.7129 LP  0  0  0  0  0  0  0  0  0  0  0  0  # atno 17370 bound_to 10713
  156.4523  130.7912  151.2933 LP  0  0  0  0  0  0  0  0  0  0  0  0  # atno 17371 bound_to 10713
  139.9756  135.0115  156.9622 LP  0  0  0  0  0  0  0  0  0  0  0  0  # atno 17394 bound_to 11000
  140.5214  134.0903  155.7293 LP  0  0  0  0  0  0  0  0  0  0  0  0  # atno 17395 bound_to 11000

$$$$
