AV-unprocessed.smi:2448|AV-procd|sdf|9653|dock1
  -GOLD-   2272013283D 1   1.00000     0.00000
 Structure written by MMmdl.
 37 38  0  0  0  0  0  0  0  0  1 V2000
  146.4002  134.6072  151.0868 O   0  0  0  0  0  0  0  0  0  0  0  0
  145.8914  133.8896  152.1970 C   0  0  1  0  0  0  0  0  0  0  0  0
  146.5392  134.4675  153.4717 C   0  0  0  0  0  0  0  0  0  0  0  0
  147.9521  134.1011  153.5838 N   0  0  0  0  0  0  0  0  0  0  0  0
  148.4402  133.7811  154.9340 C   0  0  1  0  0  0  0  0  0  0  0  0
  149.5276  132.6741  154.9416 C   0  0  0  0  0  0  0  0  0  0  0  0
  149.0015  131.2486  154.8783 C   0  0  0  0  0  0  0  0  0  0  0  0
  149.8896  130.1520  154.8787 C   0  0  0  0  0  0  0  0  0  0  0  0
  149.3530  128.8501  154.8236 C   0  0  0  0  0  0  0  0  0  0  0  0
  148.0278  128.5955  154.7772 N   0  0  0  0  0  0  0  0  0  0  0  0
  147.1824  129.6481  154.7887 C   0  0  0  0  0  0  0  0  0  0  0  0
  147.6152  130.9882  154.8410 C   0  0  0  0  0  0  0  0  0  0  0  0
  148.9528  135.0694  155.6120 C   0  0  0  0  0  0  0  0  0  0  0  0
  149.3244  134.8056  156.8656 F   0  0  0  0  0  0  0  0  0  0  0  0
  150.0131  135.5462  154.9595 F   0  0  0  0  0  0  0  0  0  0  0  0
  148.0004  136.0027  155.6325 F   0  0  0  0  0  0  0  0  0  0  0  0
  144.3528  133.9416  152.1916 C   0  0  0  0  0  0  0  0  0  0  0  0
  143.8565  133.0366  151.0596 C   0  0  0  0  0  0  0  0  0  0  0  0
  145.0144  131.6531  150.9133 S   0  0  0  0  0  0  0  0  0  0  0  0
  146.2536  132.4073  152.0008 C   0  0  0  0  0  0  0  0  0  0  0  0
  147.2069  135.0249  151.3474 H   0  0  0  0  0  0  0  0  0  0  0  0
  146.4512  135.5545  153.4538 H   0  0  0  0  0  0  0  0  0  0  0  0
  145.9793  134.1229  154.3386 H   0  0  0  0  0  0  0  0  0  0  0  0
  148.5239  134.8426  153.1913 H   0  0  0  0  0  0  0  0  0  0  0  0
  147.5973  133.4460  155.5390 H   0  0  0  0  0  0  0  0  0  0  0  0
  150.2402  132.8468  154.1341 H   0  0  0  0  0  0  0  0  0  0  0  0
  150.1086  132.7364  155.8619 H   0  0  0  0  0  0  0  0  0  0  0  0
  150.9589  130.3005  154.9137 H   0  0  0  0  0  0  0  0  0  0  0  0
  150.0065  127.9902  154.8170 H   0  0  0  0  0  0  0  0  0  0  0  0
  146.1281  129.4161  154.7568 H   0  0  0  0  0  0  0  0  0  0  0  0
  146.8956  131.7935  154.8539 H   0  0  0  0  0  0  0  0  0  0  0  0
  143.9769  133.5576  153.1412 H   0  0  0  0  0  0  0  0  0  0  0  0
  143.9688  134.9570  152.0855 H   0  0  0  0  0  0  0  0  0  0  0  0
  142.8409  132.6810  151.2332 H   0  0  0  0  0  0  0  0  0  0  0  0
  143.8595  133.5826  150.1158 H   0  0  0  0  0  0  0  0  0  0  0  0
  147.2612  132.2658  151.6078 H   0  0  0  0  0  0  0  0  0  0  0  0
  146.2030  131.8798  152.9539 H   0  0  0  0  0  0  0  0  0  0  0  0
  1  2  1  0  0  0  0
  1 21  1  0  0  0  0
  2 20  1  0  0  0  0
  2  3  1  0  0  0  0
  2 17  1  0  0  0  0
  3  4  1  0  0  0  0
  3 22  1  0  0  0  0
  3 23  1  0  0  0  0
  4  5  1  0  0  0  0
  4 24  1  0  0  0  0
  5  6  1  0  0  0  0
  5 13  1  0  0  0  0
  5 25  1  0  0  0  0
  6  7  1  0  0  0  0
  6 26  1  0  0  0  0
  6 27  1  0  0  0  0
  7 12  1  0  0  0  0
  7  8  2  0  0  0  0
  8  9  1  0  0  0  0
  8 28  1  0  0  0  0
  9 10  2  0  0  0  0
  9 29  1  0  0  0  0
 10 11  1  0  0  0  0
 11 12  2  0  0  0  0
 11 30  1  0  0  0  0
 12 31  1  0  0  0  0
 13 14  1  0  0  0  0
 13 15  1  0  0  0  0
 13 16  1  0  0  0  0
 17 18  1  0  0  0  0
 17 32  1  0  0  0  0
 17 33  1  0  0  0  0
 18 19  1  0  0  0  0
 18 34  1  0  0  0  0
 18 35  1  0  0  0  0
 19 20  1  0  0  0  0
 20 36  1  0  0  0  0
 20 37  1  0  0  0  0
M  END
> <s_m_source_file>
AV-unprocessed.smi

> <i_m_source_file_index>
2448

> <i_lp_mmshare_version>
43012

> <i_f3d_flags>
0

> <s_epik_input>
W0NIMl0xU1tDSDJdW0NIMl1bQ0BAXTEoW09IXSlbQ0gyXVtOSF1bQ0BASF0oQyhGKShGKUYpW0NIMl1jMltjSF1bY0hdbltjSF1bY0hdMg==

> <s_epik_cmdline>
J2VwaWtfcHl0aG9uJywgJy1waCcsICc3LjAnLCAnLXRuJywgJzgnLCAnLW1hJywgJzIwMCcsICctbWV0YWxfYmluZGluZycsICctaW1hZScsICc8aW5maWxlLm1hZT4nLCAnLW9tYWUnLCAnPG91dGZpbGUubWFlPic=

> <r_epik_Ionization_Penalty>
0.187708

> <r_epik_Ionization_Penalty_Charging>
0

> <r_epik_Ionization_Penalty_Neutral>
0.187708

> <r_epik_State_Penalty>
0.22769

> <r_epik_Charging_Adjusted_Penalty>
0.22769

> <i_epik_Tot_Q>
0

> <i_epik_Tot_abs_Q>
0

> <r_epik_Metal_State_Penalty>
0.176206

> <b_epik_Metal_Only>
0

> <s_lp_Force_Field>
OPLS_2005

> <r_lp_Energy>
32.0446

> <b_lp_Chiralities_Consistent>
1

> <s_lp_Variant>
AV-unprocessed.smi:2448-3

> <Gold.Version>
5.8.1

> <Gold.Id.Protein>
6NUR|6NUR_protein|mol2

> <Gold.PLP.Fitness>
37.5864

> <Gold.PLP.PLP>
-30.5005

> <Gold.PLP.part.hbond>
-2.0000

> <Gold.PLP.part.metal>
0.0000

> <Gold.PLP.part.buried>
-3.6293

> <Gold.PLP.part.nonpolar>
-24.3627

> <Gold.PLP.part.repulsive>
0.0776

> <Gold.PLP.ligand.clash>
0.0000

> <Gold.PLP.ligand.torsion>
1.0854

> <Gold.PLP.Chemscore.Hbond>
1.9920

> <Gold.PLP.Chemscore.CHOScore>
0.8805

> <Gold.PLP.Chemscore.Metal>
0.0000

> <Gold.Chemscore.Hbonds>
donor molecule, donor type, donor heavy atom, donor atom, acceptor molecule, acceptor atom, score
      L1  H     1    21       P1  7948  0.75
      L1  H     4    24       P1  7948  1.00
      L1  C    11    30       P1 10956  0.20

> <Gold.PLP.Chemscore.Internal.Correction>
0.6391

> <Gold.Rescore>
     Score         DG    S(hbond)    S(metal)    S(lipo)     H(rot)  DE(clash)    DE(int)     intcor
     12.09     -13.27       1.69        0.00      68.94       2.31       0.04       1.13       ----

> <Gold.Chemscore.Fitness>
12.0944

> <Gold.Chemscore.DG>
-13.2710

> <Gold.Chemscore.ZeroCoef>
-5.4800

> <Gold.Chemscore.Hbond>
1.6892

> <Gold.Chemscore.Metal>
0.0000

> <Gold.Chemscore.Lipo>
68.9365

> <Gold.Chemscore.Internal_Hbond>
0.0000

> <Gold.Chemscore.DEClash>
0.0417

> <Gold.Chemscore.DEInternal>
1.1349

> <Gold.Chemscore.Rot>
2.3111

> <Gold.Chemscore.Internal.Correction>
   9.000000E+99

> <Gold.Chemscore.Hbonds>
donor molecule, donor type, donor heavy atom, donor atom, acceptor molecule, acceptor atom, score
      L1  H     1    21       P1  7948  0.52
      L1  H     4    24       P1  7948  0.58

> <Gold.Chemscore.Hbond.Weighted>
-5.6418

> <Gold.Chemscore.Metal.Weighted>
-0.0000

> <Gold.Chemscore.Lipo.Weighted>
-8.0656

> <Gold.Chemscore.Internal_Hbond.Weighted>
0.0000

> <Gold.Chemscore.DEClash.Weighted>
0.0417

> <Gold.Chemscore.DEInternal.Weighted>
1.1349

> <Gold.Chemscore.Rot.Weighted>
5.9164

> <Gold.Chemscore.Internal.Correction.Weighted>
   9.000000E+99

> <Gold.Protein.RotatedTorsions>
[ 6907 6896 6895 6894 ] final   31.69 input  -60.11 | X-H torsion
[ 7974 7965 7964 7962 ] final   46.75 input  175.53 | X-H torsion
[ 8008 7997 7996 7995 ] final  -35.54 input   59.86 | X-H torsion
[ 10167 10162 10161 10158 ] final   37.62 input  -65.29 | X-H torsion
[ 10718 10713 10712 10709 ] final -143.58 input   66.30 | X-H torsion
[ 10763 10752 10751 10750 ] final  -48.49 input  -60.55 | X-H torsion
[ 11005 11000 10999 10996 ] final   96.28 input  -57.11 | X-H torsion

> <Gold.Protein.ActiveResidues>
 VAL166  LYS551  ARG553  GLY616  TRP617  ASP618  TYR619  PRO620  LYS621  CYS622 
 ASP623  PHE694  ASN695  SER759  ASP760  ASP761  ALA762  ILE779  LEU786  VAL792 
 PHE793  MET794  SER795  GLU796  ALA797  LYS798  CYS799  TRP800  GLU811  SER814 

> <Gold.Protein.RotatedAtoms>
  152.0639  134.9576  160.0574 H   0  0  0  0  0  0  0  0  0  0  0  0  # atno 6907 bound_to 6896
  152.0929  133.4205  159.4560 H   0  0  0  0  0  0  0  0  0  0  0  0  # atno 6908 bound_to 6896
  150.6837  134.2770  159.4655 H   0  0  0  0  0  0  0  0  0  0  0  0  # atno 6909 bound_to 6896
  146.0361  139.4822  142.9807 H   0  0  0  0  0  0  0  0  0  0  0  0  # atno 7974 bound_to 7965
  154.4093  140.1654  156.2228 H   0  0  0  0  0  0  0  0  0  0  0  0  # atno 8008 bound_to 7997
  155.9349  140.3412  155.6256 H   0  0  0  0  0  0  0  0  0  0  0  0  # atno 8009 bound_to 7997
  155.7061  140.0751  157.2381 H   0  0  0  0  0  0  0  0  0  0  0  0  # atno 8010 bound_to 7997
  140.4015  144.1717  150.6134 H   0  0  0  0  0  0  0  0  0  0  0  0  # atno 10167 bound_to 10162
  156.3597  130.7732  151.1897 H   0  0  0  0  0  0  0  0  0  0  0  0  # atno 10718 bound_to 10713
  154.0787  135.6594  153.4834 H   0  0  0  0  0  0  0  0  0  0  0  0  # atno 10763 bound_to 10752
  153.0364  135.5174  154.7495 H   0  0  0  0  0  0  0  0  0  0  0  0  # atno 10764 bound_to 10752
  154.6584  135.3011  154.9866 H   0  0  0  0  0  0  0  0  0  0  0  0  # atno 10765 bound_to 10752
  139.8783  134.8942  156.4135 H   0  0  0  0  0  0  0  0  0  0  0  0  # atno 11005 bound_to 11000
  145.6961  141.0150  143.1529 LP  0  0  0  0  0  0  0  0  0  0  0  0  # atno 17320 bound_to 7965
  144.7052  139.8590  143.7432 LP  0  0  0  0  0  0  0  0  0  0  0  0  # atno 17321 bound_to 7965
  140.4735  143.2404  151.9056 LP  0  0  0  0  0  0  0  0  0  0  0  0  # atno 17342 bound_to 10162
  139.4784  144.5345  151.8619 LP  0  0  0  0  0  0  0  0  0  0  0  0  # atno 17343 bound_to 10162
  157.7472  131.0403  150.4594 LP  0  0  0  0  0  0  0  0  0  0  0  0  # atno 17370 bound_to 10713
  156.4803  130.4072  149.6466 LP  0  0  0  0  0  0  0  0  0  0  0  0  # atno 17371 bound_to 10713
  140.9184  133.7662  155.9876 LP  0  0  0  0  0  0  0  0  0  0  0  0  # atno 17394 bound_to 11000
  140.8468  134.3002  157.5292 LP  0  0  0  0  0  0  0  0  0  0  0  0  # atno 17395 bound_to 11000

$$$$
