AV-unprocessed.smi:2032|AV-procd|sdf|8242|dock9
  -GOLD-   2272010513D 1   1.00000     0.00000
 Structure written by MMmdl.
 43 44  0  0  0  0  0  0  0  0  2 V2000
  150.6873  141.8307  155.9969 C   0  0  0  0  0  0  0  0  0  0  0  0
  150.0011  140.5019  156.3609 C   0  0  1  0  0  0  0  0  0  0  0  0
  148.6468  140.2943  155.6523 C   0  0  0  0  0  0  0  0  0  0  0  0
  148.8250  139.9491  154.2149 N   0  3  2  0  0  0  0  0  0  0  0  0
  147.5672  139.7828  153.4139 C   0  0  2  0  0  0  0  0  0  0  0  0
  146.8011  141.1243  153.3640 C   0  0  0  0  0  0  0  0  0  0  0  0
  146.6477  138.6377  153.9230 C   0  0  0  0  0  0  0  0  0  0  0  0
  146.8282  137.3873  153.1884 N   0  0  0  0  0  0  0  0  0  0  0  0
  145.8390  136.5811  152.7745 C   0  0  0  0  0  0  0  0  0  0  0  0
  144.6457  136.8229  152.9592 O   0  0  0  0  0  0  0  0  0  0  0  0
  146.3239  135.5013  152.1374 N   0  0  0  0  0  0  0  0  0  0  0  0
  145.5984  134.4446  151.5270 C   0  0  0  0  0  0  0  0  0  0  0  0
  144.2629  134.3649  151.4977 N   0  0  0  0  0  0  0  0  0  0  0  0
  143.8204  133.2221  150.8268 C   0  0  0  0  0  0  0  0  0  0  0  0
  144.8399  132.4378  150.3477 C   0  0  0  0  0  0  0  0  0  0  0  0
  146.4057  133.1067  150.7226 S   0  0  0  0  0  0  0  0  0  0  0  0
  149.7319  138.7766  154.1016 C   0  0  0  0  0  0  0  0  0  0  0  0
  151.0814  139.0578  154.7831 C   0  0  2  0  0  0  0  0  0  0  0  0
  152.0134  137.8419  154.7348 C   0  0  0  0  0  0  0  0  0  0  0  0
  150.8551  139.3798  156.1506 O   0  0  0  0  0  0  0  0  0  0  0  0
  150.0762  142.6786  156.3072 H   0  0  0  0  0  0  0  0  0  0  0  0
  150.8571  141.9304  154.9252 H   0  0  0  0  0  0  0  0  0  0  0  0
  151.6509  141.9207  156.4992 H   0  0  0  0  0  0  0  0  0  0  0  0
  149.8096  140.5343  157.4339 H   0  0  0  0  0  0  0  0  0  0  0  0
  148.0918  139.4937  156.1441 H   0  0  0  0  0  0  0  0  0  0  0  0
  148.0682  141.2096  155.7729 H   0  0  0  0  0  0  0  0  0  0  0  0
  147.8596  139.5198  152.3957 H   0  0  0  0  0  0  0  0  0  0  0  0
  145.9408  141.0731  152.6974 H   0  0  0  0  0  0  0  0  0  0  0  0
  147.4115  141.9471  152.9969 H   0  0  0  0  0  0  0  0  0  0  0  0
  146.4357  141.4032  154.3527 H   0  0  0  0  0  0  0  0  0  0  0  0
  146.8794  138.3967  154.9602 H   0  0  0  0  0  0  0  0  0  0  0  0
  145.6021  138.9504  153.9027 H   0  0  0  0  0  0  0  0  0  0  0  0
  147.7788  137.1098  152.9907 H   0  0  0  0  0  0  0  0  0  0  0  0
  147.3285  135.4310  152.0703 H   0  0  0  0  0  0  0  0  0  0  0  0
  142.7590  133.0450  150.7353 H   0  0  0  0  0  0  0  0  0  0  0  0
  144.7646  131.5111  149.7984 H   0  0  0  0  0  0  0  0  0  0  0  0
  149.2570  137.9057  154.5569 H   0  0  0  0  0  0  0  0  0  0  0  0
  149.9156  138.5212  153.0594 H   0  0  0  0  0  0  0  0  0  0  0  0
  151.5819  139.8868  154.2820 H   0  0  0  0  0  0  0  0  0  0  0  0
  152.2282  137.5514  153.7059 H   0  0  0  0  0  0  0  0  0  0  0  0
  151.5698  136.9834  155.2395 H   0  0  0  0  0  0  0  0  0  0  0  0
  152.9637  138.0603  155.2226 H   0  0  0  0  0  0  0  0  0  0  0  0
  149.3098  140.7355  153.8062 H   0  0  0  0  0  0  0  0  0  0  0  0
  1  2  1  0  0  0  0
  1 21  1  0  0  0  0
  1 22  1  0  0  0  0
  1 23  1  0  0  0  0
  2 20  1  0  0  0  0
  2  3  1  0  0  0  0
  2 24  1  0  0  0  0
  3  4  1  0  0  0  0
  3 25  1  0  0  0  0
  3 26  1  0  0  0  0
  4  5  1  0  0  0  0
  4 17  1  0  0  0  0
  4 43  1  0  0  0  0
  5  6  1  0  0  0  0
  5  7  1  0  0  0  0
  5 27  1  0  0  0  0
  6 28  1  0  0  0  0
  6 29  1  0  0  0  0
  6 30  1  0  0  0  0
  7  8  1  0  0  0  0
  7 31  1  0  0  0  0
  7 32  1  0  0  0  0
  8  9  1  0  0  0  0
  8 33  1  0  0  0  0
  9 10  2  0  0  0  0
  9 11  1  0  0  0  0
 11 12  1  0  0  0  0
 11 34  1  0  0  0  0
 12 16  1  0  0  0  0
 12 13  2  0  0  0  0
 13 14  1  0  0  0  0
 14 15  2  0  0  0  0
 14 35  1  0  0  0  0
 15 16  1  0  0  0  0
 15 36  1  0  0  0  0
 17 18  1  0  0  0  0
 17 37  1  0  0  0  0
 17 38  1  0  0  0  0
 18 19  1  0  0  0  0
 18 20  1  0  0  0  0
 18 39  1  0  0  0  0
 19 40  1  0  0  0  0
 19 41  1  0  0  0  0
 19 42  1  0  0  0  0
M  CHG  1   4   1
M  END
> <s_m_source_file>
AV-unprocessed.smi

> <i_m_source_file_index>
2032

> <i_lp_mmshare_version>
43012

> <i_f3d_flags>
0

> <s_epik_input>
W0NIM11bQ0BASF0xW0NIMl1OKFtDSDJdW0NASF0oTzEpW0NIM10pW0NASF0oW0NIM10pW0NIMl1bTkhdQyg9TylbTkhdYzJuW2NIXVtjSF1zMg==

> <s_epik_cmdline>
J2VwaWtfcHl0aG9uJywgJy1waCcsICc3LjAnLCAnLXRuJywgJzgnLCAnLW1hJywgJzIwMCcsICctbWV0YWxfYmluZGluZycsICctaW1hZScsICc8aW5maWxlLm1hZT4nLCAnLW9tYWUnLCAnPG91dGZpbGUubWFlPic=

> <r_lp_tautomer_probability>
0.999

> <r_epik_Ionization_Penalty>
0.695838

> <r_epik_Ionization_Penalty_Charging>
0.695697

> <r_epik_Ionization_Penalty_Neutral>
0.000141198

> <r_epik_State_Penalty>
0.717972

> <r_epik_Charging_Adjusted_Penalty>
1.41367

> <i_epik_Tot_Q>
1

> <i_epik_Tot_abs_Q>
1

> <r_epik_Metal_State_Penalty>
0.756405

> <b_epik_Metal_Only>
0

> <s_lp_Force_Field>
OPLS_2005

> <r_lp_Energy>
21.4223

> <b_lp_Chiralities_Consistent>
1

> <s_lp_Variant>
AV-unprocessed.smi:2032-12

> <Gold.Version>
5.8.1

> <Gold.Id.Protein>
6NUR|6NUR_protein|mol2

> <Gold.PLP.Fitness>
38.7240

> <Gold.PLP.PLP>
-31.1992

> <Gold.PLP.part.hbond>
-2.5938

> <Gold.PLP.part.metal>
0.0000

> <Gold.PLP.part.buried>
-3.7808

> <Gold.PLP.part.nonpolar>
-25.8687

> <Gold.PLP.part.repulsive>
0.4556

> <Gold.PLP.ligand.clash>
0.0000

> <Gold.PLP.ligand.torsion>
0.7002

> <Gold.PLP.Chemscore.Hbond>
1.9600

> <Gold.PLP.Chemscore.CHOScore>
1.0000

> <Gold.PLP.Chemscore.Metal>
0.0000

> <Gold.Chemscore.Hbonds>
donor molecule, donor type, donor heavy atom, donor atom, acceptor molecule, acceptor atom, score
      L1  H     8    33       P1  7948  0.96
      L1  H    11    34       P1  7948  1.00
      L1  C    14    35       P1 10186  0.99

> <Gold.PLP.Chemscore.Internal.Correction>
0.0452

> <Gold.Rescore>
     Score         DG    S(hbond)    S(metal)    S(lipo)     H(rot)  DE(clash)    DE(int)     intcor
     15.37     -17.42       1.93        0.00      82.21       1.61       0.06       1.99       ----

> <Gold.Chemscore.Fitness>
15.3666

> <Gold.Chemscore.DG>
-17.4158

> <Gold.Chemscore.ZeroCoef>
-5.4800

> <Gold.Chemscore.Hbond>
1.9284

> <Gold.Chemscore.Metal>
0.0000

> <Gold.Chemscore.Lipo>
82.2134

> <Gold.Chemscore.Internal_Hbond>
0.0000

> <Gold.Chemscore.DEClash>
0.0553

> <Gold.Chemscore.DEInternal>
1.9939

> <Gold.Chemscore.Rot>
1.6110

> <Gold.Chemscore.Internal.Correction>
   9.000000E+99

> <Gold.Chemscore.Hbonds>
donor molecule, donor type, donor heavy atom, donor atom, acceptor molecule, acceptor atom, score
      L1  H     8    33       P1  7948  0.92
      L1  H    11    34       P1  7948  0.95

> <Gold.Chemscore.Hbond.Weighted>
-6.4410

> <Gold.Chemscore.Metal.Weighted>
-0.0000

> <Gold.Chemscore.Lipo.Weighted>
-9.6190

> <Gold.Chemscore.Internal_Hbond.Weighted>
0.0000

> <Gold.Chemscore.DEClash.Weighted>
0.0553

> <Gold.Chemscore.DEInternal.Weighted>
1.9939

> <Gold.Chemscore.Rot.Weighted>
4.1242

> <Gold.Chemscore.Internal.Correction.Weighted>
   9.000000E+99

> <Gold.Protein.RotatedTorsions>
[ 6907 6896 6895 6894 ] final  -97.51 input  -60.11 | X-H torsion
[ 7974 7965 7964 7962 ] final -135.78 input  175.53 | X-H torsion
[ 8008 7997 7996 7995 ] final  143.85 input   59.86 | X-H torsion
[ 10167 10162 10161 10158 ] final   65.92 input  -65.29 | X-H torsion
[ 10718 10713 10712 10709 ] final   17.37 input   66.30 | X-H torsion
[ 10763 10752 10751 10750 ] final  -90.92 input  -60.55 | X-H torsion
[ 11005 11000 10999 10996 ] final -170.60 input  -57.11 | X-H torsion

> <Gold.Protein.ActiveResidues>
 VAL166  LYS551  ARG553  GLY616  TRP617  ASP618  TYR619  PRO620  LYS621  CYS622 
 ASP623  PHE694  ASN695  SER759  ASP760  ASP761  ALA762  ILE779  LEU786  VAL792 
 PHE793  MET794  SER795  GLU796  ALA797  LYS798  CYS799  TRP800  GLU811  SER814 

> <Gold.Protein.RotatedAtoms>
  150.7018  134.1337  159.4078 H   0  0  0  0  0  0  0  0  0  0  0  0  # atno 6907 bound_to 6896
  151.9323  135.0249  160.0539 H   0  0  0  0  0  0  0  0  0  0  0  0  # atno 6908 bound_to 6896
  152.2165  133.4915  159.5175 H   0  0  0  0  0  0  0  0  0  0  0  0  # atno 6909 bound_to 6896
  144.8984  140.6738  143.5101 H   0  0  0  0  0  0  0  0  0  0  0  0  # atno 7974 bound_to 7965
  156.2921  140.2251  156.4958 H   0  0  0  0  0  0  0  0  0  0  0  0  # atno 8008 bound_to 7997
  154.7732  140.0465  157.1089 H   0  0  0  0  0  0  0  0  0  0  0  0  # atno 8009 bound_to 7997
  154.9849  140.3083  155.4934 H   0  0  0  0  0  0  0  0  0  0  0  0  # atno 8010 bound_to 7997
  140.1060  144.4861  150.7007 H   0  0  0  0  0  0  0  0  0  0  0  0  # atno 10167 bound_to 10162
  157.0812  130.6388  149.5827 H   0  0  0  0  0  0  0  0  0  0  0  0  # atno 10718 bound_to 10713
  154.6707  135.5287  153.8135 H   0  0  0  0  0  0  0  0  0  0  0  0  # atno 10763 bound_to 10752
  153.0500  135.6528  154.0729 H   0  0  0  0  0  0  0  0  0  0  0  0  # atno 10764 bound_to 10752
  154.0628  135.2960  155.3302 H   0  0  0  0  0  0  0  0  0  0  0  0  # atno 10765 bound_to 10752
  140.5177  134.5740  157.5038 H   0  0  0  0  0  0  0  0  0  0  0  0  # atno 11005 bound_to 11000
  145.3660  139.1670  143.4358 LP  0  0  0  0  0  0  0  0  0  0  0  0  # atno 17320 bound_to 7965
  146.3094  140.3727  142.8676 LP  0  0  0  0  0  0  0  0  0  0  0  0  # atno 17321 bound_to 7965
  140.6952  143.2399  151.5021 LP  0  0  0  0  0  0  0  0  0  0  0  0  # atno 17342 bound_to 10162
  139.5645  144.2076  152.1743 LP  0  0  0  0  0  0  0  0  0  0  0  0  # atno 17343 bound_to 10162
  155.9923  130.4980  150.7334 LP  0  0  0  0  0  0  0  0  0  0  0  0  # atno 17370 bound_to 10713
  157.4798  131.0901  151.0549 LP  0  0  0  0  0  0  0  0  0  0  0  0  # atno 17371 bound_to 10713
  139.9623  134.7431  156.0211 LP  0  0  0  0  0  0  0  0  0  0  0  0  # atno 17394 bound_to 11000
  141.1351  133.6577  156.3572 LP  0  0  0  0  0  0  0  0  0  0  0  0  # atno 17395 bound_to 11000

$$$$
