AV-unprocessed.smi:1809|AV-procd|sdf|7312|dock5
  -GOLD-   22720 8573D 1   1.00000     0.00000
 Structure written by MMmdl.
 40 42  0  0  0  0  0  0  0  0  2 V2000
  150.9345  142.2794  156.2653 C   0  0  0  0  0  0  0  0  0  0  0  0
  150.4947  141.1512  155.3959 C   0  0  0  0  0  0  0  0  0  0  0  0
  151.3399  140.2252  154.9255 N   0  0  0  0  0  0  0  0  0  0  0  0
  150.7007  139.2769  154.1379 N   0  0  0  0  0  0  0  0  0  0  0  0
  149.3901  139.5143  154.0359 C   0  0  0  0  0  0  0  0  0  0  0  0
  148.6106  138.6257  153.2537 N   0  0  0  0  0  0  0  0  0  0  0  0
  147.2980  138.6998  152.9805 C   0  0  0  0  0  0  0  0  0  0  0  0
  146.5265  139.5573  153.4099 O   0  0  0  0  0  0  0  0  0  0  0  0
  146.9138  137.7049  152.1684 N   0  0  0  0  0  0  0  0  0  0  0  0
  145.5588  137.5160  151.6618 C   0  0  0  0  0  0  0  0  0  0  0  0
  145.0242  136.1036  151.9565 C   0  0  1  0  0  0  0  0  0  0  0  0
  144.7028  135.3375  150.6635 C   0  0  0  0  0  0  0  0  0  0  0  0
  144.2326  133.9580  150.9478 N   0  3  1  0  0  0  0  0  0  0  0  0
  144.2027  133.1160  149.7298 C   0  0  0  0  0  0  0  0  0  0  0  0
  145.4741  132.2471  149.7587 C   0  0  0  0  0  0  0  0  0  0  0  0
  146.2010  132.6220  151.0541 C   0  0  0  0  0  0  0  0  0  0  0  0
  145.0952  133.2374  151.9100 C   0  0  1  0  0  0  0  0  0  0  0  0
  145.5616  134.1127  153.0915 C   0  0  0  0  0  0  0  0  0  0  0  0
  146.0335  135.3755  152.6442 O   0  0  0  0  0  0  0  0  0  0  0  0
  148.8183  140.9372  154.9073 S   0  0  0  0  0  0  0  0  0  0  0  0
  151.9829  142.1654  156.5433 H   0  0  0  0  0  0  0  0  0  0  0  0
  150.3339  142.3057  157.1746 H   0  0  0  0  0  0  0  0  0  0  0  0
  150.8141  143.2254  155.7372 H   0  0  0  0  0  0  0  0  0  0  0  0
  149.1165  137.8566  152.8397 H   0  0  0  0  0  0  0  0  0  0  0  0
  147.6099  137.0383  151.8671 H   0  0  0  0  0  0  0  0  0  0  0  0
  144.8996  138.2686  152.0978 H   0  0  0  0  0  0  0  0  0  0  0  0
  145.5656  137.6984  150.5867 H   0  0  0  0  0  0  0  0  0  0  0  0
  144.1260  136.1762  152.5728 H   0  0  0  0  0  0  0  0  0  0  0  0
  143.9352  135.8623  150.0938 H   0  0  0  0  0  0  0  0  0  0  0  0
  145.5945  135.3012  150.0347 H   0  0  0  0  0  0  0  0  0  0  0  0
  143.3197  132.4774  149.7720 H   0  0  0  0  0  0  0  0  0  0  0  0
  144.1273  133.7085  148.8167 H   0  0  0  0  0  0  0  0  0  0  0  0
  145.2034  131.1907  149.7648 H   0  0  0  0  0  0  0  0  0  0  0  0
  146.1057  132.4189  148.8865 H   0  0  0  0  0  0  0  0  0  0  0  0
  146.6783  131.7664  151.5328 H   0  0  0  0  0  0  0  0  0  0  0  0
  146.9745  133.3624  150.8452 H   0  0  0  0  0  0  0  0  0  0  0  0
  144.5035  132.4138  152.3142 H   0  0  0  0  0  0  0  0  0  0  0  0
  144.7420  134.2649  153.7956 H   0  0  0  0  0  0  0  0  0  0  0  0
  146.3544  133.6089  153.6447 H   0  0  0  0  0  0  0  0  0  0  0  0
  143.3014  134.0291  151.3331 H   0  0  0  0  0  0  0  0  0  0  0  0
  1  2  1  0  0  0  0
  1 21  1  0  0  0  0
  1 22  1  0  0  0  0
  1 23  1  0  0  0  0
  2 20  1  0  0  0  0
  2  3  2  0  0  0  0
  3  4  1  0  0  0  0
  4  5  2  0  0  0  0
  5  6  1  0  0  0  0
  5 20  1  0  0  0  0
  6  7  1  0  0  0  0
  6 24  1  0  0  0  0
  7  8  2  0  0  0  0
  7  9  1  0  0  0  0
  9 10  1  0  0  0  0
  9 25  1  0  0  0  0
 10 11  1  0  0  0  0
 10 26  1  0  0  0  0
 10 27  1  0  0  0  0
 11 19  1  0  0  0  0
 11 12  1  0  0  0  0
 11 28  1  0  0  0  0
 12 13  1  0  0  0  0
 12 29  1  0  0  0  0
 12 30  1  0  0  0  0
 13 17  1  0  0  0  0
 13 14  1  0  0  0  0
 13 40  1  0  0  0  0
 14 15  1  0  0  0  0
 14 31  1  0  0  0  0
 14 32  1  0  0  0  0
 15 16  1  0  0  0  0
 15 33  1  0  0  0  0
 15 34  1  0  0  0  0
 16 17  1  0  0  0  0
 16 35  1  0  0  0  0
 16 36  1  0  0  0  0
 17 18  1  0  0  0  0
 17 37  1  0  0  0  0
 18 19  1  0  0  0  0
 18 38  1  0  0  0  0
 18 39  1  0  0  0  0
M  CHG  1  13   1
M  END
> <s_m_source_file>
AV-unprocessed.smi

> <i_m_source_file_index>
1809

> <i_lp_mmshare_version>
43012

> <i_f3d_flags>
0

> <s_epik_input>
W0NIM11jMW5uYyhzMSlbTkhdQyg9TylbTkhdW0NIMl1bQ0BIXShbQ0gyXTIpT1tDSDJdW0NAQEhdKE4yMylbQ0gyXVtDSDJdW0NIMl0z

> <s_epik_cmdline>
J2VwaWtfcHl0aG9uJywgJy1waCcsICc3LjAnLCAnLXRuJywgJzgnLCAnLW1hJywgJzIwMCcsICctbWV0YWxfYmluZGluZycsICctaW1hZScsICc8aW5maWxlLm1hZT4nLCAnLW9tYWUnLCAnPG91dGZpbGUubWFlPic=

> <r_lp_tautomer_probability>
1

> <r_epik_Ionization_Penalty>
0.112474

> <r_epik_Ionization_Penalty_Charging>
0.108916

> <r_epik_Ionization_Penalty_Neutral>
0.00355844

> <r_epik_State_Penalty>
0.0565397

> <r_epik_Charging_Adjusted_Penalty>
0.165456

> <i_epik_Tot_Q>
1

> <i_epik_Tot_abs_Q>
1

> <r_epik_Metal_State_Penalty>
0.422831

> <b_epik_Metal_Only>
0

> <s_lp_Force_Field>
OPLS_2005

> <r_lp_Energy>
33.5148

> <b_lp_Chiralities_Consistent>
1

> <s_lp_Variant>
AV-unprocessed.smi:1809-4

> <Gold.Version>
5.8.1

> <Gold.Id.Protein>
6NUR|6NUR_protein|mol2

> <Gold.PLP.Fitness>
38.5710

> <Gold.PLP.PLP>
-34.1747

> <Gold.PLP.part.hbond>
-4.9020

> <Gold.PLP.part.metal>
0.0000

> <Gold.PLP.part.buried>
-2.1400

> <Gold.PLP.part.nonpolar>
-29.0444

> <Gold.PLP.part.repulsive>
0.6291

> <Gold.PLP.ligand.clash>
0.0000

> <Gold.PLP.ligand.torsion>
0.7700

> <Gold.PLP.Chemscore.Hbond>
1.9780

> <Gold.PLP.Chemscore.CHOScore>
0.0000

> <Gold.PLP.Chemscore.Metal>
0.0000

> <Gold.Chemscore.Hbonds>
donor molecule, donor type, donor heavy atom, donor atom, acceptor molecule, acceptor atom, score
      L1  H     6    24       P1  7948  0.93
      L1  H     9    25       P1  7948  1.00
      P1  H  7989  7998       L1     3  0.10

> <Gold.PLP.Chemscore.Internal.Correction>
0.0023

> <Gold.Rescore>
     Score         DG    S(hbond)    S(metal)    S(lipo)     H(rot)  DE(clash)    DE(int)     intcor
     14.56     -17.31       1.90        0.00      76.15       1.34       1.28       1.47       ----

> <Gold.Chemscore.Fitness>
14.5636

> <Gold.Chemscore.DG>
-17.3148

> <Gold.Chemscore.ZeroCoef>
-5.4800

> <Gold.Chemscore.Hbond>
1.9023

> <Gold.Chemscore.Metal>
0.0000

> <Gold.Chemscore.Lipo>
76.1468

> <Gold.Chemscore.Internal_Hbond>
0.0000

> <Gold.Chemscore.DEClash>
1.2816

> <Gold.Chemscore.DEInternal>
1.4696

> <Gold.Chemscore.Rot>
1.3391

> <Gold.Chemscore.Internal.Correction>
   9.000000E+99

> <Gold.Chemscore.Hbonds>
donor molecule, donor type, donor heavy atom, donor atom, acceptor molecule, acceptor atom, score
      L1  H     6    24       P1  7948  0.89
      L1  H     9    25       P1  7948  0.94

> <Gold.Chemscore.Hbond.Weighted>
-6.3537

> <Gold.Chemscore.Metal.Weighted>
-0.0000

> <Gold.Chemscore.Lipo.Weighted>
-8.9092

> <Gold.Chemscore.Internal_Hbond.Weighted>
0.0000

> <Gold.Chemscore.DEClash.Weighted>
1.2816

> <Gold.Chemscore.DEInternal.Weighted>
1.4696

> <Gold.Chemscore.Rot.Weighted>
3.4281

> <Gold.Chemscore.Internal.Correction.Weighted>
   9.000000E+99

> <Gold.Protein.RotatedTorsions>
[ 6907 6896 6895 6894 ] final  161.86 input  -60.11 | X-H torsion
[ 7974 7965 7964 7962 ] final   34.69 input  175.53 | X-H torsion
[ 8008 7997 7996 7995 ] final  -45.59 input   59.86 | X-H torsion
[ 10167 10162 10161 10158 ] final   54.66 input  -65.29 | X-H torsion
[ 10718 10713 10712 10709 ] final  -55.20 input   66.30 | X-H torsion
[ 10763 10752 10751 10750 ] final  129.57 input  -60.55 | X-H torsion
[ 11005 11000 10999 10996 ] final   69.23 input  -57.11 | X-H torsion

> <Gold.Protein.ActiveResidues>
 VAL166  LYS551  ARG553  GLY616  TRP617  ASP618  TYR619  PRO620  LYS621  CYS622 
 ASP623  PHE694  ASN695  SER759  ASP760  ASP761  ALA762  ILE779  LEU786  VAL792 
 PHE793  MET794  SER795  GLU796  ALA797  LYS798  CYS799  TRP800  GLU811  SER814 

> <Gold.Protein.RotatedAtoms>
  151.9492  133.3661  159.3993 H   0  0  0  0  0  0  0  0  0  0  0  0  # atno 6907 bound_to 6896
  150.6984  134.4358  159.5278 H   0  0  0  0  0  0  0  0  0  0  0  0  # atno 6908 bound_to 6896
  152.2028  134.8572  160.0557 H   0  0  0  0  0  0  0  0  0  0  0  0  # atno 6909 bound_to 6896
  146.1335  139.6236  142.9211 H   0  0  0  0  0  0  0  0  0  0  0  0  # atno 7974 bound_to 7965
  154.4002  140.1393  156.3872 H   0  0  0  0  0  0  0  0  0  0  0  0  # atno 8008 bound_to 7997
  155.7949  140.3477  155.5349 H   0  0  0  0  0  0  0  0  0  0  0  0  # atno 8009 bound_to 7997
  155.8542  140.0946  157.1645 H   0  0  0  0  0  0  0  0  0  0  0  0  # atno 8010 bound_to 7997
  140.2277  144.3720  150.6426 H   0  0  0  0  0  0  0  0  0  0  0  0  # atno 10167 bound_to 10162
  156.1388  130.4155  150.0140 H   0  0  0  0  0  0  0  0  0  0  0  0  # atno 10718 bound_to 10713
  153.7439  135.3220  155.3309 H   0  0  0  0  0  0  0  0  0  0  0  0  # atno 10763 bound_to 10752
  154.8286  135.4551  154.0999 H   0  0  0  0  0  0  0  0  0  0  0  0  # atno 10764 bound_to 10752
  153.2182  135.6945  153.8114 H   0  0  0  0  0  0  0  0  0  0  0  0  # atno 10765 bound_to 10752
  139.9666  134.6971  156.0533 H   0  0  0  0  0  0  0  0  0  0  0  0  # atno 11005 bound_to 11000
  145.5208  141.0432  143.2436 LP  0  0  0  0  0  0  0  0  0  0  0  0  # atno 17320 bound_to 7965
  144.7715  139.6724  143.7193 LP  0  0  0  0  0  0  0  0  0  0  0  0  # atno 17321 bound_to 7965
  140.6208  143.2176  151.6698 LP  0  0  0  0  0  0  0  0  0  0  0  0  # atno 17342 bound_to 10162
  139.5121  144.3487  152.0672 LP  0  0  0  0  0  0  0  0  0  0  0  0  # atno 17343 bound_to 10162
  156.8031  130.9298  151.3645 LP  0  0  0  0  0  0  0  0  0  0  0  0  # atno 17370 bound_to 10713
  157.6556  130.8922  149.9723 LP  0  0  0  0  0  0  0  0  0  0  0  0  # atno 17371 bound_to 10713
  141.1345  133.6578  156.3556 LP  0  0  0  0  0  0  0  0  0  0  0  0  # atno 17394 bound_to 11000
  140.5384  134.6144  157.5372 LP  0  0  0  0  0  0  0  0  0  0  0  0  # atno 17395 bound_to 11000

$$$$
