AV-unprocessed.smi:2504|AV-procd|sdf|9851|dock10
  -GOLD-   2272013483D 1   1.00000     0.00000
 Structure written by MMmdl.
 45 47  0  0  0  0  0  0  0  0  2 V2000
  150.1974  142.4962  159.4051 O   0  0  0  0  0  0  0  0  0  0  0  0
  150.9488  142.7699  158.4679 C   0  0  0  0  0  0  0  0  0  0  0  0
  152.2448  143.5827  158.6924 C   0  0  0  0  0  0  0  0  0  0  0  0
  152.8875  143.3595  160.0722 C   0  0  0  0  0  0  0  0  0  0  0  0
  152.1903  144.3410  161.0239 C   0  0  0  0  0  0  0  0  0  0  0  0
  151.5968  145.4479  160.1390 C   0  0  0  0  0  0  0  0  0  0  0  0
  151.9803  145.0963  158.6955 C   0  0  0  0  0  0  0  0  0  0  0  0
  150.7011  142.2922  157.1773 N   0  0  0  0  0  0  0  0  0  0  0  0
  151.7720  141.8195  156.3119 C   0  0  0  0  0  0  0  0  0  0  0  0
  150.7107  140.9089  155.6844 C   0  0  0  0  0  0  0  0  0  0  0  0
  151.3116  139.1797  155.4255 S   0  0  0  0  0  0  0  0  0  0  0  0
  150.9275  138.8189  154.0514 O   0  0  0  0  0  0  0  0  0  0  0  0
  152.7531  139.1871  155.7274 O   0  0  0  0  0  0  0  0  0  0  0  0
  150.4239  138.3939  156.5335 N   0  5  0  0  0  0  0  0  0  0  0  0
  149.8669  137.0875  156.2187 C   0  0  0  0  0  0  0  0  0  0  0  0
  150.9956  136.0637  155.9540 C   0  0  0  0  0  0  0  0  0  0  0  0
  150.5256  134.6612  155.5818 C   0  0  0  0  0  0  0  0  0  0  0  0
  150.9582  133.5267  156.3031 C   0  0  0  0  0  0  0  0  0  0  0  0
  150.4846  132.2566  155.9221 C   0  0  0  0  0  0  0  0  0  0  0  0
  149.5990  132.1716  154.8293 C   0  0  0  0  0  0  0  0  0  0  0  0
  149.1869  133.2452  154.1223 N   0  0  0  0  0  0  0  0  0  0  0  0
  149.6436  134.4595  154.4963 C   0  0  0  0  0  0  0  0  0  0  0  0
  149.8718  141.1172  156.9543 C   0  0  0  0  0  0  0  0  0  0  0  0
  152.9591  143.3158  157.9134 H   0  0  0  0  0  0  0  0  0  0  0  0
  152.8304  142.3285  160.4245 H   0  0  0  0  0  0  0  0  0  0  0  0
  153.9478  143.6085  160.0119 H   0  0  0  0  0  0  0  0  0  0  0  0
  151.3916  143.8354  161.5686 H   0  0  0  0  0  0  0  0  0  0  0  0
  152.8868  144.7387  161.7626 H   0  0  0  0  0  0  0  0  0  0  0  0
  150.5112  145.4598  160.2451 H   0  0  0  0  0  0  0  0  0  0  0  0
  151.9625  146.4362  160.4190 H   0  0  0  0  0  0  0  0  0  0  0  0
  152.8979  145.6196  158.4235 H   0  0  0  0  0  0  0  0  0  0  0  0
  151.2150  145.4101  157.9842 H   0  0  0  0  0  0  0  0  0  0  0  0
  152.1724  142.5786  155.6397 H   0  0  0  0  0  0  0  0  0  0  0  0
  152.5527  141.2700  156.8418 H   0  0  0  0  0  0  0  0  0  0  0  0
  150.2686  141.3255  154.7781 H   0  0  0  0  0  0  0  0  0  0  0  0
  149.2574  136.7190  157.0444 H   0  0  0  0  0  0  0  0  0  0  0  0
  149.1988  137.1156  155.3570 H   0  0  0  0  0  0  0  0  0  0  0  0
  151.6512  136.4364  155.1657 H   0  0  0  0  0  0  0  0  0  0  0  0
  151.6205  135.9858  156.8444 H   0  0  0  0  0  0  0  0  0  0  0  0
  151.6339  133.6290  157.1396 H   0  0  0  0  0  0  0  0  0  0  0  0
  150.7887  131.3695  156.4572 H   0  0  0  0  0  0  0  0  0  0  0  0
  149.2150  131.2137  154.5113 H   0  0  0  0  0  0  0  0  0  0  0  0
  149.2864  135.2984  153.9169 H   0  0  0  0  0  0  0  0  0  0  0  0
  149.9994  140.3495  157.7190 H   0  0  0  0  0  0  0  0  0  0  0  0
  148.8223  141.3461  156.7683 H   0  0  0  0  0  0  0  0  0  0  0  0
  1  2  2  0  0  0  0
  2  3  1  0  0  0  0
  2  8  1  0  0  0  0
  3  7  1  0  0  0  0
  3  4  1  0  0  0  0
  3 24  1  0  0  0  0
  4  5  1  0  0  0  0
  4 25  1  0  0  0  0
  4 26  1  0  0  0  0
  5  6  1  0  0  0  0
  5 27  1  0  0  0  0
  5 28  1  0  0  0  0
  6  7  1  0  0  0  0
  6 29  1  0  0  0  0
  6 30  1  0  0  0  0
  7 31  1  0  0  0  0
  7 32  1  0  0  0  0
  8 23  1  0  0  0  0
  8  9  1  0  0  0  0
  9 10  1  0  0  0  0
  9 33  1  0  0  0  0
  9 34  1  0  0  0  0
 10 11  1  0  0  0  0
 10 23  1  0  0  0  0
 10 35  1  0  0  0  0
 11 12  2  0  0  0  0
 11 13  2  0  0  0  0
 11 14  1  0  0  0  0
 14 15  1  0  0  0  0
 15 16  1  0  0  0  0
 15 36  1  0  0  0  0
 15 37  1  0  0  0  0
 16 17  1  0  0  0  0
 16 38  1  0  0  0  0
 16 39  1  0  0  0  0
 17 22  1  0  0  0  0
 17 18  2  0  0  0  0
 18 19  1  0  0  0  0
 18 40  1  0  0  0  0
 19 20  2  0  0  0  0
 19 41  1  0  0  0  0
 20 21  1  0  0  0  0
 20 42  1  0  0  0  0
 21 22  2  0  0  0  0
 22 43  1  0  0  0  0
 23 44  1  0  0  0  0
 23 45  1  0  0  0  0
M  CHG  1  14  -1
M  END
> <s_m_source_file>
AV-unprocessed.smi

> <i_m_source_file_index>
2504

> <i_lp_mmshare_version>
43012

> <i_f3d_flags>
0

> <s_epik_input>
W0NIMl0xW0NIMl1bQ0gyXVtDSDJdW0NIXTFDKD1PKU4yW0NIMl1bQ0hdKFtDSDJdMilTKD1PKSg9TylbTkhdW0NIMl1bQ0gyXWMzW2NIXVtjSF1bY0hdbltjSF0z

> <s_epik_cmdline>
J2VwaWtfcHl0aG9uJywgJy1waCcsICc3LjAnLCAnLXRuJywgJzgnLCAnLW1hJywgJzIwMCcsICctbWV0YWxfYmluZGluZycsICctaW1hZScsICc8aW5maWxlLm1hZT4nLCAnLW9tYWUnLCAnPG91dGZpbGUubWFlPic=

> <r_epik_Ionization_Penalty>
5.82897

> <r_epik_Ionization_Penalty_Charging>
5.8024

> <r_epik_Ionization_Penalty_Neutral>
0.0265674

> <r_epik_State_Penalty>
5.81059

> <r_epik_Charging_Adjusted_Penalty>
11.613

> <i_epik_Tot_Q>
-1

> <i_epik_Tot_abs_Q>
1

> <r_epik_Metal_State_Penalty>
1.79017

> <b_epik_Metal_Only>
1

> <s_lp_Force_Field>
OPLS_2005

> <r_lp_Energy>
30.9789

> <b_lp_Chiralities_Consistent>
1

> <s_lp_Variant>
AV-unprocessed.smi:2504-3

> <Gold.Version>
5.8.1

> <Gold.Id.Protein>
6NUR|6NUR_protein|mol2

> <Gold.PLP.Fitness>
48.6064

> <Gold.PLP.PLP>
-43.5831

> <Gold.PLP.part.hbond>
-2.5838

> <Gold.PLP.part.metal>
0.0000

> <Gold.PLP.part.buried>
-5.1344

> <Gold.PLP.part.nonpolar>
-35.7420

> <Gold.PLP.part.repulsive>
0.3804

> <Gold.PLP.ligand.clash>
0.0000

> <Gold.PLP.ligand.torsion>
2.0317

> <Gold.PLP.Chemscore.Hbond>
1.1877

> <Gold.PLP.Chemscore.CHOScore>
1.0000

> <Gold.PLP.Chemscore.Metal>
0.0000

> <Gold.Chemscore.Hbonds>
donor molecule, donor type, donor heavy atom, donor atom, acceptor molecule, acceptor atom, score
      P1  H  7989  7998       L1    12  0.18
      P1  H  7997  8009       L1    13  1.00
      L1  C    22    43       P1  7948  1.00

> <Gold.PLP.Chemscore.Internal.Correction>
2.5236

> <Gold.Rescore>
     Score         DG    S(hbond)    S(metal)    S(lipo)     H(rot)  DE(clash)    DE(int)     intcor
     14.82     -18.23       1.01        0.00     115.32       1.61       1.55       1.86       ----

> <Gold.Chemscore.Fitness>
14.8202

> <Gold.Chemscore.DG>
-18.2345

> <Gold.Chemscore.ZeroCoef>
-5.4800

> <Gold.Chemscore.Hbond>
1.0139

> <Gold.Chemscore.Metal>
0.0000

> <Gold.Chemscore.Lipo>
115.3184

> <Gold.Chemscore.Internal_Hbond>
0.0000

> <Gold.Chemscore.DEClash>
1.5531

> <Gold.Chemscore.DEInternal>
1.8612

> <Gold.Chemscore.Rot>
1.6110

> <Gold.Chemscore.Internal.Correction>
   9.000000E+99

> <Gold.Chemscore.Hbonds>
donor molecule, donor type, donor heavy atom, donor atom, acceptor molecule, acceptor atom, score
      P1  H  7997  8009       L1    13  0.92

> <Gold.Chemscore.Hbond.Weighted>
-3.3865

> <Gold.Chemscore.Metal.Weighted>
-0.0000

> <Gold.Chemscore.Lipo.Weighted>
-13.4923

> <Gold.Chemscore.Internal_Hbond.Weighted>
0.0000

> <Gold.Chemscore.DEClash.Weighted>
1.5531

> <Gold.Chemscore.DEInternal.Weighted>
1.8612

> <Gold.Chemscore.Rot.Weighted>
4.1243

> <Gold.Chemscore.Internal.Correction.Weighted>
   9.000000E+99

> <Gold.Protein.RotatedTorsions>
[ 6907 6896 6895 6894 ] final   47.65 input  -60.11 | X-H torsion
[ 7974 7965 7964 7962 ] final   -3.10 input  175.53 | X-H torsion
[ 8008 7997 7996 7995 ] final -173.08 input   59.86 | X-H torsion
[ 10167 10162 10161 10158 ] final  -18.33 input  -65.29 | X-H torsion
[ 10718 10713 10712 10709 ] final  -96.62 input   66.30 | X-H torsion
[ 10763 10752 10751 10750 ] final   21.47 input  -60.55 | X-H torsion
[ 11005 11000 10999 10996 ] final -101.06 input  -57.11 | X-H torsion

> <Gold.Protein.ActiveResidues>
 VAL166  LYS551  ARG553  GLY616  TRP617  ASP618  TYR619  PRO620  LYS621  CYS622 
 ASP623  PHE694  ASN695  SER759  ASP760  ASP761  ALA762  ILE779  LEU786  VAL792 
 PHE793  MET794  SER795  GLU796  ALA797  LYS798  CYS799  TRP800  GLU811  SER814 

> <Gold.Protein.RotatedAtoms>
  152.2705  134.7937  160.0414 H   0  0  0  0  0  0  0  0  0  0  0  0  # atno 6907 bound_to 6896
  151.8552  133.3442  159.3694 H   0  0  0  0  0  0  0  0  0  0  0  0  # atno 6908 bound_to 6896
  150.7150  134.5188  159.5688 H   0  0  0  0  0  0  0  0  0  0  0  0  # atno 6909 bound_to 6896
  146.2395  140.1671  142.8332 H   0  0  0  0  0  0  0  0  0  0  0  0  # atno 7974 bound_to 7965
  155.9528  140.1129  157.0962 H   0  0  0  0  0  0  0  0  0  0  0  0  # atno 8008 bound_to 7997
  154.4113  140.1197  156.5142 H   0  0  0  0  0  0  0  0  0  0  0  0  # atno 8009 bound_to 7997
  155.6820  140.3473  155.4861 H   0  0  0  0  0  0  0  0  0  0  0  0  # atno 8010 bound_to 7997
  140.7257  143.4927  150.9970 H   0  0  0  0  0  0  0  0  0  0  0  0  # atno 10167 bound_to 10162
  156.0066  130.5159  150.6252 H   0  0  0  0  0  0  0  0  0  0  0  0  # atno 10718 bound_to 10713
  153.0993  135.6668  153.9704 H   0  0  0  0  0  0  0  0  0  0  0  0  # atno 10763 bound_to 10752
  153.9279  135.3007  155.3448 H   0  0  0  0  0  0  0  0  0  0  0  0  # atno 10764 bound_to 10752
  154.7413  135.5078  153.9202 H   0  0  0  0  0  0  0  0  0  0  0  0  # atno 10765 bound_to 10752
  141.1246  133.8448  157.1183 H   0  0  0  0  0  0  0  0  0  0  0  0  # atno 11005 bound_to 11000
  145.0042  140.8658  143.5263 LP  0  0  0  0  0  0  0  0  0  0  0  0  # atno 17320 bound_to 7965
  145.1695  139.2412  143.5349 LP  0  0  0  0  0  0  0  0  0  0  0  0  # atno 17321 bound_to 7965
  139.8633  143.7287  152.3172 LP  0  0  0  0  0  0  0  0  0  0  0  0  # atno 17342 bound_to 10162
  139.7510  144.7534  151.0507 LP  0  0  0  0  0  0  0  0  0  0  0  0  # atno 17343 bound_to 10162
  157.4060  131.0817  151.1264 LP  0  0  0  0  0  0  0  0  0  0  0  0  # atno 17370 bound_to 10713
  157.1911  130.6352  149.5705 LP  0  0  0  0  0  0  0  0  0  0  0  0  # atno 17371 bound_to 10713
  140.0232  134.9936  157.0634 LP  0  0  0  0  0  0  0  0  0  0  0  0  # atno 17394 bound_to 11000
  140.4405  134.1686  155.7173 LP  0  0  0  0  0  0  0  0  0  0  0  0  # atno 17395 bound_to 11000

$$$$
