AV-unprocessed.smi:2898|AV-procd|sdf|11142|dock7
  -GOLD-   2272016 23D 1   1.00000     0.00000
 Structure written by MMmdl.
 44 45  0  0  0  0  0  0  0  0  1 V2000
  149.6271  138.8496  154.1321 C   0  0  0  0  0  0  0  0  0  0  0  0
  150.7371  139.0963  155.1137 C   0  0  0  0  0  0  0  0  0  0  0  0
  151.9593  139.3319  154.6692 N   0  0  0  0  0  0  0  0  0  0  0  0
  152.7472  139.5258  155.8065 O   0  0  0  0  0  0  0  0  0  0  0  0
  151.9600  139.3996  156.9051 C   0  0  0  0  0  0  0  0  0  0  0  0
  152.6396  139.5836  158.2209 C   0  0  0  0  0  0  0  0  0  0  0  0
  150.6695  139.1195  156.5372 C   0  0  0  0  0  0  0  0  0  0  0  0
  149.4400  138.8957  157.3878 C   0  0  1  0  0  0  0  0  0  0  0  0
  148.4081  140.0222  157.1965 C   0  0  0  0  0  0  0  0  0  0  0  0
  148.8503  137.4935  157.1249 C   0  0  0  0  0  0  0  0  0  0  0  0
  148.0990  136.9816  158.2659 N   0  0  0  0  0  0  0  0  0  0  0  0
  148.3254  135.8073  158.8793 C   0  0  0  0  0  0  0  0  0  0  0  0
  149.2021  135.0274  158.5028 O   0  0  0  0  0  0  0  0  0  0  0  0
  147.4483  135.4493  160.1006 C   0  0  0  0  0  0  0  0  0  0  0  0
  146.0121  135.4483  159.7499 C   0  0  0  0  0  0  0  0  0  0  0  0
  144.8873  135.4475  159.4754 N   0  0  0  0  0  0  0  0  0  0  0  0
  147.8509  134.0469  160.6232 C   0  0  0  0  0  0  0  0  0  0  0  0
  147.1047  133.6699  161.9155 C   0  0  0  0  0  0  0  0  0  0  0  0
  147.3329  134.7223  163.0108 C   0  0  0  0  0  0  0  0  0  0  0  0
  146.9522  136.1285  162.5236 C   0  0  0  0  0  0  0  0  0  0  0  0
  147.7002  136.4843  161.2265 C   0  0  0  0  0  0  0  0  0  0  0  0
  148.8071  139.5507  154.2892 H   0  0  0  0  0  0  0  0  0  0  0  0
  149.2274  137.8416  154.2426 H   0  0  0  0  0  0  0  0  0  0  0  0
  149.9641  138.9609  153.1009 H   0  0  0  0  0  0  0  0  0  0  0  0
  151.9928  140.1012  158.9284 H   0  0  0  0  0  0  0  0  0  0  0  0
  153.5502  140.1728  158.1108 H   0  0  0  0  0  0  0  0  0  0  0  0
  152.9114  138.6205  158.6523 H   0  0  0  0  0  0  0  0  0  0  0  0
  149.7333  138.9297  158.4375 H   0  0  0  0  0  0  0  0  0  0  0  0
  148.8559  140.9972  157.3904 H   0  0  0  0  0  0  0  0  0  0  0  0
  147.5671  139.9126  157.8814 H   0  0  0  0  0  0  0  0  0  0  0  0
  148.0047  140.0357  156.1846 H   0  0  0  0  0  0  0  0  0  0  0  0
  148.1795  137.5193  156.2664 H   0  0  0  0  0  0  0  0  0  0  0  0
  149.6455  136.7910  156.8690 H   0  0  0  0  0  0  0  0  0  0  0  0
  147.3623  137.5715  158.6260 H   0  0  0  0  0  0  0  0  0  0  0  0
  147.6495  133.2935  159.8603 H   0  0  0  0  0  0  0  0  0  0  0  0
  148.9244  134.0045  160.8155 H   0  0  0  0  0  0  0  0  0  0  0  0
  146.0370  133.5734  161.7157 H   0  0  0  0  0  0  0  0  0  0  0  0
  147.4396  132.6930  162.2651 H   0  0  0  0  0  0  0  0  0  0  0  0
  146.7548  134.4666  163.8993 H   0  0  0  0  0  0  0  0  0  0  0  0
  148.3814  134.7124  163.3110 H   0  0  0  0  0  0  0  0  0  0  0  0
  145.8753  136.1825  162.3613 H   0  0  0  0  0  0  0  0  0  0  0  0
  147.1820  136.8622  163.2966 H   0  0  0  0  0  0  0  0  0  0  0  0
  148.7664  136.5552  161.4484 H   0  0  0  0  0  0  0  0  0  0  0  0
  147.3932  137.4774  160.8951 H   0  0  0  0  0  0  0  0  0  0  0  0
  1  2  1  0  0  0  0
  1 22  1  0  0  0  0
  1 23  1  0  0  0  0
  1 24  1  0  0  0  0
  2  7  1  0  0  0  0
  2  3  2  0  0  0  0
  3  4  1  0  0  0  0
  4  5  1  0  0  0  0
  5  6  1  0  0  0  0
  5  7  2  0  0  0  0
  6 25  1  0  0  0  0
  6 26  1  0  0  0  0
  6 27  1  0  0  0  0
  7  8  1  0  0  0  0
  8  9  1  0  0  0  0
  8 10  1  0  0  0  0
  8 28  1  0  0  0  0
  9 29  1  0  0  0  0
  9 30  1  0  0  0  0
  9 31  1  0  0  0  0
 10 11  1  0  0  0  0
 10 32  1  0  0  0  0
 10 33  1  0  0  0  0
 11 12  1  0  0  0  0
 11 34  1  0  0  0  0
 12 13  2  0  0  0  0
 12 14  1  0  0  0  0
 14 21  1  0  0  0  0
 14 15  1  0  0  0  0
 14 17  1  0  0  0  0
 15 16  3  0  0  0  0
 17 18  1  0  0  0  0
 17 35  1  0  0  0  0
 17 36  1  0  0  0  0
 18 19  1  0  0  0  0
 18 37  1  0  0  0  0
 18 38  1  0  0  0  0
 19 20  1  0  0  0  0
 19 39  1  0  0  0  0
 19 40  1  0  0  0  0
 20 21  1  0  0  0  0
 20 41  1  0  0  0  0
 20 42  1  0  0  0  0
 21 43  1  0  0  0  0
 21 44  1  0  0  0  0
M  END
> <s_m_source_file>
AV-unprocessed.smi

> <i_m_source_file_index>
2898

> <i_lp_mmshare_version>
43012

> <i_f3d_flags>
0

> <s_epik_input>
W0NIM11jMW5vYyhbQ0gzXSljMVtDQEhdKFtDSDNdKVtDSDJdW05IXUMoPU8pQzIoQyNOKVtDSDJdW0NIMl1bQ0gyXVtDSDJdW0NIMl0y

> <s_epik_cmdline>
J2VwaWtfcHl0aG9uJywgJy1waCcsICc3LjAnLCAnLXRuJywgJzgnLCAnLW1hJywgJzIwMCcsICctbWV0YWxfYmluZGluZycsICctaW1hZScsICc8aW5maWxlLm1hZT4nLCAnLW9tYWUnLCAnPG91dGZpbGUubWFlPic=

> <r_lp_tautomer_probability>
1

> <r_epik_Ionization_Penalty>
4.33734e-07

> <r_epik_Ionization_Penalty_Charging>
0

> <r_epik_Ionization_Penalty_Neutral>
4.33734e-07

> <r_epik_State_Penalty>
-0

> <r_epik_Charging_Adjusted_Penalty>
0

> <i_epik_Tot_Q>
0

> <i_epik_Tot_abs_Q>
0

> <r_epik_Metal_State_Penalty>
-0

> <b_epik_Metal_Only>
0

> <s_lp_Force_Field>
OPLS_2005

> <r_lp_Energy>
8.6026

> <b_lp_Chiralities_Consistent>
1

> <s_lp_Variant>
AV-unprocessed.smi:2898-2

> <Gold.Version>
5.8.1

> <Gold.Id.Protein>
6NUR|6NUR_protein|mol2

> <Gold.PLP.Fitness>
39.6782

> <Gold.PLP.PLP>
-31.4847

> <Gold.PLP.part.hbond>
-3.0000

> <Gold.PLP.part.metal>
0.0000

> <Gold.PLP.part.buried>
-2.9575

> <Gold.PLP.part.nonpolar>
-25.3875

> <Gold.PLP.part.repulsive>
0.1456

> <Gold.PLP.ligand.clash>
0.0000

> <Gold.PLP.ligand.torsion>
0.3233

> <Gold.PLP.Chemscore.Hbond>
2.9280

> <Gold.PLP.Chemscore.CHOScore>
0.0000

> <Gold.PLP.Chemscore.Metal>
0.0000

> <Gold.Chemscore.Hbonds>
donor molecule, donor type, donor heavy atom, donor atom, acceptor molecule, acceptor atom, score
      P1  H  6896  6909       L1    13  1.00
      P1  H  7989  7998       L1     3  0.94
      P1  H  7997  8010       L1     4  1.00

> <Gold.PLP.Chemscore.Internal.Correction>
0.0561

> <Gold.Rescore>
     Score         DG    S(hbond)    S(metal)    S(lipo)     H(rot)  DE(clash)    DE(int)     intcor
     20.17     -20.44       2.83        0.00      80.40       1.52       0.01       0.27       ----

> <Gold.Chemscore.Fitness>
20.1652

> <Gold.Chemscore.DG>
-20.4378

> <Gold.Chemscore.ZeroCoef>
-5.4800

> <Gold.Chemscore.Hbond>
2.8303

> <Gold.Chemscore.Metal>
0.0000

> <Gold.Chemscore.Lipo>
80.4002

> <Gold.Chemscore.Internal_Hbond>
0.0000

> <Gold.Chemscore.DEClash>
0.0050

> <Gold.Chemscore.DEInternal>
0.2676

> <Gold.Chemscore.Rot>
1.5243

> <Gold.Chemscore.Internal.Correction>
   9.000000E+99

> <Gold.Chemscore.Hbonds>
donor molecule, donor type, donor heavy atom, donor atom, acceptor molecule, acceptor atom, score
      P1  H  6896  6909       L1    13  1.00
      P1  H  7989  7998       L1     3  0.30
      P1  H  7997  8010       L1     4  0.93

> <Gold.Chemscore.Hbond.Weighted>
-9.4532

> <Gold.Chemscore.Metal.Weighted>
-0.0000

> <Gold.Chemscore.Lipo.Weighted>
-9.4068

> <Gold.Chemscore.Internal_Hbond.Weighted>
0.0000

> <Gold.Chemscore.DEClash.Weighted>
0.0050

> <Gold.Chemscore.DEInternal.Weighted>
0.2676

> <Gold.Chemscore.Rot.Weighted>
3.9022

> <Gold.Chemscore.Internal.Correction.Weighted>
   9.000000E+99

> <Gold.Protein.RotatedTorsions>
[ 6907 6896 6895 6894 ] final   29.76 input  -60.11 | X-H torsion
[ 7974 7965 7964 7962 ] final  115.59 input  175.53 | X-H torsion
[ 8008 7997 7996 7995 ] final   92.24 input   59.86 | X-H torsion
[ 10167 10162 10161 10158 ] final   33.41 input  -65.29 | X-H torsion
[ 10718 10713 10712 10709 ] final  -97.53 input   66.30 | X-H torsion
[ 10763 10752 10751 10750 ] final -134.19 input  -60.55 | X-H torsion
[ 11005 11000 10999 10996 ] final   70.31 input  -57.11 | X-H torsion

> <Gold.Protein.ActiveResidues>
 VAL166  LYS551  ARG553  GLY616  TRP617  ASP618  TYR619  PRO620  LYS621  CYS622 
 ASP623  PHE694  ASN695  SER759  ASP760  ASP761  ALA762  ILE779  LEU786  VAL792 
 PHE793  MET794  SER795  GLU796  ALA797  LYS798  CYS799  TRP800  GLU811  SER814 

> <Gold.Protein.RotatedAtoms>
  152.0362  134.9739  160.0573 H   0  0  0  0  0  0  0  0  0  0  0  0  # atno 6907 bound_to 6896
  152.1196  133.4341  159.4677 H   0  0  0  0  0  0  0  0  0  0  0  0  # atno 6908 bound_to 6896
  150.6848  134.2470  159.4538 H   0  0  0  0  0  0  0  0  0  0  0  0  # atno 6909 bound_to 6896
  145.1901  139.3004  143.4372 H   0  0  0  0  0  0  0  0  0  0  0  0  # atno 7974 bound_to 7965
  156.0331  140.3328  155.7161 H   0  0  0  0  0  0  0  0  0  0  0  0  # atno 8008 bound_to 7997
  155.5856  140.0641  157.2789 H   0  0  0  0  0  0  0  0  0  0  0  0  # atno 8009 bound_to 7997
  154.4361  140.1836  156.1009 H   0  0  0  0  0  0  0  0  0  0  0  0  # atno 8010 bound_to 7997
  140.4410  144.1188  150.6174 H   0  0  0  0  0  0  0  0  0  0  0  0  # atno 10167 bound_to 10162
  156.0086  130.5198  150.6388 H   0  0  0  0  0  0  0  0  0  0  0  0  # atno 10718 bound_to 10713
  154.8722  135.3742  154.4695 H   0  0  0  0  0  0  0  0  0  0  0  0  # atno 10763 bound_to 10752
  153.5357  135.7027  153.5666 H   0  0  0  0  0  0  0  0  0  0  0  0  # atno 10764 bound_to 10752
  153.3851  135.3986  155.1849 H   0  0  0  0  0  0  0  0  0  0  0  0  # atno 10765 bound_to 10752
  139.9605  134.7069  156.0657 H   0  0  0  0  0  0  0  0  0  0  0  0  # atno 11005 bound_to 11000
  146.3437  140.2111  142.8590 LP  0  0  0  0  0  0  0  0  0  0  0  0  # atno 17320 bound_to 7965
  145.0049  140.8664  143.5259 LP  0  0  0  0  0  0  0  0  0  0  0  0  # atno 17321 bound_to 7965
  140.4318  143.2564  151.9585 LP  0  0  0  0  0  0  0  0  0  0  0  0  # atno 17342 bound_to 10162
  139.4789  144.5736  151.8048 LP  0  0  0  0  0  0  0  0  0  0  0  0  # atno 17343 bound_to 10162
  157.4172  131.0832  151.1165 LP  0  0  0  0  0  0  0  0  0  0  0  0  # atno 17370 bound_to 10713
  157.1778  130.6296  149.5662 LP  0  0  0  0  0  0  0  0  0  0  0  0  # atno 17371 bound_to 10713
  141.1281  133.6593  156.3392 LP  0  0  0  0  0  0  0  0  0  0  0  0  # atno 17394 bound_to 11000
  140.5511  134.6026  157.5408 LP  0  0  0  0  0  0  0  0  0  0  0  0  # atno 17395 bound_to 11000

$$$$
