AV-unprocessed.smi:1539|AV-procd|sdf|6197|dock8
  -GOLD-   22720 6363D 1   1.00000     0.00000
 Structure written by MMmdl.
 41 42  0  0  0  0  0  0  0  0  1 V2000
  147.3986  142.1711  157.8790 C   0  0  0  0  0  0  0  0  0  0  0  0
  146.7603  140.9285  157.2536 C   0  0  0  0  0  0  0  0  0  0  0  0
  146.7852  139.8777  157.8950 O   0  0  0  0  0  0  0  0  0  0  0  0
  146.2039  141.0179  156.0203 N   0  0  0  0  0  0  0  0  0  0  0  0
  145.6354  139.8412  155.3459 C   0  0  0  0  0  0  0  0  0  0  0  0
  146.7167  139.0594  154.5696 C   0  0  0  0  0  0  0  0  0  0  0  0
  147.4457  139.9070  153.5032 C   0  0  0  0  0  0  0  0  0  0  0  0
  148.1599  141.0472  154.1097 N   0  0  0  0  0  0  0  0  0  0  0  0
  149.4078  140.9888  154.6445 C   0  0  0  0  0  0  0  0  0  0  0  0
  150.2217  140.1061  154.3684 O   0  0  0  0  0  0  0  0  0  0  0  0
  149.7041  141.9914  155.4897 N   0  0  0  0  0  0  0  0  0  0  0  0
  150.9818  142.1665  156.1692 C   0  0  0  0  0  0  0  0  0  0  0  0
  150.8589  141.8837  157.6749 C   0  0  0  0  0  0  0  0  0  0  0  0
  151.4745  142.9311  158.4636 N   0  0  0  0  0  0  0  0  0  0  0  0
  151.3262  144.3013  158.2961 C   0  0  0  0  0  0  0  0  0  0  0  0
  152.0921  144.9012  159.2701 C   0  0  0  0  0  0  0  0  0  0  0  0
  152.7152  143.9250  160.0443 N   0  0  0  0  0  0  0  0  0  0  0  0
  152.3021  142.7841  159.5071 C   0  0  0  0  0  0  0  0  0  0  0  0
  147.3579  142.2838  154.1546 C   0  0  0  0  0  0  0  0  0  0  0  0
  146.2046  142.2382  155.1938 C   0  0  0  0  0  0  0  0  0  0  0  0
  148.1361  142.6124  157.2086 H   0  0  0  0  0  0  0  0  0  0  0  0
  147.9082  141.9139  158.8082 H   0  0  0  0  0  0  0  0  0  0  0  0
  146.6389  142.9179  158.1102 H   0  0  0  0  0  0  0  0  0  0  0  0
  145.1476  139.1818  156.0659 H   0  0  0  0  0  0  0  0  0  0  0  0
  144.8437  140.1414  154.6587 H   0  0  0  0  0  0  0  0  0  0  0  0
  147.4402  138.6417  155.2707 H   0  0  0  0  0  0  0  0  0  0  0  0
  146.2489  138.2039  154.0820 H   0  0  0  0  0  0  0  0  0  0  0  0
  148.1266  139.2812  152.9246 H   0  0  0  0  0  0  0  0  0  0  0  0
  146.7167  140.2661  152.7757 H   0  0  0  0  0  0  0  0  0  0  0  0
  148.9945  142.6886  155.6629 H   0  0  0  0  0  0  0  0  0  0  0  0
  151.7385  141.5224  155.7175 H   0  0  0  0  0  0  0  0  0  0  0  0
  151.3133  143.1928  156.0080 H   0  0  0  0  0  0  0  0  0  0  0  0
  149.8104  141.8006  157.9645 H   0  0  0  0  0  0  0  0  0  0  0  0
  151.3353  140.9361  157.9304 H   0  0  0  0  0  0  0  0  0  0  0  0
  150.7051  144.7236  157.5198 H   0  0  0  0  0  0  0  0  0  0  0  0
  152.2406  145.9519  159.4723 H   0  0  0  0  0  0  0  0  0  0  0  0
  152.6073  141.8184  159.8833 H   0  0  0  0  0  0  0  0  0  0  0  0
  147.9788  143.1569  154.3601 H   0  0  0  0  0  0  0  0  0  0  0  0
  146.9473  142.4794  153.1631 H   0  0  0  0  0  0  0  0  0  0  0  0
  145.2539  142.3046  154.6631 H   0  0  0  0  0  0  0  0  0  0  0  0
  146.2196  143.1426  155.8015 H   0  0  0  0  0  0  0  0  0  0  0  0
  1  2  1  0  0  0  0
  1 21  1  0  0  0  0
  1 22  1  0  0  0  0
  1 23  1  0  0  0  0
  2  3  2  0  0  0  0
  2  4  1  0  0  0  0
  4 20  1  0  0  0  0
  4  5  1  0  0  0  0
  5  6  1  0  0  0  0
  5 24  1  0  0  0  0
  5 25  1  0  0  0  0
  6  7  1  0  0  0  0
  6 26  1  0  0  0  0
  6 27  1  0  0  0  0
  7  8  1  0  0  0  0
  7 28  1  0  0  0  0
  7 29  1  0  0  0  0
  8  9  1  0  0  0  0
  8 19  1  0  0  0  0
  9 10  2  0  0  0  0
  9 11  1  0  0  0  0
 11 12  1  0  0  0  0
 11 30  1  0  0  0  0
 12 13  1  0  0  0  0
 12 31  1  0  0  0  0
 12 32  1  0  0  0  0
 13 14  1  0  0  0  0
 13 33  1  0  0  0  0
 13 34  1  0  0  0  0
 14 18  1  0  0  0  0
 14 15  1  0  0  0  0
 15 16  2  0  0  0  0
 15 35  1  0  0  0  0
 16 17  1  0  0  0  0
 16 36  1  0  0  0  0
 17 18  2  0  0  0  0
 18 37  1  0  0  0  0
 19 20  1  0  0  0  0
 19 38  1  0  0  0  0
 19 39  1  0  0  0  0
 20 40  1  0  0  0  0
 20 41  1  0  0  0  0
M  END
> <s_m_source_file>
AV-unprocessed.smi

> <i_m_source_file_index>
1539

> <i_lp_mmshare_version>
43012

> <i_f3d_flags>
0

> <s_epik_input>
W0NIM11DKD1PKU4xW0NIMl1bQ0gyXVtDSDJdTihbQ0gyXVtDSDJdMSlDKD1PKVtOSF1bQ0gyXVtDSDJdbjJbY0hdW2NIXW5bY0hdMg==

> <s_epik_cmdline>
J2VwaWtfcHl0aG9uJywgJy1waCcsICc3LjAnLCAnLXRuJywgJzgnLCAnLW1hJywgJzIwMCcsICctbWV0YWxfYmluZGluZycsICctaW1hZScsICc8aW5maWxlLm1hZT4nLCAnLW9tYWUnLCAnPG91dGZpbGUubWFlPic=

> <r_lp_tautomer_probability>
1

> <r_epik_Ionization_Penalty>
0.624284

> <r_epik_Ionization_Penalty_Charging>
0.624238

> <r_epik_Ionization_Penalty_Neutral>
4.66445e-05

> <r_epik_State_Penalty>
0.64053

> <r_epik_Charging_Adjusted_Penalty>
1.26477

> <i_epik_Tot_Q>
0

> <i_epik_Tot_abs_Q>
0

> <r_epik_Metal_State_Penalty>
0.307534

> <b_epik_Metal_Only>
0

> <s_lp_Force_Field>
OPLS_2005

> <r_lp_Energy>
41.7081

> <b_lp_Chiralities_Consistent>
1

> <s_lp_Variant>
AV-unprocessed.smi:1539-2

> <Gold.Version>
5.8.1

> <Gold.Id.Protein>
6NUR|6NUR_protein|mol2

> <Gold.PLP.Fitness>
45.6302

> <Gold.PLP.PLP>
-39.7424

> <Gold.PLP.part.hbond>
-2.4814

> <Gold.PLP.part.metal>
0.0000

> <Gold.PLP.part.buried>
-5.4569

> <Gold.PLP.part.nonpolar>
-31.0455

> <Gold.PLP.part.repulsive>
0.2913

> <Gold.PLP.ligand.clash>
1.2557

> <Gold.PLP.ligand.torsion>
0.7076

> <Gold.PLP.Chemscore.Hbond>
1.8480

> <Gold.PLP.Chemscore.CHOScore>
1.0000

> <Gold.PLP.Chemscore.Metal>
0.0000

> <Gold.Chemscore.Hbonds>
donor molecule, donor type, donor heavy atom, donor atom, acceptor molecule, acceptor atom, score
      L1  H    11    30       P1  8028  0.74
      P1  H  7989  7998       L1    10  1.00
      L1  C    15    35       P1  8028  0.92

> <Gold.PLP.Chemscore.Internal.Correction>
0.0147

> <Gold.Rescore>
     Score         DG    S(hbond)    S(metal)    S(lipo)     H(rot)  DE(clash)    DE(int)     intcor
     12.89     -13.56       1.47        0.00      63.15       1.65       0.09       0.57       ----

> <Gold.Chemscore.Fitness>
12.8944

> <Gold.Chemscore.DG>
-13.5604

> <Gold.Chemscore.ZeroCoef>
-5.4800

> <Gold.Chemscore.Hbond>
1.4731

> <Gold.Chemscore.Metal>
0.0000

> <Gold.Chemscore.Lipo>
63.1463

> <Gold.Chemscore.Internal_Hbond>
0.0000

> <Gold.Chemscore.DEClash>
0.0910

> <Gold.Chemscore.DEInternal>
0.5749

> <Gold.Chemscore.Rot>
1.6516

> <Gold.Chemscore.Internal.Correction>
   9.000000E+99

> <Gold.Chemscore.Hbonds>
donor molecule, donor type, donor heavy atom, donor atom, acceptor molecule, acceptor atom, score
      L1  H    11    30       P1  8028  0.69
      P1  H  7989  7998       L1    10  0.64

> <Gold.Chemscore.Hbond.Weighted>
-4.9203

> <Gold.Chemscore.Metal.Weighted>
-0.0000

> <Gold.Chemscore.Lipo.Weighted>
-7.3881

> <Gold.Chemscore.Internal_Hbond.Weighted>
0.0000

> <Gold.Chemscore.DEClash.Weighted>
0.0910

> <Gold.Chemscore.DEInternal.Weighted>
0.5749

> <Gold.Chemscore.Rot.Weighted>
4.2280

> <Gold.Chemscore.Internal.Correction.Weighted>
   9.000000E+99

> <Gold.Protein.RotatedTorsions>
[ 6907 6896 6895 6894 ] final  165.40 input  -60.11 | X-H torsion
[ 7974 7965 7964 7962 ] final   14.27 input  175.53 | X-H torsion
[ 8008 7997 7996 7995 ] final   78.09 input   59.86 | X-H torsion
[ 10167 10162 10161 10158 ] final   13.89 input  -65.29 | X-H torsion
[ 10718 10713 10712 10709 ] final  175.59 input   66.30 | X-H torsion
[ 10763 10752 10751 10750 ] final  -69.51 input  -60.55 | X-H torsion
[ 11005 11000 10999 10996 ] final   58.48 input  -57.11 | X-H torsion

> <Gold.Protein.ActiveResidues>
 VAL166  LYS551  ARG553  GLY616  TRP617  ASP618  TYR619  PRO620  LYS621  CYS622 
 ASP623  PHE694  ASN695  SER759  ASP760  ASP761  ALA762  ILE779  LEU786  VAL792 
 PHE793  MET794  SER795  GLU796  ALA797  LYS798  CYS799  TRP800  GLU811  SER814 

> <Gold.Protein.RotatedAtoms>
  151.8951  133.3525  159.3811 H   0  0  0  0  0  0  0  0  0  0  0  0  # atno 6907 bound_to 6896
  150.7094  134.4885  159.5513 H   0  0  0  0  0  0  0  0  0  0  0  0  # atno 6908 bound_to 6896
  152.2462  134.8179  160.0504 H   0  0  0  0  0  0  0  0  0  0  0  0  # atno 6909 bound_to 6896
  146.2309  139.9065  142.8531 H   0  0  0  0  0  0  0  0  0  0  0  0  # atno 7974 bound_to 7965
  155.8509  140.3458  155.5692 H   0  0  0  0  0  0  0  0  0  0  0  0  # atno 8008 bound_to 7997
  155.8039  140.0889  157.1961 H   0  0  0  0  0  0  0  0  0  0  0  0  # atno 8009 bound_to 7997
  154.4007  140.1460  156.3294 H   0  0  0  0  0  0  0  0  0  0  0  0  # atno 8010 bound_to 7997
  140.5972  143.8677  150.6930 H   0  0  0  0  0  0  0  0  0  0  0  0  # atno 10167 bound_to 10162
  156.9326  130.9976  151.2984 H   0  0  0  0  0  0  0  0  0  0  0  0  # atno 10718 bound_to 10713
  154.4044  135.6023  153.5916 H   0  0  0  0  0  0  0  0  0  0  0  0  # atno 10763 bound_to 10752
  152.9789  135.5914  154.4145 H   0  0  0  0  0  0  0  0  0  0  0  0  # atno 10764 bound_to 10752
  154.3948  135.2842  155.2111 H   0  0  0  0  0  0  0  0  0  0  0  0  # atno 10765 bound_to 10752
  140.0374  134.5922  155.9425 H   0  0  0  0  0  0  0  0  0  0  0  0  # atno 11005 bound_to 11000
  145.2272  140.9958  143.4012 LP  0  0  0  0  0  0  0  0  0  0  0  0  # atno 17320 bound_to 7965
  144.9561  139.4030  143.6379 LP  0  0  0  0  0  0  0  0  0  0  0  0  # atno 17321 bound_to 7965
  140.2214  143.3806  152.1639 LP  0  0  0  0  0  0  0  0  0  0  0  0  # atno 17342 bound_to 10162
  139.5266  144.7110  151.5206 LP  0  0  0  0  0  0  0  0  0  0  0  0  # atno 17343 bound_to 10162
  157.5837  130.8394  149.8559 LP  0  0  0  0  0  0  0  0  0  0  0  0  # atno 17370 bound_to 10713
  156.0440  130.3732  150.1363 LP  0  0  0  0  0  0  0  0  0  0  0  0  # atno 17371 bound_to 10713
  141.1865  133.6557  156.5242 LP  0  0  0  0  0  0  0  0  0  0  0  0  # atno 17394 bound_to 11000
  140.4124  134.7260  157.4843 LP  0  0  0  0  0  0  0  0  0  0  0  0  # atno 17395 bound_to 11000

$$$$
