AV-unprocessed.smi:2117|AV-procd|sdf|8627|dock1
  -GOLD-   2272011373D 1   1.00000     0.00000
 Structure written by MMmdl.
 27 28  0  0  0  0  0  0  0  0  2 V2000
  151.8747  140.6105  159.0816 N   0  0  0  0  0  0  0  0  0  0  0  0
  151.8104  141.9800  158.8160 C   0  0  0  0  0  0  0  0  0  0  0  0
  152.6316  142.8691  159.5432 C   0  0  0  0  0  0  0  0  0  0  0  0
  152.5671  144.2516  159.2763 C   0  0  0  0  0  0  0  0  0  0  0  0
  151.6809  144.7163  158.2855 C   0  0  0  0  0  0  0  0  0  0  0  0
  150.9103  143.8376  157.6092 N   0  3  0  0  0  0  0  0  0  0  0  0
  150.9358  142.5000  157.8290 C   0  0  0  0  0  0  0  0  0  0  0  0
  150.0910  141.6729  157.0713 N   0  0  0  0  0  0  0  0  0  0  0  0
  148.6754  141.8778  157.3504 C   0  0  0  0  0  0  0  0  0  0  0  0
  147.8333  140.8477  156.5782 C   0  0  0  0  0  0  0  0  0  0  0  0
  148.1336  140.9338  155.1881 O   0  0  0  0  0  0  0  0  0  0  0  0
  149.5043  140.6546  154.9175 C   0  0  0  0  0  0  0  0  0  0  0  0
  150.3902  141.6807  155.6449 C   0  0  0  0  0  0  0  0  0  0  0  0
  151.3021  139.9454  158.5812 H   0  0  0  0  0  0  0  0  0  0  0  0
  152.4921  140.2382  159.7891 H   0  0  0  0  0  0  0  0  0  0  0  0
  153.3068  142.4981  160.3007 H   0  0  0  0  0  0  0  0  0  0  0  0
  153.1886  144.9448  159.8242 H   0  0  0  0  0  0  0  0  0  0  0  0
  151.5651  145.7559  158.0151 H   0  0  0  0  0  0  0  0  0  0  0  0
  148.4924  141.7844  158.4218 H   0  0  0  0  0  0  0  0  0  0  0  0
  148.3827  142.8873  157.0584 H   0  0  0  0  0  0  0  0  0  0  0  0
  148.0252  139.8365  156.9409 H   0  0  0  0  0  0  0  0  0  0  0  0
  146.7711  141.0434  156.7264 H   0  0  0  0  0  0  0  0  0  0  0  0
  149.7483  139.6379  155.2297 H   0  0  0  0  0  0  0  0  0  0  0  0
  149.6734  140.7071  153.8418 H   0  0  0  0  0  0  0  0  0  0  0  0
  150.2150  142.6761  155.2341 H   0  0  0  0  0  0  0  0  0  0  0  0
  151.4434  141.4455  155.4868 H   0  0  0  0  0  0  0  0  0  0  0  0
  150.2764  144.2001  156.8967 H   0  0  0  0  0  0  0  0  0  0  0  0
  1  2  1  0  0  0  0
  1 14  1  0  0  0  0
  1 15  1  0  0  0  0
  2  7  1  0  0  0  0
  2  3  2  0  0  0  0
  3  4  1  0  0  0  0
  3 16  1  0  0  0  0
  4  5  2  0  0  0  0
  4 17  1  0  0  0  0
  5  6  1  0  0  0  0
  5 18  1  0  0  0  0
  6  7  2  0  0  0  0
  6 27  1  0  0  0  0
  7  8  1  0  0  0  0
  8 13  1  0  0  0  0
  8  9  1  0  0  0  0
  9 10  1  0  0  0  0
  9 19  1  0  0  0  0
  9 20  1  0  0  0  0
 10 11  1  0  0  0  0
 10 21  1  0  0  0  0
 10 22  1  0  0  0  0
 11 12  1  0  0  0  0
 12 13  1  0  0  0  0
 12 23  1  0  0  0  0
 12 24  1  0  0  0  0
 13 25  1  0  0  0  0
 13 26  1  0  0  0  0
M  CHG  1   6   1
M  END
> <s_m_source_file>
AV-unprocessed.smi

> <i_m_source_file_index>
2117

> <i_lp_mmshare_version>
43012

> <i_f3d_flags>
0

> <s_epik_input>
W05IMl1jMVtjSF1bY0hdW2NIXW5jMU4yW0NIMl1bQ0gyXU9bQ0gyXVtDSDJdMg==

> <s_epik_cmdline>
J2VwaWtfcHl0aG9uJywgJy1waCcsICc3LjAnLCAnLXRuJywgJzgnLCAnLW1hJywgJzIwMCcsICctbWV0YWxfYmluZGluZycsICctaW1hZScsICc8aW5maWxlLm1hZT4nLCAnLW9tYWUnLCAnPG91dGZpbGUubWFlPic=

> <r_lp_tautomer_probability>
0.999846

> <r_epik_Ionization_Penalty>
2.4501

> <r_epik_Ionization_Penalty_Charging>
2.4501

> <r_epik_Ionization_Penalty_Neutral>
1.97984e-07

> <r_epik_State_Penalty>
2.61152

> <r_epik_Charging_Adjusted_Penalty>
5.06162

> <i_epik_Tot_Q>
1

> <i_epik_Tot_abs_Q>
1

> <r_epik_Metal_State_Penalty>
6.69701

> <b_epik_Metal_Only>
0

> <s_lp_Force_Field>
OPLS_2005

> <r_lp_Energy>
27.6682

> <b_lp_Chiralities_Consistent>
1

> <s_lp_Variant>
AV-unprocessed.smi:2117-2

> <Gold.Version>
5.8.1

> <Gold.Id.Protein>
6NUR|6NUR_protein|mol2

> <Gold.PLP.Fitness>
31.8344

> <Gold.PLP.PLP>
-25.8416

> <Gold.PLP.part.hbond>
-1.0000

> <Gold.PLP.part.metal>
0.0000

> <Gold.PLP.part.buried>
-3.9776

> <Gold.PLP.part.nonpolar>
-20.6622

> <Gold.PLP.part.repulsive>
0.3397

> <Gold.PLP.ligand.clash>
0.0000

> <Gold.PLP.ligand.torsion>
0.0592

> <Gold.PLP.Chemscore.Hbond>
2.0000

> <Gold.PLP.Chemscore.CHOScore>
0.0000

> <Gold.PLP.Chemscore.Metal>
0.0000

> <Gold.Chemscore.Hbonds>
donor molecule, donor type, donor heavy atom, donor atom, acceptor molecule, acceptor atom, score
      L1  H     6    27       P1  8028  2.00

> <Gold.PLP.Chemscore.Internal.Correction>
0.1112

> <Gold.Rescore>
     Score         DG    S(hbond)    S(metal)    S(lipo)     H(rot)  DE(clash)    DE(int)     intcor
     14.30     -14.40       1.00        0.00      69.58       1.00       0.03       0.07       ----

> <Gold.Chemscore.Fitness>
14.3037

> <Gold.Chemscore.DG>
-14.3994

> <Gold.Chemscore.ZeroCoef>
-5.4800

> <Gold.Chemscore.Hbond>
0.9994

> <Gold.Chemscore.Metal>
0.0000

> <Gold.Chemscore.Lipo>
69.5850

> <Gold.Chemscore.Internal_Hbond>
0.0000

> <Gold.Chemscore.DEClash>
0.0279

> <Gold.Chemscore.DEInternal>
0.0677

> <Gold.Chemscore.Rot>
1.0000

> <Gold.Chemscore.Internal.Correction>
   9.000000E+99

> <Gold.Chemscore.Hbonds>
donor molecule, donor type, donor heavy atom, donor atom, acceptor molecule, acceptor atom, score
      L1  H     6    27       P1  8028  0.96

> <Gold.Chemscore.Hbond.Weighted>
-3.3379

> <Gold.Chemscore.Metal.Weighted>
-0.0000

> <Gold.Chemscore.Lipo.Weighted>
-8.1414

> <Gold.Chemscore.Internal_Hbond.Weighted>
0.0000

> <Gold.Chemscore.DEClash.Weighted>
0.0279

> <Gold.Chemscore.DEInternal.Weighted>
0.0677

> <Gold.Chemscore.Rot.Weighted>
2.5600

> <Gold.Chemscore.Internal.Correction.Weighted>
   9.000000E+99

> <Gold.Protein.RotatedTorsions>
[ 6907 6896 6895 6894 ] final -108.71 input  -60.11 | X-H torsion
[ 7974 7965 7964 7962 ] final  159.48 input  175.53 | X-H torsion
[ 8008 7997 7996 7995 ] final   21.38 input   59.86 | X-H torsion
[ 10167 10162 10161 10158 ] final -117.96 input  -65.29 | X-H torsion
[ 10718 10713 10712 10709 ] final  164.82 input   66.30 | X-H torsion
[ 10763 10752 10751 10750 ] final  167.88 input  -60.55 | X-H torsion
[ 11005 11000 10999 10996 ] final  158.39 input  -57.11 | X-H torsion

> <Gold.Protein.ActiveResidues>
 VAL166  LYS551  ARG553  GLY616  TRP617  ASP618  TYR619  PRO620  LYS621  CYS622 
 ASP623  PHE694  ASN695  SER759  ASP760  ASP761  ALA762  ILE779  LEU786  VAL792 
 PHE793  MET794  SER795  GLU796  ALA797  LYS798  CYS799  TRP800  GLU811  SER814 

> <Gold.Protein.RotatedAtoms>
  150.7518  133.9637  159.3523 H   0  0  0  0  0  0  0  0  0  0  0  0  # atno 6907 bound_to 6896
  151.7565  135.0818  160.0348 H   0  0  0  0  0  0  0  0  0  0  0  0  # atno 6908 bound_to 6896
  152.3431  133.6053  159.5927 H   0  0  0  0  0  0  0  0  0  0  0  0  # atno 6909 bound_to 6896
  144.7788  139.7622  143.6268 H   0  0  0  0  0  0  0  0  0  0  0  0  # atno 7974 bound_to 7965
  154.9498  140.3064  155.5080 H   0  0  0  0  0  0  0  0  0  0  0  0  # atno 8008 bound_to 7997
  156.2988  140.2321  156.4512 H   0  0  0  0  0  0  0  0  0  0  0  0  # atno 8009 bound_to 7997
  154.8065  140.0431  157.1300 H   0  0  0  0  0  0  0  0  0  0  0  0  # atno 8010 bound_to 7997
  140.0627  143.4953  152.2023 H   0  0  0  0  0  0  0  0  0  0  0  0  # atno 10167 bound_to 10162
  157.0889  131.0412  151.2545 H   0  0  0  0  0  0  0  0  0  0  0  0  # atno 10718 bound_to 10713
  154.3603  135.2753  155.2323 H   0  0  0  0  0  0  0  0  0  0  0  0  # atno 10763 bound_to 10752
  154.4514  135.5930  153.6198 H   0  0  0  0  0  0  0  0  0  0  0  0  # atno 10764 bound_to 10752
  152.9844  135.6043  154.3823 H   0  0  0  0  0  0  0  0  0  0  0  0  # atno 10765 bound_to 10752
  140.1860  134.8441  157.2858 H   0  0  0  0  0  0  0  0  0  0  0  0  # atno 11005 bound_to 11000
  146.1984  139.5264  142.9759 LP  0  0  0  0  0  0  0  0  0  0  0  0  # atno 17320 bound_to 7965
  145.6109  141.0340  143.1967 LP  0  0  0  0  0  0  0  0  0  0  0  0  # atno 17321 bound_to 7965
  139.5884  144.7540  151.3462 LP  0  0  0  0  0  0  0  0  0  0  0  0  # atno 17342 bound_to 10162
  140.7164  143.7254  150.7663 LP  0  0  0  0  0  0  0  0  0  0  0  0  # atno 17343 bound_to 10162
  157.4738  130.7724  149.7348 LP  0  0  0  0  0  0  0  0  0  0  0  0  # atno 17370 bound_to 10713
  155.9903  130.3945  150.3033 LP  0  0  0  0  0  0  0  0  0  0  0  0  # atno 17371 bound_to 10713
  140.2213  134.4020  155.7564 LP  0  0  0  0  0  0  0  0  0  0  0  0  # atno 17394 bound_to 11000
  141.2225  133.7167  156.8494 LP  0  0  0  0  0  0  0  0  0  0  0  0  # atno 17395 bound_to 11000

$$$$
