AV-unprocessed.smi:862|AV-procd|sdf|3978|dock2
  -GOLD-   22720 1453D 1   1.00000     0.00000
 Structure written by MMmdl.
 44 46  0  0  0  0  0  0  0  0  2 V2000
  149.4582  130.6239  157.2256 N   0  0  0  0  0  0  0  0  0  0  0  0
  149.8854  131.8347  156.8550 C   0  0  0  0  0  0  0  0  0  0  0  0
  150.1684  132.6891  157.6928 O   0  0  0  0  0  0  0  0  0  0  0  0
  150.0154  132.0194  155.5170 N   0  0  0  0  0  0  0  0  0  0  0  0
  149.5107  131.1228  154.4639 C   0  0  0  0  0  0  0  0  0  0  0  0
  148.2584  131.7559  153.8297 C   0  0  0  0  0  0  0  0  0  0  0  0
  148.5619  133.1700  153.2811 C   0  0  0  0  0  0  0  0  0  0  0  0
  147.3323  133.8516  152.8193 N   0  3  0  0  0  0  0  0  0  0  0  0
  146.4169  133.0498  151.9722 C   0  0  2  0  0  0  0  0  0  0  0  0
  146.5139  133.3807  150.4783 C   0  0  0  0  0  0  0  0  0  0  0  0
  145.1762  132.9256  149.8792 C   0  0  0  0  0  0  0  0  0  0  0  0
  144.2005  132.7507  151.0563 C   0  0  0  0  0  0  0  0  0  0  0  0
  144.9291  133.2528  152.3145 C   0  0  2  0  0  0  0  0  0  0  0  0
  144.5904  134.6377  152.6389 N   0  0  0  0  0  0  0  0  0  0  0  0
  144.7631  135.7806  151.8627 C   0  0  0  0  0  0  0  0  0  0  0  0
  144.3272  136.8445  152.6191 C   0  0  0  0  0  0  0  0  0  0  0  0
  143.8968  136.3893  153.8616 N   0  0  0  0  0  0  0  0  0  0  0  0
  144.0812  135.0778  153.7991 C   0  0  0  0  0  0  0  0  0  0  0  0
  149.2662  134.0327  154.3492 C   0  0  0  0  0  0  0  0  0  0  0  0
  150.4741  133.2943  154.9529 C   0  0  0  0  0  0  0  0  0  0  0  0
  149.3506  130.4119  158.2070 H   0  0  0  0  0  0  0  0  0  0  0  0
  149.2569  129.9228  156.5282 H   0  0  0  0  0  0  0  0  0  0  0  0
  150.2847  130.9902  153.7066 H   0  0  0  0  0  0  0  0  0  0  0  0
  149.2769  130.1178  154.8151 H   0  0  0  0  0  0  0  0  0  0  0  0
  147.8923  131.1053  153.0357 H   0  0  0  0  0  0  0  0  0  0  0  0
  147.4648  131.8101  154.5767 H   0  0  0  0  0  0  0  0  0  0  0  0
  149.2481  133.0763  152.4388 H   0  0  0  0  0  0  0  0  0  0  0  0
  146.8270  134.1669  153.6351 H   0  0  0  0  0  0  0  0  0  0  0  0
  146.6385  131.9908  152.1069 H   0  0  0  0  0  0  0  0  0  0  0  0
  146.6322  134.4556  150.3360 H   0  0  0  0  0  0  0  0  0  0  0  0
  147.3625  132.8935  149.9973 H   0  0  0  0  0  0  0  0  0  0  0  0
  144.8066  133.6562  149.1589 H   0  0  0  0  0  0  0  0  0  0  0  0
  145.2936  131.9802  149.3480 H   0  0  0  0  0  0  0  0  0  0  0  0
  143.2490  133.2562  150.8866 H   0  0  0  0  0  0  0  0  0  0  0  0
  143.9737  131.6902  151.1726 H   0  0  0  0  0  0  0  0  0  0  0  0
  144.6527  132.6397  153.1740 H   0  0  0  0  0  0  0  0  0  0  0  0
  145.1670  135.7512  150.8619 H   0  0  0  0  0  0  0  0  0  0  0  0
  144.2962  137.8947  152.3684 H   0  0  0  0  0  0  0  0  0  0  0  0
  143.8475  134.4206  154.6239 H   0  0  0  0  0  0  0  0  0  0  0  0
  149.5915  134.9776  153.9120 H   0  0  0  0  0  0  0  0  0  0  0  0
  148.5652  134.2858  155.1463 H   0  0  0  0  0  0  0  0  0  0  0  0
  150.9688  133.9262  155.6920 H   0  0  0  0  0  0  0  0  0  0  0  0
  151.2221  133.1021  154.1822 H   0  0  0  0  0  0  0  0  0  0  0  0
  147.6037  134.6637  152.2833 H   0  0  0  0  0  0  0  0  0  0  0  0
  1  2  1  0  0  0  0
  1 21  1  0  0  0  0
  1 22  1  0  0  0  0
  2  3  2  0  0  0  0
  2  4  1  0  0  0  0
  4 20  1  0  0  0  0
  4  5  1  0  0  0  0
  5  6  1  0  0  0  0
  5 23  1  0  0  0  0
  5 24  1  0  0  0  0
  6  7  1  0  0  0  0
  6 25  1  0  0  0  0
  6 26  1  0  0  0  0
  7  8  1  0  0  0  0
  7 19  1  0  0  0  0
  7 27  1  0  0  0  0
  8  9  1  0  0  0  0
  8 28  1  0  0  0  0
  8 44  1  0  0  0  0
  9 13  1  0  0  0  0
  9 10  1  0  0  0  0
  9 29  1  0  0  0  0
 10 11  1  0  0  0  0
 10 30  1  0  0  0  0
 10 31  1  0  0  0  0
 11 12  1  0  0  0  0
 11 32  1  0  0  0  0
 11 33  1  0  0  0  0
 12 13  1  0  0  0  0
 12 34  1  0  0  0  0
 12 35  1  0  0  0  0
 13 14  1  0  0  0  0
 13 36  1  0  0  0  0
 14 18  1  0  0  0  0
 14 15  1  0  0  0  0
 15 16  2  0  0  0  0
 15 37  1  0  0  0  0
 16 17  1  0  0  0  0
 16 38  1  0  0  0  0
 17 18  2  0  0  0  0
 18 39  1  0  0  0  0
 19 20  1  0  0  0  0
 19 40  1  0  0  0  0
 19 41  1  0  0  0  0
 20 42  1  0  0  0  0
 20 43  1  0  0  0  0
M  CHG  1   8   1
M  END
> <s_m_source_file>
AV-unprocessed.smi

> <i_m_source_file_index>
862

> <i_lp_mmshare_version>
43012

> <i_f3d_flags>
0

> <s_epik_input>
W05IMl1DKD1PKU4xW0NIMl1bQ0gyXVtDSF0oW0NIMl1bQ0gyXTEpW05IXVtDQEBIXTJbQ0gyXVtDSDJdW0NIMl1bQ0BIXTJuM1tjSF1bY0hdbltjSF0z

> <s_epik_cmdline>
J2VwaWtfcHl0aG9uJywgJy1waCcsICc3LjAnLCAnLXRuJywgJzgnLCAnLW1hJywgJzIwMCcsICctbWV0YWxfYmluZGluZycsICctaW1hZScsICc8aW5maWxlLm1hZT4nLCAnLW9tYWUnLCAnPG91dGZpbGUubWFlPic=

> <r_lp_tautomer_probability>
1

> <r_epik_Ionization_Penalty>
0.0731506

> <r_epik_Ionization_Penalty_Charging>
0.0731

> <r_epik_Ionization_Penalty_Neutral>
5.05966e-05

> <r_epik_State_Penalty>
0.128895

> <r_epik_Charging_Adjusted_Penalty>
0.201995

> <i_epik_Tot_Q>
1

> <i_epik_Tot_abs_Q>
1

> <r_epik_Metal_State_Penalty>
0.113934

> <b_epik_Metal_Only>
0

> <s_lp_Force_Field>
OPLS_2005

> <r_lp_Energy>
57.2527

> <b_lp_Chiralities_Consistent>
1

> <s_lp_Variant>
AV-unprocessed.smi:862-3

> <Gold.Version>
5.8.1

> <Gold.Id.Protein>
6NUR|6NUR_protein|mol2

> <Gold.PLP.Fitness>
44.8515

> <Gold.PLP.PLP>
-31.8950

> <Gold.PLP.part.hbond>
-2.0000

> <Gold.PLP.part.metal>
0.0000

> <Gold.PLP.part.buried>
-1.1323

> <Gold.PLP.part.nonpolar>
-25.9788

> <Gold.PLP.part.repulsive>
0.0984

> <Gold.PLP.ligand.clash>
0.0000

> <Gold.PLP.ligand.torsion>
0.7015

> <Gold.PLP.Chemscore.Hbond>
2.9840

> <Gold.PLP.Chemscore.CHOScore>
1.7809

> <Gold.PLP.Chemscore.Metal>
0.0000

> <Gold.Chemscore.Hbonds>
donor molecule, donor type, donor heavy atom, donor atom, acceptor molecule, acceptor atom, score
      L1  H     8    44       P1  7948  1.82
      P1  H  6896  6908       L1     3  1.00
      L1  C    16    38       P1 10171  0.49
      L1  C    16    38       P1 10175  0.77
      L1  C    18    39       P1 10957  0.05

> <Gold.PLP.Chemscore.Internal.Correction>
0.0648

> <Gold.Rescore>
     Score         DG    S(hbond)    S(metal)    S(lipo)     H(rot)  DE(clash)    DE(int)     intcor
     14.87     -15.70       1.88        0.00      69.65       1.64       0.12       0.71       ----

> <Gold.Chemscore.Fitness>
14.8710

> <Gold.Chemscore.DG>
-15.7046

> <Gold.Chemscore.ZeroCoef>
-5.4800

> <Gold.Chemscore.Hbond>
1.8792

> <Gold.Chemscore.Metal>
0.0000

> <Gold.Chemscore.Lipo>
69.6545

> <Gold.Chemscore.Internal_Hbond>
0.0000

> <Gold.Chemscore.DEClash>
0.1191

> <Gold.Chemscore.DEInternal>
0.7145

> <Gold.Chemscore.Rot>
1.6411

> <Gold.Chemscore.Internal.Correction>
   9.000000E+99

> <Gold.Chemscore.Hbonds>
donor molecule, donor type, donor heavy atom, donor atom, acceptor molecule, acceptor atom, score
      L1  H     8    44       P1  7948  0.65
      P1  H  6896  6908       L1     3  0.99

> <Gold.Chemscore.Hbond.Weighted>
-6.2764

> <Gold.Chemscore.Metal.Weighted>
-0.0000

> <Gold.Chemscore.Lipo.Weighted>
-8.1496

> <Gold.Chemscore.Internal_Hbond.Weighted>
0.0000

> <Gold.Chemscore.DEClash.Weighted>
0.1191

> <Gold.Chemscore.DEInternal.Weighted>
0.7145

> <Gold.Chemscore.Rot.Weighted>
4.2013

> <Gold.Chemscore.Internal.Correction.Weighted>
   9.000000E+99

> <Gold.Protein.RotatedTorsions>
[ 6907 6896 6895 6894 ] final  103.40 input  -60.11 | X-H torsion
[ 7974 7965 7964 7962 ] final  121.04 input  175.53 | X-H torsion
[ 8008 7997 7996 7995 ] final -156.70 input   59.86 | X-H torsion
[ 10167 10162 10161 10158 ] final  160.19 input  -65.29 | X-H torsion
[ 10718 10713 10712 10709 ] final  179.97 input   66.30 | X-H torsion
[ 10763 10752 10751 10750 ] final -150.64 input  -60.55 | X-H torsion
[ 11005 11000 10999 10996 ] final  -77.22 input  -57.11 | X-H torsion

> <Gold.Protein.ActiveResidues>
 VAL166  LYS551  ARG553  GLY616  TRP617  ASP618  TYR619  PRO620  LYS621  CYS622 
 ASP623  PHE694  ASN695  SER759  ASP760  ASP761  ALA762  ILE779  LEU786  VAL792 
 PHE793  MET794  SER795  GLU796  ALA797  LYS798  CYS799  TRP800  GLU811  SER814 

> <Gold.Protein.RotatedAtoms>
  152.5296  133.9832  159.7815 H   0  0  0  0  0  0  0  0  0  0  0  0  # atno 6907 bound_to 6896
  151.0081  133.5983  159.2693 H   0  0  0  0  0  0  0  0  0  0  0  0  # atno 6908 bound_to 6896
  151.3067  135.0790  159.9311 H   0  0  0  0  0  0  0  0  0  0  0  0  # atno 6909 bound_to 6896
  145.1240  139.3370  143.4699 H   0  0  0  0  0  0  0  0  0  0  0  0  # atno 7974 bound_to 7965
  155.7211  140.0790  157.2330 H   0  0  0  0  0  0  0  0  0  0  0  0  # atno 8008 bound_to 7997
  154.4045  140.1612  156.2458 H   0  0  0  0  0  0  0  0  0  0  0  0  # atno 8009 bound_to 7997
  155.9195  140.3398  155.6164 H   0  0  0  0  0  0  0  0  0  0  0  0  # atno 8010 bound_to 7997
  139.4838  144.4658  151.8644 H   0  0  0  0  0  0  0  0  0  0  0  0  # atno 10167 bound_to 10162
  156.8679  130.9774  151.3076 H   0  0  0  0  0  0  0  0  0  0  0  0  # atno 10718 bound_to 10713
  154.8107  135.3279  154.7314 H   0  0  0  0  0  0  0  0  0  0  0  0  # atno 10763 bound_to 10752
  153.7963  135.6907  153.4867 H   0  0  0  0  0  0  0  0  0  0  0  0  # atno 10764 bound_to 10752
  153.1883  135.4560  155.0063 H   0  0  0  0  0  0  0  0  0  0  0  0  # atno 10765 bound_to 10752
  141.1659  133.7014  156.7787 H   0  0  0  0  0  0  0  0  0  0  0  0  # atno 11005 bound_to 11000
  146.3519  140.1212  142.8600 LP  0  0  0  0  0  0  0  0  0  0  0  0  # atno 17320 bound_to 7965
  145.0708  140.9154  143.4883 LP  0  0  0  0  0  0  0  0  0  0  0  0  # atno 17321 bound_to 7965
  140.4123  144.2352  150.5888 LP  0  0  0  0  0  0  0  0  0  0  0  0  # atno 17342 bound_to 10162
  140.4954  143.2334  151.8757 LP  0  0  0  0  0  0  0  0  0  0  0  0  # atno 17343 bound_to 10162
  157.6212  130.8657  149.9113 LP  0  0  0  0  0  0  0  0  0  0  0  0  # atno 17370 bound_to 10713
  156.0742  130.3681  150.0713 LP  0  0  0  0  0  0  0  0  0  0  0  0  # atno 17371 bound_to 10713
  140.2411  134.8613  157.3574 LP  0  0  0  0  0  0  0  0  0  0  0  0  # atno 17394 bound_to 11000
  140.1795  134.4507  155.7780 LP  0  0  0  0  0  0  0  0  0  0  0  0  # atno 17395 bound_to 11000

$$$$
