AV-unprocessed.smi:2526|AV-procd|sdf|9940|dock3
  -GOLD-   2272013583D 1   1.00000     0.00000
 Structure written by MMmdl.
 28 29  0  0  0  0  0  0  0  0  1 V2000
  145.1763  136.0710  151.7880 C   0  0  0  0  0  0  0  0  0  0  0  0
  145.8411  137.0867  152.5757 N   0  0  0  0  0  0  0  0  0  0  0  0
  146.1580  138.3797  152.2215 C   0  0  0  0  0  0  0  0  0  0  0  0
  146.7866  138.9613  153.2892 C   0  0  0  0  0  0  0  0  0  0  0  0
  147.3456  140.3636  153.4367 C   0  0  2  0  0  0  0  0  0  0  0  0
  148.8068  140.3289  153.5467 N   0  0  0  0  0  0  0  0  0  0  0  0
  149.5285  140.3933  154.6817 C   0  0  0  0  0  0  0  0  0  0  0  0
  150.7473  140.2375  154.6741 O   0  0  0  0  0  0  0  0  0  0  0  0
  148.8196  140.7190  156.0078 C   0  0  0  0  0  0  0  0  0  0  0  0
  147.2869  140.5880  155.9565 C   0  0  0  0  0  0  0  0  0  0  0  0
  146.7381  141.1364  154.6334 C   0  0  2  0  0  0  0  0  0  0  0  0
  145.2862  141.1206  154.6281 N   0  0  0  0  0  0  0  0  0  0  0  0
  146.7962  137.9195  154.2620 C   0  0  0  0  0  0  0  0  0  0  0  0
  146.2319  136.8024  153.8338 N   0  0  0  0  0  0  0  0  0  0  0  0
  144.9529  136.4562  150.7927 H   0  0  0  0  0  0  0  0  0  0  0  0
  144.2442  135.7788  152.2725 H   0  0  0  0  0  0  0  0  0  0  0  0
  145.8212  135.1968  151.6925 H   0  0  0  0  0  0  0  0  0  0  0  0
  145.9174  138.7752  151.2456 H   0  0  0  0  0  0  0  0  0  0  0  0
  147.1258  140.9310  152.5317 H   0  0  0  0  0  0  0  0  0  0  0  0
  149.3127  140.1585  152.6895 H   0  0  0  0  0  0  0  0  0  0  0  0
  149.2218  140.0886  156.8013 H   0  0  0  0  0  0  0  0  0  0  0  0
  149.0813  141.7455  156.2663 H   0  0  0  0  0  0  0  0  0  0  0  0
  147.0009  139.5428  156.0834 H   0  0  0  0  0  0  0  0  0  0  0  0
  146.8509  141.1274  156.7982 H   0  0  0  0  0  0  0  0  0  0  0  0
  147.0384  142.1822  154.5543 H   0  0  0  0  0  0  0  0  0  0  0  0
  144.9526  140.7075  153.7689 H   0  0  0  0  0  0  0  0  0  0  0  0
  144.9484  140.5374  155.3804 H   0  0  0  0  0  0  0  0  0  0  0  0
  147.1987  137.9439  155.2639 H   0  0  0  0  0  0  0  0  0  0  0  0
  1  2  1  0  0  0  0
  1 15  1  0  0  0  0
  1 16  1  0  0  0  0
  1 17  1  0  0  0  0
  2 14  1  0  0  0  0
  2  3  1  0  0  0  0
  3  4  2  0  0  0  0
  3 18  1  0  0  0  0
  4  5  1  0  0  0  0
  4 13  1  0  0  0  0
  5 11  1  0  0  0  0
  5  6  1  0  0  0  0
  5 19  1  0  0  0  0
  6  7  1  0  0  0  0
  6 20  1  0  0  0  0
  7  8  2  0  0  0  0
  7  9  1  0  0  0  0
  9 10  1  0  0  0  0
  9 21  1  0  0  0  0
  9 22  1  0  0  0  0
 10 11  1  0  0  0  0
 10 23  1  0  0  0  0
 10 24  1  0  0  0  0
 11 12  1  0  0  0  0
 11 25  1  0  0  0  0
 12 26  1  0  0  0  0
 12 27  1  0  0  0  0
 13 14  2  0  0  0  0
 13 28  1  0  0  0  0
M  END
> <s_m_source_file>
AV-unprocessed.smi

> <i_m_source_file_index>
2526

> <i_lp_mmshare_version>
43012

> <i_f3d_flags>
0

> <s_epik_input>
W0NIM11uMVtjSF1jKFtjSF1uMSlbQ0BASF0yW05IXUMoPU8pW0NIMl1bQ0gyXVtDQEhdMltOSDJd

> <s_epik_cmdline>
J2VwaWtfcHl0aG9uJywgJy1waCcsICc3LjAnLCAnLXRuJywgJzgnLCAnLW1hJywgJzIwMCcsICctbWV0YWxfYmluZGluZycsICctaW1hZScsICc8aW5maWxlLm1hZT4nLCAnLW9tYWUnLCAnPG91dGZpbGUubWFlPic=

> <r_lp_tautomer_probability>
1

> <r_epik_Ionization_Penalty>
2.50279

> <r_epik_Ionization_Penalty_Charging>
0

> <r_epik_Ionization_Penalty_Neutral>
2.50279

> <r_epik_State_Penalty>
2.66754

> <r_epik_Charging_Adjusted_Penalty>
2.66754

> <i_epik_Tot_Q>
0

> <i_epik_Tot_abs_Q>
0

> <r_epik_Metal_State_Penalty>
2.66721

> <b_epik_Metal_Only>
0

> <s_lp_Force_Field>
OPLS_2005

> <r_lp_Energy>
9.07017

> <b_lp_Chiralities_Consistent>
1

> <s_lp_Variant>
AV-unprocessed.smi:2526-7

> <Gold.Version>
5.8.1

> <Gold.Id.Protein>
6NUR|6NUR_protein|mol2

> <Gold.PLP.Fitness>
32.5433

> <Gold.PLP.PLP>
-20.6828

> <Gold.PLP.part.hbond>
-2.9849

> <Gold.PLP.part.metal>
0.0000

> <Gold.PLP.part.buried>
-3.2236

> <Gold.PLP.part.nonpolar>
-16.3690

> <Gold.PLP.part.repulsive>
0.3421

> <Gold.PLP.ligand.clash>
0.0000

> <Gold.PLP.ligand.torsion>
0.0581

> <Gold.PLP.Chemscore.Hbond>
2.9920

> <Gold.PLP.Chemscore.CHOScore>
0.9944

> <Gold.PLP.Chemscore.Metal>
0.0000

> <Gold.Chemscore.Hbonds>
donor molecule, donor type, donor heavy atom, donor atom, acceptor molecule, acceptor atom, score
      L1  H     6    20       P1  7957  1.00
      L1  H    12    26       P1 10175  1.00
      P1  H  7989  7998       L1     8  1.00
      L1  C     3    18       P1 10171  1.00

> <Gold.PLP.Chemscore.Internal.Correction>
0.0176

> <Gold.Rescore>
     Score         DG    S(hbond)    S(metal)    S(lipo)     H(rot)  DE(clash)    DE(int)     intcor
     17.32     -17.37       2.91        0.00      40.51       1.00       0.04       0.01       ----

> <Gold.Chemscore.Fitness>
17.3182

> <Gold.Chemscore.DG>
-17.3687

> <Gold.Chemscore.ZeroCoef>
-5.4800

> <Gold.Chemscore.Hbond>
2.9069

> <Gold.Chemscore.Metal>
0.0000

> <Gold.Chemscore.Lipo>
40.5107

> <Gold.Chemscore.Internal_Hbond>
0.0000

> <Gold.Chemscore.DEClash>
0.0414

> <Gold.Chemscore.DEInternal>
0.0092

> <Gold.Chemscore.Rot>
1.0000

> <Gold.Chemscore.Internal.Correction>
   9.000000E+99

> <Gold.Chemscore.Hbonds>
donor molecule, donor type, donor heavy atom, donor atom, acceptor molecule, acceptor atom, score
      L1  H     6    20       P1  7957  0.96
      L1  H    12    26       P1 10175  0.92
      P1  H  7989  7998       L1     8  0.96

> <Gold.Chemscore.Hbond.Weighted>
-9.7089

> <Gold.Chemscore.Metal.Weighted>
-0.0000

> <Gold.Chemscore.Lipo.Weighted>
-4.7397

> <Gold.Chemscore.Internal_Hbond.Weighted>
0.0000

> <Gold.Chemscore.DEClash.Weighted>
0.0414

> <Gold.Chemscore.DEInternal.Weighted>
0.0092

> <Gold.Chemscore.Rot.Weighted>
2.5600

> <Gold.Chemscore.Internal.Correction.Weighted>
   9.000000E+99

> <Gold.Protein.RotatedTorsions>
[ 6907 6896 6895 6894 ] final   -1.46 input  -60.11 | X-H torsion
[ 7974 7965 7964 7962 ] final  107.19 input  175.53 | X-H torsion
[ 8008 7997 7996 7995 ] final -111.93 input   59.86 | X-H torsion
[ 10167 10162 10161 10158 ] final  -73.33 input  -65.29 | X-H torsion
[ 10718 10713 10712 10709 ] final  -66.77 input   66.30 | X-H torsion
[ 10763 10752 10751 10750 ] final -128.48 input  -60.55 | X-H torsion
[ 11005 11000 10999 10996 ] final   77.58 input  -57.11 | X-H torsion

> <Gold.Protein.ActiveResidues>
 VAL166  LYS551  ARG553  GLY616  TRP617  ASP618  TYR619  PRO620  LYS621  CYS622 
 ASP623  PHE694  ASN695  SER759  ASP760  ASP761  ALA762  ILE779  LEU786  VAL792 
 PHE793  MET794  SER795  GLU796  ALA797  LYS798  CYS799  TRP800  GLU811  SER814 

> <Gold.Protein.RotatedAtoms>
  151.5458  135.1068  159.9937 H   0  0  0  0  0  0  0  0  0  0  0  0  # atno 6907 bound_to 6896
  152.4514  133.7633  159.6769 H   0  0  0  0  0  0  0  0  0  0  0  0  # atno 6908 bound_to 6896
  150.8444  133.7818  159.3073 H   0  0  0  0  0  0  0  0  0  0  0  0  # atno 6909 bound_to 6896
  145.2968  139.2582  143.3835 H   0  0  0  0  0  0  0  0  0  0  0  0  # atno 7974 bound_to 7965
  154.9974  140.0394  157.2345 H   0  0  0  0  0  0  0  0  0  0  0  0  # atno 8008 bound_to 7997
  154.7574  140.2778  155.6219 H   0  0  0  0  0  0  0  0  0  0  0  0  # atno 8009 bound_to 7997
  156.2897  140.2635  156.2343 H   0  0  0  0  0  0  0  0  0  0  0  0  # atno 8010 bound_to 7997
  140.5119  143.2343  151.7578 H   0  0  0  0  0  0  0  0  0  0  0  0  # atno 10167 bound_to 10162
  156.0594  130.4267  150.1757 H   0  0  0  0  0  0  0  0  0  0  0  0  # atno 10718 bound_to 10713
  154.8756  135.3927  154.3764 H   0  0  0  0  0  0  0  0  0  0  0  0  # atno 10763 bound_to 10752
  153.4517  135.7028  153.6110 H   0  0  0  0  0  0  0  0  0  0  0  0  # atno 10764 bound_to 10752
  153.4647  135.3804  155.2326 H   0  0  0  0  0  0  0  0  0  0  0  0  # atno 10765 bound_to 10752
  139.9248  134.7694  156.1540 H   0  0  0  0  0  0  0  0  0  0  0  0  # atno 11005 bound_to 11000
  146.3166  140.3472  142.8653 LP  0  0  0  0  0  0  0  0  0  0  0  0  # atno 17320 bound_to 7965
  144.9127  140.7776  143.5798 LP  0  0  0  0  0  0  0  0  0  0  0  0  # atno 17321 bound_to 7965
  139.4898  144.4378  151.9799 LP  0  0  0  0  0  0  0  0  0  0  0  0  # atno 17342 bound_to 10162
  140.3471  144.3134  150.5956 LP  0  0  0  0  0  0  0  0  0  0  0  0  # atno 17343 bound_to 10162
  156.9828  130.9869  151.3433 LP  0  0  0  0  0  0  0  0  0  0  0  0  # atno 17370 bound_to 10713
  157.5590  130.8233  149.8241 LP  0  0  0  0  0  0  0  0  0  0  0  0  # atno 17371 bound_to 10713
  141.0798  133.6759  156.2312 LP  0  0  0  0  0  0  0  0  0  0  0  0  # atno 17394 bound_to 11000
  140.6367  134.5208  157.5565 LP  0  0  0  0  0  0  0  0  0  0  0  0  # atno 17395 bound_to 11000

$$$$
