AV-unprocessed.smi:3014|AV-procd|sdf|11469|dock8
  -GOLD-   2272016403D 1   1.00000     0.00000
 Structure written by MMmdl.
 45 46  0  0  0  0  0  0  0  0  1 V2000
  151.9709  144.7828  158.5612 C   0  0  0  0  0  0  0  0  0  0  0  0
  152.4384  143.3224  158.6405 C   0  0  1  0  0  0  0  0  0  0  0  0
  153.2678  143.0676  159.9137 C   0  0  0  0  0  0  0  0  0  0  0  0
  153.7311  141.6054  160.0047 C   0  0  0  0  0  0  0  0  0  0  0  0
  152.5412  140.6350  159.9219 C   0  0  0  0  0  0  0  0  0  0  0  0
  151.6999  140.8697  158.6550 C   0  0  2  0  0  0  0  0  0  0  0  0
  152.4953  140.4979  157.5351 O   0  0  0  0  0  0  0  0  0  0  0  0
  152.0461  139.3396  156.8418 C   0  0  0  0  0  0  0  0  0  0  0  0
  151.0211  139.7396  155.7787 C   0  0  0  0  0  0  0  0  0  0  0  0
  151.3071  139.5959  154.5901 O   0  0  0  0  0  0  0  0  0  0  0  0
  149.8571  140.2465  156.2286 N   0  0  0  0  0  0  0  0  0  0  0  0
  148.7477  140.7055  155.4724 C   0  0  0  0  0  0  0  0  0  0  0  0
  148.6604  140.2193  154.1502 C   0  0  0  0  0  0  0  0  0  0  0  0
  147.5677  140.6563  153.3770 C   0  0  0  0  0  0  0  0  0  0  0  0
  146.6402  141.5009  153.8717 N   0  0  0  0  0  0  0  0  0  0  0  0
  146.7961  141.9139  155.1354 C   0  0  0  0  0  0  0  0  0  0  0  0
  145.8351  142.7871  155.6530 N   0  0  0  0  0  0  0  0  0  0  0  0
  144.8780  143.4619  154.7812 C   0  0  0  0  0  0  0  0  0  0  0  0
  145.7560  143.0597  157.0854 C   0  0  0  0  0  0  0  0  0  0  0  0
  147.8013  141.5537  155.9439 N   0  0  0  0  0  0  0  0  0  0  0  0
  151.2485  142.3441  158.5678 C   0  0  0  0  0  0  0  0  0  0  0  0
  151.3204  145.0381  159.3985 H   0  0  0  0  0  0  0  0  0  0  0  0
  151.4172  144.9690  157.6406 H   0  0  0  0  0  0  0  0  0  0  0  0
  152.8194  145.4672  158.5783 H   0  0  0  0  0  0  0  0  0  0  0  0
  153.0798  143.1376  157.7774 H   0  0  0  0  0  0  0  0  0  0  0  0
  154.1364  143.7268  159.9315 H   0  0  0  0  0  0  0  0  0  0  0  0
  152.6754  143.3152  160.7956 H   0  0  0  0  0  0  0  0  0  0  0  0
  154.4345  141.3944  159.1982 H   0  0  0  0  0  0  0  0  0  0  0  0
  154.2748  141.4464  160.9363 H   0  0  0  0  0  0  0  0  0  0  0  0
  152.8975  139.6048  159.9491 H   0  0  0  0  0  0  0  0  0  0  0  0
  151.9107  140.7642  160.8025 H   0  0  0  0  0  0  0  0  0  0  0  0
  150.8239  140.2206  158.7053 H   0  0  0  0  0  0  0  0  0  0  0  0
  152.8825  138.8409  156.3503 H   0  0  0  0  0  0  0  0  0  0  0  0
  151.5866  138.6274  157.5272 H   0  0  0  0  0  0  0  0  0  0  0  0
  149.7558  140.3004  157.2318 H   0  0  0  0  0  0  0  0  0  0  0  0
  149.3961  139.5416  153.7422 H   0  0  0  0  0  0  0  0  0  0  0  0
  147.4372  140.3257  152.3573 H   0  0  0  0  0  0  0  0  0  0  0  0
  145.3989  144.0376  154.0154 H   0  0  0  0  0  0  0  0  0  0  0  0
  144.2377  144.1496  155.3336 H   0  0  0  0  0  0  0  0  0  0  0  0
  144.2365  142.7319  154.2867 H   0  0  0  0  0  0  0  0  0  0  0  0
  146.6694  143.5458  157.4299 H   0  0  0  0  0  0  0  0  0  0  0  0
  145.6286  142.1320  157.6443 H   0  0  0  0  0  0  0  0  0  0  0  0
  144.9173  143.7109  157.3309 H   0  0  0  0  0  0  0  0  0  0  0  0
  150.5650  142.5512  159.3923 H   0  0  0  0  0  0  0  0  0  0  0  0
  150.6735  142.5192  157.6592 H   0  0  0  0  0  0  0  0  0  0  0  0
  1  2  1  0  0  0  0
  1 22  1  0  0  0  0
  1 23  1  0  0  0  0
  1 24  1  0  0  0  0
  2 21  1  0  0  0  0
  2  3  1  0  0  0  0
  2 25  1  0  0  0  0
  3  4  1  0  0  0  0
  3 26  1  0  0  0  0
  3 27  1  0  0  0  0
  4  5  1  0  0  0  0
  4 28  1  0  0  0  0
  4 29  1  0  0  0  0
  5  6  1  0  0  0  0
  5 30  1  0  0  0  0
  5 31  1  0  0  0  0
  6  7  1  0  0  0  0
  6 21  1  0  0  0  0
  6 32  1  0  0  0  0
  7  8  1  0  0  0  0
  8  9  1  0  0  0  0
  8 33  1  0  0  0  0
  8 34  1  0  0  0  0
  9 10  2  0  0  0  0
  9 11  1  0  0  0  0
 11 12  1  0  0  0  0
 11 35  1  0  0  0  0
 12 20  1  0  0  0  0
 12 13  2  0  0  0  0
 13 14  1  0  0  0  0
 13 36  1  0  0  0  0
 14 15  2  0  0  0  0
 14 37  1  0  0  0  0
 15 16  1  0  0  0  0
 16 17  1  0  0  0  0
 16 20  2  0  0  0  0
 17 18  1  0  0  0  0
 17 19  1  0  0  0  0
 18 38  1  0  0  0  0
 18 39  1  0  0  0  0
 18 40  1  0  0  0  0
 19 41  1  0  0  0  0
 19 42  1  0  0  0  0
 19 43  1  0  0  0  0
 21 44  1  0  0  0  0
 21 45  1  0  0  0  0
M  END
> <s_m_source_file>
AV-unprocessed.smi

> <i_m_source_file_index>
3014

> <i_lp_mmshare_version>
43012

> <i_f3d_flags>
0

> <s_epik_input>
W0NIM11bQ0BASF0xW0NIMl1bQ0gyXVtDSDJdW0NASF0oW0NIMl0xKU9bQ0gyXUMoPU8pW05IXWMyW2NIXVtjSF1uYyhuMilOKFtDSDNdKVtDSDNd

> <s_epik_cmdline>
J2VwaWtfcHl0aG9uJywgJy1waCcsICc3LjAnLCAnLXRuJywgJzgnLCAnLW1hJywgJzIwMCcsICctbWV0YWxfYmluZGluZycsICctaW1hZScsICc8aW5maWxlLm1hZT4nLCAnLW9tYWUnLCAnPG91dGZpbGUubWFlPic=

> <r_lp_tautomer_probability>
1

> <r_epik_Ionization_Penalty>
0.000308195

> <r_epik_Ionization_Penalty_Charging>
0

> <r_epik_Ionization_Penalty_Neutral>
0.000308195

> <r_epik_State_Penalty>
-0

> <r_epik_Charging_Adjusted_Penalty>
0

> <i_epik_Tot_Q>
0

> <i_epik_Tot_abs_Q>
0

> <r_epik_Metal_State_Penalty>
-0

> <b_epik_Metal_Only>
0

> <s_lp_Force_Field>
OPLS_2005

> <r_lp_Energy>
6.78662

> <b_lp_Chiralities_Consistent>
1

> <s_lp_Variant>
AV-unprocessed.smi:3014-4

> <Gold.Version>
5.8.1

> <Gold.Id.Protein>
6NUR|6NUR_protein|mol2

> <Gold.PLP.Fitness>
44.6836

> <Gold.PLP.PLP>
-40.5497

> <Gold.PLP.part.hbond>
-2.0000

> <Gold.PLP.part.metal>
0.0000

> <Gold.PLP.part.buried>
-2.1727

> <Gold.PLP.part.nonpolar>
-36.0593

> <Gold.PLP.part.repulsive>
0.4591

> <Gold.PLP.ligand.clash>
0.0000

> <Gold.PLP.ligand.torsion>
1.1019

> <Gold.PLP.Chemscore.Hbond>
1.4547

> <Gold.PLP.Chemscore.CHOScore>
0.6473

> <Gold.PLP.Chemscore.Metal>
0.0000

> <Gold.Chemscore.Hbonds>
donor molecule, donor type, donor heavy atom, donor atom, acceptor molecule, acceptor atom, score
      P1  H  7989  7998       L1    10  1.00
      P1  H  7997  8010       L1     7  0.26
      L1  C    14    37       P1  7957  0.67

> <Gold.PLP.Chemscore.Internal.Correction>
0.0315

> <Gold.Rescore>
     Score         DG    S(hbond)    S(metal)    S(lipo)     H(rot)  DE(clash)    DE(int)     intcor
     14.39     -17.00       1.00        0.00     101.28       1.43       0.04       2.57       ----

> <Gold.Chemscore.Fitness>
14.3936

> <Gold.Chemscore.DG>
-17.0047

> <Gold.Chemscore.ZeroCoef>
-5.4800

> <Gold.Chemscore.Hbond>
0.9994

> <Gold.Chemscore.Metal>
0.0000

> <Gold.Chemscore.Lipo>
101.2802

> <Gold.Chemscore.Internal_Hbond>
0.0000

> <Gold.Chemscore.DEClash>
0.0413

> <Gold.Chemscore.DEInternal>
2.5697

> <Gold.Chemscore.Rot>
1.4310

> <Gold.Chemscore.Internal.Correction>
   9.000000E+99

> <Gold.Chemscore.Hbonds>
donor molecule, donor type, donor heavy atom, donor atom, acceptor molecule, acceptor atom, score
      P1  H  7989  7998       L1    10  1.00
      P1  H  7997  8010       L1     7  0.01

> <Gold.Chemscore.Hbond.Weighted>
-3.3381

> <Gold.Chemscore.Metal.Weighted>
-0.0000

> <Gold.Chemscore.Lipo.Weighted>
-11.8498

> <Gold.Chemscore.Internal_Hbond.Weighted>
0.0000

> <Gold.Chemscore.DEClash.Weighted>
0.0413

> <Gold.Chemscore.DEInternal.Weighted>
2.5697

> <Gold.Chemscore.Rot.Weighted>
3.6632

> <Gold.Chemscore.Internal.Correction.Weighted>
   9.000000E+99

> <Gold.Protein.RotatedTorsions>
[ 6907 6896 6895 6894 ] final  -25.65 input  -60.11 | X-H torsion
[ 7974 7965 7964 7962 ] final  147.21 input  175.53 | X-H torsion
[ 8008 7997 7996 7995 ] final   47.86 input   59.86 | X-H torsion
[ 10167 10162 10161 10158 ] final  154.37 input  -65.29 | X-H torsion
[ 10718 10713 10712 10709 ] final  -66.14 input   66.30 | X-H torsion
[ 10763 10752 10751 10750 ] final  -97.16 input  -60.55 | X-H torsion
[ 11005 11000 10999 10996 ] final  -91.70 input  -57.11 | X-H torsion

> <Gold.Protein.ActiveResidues>
 VAL166  LYS551  ARG553  GLY616  TRP617  ASP618  TYR619  PRO620  LYS621  CYS622 
 ASP623  PHE694  ASN695  SER759  ASP760  ASP761  ALA762  ILE779  LEU786  VAL792 
 PHE793  MET794  SER795  GLU796  ALA797  LYS798  CYS799  TRP800  GLU811  SER814 

> <Gold.Protein.RotatedAtoms>
  151.1722  135.0323  159.8756 H   0  0  0  0  0  0  0  0  0  0  0  0  # atno 6907 bound_to 6896
  152.5448  134.1158  159.8388 H   0  0  0  0  0  0  0  0  0  0  0  0  # atno 6908 bound_to 6896
  151.1265  133.5020  159.2633 H   0  0  0  0  0  0  0  0  0  0  0  0  # atno 6909 bound_to 6896
  144.8610  139.6000  143.5930 H   0  0  0  0  0  0  0  0  0  0  0  0  # atno 7974 bound_to 7965
  155.3760  140.3426  155.4245 H   0  0  0  0  0  0  0  0  0  0  0  0  # atno 8008 bound_to 7997
  156.1637  140.1609  156.8603 H   0  0  0  0  0  0  0  0  0  0  0  0  # atno 8009 bound_to 7997
  154.5164  140.0777  156.8071 H   0  0  0  0  0  0  0  0  0  0  0  0  # atno 8010 bound_to 7997
  139.4823  144.5192  151.7902 H   0  0  0  0  0  0  0  0  0  0  0  0  # atno 10167 bound_to 10162
  156.0629  130.4257  150.1665 H   0  0  0  0  0  0  0  0  0  0  0  0  # atno 10718 bound_to 10713
  154.7304  135.5057  153.8954 H   0  0  0  0  0  0  0  0  0  0  0  0  # atno 10763 bound_to 10752
  153.0944  135.6668  153.9800 H   0  0  0  0  0  0  0  0  0  0  0  0  # atno 10764 bound_to 10752
  153.9602  135.3048  155.3413 H   0  0  0  0  0  0  0  0  0  0  0  0  # atno 10765 bound_to 10752
  141.1539  133.7772  156.9916 H   0  0  0  0  0  0  0  0  0  0  0  0  # atno 11005 bound_to 11000
  146.2860  139.7006  142.9195 LP  0  0  0  0  0  0  0  0  0  0  0  0  # atno 17320 bound_to 7965
  145.4313  141.0415  143.2909 LP  0  0  0  0  0  0  0  0  0  0  0  0  # atno 17321 bound_to 7965
  140.4704  144.1594  150.5917 LP  0  0  0  0  0  0  0  0  0  0  0  0  # atno 17342 bound_to 10162
  140.4388  143.2535  151.9500 LP  0  0  0  0  0  0  0  0  0  0  0  0  # atno 17343 bound_to 10162
  156.9731  130.9841  151.3454 LP  0  0  0  0  0  0  0  0  0  0  0  0  # atno 17370 bound_to 10713
  157.5651  130.8272  149.8316 LP  0  0  0  0  0  0  0  0  0  0  0  0  # atno 17371 bound_to 10713
  140.0999  134.9541  157.1907 LP  0  0  0  0  0  0  0  0  0  0  0  0  # atno 17394 bound_to 11000
  140.3332  134.2786  155.7224 LP  0  0  0  0  0  0  0  0  0  0  0  0  # atno 17395 bound_to 11000

$$$$
