AV-unprocessed.smi:2379|AV-procd|sdf|9451|dock2
  -GOLD-   2272013 83D 1   1.00000     0.00000
 Structure written by MMmdl.
 53 55  0  0  0  0  0  0  0  0  2 V2000
  148.8360  130.7520  153.3553 C   0  0  0  0  0  0  0  0  0  0  0  0
  149.6749  131.7965  154.0613 C   0  0  0  0  0  0  0  0  0  0  0  0
  150.6337  131.4249  155.0231 C   0  0  0  0  0  0  0  0  0  0  0  0
  151.3817  132.4442  155.6445 C   0  0  0  0  0  0  0  0  0  0  0  0
  152.4278  132.1165  156.6892 C   0  0  0  0  0  0  0  0  0  0  0  0
  151.2199  133.7544  155.3605 N   0  0  0  0  0  0  0  0  0  0  0  0
  150.2988  134.1237  154.4364 C   0  0  0  0  0  0  0  0  0  0  0  0
  150.0509  135.4721  154.0663 N   0  0  0  0  0  0  0  0  0  0  0  0
  150.3355  136.5896  154.7577 C   0  0  0  0  0  0  0  0  0  0  0  0
  150.8765  136.6277  155.8633 O   0  0  0  0  0  0  0  0  0  0  0  0
  149.9591  137.6859  154.0832 N   0  0  0  0  0  0  0  0  0  0  0  0
  150.1380  139.0596  154.5444 C   0  0  2  0  0  0  0  0  0  0  0  0
  151.5266  139.2153  155.1864 C   0  0  0  0  0  0  0  0  0  0  0  0
  151.7142  140.6197  155.7851 C   0  0  0  0  0  0  0  0  0  0  0  0
  150.6442  140.9282  156.7683 N   0  3  1  0  0  0  0  0  0  0  0  0
  150.8702  142.2048  157.4937 C   0  0  0  0  0  0  0  0  0  0  0  0
  151.6839  141.9926  158.7844 C   0  0  2  0  0  0  0  0  0  0  0  0
  152.2928  143.2450  159.3861 C   0  0  0  0  0  0  0  0  0  0  0  0
  153.3896  142.6744  160.2812 C   0  0  0  0  0  0  0  0  0  0  0  0
  153.7940  141.4507  159.6739 O   0  0  0  0  0  0  0  0  0  0  0  0
  152.9375  141.1428  158.5794 C   0  0  0  0  0  0  0  0  0  0  0  0
  149.2967  140.8402  156.1482 C   0  0  0  0  0  0  0  0  0  0  0  0
  149.0490  139.4396  155.5655 C   0  0  0  0  0  0  0  0  0  0  0  0
  149.5059  133.1645  153.7672 C   0  0  0  0  0  0  0  0  0  0  0  0
  149.1909  129.7446  153.5752 H   0  0  0  0  0  0  0  0  0  0  0  0
  148.8764  130.8982  152.2757 H   0  0  0  0  0  0  0  0  0  0  0  0
  147.7963  130.8263  153.6745 H   0  0  0  0  0  0  0  0  0  0  0  0
  150.7912  130.3869  155.2783 H   0  0  0  0  0  0  0  0  0  0  0  0
  152.5835  131.0403  156.7688 H   0  0  0  0  0  0  0  0  0  0  0  0
  152.1162  132.4895  157.6651 H   0  0  0  0  0  0  0  0  0  0  0  0
  153.3813  132.5790  156.4325 H   0  0  0  0  0  0  0  0  0  0  0  0
  149.6123  135.5993  153.1663 H   0  0  0  0  0  0  0  0  0  0  0  0
  149.5193  137.5602  153.1831 H   0  0  0  0  0  0  0  0  0  0  0  0
  150.0779  139.7358  153.6892 H   0  0  0  0  0  0  0  0  0  0  0  0
  151.6579  138.4695  155.9723 H   0  0  0  0  0  0  0  0  0  0  0  0
  152.3047  139.0241  154.4465 H   0  0  0  0  0  0  0  0  0  0  0  0
  152.6884  140.6691  156.2732 H   0  0  0  0  0  0  0  0  0  0  0  0
  151.7146  141.3721  154.9948 H   0  0  0  0  0  0  0  0  0  0  0  0
  151.4337  142.8900  156.8584 H   0  0  0  0  0  0  0  0  0  0  0  0
  149.9241  142.7084  157.7000 H   0  0  0  0  0  0  0  0  0  0  0  0
  151.0596  141.5050  159.5354 H   0  0  0  0  0  0  0  0  0  0  0  0
  152.7356  143.8670  158.6065 H   0  0  0  0  0  0  0  0  0  0  0  0
  151.5749  143.8501  159.9410 H   0  0  0  0  0  0  0  0  0  0  0  0
  154.2302  143.3597  160.3939 H   0  0  0  0  0  0  0  0  0  0  0  0
  152.9964  142.4542  161.2747 H   0  0  0  0  0  0  0  0  0  0  0  0
  152.7176  140.0758  158.5356 H   0  0  0  0  0  0  0  0  0  0  0  0
  153.4466  141.4209  157.6553 H   0  0  0  0  0  0  0  0  0  0  0  0
  148.5269  141.0628  156.8861 H   0  0  0  0  0  0  0  0  0  0  0  0
  149.2051  141.5929  155.3632 H   0  0  0  0  0  0  0  0  0  0  0  0
  148.0642  139.4088  155.0973 H   0  0  0  0  0  0  0  0  0  0  0  0
  149.0277  138.7093  156.3760 H   0  0  0  0  0  0  0  0  0  0  0  0
  148.7743  133.4717  153.0336 H   0  0  0  0  0  0  0  0  0  0  0  0
  150.6926  140.1993  157.4658 H   0  0  0  0  0  0  0  0  0  0  0  0
  1  2  1  0  0  0  0
  1 25  1  0  0  0  0
  1 26  1  0  0  0  0
  1 27  1  0  0  0  0
  2 24  1  0  0  0  0
  2  3  2  0  0  0  0
  3  4  1  0  0  0  0
  3 28  1  0  0  0  0
  4  5  1  0  0  0  0
  4  6  2  0  0  0  0
  5 29  1  0  0  0  0
  5 30  1  0  0  0  0
  5 31  1  0  0  0  0
  6  7  1  0  0  0  0
  7  8  1  0  0  0  0
  7 24  2  0  0  0  0
  8  9  1  0  0  0  0
  8 32  1  0  0  0  0
  9 10  2  0  0  0  0
  9 11  1  0  0  0  0
 11 12  1  0  0  0  0
 11 33  1  0  0  0  0
 12 23  1  0  0  0  0
 12 13  1  0  0  0  0
 12 34  1  0  0  0  0
 13 14  1  0  0  0  0
 13 35  1  0  0  0  0
 13 36  1  0  0  0  0
 14 15  1  0  0  0  0
 14 37  1  0  0  0  0
 14 38  1  0  0  0  0
 15 16  1  0  0  0  0
 15 22  1  0  0  0  0
 15 53  1  0  0  0  0
 16 17  1  0  0  0  0
 16 39  1  0  0  0  0
 16 40  1  0  0  0  0
 17 21  1  0  0  0  0
 17 18  1  0  0  0  0
 17 41  1  0  0  0  0
 18 19  1  0  0  0  0
 18 42  1  0  0  0  0
 18 43  1  0  0  0  0
 19 20  1  0  0  0  0
 19 44  1  0  0  0  0
 19 45  1  0  0  0  0
 20 21  1  0  0  0  0
 21 46  1  0  0  0  0
 21 47  1  0  0  0  0
 22 23  1  0  0  0  0
 22 48  1  0  0  0  0
 22 49  1  0  0  0  0
 23 50  1  0  0  0  0
 23 51  1  0  0  0  0
 24 52  1  0  0  0  0
M  CHG  1  15   1
M  END
> <s_m_source_file>
AV-unprocessed.smi

> <i_m_source_file_index>
2379

> <i_lp_mmshare_version>
43012

> <i_f3d_flags>
0

> <s_epik_input>
W0NIM11jMVtjSF1jKFtDSDNdKW5jKFtjSF0xKVtOSF1DKD1PKVtOSF1bQ0hdMltDSDJdW0NIMl1OKFtDSDJdW0NIMl0yKVtDSDJdW0NAQEhdM1tDSDJdW0NIMl1PW0NIMl0z

> <s_epik_cmdline>
J2VwaWtfcHl0aG9uJywgJy1waCcsICc3LjAnLCAnLXRuJywgJzgnLCAnLW1hJywgJzIwMCcsICctbWV0YWxfYmluZGluZycsICctaW1hZScsICc8aW5maWxlLm1hZT4nLCAnLW9tYWUnLCAnPG91dGZpbGUubWFlPic=

> <r_epik_Ionization_Penalty>
0.00766556

> <r_epik_Ionization_Penalty_Charging>
0.00747775

> <r_epik_Ionization_Penalty_Neutral>
0.00018781

> <r_epik_State_Penalty>
0.00558817

> <r_epik_Charging_Adjusted_Penalty>
0.0130659

> <i_epik_Tot_Q>
1

> <i_epik_Tot_abs_Q>
1

> <r_epik_Metal_State_Penalty>
-0

> <b_epik_Metal_Only>
0

> <s_lp_Force_Field>
OPLS_2005

> <r_lp_Energy>
36.075

> <b_lp_Chiralities_Consistent>
1

> <s_lp_Variant>
AV-unprocessed.smi:2379-1

> <Gold.Version>
5.8.1

> <Gold.Id.Protein>
6NUR|6NUR_protein|mol2

> <Gold.PLP.Fitness>
45.8149

> <Gold.PLP.PLP>
-41.8916

> <Gold.PLP.part.hbond>
-2.6982

> <Gold.PLP.part.metal>
0.0000

> <Gold.PLP.part.buried>
-4.5208

> <Gold.PLP.part.nonpolar>
-35.8104

> <Gold.PLP.part.repulsive>
0.1724

> <Gold.PLP.ligand.clash>
0.0000

> <Gold.PLP.ligand.torsion>
0.9069

> <Gold.PLP.Chemscore.Hbond>
1.8960

> <Gold.PLP.Chemscore.CHOScore>
0.0000

> <Gold.PLP.Chemscore.Metal>
0.0000

> <Gold.Chemscore.Hbonds>
donor molecule, donor type, donor heavy atom, donor atom, acceptor molecule, acceptor atom, score
      L1  H     8    32       P1  7948  0.50
      L1  H    11    33       P1  7948  0.90

> <Gold.PLP.Chemscore.Internal.Correction>
0.0492

> <Gold.Rescore>
     Score         DG    S(hbond)    S(metal)    S(lipo)     H(rot)  DE(clash)    DE(int)     intcor
     16.05     -19.64       1.61        0.00     105.00       1.37       0.02       3.57       ----

> <Gold.Chemscore.Fitness>
16.0514

> <Gold.Chemscore.DG>
-19.6387

> <Gold.Chemscore.ZeroCoef>
-5.4800

> <Gold.Chemscore.Hbond>
1.6130

> <Gold.Chemscore.Metal>
0.0000

> <Gold.Chemscore.Lipo>
104.9989

> <Gold.Chemscore.Internal_Hbond>
0.0000

> <Gold.Chemscore.DEClash>
0.0163

> <Gold.Chemscore.DEInternal>
3.5709

> <Gold.Chemscore.Rot>
1.3725

> <Gold.Chemscore.Internal.Correction>
   9.000000E+99

> <Gold.Chemscore.Hbonds>
donor molecule, donor type, donor heavy atom, donor atom, acceptor molecule, acceptor atom, score
      L1  H     8    32       P1  7948  0.02
      L1  H    11    33       P1  7948  0.76

> <Gold.Chemscore.Hbond.Weighted>
-5.3874

> <Gold.Chemscore.Metal.Weighted>
-0.0000

> <Gold.Chemscore.Lipo.Weighted>
-12.2849

> <Gold.Chemscore.Internal_Hbond.Weighted>
0.0000

> <Gold.Chemscore.DEClash.Weighted>
0.0163

> <Gold.Chemscore.DEInternal.Weighted>
3.5709

> <Gold.Chemscore.Rot.Weighted>
3.5136

> <Gold.Chemscore.Internal.Correction.Weighted>
   9.000000E+99

> <Gold.Protein.RotatedTorsions>
[ 6907 6896 6895 6894 ] final  -18.02 input  -60.11 | X-H torsion
[ 7974 7965 7964 7962 ] final  121.74 input  175.53 | X-H torsion
[ 8008 7997 7996 7995 ] final  -10.05 input   59.86 | X-H torsion
[ 10167 10162 10161 10158 ] final   74.45 input  -65.29 | X-H torsion
[ 10718 10713 10712 10709 ] final  112.45 input   66.30 | X-H torsion
[ 10763 10752 10751 10750 ] final -136.18 input  -60.55 | X-H torsion
[ 11005 11000 10999 10996 ] final   -9.64 input  -57.11 | X-H torsion

> <Gold.Protein.ActiveResidues>
 VAL166  LYS551  ARG553  GLY616  TRP617  ASP618  TYR619  PRO620  LYS621  CYS622 
 ASP623  PHE694  ASN695  SER759  ASP760  ASP761  ALA762  ILE779  LEU786  VAL792 
 PHE793  MET794  SER795  GLU796  ALA797  LYS798  CYS799  TRP800  GLU811  SER814 

> <Gold.Protein.RotatedAtoms>
  151.2844  135.0723  159.9181 H   0  0  0  0  0  0  0  0  0  0  0  0  # atno 6907 bound_to 6896
  152.5328  133.9997  159.7899 H   0  0  0  0  0  0  0  0  0  0  0  0  # atno 6908 bound_to 6896
  151.0256  133.5786  159.2697 H   0  0  0  0  0  0  0  0  0  0  0  0  # atno 6909 bound_to 6896
  145.1157  139.3422  143.4740 H   0  0  0  0  0  0  0  0  0  0  0  0  # atno 7974 bound_to 7965
  154.5590  140.2339  155.8365 H   0  0  0  0  0  0  0  0  0  0  0  0  # atno 8008 bound_to 7997
  156.2013  140.3051  155.9492 H   0  0  0  0  0  0  0  0  0  0  0  0  # atno 8009 bound_to 7997
  155.2925  140.0427  157.3014 H   0  0  0  0  0  0  0  0  0  0  0  0  # atno 8010 bound_to 7997
  140.0136  144.5595  150.7638 H   0  0  0  0  0  0  0  0  0  0  0  0  # atno 10167 bound_to 10162
  157.6392  131.0968  150.6897 H   0  0  0  0  0  0  0  0  0  0  0  0  # atno 10718 bound_to 10713
  154.8689  135.3680  154.5018 H   0  0  0  0  0  0  0  0  0  0  0  0  # atno 10763 bound_to 10752
  153.5659  135.7022  153.5531 H   0  0  0  0  0  0  0  0  0  0  0  0  # atno 10764 bound_to 10752
  153.3586  135.4052  155.1664 H   0  0  0  0  0  0  0  0  0  0  0  0  # atno 10765 bound_to 10752
  140.7363  133.8707  155.8932 H   0  0  0  0  0  0  0  0  0  0  0  0  # atno 11005 bound_to 11000
  146.3524  140.1095  142.8604 LP  0  0  0  0  0  0  0  0  0  0  0  0  # atno 17320 bound_to 7965
  145.0796  140.9212  143.4833 LP  0  0  0  0  0  0  0  0  0  0  0  0  # atno 17321 bound_to 7965
  140.7371  143.2761  151.3737 LP  0  0  0  0  0  0  0  0  0  0  0  0  # atno 17342 bound_to 10162
  139.6188  144.0949  152.2371 LP  0  0  0  0  0  0  0  0  0  0  0  0  # atno 17343 bound_to 10162
  156.7223  130.4684  149.5520 LP  0  0  0  0  0  0  0  0  0  0  0  0  # atno 17370 bound_to 10713
  156.1657  130.6404  151.0775 LP  0  0  0  0  0  0  0  0  0  0  0  0  # atno 17371 bound_to 10713
  140.9876  134.1321  157.4437 LP  0  0  0  0  0  0  0  0  0  0  0  0  # atno 17394 bound_to 11000
  139.8815  135.0030  156.6163 LP  0  0  0  0  0  0  0  0  0  0  0  0  # atno 17395 bound_to 11000

$$$$
