AV-unprocessed.smi:3031|AV-procd|sdf|11542|dock7
  -GOLD-   2272016493D 1   1.00000     0.00000
 Structure written by MMmdl.
 47 48  0  0  0  0  0  0  0  0  2 V2000
  152.1119  140.2692  158.9577 C   0  0  0  0  0  0  0  0  0  0  0  0
  151.3449  140.3632  157.6704 C   0  0  0  0  0  0  0  0  0  0  0  0
  150.6113  141.4751  157.1668 C   0  0  0  0  0  0  0  0  0  0  0  0
  150.0528  141.2324  155.9919 N   0  0  0  0  0  0  0  0  0  0  0  0
  150.4081  139.9615  155.7060 N   0  0  0  0  0  0  0  0  0  0  0  0
  149.9851  139.3571  154.4558 C   0  0  0  0  0  0  0  0  0  0  0  0
  148.4501  139.3452  154.2818 C   0  0  1  0  0  0  0  0  0  0  0  0
  147.8868  140.7705  154.3579 C   0  0  0  0  0  0  0  0  0  0  0  0
  148.0589  138.7317  152.9917 N   0  3  0  0  0  0  0  0  0  0  0  0
  146.6170  138.4349  152.8474 C   0  0  0  0  0  0  0  0  0  0  0  0
  146.3786  137.3164  151.8190 C   0  0  2  0  0  0  0  0  0  0  0  0
  146.2819  137.9261  150.5468 O   0  0  0  0  0  0  0  0  0  0  0  0
  145.0856  136.4949  152.0208 C   0  0  0  0  0  0  0  0  0  0  0  0
  144.9215  135.3416  151.1301 N   0  0  0  0  0  0  0  0  0  0  0  0
  146.1455  134.5487  151.0005 C   0  0  0  0  0  0  0  0  0  0  0  0
  145.9509  133.3400  150.0691 C   0  0  0  0  0  0  0  0  0  0  0  0
  144.8890  132.5287  150.5581 O   0  0  0  0  0  0  0  0  0  0  0  0
  143.6635  133.2431  150.6749 C   0  0  0  0  0  0  0  0  0  0  0  0
  143.8602  134.4552  151.6023 C   0  0  0  0  0  0  0  0  0  0  0  0
  151.1831  139.4111  156.7042 C   0  0  0  0  0  0  0  0  0  0  0  0
  151.9756  141.1556  159.5775 H   0  0  0  0  0  0  0  0  0  0  0  0
  153.1820  140.1634  158.7799 H   0  0  0  0  0  0  0  0  0  0  0  0
  151.7977  139.4111  159.5517 H   0  0  0  0  0  0  0  0  0  0  0  0
  150.4736  142.4477  157.6162 H   0  0  0  0  0  0  0  0  0  0  0  0
  150.4474  139.9209  153.6444 H   0  0  0  0  0  0  0  0  0  0  0  0
  150.3869  138.3440  154.3946 H   0  0  0  0  0  0  0  0  0  0  0  0
  148.0014  138.7772  155.0987 H   0  0  0  0  0  0  0  0  0  0  0  0
  148.1308  141.2388  155.3119 H   0  0  0  0  0  0  0  0  0  0  0  0
  146.8003  140.7692  154.2630 H   0  0  0  0  0  0  0  0  0  0  0  0
  148.2902  141.4016  153.5653 H   0  0  0  0  0  0  0  0  0  0  0  0
  148.3070  139.3678  152.2472 H   0  0  0  0  0  0  0  0  0  0  0  0
  146.2498  138.1215  153.8182 H   0  0  0  0  0  0  0  0  0  0  0  0
  146.0747  139.3414  152.5748 H   0  0  0  0  0  0  0  0  0  0  0  0
  147.2332  136.6383  151.8044 H   0  0  0  0  0  0  0  0  0  0  0  0
  145.5167  138.4815  150.5366 H   0  0  0  0  0  0  0  0  0  0  0  0
  144.9767  136.1933  153.0638 H   0  0  0  0  0  0  0  0  0  0  0  0
  144.2597  137.1855  151.8405 H   0  0  0  0  0  0  0  0  0  0  0  0
  146.9677  135.1475  150.6208 H   0  0  0  0  0  0  0  0  0  0  0  0
  146.4589  134.1918  151.9831 H   0  0  0  0  0  0  0  0  0  0  0  0
  145.7299  133.6664  149.0519 H   0  0  0  0  0  0  0  0  0  0  0  0
  146.8626  132.7442  150.0246 H   0  0  0  0  0  0  0  0  0  0  0  0
  143.3248  133.5624  149.6880 H   0  0  0  0  0  0  0  0  0  0  0  0
  142.8994  132.5774  151.0769 H   0  0  0  0  0  0  0  0  0  0  0  0
  144.0890  134.1058  152.6106 H   0  0  0  0  0  0  0  0  0  0  0  0
  142.9205  135.0046  151.6687 H   0  0  0  0  0  0  0  0  0  0  0  0
  151.5594  138.4005  156.6412 H   0  0  0  0  0  0  0  0  0  0  0  0
  148.5855  137.8783  152.8705 H   0  0  0  0  0  0  0  0  0  0  0  0
  1  2  1  0  0  0  0
  1 21  1  0  0  0  0
  1 22  1  0  0  0  0
  1 23  1  0  0  0  0
  2 20  2  0  0  0  0
  2  3  1  0  0  0  0
  3  4  2  0  0  0  0
  3 24  1  0  0  0  0
  4  5  1  0  0  0  0
  5  6  1  0  0  0  0
  5 20  1  0  0  0  0
  6  7  1  0  0  0  0
  6 25  1  0  0  0  0
  6 26  1  0  0  0  0
  7  8  1  0  0  0  0
  7  9  1  0  0  0  0
  7 27  1  0  0  0  0
  8 28  1  0  0  0  0
  8 29  1  0  0  0  0
  8 30  1  0  0  0  0
  9 10  1  0  0  0  0
  9 31  1  0  0  0  0
  9 47  1  0  0  0  0
 10 11  1  0  0  0  0
 10 32  1  0  0  0  0
 10 33  1  0  0  0  0
 11 12  1  0  0  0  0
 11 13  1  0  0  0  0
 11 34  1  0  0  0  0
 12 35  1  0  0  0  0
 13 14  1  0  0  0  0
 13 36  1  0  0  0  0
 13 37  1  0  0  0  0
 14 19  1  0  0  0  0
 14 15  1  0  0  0  0
 15 16  1  0  0  0  0
 15 38  1  0  0  0  0
 15 39  1  0  0  0  0
 16 17  1  0  0  0  0
 16 40  1  0  0  0  0
 16 41  1  0  0  0  0
 17 18  1  0  0  0  0
 18 19  1  0  0  0  0
 18 42  1  0  0  0  0
 18 43  1  0  0  0  0
 19 44  1  0  0  0  0
 19 45  1  0  0  0  0
 20 46  1  0  0  0  0
M  CHG  1   9   1
M  END
> <s_m_source_file>
AV-unprocessed.smi

> <i_m_source_file_index>
3031

> <i_lp_mmshare_version>
43012

> <i_f3d_flags>
0

> <s_epik_input>
W0NIM11jMVtjSF1ubihbY0hdMSlbQ0gyXVtDQEhdKFtDSDNdKVtOSF1bQ0gyXVtDQEhdKFtPSF0pW0NIMl1OMltDSDJdW0NIMl1PW0NIMl1bQ0gyXTI=

> <s_epik_cmdline>
J2VwaWtfcHl0aG9uJywgJy1waCcsICc3LjAnLCAnLXRuJywgJzgnLCAnLW1hJywgJzIwMCcsICctbWV0YWxfYmluZGluZycsICctaW1hZScsICc8aW5maWxlLm1hZT4nLCAnLW9tYWUnLCAnPG91dGZpbGUubWFlPic=

> <r_lp_tautomer_probability>
1

> <r_epik_Ionization_Penalty>
0.108564

> <r_epik_Ionization_Penalty_Charging>
0.01811

> <r_epik_Ionization_Penalty_Neutral>
0.0904541

> <r_epik_State_Penalty>
0.141043

> <r_epik_Charging_Adjusted_Penalty>
0.159153

> <i_epik_Tot_Q>
1

> <i_epik_Tot_abs_Q>
1

> <r_epik_Metal_State_Penalty>
0.141052

> <b_epik_Metal_Only>
0

> <s_lp_Force_Field>
OPLS_2005

> <r_lp_Energy>
29.6303

> <b_lp_Chiralities_Consistent>
1

> <s_lp_Variant>
AV-unprocessed.smi:3031-2

> <Gold.Version>
5.8.1

> <Gold.Id.Protein>
6NUR|6NUR_protein|mol2

> <Gold.PLP.Fitness>
52.9236

> <Gold.PLP.PLP>
-37.7619

> <Gold.PLP.part.hbond>
-4.7558

> <Gold.PLP.part.metal>
0.0000

> <Gold.PLP.part.buried>
-0.3920

> <Gold.PLP.part.nonpolar>
-33.2302

> <Gold.PLP.part.repulsive>
0.4909

> <Gold.PLP.ligand.clash>
0.0000

> <Gold.PLP.ligand.torsion>
0.6328

> <Gold.PLP.Chemscore.Hbond>
4.6080

> <Gold.PLP.Chemscore.CHOScore>
0.8375

> <Gold.PLP.Chemscore.Metal>
0.0000

> <Gold.Chemscore.Hbonds>
donor molecule, donor type, donor heavy atom, donor atom, acceptor molecule, acceptor atom, score
      L1  H     9    31       P1  7957  0.98
      L1  H     9    47       P1  7948  2.00
      L1  H    12    35       P1 10171  0.83
      P1  H  7954  7966       L1    12  0.91

> <Gold.PLP.Chemscore.Internal.Correction>
0.0907

> <Gold.Rescore>
     Score         DG    S(hbond)    S(metal)    S(lipo)     H(rot)  DE(clash)    DE(int)     intcor
     18.12     -21.62       3.69        0.00      90.00       2.63       1.33       2.18       ----

> <Gold.Chemscore.Fitness>
18.1167

> <Gold.Chemscore.DG>
-21.6238

> <Gold.Chemscore.ZeroCoef>
-5.4800

> <Gold.Chemscore.Hbond>
3.6942

> <Gold.Chemscore.Metal>
0.0000

> <Gold.Chemscore.Lipo>
90.0028

> <Gold.Chemscore.Internal_Hbond>
0.0000

> <Gold.Chemscore.DEClash>
1.3266

> <Gold.Chemscore.DEInternal>
2.1806

> <Gold.Chemscore.Rot>
2.6270

> <Gold.Chemscore.Internal.Correction>
   9.000000E+99

> <Gold.Chemscore.Hbonds>
donor molecule, donor type, donor heavy atom, donor atom, acceptor molecule, acceptor atom, score
      L1  H     9    31       P1  7957  0.92
      L1  H     9    47       P1  7948  0.94
      L1  H    12    35       P1 10171  0.81
      P1  H  7954  7966       L1    12  0.35

> <Gold.Chemscore.Hbond.Weighted>
-12.3386

> <Gold.Chemscore.Metal.Weighted>
-0.0000

> <Gold.Chemscore.Lipo.Weighted>
-10.5303

> <Gold.Chemscore.Internal_Hbond.Weighted>
0.0000

> <Gold.Chemscore.DEClash.Weighted>
1.3266

> <Gold.Chemscore.DEInternal.Weighted>
2.1806

> <Gold.Chemscore.Rot.Weighted>
6.7251

> <Gold.Chemscore.Internal.Correction.Weighted>
   9.000000E+99

> <Gold.Protein.RotatedTorsions>
[ 6907 6896 6895 6894 ] final  -20.82 input  -60.11 | X-H torsion
[ 7974 7965 7964 7962 ] final  -41.36 input  175.53 | X-H torsion
[ 8008 7997 7996 7995 ] final    4.75 input   59.86 | X-H torsion
[ 10167 10162 10161 10158 ] final  -82.83 input  -65.29 | X-H torsion
[ 10718 10713 10712 10709 ] final  129.50 input   66.30 | X-H torsion
[ 10763 10752 10751 10750 ] final  -26.39 input  -60.55 | X-H torsion
[ 11005 11000 10999 10996 ] final  -91.32 input  -57.11 | X-H torsion

> <Gold.Protein.ActiveResidues>
 VAL166  LYS551  ARG553  GLY616  TRP617  ASP618  TYR619  PRO620  LYS621  CYS622 
 ASP623  PHE694  ASN695  SER759  ASP760  ASP761  ALA762  ILE779  LEU786  VAL792 
 PHE793  MET794  SER795  GLU796  ALA797  LYS798  CYS799  TRP800  GLU811  SER814 

> <Gold.Protein.RotatedAtoms>
  151.2425  135.0594  159.9030 H   0  0  0  0  0  0  0  0  0  0  0  0  # atno 6907 bound_to 6896
  152.5391  134.0419  159.8081 H   0  0  0  0  0  0  0  0  0  0  0  0  # atno 6908 bound_to 6896
  151.0615  133.5491  159.2665 H   0  0  0  0  0  0  0  0  0  0  0  0  # atno 6909 bound_to 6896
  146.0218  140.6840  142.9174 H   0  0  0  0  0  0  0  0  0  0  0  0  # atno 7974 bound_to 7965
  154.7198  140.2709  155.6552 H   0  0  0  0  0  0  0  0  0  0  0  0  # atno 8008 bound_to 7997
  156.2820  140.2736  156.1791 H   0  0  0  0  0  0  0  0  0  0  0  0  # atno 8009 bound_to 7997
  155.0522  140.0371  157.2537 H   0  0  0  0  0  0  0  0  0  0  0  0  # atno 8010 bound_to 7997
  140.4284  143.2558  151.8794 H   0  0  0  0  0  0  0  0  0  0  0  0  # atno 10167 bound_to 10162
  157.5149  131.1097  150.9240 H   0  0  0  0  0  0  0  0  0  0  0  0  # atno 10718 bound_to 10713
  153.7152  135.6948  153.5027 H   0  0  0  0  0  0  0  0  0  0  0  0  # atno 10763 bound_to 10752
  153.2243  135.4359  155.0523 H   0  0  0  0  0  0  0  0  0  0  0  0  # atno 10764 bound_to 10752
  154.8302  135.3468  154.6688 H   0  0  0  0  0  0  0  0  0  0  0  0  # atno 10765 bound_to 10752
  141.1547  133.7748  156.9863 H   0  0  0  0  0  0  0  0  0  0  0  0  # atno 11005 bound_to 11000
  144.6993  140.3580  143.7169 LP  0  0  0  0  0  0  0  0  0  0  0  0  # atno 17320 bound_to 7965
  145.7181  139.1702  143.2500 LP  0  0  0  0  0  0  0  0  0  0  0  0  # atno 17321 bound_to 7965
  139.4784  144.5362  151.8595 LP  0  0  0  0  0  0  0  0  0  0  0  0  # atno 17342 bound_to 10162
  140.4455  144.1927  150.5894 LP  0  0  0  0  0  0  0  0  0  0  0  0  # atno 17343 bound_to 10162
  156.9868  130.5548  149.5300 LP  0  0  0  0  0  0  0  0  0  0  0  0  # atno 17370 bound_to 10713
  156.0313  130.5404  150.8542 LP  0  0  0  0  0  0  0  0  0  0  0  0  # atno 17371 bound_to 10713
  140.1032  134.9522  157.1955 LP  0  0  0  0  0  0  0  0  0  0  0  0  # atno 17394 bound_to 11000
  140.3290  134.2831  155.7231 LP  0  0  0  0  0  0  0  0  0  0  0  0  # atno 17395 bound_to 11000

$$$$
