AV-unprocessed.smi:304|AV-procd|sdf|2278|dock10
  -GOLD-   2262022173D 1   1.00000     0.00000
 Structure written by MMmdl.
 37 39  0  0  0  0  0  0  0  0  2 V2000
  152.1212  138.1748  159.5919 O   0  0  0  0  0  0  0  0  0  0  0  0
  151.1390  138.5417  158.6436 C   0  0  2  0  0  0  0  0  0  0  0  0
  150.2882  137.3079  158.3008 C   0  0  0  0  0  0  0  0  0  0  0  0
  149.9233  136.6400  159.4966 O   0  0  0  0  0  0  0  0  0  0  0  0
  148.6160  136.0944  159.4604 C   0  0  0  0  0  0  0  0  0  0  0  0
  148.2587  135.6680  160.8502 C   0  0  0  0  0  0  0  0  0  0  0  0
  148.1411  136.4779  161.9511 C   0  0  0  0  0  0  0  0  0  0  0  0
  147.7805  135.7719  163.1363 C   0  0  0  0  0  0  0  0  0  0  0  0
  147.6217  134.4283  162.9268 C   0  0  0  0  0  0  0  0  0  0  0  0
  147.9134  134.0024  161.2636 S   0  0  0  0  0  0  0  0  0  0  0  0
  151.7600  139.2209  157.4049 C   0  0  0  0  0  0  0  0  0  0  0  0
  151.2934  140.6011  157.2131 N   0  0  0  0  0  0  0  0  0  0  0  0
  150.5035  141.1241  156.2365 C   0  0  0  0  0  0  0  0  0  0  0  0
  150.3653  142.4554  156.4886 N   0  3  0  0  0  0  0  0  0  0  0  0
  151.0773  142.7882  157.6433 C   0  0  0  0  0  0  0  0  0  0  0  0
  151.2395  144.0068  158.2943 C   0  0  0  0  0  0  0  0  0  0  0  0
  152.0333  144.0038  159.4602 C   0  0  0  0  0  0  0  0  0  0  0  0
  152.2230  145.1635  160.1330 F   0  0  0  0  0  0  0  0  0  0  0  0
  152.6302  142.8180  159.9385 C   0  0  0  0  0  0  0  0  0  0  0  0
  153.3818  142.8589  161.0639 F   0  0  0  0  0  0  0  0  0  0  0  0
  152.4590  141.5883  159.2692 C   0  0  0  0  0  0  0  0  0  0  0  0
  151.6749  141.6011  158.1158 C   0  0  0  0  0  0  0  0  0  0  0  0
  152.8743  138.7328  159.4745 H   0  0  0  0  0  0  0  0  0  0  0  0
  150.4934  139.2632  159.1457 H   0  0  0  0  0  0  0  0  0  0  0  0
  149.4049  137.5905  157.7255 H   0  0  0  0  0  0  0  0  0  0  0  0
  150.8734  136.6271  157.6810 H   0  0  0  0  0  0  0  0  0  0  0  0
  147.9052  136.8391  159.0997 H   0  0  0  0  0  0  0  0  0  0  0  0
  148.5784  135.2379  158.7862 H   0  0  0  0  0  0  0  0  0  0  0  0
  148.3013  137.5458  161.9468 H   0  0  0  0  0  0  0  0  0  0  0  0
  147.6514  136.2674  164.0872 H   0  0  0  0  0  0  0  0  0  0  0  0
  147.3518  133.6668  163.6435 H   0  0  0  0  0  0  0  0  0  0  0  0
  152.8491  139.2211  157.4494 H   0  0  0  0  0  0  0  0  0  0  0  0
  151.4956  138.6621  156.5065 H   0  0  0  0  0  0  0  0  0  0  0  0
  150.0680  140.5823  155.4092 H   0  0  0  0  0  0  0  0  0  0  0  0
  150.7837  144.9167  157.9326 H   0  0  0  0  0  0  0  0  0  0  0  0
  152.9172  140.6867  159.6484 H   0  0  0  0  0  0  0  0  0  0  0  0
  149.8256  143.0883  155.9117 H   0  0  0  0  0  0  0  0  0  0  0  0
  1  2  1  0  0  0  0
  1 23  1  0  0  0  0
  2  3  1  0  0  0  0
  2 11  1  0  0  0  0
  2 24  1  0  0  0  0
  3  4  1  0  0  0  0
  3 25  1  0  0  0  0
  3 26  1  0  0  0  0
  4  5  1  0  0  0  0
  5  6  1  0  0  0  0
  5 27  1  0  0  0  0
  5 28  1  0  0  0  0
  6 10  1  0  0  0  0
  6  7  2  0  0  0  0
  7  8  1  0  0  0  0
  7 29  1  0  0  0  0
  8  9  2  0  0  0  0
  8 30  1  0  0  0  0
  9 10  1  0  0  0  0
  9 31  1  0  0  0  0
 11 12  1  0  0  0  0
 11 32  1  0  0  0  0
 11 33  1  0  0  0  0
 12 22  1  0  0  0  0
 12 13  1  0  0  0  0
 13 14  2  0  0  0  0
 13 34  1  0  0  0  0
 14 15  1  0  0  0  0
 14 37  1  0  0  0  0
 15 22  2  0  0  0  0
 15 16  1  0  0  0  0
 16 17  2  0  0  0  0
 16 35  1  0  0  0  0
 17 18  1  0  0  0  0
 17 19  1  0  0  0  0
 19 20  1  0  0  0  0
 19 21  2  0  0  0  0
 21 22  1  0  0  0  0
 21 36  1  0  0  0  0
M  CHG  1  14   1
M  END
> <s_m_source_file>
AV-unprocessed.smi

> <i_m_source_file_index>
304

> <i_lp_mmshare_version>
43012

> <i_f3d_flags>
0

> <s_epik_input>
W2NIXTFjKEYpYyhGKVtjSF1jKGMxMiluKFtjSF1uMilbQ0gyXVtDQEhdKFtPSF0pW0NIMl1PW0NIMl1jM1tjSF1bY0hdW2NIXXMz

> <s_epik_cmdline>
J2VwaWtfcHl0aG9uJywgJy1waCcsICc3LjAnLCAnLXRuJywgJzgnLCAnLW1hJywgJzIwMCcsICctbWV0YWxfYmluZGluZycsICctaW1hZScsICc8aW5maWxlLm1hZT4nLCAnLW9tYWUnLCAnPG91dGZpbGUubWFlPic=

> <r_epik_Ionization_Penalty>
2.17745

> <r_epik_Ionization_Penalty_Charging>
2.17744

> <r_epik_Ionization_Penalty_Neutral>
1.26231e-06

> <r_epik_State_Penalty>
2.31922

> <r_epik_Charging_Adjusted_Penalty>
4.49666

> <i_epik_Tot_Q>
1

> <i_epik_Tot_abs_Q>
1

> <r_epik_Metal_State_Penalty>
6.40003

> <b_epik_Metal_Only>
0

> <s_lp_Force_Field>
OPLS_2005

> <r_lp_Energy>
12.8656

> <b_lp_Chiralities_Consistent>
1

> <s_lp_Variant>
AV-unprocessed.smi:304-3

> <Gold.Version>
5.8.1

> <Gold.Id.Protein>
6NUR|6NUR_protein|mol2

> <Gold.PLP.Fitness>
60.4796

> <Gold.PLP.PLP>
-53.7337

> <Gold.PLP.part.hbond>
-1.9840

> <Gold.PLP.part.metal>
0.0000

> <Gold.PLP.part.buried>
-7.4813

> <Gold.PLP.part.nonpolar>
-45.1469

> <Gold.PLP.part.repulsive>
0.0736

> <Gold.PLP.ligand.clash>
0.0000

> <Gold.PLP.ligand.torsion>
1.1721

> <Gold.PLP.Chemscore.Hbond>
3.0000

> <Gold.PLP.Chemscore.CHOScore>
0.0000

> <Gold.PLP.Chemscore.Metal>
0.0000

> <Gold.Chemscore.Hbonds>
donor molecule, donor type, donor heavy atom, donor atom, acceptor molecule, acceptor atom, score
      L1  H    14    37       P1  8028  2.00
      P1  H  6896  6909       L1     4  0.85

> <Gold.PLP.Chemscore.Internal.Correction>
0.0902

> <Gold.Rescore>
     Score         DG    S(hbond)    S(metal)    S(lipo)     H(rot)  DE(clash)    DE(int)     intcor
     15.82     -17.15       1.60        0.00     113.64       2.73       0.01       1.33       ----

> <Gold.Chemscore.Fitness>
15.8187

> <Gold.Chemscore.DG>
-17.1516

> <Gold.Chemscore.ZeroCoef>
-5.4800

> <Gold.Chemscore.Hbond>
1.6028

> <Gold.Chemscore.Metal>
0.0000

> <Gold.Chemscore.Lipo>
113.6436

> <Gold.Chemscore.Internal_Hbond>
0.0000

> <Gold.Chemscore.DEClash>
0.0074

> <Gold.Chemscore.DEInternal>
1.3255

> <Gold.Chemscore.Rot>
2.7258

> <Gold.Chemscore.Internal.Correction>
   9.000000E+99

> <Gold.Chemscore.Hbonds>
donor molecule, donor type, donor heavy atom, donor atom, acceptor molecule, acceptor atom, score
      L1  H    14    37       P1  8028  0.95
      P1  H  6896  6909       L1     4  0.12

> <Gold.Chemscore.Hbond.Weighted>
-5.3534

> <Gold.Chemscore.Metal.Weighted>
-0.0000

> <Gold.Chemscore.Lipo.Weighted>
-13.2963

> <Gold.Chemscore.Internal_Hbond.Weighted>
0.0000

> <Gold.Chemscore.DEClash.Weighted>
0.0074

> <Gold.Chemscore.DEInternal.Weighted>
1.3255

> <Gold.Chemscore.Rot.Weighted>
6.9781

> <Gold.Chemscore.Internal.Correction.Weighted>
   9.000000E+99

> <Gold.Protein.RotatedTorsions>
[ 6907 6896 6895 6894 ] final   75.25 input  -60.11 | X-H torsion
[ 7974 7965 7964 7962 ] final  130.05 input  175.53 | X-H torsion
[ 8008 7997 7996 7995 ] final  131.44 input   59.86 | X-H torsion
[ 10167 10162 10161 10158 ] final   61.46 input  -65.29 | X-H torsion
[ 10718 10713 10712 10709 ] final   72.20 input   66.30 | X-H torsion
[ 10763 10752 10751 10750 ] final  -29.76 input  -60.55 | X-H torsion
[ 11005 11000 10999 10996 ] final  -96.03 input  -57.11 | X-H torsion

> <Gold.Protein.ActiveResidues>
 VAL166  LYS551  ARG553  GLY616  TRP617  ASP618  TYR619  PRO620  LYS621  CYS622 
 ASP623  PHE694  ASN695  SER759  ASP760  ASP761  ALA762  ILE779  LEU786  VAL792 
 PHE793  MET794  SER795  GLU796  ALA797  LYS798  CYS799  TRP800  GLU811  SER814 

> <Gold.Protein.RotatedAtoms>
  152.5017  134.4148  159.9460 H   0  0  0  0  0  0  0  0  0  0  0  0  # atno 6907 bound_to 6896
  151.4118  133.3719  159.2752 H   0  0  0  0  0  0  0  0  0  0  0  0  # atno 6908 bound_to 6896
  150.9286  134.8724  159.7596 H   0  0  0  0  0  0  0  0  0  0  0  0  # atno 6909 bound_to 6896
  145.0221  139.4122  143.5192 H   0  0  0  0  0  0  0  0  0  0  0  0  # atno 7974 bound_to 7965
  156.2970  140.2571  156.2926 H   0  0  0  0  0  0  0  0  0  0  0  0  # atno 8008 bound_to 7997
  154.9495  140.0394  157.2155 H   0  0  0  0  0  0  0  0  0  0  0  0  # atno 8009 bound_to 7997
  154.8050  140.2834  155.5899 H   0  0  0  0  0  0  0  0  0  0  0  0  # atno 8010 bound_to 7997
  140.1545  144.4430  150.6741 H   0  0  0  0  0  0  0  0  0  0  0  0  # atno 10167 bound_to 10162
  157.6489  130.9567  150.0896 H   0  0  0  0  0  0  0  0  0  0  0  0  # atno 10718 bound_to 10713
  153.7699  135.6913  153.4908 H   0  0  0  0  0  0  0  0  0  0  0  0  # atno 10763 bound_to 10752
  153.1881  135.4481  155.0113 H   0  0  0  0  0  0  0  0  0  0  0  0  # atno 10764 bound_to 10752
  154.8121  135.3382  154.7209 H   0  0  0  0  0  0  0  0  0  0  0  0  # atno 10765 bound_to 10752
  141.1424  133.8068  157.0516 H   0  0  0  0  0  0  0  0  0  0  0  0  # atno 11005 bound_to 11000
  146.3487  139.9724  142.8705 LP  0  0  0  0  0  0  0  0  0  0  0  0  # atno 17320 bound_to 7965
  145.1882  140.9799  143.4226 LP  0  0  0  0  0  0  0  0  0  0  0  0  # atno 17321 bound_to 7965
  140.6682  143.2275  151.5692 LP  0  0  0  0  0  0  0  0  0  0  0  0  # atno 17342 bound_to 10162
  139.5410  144.2648  152.1350 LP  0  0  0  0  0  0  0  0  0  0  0  0  # atno 17343 bound_to 10162
  156.1849  130.3652  149.8986 LP  0  0  0  0  0  0  0  0  0  0  0  0  # atno 17370 bound_to 10713
  156.6929  130.8903  151.3590 LP  0  0  0  0  0  0  0  0  0  0  0  0  # atno 17371 bound_to 10713
  140.0628  134.9745  157.1335 LP  0  0  0  0  0  0  0  0  0  0  0  0  # atno 17394 bound_to 11000
  140.3823  134.2274  155.7170 LP  0  0  0  0  0  0  0  0  0  0  0  0  # atno 17395 bound_to 11000

$$$$
