AV-unprocessed.smi:170|AV-procd|sdf|1410|dock1
  -GOLD-   2262019163D 1   1.00000     0.00000
 Structure written by MMmdl.
 57 61  0  0  0  0  0  0  0  0  1 V2000
  153.6828  140.2384  158.7253 O   0  0  0  0  0  0  0  0  0  0  0  0
  152.5971  140.7011  159.5066 C   0  0  2  0  0  0  0  0  0  0  0  0
  151.2580  140.4513  158.7858 C   0  0  0  0  0  0  0  0  0  0  0  0
  150.9087  139.0425  158.7468 N   0  0  0  0  0  0  0  0  0  0  0  0
  151.4703  138.0358  159.4984 C   0  0  0  0  0  0  0  0  0  0  0  0
  150.9913  136.8428  159.2744 N   0  0  0  0  0  0  0  0  0  0  0  0
  150.0289  137.0418  158.2911 C   0  0  0  0  0  0  0  0  0  0  0  0
  149.1392  136.1884  157.5774 C   0  0  0  0  0  0  0  0  0  0  0  0
  149.0609  134.8467  157.7272 N   0  0  0  0  0  0  0  0  0  0  0  0
  149.5466  134.1638  156.5343 C   0  0  0  0  0  0  0  0  0  0  0  0
  149.6351  132.6529  156.7872 C   0  0  0  0  0  0  0  0  0  0  0  0
  148.3591  132.1760  157.1930 O   0  0  0  0  0  0  0  0  0  0  0  0
  147.9259  132.7790  158.4076 C   0  0  0  0  0  0  0  0  0  0  0  0
  147.7910  134.3098  158.2328 C   0  0  1  0  0  0  0  0  0  0  0  0
  147.3399  134.9969  159.5490 C   0  0  0  0  0  0  0  0  0  0  0  0
  147.7996  134.2884  160.8255 C   0  0  0  0  0  0  0  0  0  0  0  0
  147.0708  133.0117  161.2813 C   0  0  0  0  0  0  0  0  0  0  0  0
  146.2703  133.8693  162.2628 C   0  0  0  0  0  0  0  0  0  0  0  0
  147.3993  134.8989  162.1786 C   0  0  0  0  0  0  0  0  0  0  0  0
  148.3040  136.7542  156.6718 N   0  0  0  0  0  0  0  0  0  0  0  0
  148.3445  138.0728  156.4582 C   0  0  0  0  0  0  0  0  0  0  0  0
  149.1264  138.9891  157.0340 N   0  0  0  0  0  0  0  0  0  0  0  0
  149.9589  138.4228  157.9544 C   0  0  0  0  0  0  0  0  0  0  0  0
  152.8051  142.1801  159.8892 C   0  0  1  0  0  0  0  0  0  0  0  0
  152.6787  143.2018  158.7462 C   0  0  0  0  0  0  0  0  0  0  0  0
  151.7447  144.2634  159.3061 C   0  0  0  0  0  0  0  0  0  0  0  0
  151.7702  144.0028  160.8075 C   0  0  0  0  0  0  0  0  0  0  0  0
  151.8756  142.5915  160.8846 O   0  0  0  0  0  0  0  0  0  0  0  0
  154.4232  140.1018  159.2969 H   0  0  0  0  0  0  0  0  0  0  0  0
  152.6069  140.1143  160.4258 H   0  0  0  0  0  0  0  0  0  0  0  0
  150.4533  140.9892  159.2883 H   0  0  0  0  0  0  0  0  0  0  0  0
  151.2938  140.8301  157.7637 H   0  0  0  0  0  0  0  0  0  0  0  0
  152.2543  138.2153  160.2196 H   0  0  0  0  0  0  0  0  0  0  0  0
  148.8725  134.3612  155.6993 H   0  0  0  0  0  0  0  0  0  0  0  0
  150.5281  134.5491  156.2541 H   0  0  0  0  0  0  0  0  0  0  0  0
  149.9361  132.1351  155.8764 H   0  0  0  0  0  0  0  0  0  0  0  0
  150.3837  132.4260  157.5480 H   0  0  0  0  0  0  0  0  0  0  0  0
  146.9675  132.3339  158.6722 H   0  0  0  0  0  0  0  0  0  0  0  0
  148.6226  132.5364  159.2118 H   0  0  0  0  0  0  0  0  0  0  0  0
  147.0327  134.4802  157.4698 H   0  0  0  0  0  0  0  0  0  0  0  0
  147.6974  136.0272  159.5540 H   0  0  0  0  0  0  0  0  0  0  0  0
  146.2530  135.0710  159.5786 H   0  0  0  0  0  0  0  0  0  0  0  0
  148.8764  134.1178  160.8151 H   0  0  0  0  0  0  0  0  0  0  0  0
  146.4644  132.5199  160.5206 H   0  0  0  0  0  0  0  0  0  0  0  0
  147.7328  132.3044  161.7838 H   0  0  0  0  0  0  0  0  0  0  0  0
  145.3321  134.2324  161.8392 H   0  0  0  0  0  0  0  0  0  0  0  0
  146.1270  133.4253  163.2480 H   0  0  0  0  0  0  0  0  0  0  0  0
  148.1578  134.7557  162.9499 H   0  0  0  0  0  0  0  0  0  0  0  0
  147.0636  135.9355  162.1338 H   0  0  0  0  0  0  0  0  0  0  0  0
  147.6536  138.4470  155.7170 H   0  0  0  0  0  0  0  0  0  0  0  0
  153.7981  142.2874  160.3293 H   0  0  0  0  0  0  0  0  0  0  0  0
  153.6556  143.6250  158.5104 H   0  0  0  0  0  0  0  0  0  0  0  0
  152.2777  142.7761  157.8261 H   0  0  0  0  0  0  0  0  0  0  0  0
  152.0467  145.2786  159.0474 H   0  0  0  0  0  0  0  0  0  0  0  0
  150.7359  144.1035  158.9240 H   0  0  0  0  0  0  0  0  0  0  0  0
  152.6452  144.4625  161.2697 H   0  0  0  0  0  0  0  0  0  0  0  0
  150.8780  144.3691  161.3153 H   0  0  0  0  0  0  0  0  0  0  0  0
  1  2  1  0  0  0  0
  1 29  1  0  0  0  0
  2  3  1  0  0  0  0
  2 24  1  0  0  0  0
  2 30  1  0  0  0  0
  3  4  1  0  0  0  0
  3 31  1  0  0  0  0
  3 32  1  0  0  0  0
  4 23  1  0  0  0  0
  4  5  1  0  0  0  0
  5  6  2  0  0  0  0
  5 33  1  0  0  0  0
  6  7  1  0  0  0  0
  7 23  2  0  0  0  0
  7  8  1  0  0  0  0
  8  9  1  0  0  0  0
  8 20  2  0  0  0  0
  9 14  1  0  0  0  0
  9 10  1  0  0  0  0
 10 11  1  0  0  0  0
 10 34  1  0  0  0  0
 10 35  1  0  0  0  0
 11 12  1  0  0  0  0
 11 36  1  0  0  0  0
 11 37  1  0  0  0  0
 12 13  1  0  0  0  0
 13 14  1  0  0  0  0
 13 38  1  0  0  0  0
 13 39  1  0  0  0  0
 14 15  1  0  0  0  0
 14 40  1  0  0  0  0
 15 16  1  0  0  0  0
 15 41  1  0  0  0  0
 15 42  1  0  0  0  0
 16 19  1  0  0  0  0
 16 17  1  0  0  0  0
 16 43  1  0  0  0  0
 17 18  1  0  0  0  0
 17 44  1  0  0  0  0
 17 45  1  0  0  0  0
 18 19  1  0  0  0  0
 18 46  1  0  0  0  0
 18 47  1  0  0  0  0
 19 48  1  0  0  0  0
 19 49  1  0  0  0  0
 20 21  1  0  0  0  0
 21 22  2  0  0  0  0
 21 50  1  0  0  0  0
 22 23  1  0  0  0  0
 24 28  1  0  0  0  0
 24 25  1  0  0  0  0
 24 51  1  0  0  0  0
 25 26  1  0  0  0  0
 25 52  1  0  0  0  0
 25 53  1  0  0  0  0
 26 27  1  0  0  0  0
 26 54  1  0  0  0  0
 26 55  1  0  0  0  0
 27 28  1  0  0  0  0
 27 56  1  0  0  0  0
 27 57  1  0  0  0  0
M  END
> <s_m_source_file>
AV-unprocessed.smi

> <i_m_source_file_index>
170

> <i_lp_mmshare_version>
43012

> <i_f3d_flags>
0

> <s_epik_input>
TzFbQ0gyXVtDSDJdW0NIMl1bQ0BIXTFbQ0BIXShbT0hdKVtDSDJdbihbY0hdbjIpYyhjMjMpbltjSF1uYzNONFtDSDJdW0NIMl1PW0NIMl1bQ0BIXTRbQ0gyXVtDSF01W0NIMl1bQ0gyXVtDSDJdNQ==

> <s_epik_cmdline>
J2VwaWtfcHl0aG9uJywgJy1waCcsICc3LjAnLCAnLXRuJywgJzgnLCAnLW1hJywgJzIwMCcsICctbWV0YWxfYmluZGluZycsICctaW1hZScsICc8aW5maWxlLm1hZT4nLCAnLW9tYWUnLCAnPG91dGZpbGUubWFlPic=

> <r_lp_tautomer_probability>
1

> <r_epik_Ionization_Penalty>
4.98275e-05

> <r_epik_Ionization_Penalty_Charging>
0

> <r_epik_Ionization_Penalty_Neutral>
4.98275e-05

> <r_epik_State_Penalty>
-0

> <r_epik_Charging_Adjusted_Penalty>
0

> <i_epik_Tot_Q>
0

> <i_epik_Tot_abs_Q>
0

> <r_epik_Metal_State_Penalty>
-0

> <b_epik_Metal_Only>
0

> <s_lp_Force_Field>
OPLS_2005

> <r_lp_Energy>
54.4618

> <b_lp_Chiralities_Consistent>
1

> <s_lp_Variant>
AV-unprocessed.smi:170-5

> <Gold.Version>
5.8.1

> <Gold.Id.Protein>
6NUR|6NUR_protein|mol2

> <Gold.PLP.Fitness>
49.8228

> <Gold.PLP.PLP>
-43.3019

> <Gold.PLP.part.hbond>
-3.8498

> <Gold.PLP.part.metal>
0.0000

> <Gold.PLP.part.buried>
-5.4580

> <Gold.PLP.part.nonpolar>
-34.6919

> <Gold.PLP.part.repulsive>
0.0650

> <Gold.PLP.ligand.clash>
0.0000

> <Gold.PLP.ligand.torsion>
0.9079

> <Gold.PLP.Chemscore.Hbond>
2.6713

> <Gold.PLP.Chemscore.CHOScore>
0.0000

> <Gold.PLP.Chemscore.Metal>
0.0000

> <Gold.Chemscore.Hbonds>
donor molecule, donor type, donor heavy atom, donor atom, acceptor molecule, acceptor atom, score
      P1  H  6896  6907       L1     9  0.05
      P1  H  6896  6908       L1     6  0.60
      P1  H  6933  6945       L1    28  0.01
      P1  H  7997  8009       L1     1  0.40

> <Gold.PLP.Chemscore.Internal.Correction>
0.3230

> <Gold.Rescore>
     Score         DG    S(hbond)    S(metal)    S(lipo)     H(rot)  DE(clash)    DE(int)     intcor
     17.23     -18.35       1.83        0.00     114.86       2.61       0.29       0.84       ----

> <Gold.Chemscore.Fitness>
17.2284

> <Gold.Chemscore.DG>
-18.3536

> <Gold.Chemscore.ZeroCoef>
-5.4800

> <Gold.Chemscore.Hbond>
1.8347

> <Gold.Chemscore.Metal>
0.0000

> <Gold.Chemscore.Lipo>
114.8613

> <Gold.Chemscore.Internal_Hbond>
0.0000

> <Gold.Chemscore.DEClash>
0.2860

> <Gold.Chemscore.DEInternal>
0.8392

> <Gold.Chemscore.Rot>
2.6144

> <Gold.Chemscore.Internal.Correction>
   9.000000E+99

> <Gold.Chemscore.Hbonds>
donor molecule, donor type, donor heavy atom, donor atom, acceptor molecule, acceptor atom, score
      P1  H  6896  6907       L1     9  0.01
      P1  H  6896  6908       L1     6  0.56
      P1  H  6933  6945       L1    28  0.02
      P1  H  7997  8009       L1     1  0.01

> <Gold.Chemscore.Hbond.Weighted>
-6.1277

> <Gold.Chemscore.Metal.Weighted>
-0.0000

> <Gold.Chemscore.Lipo.Weighted>
-13.4388

> <Gold.Chemscore.Internal_Hbond.Weighted>
0.0000

> <Gold.Chemscore.DEClash.Weighted>
0.2860

> <Gold.Chemscore.DEInternal.Weighted>
0.8392

> <Gold.Chemscore.Rot.Weighted>
6.6929

> <Gold.Chemscore.Internal.Correction.Weighted>
   9.000000E+99

> <Gold.Protein.RotatedTorsions>
[ 6907 6896 6895 6894 ] final -103.60 input  -60.11 | X-H torsion
[ 7974 7965 7964 7962 ] final  -13.78 input  175.53 | X-H torsion
[ 8008 7997 7996 7995 ] final  136.40 input   59.86 | X-H torsion
[ 10167 10162 10161 10158 ] final -115.48 input  -65.29 | X-H torsion
[ 10718 10713 10712 10709 ] final   70.30 input   66.30 | X-H torsion
[ 10763 10752 10751 10750 ] final  -84.85 input  -60.55 | X-H torsion
[ 11005 11000 10999 10996 ] final   21.54 input  -57.11 | X-H torsion

> <Gold.Protein.ActiveResidues>
 VAL166  LYS551  ARG553  GLY616  TRP617  ASP618  TYR619  PRO620  LYS621  CYS622 
 ASP623  PHE694  ASN695  SER759  ASP760  ASP761  ALA762  ILE779  LEU786  VAL792 
 PHE793  MET794  SER795  GLU796  ALA797  LYS798  CYS799  TRP800  GLU811  SER814 

> <Gold.Protein.RotatedAtoms>
  150.7248  134.0404  159.3763 H   0  0  0  0  0  0  0  0  0  0  0  0  # atno 6907 bound_to 6896
  151.8377  135.0598  160.0453 H   0  0  0  0  0  0  0  0  0  0  0  0  # atno 6908 bound_to 6896
  152.2886  133.5503  159.5579 H   0  0  0  0  0  0  0  0  0  0  0  0  # atno 6909 bound_to 6896
  146.2101  140.3253  142.8394 H   0  0  0  0  0  0  0  0  0  0  0  0  # atno 7974 bound_to 7965
  156.3004  140.2446  156.3739 H   0  0  0  0  0  0  0  0  0  0  0  0  # atno 8008 bound_to 7997
  154.8764  140.0414  157.1775 H   0  0  0  0  0  0  0  0  0  0  0  0  # atno 8009 bound_to 7997
  154.8742  140.2939  155.5467 H   0  0  0  0  0  0  0  0  0  0  0  0  # atno 8010 bound_to 7997
  140.0896  143.4712  152.1878 H   0  0  0  0  0  0  0  0  0  0  0  0  # atno 10167 bound_to 10162
  157.6392  130.9470  150.0632 H   0  0  0  0  0  0  0  0  0  0  0  0  # atno 10718 bound_to 10713
  154.6043  135.5506  153.7406 H   0  0  0  0  0  0  0  0  0  0  0  0  # atno 10763 bound_to 10752
  153.0168  135.6374  154.1670 H   0  0  0  0  0  0  0  0  0  0  0  0  # atno 10764 bound_to 10752
  154.1609  135.2897  155.3089 H   0  0  0  0  0  0  0  0  0  0  0  0  # atno 10765 bound_to 10752
  140.3905  134.1825  155.7662 H   0  0  0  0  0  0  0  0  0  0  0  0  # atno 11005 bound_to 11000
  144.8891  140.7500  143.5938 LP  0  0  0  0  0  0  0  0  0  0  0  0  # atno 17320 bound_to 7965
  145.3175  139.1799  143.4606 LP  0  0  0  0  0  0  0  0  0  0  0  0  # atno 17321 bound_to 7965
  139.5732  144.7474  151.3834 LP  0  0  0  0  0  0  0  0  0  0  0  0  # atno 17342 bound_to 10162
  140.7035  143.7571  150.7443 LP  0  0  0  0  0  0  0  0  0  0  0  0  # atno 17343 bound_to 10162
  156.1658  130.3645  149.9234 LP  0  0  0  0  0  0  0  0  0  0  0  0  # atno 17370 bound_to 10713
  156.7221  130.9011  151.3619 LP  0  0  0  0  0  0  0  0  0  0  0  0  # atno 17371 bound_to 10713
  141.1892  133.8242  157.0964 LP  0  0  0  0  0  0  0  0  0  0  0  0  # atno 17394 bound_to 11000
  140.0410  134.9854  157.0962 LP  0  0  0  0  0  0  0  0  0  0  0  0  # atno 17395 bound_to 11000

$$$$
