AV-unprocessed.smi:1019|AV-procd|sdf|4452|dock6
  -GOLD-   22720 2423D 1   1.00000     0.00000
 Structure written by MMmdl.
 43 45  0  0  0  0  0  0  0  0  1 V2000
  146.8988  140.2141  154.0505 C   0  0  0  0  0  0  0  0  0  0  0  0
  147.7137  141.0156  154.9593 N   0  0  0  0  0  0  0  0  0  0  0  0
  146.8749  141.8774  155.7974 C   0  0  0  0  0  0  0  0  0  0  0  0
  146.0231  142.8590  155.0106 C   0  0  0  0  0  0  0  0  0  0  0  0
  144.9294  143.5006  155.6292 C   0  0  0  0  0  0  0  0  0  0  0  0
  144.1395  144.4120  154.9018 C   0  0  0  0  0  0  0  0  0  0  0  0
  144.4396  144.6841  153.5530 C   0  0  0  0  0  0  0  0  0  0  0  0
  145.5295  144.0439  152.9318 C   0  0  0  0  0  0  0  0  0  0  0  0
  146.3196  143.1320  153.6586 C   0  0  0  0  0  0  0  0  0  0  0  0
  148.5755  140.1431  155.7593 C   0  0  0  0  0  0  0  0  0  0  0  0
  150.0914  140.3039  155.5126 C   0  0  1  0  0  0  0  0  0  0  0  0
  150.3558  140.1451  154.1314 O   0  0  0  0  0  0  0  0  0  0  0  0
  150.6023  141.6907  155.9509 C   0  0  0  0  0  0  0  0  0  0  0  0
  150.9867  141.7258  157.3510 N   0  0  0  0  0  0  0  0  0  0  0  0
  151.0403  140.6880  158.2081 C   0  0  0  0  0  0  0  0  0  0  0  0
  151.4220  140.9475  159.4556 N   0  0  0  0  0  0  0  0  0  0  0  0
  151.6472  142.3123  159.4010 C   0  0  0  0  0  0  0  0  0  0  0  0
  152.0764  143.2127  160.4023 C   0  0  0  0  0  0  0  0  0  0  0  0
  152.2376  144.5831  160.1092 C   0  0  0  0  0  0  0  0  0  0  0  0
  151.9731  145.0735  158.8139 C   0  0  0  0  0  0  0  0  0  0  0  0
  151.5450  144.1956  157.7996 C   0  0  0  0  0  0  0  0  0  0  0  0
  151.3849  142.8295  158.0965 C   0  0  0  0  0  0  0  0  0  0  0  0
  147.5267  139.5880  153.4158 H   0  0  0  0  0  0  0  0  0  0  0  0
  146.3044  140.8454  153.3896 H   0  0  0  0  0  0  0  0  0  0  0  0
  146.2185  139.5634  154.6014 H   0  0  0  0  0  0  0  0  0  0  0  0
  146.2389  141.2699  156.4429 H   0  0  0  0  0  0  0  0  0  0  0  0
  147.4966  142.4794  156.4591 H   0  0  0  0  0  0  0  0  0  0  0  0
  144.6966  143.2956  156.6640 H   0  0  0  0  0  0  0  0  0  0  0  0
  143.3038  144.9025  155.3789 H   0  0  0  0  0  0  0  0  0  0  0  0
  143.8343  145.3835  152.9955 H   0  0  0  0  0  0  0  0  0  0  0  0
  145.7597  144.2522  151.8974 H   0  0  0  0  0  0  0  0  0  0  0  0
  147.1550  142.6459  153.1763 H   0  0  0  0  0  0  0  0  0  0  0  0
  148.3462  140.2483  156.8211 H   0  0  0  0  0  0  0  0  0  0  0  0
  148.3167  139.1125  155.5128 H   0  0  0  0  0  0  0  0  0  0  0  0
  150.6392  139.5382  156.0643 H   0  0  0  0  0  0  0  0  0  0  0  0
  149.6913  140.6088  153.6446 H   0  0  0  0  0  0  0  0  0  0  0  0
  151.4570  141.9929  155.3436 H   0  0  0  0  0  0  0  0  0  0  0  0
  149.8283  142.4437  155.7968 H   0  0  0  0  0  0  0  0  0  0  0  0
  150.7804  139.6860  157.8997 H   0  0  0  0  0  0  0  0  0  0  0  0
  152.2823  142.8486  161.3979 H   0  0  0  0  0  0  0  0  0  0  0  0
  152.5662  145.2615  160.8827 H   0  0  0  0  0  0  0  0  0  0  0  0
  152.0990  146.1246  158.5993 H   0  0  0  0  0  0  0  0  0  0  0  0
  151.3412  144.5670  156.8063 H   0  0  0  0  0  0  0  0  0  0  0  0
  1  2  1  0  0  0  0
  1 23  1  0  0  0  0
  1 24  1  0  0  0  0
  1 25  1  0  0  0  0
  2  3  1  0  0  0  0
  2 10  1  0  0  0  0
  3  4  1  0  0  0  0
  3 26  1  0  0  0  0
  3 27  1  0  0  0  0
  4  9  1  0  0  0  0
  4  5  2  0  0  0  0
  5  6  1  0  0  0  0
  5 28  1  0  0  0  0
  6  7  2  0  0  0  0
  6 29  1  0  0  0  0
  7  8  1  0  0  0  0
  7 30  1  0  0  0  0
  8  9  2  0  0  0  0
  8 31  1  0  0  0  0
  9 32  1  0  0  0  0
 10 11  1  0  0  0  0
 10 33  1  0  0  0  0
 10 34  1  0  0  0  0
 11 12  1  0  0  0  0
 11 13  1  0  0  0  0
 11 35  1  0  0  0  0
 12 36  1  0  0  0  0
 13 14  1  0  0  0  0
 13 37  1  0  0  0  0
 13 38  1  0  0  0  0
 14 22  1  0  0  0  0
 14 15  1  0  0  0  0
 15 16  2  0  0  0  0
 15 39  1  0  0  0  0
 16 17  1  0  0  0  0
 17 22  2  0  0  0  0
 17 18  1  0  0  0  0
 18 19  2  0  0  0  0
 18 40  1  0  0  0  0
 19 20  1  0  0  0  0
 19 41  1  0  0  0  0
 20 21  2  0  0  0  0
 20 42  1  0  0  0  0
 21 22  1  0  0  0  0
 21 43  1  0  0  0  0
M  END
> <s_m_source_file>
AV-unprocessed.smi

> <i_m_source_file_index>
1019

> <i_lp_mmshare_version>
43012

> <i_f3d_flags>
0

> <s_epik_input>
W2NIXTFbY0hdW2NIXVtjSF1bY0hdYzFbQ0gyXU4oW0NIM10pW0NIMl1bQ0BIXShbT0hdKVtDSDJdbihbY0hdbjIpYyhjMjMpW2NIXVtjSF1bY0hdW2NIXTM=

> <s_epik_cmdline>
J2VwaWtfcHl0aG9uJywgJy1waCcsICc3LjAnLCAnLXRuJywgJzgnLCAnLW1hJywgJzIwMCcsICctbWV0YWxfYmluZGluZycsICctaW1hZScsICc8aW5maWxlLm1hZT4nLCAnLW9tYWUnLCAnPG91dGZpbGUubWFlPic=

> <r_epik_Ionization_Penalty>
1.56741

> <r_epik_Ionization_Penalty_Charging>
0

> <r_epik_Ionization_Penalty_Neutral>
1.56741

> <r_epik_State_Penalty>
1.62466

> <r_epik_Charging_Adjusted_Penalty>
1.62466

> <i_epik_Tot_Q>
0

> <i_epik_Tot_abs_Q>
0

> <r_epik_Metal_State_Penalty>
1.58486

> <b_epik_Metal_Only>
0

> <s_lp_Force_Field>
OPLS_2005

> <r_lp_Energy>
22.9091

> <b_lp_Chiralities_Consistent>
1

> <s_lp_Variant>
AV-unprocessed.smi:1019-10

> <Gold.Version>
5.8.1

> <Gold.Id.Protein>
6NUR|6NUR_protein|mol2

> <Gold.PLP.Fitness>
50.8510

> <Gold.PLP.PLP>
-50.3423

> <Gold.PLP.part.hbond>
-1.7658

> <Gold.PLP.part.metal>
0.0000

> <Gold.PLP.part.buried>
-7.2446

> <Gold.PLP.part.nonpolar>
-41.0157

> <Gold.PLP.part.repulsive>
0.0940

> <Gold.PLP.ligand.clash>
0.0000

> <Gold.PLP.ligand.torsion>
1.3427

> <Gold.PLP.Chemscore.Hbond>
1.0000

> <Gold.PLP.Chemscore.CHOScore>
0.0000

> <Gold.PLP.Chemscore.Metal>
0.0000

> <Gold.Chemscore.Hbonds>
donor molecule, donor type, donor heavy atom, donor atom, acceptor molecule, acceptor atom, score
      P1  H  7989  7998       L1    12  0.85

> <Gold.PLP.Chemscore.Internal.Correction>
0.1942

> <Gold.Rescore>
     Score         DG    S(hbond)    S(metal)    S(lipo)     H(rot)  DE(clash)    DE(int)     intcor
     15.77     -17.45       0.76        0.00     130.37       2.27       0.26       1.42       ----

> <Gold.Chemscore.Fitness>
15.7669

> <Gold.Chemscore.DG>
-17.4537

> <Gold.Chemscore.ZeroCoef>
-5.4800

> <Gold.Chemscore.Hbond>
0.7556

> <Gold.Chemscore.Metal>
0.0000

> <Gold.Chemscore.Lipo>
130.3667

> <Gold.Chemscore.Internal_Hbond>
0.0000

> <Gold.Chemscore.DEClash>
0.2649

> <Gold.Chemscore.DEInternal>
1.4219

> <Gold.Chemscore.Rot>
2.2667

> <Gold.Chemscore.Internal.Correction>
   9.000000E+99

> <Gold.Chemscore.Hbonds>
donor molecule, donor type, donor heavy atom, donor atom, acceptor molecule, acceptor atom, score
      P1  H  7989  7998       L1    12  0.14

> <Gold.Chemscore.Hbond.Weighted>
-2.5237

> <Gold.Chemscore.Metal.Weighted>
-0.0000

> <Gold.Chemscore.Lipo.Weighted>
-15.2529

> <Gold.Chemscore.Internal_Hbond.Weighted>
0.0000

> <Gold.Chemscore.DEClash.Weighted>
0.2649

> <Gold.Chemscore.DEInternal.Weighted>
1.4219

> <Gold.Chemscore.Rot.Weighted>
5.8028

> <Gold.Chemscore.Internal.Correction.Weighted>
   9.000000E+99

> <Gold.Protein.RotatedTorsions>
[ 6907 6896 6895 6894 ] final  142.23 input  -60.11 | X-H torsion
[ 7974 7965 7964 7962 ] final -107.01 input  175.53 | X-H torsion
[ 8008 7997 7996 7995 ] final  -86.10 input   59.86 | X-H torsion
[ 10167 10162 10161 10158 ] final  151.94 input  -65.29 | X-H torsion
[ 10718 10713 10712 10709 ] final   69.41 input   66.30 | X-H torsion
[ 10763 10752 10751 10750 ] final   95.08 input  -60.55 | X-H torsion
[ 11005 11000 10999 10996 ] final -132.66 input  -57.11 | X-H torsion

> <Gold.Protein.ActiveResidues>
 VAL166  LYS551  ARG553  GLY616  TRP617  ASP618  TYR619  PRO620  LYS621  CYS622 
 ASP623  PHE694  ASN695  SER759  ASP760  ASP761  ALA762  ILE779  LEU786  VAL792 
 PHE793  MET794  SER795  GLU796  ALA797  LYS798  CYS799  TRP800  GLU811  SER814 

> <Gold.Protein.RotatedAtoms>
  152.2212  133.4985  159.5163 H   0  0  0  0  0  0  0  0  0  0  0  0  # atno 6907 bound_to 6896
  150.7013  134.1339  159.4089 H   0  0  0  0  0  0  0  0  0  0  0  0  # atno 6908 bound_to 6896
  151.9260  135.0277  160.0576 H   0  0  0  0  0  0  0  0  0  0  0  0  # atno 6909 bound_to 6896
  145.2106  140.9095  143.3316 H   0  0  0  0  0  0  0  0  0  0  0  0  # atno 7974 bound_to 7965
  154.6481  140.0583  156.9923 H   0  0  0  0  0  0  0  0  0  0  0  0  # atno 8008 bound_to 7997
  155.1414  140.3265  155.4433 H   0  0  0  0  0  0  0  0  0  0  0  0  # atno 8009 bound_to 7997
  156.2563  140.1963  156.6529 H   0  0  0  0  0  0  0  0  0  0  0  0  # atno 8010 bound_to 7997
  139.4836  144.5399  151.7582 H   0  0  0  0  0  0  0  0  0  0  0  0  # atno 10167 bound_to 10162
  157.6344  130.9424  150.0509 H   0  0  0  0  0  0  0  0  0  0  0  0  # atno 10718 bound_to 10713
  153.2490  135.4267  155.0778 H   0  0  0  0  0  0  0  0  0  0  0  0  # atno 10763 bound_to 10752
  154.8374  135.3421  154.6539 H   0  0  0  0  0  0  0  0  0  0  0  0  # atno 10764 bound_to 10752
  153.6961  135.7031  153.5133 H   0  0  0  0  0  0  0  0  0  0  0  0  # atno 10765 bound_to 10752
  140.9150  134.1518  157.4359 H   0  0  0  0  0  0  0  0  0  0  0  0  # atno 11005 bound_to 11000
  144.9859  139.3737  143.6239 LP  0  0  0  0  0  0  0  0  0  0  0  0  # atno 17320 bound_to 7965
  146.3398  139.9021  142.8793 LP  0  0  0  0  0  0  0  0  0  0  0  0  # atno 17321 bound_to 7965
  140.4937  144.1272  150.5955 LP  0  0  0  0  0  0  0  0  0  0  0  0  # atno 17342 bound_to 10162
  140.4142  143.2642  151.9796 LP  0  0  0  0  0  0  0  0  0  0  0  0  # atno 17343 bound_to 10162
  156.1571  130.3643  149.9352 LP  0  0  0  0  0  0  0  0  0  0  0  0  # atno 17370 bound_to 10713
  156.7359  130.9061  151.3629 LP  0  0  0  0  0  0  0  0  0  0  0  0  # atno 17371 bound_to 10713
  139.8764  134.9950  156.5723 LP  0  0  0  0  0  0  0  0  0  0  0  0  # atno 17394 bound_to 11000
  140.8061  133.8466  155.8769 LP  0  0  0  0  0  0  0  0  0  0  0  0  # atno 17395 bound_to 11000

$$$$
