AV-unprocessed.smi:2170|AV-procd|sdf|8824|dock3
  -GOLD-   2272012 13D 1   1.00000     0.00000
 Structure written by MMmdl.
 46 47  0  0  0  0  0  0  0  0  1 V2000
  151.4359  139.1830  158.4319 C   0  0  0  0  0  0  0  0  0  0  0  0
  151.7051  139.1055  156.9194 C   0  0  0  0  0  0  0  0  0  0  0  0
  151.1440  140.3221  156.1617 C   0  0  0  0  0  0  0  0  0  0  0  0
  151.2148  137.8266  156.3532 N   0  0  0  0  0  0  0  0  0  0  0  0
  151.1816  137.7504  154.8810 C   0  0  0  0  0  0  0  0  0  0  0  0
  151.6412  136.3714  157.2011 S   0  0  0  0  0  0  0  0  0  0  0  0
  153.0691  136.0958  156.9792 O   0  0  0  0  0  0  0  0  0  0  0  0
  151.0872  136.4232  158.5630 O   0  0  0  0  0  0  0  0  0  0  0  0
  150.7172  135.2277  156.2995 N   0  0  0  0  0  0  0  0  0  0  0  0
  150.8352  133.8004  156.5911 C   0  0  0  0  0  0  0  0  0  0  0  0
  150.0341  132.9405  155.6337 C   0  0  0  0  0  0  0  0  0  0  0  0
  149.7219  133.3968  154.3386 C   0  0  0  0  0  0  0  0  0  0  0  0
  148.9651  132.5683  153.4881 C   0  0  0  0  0  0  0  0  0  0  0  0
  148.5399  131.3017  153.9564 C   0  0  0  0  0  0  0  0  0  0  0  0
  147.7797  130.4546  153.1207 N   0  0  0  0  0  0  0  0  0  0  0  0
  148.2880  129.0939  152.9650 C   0  0  0  0  0  0  0  0  0  0  0  0
  147.5672  128.3817  151.8072 C   0  0  0  0  0  0  0  0  0  0  0  0
  146.1595  128.4251  152.0156 O   0  0  0  0  0  0  0  0  0  0  0  0
  145.6710  129.7618  152.0513 C   0  0  0  0  0  0  0  0  0  0  0  0
  146.3227  130.5212  153.2193 C   0  0  0  0  0  0  0  0  0  0  0  0
  148.8389  130.8709  155.2075 N   0  0  0  0  0  0  0  0  0  0  0  0
  149.5646  131.6689  156.0187 C   0  0  0  0  0  0  0  0  0  0  0  0
  151.9323  140.0512  158.8663 H   0  0  0  0  0  0  0  0  0  0  0  0
  151.8177  138.2992  158.9442 H   0  0  0  0  0  0  0  0  0  0  0  0
  150.3746  139.2728  158.6615 H   0  0  0  0  0  0  0  0  0  0  0  0
  152.7886  139.1277  156.8052 H   0  0  0  0  0  0  0  0  0  0  0  0
  151.6075  141.2433  156.5153 H   0  0  0  0  0  0  0  0  0  0  0  0
  150.0675  140.4282  156.2979 H   0  0  0  0  0  0  0  0  0  0  0  0
  151.3423  140.2469  155.0920 H   0  0  0  0  0  0  0  0  0  0  0  0
  152.1832  137.5777  154.4864 H   0  0  0  0  0  0  0  0  0  0  0  0
  150.7865  138.6637  154.4397 H   0  0  0  0  0  0  0  0  0  0  0  0
  150.5443  136.9303  154.5533 H   0  0  0  0  0  0  0  0  0  0  0  0
  150.6093  135.4597  155.3127 H   0  0  0  0  0  0  0  0  0  0  0  0
  151.8849  133.5158  156.5155 H   0  0  0  0  0  0  0  0  0  0  0  0
  150.5333  133.6131  157.6223 H   0  0  0  0  0  0  0  0  0  0  0  0
  150.0511  134.3691  154.0029 H   0  0  0  0  0  0  0  0  0  0  0  0
  148.7066  132.9193  152.5004 H   0  0  0  0  0  0  0  0  0  0  0  0
  149.3603  129.0810  152.7752 H   0  0  0  0  0  0  0  0  0  0  0  0
  148.1247  128.5497  153.8961 H   0  0  0  0  0  0  0  0  0  0  0  0
  147.8193  128.8419  150.8503 H   0  0  0  0  0  0  0  0  0  0  0  0
  147.8851  127.3405  151.7524 H   0  0  0  0  0  0  0  0  0  0  0  0
  145.8732  130.2604  151.1019 H   0  0  0  0  0  0  0  0  0  0  0  0
  144.5885  129.7411  152.1755 H   0  0  0  0  0  0  0  0  0  0  0  0
  146.0050  130.0888  154.1690 H   0  0  0  0  0  0  0  0  0  0  0  0
  145.9898  131.5597  153.2045 H   0  0  0  0  0  0  0  0  0  0  0  0
  149.7711  131.2808  157.0052 H   0  0  0  0  0  0  0  0  0  0  0  0
  1  2  1  0  0  0  0
  1 23  1  0  0  0  0
  1 24  1  0  0  0  0
  1 25  1  0  0  0  0
  2  3  1  0  0  0  0
  2  4  1  0  0  0  0
  2 26  1  0  0  0  0
  3 27  1  0  0  0  0
  3 28  1  0  0  0  0
  3 29  1  0  0  0  0
  4  5  1  0  0  0  0
  4  6  1  0  0  0  0
  5 30  1  0  0  0  0
  5 31  1  0  0  0  0
  5 32  1  0  0  0  0
  6  7  2  0  0  0  0
  6  8  2  0  0  0  0
  6  9  1  0  0  0  0
  9 10  1  0  0  0  0
  9 33  1  0  0  0  0
 10 11  1  0  0  0  0
 10 34  1  0  0  0  0
 10 35  1  0  0  0  0
 11 22  1  0  0  0  0
 11 12  2  0  0  0  0
 12 13  1  0  0  0  0
 12 36  1  0  0  0  0
 13 14  2  0  0  0  0
 13 37  1  0  0  0  0
 14 15  1  0  0  0  0
 14 21  1  0  0  0  0
 15 20  1  0  0  0  0
 15 16  1  0  0  0  0
 16 17  1  0  0  0  0
 16 38  1  0  0  0  0
 16 39  1  0  0  0  0
 17 18  1  0  0  0  0
 17 40  1  0  0  0  0
 17 41  1  0  0  0  0
 18 19  1  0  0  0  0
 19 20  1  0  0  0  0
 19 42  1  0  0  0  0
 19 43  1  0  0  0  0
 20 44  1  0  0  0  0
 20 45  1  0  0  0  0
 21 22  2  0  0  0  0
 22 46  1  0  0  0  0
M  END
> <s_m_source_file>
AV-unprocessed.smi

> <i_m_source_file_index>
2170

> <i_lp_mmshare_version>
43012

> <i_f3d_flags>
0

> <s_epik_input>
W0NIM11bQ0hdKFtDSDNdKU4oW0NIM10pUyg9TykoPU8pW05IXVtDSDJdYzFbY0hdW2NIXWMobltjSF0xKU4yW0NIMl1bQ0gyXU9bQ0gyXVtDSDJdMg==

> <s_epik_cmdline>
J2VwaWtfcHl0aG9uJywgJy1waCcsICc3LjAnLCAnLXRuJywgJzgnLCAnLW1hJywgJzIwMCcsICctbWV0YWxfYmluZGluZycsICctaW1hZScsICc8aW5maWxlLm1hZT4nLCAnLW9tYWUnLCAnPG91dGZpbGUubWFlPic=

> <r_lp_tautomer_probability>
1

> <r_epik_Ionization_Penalty>
0.00966832

> <r_epik_Ionization_Penalty_Charging>
0

> <r_epik_Ionization_Penalty_Neutral>
0.00966832

> <r_epik_State_Penalty>
0.00558185

> <r_epik_Charging_Adjusted_Penalty>
0.00558185

> <i_epik_Tot_Q>
0

> <i_epik_Tot_abs_Q>
0

> <r_epik_Metal_State_Penalty>
0.341978

> <b_epik_Metal_Only>
0

> <s_lp_Force_Field>
OPLS_2005

> <r_lp_Energy>
19.49

> <b_lp_Chiralities_Consistent>
1

> <s_lp_Variant>
AV-unprocessed.smi:2170-1

> <Gold.Version>
5.8.1

> <Gold.Id.Protein>
6NUR|6NUR_protein|mol2

> <Gold.PLP.Fitness>
37.9034

> <Gold.PLP.PLP>
-33.9485

> <Gold.PLP.part.hbond>
-2.0000

> <Gold.PLP.part.metal>
0.0000

> <Gold.PLP.part.buried>
-4.7367

> <Gold.PLP.part.nonpolar>
-28.3542

> <Gold.PLP.part.repulsive>
0.9392

> <Gold.PLP.ligand.clash>
0.0000

> <Gold.PLP.ligand.torsion>
1.4243

> <Gold.PLP.Chemscore.Hbond>
1.7360

> <Gold.PLP.Chemscore.CHOScore>
0.0000

> <Gold.PLP.Chemscore.Metal>
0.0000

> <Gold.Chemscore.Hbonds>
donor molecule, donor type, donor heavy atom, donor atom, acceptor molecule, acceptor atom, score
      P1  H  6896  6907       L1     8  0.77
      P1  H 10752 10763       L1     7  1.00

> <Gold.PLP.Chemscore.Internal.Correction>
1.5955

> <Gold.Rescore>
     Score         DG    S(hbond)    S(metal)    S(lipo)     H(rot)  DE(clash)    DE(int)     intcor
     12.94     -15.66       1.80        0.00      78.84       1.98       0.03       2.69       ----

> <Gold.Chemscore.Fitness>
12.9403

> <Gold.Chemscore.DG>
-15.6589

> <Gold.Chemscore.ZeroCoef>
-5.4800

> <Gold.Chemscore.Hbond>
1.8037

> <Gold.Chemscore.Metal>
0.0000

> <Gold.Chemscore.Lipo>
78.8394

> <Gold.Chemscore.Internal_Hbond>
0.0000

> <Gold.Chemscore.DEClash>
0.0272

> <Gold.Chemscore.DEInternal>
2.6914

> <Gold.Chemscore.Rot>
1.9803

> <Gold.Chemscore.Internal.Correction>
   9.000000E+99

> <Gold.Chemscore.Hbonds>
donor molecule, donor type, donor heavy atom, donor atom, acceptor molecule, acceptor atom, score
      P1  H  6896  6907       L1     8  0.78
      P1  H 10752 10763       L1     7  0.91

> <Gold.Chemscore.Hbond.Weighted>
-6.0243

> <Gold.Chemscore.Metal.Weighted>
-0.0000

> <Gold.Chemscore.Lipo.Weighted>
-9.2242

> <Gold.Chemscore.Internal_Hbond.Weighted>
0.0000

> <Gold.Chemscore.DEClash.Weighted>
0.0272

> <Gold.Chemscore.DEInternal.Weighted>
2.6914

> <Gold.Chemscore.Rot.Weighted>
5.0696

> <Gold.Chemscore.Internal.Correction.Weighted>
   9.000000E+99

> <Gold.Protein.RotatedTorsions>
[ 6907 6896 6895 6894 ] final  -26.58 input  -60.11 | X-H torsion
[ 7974 7965 7964 7962 ] final  120.61 input  175.53 | X-H torsion
[ 8008 7997 7996 7995 ] final    4.85 input   59.86 | X-H torsion
[ 10167 10162 10161 10158 ] final   21.90 input  -65.29 | X-H torsion
[ 10718 10713 10712 10709 ] final  110.95 input   66.30 | X-H torsion
[ 10763 10752 10751 10750 ] final  113.74 input  -60.55 | X-H torsion
[ 11005 11000 10999 10996 ] final  -92.45 input  -57.11 | X-H torsion

> <Gold.Protein.ActiveResidues>
 VAL166  LYS551  ARG553  GLY616  TRP617  ASP618  TYR619  PRO620  LYS621  CYS622 
 ASP623  PHE694  ASN695  SER759  ASP760  ASP761  ALA762  ILE779  LEU786  VAL792 
 PHE793  MET794  SER795  GLU796  ALA797  LYS798  CYS799  TRP800  GLU811  SER814 

> <Gold.Protein.RotatedAtoms>
  151.1590  135.0264  159.8701 H   0  0  0  0  0  0  0  0  0  0  0  0  # atno 6907 bound_to 6896
  152.5452  134.1301  159.8446 H   0  0  0  0  0  0  0  0  0  0  0  0  # atno 6908 bound_to 6896
  151.1395  133.4935  159.2630 H   0  0  0  0  0  0  0  0  0  0  0  0  # atno 6909 bound_to 6896
  145.1291  139.3339  143.4674 H   0  0  0  0  0  0  0  0  0  0  0  0  # atno 7974 bound_to 7965
  154.7211  140.2712  155.6541 H   0  0  0  0  0  0  0  0  0  0  0  0  # atno 8008 bound_to 7997
  156.2824  140.2734  156.1807 H   0  0  0  0  0  0  0  0  0  0  0  0  # atno 8009 bound_to 7997
  155.0506  140.0371  157.2532 H   0  0  0  0  0  0  0  0  0  0  0  0  # atno 8010 bound_to 7997
  140.5391  143.9709  150.6508 H   0  0  0  0  0  0  0  0  0  0  0  0  # atno 10167 bound_to 10162
  157.6469  131.0942  150.6677 H   0  0  0  0  0  0  0  0  0  0  0  0  # atno 10718 bound_to 10713
  153.4970  135.3646  155.2521 H   0  0  0  0  0  0  0  0  0  0  0  0  # atno 10763 bound_to 10752
  154.8749  135.3991  154.3522 H   0  0  0  0  0  0  0  0  0  0  0  0  # atno 10764 bound_to 10752
  153.4152  135.7079  153.6398 H   0  0  0  0  0  0  0  0  0  0  0  0  # atno 10765 bound_to 10752
  141.1521  133.7821  157.0021 H   0  0  0  0  0  0  0  0  0  0  0  0  # atno 11005 bound_to 11000
  146.3515  140.1283  142.8598 LP  0  0  0  0  0  0  0  0  0  0  0  0  # atno 17320 bound_to 7965
  145.0655  140.9118  143.4913 LP  0  0  0  0  0  0  0  0  0  0  0  0  # atno 17321 bound_to 7965
  140.3105  143.3201  152.0884 LP  0  0  0  0  0  0  0  0  0  0  0  0  # atno 17342 bound_to 10162
  139.4982  144.6639  151.6400 LP  0  0  0  0  0  0  0  0  0  0  0  0  # atno 17343 bound_to 10162
  156.6993  130.4618  149.5577 LP  0  0  0  0  0  0  0  0  0  0  0  0  # atno 17370 bound_to 10713
  156.1806  130.6496  151.0947 LP  0  0  0  0  0  0  0  0  0  0  0  0  # atno 17371 bound_to 10713
  140.0933  134.9579  157.1810 LP  0  0  0  0  0  0  0  0  0  0  0  0  # atno 17394 bound_to 11000
  140.3416  134.2697  155.7211 LP  0  0  0  0  0  0  0  0  0  0  0  0  # atno 17395 bound_to 11000

$$$$
