AV-unprocessed.smi:3253|AV-procd|sdf|12446|dock7
  -GOLD-   2272018343D 1   1.00000     0.00000
 Structure written by MMmdl.
 37 38  0  0  0  0  0  0  0  0  2 V2000
  148.8516  133.8763  156.5108 C   0  0  0  0  0  0  0  0  0  0  0  0
  149.5030  133.9054  155.1218 C   0  0  1  0  0  0  0  0  0  0  0  0
  148.6972  133.0641  154.1072 C   0  0  0  0  0  0  0  0  0  0  0  0
  147.2755  133.4231  154.0620 N   0  0  0  0  0  0  0  0  0  0  0  0
  146.7333  134.6370  153.7250 C   0  0  0  0  0  0  0  0  0  0  0  0
  145.3722  134.4925  153.8046 C   0  0  0  0  0  0  0  0  0  0  0  0
  145.1418  133.2005  154.1948 N   0  3  0  0  0  0  0  0  0  0  0  0
  146.3004  132.5532  154.3556 C   0  0  0  0  0  0  0  0  0  0  0  0
  149.6151  135.2953  154.6805 N   0  0  0  0  0  0  0  0  0  0  0  0
  150.1823  136.2942  155.3757 C   0  0  0  0  0  0  0  0  0  0  0  0
  150.6681  136.1458  156.4979 O   0  0  0  0  0  0  0  0  0  0  0  0
  150.2307  137.6668  154.6881 C   0  0  2  0  0  0  0  0  0  0  0  0
  151.6738  138.0361  154.2887 C   0  0  0  0  0  0  0  0  0  0  0  0
  152.0208  139.2010  155.2004 C   0  0  0  0  0  0  0  0  0  0  0  0
  153.1447  139.6980  155.2496 O   0  0  0  0  0  0  0  0  0  0  0  0
  150.9600  139.5771  155.9199 N   0  0  0  0  0  0  0  0  0  0  0  0
  150.9347  140.6490  156.9057 C   0  0  0  0  0  0  0  0  0  0  0  0
  149.7635  138.8117  155.6139 C   0  0  0  0  0  0  0  0  0  0  0  0
  148.7804  132.8561  156.8894 H   0  0  0  0  0  0  0  0  0  0  0  0
  147.8440  134.2930  156.4875 H   0  0  0  0  0  0  0  0  0  0  0  0
  149.4345  134.4523  157.2307 H   0  0  0  0  0  0  0  0  0  0  0  0
  150.4994  133.4725  155.2274 H   0  0  0  0  0  0  0  0  0  0  0  0
  149.0973  133.1962  153.1008 H   0  0  0  0  0  0  0  0  0  0  0  0
  148.7716  132.0005  154.3389 H   0  0  0  0  0  0  0  0  0  0  0  0
  147.3394  135.4882  153.4506 H   0  0  0  0  0  0  0  0  0  0  0  0
  144.5715  135.1931  153.6170 H   0  0  0  0  0  0  0  0  0  0  0  0
  146.4237  131.5267  154.6517 H   0  0  0  0  0  0  0  0  0  0  0  0
  149.2384  135.5126  153.7690 H   0  0  0  0  0  0  0  0  0  0  0  0
  149.5982  137.6408  153.7989 H   0  0  0  0  0  0  0  0  0  0  0  0
  152.3893  137.2226  154.4212 H   0  0  0  0  0  0  0  0  0  0  0  0
  151.7231  138.3615  153.2491 H   0  0  0  0  0  0  0  0  0  0  0  0
  151.3610  141.5645  156.4941 H   0  0  0  0  0  0  0  0  0  0  0  0
  151.5109  140.3667  157.7875 H   0  0  0  0  0  0  0  0  0  0  0  0
  149.9140  140.8661  157.2222 H   0  0  0  0  0  0  0  0  0  0  0  0
  149.0451  139.4543  155.1030 H   0  0  0  0  0  0  0  0  0  0  0  0
  149.2916  138.4564  156.5319 H   0  0  0  0  0  0  0  0  0  0  0  0
  144.2275  132.7901  154.3376 H   0  0  0  0  0  0  0  0  0  0  0  0
  1  2  1  0  0  0  0
  1 19  1  0  0  0  0
  1 20  1  0  0  0  0
  1 21  1  0  0  0  0
  2  3  1  0  0  0  0
  2  9  1  0  0  0  0
  2 22  1  0  0  0  0
  3  4  1  0  0  0  0
  3 23  1  0  0  0  0
  3 24  1  0  0  0  0
  4  8  1  0  0  0  0
  4  5  1  0  0  0  0
  5  6  2  0  0  0  0
  5 25  1  0  0  0  0
  6  7  1  0  0  0  0
  6 26  1  0  0  0  0
  7  8  2  0  0  0  0
  7 37  1  0  0  0  0
  8 27  1  0  0  0  0
  9 10  1  0  0  0  0
  9 28  1  0  0  0  0
 10 11  2  0  0  0  0
 10 12  1  0  0  0  0
 12 18  1  0  0  0  0
 12 13  1  0  0  0  0
 12 29  1  0  0  0  0
 13 14  1  0  0  0  0
 13 30  1  0  0  0  0
 13 31  1  0  0  0  0
 14 15  2  0  0  0  0
 14 16  1  0  0  0  0
 16 17  1  0  0  0  0
 16 18  1  0  0  0  0
 17 32  1  0  0  0  0
 17 33  1  0  0  0  0
 17 34  1  0  0  0  0
 18 35  1  0  0  0  0
 18 36  1  0  0  0  0
M  CHG  1   7   1
M  END
> <s_m_source_file>
AV-unprocessed.smi

> <i_m_source_file_index>
3253

> <i_lp_mmshare_version>
43012

> <i_f3d_flags>
0

> <s_epik_input>
W2NIXTFuW2NIXVtjSF1uMVtDSDJdW0NAQEhdKFtDSDNdKVtOSF1DKD1PKVtDQEBIXTJbQ0gyXUMoPU8pTihbQ0gzXSlbQ0gyXTI=

> <s_epik_cmdline>
J2VwaWtfcHl0aG9uJywgJy1waCcsICc3LjAnLCAnLXRuJywgJzgnLCAnLW1hJywgJzIwMCcsICctbWV0YWxfYmluZGluZycsICctaW1hZScsICc8aW5maWxlLm1hZT4nLCAnLW9tYWUnLCAnPG91dGZpbGUubWFlPic=

> <r_lp_tautomer_probability>
1

> <r_epik_Ionization_Penalty>
0.251561

> <r_epik_Ionization_Penalty_Charging>
0

> <r_epik_Ionization_Penalty_Neutral>
0.251561

> <r_epik_State_Penalty>
0.242926

> <r_epik_Charging_Adjusted_Penalty>
0.242926

> <i_epik_Tot_Q>
1

> <i_epik_Tot_abs_Q>
1

> <r_epik_Metal_State_Penalty>
0.533885

> <b_epik_Metal_Only>
0

> <s_lp_Force_Field>
OPLS_2005

> <r_lp_Energy>
13.6979

> <b_lp_Chiralities_Consistent>
1

> <s_lp_Variant>
AV-unprocessed.smi:3253-2

> <Gold.Version>
5.8.1

> <Gold.Id.Protein>
6NUR|6NUR_protein|mol2

> <Gold.PLP.Fitness>
41.5578

> <Gold.PLP.PLP>
-27.1272

> <Gold.PLP.part.hbond>
-3.6040

> <Gold.PLP.part.metal>
0.0000

> <Gold.PLP.part.buried>
-2.1904

> <Gold.PLP.part.nonpolar>
-21.2705

> <Gold.PLP.part.repulsive>
0.0758

> <Gold.PLP.ligand.clash>
0.0000

> <Gold.PLP.ligand.torsion>
0.2946

> <Gold.PLP.Chemscore.Hbond>
4.0000

> <Gold.PLP.Chemscore.CHOScore>
1.0000

> <Gold.PLP.Chemscore.Metal>
0.0000

> <Gold.Chemscore.Hbonds>
donor molecule, donor type, donor heavy atom, donor atom, acceptor molecule, acceptor atom, score
      L1  H     7    37       P1 10957  2.00
      L1  H     9    28       P1  7948  1.00
      P1  H  7997  8008       L1    15  1.00
      L1  C     5    25       P1  7948  1.00

> <Gold.PLP.Chemscore.Internal.Correction>
0.0199

> <Gold.Rescore>
     Score         DG    S(hbond)    S(metal)    S(lipo)     H(rot)  DE(clash)    DE(int)     intcor
     12.97     -14.71       2.86        0.00      41.65       2.03       0.01       1.72       ----

> <Gold.Chemscore.Fitness>
12.9730

> <Gold.Chemscore.DG>
-14.7080

> <Gold.Chemscore.ZeroCoef>
-5.4800

> <Gold.Chemscore.Hbond>
2.8630

> <Gold.Chemscore.Metal>
0.0000

> <Gold.Chemscore.Lipo>
41.6474

> <Gold.Chemscore.Internal_Hbond>
0.0000

> <Gold.Chemscore.DEClash>
0.0126

> <Gold.Chemscore.DEInternal>
1.7224

> <Gold.Chemscore.Rot>
2.0341

> <Gold.Chemscore.Internal.Correction>
   9.000000E+99

> <Gold.Chemscore.Hbonds>
donor molecule, donor type, donor heavy atom, donor atom, acceptor molecule, acceptor atom, score
      L1  H     7    37       P1 10957  0.97
      L1  H     9    28       P1  7948  0.52
      P1  H  7997  8008       L1    15  0.97

> <Gold.Chemscore.Hbond.Weighted>
-9.5625

> <Gold.Chemscore.Metal.Weighted>
-0.0000

> <Gold.Chemscore.Lipo.Weighted>
-4.8728

> <Gold.Chemscore.Internal_Hbond.Weighted>
0.0000

> <Gold.Chemscore.DEClash.Weighted>
0.0126

> <Gold.Chemscore.DEInternal.Weighted>
1.7224

> <Gold.Chemscore.Rot.Weighted>
5.2072

> <Gold.Chemscore.Internal.Correction.Weighted>
   9.000000E+99

> <Gold.Protein.RotatedTorsions>
[ 6907 6896 6895 6894 ] final   11.54 input  -60.11 | X-H torsion
[ 7974 7965 7964 7962 ] final   61.40 input  175.53 | X-H torsion
[ 8008 7997 7996 7995 ] final   -3.69 input   59.86 | X-H torsion
[ 10167 10162 10161 10158 ] final   90.92 input  -65.29 | X-H torsion
[ 10718 10713 10712 10709 ] final  169.32 input   66.30 | X-H torsion
[ 10763 10752 10751 10750 ] final   -2.23 input  -60.55 | X-H torsion
[ 11005 11000 10999 10996 ] final  174.98 input  -57.11 | X-H torsion

> <Gold.Protein.ActiveResidues>
 VAL166  LYS551  ARG553  GLY616  TRP617  ASP618  TYR619  PRO620  LYS621  CYS622 
 ASP623  PHE694  ASN695  SER759  ASP760  ASP761  ALA762  ILE779  LEU786  VAL792 
 PHE793  MET794  SER795  GLU796  ALA797  LYS798  CYS799  TRP800  GLU811  SER814 

> <Gold.Protein.RotatedAtoms>
  151.7559  135.0821  160.0337 H   0  0  0  0  0  0  0  0  0  0  0  0  # atno 6907 bound_to 6896
  152.3385  133.6035  159.5868 H   0  0  0  0  0  0  0  0  0  0  0  0  # atno 6908 bound_to 6896
  150.7465  133.9674  159.3576 H   0  0  0  0  0  0  0  0  0  0  0  0  # atno 6909 bound_to 6896
  145.8852  139.3471  143.0682 H   0  0  0  0  0  0  0  0  0  0  0  0  # atno 7974 bound_to 7965
  154.6222  140.2503  155.7535 H   0  0  0  0  0  0  0  0  0  0  0  0  # atno 8008 bound_to 7997
  156.2433  140.2924  156.0454 H   0  0  0  0  0  0  0  0  0  0  0  0  # atno 8009 bound_to 7997
  155.1879  140.0390  157.2885 H   0  0  0  0  0  0  0  0  0  0  0  0  # atno 8010 bound_to 7997
  139.8426  144.6634  150.9265 H   0  0  0  0  0  0  0  0  0  0  0  0  # atno 10167 bound_to 10162
  157.0243  131.0241  151.2765 H   0  0  0  0  0  0  0  0  0  0  0  0  # atno 10718 bound_to 10713
  153.3552  135.6987  153.6756 H   0  0  0  0  0  0  0  0  0  0  0  0  # atno 10763 bound_to 10752
  153.5467  135.3562  155.2742 H   0  0  0  0  0  0  0  0  0  0  0  0  # atno 10764 bound_to 10752
  154.8659  135.4216  154.2797 H   0  0  0  0  0  0  0  0  0  0  0  0  # atno 10765 bound_to 10752
  140.3572  134.7144  157.4307 H   0  0  0  0  0  0  0  0  0  0  0  0  # atno 11005 bound_to 11000
  145.8976  140.9264  143.0520 LP  0  0  0  0  0  0  0  0  0  0  0  0  # atno 17320 bound_to 7965
  144.6728  140.0989  143.7461 LP  0  0  0  0  0  0  0  0  0  0  0  0  # atno 17321 bound_to 7965
  140.7796  143.3899  151.1328 LP  0  0  0  0  0  0  0  0  0  0  0  0  # atno 17342 bound_to 10162
  139.7544  143.8729  152.3085 LP  0  0  0  0  0  0  0  0  0  0  0  0  # atno 17343 bound_to 10162
  157.5226  130.8008  149.7826 LP  0  0  0  0  0  0  0  0  0  0  0  0  # atno 17370 bound_to 10713
  156.0091  130.3841  150.2325 LP  0  0  0  0  0  0  0  0  0  0  0  0  # atno 17371 bound_to 10713
  140.0655  134.5935  155.8700 LP  0  0  0  0  0  0  0  0  0  0  0  0  # atno 17394 bound_to 11000
  141.1995  133.6607  156.5846 LP  0  0  0  0  0  0  0  0  0  0  0  0  # atno 17395 bound_to 11000

$$$$
