AV-unprocessed.smi:1136|AV-procd|sdf|4862|dock7
  -GOLD-   22720 3433D 1   1.00000     0.00000
 Structure written by MMmdl.
 42 43  0  0  0  0  0  0  0  0  1 V2000
  146.4556  128.8742  152.6225 C   0  0  0  0  0  0  0  0  0  0  0  0
  146.1861  130.3106  152.2839 C   0  0  0  0  0  0  0  0  0  0  0  0
  145.0361  130.8697  151.6595 C   0  0  0  0  0  0  0  0  0  0  0  0
  145.3065  132.2073  151.5891 C   0  0  0  0  0  0  0  0  0  0  0  0
  144.4882  133.3280  151.0367 C   0  0  0  0  0  0  0  0  0  0  0  0
  146.5581  132.3939  152.1496 N   0  0  0  0  0  0  0  0  0  0  0  0
  147.3168  133.6258  152.3179 C   0  0  0  0  0  0  0  0  0  0  0  0
  147.7453  133.8478  153.7720 C   0  0  0  0  0  0  0  0  0  0  0  0
  147.3590  133.0746  154.6480 O   0  0  0  0  0  0  0  0  0  0  0  0
  148.5489  134.8958  154.0159 N   0  0  0  0  0  0  0  0  0  0  0  0
  149.0759  135.2743  155.3248 C   0  0  0  0  0  0  0  0  0  0  0  0
  150.4754  135.9148  155.2604 C   0  0  0  0  0  0  0  0  0  0  0  0
  151.4376  135.3030  155.7287 O   0  0  0  0  0  0  0  0  0  0  0  0
  150.6101  137.1313  154.6776 N   0  0  0  0  0  0  0  0  0  0  0  0
  151.8611  137.8958  154.5765 C   0  0  0  0  0  0  0  0  0  0  0  0
  151.7815  139.1009  155.5311 C   0  0  0  0  0  0  0  0  0  0  0  0
  150.5468  139.9682  155.2191 C   0  0  0  0  0  0  0  0  0  0  0  0
  149.2627  139.1210  155.1292 C   0  0  0  0  0  0  0  0  0  0  0  0
  149.4624  137.9116  154.1966 C   0  0  0  0  0  0  0  0  0  0  0  0
  147.0934  131.2282  152.5747 N   0  0  0  0  0  0  0  0  0  0  0  0
  145.5888  128.2490  152.4075 H   0  0  0  0  0  0  0  0  0  0  0  0
  146.6936  128.7573  153.6801 H   0  0  0  0  0  0  0  0  0  0  0  0
  147.2958  128.4867  152.0460 H   0  0  0  0  0  0  0  0  0  0  0  0
  144.1464  130.3637  151.3147 H   0  0  0  0  0  0  0  0  0  0  0  0
  143.5573  132.9558  150.6086 H   0  0  0  0  0  0  0  0  0  0  0  0
  145.0284  133.8557  150.2506 H   0  0  0  0  0  0  0  0  0  0  0  0
  144.2359  134.0460  151.8171 H   0  0  0  0  0  0  0  0  0  0  0  0
  148.1942  133.5873  151.6711 H   0  0  0  0  0  0  0  0  0  0  0  0
  146.7157  134.4741  151.9866 H   0  0  0  0  0  0  0  0  0  0  0  0
  148.8209  135.4718  153.2321 H   0  0  0  0  0  0  0  0  0  0  0  0
  148.3778  135.9895  155.7603 H   0  0  0  0  0  0  0  0  0  0  0  0
  149.0980  134.4045  155.9834 H   0  0  0  0  0  0  0  0  0  0  0  0
  152.7539  137.3110  154.7910 H   0  0  0  0  0  0  0  0  0  0  0  0
  151.9855  138.2429  153.5498 H   0  0  0  0  0  0  0  0  0  0  0  0
  151.7297  138.7462  156.5616 H   0  0  0  0  0  0  0  0  0  0  0  0
  152.6882  139.7016  155.4547 H   0  0  0  0  0  0  0  0  0  0  0  0
  150.4330  140.7482  155.9724 H   0  0  0  0  0  0  0  0  0  0  0  0
  150.7028  140.4789  154.2680 H   0  0  0  0  0  0  0  0  0  0  0  0
  148.9871  138.7694  156.1244 H   0  0  0  0  0  0  0  0  0  0  0  0
  148.4336  139.7353  154.7771 H   0  0  0  0  0  0  0  0  0  0  0  0
  149.6551  138.2498  153.1775 H   0  0  0  0  0  0  0  0  0  0  0  0
  148.5427  137.3275  154.1451 H   0  0  0  0  0  0  0  0  0  0  0  0
  1  2  1  0  0  0  0
  1 21  1  0  0  0  0
  1 22  1  0  0  0  0
  1 23  1  0  0  0  0
  2 20  2  0  0  0  0
  2  3  1  0  0  0  0
  3  4  2  0  0  0  0
  3 24  1  0  0  0  0
  4  5  1  0  0  0  0
  4  6  1  0  0  0  0
  5 25  1  0  0  0  0
  5 26  1  0  0  0  0
  5 27  1  0  0  0  0
  6  7  1  0  0  0  0
  6 20  1  0  0  0  0
  7  8  1  0  0  0  0
  7 28  1  0  0  0  0
  7 29  1  0  0  0  0
  8  9  2  0  0  0  0
  8 10  1  0  0  0  0
 10 11  1  0  0  0  0
 10 30  1  0  0  0  0
 11 12  1  0  0  0  0
 11 31  1  0  0  0  0
 11 32  1  0  0  0  0
 12 13  2  0  0  0  0
 12 14  1  0  0  0  0
 14 19  1  0  0  0  0
 14 15  1  0  0  0  0
 15 16  1  0  0  0  0
 15 33  1  0  0  0  0
 15 34  1  0  0  0  0
 16 17  1  0  0  0  0
 16 35  1  0  0  0  0
 16 36  1  0  0  0  0
 17 18  1  0  0  0  0
 17 37  1  0  0  0  0
 17 38  1  0  0  0  0
 18 19  1  0  0  0  0
 18 39  1  0  0  0  0
 18 40  1  0  0  0  0
 19 41  1  0  0  0  0
 19 42  1  0  0  0  0
M  END
> <s_m_source_file>
AV-unprocessed.smi

> <i_m_source_file_index>
1136

> <i_lp_mmshare_version>
43012

> <i_f3d_flags>
0

> <s_epik_input>
W0NIM11jMVtjSF1jKFtDSDNdKW4objEpW0NIMl1DKD1PKVtOSF1bQ0gyXUMoPU8pTjJbQ0gyXVtDSDJdW0NIMl1bQ0gyXVtDSDJdMg==

> <s_epik_cmdline>
J2VwaWtfcHl0aG9uJywgJy1waCcsICc3LjAnLCAnLXRuJywgJzgnLCAnLW1hJywgJzIwMCcsICctbWV0YWxfYmluZGluZycsICctaW1hZScsICc8aW5maWxlLm1hZT4nLCAnLW9tYWUnLCAnPG91dGZpbGUubWFlPic=

> <r_lp_tautomer_probability>
1

> <r_epik_Ionization_Penalty>
0.000263643

> <r_epik_Ionization_Penalty_Charging>
0

> <r_epik_Ionization_Penalty_Neutral>
0.000263643

> <r_epik_State_Penalty>
-0

> <r_epik_Charging_Adjusted_Penalty>
0

> <i_epik_Tot_Q>
0

> <i_epik_Tot_abs_Q>
0

> <r_epik_Metal_State_Penalty>
-0

> <b_epik_Metal_Only>
0

> <s_lp_Force_Field>
OPLS_2005

> <r_lp_Energy>
19.7074

> <b_lp_Chiralities_Consistent>
1

> <s_lp_Variant>
AV-unprocessed.smi:1136-1

> <Gold.Version>
5.8.1

> <Gold.Id.Protein>
6NUR|6NUR_protein|mol2

> <Gold.PLP.Fitness>
37.3372

> <Gold.PLP.PLP>
-31.9290

> <Gold.PLP.part.hbond>
-2.0000

> <Gold.PLP.part.metal>
0.0000

> <Gold.PLP.part.buried>
-0.7068

> <Gold.PLP.part.nonpolar>
-30.6120

> <Gold.PLP.part.repulsive>
0.9352

> <Gold.PLP.ligand.clash>
0.0000

> <Gold.PLP.ligand.torsion>
0.3064

> <Gold.PLP.Chemscore.Hbond>
2.0000

> <Gold.PLP.Chemscore.CHOScore>
0.0000

> <Gold.PLP.Chemscore.Metal>
0.0000

> <Gold.Chemscore.Hbonds>
donor molecule, donor type, donor heavy atom, donor atom, acceptor molecule, acceptor atom, score
      L1  H    10    30       P1  7948  1.00
      P1  H 10752 10764       L1    13  1.00

> <Gold.PLP.Chemscore.Internal.Correction>
0.0211

> <Gold.Rescore>
     Score         DG    S(hbond)    S(metal)    S(lipo)     H(rot)  DE(clash)    DE(int)     intcor
     14.36     -16.17       1.90        0.00      72.44       1.61       0.05       1.76       ----

> <Gold.Chemscore.Fitness>
14.3583

> <Gold.Chemscore.DG>
-16.1683

> <Gold.Chemscore.ZeroCoef>
-5.4800

> <Gold.Chemscore.Hbond>
1.8990

> <Gold.Chemscore.Metal>
0.0000

> <Gold.Chemscore.Lipo>
72.4431

> <Gold.Chemscore.Internal_Hbond>
0.0000

> <Gold.Chemscore.DEClash>
0.0458

> <Gold.Chemscore.DEInternal>
1.7642

> <Gold.Chemscore.Rot>
1.6134

> <Gold.Chemscore.Internal.Correction>
   9.000000E+99

> <Gold.Chemscore.Hbonds>
donor molecule, donor type, donor heavy atom, donor atom, acceptor molecule, acceptor atom, score
      L1  H    10    30       P1  7948  0.78
      P1  H 10752 10764       L1    13  0.85

> <Gold.Chemscore.Hbond.Weighted>
-6.3428

> <Gold.Chemscore.Metal.Weighted>
-0.0000

> <Gold.Chemscore.Lipo.Weighted>
-8.4758

> <Gold.Chemscore.Internal_Hbond.Weighted>
0.0000

> <Gold.Chemscore.DEClash.Weighted>
0.0458

> <Gold.Chemscore.DEInternal.Weighted>
1.7642

> <Gold.Chemscore.Rot.Weighted>
4.1303

> <Gold.Chemscore.Internal.Correction.Weighted>
   9.000000E+99

> <Gold.Protein.RotatedTorsions>
[ 6907 6896 6895 6894 ] final  145.36 input  -60.11 | X-H torsion
[ 7974 7965 7964 7962 ] final -155.90 input  175.53 | X-H torsion
[ 8008 7997 7996 7995 ] final -178.78 input   59.86 | X-H torsion
[ 10167 10162 10161 10158 ] final   27.00 input  -65.29 | X-H torsion
[ 10718 10713 10712 10709 ] final  -77.94 input   66.30 | X-H torsion
[ 10763 10752 10751 10750 ] final  -47.67 input  -60.55 | X-H torsion
[ 11005 11000 10999 10996 ] final  134.40 input  -57.11 | X-H torsion

> <Gold.Protein.ActiveResidues>
 VAL166  LYS551  ARG553  GLY616  TRP617  ASP618  TYR619  PRO620  LYS621  CYS622 
 ASP623  PHE694  ASN695  SER759  ASP760  ASP761  ALA762  ILE779  LEU786  VAL792 
 PHE793  MET794  SER795  GLU796  ALA797  LYS798  CYS799  TRP800  GLU811  SER814 

> <Gold.Protein.RotatedAtoms>
  152.1818  133.4713  159.4962 H   0  0  0  0  0  0  0  0  0  0  0  0  # atno 6907 bound_to 6896
  150.6936  134.1823  159.4262 H   0  0  0  0  0  0  0  0  0  0  0  0  # atno 6908 bound_to 6896
  151.9734  135.0065  160.0604 H   0  0  0  0  0  0  0  0  0  0  0  0  # atno 6909 bound_to 6896
  144.7618  140.4185  143.5971 H   0  0  0  0  0  0  0  0  0  0  0  0  # atno 7974 bound_to 7965
  156.0228  140.1265  157.0340 H   0  0  0  0  0  0  0  0  0  0  0  0  # atno 8008 bound_to 7997
  154.4318  140.1065  156.6058 H   0  0  0  0  0  0  0  0  0  0  0  0  # atno 8009 bound_to 7997
  155.5920  140.3469  155.4571 H   0  0  0  0  0  0  0  0  0  0  0  0  # atno 8010 bound_to 7997
  140.4975  144.0368  150.6320 H   0  0  0  0  0  0  0  0  0  0  0  0  # atno 10167 bound_to 10162
  156.0131  130.4504  150.3421 H   0  0  0  0  0  0  0  0  0  0  0  0  # atno 10718 bound_to 10713
  154.0653  135.6612  153.4817 H   0  0  0  0  0  0  0  0  0  0  0  0  # atno 10763 bound_to 10752
  153.0411  135.5144  154.7620 H   0  0  0  0  0  0  0  0  0  0  0  0  # atno 10764 bound_to 10752
  154.6669  135.3023  154.9761 H   0  0  0  0  0  0  0  0  0  0  0  0  # atno 10765 bound_to 10752
  139.9913  134.9514  156.9862 H   0  0  0  0  0  0  0  0  0  0  0  0  # atno 11005 bound_to 11000
  145.6595  139.1579  143.2816 LP  0  0  0  0  0  0  0  0  0  0  0  0  # atno 17320 bound_to 7965
  146.1688  140.6677  142.9243 LP  0  0  0  0  0  0  0  0  0  0  0  0  # atno 17321 bound_to 7965
  140.3655  143.2884  152.0337 LP  0  0  0  0  0  0  0  0  0  0  0  0  # atno 17342 bound_to 10162
  139.4864  144.6270  151.7144 LP  0  0  0  0  0  0  0  0  0  0  0  0  # atno 17343 bound_to 10162
  157.1516  131.0322  151.2882 LP  0  0  0  0  0  0  0  0  0  0  0  0  # atno 17370 bound_to 10713
  157.4387  130.7532  149.7051 LP  0  0  0  0  0  0  0  0  0  0  0  0  # atno 17371 bound_to 10713
  140.4903  134.1199  155.7231 LP  0  0  0  0  0  0  0  0  0  0  0  0  # atno 17394 bound_to 11000
  141.1568  133.8868  157.1956 LP  0  0  0  0  0  0  0  0  0  0  0  0  # atno 17395 bound_to 11000

$$$$
