AV-unprocessed.smi:21|AV-procd|sdf|141|dock1
  -GOLD-   2262015343D 1   1.00000     0.00000
 Structure written by MMmdl.
 62 65  0  0  0  0  0  0  0  0  2 V2000
  144.4490  132.4279  149.5188 C   0  0  0  0  0  0  0  0  0  0  0  0
  145.1414  133.4800  150.1715 O   0  0  0  0  0  0  0  0  0  0  0  0
  144.9579  133.4926  151.5793 C   0  0  1  0  0  0  0  0  0  0  0  0
  145.6069  134.6927  152.2612 C   0  0  0  0  0  0  0  0  0  0  0  0
  144.8245  134.8268  153.5752 C   0  0  1  0  0  0  0  0  0  0  0  0
  144.8680  136.2488  154.1874 C   0  0  0  0  0  0  0  0  0  0  0  0
  146.1929  136.5910  154.7142 N   0  0  0  0  0  0  0  0  0  0  0  0
  147.2229  135.5594  154.6799 C   0  0  0  0  0  0  0  0  0  0  0  0
  146.5233  137.8821  155.0160 C   0  0  0  0  0  0  0  0  0  0  0  0
  145.8634  138.8836  154.3742 N   0  0  0  0  0  0  0  0  0  0  0  0
  146.1399  140.1647  154.6263 C   0  0  0  0  0  0  0  0  0  0  0  0
  147.0296  140.6704  155.4784 N   0  0  0  0  0  0  0  0  0  0  0  0
  147.7004  139.6834  156.1359 C   0  0  0  0  0  0  0  0  0  0  0  0
  147.5182  138.2785  155.9654 C   0  0  0  0  0  0  0  0  0  0  0  0
  148.4029  137.6009  156.7982 N   0  0  0  0  0  0  0  0  0  0  0  0
  149.0566  138.5405  157.4220 C   0  0  0  0  0  0  0  0  0  0  0  0
  148.6863  139.8249  157.0988 N   0  0  0  0  0  0  0  0  0  0  0  0
  149.2426  141.0581  157.6401 C   0  0  0  0  0  0  0  0  0  0  0  0
  150.7956  141.1032  157.6742 C   0  0  1  0  0  0  0  0  0  0  0  0
  151.4037  141.2850  156.2635 C   0  0  0  0  0  0  0  0  0  0  0  0
  150.8526  140.3542  155.3556 O   0  0  0  0  0  0  0  0  0  0  0  0
  151.3359  142.1670  158.6665 C   0  0  2  0  0  0  0  0  0  0  0  0
  151.3476  143.5933  158.1411 C   0  0  0  0  0  0  0  0  0  0  0  0
  152.3335  144.2859  159.0775 C   0  0  0  0  0  0  0  0  0  0  0  0
  153.2424  143.2772  159.5045 O   0  0  0  0  0  0  0  0  0  0  0  0
  152.8187  142.0084  159.0201 C   0  0  0  0  0  0  0  0  0  0  0  0
  143.4648  134.2788  153.2904 N   0  3  1  0  0  0  0  0  0  0  0  0
  142.2995  135.1634  153.5274 C   0  0  0  0  0  0  0  0  0  0  0  0
  143.4855  133.6965  151.9289 C   0  0  0  0  0  0  0  0  0  0  0  0
  145.3105  132.5622  152.0290 H   0  0  0  0  0  0  0  0  0  0  0  0
  145.2622  134.1317  154.2933 H   0  0  0  0  0  0  0  0  0  0  0  0
  144.6039  132.5030  148.4426 H   0  0  0  0  0  0  0  0  0  0  0  0
  143.3761  132.4846  149.7070 H   0  0  0  0  0  0  0  0  0  0  0  0
  144.8100  131.4502  149.8388 H   0  0  0  0  0  0  0  0  0  0  0  0
  146.6780  134.5654  152.4214 H   0  0  0  0  0  0  0  0  0  0  0  0
  145.4621  135.5811  151.6449 H   0  0  0  0  0  0  0  0  0  0  0  0
  144.5098  136.9885  153.4722 H   0  0  0  0  0  0  0  0  0  0  0  0
  144.1747  136.3043  155.0270 H   0  0  0  0  0  0  0  0  0  0  0  0
  147.9184  135.7370  153.8594 H   0  0  0  0  0  0  0  0  0  0  0  0
  146.7836  134.5724  154.5343 H   0  0  0  0  0  0  0  0  0  0  0  0
  147.7780  135.5344  155.6179 H   0  0  0  0  0  0  0  0  0  0  0  0
  145.5646  140.8878  154.0669 H   0  0  0  0  0  0  0  0  0  0  0  0
  149.8289  138.3153  158.1418 H   0  0  0  0  0  0  0  0  0  0  0  0
  148.8506  141.8917  157.0571 H   0  0  0  0  0  0  0  0  0  0  0  0
  148.8431  141.1987  158.6450 H   0  0  0  0  0  0  0  0  0  0  0  0
  151.1300  140.1312  158.0404 H   0  0  0  0  0  0  0  0  0  0  0  0
  151.2511  142.2978  155.8903 H   0  0  0  0  0  0  0  0  0  0  0  0
  152.4792  141.1136  156.2743 H   0  0  0  0  0  0  0  0  0  0  0  0
  151.2159  139.5016  155.5407 H   0  0  0  0  0  0  0  0  0  0  0  0
  150.7473  142.1528  159.5846 H   0  0  0  0  0  0  0  0  0  0  0  0
  151.7250  143.6190  157.1176 H   0  0  0  0  0  0  0  0  0  0  0  0
  150.3663  144.0682  158.1549 H   0  0  0  0  0  0  0  0  0  0  0  0
  152.8544  145.1115  158.5924 H   0  0  0  0  0  0  0  0  0  0  0  0
  151.8171  144.6792  159.9539 H   0  0  0  0  0  0  0  0  0  0  0  0
  153.0028  141.2303  159.7597 H   0  0  0  0  0  0  0  0  0  0  0  0
  153.4035  141.7686  158.1307 H   0  0  0  0  0  0  0  0  0  0  0  0
  142.3440  136.0591  152.9067 H   0  0  0  0  0  0  0  0  0  0  0  0
  142.2364  135.4616  154.5739 H   0  0  0  0  0  0  0  0  0  0  0  0
  141.3759  134.6358  153.2868 H   0  0  0  0  0  0  0  0  0  0  0  0
  143.0431  134.4034  151.2242 H   0  0  0  0  0  0  0  0  0  0  0  0
  142.9102  132.7717  151.8770 H   0  0  0  0  0  0  0  0  0  0  0  0
  143.3557  133.5004  153.9251 H   0  0  0  0  0  0  0  0  0  0  0  0
  1  2  1  0  0  0  0
  1 32  1  0  0  0  0
  1 33  1  0  0  0  0
  1 34  1  0  0  0  0
  2  3  1  0  0  0  0
  3 30  1  0  0  0  0
  3 29  1  0  0  0  0
  3  4  1  0  0  0  0
  4  5  1  0  0  0  0
  4 35  1  0  0  0  0
  4 36  1  0  0  0  0
  5 31  1  0  0  0  0
  5  6  1  0  0  0  0
  5 27  1  0  0  0  0
  6  7  1  0  0  0  0
  6 37  1  0  0  0  0
  6 38  1  0  0  0  0
  7  8  1  0  0  0  0
  7  9  1  0  0  0  0
  8 39  1  0  0  0  0
  8 40  1  0  0  0  0
  8 41  1  0  0  0  0
  9 14  1  0  0  0  0
  9 10  2  0  0  0  0
 10 11  1  0  0  0  0
 11 12  2  0  0  0  0
 11 42  1  0  0  0  0
 12 13  1  0  0  0  0
 13 17  1  0  0  0  0
 13 14  2  0  0  0  0
 14 15  1  0  0  0  0
 15 16  2  0  0  0  0
 16 17  1  0  0  0  0
 16 43  1  0  0  0  0
 17 18  1  0  0  0  0
 18 19  1  0  0  0  0
 18 44  1  0  0  0  0
 18 45  1  0  0  0  0
 19 20  1  0  0  0  0
 19 22  1  0  0  0  0
 19 46  1  0  0  0  0
 20 21  1  0  0  0  0
 20 47  1  0  0  0  0
 20 48  1  0  0  0  0
 21 49  1  0  0  0  0
 22 26  1  0  0  0  0
 22 23  1  0  0  0  0
 22 50  1  0  0  0  0
 23 24  1  0  0  0  0
 23 51  1  0  0  0  0
 23 52  1  0  0  0  0
 24 25  1  0  0  0  0
 24 53  1  0  0  0  0
 24 54  1  0  0  0  0
 25 26  1  0  0  0  0
 26 55  1  0  0  0  0
 26 56  1  0  0  0  0
 27 28  1  0  0  0  0
 27 29  1  0  0  0  0
 27 62  1  0  0  0  0
 28 57  1  0  0  0  0
 28 58  1  0  0  0  0
 28 59  1  0  0  0  0
 29 60  1  0  0  0  0
 29 61  1  0  0  0  0
M  CHG  1  27   1
M  END
> <s_m_source_file>
AV-unprocessed.smi

> <i_m_source_file_index>
21

> <i_lp_mmshare_version>
43012

> <i_f3d_flags>
0

> <s_epik_input>
W0NIM11PW0NASF0xW0NIMl1bQ0BIXShOKFtDSDNdKVtDSDJdMSlbQ0gyXU4oW0NIM10pYyhuW2NIXW4yKWMoYzIzKW5bY0hdbjNbQ0gyXVtDQEhdKFtDSDJdW09IXSlbQ0BASF00W0NIMl1bQ0gyXU9bQ0gyXTQ=

> <s_epik_cmdline>
J2VwaWtfcHl0aG9uJywgJy1waCcsICc3LjAnLCAnLXRuJywgJzgnLCAnLW1hJywgJzIwMCcsICctbWV0YWxfYmluZGluZycsICctaW1hZScsICc8aW5maWxlLm1hZT4nLCAnLW9tYWUnLCAnPG91dGZpbGUubWFlPic=

> <r_lp_tautomer_probability>
1

> <r_epik_Ionization_Penalty>
0.0157465

> <r_epik_Ionization_Penalty_Charging>
0.015354

> <r_epik_Ionization_Penalty_Neutral>
0.000392529

> <r_epik_State_Penalty>
0.0120612

> <r_epik_Charging_Adjusted_Penalty>
0.0274152

> <i_epik_Tot_Q>
1

> <i_epik_Tot_abs_Q>
1

> <r_epik_Metal_State_Penalty>
0.0121253

> <b_epik_Metal_Only>
0

> <s_lp_Force_Field>
OPLS_2005

> <r_lp_Energy>
60.5885

> <b_lp_Chiralities_Consistent>
1

> <s_lp_Variant>
AV-unprocessed.smi:21-21

> <Gold.Version>
5.8.1

> <Gold.Id.Protein>
6NUR|6NUR_protein|mol2

> <Gold.PLP.Fitness>
45.5550

> <Gold.PLP.PLP>
-35.3330

> <Gold.PLP.part.hbond>
-2.0000

> <Gold.PLP.part.metal>
0.0000

> <Gold.PLP.part.buried>
-8.2598

> <Gold.PLP.part.nonpolar>
-25.5203

> <Gold.PLP.part.repulsive>
0.4955

> <Gold.PLP.ligand.clash>
0.3521

> <Gold.PLP.ligand.torsion>
1.0913

> <Gold.PLP.Chemscore.Hbond>
2.9913

> <Gold.PLP.Chemscore.CHOScore>
0.9975

> <Gold.PLP.Chemscore.Metal>
0.0000

> <Gold.Chemscore.Hbonds>
donor molecule, donor type, donor heavy atom, donor atom, acceptor molecule, acceptor atom, score
      L1  H    27    62       P1 10957  1.89
      P1  H  7989  7998       L1    21  0.89
      L1  C    11    42       P1 10175  0.98

> <Gold.PLP.Chemscore.Internal.Correction>
0.7903

> <Gold.Rescore>
     Score         DG    S(hbond)    S(metal)    S(lipo)     H(rot)  DE(clash)    DE(int)     intcor
     11.79     -13.51       1.48        0.00      93.55       3.08       0.04       1.68       ----

> <Gold.Chemscore.Fitness>
11.7856

> <Gold.Chemscore.DG>
-13.5081

> <Gold.Chemscore.ZeroCoef>
-5.4800

> <Gold.Chemscore.Hbond>
1.4843

> <Gold.Chemscore.Metal>
0.0000

> <Gold.Chemscore.Lipo>
93.5453

> <Gold.Chemscore.Internal_Hbond>
0.0000

> <Gold.Chemscore.DEClash>
0.0399

> <Gold.Chemscore.DEInternal>
1.6826

> <Gold.Chemscore.Rot>
3.0758

> <Gold.Chemscore.Internal.Correction>
   9.000000E+99

> <Gold.Chemscore.Hbonds>
donor molecule, donor type, donor heavy atom, donor atom, acceptor molecule, acceptor atom, score
      L1  H    27    62       P1 10957  0.90
      P1  H  7989  7998       L1    21  0.21

> <Gold.Chemscore.Hbond.Weighted>
-4.9575

> <Gold.Chemscore.Metal.Weighted>
-0.0000

> <Gold.Chemscore.Lipo.Weighted>
-10.9448

> <Gold.Chemscore.Internal_Hbond.Weighted>
0.0000

> <Gold.Chemscore.DEClash.Weighted>
0.0399

> <Gold.Chemscore.DEInternal.Weighted>
1.6826

> <Gold.Chemscore.Rot.Weighted>
7.8741

> <Gold.Chemscore.Internal.Correction.Weighted>
   9.000000E+99

> <Gold.Protein.RotatedTorsions>
[ 6907 6896 6895 6894 ] final  150.62 input  -60.11 | X-H torsion
[ 7974 7965 7964 7962 ] final  -57.51 input  175.53 | X-H torsion
[ 8008 7997 7996 7995 ] final   65.93 input   59.86 | X-H torsion
[ 10167 10162 10161 10158 ] final   -7.93 input  -65.29 | X-H torsion
[ 10718 10713 10712 10709 ] final   93.68 input   66.30 | X-H torsion
[ 10763 10752 10751 10750 ] final  -55.10 input  -60.55 | X-H torsion
[ 11005 11000 10999 10996 ] final  160.42 input  -57.11 | X-H torsion

> <Gold.Protein.ActiveResidues>
 VAL166  LYS551  ARG553  GLY616  TRP617  ASP618  TYR619  PRO620  LYS621  CYS622 
 ASP623  PHE694  ASN695  SER759  ASP760  ASP761  ALA762  ILE779  LEU786  VAL792 
 PHE793  MET794  SER795  GLU796  ALA797  LYS798  CYS799  TRP800  GLU811  SER814 

> <Gold.Protein.RotatedAtoms>
  152.1120  133.4306  159.4634 H   0  0  0  0  0  0  0  0  0  0  0  0  # atno 6907 bound_to 6896
  150.6867  134.2637  159.4569 H   0  0  0  0  0  0  0  0  0  0  0  0  # atno 6908 bound_to 6896
  152.0507  134.9655  160.0625 H   0  0  0  0  0  0  0  0  0  0  0  0  # atno 6909 bound_to 6896
  145.8502  140.8358  142.9990 H   0  0  0  0  0  0  0  0  0  0  0  0  # atno 7974 bound_to 7965
  155.6694  140.3497  155.4812 H   0  0  0  0  0  0  0  0  0  0  0  0  # atno 8008 bound_to 7997
  155.9701  140.1154  157.0842 H   0  0  0  0  0  0  0  0  0  0  0  0  # atno 8009 bound_to 7997
  154.4164  140.1158  156.5281 H   0  0  0  0  0  0  0  0  0  0  0  0  # atno 8010 bound_to 7997
  140.7044  143.6026  150.8783 H   0  0  0  0  0  0  0  0  0  0  0  0  # atno 10167 bound_to 10162
  157.6953  131.0486  150.4070 H   0  0  0  0  0  0  0  0  0  0  0  0  # atno 10718 bound_to 10713
  154.1854  135.6436  153.5045 H   0  0  0  0  0  0  0  0  0  0  0  0  # atno 10763 bound_to 10752
  153.0048  135.5416  154.6471 H   0  0  0  0  0  0  0  0  0  0  0  0  # atno 10764 bound_to 10752
  154.5846  135.2928  155.0671 H   0  0  0  0  0  0  0  0  0  0  0  0  # atno 10765 bound_to 10752
  140.2058  134.8304  157.3067 H   0  0  0  0  0  0  0  0  0  0  0  0  # atno 11005 bound_to 11000
  144.6729  140.0941  143.7464 LP  0  0  0  0  0  0  0  0  0  0  0  0  # atno 17320 bound_to 7965
  145.9366  139.2641  143.1293 LP  0  0  0  0  0  0  0  0  0  0  0  0  # atno 17321 bound_to 7965
  139.9750  143.6015  152.2961 LP  0  0  0  0  0  0  0  0  0  0  0  0  # atno 17342 bound_to 10162
  139.6615  144.7662  151.1954 LP  0  0  0  0  0  0  0  0  0  0  0  0  # atno 17343 bound_to 10162
  156.4458  130.4001  149.6668 LP  0  0  0  0  0  0  0  0  0  0  0  0  # atno 17370 bound_to 10713
  156.3835  130.7591  151.2586 LP  0  0  0  0  0  0  0  0  0  0  0  0  # atno 17371 bound_to 10713
  140.2004  134.4261  155.7666 LP  0  0  0  0  0  0  0  0  0  0  0  0  # atno 17394 bound_to 11000
  141.2227  133.7069  156.8175 LP  0  0  0  0  0  0  0  0  0  0  0  0  # atno 17395 bound_to 11000

$$$$
