AV-unprocessed.smi:1563|AV-procd|sdf|6291|dock3
  -GOLD-   22720 6493D 1   1.00000     0.00000
 Structure written by MMmdl.
 44 45  0  0  0  0  0  0  0  0  2 V2000
  149.1329  130.3769  153.8308 C   0  0  0  0  0  0  0  0  0  0  0  0
  147.8555  131.2020  153.7203 C   0  0  0  0  0  0  0  0  0  0  0  0
  147.2463  131.5375  154.7362 O   0  0  0  0  0  0  0  0  0  0  0  0
  147.4621  131.5207  152.4776 N   0  0  0  0  0  0  0  0  0  0  0  0
  146.2777  132.3070  152.1510 C   0  0  2  0  0  0  0  0  0  0  0  0
  145.3427  131.5106  151.2165 C   0  0  0  0  0  0  0  0  0  0  0  0
  144.1558  132.3676  150.7314 C   0  0  0  0  0  0  0  0  0  0  0  0
  144.6399  133.7214  150.1791 C   0  0  0  0  0  0  0  0  0  0  0  0
  145.4402  134.3918  151.2166 N   0  0  0  0  0  0  0  0  0  0  0  0
  145.0416  135.4261  151.9971 C   0  0  0  0  0  0  0  0  0  0  0  0
  143.9550  135.9908  151.8637 O   0  0  0  0  0  0  0  0  0  0  0  0
  145.9680  135.8579  152.8717 N   0  0  0  0  0  0  0  0  0  0  0  0
  145.8745  137.0781  153.6710 C   0  0  0  0  0  0  0  0  0  0  0  0
  146.4260  138.3118  152.9246 C   0  0  0  0  0  0  0  0  0  0  0  0
  146.8353  139.4552  153.8394 C   0  0  0  0  0  0  0  0  0  0  0  0
  148.0570  139.4500  154.5486 C   0  0  0  0  0  0  0  0  0  0  0  0
  148.3972  140.5639  155.3440 C   0  0  0  0  0  0  0  0  0  0  0  0
  147.5112  141.6586  155.4138 C   0  0  0  0  0  0  0  0  0  0  0  0
  146.3018  141.6083  154.6914 C   0  0  0  0  0  0  0  0  0  0  0  0
  146.0093  140.5216  153.9433 N   0  3  0  0  0  0  0  0  0  0  0  0
  146.6733  133.6489  151.4985 C   0  0  0  0  0  0  0  0  0  0  0  0
  149.9641  130.8955  153.3521 H   0  0  0  0  0  0  0  0  0  0  0  0
  149.0036  129.4088  153.3464 H   0  0  0  0  0  0  0  0  0  0  0  0
  149.3949  130.2045  154.8753 H   0  0  0  0  0  0  0  0  0  0  0  0
  148.0266  131.2007  151.7037 H   0  0  0  0  0  0  0  0  0  0  0  0
  145.7260  132.5166  153.0689 H   0  0  0  0  0  0  0  0  0  0  0  0
  145.9064  131.1673  150.3478 H   0  0  0  0  0  0  0  0  0  0  0  0
  144.9758  130.6152  151.7196 H   0  0  0  0  0  0  0  0  0  0  0  0
  143.5934  131.8287  149.9684 H   0  0  0  0  0  0  0  0  0  0  0  0
  143.4674  132.5392  151.5598 H   0  0  0  0  0  0  0  0  0  0  0  0
  145.2607  133.5607  149.2964 H   0  0  0  0  0  0  0  0  0  0  0  0
  143.7950  134.3155  149.8299 H   0  0  0  0  0  0  0  0  0  0  0  0
  146.8367  135.3457  152.9248 H   0  0  0  0  0  0  0  0  0  0  0  0
  144.8407  137.2561  153.9718 H   0  0  0  0  0  0  0  0  0  0  0  0
  146.4340  136.9285  154.5944 H   0  0  0  0  0  0  0  0  0  0  0  0
  147.2833  138.0208  152.3165 H   0  0  0  0  0  0  0  0  0  0  0  0
  145.6720  138.6773  152.2263 H   0  0  0  0  0  0  0  0  0  0  0  0
  148.7335  138.6111  154.4730 H   0  0  0  0  0  0  0  0  0  0  0  0
  149.3317  140.5832  155.8856 H   0  0  0  0  0  0  0  0  0  0  0  0
  147.7582  142.5262  156.0082 H   0  0  0  0  0  0  0  0  0  0  0  0
  145.5686  142.4016  154.6830 H   0  0  0  0  0  0  0  0  0  0  0  0
  147.3563  134.2000  152.1470 H   0  0  0  0  0  0  0  0  0  0  0  0
  147.2207  133.4778  150.5702 H   0  0  0  0  0  0  0  0  0  0  0  0
  145.1347  140.5140  153.4179 H   0  0  0  0  0  0  0  0  0  0  0  0
  1  2  1  0  0  0  0
  1 22  1  0  0  0  0
  1 23  1  0  0  0  0
  1 24  1  0  0  0  0
  2  3  2  0  0  0  0
  2  4  1  0  0  0  0
  4  5  1  0  0  0  0
  4 25  1  0  0  0  0
  5 21  1  0  0  0  0
  5  6  1  0  0  0  0
  5 26  1  0  0  0  0
  6  7  1  0  0  0  0
  6 27  1  0  0  0  0
  6 28  1  0  0  0  0
  7  8  1  0  0  0  0
  7 29  1  0  0  0  0
  7 30  1  0  0  0  0
  8  9  1  0  0  0  0
  8 31  1  0  0  0  0
  8 32  1  0  0  0  0
  9 10  1  0  0  0  0
  9 21  1  0  0  0  0
 10 11  2  0  0  0  0
 10 12  1  0  0  0  0
 12 13  1  0  0  0  0
 12 33  1  0  0  0  0
 13 14  1  0  0  0  0
 13 34  1  0  0  0  0
 13 35  1  0  0  0  0
 14 15  1  0  0  0  0
 14 36  1  0  0  0  0
 14 37  1  0  0  0  0
 15 20  1  0  0  0  0
 15 16  2  0  0  0  0
 16 17  1  0  0  0  0
 16 38  1  0  0  0  0
 17 18  2  0  0  0  0
 17 39  1  0  0  0  0
 18 19  1  0  0  0  0
 18 40  1  0  0  0  0
 19 20  2  0  0  0  0
 19 41  1  0  0  0  0
 20 44  1  0  0  0  0
 21 42  1  0  0  0  0
 21 43  1  0  0  0  0
M  CHG  1  20   1
M  END
> <s_m_source_file>
AV-unprocessed.smi

> <i_m_source_file_index>
1563

> <i_lp_mmshare_version>
43012

> <i_f3d_flags>
0

> <s_epik_input>
W0NIM11DKD1PKVtOSF1bQ0BASF0xW0NIMl1bQ0gyXVtDSDJdTihbQ0gyXTEpQyg9TylbTkhdW0NIMl1bQ0gyXWMyW2NIXVtjSF1bY0hdW2NIXW4y

> <s_epik_cmdline>
J2VwaWtfcHl0aG9uJywgJy1waCcsICc3LjAnLCAnLXRuJywgJzgnLCAnLW1hJywgJzIwMCcsICctbWV0YWxfYmluZGluZycsICctaW1hZScsICc8aW5maWxlLm1hZT4nLCAnLW9tYWUnLCAnPG91dGZpbGUubWFlPic=

> <r_epik_Ionization_Penalty>
1.56048

> <r_epik_Ionization_Penalty_Charging>
1.56043

> <r_epik_Ionization_Penalty_Neutral>
4.90601e-05

> <r_epik_State_Penalty>
1.65539

> <r_epik_Charging_Adjusted_Penalty>
3.21583

> <i_epik_Tot_Q>
1

> <i_epik_Tot_abs_Q>
1

> <r_epik_Metal_State_Penalty>
1.6969

> <b_epik_Metal_Only>
0

> <s_lp_Force_Field>
OPLS_2005

> <r_lp_Energy>
29.9669

> <b_lp_Chiralities_Consistent>
1

> <s_lp_Variant>
AV-unprocessed.smi:1563-3

> <Gold.Version>
5.8.1

> <Gold.Id.Protein>
6NUR|6NUR_protein|mol2

> <Gold.PLP.Fitness>
46.4146

> <Gold.PLP.PLP>
-39.0728

> <Gold.PLP.part.hbond>
-3.0000

> <Gold.PLP.part.metal>
0.0000

> <Gold.PLP.part.buried>
-1.0151

> <Gold.PLP.part.nonpolar>
-34.2301

> <Gold.PLP.part.repulsive>
0.6179

> <Gold.PLP.ligand.clash>
1.9833

> <Gold.PLP.ligand.torsion>
0.5732

> <Gold.PLP.Chemscore.Hbond>
3.4550

> <Gold.PLP.Chemscore.CHOScore>
0.0000

> <Gold.PLP.Chemscore.Metal>
0.0000

> <Gold.Chemscore.Hbonds>
donor molecule, donor type, donor heavy atom, donor atom, acceptor molecule, acceptor atom, score
      L1  H     4    25       P1 10747  1.00
      L1  H    20    44       P1 10175  2.00

> <Gold.PLP.Chemscore.Internal.Correction>
0.1066

> <Gold.Rescore>
     Score         DG    S(hbond)    S(metal)    S(lipo)     H(rot)  DE(clash)    DE(int)     intcor
     16.99     -19.90       2.42        0.00      92.72       1.77       2.19       0.72       ----

> <Gold.Chemscore.Fitness>
16.9920

> <Gold.Chemscore.DG>
-19.9012

> <Gold.Chemscore.ZeroCoef>
-5.4800

> <Gold.Chemscore.Hbond>
2.4232

> <Gold.Chemscore.Metal>
0.0000

> <Gold.Chemscore.Lipo>
92.7235

> <Gold.Chemscore.Internal_Hbond>
0.0000

> <Gold.Chemscore.DEClash>
2.1891

> <Gold.Chemscore.DEInternal>
0.7200

> <Gold.Chemscore.Rot>
1.7661

> <Gold.Chemscore.Internal.Correction>
   9.000000E+99

> <Gold.Chemscore.Hbonds>
donor molecule, donor type, donor heavy atom, donor atom, acceptor molecule, acceptor atom, score
      L1  H     4    25       P1 10747  1.00
      L1  H    20    44       P1 10175  0.98

> <Gold.Chemscore.Hbond.Weighted>
-8.0937

> <Gold.Chemscore.Metal.Weighted>
-0.0000

> <Gold.Chemscore.Lipo.Weighted>
-10.8486

> <Gold.Chemscore.Internal_Hbond.Weighted>
0.0000

> <Gold.Chemscore.DEClash.Weighted>
2.1891

> <Gold.Chemscore.DEInternal.Weighted>
0.7200

> <Gold.Chemscore.Rot.Weighted>
4.5211

> <Gold.Chemscore.Internal.Correction.Weighted>
   9.000000E+99

> <Gold.Protein.RotatedTorsions>
[ 6907 6896 6895 6894 ] final  177.93 input  -60.11 | X-H torsion
[ 7974 7965 7964 7962 ] final -164.22 input  175.53 | X-H torsion
[ 8008 7997 7996 7995 ] final -154.39 input   59.86 | X-H torsion
[ 10167 10162 10161 10158 ] final -120.82 input  -65.29 | X-H torsion
[ 10718 10713 10712 10709 ] final -106.64 input   66.30 | X-H torsion
[ 10763 10752 10751 10750 ] final -160.40 input  -60.55 | X-H torsion
[ 11005 11000 10999 10996 ] final   22.05 input  -57.11 | X-H torsion

> <Gold.Protein.ActiveResidues>
 VAL166  LYS551  ARG553  GLY616  TRP617  ASP618  TYR619  PRO620  LYS621  CYS622 
 ASP623  PHE694  ASN695  SER759  ASP760  ASP761  ALA762  ILE779  LEU786  VAL792 
 PHE793  MET794  SER795  GLU796  ALA797  LYS798  CYS799  TRP800  GLU811  SER814 

> <Gold.Protein.RotatedAtoms>
  151.6961  133.3311  159.3254 H   0  0  0  0  0  0  0  0  0  0  0  0  # atno 6907 bound_to 6896
  150.7757  134.6656  159.6373 H   0  0  0  0  0  0  0  0  0  0  0  0  # atno 6908 bound_to 6896
  152.3798  134.6611  160.0199 H   0  0  0  0  0  0  0  0  0  0  0  0  # atno 6909 bound_to 6896
  144.7303  140.2992  143.6207 H   0  0  0  0  0  0  0  0  0  0  0  0  # atno 7974 bound_to 7965
  155.6857  140.0749  157.2467 H   0  0  0  0  0  0  0  0  0  0  0  0  # atno 8008 bound_to 7997
  154.4097  140.1674  156.2083 H   0  0  0  0  0  0  0  0  0  0  0  0  # atno 8009 bound_to 7997
  155.9496  140.3378  155.6399 H   0  0  0  0  0  0  0  0  0  0  0  0  # atno 8010 bound_to 7997
  140.0317  143.5241  152.2173 H   0  0  0  0  0  0  0  0  0  0  0  0  # atno 10167 bound_to 10162
  156.0399  130.5623  150.7710 H   0  0  0  0  0  0  0  0  0  0  0  0  # atno 10718 bound_to 10713
  154.7393  135.3065  154.8756 H   0  0  0  0  0  0  0  0  0  0  0  0  # atno 10763 bound_to 10752
  153.9575  135.6757  153.4749 H   0  0  0  0  0  0  0  0  0  0  0  0  # atno 10764 bound_to 10752
  153.0993  135.4920  154.8762 H   0  0  0  0  0  0  0  0  0  0  0  0  # atno 10765 bound_to 10752
  140.3848  134.1882  155.7663 H   0  0  0  0  0  0  0  0  0  0  0  0  # atno 11005 bound_to 11000
  145.7777  139.1880  143.2176 LP  0  0  0  0  0  0  0  0  0  0  0  0  # atno 17320 bound_to 7965
  146.0859  140.7711  142.9619 LP  0  0  0  0  0  0  0  0  0  0  0  0  # atno 17321 bound_to 7965
  139.6072  144.7599  151.3035 LP  0  0  0  0  0  0  0  0  0  0  0  0  # atno 17342 bound_to 10162
  140.7299  143.6895  150.7934 LP  0  0  0  0  0  0  0  0  0  0  0  0  # atno 17343 bound_to 10162
  157.5203  131.0931  151.0086 LP  0  0  0  0  0  0  0  0  0  0  0  0  # atno 17370 bound_to 10713
  157.0418  130.5752  149.5357 LP  0  0  0  0  0  0  0  0  0  0  0  0  # atno 17371 bound_to 10713
  141.1911  133.8202  157.0892 LP  0  0  0  0  0  0  0  0  0  0  0  0  # atno 17394 bound_to 11000
  140.0451  134.9834  157.1033 LP  0  0  0  0  0  0  0  0  0  0  0  0  # atno 17395 bound_to 11000

$$$$
