AV-unprocessed.smi:3016|AV-procd|sdf|11474|dock5
  -GOLD-   2272016413D 1   1.00000     0.00000
 Structure written by MMmdl.
 34 35  0  0  0  0  0  0  0  0  1 V2000
  154.0437  141.3534  162.0549 C   0  0  0  0  0  0  0  0  0  0  0  0
  153.4688  141.0388  160.6693 C   0  0  0  0  0  0  0  0  0  0  0  0
  152.7208  142.1641  160.1273 N   0  0  0  0  0  0  0  0  0  0  0  0
  152.7867  143.4238  160.7130 C   0  0  0  0  0  0  0  0  0  0  0  0
  152.1579  144.5134  160.2318 C   0  0  0  0  0  0  0  0  0  0  0  0
  151.3448  144.3966  159.0046 C   0  0  0  0  0  0  0  0  0  0  0  0
  150.7528  145.3713  158.5405 O   0  0  0  0  0  0  0  0  0  0  0  0
  151.2833  143.0525  158.3709 C   0  0  0  0  0  0  0  0  0  0  0  0
  150.5081  142.9541  157.2031 N   0  0  0  0  0  0  0  0  0  0  0  0
  150.2877  141.8912  156.4076 C   0  0  0  0  0  0  0  0  0  0  0  0
  150.7552  140.7632  156.5610 O   0  0  0  0  0  0  0  0  0  0  0  0
  149.4769  142.2173  155.3913 N   0  0  0  0  0  0  0  0  0  0  0  0
  149.0522  141.3069  154.3359 C   0  0  0  0  0  0  0  0  0  0  0  0
  147.5661  141.3308  154.0339 C   0  0  0  0  0  0  0  0  0  0  0  0
  146.7987  142.6312  154.0864 C   0  0  0  0  0  0  0  0  0  0  0  0
  146.5480  141.5661  155.1259 C   0  0  0  0  0  0  0  0  0  0  0  0
  151.9648  142.0382  158.9632 C   0  0  0  0  0  0  0  0  0  0  0  0
  154.6001  140.5018  162.4462 H   0  0  0  0  0  0  0  0  0  0  0  0
  153.2510  141.5887  162.7659 H   0  0  0  0  0  0  0  0  0  0  0  0
  154.7233  142.2052  162.0152 H   0  0  0  0  0  0  0  0  0  0  0  0
  154.2762  140.7744  159.9852 H   0  0  0  0  0  0  0  0  0  0  0  0
  152.8194  140.1645  160.7271 H   0  0  0  0  0  0  0  0  0  0  0  0
  153.3894  143.4677  161.6087 H   0  0  0  0  0  0  0  0  0  0  0  0
  152.2356  145.4723  160.7227 H   0  0  0  0  0  0  0  0  0  0  0  0
  150.0628  143.8171  156.9270 H   0  0  0  0  0  0  0  0  0  0  0  0
  149.1372  143.1666  155.3375 H   0  0  0  0  0  0  0  0  0  0  0  0
  149.6171  141.5009  153.4223 H   0  0  0  0  0  0  0  0  0  0  0  0
  149.3175  140.2969  154.6483 H   0  0  0  0  0  0  0  0  0  0  0  0
  147.2706  140.6481  153.2392 H   0  0  0  0  0  0  0  0  0  0  0  0
  147.3335  143.5243  154.4037 H   0  0  0  0  0  0  0  0  0  0  0  0
  146.0291  142.7912  153.3339 H   0  0  0  0  0  0  0  0  0  0  0  0
  145.6131  141.0128  155.0664 H   0  0  0  0  0  0  0  0  0  0  0  0
  146.9171  141.7500  156.1331 H   0  0  0  0  0  0  0  0  0  0  0  0
  151.9694  141.0301  158.5816 H   0  0  0  0  0  0  0  0  0  0  0  0
  1  2  1  0  0  0  0
  1 18  1  0  0  0  0
  1 19  1  0  0  0  0
  1 20  1  0  0  0  0
  2  3  1  0  0  0  0
  2 21  1  0  0  0  0
  2 22  1  0  0  0  0
  3 17  1  0  0  0  0
  3  4  1  0  0  0  0
  4  5  2  0  0  0  0
  4 23  1  0  0  0  0
  5  6  1  0  0  0  0
  5 24  1  0  0  0  0
  6  7  2  0  0  0  0
  6  8  1  0  0  0  0
  8  9  1  0  0  0  0
  8 17  2  0  0  0  0
  9 10  1  0  0  0  0
  9 25  1  0  0  0  0
 10 11  2  0  0  0  0
 10 12  1  0  0  0  0
 12 13  1  0  0  0  0
 12 26  1  0  0  0  0
 13 14  1  0  0  0  0
 13 27  1  0  0  0  0
 13 28  1  0  0  0  0
 14 16  1  0  0  0  0
 14 15  1  0  0  0  0
 14 29  1  0  0  0  0
 15 16  1  0  0  0  0
 15 30  1  0  0  0  0
 15 31  1  0  0  0  0
 16 32  1  0  0  0  0
 16 33  1  0  0  0  0
 17 34  1  0  0  0  0
M  END
> <s_m_source_file>
AV-unprocessed.smi

> <i_m_source_file_index>
3016

> <i_lp_mmshare_version>
43012

> <i_f3d_flags>
0

> <s_epik_input>
W0NIM11bQ0gyXW4xW2NIXVtjSF1jKD1PKWMoW2NIXTEpW05IXUMoPU8pW05IXVtDSDJdW0NIXTJbQ0gyXVtDSDJdMg==

> <s_epik_cmdline>
J2VwaWtfcHl0aG9uJywgJy1waCcsICc3LjAnLCAnLXRuJywgJzgnLCAnLW1hJywgJzIwMCcsICctbWV0YWxfYmluZGluZycsICctaW1hZScsICc8aW5maWxlLm1hZT4nLCAnLW9tYWUnLCAnPG91dGZpbGUubWFlPic=

> <r_lp_tautomer_probability>
1

> <r_epik_Ionization_Penalty>
0.00140323

> <r_epik_Ionization_Penalty_Charging>
0.00138172

> <r_epik_Ionization_Penalty_Neutral>
2.15082e-05

> <r_epik_State_Penalty>
0.000920559

> <r_epik_Charging_Adjusted_Penalty>
0.00230228

> <i_epik_Tot_Q>
0

> <i_epik_Tot_abs_Q>
0

> <r_epik_Metal_State_Penalty>
-0

> <b_epik_Metal_Only>
0

> <s_lp_Force_Field>
OPLS_2005

> <r_lp_Energy>
6.69626

> <b_lp_Chiralities_Consistent>
1

> <s_lp_Variant>
AV-unprocessed.smi:3016-1

> <Gold.Version>
5.8.1

> <Gold.Id.Protein>
6NUR|6NUR_protein|mol2

> <Gold.PLP.Fitness>
47.1550

> <Gold.PLP.PLP>
-41.5690

> <Gold.PLP.part.hbond>
-2.5426

> <Gold.PLP.part.metal>
0.0000

> <Gold.PLP.part.buried>
-4.6995

> <Gold.PLP.part.nonpolar>
-35.6387

> <Gold.PLP.part.repulsive>
0.4040

> <Gold.PLP.ligand.clash>
0.0000

> <Gold.PLP.ligand.torsion>
0.4428

> <Gold.PLP.Chemscore.Hbond>
1.9760

> <Gold.PLP.Chemscore.CHOScore>
0.0000

> <Gold.PLP.Chemscore.Metal>
0.0000

> <Gold.Chemscore.Hbonds>
donor molecule, donor type, donor heavy atom, donor atom, acceptor molecule, acceptor atom, score
      L1  H     9    25       P1  8028  0.96
      L1  H    12    26       P1  8028  1.00

> <Gold.PLP.Chemscore.Internal.Correction>
0.5437

> <Gold.Rescore>
     Score         DG    S(hbond)    S(metal)    S(lipo)     H(rot)  DE(clash)    DE(int)     intcor
     17.34     -18.86       1.94        0.00      88.66       1.36       0.03       1.49       ----

> <Gold.Chemscore.Fitness>
17.3384

> <Gold.Chemscore.DG>
-18.8636

> <Gold.Chemscore.ZeroCoef>
-5.4800

> <Gold.Chemscore.Hbond>
1.9413

> <Gold.Chemscore.Metal>
0.0000

> <Gold.Chemscore.Lipo>
88.6625

> <Gold.Chemscore.Internal_Hbond>
0.0000

> <Gold.Chemscore.DEClash>
0.0321

> <Gold.Chemscore.DEInternal>
1.4931

> <Gold.Chemscore.Rot>
1.3569

> <Gold.Chemscore.Internal.Correction>
   9.000000E+99

> <Gold.Chemscore.Hbonds>
donor molecule, donor type, donor heavy atom, donor atom, acceptor molecule, acceptor atom, score
      L1  H     9    25       P1  8028  0.91
      L1  H    12    26       P1  8028  0.98

> <Gold.Chemscore.Hbond.Weighted>
-6.4838

> <Gold.Chemscore.Metal.Weighted>
-0.0000

> <Gold.Chemscore.Lipo.Weighted>
-10.3735

> <Gold.Chemscore.Internal_Hbond.Weighted>
0.0000

> <Gold.Chemscore.DEClash.Weighted>
0.0321

> <Gold.Chemscore.DEInternal.Weighted>
1.4931

> <Gold.Chemscore.Rot.Weighted>
3.4737

> <Gold.Chemscore.Internal.Correction.Weighted>
   9.000000E+99

> <Gold.Protein.RotatedTorsions>
[ 6907 6896 6895 6894 ] final -112.75 input  -60.11 | X-H torsion
[ 7974 7965 7964 7962 ] final -176.10 input  175.53 | X-H torsion
[ 8008 7997 7996 7995 ] final  -32.56 input   59.86 | X-H torsion
[ 10167 10162 10161 10158 ] final  136.03 input  -65.29 | X-H torsion
[ 10718 10713 10712 10709 ] final   22.47 input   66.30 | X-H torsion
[ 10763 10752 10751 10750 ] final   74.40 input  -60.55 | X-H torsion
[ 11005 11000 10999 10996 ] final   35.87 input  -57.11 | X-H torsion

> <Gold.Protein.ActiveResidues>
 VAL166  LYS551  ARG553  GLY616  TRP617  ASP618  TYR619  PRO620  LYS621  CYS622 
 ASP623  PHE694  ASN695  SER759  ASP760  ASP761  ALA762  ILE779  LEU786  VAL792 
 PHE793  MET794  SER795  GLU796  ALA797  LYS798  CYS799  TRP800  GLU811  SER814 

> <Gold.Protein.RotatedAtoms>
  150.7780  133.9044  159.3350 H   0  0  0  0  0  0  0  0  0  0  0  0  # atno 6907 bound_to 6896
  151.6914  135.0944  160.0244 H   0  0  0  0  0  0  0  0  0  0  0  0  # atno 6908 bound_to 6896
  152.3822  133.6524  159.6206 H   0  0  0  0  0  0  0  0  0  0  0  0  # atno 6909 bound_to 6896
  144.7127  140.1220  143.6404 H   0  0  0  0  0  0  0  0  0  0  0  0  # atno 7974 bound_to 7965
  154.4176  140.1734  156.1746 H   0  0  0  0  0  0  0  0  0  0  0  0  # atno 8008 bound_to 7997
  155.9732  140.3384  155.6571 H   0  0  0  0  0  0  0  0  0  0  0  0  # atno 8009 bound_to 7997
  155.6598  140.0699  157.2549 H   0  0  0  0  0  0  0  0  0  0  0  0  # atno 8010 bound_to 7997
  139.5195  144.6486  151.5369 H   0  0  0  0  0  0  0  0  0  0  0  0  # atno 10167 bound_to 10162
  157.1527  130.6682  149.6017 H   0  0  0  0  0  0  0  0  0  0  0  0  # atno 10718 bound_to 10713
  153.0584  135.5027  154.8037 H   0  0  0  0  0  0  0  0  0  0  0  0  # atno 10763 bound_to 10752
  154.6845  135.2974  154.9569 H   0  0  0  0  0  0  0  0  0  0  0  0  # atno 10764 bound_to 10752
  154.0345  135.6725  153.4836 H   0  0  0  0  0  0  0  0  0  0  0  0  # atno 10765 bound_to 10752
  140.2383  134.3445  155.7936 H   0  0  0  0  0  0  0  0  0  0  0  0  # atno 11005 bound_to 11000
  145.9362  139.2639  143.1296 LP  0  0  0  0  0  0  0  0  0  0  0  0  # atno 17320 bound_to 7965
  145.9471  140.8936  143.0278 LP  0  0  0  0  0  0  0  0  0  0  0  0  # atno 17321 bound_to 7965
  140.6281  143.9130  150.6582 LP  0  0  0  0  0  0  0  0  0  0  0  0  # atno 17342 bound_to 10162
  140.2425  143.3653  152.1475 LP  0  0  0  0  0  0  0  0  0  0  0  0  # atno 17343 bound_to 10162
  155.9767  130.4739  150.6548 LP  0  0  0  0  0  0  0  0  0  0  0  0  # atno 17370 bound_to 10713
  157.4205  131.0836  151.1135 LP  0  0  0  0  0  0  0  0  0  0  0  0  # atno 17371 bound_to 10713
  141.2212  133.7284  156.8844 LP  0  0  0  0  0  0  0  0  0  0  0  0  # atno 17394 bound_to 11000
  140.1679  134.9120  157.2797 LP  0  0  0  0  0  0  0  0  0  0  0  0  # atno 17395 bound_to 11000

$$$$
