AV-unprocessed.smi:2901|AV-procd|sdf|11150|dock3
  -GOLD-   2272016 33D 1   1.00000     0.00000
 Structure written by MMmdl.
 40 41  0  0  0  0  0  0  0  0  1 V2000
  144.9676  139.3304  156.3310 C   0  0  0  0  0  0  0  0  0  0  0  0
  145.8722  140.1817  155.5086 C   0  0  0  0  0  0  0  0  0  0  0  0
  147.1347  139.9283  155.1692 N   0  0  0  0  0  0  0  0  0  0  0  0
  147.5231  141.0230  154.4093 C   0  0  0  0  0  0  0  0  0  0  0  0
  148.8915  141.1354  153.8105 C   0  0  0  0  0  0  0  0  0  0  0  0
  149.9956  140.9896  154.8700 C   0  0  0  0  0  0  0  0  0  0  0  0
  150.2156  142.2351  155.5961 N   0  0  0  0  0  0  0  0  0  0  0  0
  151.1674  142.4231  156.5210 C   0  0  0  0  0  0  0  0  0  0  0  0
  151.9774  141.5602  156.8607 O   0  0  0  0  0  0  0  0  0  0  0  0
  151.1298  143.6625  157.0295 N   0  0  0  0  0  0  0  0  0  0  0  0
  152.0451  144.1795  158.0403 C   0  0  0  0  0  0  0  0  0  0  0  0
  152.0397  143.3059  159.3053 C   0  0  1  0  0  0  0  0  0  0  0  0
  153.4333  142.8740  159.7556 C   0  0  0  0  0  0  0  0  0  0  0  0
  153.1943  142.5531  161.2131 C   0  0  0  0  0  0  0  0  0  0  0  0
  152.1937  143.6334  161.6178 C   0  0  0  0  0  0  0  0  0  0  0  0
  151.5159  144.0172  160.4235 O   0  0  0  0  0  0  0  0  0  0  0  0
  146.4579  141.8828  154.3228 C   0  0  0  0  0  0  0  0  0  0  0  0
  146.2612  143.1952  153.6426 C   0  0  0  0  0  0  0  0  0  0  0  0
  145.4022  141.3613  155.0207 O   0  0  0  0  0  0  0  0  0  0  0  0
  145.5195  138.4944  156.7616 H   0  0  0  0  0  0  0  0  0  0  0  0
  144.1611  138.9376  155.7116 H   0  0  0  0  0  0  0  0  0  0  0  0
  144.5353  139.9188  157.1404 H   0  0  0  0  0  0  0  0  0  0  0  0
  149.0173  140.3764  153.0374 H   0  0  0  0  0  0  0  0  0  0  0  0
  148.9971  142.0961  153.3046 H   0  0  0  0  0  0  0  0  0  0  0  0
  149.7203  140.2193  155.5910 H   0  0  0  0  0  0  0  0  0  0  0  0
  150.9274  140.6612  154.4057 H   0  0  0  0  0  0  0  0  0  0  0  0
  149.5978  143.0042  155.3818 H   0  0  0  0  0  0  0  0  0  0  0  0
  150.4249  144.2979  156.6856 H   0  0  0  0  0  0  0  0  0  0  0  0
  153.0448  144.1845  157.6055 H   0  0  0  0  0  0  0  0  0  0  0  0
  151.8114  145.2169  158.2859 H   0  0  0  0  0  0  0  0  0  0  0  0
  151.4244  142.4180  159.1497 H   0  0  0  0  0  0  0  0  0  0  0  0
  153.8212  142.0272  159.1888 H   0  0  0  0  0  0  0  0  0  0  0  0
  154.1404  143.7000  159.6671 H   0  0  0  0  0  0  0  0  0  0  0  0
  152.7400  141.5658  161.3069 H   0  0  0  0  0  0  0  0  0  0  0  0
  154.1052  142.5687  161.8121 H   0  0  0  0  0  0  0  0  0  0  0  0
  151.4929  143.2798  162.3745 H   0  0  0  0  0  0  0  0  0  0  0  0
  152.7106  144.5064  162.0174 H   0  0  0  0  0  0  0  0  0  0  0  0
  146.9660  143.3175  152.8199 H   0  0  0  0  0  0  0  0  0  0  0  0
  146.4111  144.0178  154.3418 H   0  0  0  0  0  0  0  0  0  0  0  0
  145.2531  143.2747  153.2353 H   0  0  0  0  0  0  0  0  0  0  0  0
  1  2  1  0  0  0  0
  1 20  1  0  0  0  0
  1 21  1  0  0  0  0
  1 22  1  0  0  0  0
  2 19  1  0  0  0  0
  2  3  2  0  0  0  0
  3  4  1  0  0  0  0
  4  5  1  0  0  0  0
  4 17  2  0  0  0  0
  5  6  1  0  0  0  0
  5 23  1  0  0  0  0
  5 24  1  0  0  0  0
  6  7  1  0  0  0  0
  6 25  1  0  0  0  0
  6 26  1  0  0  0  0
  7  8  1  0  0  0  0
  7 27  1  0  0  0  0
  8  9  2  0  0  0  0
  8 10  1  0  0  0  0
 10 11  1  0  0  0  0
 10 28  1  0  0  0  0
 11 12  1  0  0  0  0
 11 29  1  0  0  0  0
 11 30  1  0  0  0  0
 12 16  1  0  0  0  0
 12 13  1  0  0  0  0
 12 31  1  0  0  0  0
 13 14  1  0  0  0  0
 13 32  1  0  0  0  0
 13 33  1  0  0  0  0
 14 15  1  0  0  0  0
 14 34  1  0  0  0  0
 14 35  1  0  0  0  0
 15 16  1  0  0  0  0
 15 36  1  0  0  0  0
 15 37  1  0  0  0  0
 17 18  1  0  0  0  0
 17 19  1  0  0  0  0
 18 38  1  0  0  0  0
 18 39  1  0  0  0  0
 18 40  1  0  0  0  0
M  END
> <s_m_source_file>
AV-unprocessed.smi

> <i_m_source_file_index>
2901

> <i_lp_mmshare_version>
43012

> <i_f3d_flags>
0

> <s_epik_input>
W0NIM11jMW5jKGMobzEpW0NIM10pW0NIMl1bQ0gyXVtOSF1DKD1PKVtOSF1bQ0gyXVtDQEBIXTJbQ0gyXVtDSDJdW0NIMl1PMg==

> <s_epik_cmdline>
J2VwaWtfcHl0aG9uJywgJy1waCcsICc3LjAnLCAnLXRuJywgJzgnLCAnLW1hJywgJzIwMCcsICctbWV0YWxfYmluZGluZycsICctaW1hZScsICc8aW5maWxlLm1hZT4nLCAnLW9tYWUnLCAnPG91dGZpbGUubWFlPic=

> <r_lp_tautomer_probability>
1

> <r_epik_Ionization_Penalty>
9.58254e-05

> <r_epik_Ionization_Penalty_Charging>
0

> <r_epik_Ionization_Penalty_Neutral>
9.58254e-05

> <r_epik_State_Penalty>
-0

> <r_epik_Charging_Adjusted_Penalty>
0

> <i_epik_Tot_Q>
0

> <i_epik_Tot_abs_Q>
0

> <r_epik_Metal_State_Penalty>
-0

> <b_epik_Metal_Only>
0

> <s_lp_Force_Field>
OPLS_2005

> <r_lp_Energy>
8.56878

> <b_lp_Chiralities_Consistent>
1

> <s_lp_Variant>
AV-unprocessed.smi:2901-2

> <Gold.Version>
5.8.1

> <Gold.Id.Protein>
6NUR|6NUR_protein|mol2

> <Gold.PLP.Fitness>
44.2758

> <Gold.PLP.PLP>
-39.9562

> <Gold.PLP.part.hbond>
-2.0000

> <Gold.PLP.part.metal>
0.0000

> <Gold.PLP.part.buried>
-4.5192

> <Gold.PLP.part.nonpolar>
-33.7858

> <Gold.PLP.part.repulsive>
0.4524

> <Gold.PLP.ligand.clash>
0.0000

> <Gold.PLP.ligand.torsion>
0.8730

> <Gold.PLP.Chemscore.Hbond>
2.0000

> <Gold.PLP.Chemscore.CHOScore>
0.0000

> <Gold.PLP.Chemscore.Metal>
0.0000

> <Gold.Chemscore.Hbonds>
donor molecule, donor type, donor heavy atom, donor atom, acceptor molecule, acceptor atom, score
      L1  H     7    27       P1  8028  1.00
      L1  H    10    28       P1  8028  1.00

> <Gold.PLP.Chemscore.Internal.Correction>
0.0656

> <Gold.Rescore>
     Score         DG    S(hbond)    S(metal)    S(lipo)     H(rot)  DE(clash)    DE(int)     intcor
     17.13     -17.91       1.94        0.00      92.72       1.92       0.03       0.76       ----

> <Gold.Chemscore.Fitness>
17.1311

> <Gold.Chemscore.DG>
-17.9144

> <Gold.Chemscore.ZeroCoef>
-5.4800

> <Gold.Chemscore.Hbond>
1.9440

> <Gold.Chemscore.Metal>
0.0000

> <Gold.Chemscore.Lipo>
92.7203

> <Gold.Chemscore.Internal_Hbond>
0.0000

> <Gold.Chemscore.DEClash>
0.0270

> <Gold.Chemscore.DEInternal>
0.7563

> <Gold.Chemscore.Rot>
1.9167

> <Gold.Chemscore.Internal.Correction>
   9.000000E+99

> <Gold.Chemscore.Hbonds>
donor molecule, donor type, donor heavy atom, donor atom, acceptor molecule, acceptor atom, score
      L1  H     7    27       P1  8028  0.98
      L1  H    10    28       P1  8028  0.97

> <Gold.Chemscore.Hbond.Weighted>
-6.4930

> <Gold.Chemscore.Metal.Weighted>
-0.0000

> <Gold.Chemscore.Lipo.Weighted>
-10.8483

> <Gold.Chemscore.Internal_Hbond.Weighted>
0.0000

> <Gold.Chemscore.DEClash.Weighted>
0.0270

> <Gold.Chemscore.DEInternal.Weighted>
0.7563

> <Gold.Chemscore.Rot.Weighted>
4.9069

> <Gold.Chemscore.Internal.Correction.Weighted>
   9.000000E+99

> <Gold.Protein.RotatedTorsions>
[ 6907 6896 6895 6894 ] final  -22.66 input  -60.11 | X-H torsion
[ 7974 7965 7964 7962 ] final  173.35 input  175.53 | X-H torsion
[ 8008 7997 7996 7995 ] final  169.12 input   59.86 | X-H torsion
[ 10167 10162 10161 10158 ] final  -70.89 input  -65.29 | X-H torsion
[ 10718 10713 10712 10709 ] final -155.87 input   66.30 | X-H torsion
[ 10763 10752 10751 10750 ] final   85.99 input  -60.55 | X-H torsion
[ 11005 11000 10999 10996 ] final  -92.07 input  -57.11 | X-H torsion

> <Gold.Protein.ActiveResidues>
 VAL166  LYS551  ARG553  GLY616  TRP617  ASP618  TYR619  PRO620  LYS621  CYS622 
 ASP623  PHE694  ASN695  SER759  ASP760  ASP761  ALA762  ILE779  LEU786  VAL792 
 PHE793  MET794  SER795  GLU796  ALA797  LYS798  CYS799  TRP800  GLU811  SER814 

> <Gold.Protein.RotatedAtoms>
  151.2153  135.0497  159.8927 H   0  0  0  0  0  0  0  0  0  0  0  0  # atno 6907 bound_to 6896
  152.5421  134.0700  159.8200 H   0  0  0  0  0  0  0  0  0  0  0  0  # atno 6908 bound_to 6896
  151.0858  133.5306  159.2649 H   0  0  0  0  0  0  0  0  0  0  0  0  # atno 6909 bound_to 6896
  144.7246  139.9635  143.6435 H   0  0  0  0  0  0  0  0  0  0  0  0  # atno 7974 bound_to 7965
  156.1486  140.1572  156.8807 H   0  0  0  0  0  0  0  0  0  0  0  0  # atno 8008 bound_to 7997
  154.5050  140.0815  156.7913 H   0  0  0  0  0  0  0  0  0  0  0  0  # atno 8009 bound_to 7997
  155.3941  140.3411  155.4255 H   0  0  0  0  0  0  0  0  0  0  0  0  # atno 8010 bound_to 7997
  140.5316  143.2321  151.7251 H   0  0  0  0  0  0  0  0  0  0  0  0  # atno 10167 bound_to 10162
  156.5187  130.8468  151.2674 H   0  0  0  0  0  0  0  0  0  0  0  0  # atno 10718 bound_to 10713
  153.1527  135.4597  154.9660 H   0  0  0  0  0  0  0  0  0  0  0  0  # atno 10763 bound_to 10752
  154.7837  135.3197  154.7935 H   0  0  0  0  0  0  0  0  0  0  0  0  # atno 10764 bound_to 10752
  153.8438  135.6928  153.4854 H   0  0  0  0  0  0  0  0  0  0  0  0  # atno 10765 bound_to 10752
  141.1530  133.7797  156.9969 H   0  0  0  0  0  0  0  0  0  0  0  0  # atno 11005 bound_to 11000
  146.0619  139.3612  143.0576 LP  0  0  0  0  0  0  0  0  0  0  0  0  # atno 17320 bound_to 7965
  145.8081  140.9739  143.0963 LP  0  0  0  0  0  0  0  0  0  0  0  0  # atno 17321 bound_to 7965
  139.4956  144.4105  152.0086 LP  0  0  0  0  0  0  0  0  0  0  0  0  # atno 17342 bound_to 10162
  140.3207  144.3431  150.6010 LP  0  0  0  0  0  0  0  0  0  0  0  0  # atno 17343 bound_to 10162
  157.7440  130.9924  150.2637 LP  0  0  0  0  0  0  0  0  0  0  0  0  # atno 17370 bound_to 10713
  156.3170  130.3780  149.7610 LP  0  0  0  0  0  0  0  0  0  0  0  0  # atno 17371 bound_to 10713
  140.0966  134.9561  157.1859 LP  0  0  0  0  0  0  0  0  0  0  0  0  # atno 17394 bound_to 11000
  140.3374  134.2742  155.7217 LP  0  0  0  0  0  0  0  0  0  0  0  0  # atno 17395 bound_to 11000

$$$$
