AV-unprocessed.smi:1734|AV-procd|sdf|6987|dock2
  -GOLD-   22720 8203D 1   1.00000     0.00000
 Structure written by MMmdl.
 51 53  0  0  0  0  0  0  0  0  2 V2000
  150.9098  144.4682  158.3771 C   0  0  0  0  0  0  0  0  0  0  0  0
  151.4033  143.0692  158.7088 C   0  0  0  0  0  0  0  0  0  0  0  0
  152.3696  142.9005  159.7232 C   0  0  0  0  0  0  0  0  0  0  0  0
  152.8257  141.6067  160.0275 C   0  0  0  0  0  0  0  0  0  0  0  0
  152.2916  140.5289  159.3007 C   0  0  0  0  0  0  0  0  0  0  0  0
  151.3673  140.6807  158.3302 N   0  0  0  0  0  0  0  0  0  0  0  0
  150.9177  141.9236  158.0230 C   0  0  0  0  0  0  0  0  0  0  0  0
  149.9469  142.1597  157.0092 N   0  0  0  0  0  0  0  0  0  0  0  0
  149.3761  141.2727  156.1756 C   0  0  0  0  0  0  0  0  0  0  0  0
  149.6095  140.0639  156.1463 O   0  0  0  0  0  0  0  0  0  0  0  0
  148.4875  141.8683  155.3674 N   0  0  0  0  0  0  0  0  0  0  0  0
  147.6745  141.1746  154.3750 C   0  0  0  0  0  0  0  0  0  0  0  0
  146.5246  140.3280  154.9934 C   0  0  1  0  0  0  0  0  0  0  0  0
  145.4355  141.1777  155.7081 C   0  0  1  0  0  0  0  0  0  0  0  0
  145.8905  141.7980  157.0197 C   0  0  0  0  0  0  0  0  0  0  0  0
  144.8402  142.8776  157.2491 C   0  0  0  0  0  0  0  0  0  0  0  0
  144.4921  143.3436  155.9520 O   0  0  0  0  0  0  0  0  0  0  0  0
  144.9731  142.4380  154.9639 C   0  0  0  0  0  0  0  0  0  0  0  0
  145.8904  139.4314  153.9805 N   0  3  0  0  0  0  0  0  0  0  0  0
  146.7992  138.8545  152.9573 C   0  0  0  0  0  0  0  0  0  0  0  0
  145.9782  138.1128  151.8896 C   0  0  0  0  0  0  0  0  0  0  0  0
  145.1926  137.1021  152.5108 O   0  0  0  0  0  0  0  0  0  0  0  0
  144.2646  137.6414  153.4453 C   0  0  0  0  0  0  0  0  0  0  0  0
  145.0219  138.3788  154.5627 C   0  0  0  0  0  0  0  0  0  0  0  0
  151.3793  145.2166  159.0161 H   0  0  0  0  0  0  0  0  0  0  0  0
  149.8306  144.5371  158.5183 H   0  0  0  0  0  0  0  0  0  0  0  0
  151.1417  144.7181  157.3413 H   0  0  0  0  0  0  0  0  0  0  0  0
  152.7595  143.7506  160.2636 H   0  0  0  0  0  0  0  0  0  0  0  0
  153.5652  141.4448  160.7977 H   0  0  0  0  0  0  0  0  0  0  0  0
  152.6145  139.5184  159.5031 H   0  0  0  0  0  0  0  0  0  0  0  0
  149.6465  143.1187  156.9168 H   0  0  0  0  0  0  0  0  0  0  0  0
  148.3569  142.8660  155.4514 H   0  0  0  0  0  0  0  0  0  0  0  0
  147.2675  141.9344  153.7079 H   0  0  0  0  0  0  0  0  0  0  0  0
  148.3340  140.5566  153.7649 H   0  0  0  0  0  0  0  0  0  0  0  0
  146.9530  139.6716  155.7523 H   0  0  0  0  0  0  0  0  0  0  0  0
  144.5570  140.5621  155.9068 H   0  0  0  0  0  0  0  0  0  0  0  0
  145.9373  141.0840  157.8425 H   0  0  0  0  0  0  0  0  0  0  0  0
  146.8755  142.2536  156.9064 H   0  0  0  0  0  0  0  0  0  0  0  0
  143.9516  142.4511  157.7160 H   0  0  0  0  0  0  0  0  0  0  0  0
  145.2023  143.6877  157.8827 H   0  0  0  0  0  0  0  0  0  0  0  0
  145.8077  142.9143  154.4479 H   0  0  0  0  0  0  0  0  0  0  0  0
  144.1954  142.2287  154.2294 H   0  0  0  0  0  0  0  0  0  0  0  0
  147.3886  139.6379  152.4821 H   0  0  0  0  0  0  0  0  0  0  0  0
  147.4991  138.1583  153.4207 H   0  0  0  0  0  0  0  0  0  0  0  0
  145.3369  138.8045  151.3404 H   0  0  0  0  0  0  0  0  0  0  0  0
  146.6416  137.6466  151.1610 H   0  0  0  0  0  0  0  0  0  0  0  0
  143.5678  138.3112  152.9386 H   0  0  0  0  0  0  0  0  0  0  0  0
  143.6739  136.8274  153.8661 H   0  0  0  0  0  0  0  0  0  0  0  0
  145.6204  137.6669  155.1317 H   0  0  0  0  0  0  0  0  0  0  0  0
  144.3065  138.8229  155.2558 H   0  0  0  0  0  0  0  0  0  0  0  0
  145.2579  140.0322  153.4716 H   0  0  0  0  0  0  0  0  0  0  0  0
  1  2  1  0  0  0  0
  1 25  1  0  0  0  0
  1 26  1  0  0  0  0
  1 27  1  0  0  0  0
  2  7  1  0  0  0  0
  2  3  2  0  0  0  0
  3  4  1  0  0  0  0
  3 28  1  0  0  0  0
  4  5  2  0  0  0  0
  4 29  1  0  0  0  0
  5  6  1  0  0  0  0
  5 30  1  0  0  0  0
  6  7  2  0  0  0  0
  7  8  1  0  0  0  0
  8  9  1  0  0  0  0
  8 31  1  0  0  0  0
  9 10  2  0  0  0  0
  9 11  1  0  0  0  0
 11 12  1  0  0  0  0
 11 32  1  0  0  0  0
 12 13  1  0  0  0  0
 12 33  1  0  0  0  0
 12 34  1  0  0  0  0
 13 14  1  0  0  0  0
 13 19  1  0  0  0  0
 13 35  1  0  0  0  0
 14 18  1  0  0  0  0
 14 15  1  0  0  0  0
 14 36  1  0  0  0  0
 15 16  1  0  0  0  0
 15 37  1  0  0  0  0
 15 38  1  0  0  0  0
 16 17  1  0  0  0  0
 16 39  1  0  0  0  0
 16 40  1  0  0  0  0
 17 18  1  0  0  0  0
 18 41  1  0  0  0  0
 18 42  1  0  0  0  0
 19 24  1  0  0  0  0
 19 20  1  0  0  0  0
 19 51  1  0  0  0  0
 20 21  1  0  0  0  0
 20 43  1  0  0  0  0
 20 44  1  0  0  0  0
 21 22  1  0  0  0  0
 21 45  1  0  0  0  0
 21 46  1  0  0  0  0
 22 23  1  0  0  0  0
 23 24  1  0  0  0  0
 23 47  1  0  0  0  0
 23 48  1  0  0  0  0
 24 49  1  0  0  0  0
 24 50  1  0  0  0  0
M  CHG  1  19   1
M  END
> <s_m_source_file>
AV-unprocessed.smi

> <i_m_source_file_index>
1734

> <i_lp_mmshare_version>
43012

> <i_f3d_flags>
0

> <s_epik_input>
W0NIM11jMVtjSF1bY0hdW2NIXW5jMVtOSF1DKD1PKVtOSF1bQ0gyXVtDQEhdKFtDQEBIXTJbQ0gyXVtDSDJdT1tDSDJdMilOM1tDSDJdW0NIMl1PW0NIMl1bQ0gyXTM=

> <s_epik_cmdline>
J2VwaWtfcHl0aG9uJywgJy1waCcsICc3LjAnLCAnLXRuJywgJzgnLCAnLW1hJywgJzIwMCcsICctbWV0YWxfYmluZGluZycsICctaW1hZScsICc8aW5maWxlLm1hZT4nLCAnLW9tYWUnLCAnPG91dGZpbGUubWFlPic=

> <r_epik_Ionization_Penalty>
0.983302

> <r_epik_Ionization_Penalty_Charging>
0.98326

> <r_epik_Ionization_Penalty_Neutral>
4.21967e-05

> <r_epik_State_Penalty>
1.0303

> <r_epik_Charging_Adjusted_Penalty>
2.01356

> <i_epik_Tot_Q>
1

> <i_epik_Tot_abs_Q>
1

> <r_epik_Metal_State_Penalty>
1.03031

> <b_epik_Metal_Only>
0

> <s_lp_Force_Field>
OPLS_2005

> <r_lp_Energy>
38.82

> <b_lp_Chiralities_Consistent>
1

> <s_lp_Variant>
AV-unprocessed.smi:1734-8

> <Gold.Version>
5.8.1

> <Gold.Id.Protein>
6NUR|6NUR_protein|mol2

> <Gold.PLP.Fitness>
49.3380

> <Gold.PLP.PLP>
-38.1236

> <Gold.PLP.part.hbond>
-3.0000

> <Gold.PLP.part.metal>
0.0000

> <Gold.PLP.part.buried>
-2.1816

> <Gold.PLP.part.nonpolar>
-34.6324

> <Gold.PLP.part.repulsive>
0.6368

> <Gold.PLP.ligand.clash>
0.0000

> <Gold.PLP.ligand.torsion>
0.6663

> <Gold.PLP.Chemscore.Hbond>
3.9825

> <Gold.PLP.Chemscore.CHOScore>
0.0000

> <Gold.PLP.Chemscore.Metal>
0.0000

> <Gold.Chemscore.Hbonds>
donor molecule, donor type, donor heavy atom, donor atom, acceptor molecule, acceptor atom, score
      L1  H     8    31       P1  8028  0.64
      L1  H    11    32       P1  8028  1.00
      L1  H    19    51       P1 10175  2.00

> <Gold.PLP.Chemscore.Internal.Correction>
0.5996

> <Gold.Rescore>
     Score         DG    S(hbond)    S(metal)    S(lipo)     H(rot)  DE(clash)    DE(int)     intcor
     19.22     -21.48       2.95        0.00      89.59       1.70       0.19       2.06       ----

> <Gold.Chemscore.Fitness>
19.2233

> <Gold.Chemscore.DG>
-21.4750

> <Gold.Chemscore.ZeroCoef>
-5.4800

> <Gold.Chemscore.Hbond>
2.9526

> <Gold.Chemscore.Metal>
0.0000

> <Gold.Chemscore.Lipo>
89.5892

> <Gold.Chemscore.Internal_Hbond>
0.0000

> <Gold.Chemscore.DEClash>
0.1905

> <Gold.Chemscore.DEInternal>
2.0612

> <Gold.Chemscore.Rot>
1.6986

> <Gold.Chemscore.Internal.Correction>
   9.000000E+99

> <Gold.Chemscore.Hbonds>
donor molecule, donor type, donor heavy atom, donor atom, acceptor molecule, acceptor atom, score
      L1  H     8    31       P1  8028  0.61
      L1  H    11    32       P1  8028  0.98
      L1  H    19    51       P1 10175  0.98

> <Gold.Chemscore.Hbond.Weighted>
-9.8616

> <Gold.Chemscore.Metal.Weighted>
-0.0000

> <Gold.Chemscore.Lipo.Weighted>
-10.4819

> <Gold.Chemscore.Internal_Hbond.Weighted>
0.0000

> <Gold.Chemscore.DEClash.Weighted>
0.1905

> <Gold.Chemscore.DEInternal.Weighted>
2.0612

> <Gold.Chemscore.Rot.Weighted>
4.3485

> <Gold.Chemscore.Internal.Correction.Weighted>
   9.000000E+99

> <Gold.Protein.RotatedTorsions>
[ 6907 6896 6895 6894 ] final   54.01 input  -60.11 | X-H torsion
[ 7974 7965 7964 7962 ] final   83.22 input  175.53 | X-H torsion
[ 8008 7997 7996 7995 ] final   -7.74 input   59.86 | X-H torsion
[ 10167 10162 10161 10158 ] final  135.94 input  -65.29 | X-H torsion
[ 10718 10713 10712 10709 ] final  -82.76 input   66.30 | X-H torsion
[ 10763 10752 10751 10750 ] final -101.06 input  -60.55 | X-H torsion
[ 11005 11000 10999 10996 ] final  116.44 input  -57.11 | X-H torsion

> <Gold.Protein.ActiveResidues>
 VAL166  LYS551  ARG553  GLY616  TRP617  ASP618  TYR619  PRO620  LYS621  CYS622 
 ASP623  PHE694  ASN695  SER759  ASP760  ASP761  ALA762  ILE779  LEU786  VAL792 
 PHE793  MET794  SER795  GLU796  ALA797  LYS798  CYS799  TRP800  GLU811  SER814 

> <Gold.Protein.RotatedAtoms>
  152.3396  134.7152  160.0267 H   0  0  0  0  0  0  0  0  0  0  0  0  # atno 6907 bound_to 6896
  151.7542  133.3324  159.3408 H   0  0  0  0  0  0  0  0  0  0  0  0  # atno 6908 bound_to 6896
  150.7471  134.6097  159.6124 H   0  0  0  0  0  0  0  0  0  0  0  0  # atno 6909 bound_to 6896
  145.6148  139.2375  143.2171 H   0  0  0  0  0  0  0  0  0  0  0  0  # atno 7974 bound_to 7965
  154.5808  140.2399  155.8056 H   0  0  0  0  0  0  0  0  0  0  0  0  # atno 8008 bound_to 7997
  156.2178  140.3007  155.9836 H   0  0  0  0  0  0  0  0  0  0  0  0  # atno 8009 bound_to 7997
  155.2544  140.0412  157.2981 H   0  0  0  0  0  0  0  0  0  0  0  0  # atno 8010 bound_to 7997
  139.5198  144.6491  151.5355 H   0  0  0  0  0  0  0  0  0  0  0  0  # atno 10167 bound_to 10162
  156.0028  130.4644  150.4154 H   0  0  0  0  0  0  0  0  0  0  0  0  # atno 10718 bound_to 10713
  154.7628  135.4912  153.9497 H   0  0  0  0  0  0  0  0  0  0  0  0  # atno 10763 bound_to 10752
  153.1272  135.6745  153.9245 H   0  0  0  0  0  0  0  0  0  0  0  0  # atno 10764 bound_to 10752
  153.8959  135.3115  155.3427 H   0  0  0  0  0  0  0  0  0  0  0  0  # atno 10765 bound_to 10752
  139.9041  134.9598  156.7198 H   0  0  0  0  0  0  0  0  0  0  0  0  # atno 11005 bound_to 11000
  146.1476  140.6970  142.9337 LP  0  0  0  0  0  0  0  0  0  0  0  0  # atno 17320 bound_to 7965
  144.7255  140.4510  143.6976 LP  0  0  0  0  0  0  0  0  0  0  0  0  # atno 17321 bound_to 7965
  140.6288  143.9117  150.6587 LP  0  0  0  0  0  0  0  0  0  0  0  0  # atno 17342 bound_to 10162
  140.2414  143.3661  152.1483 LP  0  0  0  0  0  0  0  0  0  0  0  0  # atno 17343 bound_to 10162
  157.2213  131.0483  151.2544 LP  0  0  0  0  0  0  0  0  0  0  0  0  # atno 17370 bound_to 10713
  157.3797  130.7225  149.6622 LP  0  0  0  0  0  0  0  0  0  0  0  0  # atno 17371 bound_to 10713
  140.7010  133.9307  155.8024 LP  0  0  0  0  0  0  0  0  0  0  0  0  # atno 17394 bound_to 11000
  141.0372  134.0673  157.3945 LP  0  0  0  0  0  0  0  0  0  0  0  0  # atno 17395 bound_to 11000

$$$$
