AV-unprocessed.smi:1586|AV-procd|sdf|6375|dock5
  -GOLD-   22720 7 03D 1   1.00000     0.00000
 Structure written by MMmdl.
 47 48  0  0  0  0  0  0  0  0  2 V2000
  144.9892  131.0515  150.8258 C   0  0  0  0  0  0  0  0  0  0  0  0
  145.5122  131.8216  152.0468 C   0  0  0  0  0  0  0  0  0  0  0  0
  146.7437  132.5559  151.7465 N   0  0  0  0  0  0  0  0  0  0  0  0
  146.5975  133.4434  150.5930 C   0  0  0  0  0  0  0  0  0  0  0  0
  145.7015  134.6627  150.8999 C   0  0  0  0  0  0  0  0  0  0  0  0
  146.2381  135.4490  152.0455 N   0  3  0  0  0  0  0  0  0  0  0  0
  145.4816  136.6962  152.3922 C   0  0  2  0  0  0  0  0  0  0  0  0
  146.1208  137.5109  153.5430 C   0  0  0  0  0  0  0  0  0  0  0  0
  144.0087  136.3508  152.7391 C   0  0  0  0  0  0  0  0  0  0  0  0
  143.2056  137.5268  153.0616 N   0  0  0  0  0  0  0  0  0  0  0  0
  141.9722  137.4862  153.5856 C   0  0  0  0  0  0  0  0  0  0  0  0
  141.3850  136.4364  153.8500 O   0  0  0  0  0  0  0  0  0  0  0  0
  141.4770  138.7213  153.7735 N   0  0  0  0  0  0  0  0  0  0  0  0
  140.2048  139.0703  154.2942 C   0  0  0  0  0  0  0  0  0  0  0  0
  139.0732  138.2414  154.0726 C   0  0  0  0  0  0  0  0  0  0  0  0
  138.0719  138.9080  154.7211 C   0  0  0  0  0  0  0  0  0  0  0  0
  136.6207  138.6261  154.9094 C   0  0  0  0  0  0  0  0  0  0  0  0
  138.5520  140.0467  155.2901 O   0  0  0  0  0  0  0  0  0  0  0  0
  139.9206  140.1452  155.0129 N   0  0  0  0  0  0  0  0  0  0  0  0
  146.4121  134.5459  153.2166 C   0  0  0  0  0  0  0  0  0  0  0  0
  147.2947  133.3324  152.8601 C   0  0  0  0  0  0  0  0  0  0  0  0
  144.0074  130.6271  151.0362 H   0  0  0  0  0  0  0  0  0  0  0  0
  145.6435  130.2244  150.5517 H   0  0  0  0  0  0  0  0  0  0  0  0
  144.8859  131.7053  149.9593 H   0  0  0  0  0  0  0  0  0  0  0  0
  144.7476  132.5416  152.3416 H   0  0  0  0  0  0  0  0  0  0  0  0
  145.6393  131.1459  152.8915 H   0  0  0  0  0  0  0  0  0  0  0  0
  147.5879  133.7862  150.2902 H   0  0  0  0  0  0  0  0  0  0  0  0
  146.1979  132.8831  149.7469 H   0  0  0  0  0  0  0  0  0  0  0  0
  145.6821  135.2718  149.9969 H   0  0  0  0  0  0  0  0  0  0  0  0
  144.6738  134.3574  151.1011 H   0  0  0  0  0  0  0  0  0  0  0  0
  145.4969  137.3392  151.5108 H   0  0  0  0  0  0  0  0  0  0  0  0
  145.5323  138.3955  153.7859 H   0  0  0  0  0  0  0  0  0  0  0  0
  147.1120  137.8814  153.2814 H   0  0  0  0  0  0  0  0  0  0  0  0
  146.2058  136.9169  154.4536 H   0  0  0  0  0  0  0  0  0  0  0  0
  143.5107  135.8170  151.9303 H   0  0  0  0  0  0  0  0  0  0  0  0
  143.9814  135.6821  153.5999 H   0  0  0  0  0  0  0  0  0  0  0  0
  143.6177  138.4295  152.8750 H   0  0  0  0  0  0  0  0  0  0  0  0
  142.0704  139.4951  153.5137 H   0  0  0  0  0  0  0  0  0  0  0  0
  139.0032  137.3111  153.5289 H   0  0  0  0  0  0  0  0  0  0  0  0
  136.3194  137.7406  154.3497 H   0  0  0  0  0  0  0  0  0  0  0  0
  136.0159  139.4653  154.5653 H   0  0  0  0  0  0  0  0  0  0  0  0
  136.3940  138.4542  155.9617 H   0  0  0  0  0  0  0  0  0  0  0  0
  146.8888  135.0728  154.0407 H   0  0  0  0  0  0  0  0  0  0  0  0
  145.4391  134.2236  153.5887 H   0  0  0  0  0  0  0  0  0  0  0  0
  147.4375  132.6980  153.7341 H   0  0  0  0  0  0  0  0  0  0  0  0
  148.2901  133.6797  152.5797 H   0  0  0  0  0  0  0  0  0  0  0  0
  147.1610  135.7461  151.7631 H   0  0  0  0  0  0  0  0  0  0  0  0
  1  2  1  0  0  0  0
  1 22  1  0  0  0  0
  1 23  1  0  0  0  0
  1 24  1  0  0  0  0
  2  3  1  0  0  0  0
  2 25  1  0  0  0  0
  2 26  1  0  0  0  0
  3 21  1  0  0  0  0
  3  4  1  0  0  0  0
  4  5  1  0  0  0  0
  4 27  1  0  0  0  0
  4 28  1  0  0  0  0
  5  6  1  0  0  0  0
  5 29  1  0  0  0  0
  5 30  1  0  0  0  0
  6  7  1  0  0  0  0
  6 20  1  0  0  0  0
  6 47  1  0  0  0  0
  7  8  1  0  0  0  0
  7  9  1  0  0  0  0
  7 31  1  0  0  0  0
  8 32  1  0  0  0  0
  8 33  1  0  0  0  0
  8 34  1  0  0  0  0
  9 10  1  0  0  0  0
  9 35  1  0  0  0  0
  9 36  1  0  0  0  0
 10 11  1  0  0  0  0
 10 37  1  0  0  0  0
 11 12  2  0  0  0  0
 11 13  1  0  0  0  0
 13 14  1  0  0  0  0
 13 38  1  0  0  0  0
 14 19  2  0  0  0  0
 14 15  1  0  0  0  0
 15 16  2  0  0  0  0
 15 39  1  0  0  0  0
 16 17  1  0  0  0  0
 16 18  1  0  0  0  0
 17 40  1  0  0  0  0
 17 41  1  0  0  0  0
 17 42  1  0  0  0  0
 18 19  1  0  0  0  0
 20 21  1  0  0  0  0
 20 43  1  0  0  0  0
 20 44  1  0  0  0  0
 21 45  1  0  0  0  0
 21 46  1  0  0  0  0
M  CHG  1   6   1
M  END
> <s_m_source_file>
AV-unprocessed.smi

> <i_m_source_file_index>
1586

> <i_lp_mmshare_version>
43012

> <i_f3d_flags>
0

> <s_epik_input>
W0NIM11bQ0gyXU4xW0NIMl1bQ0gyXU4oW0NIMl1bQ0gyXTEpW0NASF0oW0NIM10pW0NIMl1bTkhdQyg9TylbTkhdYzJbY0hdYyhbQ0gzXSlvbjI=

> <s_epik_cmdline>
J2VwaWtfcHl0aG9uJywgJy1waCcsICc3LjAnLCAnLXRuJywgJzgnLCAnLW1hJywgJzIwMCcsICctbWV0YWxfYmluZGluZycsICctaW1hZScsICc8aW5maWxlLm1hZT4nLCAnLW9tYWUnLCAnPG91dGZpbGUubWFlPic=

> <r_epik_Ionization_Penalty>
0.153363

> <r_epik_Ionization_Penalty_Charging>
0.151842

> <r_epik_Ionization_Penalty_Neutral>
0.00152029

> <r_epik_State_Penalty>
0.985235

> <r_epik_Charging_Adjusted_Penalty>
1.13708

> <i_epik_Tot_Q>
1

> <i_epik_Tot_abs_Q>
1

> <r_epik_Metal_State_Penalty>
0.996168

> <b_epik_Metal_Only>
0

> <s_lp_Force_Field>
OPLS_2005

> <r_lp_Energy>
18.9403

> <b_lp_Chiralities_Consistent>
1

> <s_lp_Variant>
AV-unprocessed.smi:1586-3

> <Gold.Version>
5.8.1

> <Gold.Id.Protein>
6NUR|6NUR_protein|mol2

> <Gold.PLP.Fitness>
44.4549

> <Gold.PLP.PLP>
-32.9980

> <Gold.PLP.part.hbond>
-4.9909

> <Gold.PLP.part.metal>
0.0000

> <Gold.PLP.part.buried>
-4.1128

> <Gold.PLP.part.nonpolar>
-24.3039

> <Gold.PLP.part.repulsive>
0.5952

> <Gold.PLP.ligand.clash>
0.0000

> <Gold.PLP.ligand.torsion>
0.2987

> <Gold.PLP.Chemscore.Hbond>
3.9920

> <Gold.PLP.Chemscore.CHOScore>
0.0000

> <Gold.PLP.Chemscore.Metal>
0.0000

> <Gold.Chemscore.Hbonds>
donor molecule, donor type, donor heavy atom, donor atom, acceptor molecule, acceptor atom, score
      L1  H     6    47       P1  7948  2.00
      L1  H    10    37       P1 10175  0.96
      L1  H    13    38       P1 10175  0.89

> <Gold.PLP.Chemscore.Internal.Correction>
0.0782

> <Gold.Rescore>
     Score         DG    S(hbond)    S(metal)    S(lipo)     H(rot)  DE(clash)    DE(int)     intcor
     17.00     -18.78       2.89        0.00      69.64       1.76       0.04       1.73       ----

> <Gold.Chemscore.Fitness>
17.0040

> <Gold.Chemscore.DG>
-18.7760

> <Gold.Chemscore.ZeroCoef>
-5.4800

> <Gold.Chemscore.Hbond>
2.8932

> <Gold.Chemscore.Metal>
0.0000

> <Gold.Chemscore.Lipo>
69.6376

> <Gold.Chemscore.Internal_Hbond>
0.0000

> <Gold.Chemscore.DEClash>
0.0437

> <Gold.Chemscore.DEInternal>
1.7283

> <Gold.Chemscore.Rot>
1.7637

> <Gold.Chemscore.Internal.Correction>
   9.000000E+99

> <Gold.Chemscore.Hbonds>
donor molecule, donor type, donor heavy atom, donor atom, acceptor molecule, acceptor atom, score
      L1  H     6    47       P1  7948  1.00
      L1  H    10    37       P1 10175  0.90
      L1  H    13    38       P1 10175  0.83

> <Gold.Chemscore.Hbond.Weighted>
-9.6634

> <Gold.Chemscore.Metal.Weighted>
-0.0000

> <Gold.Chemscore.Lipo.Weighted>
-8.1476

> <Gold.Chemscore.Internal_Hbond.Weighted>
0.0000

> <Gold.Chemscore.DEClash.Weighted>
0.0437

> <Gold.Chemscore.DEInternal.Weighted>
1.7283

> <Gold.Chemscore.Rot.Weighted>
4.5150

> <Gold.Chemscore.Internal.Correction.Weighted>
   9.000000E+99

> <Gold.Protein.RotatedTorsions>
[ 6907 6896 6895 6894 ] final  -36.00 input  -60.11 | X-H torsion
[ 7974 7965 7964 7962 ] final -107.12 input  175.53 | X-H torsion
[ 8008 7997 7996 7995 ] final    1.42 input   59.86 | X-H torsion
[ 10167 10162 10161 10158 ] final  -14.97 input  -65.29 | X-H torsion
[ 10718 10713 10712 10709 ] final -178.76 input   66.30 | X-H torsion
[ 10763 10752 10751 10750 ] final  121.53 input  -60.55 | X-H torsion
[ 11005 11000 10999 10996 ] final -124.87 input  -57.11 | X-H torsion

> <Gold.Protein.ActiveResidues>
 VAL166  LYS551  ARG553  GLY616  TRP617  ASP618  TYR619  PRO620  LYS621  CYS622 
 ASP623  PHE694  ASN695  SER759  ASP760  ASP761  ALA762  ILE779  LEU786  VAL792 
 PHE793  MET794  SER795  GLU796  ALA797  LYS798  CYS799  TRP800  GLU811  SER814 

> <Gold.Protein.RotatedAtoms>
  151.0327  134.9550  159.8119 H   0  0  0  0  0  0  0  0  0  0  0  0  # atno 6907 bound_to 6896
  152.5349  134.2760  159.8999 H   0  0  0  0  0  0  0  0  0  0  0  0  # atno 6908 bound_to 6896
  151.2770  133.4185  159.2658 H   0  0  0  0  0  0  0  0  0  0  0  0  # atno 6909 bound_to 6896
  145.2092  140.9089  143.3324 H   0  0  0  0  0  0  0  0  0  0  0  0  # atno 7974 bound_to 7965
  154.6795  140.2629  155.6923 H   0  0  0  0  0  0  0  0  0  0  0  0  # atno 8008 bound_to 7997
  156.2691  140.2813  156.1256 H   0  0  0  0  0  0  0  0  0  0  0  0  # atno 8009 bound_to 7997
  155.1052  140.0375  157.2698 H   0  0  0  0  0  0  0  0  0  0  0  0  # atno 8010 bound_to 7997
  140.7210  143.5266  150.9569 H   0  0  0  0  0  0  0  0  0  0  0  0  # atno 10167 bound_to 10162
  156.8491  130.9713  151.3094 H   0  0  0  0  0  0  0  0  0  0  0  0  # atno 10718 bound_to 10713
  153.6155  135.3422  155.2993 H   0  0  0  0  0  0  0  0  0  0  0  0  # atno 10763 bound_to 10752
  154.8610  135.4260  154.2264 H   0  0  0  0  0  0  0  0  0  0  0  0  # atno 10764 bound_to 10752
  153.3124  135.7032  153.7176 H   0  0  0  0  0  0  0  0  0  0  0  0  # atno 10765 bound_to 10752
  140.9807  134.0677  157.3768 H   0  0  0  0  0  0  0  0  0  0  0  0  # atno 11005 bound_to 11000
  144.9872  139.3725  143.6233 LP  0  0  0  0  0  0  0  0  0  0  0  0  # atno 17320 bound_to 7965
  146.3401  139.9038  142.8790 LP  0  0  0  0  0  0  0  0  0  0  0  0  # atno 17321 bound_to 7965
  139.8985  143.6865  152.3135 LP  0  0  0  0  0  0  0  0  0  0  0  0  # atno 17342 bound_to 10162
  139.7206  144.7603  151.0962 LP  0  0  0  0  0  0  0  0  0  0  0  0  # atno 17343 bound_to 10162
  157.6313  130.8732  149.9279 LP  0  0  0  0  0  0  0  0  0  0  0  0  # atno 17370 bound_to 10713
  156.0838  130.3670  150.0528 LP  0  0  0  0  0  0  0  0  0  0  0  0  # atno 17371 bound_to 10713
  139.8949  135.0138  156.6974 LP  0  0  0  0  0  0  0  0  0  0  0  0  # atno 17394 bound_to 11000
  140.7191  133.9156  155.8135 LP  0  0  0  0  0  0  0  0  0  0  0  0  # atno 17395 bound_to 11000

$$$$
