AV-unprocessed.smi:1143|AV-procd|sdf|4875|dock6
  -GOLD-   22720 3443D 1   1.00000     0.00000
 Structure written by MMmdl.
 35 36  0  0  0  0  0  0  0  0  1 V2000
  151.8144  129.8491  156.2822 C   0  0  0  0  0  0  0  0  0  0  0  0
  150.9919  130.9879  155.8653 N   0  0  0  0  0  0  0  0  0  0  0  0
  150.2975  130.8848  154.6441 C   0  0  0  0  0  0  0  0  0  0  0  0
  149.5136  131.8800  154.1743 C   0  0  0  0  0  0  0  0  0  0  0  0
  148.7798  131.8424  152.9803 N   0  0  0  0  0  0  0  0  0  0  0  0
  147.5711  132.3725  152.6981 C   0  0  0  0  0  0  0  0  0  0  0  0
  146.8470  132.9557  153.5020 O   0  0  0  0  0  0  0  0  0  0  0  0
  147.1771  132.1843  151.4250 N   0  0  0  0  0  0  0  0  0  0  0  0
  145.9346  132.6221  150.7843 C   0  0  0  0  0  0  0  0  0  0  0  0
  144.7317  132.1741  151.6273 C   0  0  0  0  0  0  0  0  0  0  0  0
  143.4121  132.5001  150.9085 C   0  0  0  0  0  0  0  0  0  0  0  0
  143.3948  131.8918  149.6213 O   0  0  0  0  0  0  0  0  0  0  0  0
  144.4280  132.3704  148.7670 C   0  0  0  0  0  0  0  0  0  0  0  0
  145.8036  132.0367  149.3665 C   0  0  0  0  0  0  0  0  0  0  0  0
  149.4045  133.0693  154.9918 C   0  0  0  0  0  0  0  0  0  0  0  0
  150.0648  133.1758  156.1610 C   0  0  0  0  0  0  0  0  0  0  0  0
  150.9192  132.0953  156.6592 C   0  0  0  0  0  0  0  0  0  0  0  0
  151.5306  132.1795  157.7246 O   0  0  0  0  0  0  0  0  0  0  0  0
  151.7732  129.0160  155.5799 H   0  0  0  0  0  0  0  0  0  0  0  0
  151.4829  129.4715  157.2507 H   0  0  0  0  0  0  0  0  0  0  0  0
  152.8600  130.1465  156.3734 H   0  0  0  0  0  0  0  0  0  0  0  0
  150.4445  129.9417  154.1425 H   0  0  0  0  0  0  0  0  0  0  0  0
  149.2265  131.3398  152.2274 H   0  0  0  0  0  0  0  0  0  0  0  0
  147.7929  131.6317  150.8458 H   0  0  0  0  0  0  0  0  0  0  0  0
  145.9131  133.7122  150.7277 H   0  0  0  0  0  0  0  0  0  0  0  0
  144.7835  131.0995  151.8082 H   0  0  0  0  0  0  0  0  0  0  0  0
  144.7529  132.6576  152.6047 H   0  0  0  0  0  0  0  0  0  0  0  0
  142.5685  132.1231  151.4868 H   0  0  0  0  0  0  0  0  0  0  0  0
  143.2760  133.5786  150.8144 H   0  0  0  0  0  0  0  0  0  0  0  0
  144.3226  131.9005  147.7891 H   0  0  0  0  0  0  0  0  0  0  0  0
  144.3209  133.4456  148.6154 H   0  0  0  0  0  0  0  0  0  0  0  0
  146.5914  132.4187  148.7166 H   0  0  0  0  0  0  0  0  0  0  0  0
  145.9262  130.9532  149.4002 H   0  0  0  0  0  0  0  0  0  0  0  0
  148.7852  133.8905  154.6612 H   0  0  0  0  0  0  0  0  0  0  0  0
  149.9626  134.0779  156.7459 H   0  0  0  0  0  0  0  0  0  0  0  0
  1  2  1  0  0  0  0
  1 19  1  0  0  0  0
  1 20  1  0  0  0  0
  1 21  1  0  0  0  0
  2 17  1  0  0  0  0
  2  3  1  0  0  0  0
  3  4  2  0  0  0  0
  3 22  1  0  0  0  0
  4  5  1  0  0  0  0
  4 15  1  0  0  0  0
  5  6  1  0  0  0  0
  5 23  1  0  0  0  0
  6  7  2  0  0  0  0
  6  8  1  0  0  0  0
  8  9  1  0  0  0  0
  8 24  1  0  0  0  0
  9 14  1  0  0  0  0
  9 10  1  0  0  0  0
  9 25  1  0  0  0  0
 10 11  1  0  0  0  0
 10 26  1  0  0  0  0
 10 27  1  0  0  0  0
 11 12  1  0  0  0  0
 11 28  1  0  0  0  0
 11 29  1  0  0  0  0
 12 13  1  0  0  0  0
 13 14  1  0  0  0  0
 13 30  1  0  0  0  0
 13 31  1  0  0  0  0
 14 32  1  0  0  0  0
 14 33  1  0  0  0  0
 15 16  2  0  0  0  0
 15 34  1  0  0  0  0
 16 17  1  0  0  0  0
 16 35  1  0  0  0  0
 17 18  2  0  0  0  0
M  END
> <s_m_source_file>
AV-unprocessed.smi

> <i_m_source_file_index>
1143

> <i_lp_mmshare_version>
43012

> <i_f3d_flags>
0

> <s_epik_input>
Tz1jMVtjSF1bY0hdYyhbY0hdbjFbQ0gzXSlbTkhdQyg9TylbTkhdW0NIXTJbQ0gyXVtDSDJdT1tDSDJdW0NIMl0y

> <s_epik_cmdline>
J2VwaWtfcHl0aG9uJywgJy1waCcsICc3LjAnLCAnLXRuJywgJzgnLCAnLW1hJywgJzIwMCcsICctbWV0YWxfYmluZGluZycsICctaW1hZScsICc8aW5maWxlLm1hZT4nLCAnLW9tYWUnLCAnPG91dGZpbGUubWFlPic=

> <r_lp_tautomer_probability>
1

> <r_epik_Ionization_Penalty>
2.54991e-05

> <r_epik_Ionization_Penalty_Charging>
5.93057e-06

> <r_epik_Ionization_Penalty_Neutral>
1.95685e-05

> <r_epik_State_Penalty>
-0

> <r_epik_Charging_Adjusted_Penalty>
5.93057e-06

> <i_epik_Tot_Q>
0

> <i_epik_Tot_abs_Q>
0

> <r_epik_Metal_State_Penalty>
-0

> <b_epik_Metal_Only>
0

> <s_lp_Force_Field>
OPLS_2005

> <r_lp_Energy>
32.4408

> <b_lp_Chiralities_Consistent>
1

> <s_lp_Variant>
AV-unprocessed.smi:1143-1

> <Gold.Version>
5.8.1

> <Gold.Id.Protein>
6NUR|6NUR_protein|mol2

> <Gold.PLP.Fitness>
44.3529

> <Gold.PLP.PLP>
-33.2675

> <Gold.PLP.part.hbond>
-4.0000

> <Gold.PLP.part.metal>
0.0000

> <Gold.PLP.part.buried>
-2.7287

> <Gold.PLP.part.nonpolar>
-27.6301

> <Gold.PLP.part.repulsive>
1.2733

> <Gold.PLP.ligand.clash>
0.0000

> <Gold.PLP.ligand.torsion>
0.3017

> <Gold.PLP.Chemscore.Hbond>
3.8960

> <Gold.PLP.Chemscore.CHOScore>
0.0000

> <Gold.PLP.Chemscore.Metal>
0.0000

> <Gold.Chemscore.Hbonds>
donor molecule, donor type, donor heavy atom, donor atom, acceptor molecule, acceptor atom, score
      L1  H     5    23       P1 10747  0.86
      L1  H     8    24       P1 10747  0.99
      P1  H  6896  6909       L1    18  1.00
      P1  H 10785 10796       L1    12  0.80

> <Gold.PLP.Chemscore.Internal.Correction>
0.0009

> <Gold.Rescore>
     Score         DG    S(hbond)    S(metal)    S(lipo)     H(rot)  DE(clash)    DE(int)     intcor
     19.03     -22.27       3.07        0.00      77.89       1.00       0.66       2.59       ----

> <Gold.Chemscore.Fitness>
19.0294

> <Gold.Chemscore.DG>
-22.2740

> <Gold.Chemscore.ZeroCoef>
-5.4800

> <Gold.Chemscore.Hbond>
3.0660

> <Gold.Chemscore.Metal>
0.0000

> <Gold.Chemscore.Lipo>
77.8945

> <Gold.Chemscore.Internal_Hbond>
0.0000

> <Gold.Chemscore.DEClash>
0.6563

> <Gold.Chemscore.DEInternal>
2.5884

> <Gold.Chemscore.Rot>
1.0000

> <Gold.Chemscore.Internal.Correction>
   9.000000E+99

> <Gold.Chemscore.Hbonds>
donor molecule, donor type, donor heavy atom, donor atom, acceptor molecule, acceptor atom, score
      L1  H     5    23       P1 10747  0.28
      L1  H     8    24       P1 10747  0.92
      P1  H  6896  6909       L1    18  0.99
      P1  H 10785 10796       L1    12  0.11

> <Gold.Chemscore.Hbond.Weighted>
-10.2404

> <Gold.Chemscore.Metal.Weighted>
-0.0000

> <Gold.Chemscore.Lipo.Weighted>
-9.1137

> <Gold.Chemscore.Internal_Hbond.Weighted>
0.0000

> <Gold.Chemscore.DEClash.Weighted>
0.6563

> <Gold.Chemscore.DEInternal.Weighted>
2.5884

> <Gold.Chemscore.Rot.Weighted>
2.5600

> <Gold.Chemscore.Internal.Correction.Weighted>
   9.000000E+99

> <Gold.Protein.RotatedTorsions>
[ 6907 6896 6895 6894 ] final  -63.76 input  -60.11 | X-H torsion
[ 7974 7965 7964 7962 ] final   75.00 input  175.53 | X-H torsion
[ 8008 7997 7996 7995 ] final   51.44 input   59.86 | X-H torsion
[ 10167 10162 10161 10158 ] final  -60.13 input  -65.29 | X-H torsion
[ 10718 10713 10712 10709 ] final   64.90 input   66.30 | X-H torsion
[ 10763 10752 10751 10750 ] final  170.23 input  -60.55 | X-H torsion
[ 11005 11000 10999 10996 ] final  -65.31 input  -57.11 | X-H torsion

> <Gold.Protein.ActiveResidues>
 VAL166  LYS551  ARG553  GLY616  TRP617  ASP618  TYR619  PRO620  LYS621  CYS622 
 ASP623  PHE694  ASN695  SER759  ASP760  ASP761  ALA762  ILE779  LEU786  VAL792 
 PHE793  MET794  SER795  GLU796  ALA797  LYS798  CYS799  TRP800  GLU811  SER814 

> <Gold.Protein.RotatedAtoms>
  150.7628  134.6391  159.6227 H   0  0  0  0  0  0  0  0  0  0  0  0  # atno 6907 bound_to 6896
  152.3645  134.6821  160.0205 H   0  0  0  0  0  0  0  0  0  0  0  0  # atno 6908 bound_to 6896
  151.7201  133.3278  159.3349 H   0  0  0  0  0  0  0  0  0  0  0  0  # atno 6909 bound_to 6896
  145.7211  139.2649  143.1595 H   0  0  0  0  0  0  0  0  0  0  0  0  # atno 7974 bound_to 7965
  155.4353  140.3452  155.4284 H   0  0  0  0  0  0  0  0  0  0  0  0  # atno 8008 bound_to 7997
  156.1312  140.1514  156.9093 H   0  0  0  0  0  0  0  0  0  0  0  0  # atno 8009 bound_to 7997
  154.4896  140.0845  156.7544 H   0  0  0  0  0  0  0  0  0  0  0  0  # atno 8010 bound_to 7997
  140.6091  143.2382  151.5752 H   0  0  0  0  0  0  0  0  0  0  0  0  # atno 10167 bound_to 10162
  157.6070  130.9185  149.9905 H   0  0  0  0  0  0  0  0  0  0  0  0  # atno 10718 bound_to 10713
  154.3945  135.2754  155.2134 H   0  0  0  0  0  0  0  0  0  0  0  0  # atno 10763 bound_to 10752
  154.4186  135.6005  153.5999 H   0  0  0  0  0  0  0  0  0  0  0  0  # atno 10764 bound_to 10752
  152.9831  135.5967  154.4205 H   0  0  0  0  0  0  0  0  0  0  0  0  # atno 10765 bound_to 10752
  141.1450  133.6679  156.5967 H   0  0  0  0  0  0  0  0  0  0  0  0  # atno 11005 bound_to 11000
  146.0625  140.7956  142.9728 LP  0  0  0  0  0  0  0  0  0  0  0  0  # atno 17320 bound_to 7965
  144.6916  140.3218  143.7231 LP  0  0  0  0  0  0  0  0  0  0  0  0  # atno 17321 bound_to 7965
  139.5347  144.2815  152.1225 LP  0  0  0  0  0  0  0  0  0  0  0  0  # atno 17342 bound_to 10162
  140.2010  144.4658  150.6431 LP  0  0  0  0  0  0  0  0  0  0  0  0  # atno 17343 bound_to 10162
  156.1159  130.3648  149.9968 LP  0  0  0  0  0  0  0  0  0  0  0  0  # atno 17370 bound_to 10713
  156.8058  130.9307  151.3645 LP  0  0  0  0  0  0  0  0  0  0  0  0  # atno 17371 bound_to 10713
  140.3721  134.7597  157.4605 LP  0  0  0  0  0  0  0  0  0  0  0  0  # atno 17394 bound_to 11000
  140.0703  134.5872  155.8650 LP  0  0  0  0  0  0  0  0  0  0  0  0  # atno 17395 bound_to 11000

$$$$
