AV-unprocessed.smi:243|AV-procd|sdf|1859|dock6
  -GOLD-   2262020493D 1   1.00000     0.00000
 Structure written by MMmdl.
 58 61  0  0  0  0  0  0  0  0  2 V2000
  146.0796  131.2626  152.9155 C   0  0  0  0  0  0  0  0  0  0  0  0
  145.1131  132.0078  151.9837 C   0  0  0  0  0  0  0  0  0  0  0  0
  144.4444  133.1502  152.6557 N   0  3  1  0  0  0  0  0  0  0  0  0
  145.3914  133.9534  153.4705 C   0  0  0  0  0  0  0  0  0  0  0  0
  144.6532  135.0344  154.2745 C   0  0  0  0  0  0  0  0  0  0  0  0
  143.8202  135.9360  153.3430 C   0  0  2  0  0  0  0  0  0  0  0  0
  143.1880  137.0708  154.0355 N   0  0  0  0  0  0  0  0  0  0  0  0
  141.8436  137.5255  153.6715 C   0  0  0  0  0  0  0  0  0  0  0  0
  144.0311  138.0108  154.5432 C   0  0  0  0  0  0  0  0  0  0  0  0
  143.6658  138.6928  155.6624 N   0  0  0  0  0  0  0  0  0  0  0  0
  144.4622  139.6354  156.1739 C   0  0  0  0  0  0  0  0  0  0  0  0
  145.6504  140.0507  155.7340 N   0  0  0  0  0  0  0  0  0  0  0  0
  146.0301  139.3681  154.6166 C   0  0  0  0  0  0  0  0  0  0  0  0
  145.2880  138.3451  153.9590 C   0  0  0  0  0  0  0  0  0  0  0  0
  146.0025  137.8843  152.8585 N   0  0  0  0  0  0  0  0  0  0  0  0
  147.0934  138.5996  152.8589 C   0  0  0  0  0  0  0  0  0  0  0  0
  147.1973  139.5085  153.8865 N   0  0  0  0  0  0  0  0  0  0  0  0
  148.3033  140.4197  154.1374 C   0  0  0  0  0  0  0  0  0  0  0  0
  149.5113  139.7426  154.8265 C   0  0  1  0  0  0  0  0  0  0  0  0
  149.0476  138.9804  155.9277 O   0  0  0  0  0  0  0  0  0  0  0  0
  150.3209  138.8277  153.9110 C   0  0  0  0  0  0  0  0  0  0  0  0
  151.7361  138.9686  154.4536 C   0  0  0  0  0  0  0  0  0  0  0  0
  151.8077  140.3492  154.7648 O   0  0  0  0  0  0  0  0  0  0  0  0
  150.5650  140.7465  155.3360 C   0  0  0  0  0  0  0  0  0  0  0  0
  142.8589  135.0888  152.4663 C   0  0  2  0  0  0  0  0  0  0  0  0
  141.6580  134.4725  153.2089 C   0  0  0  0  0  0  0  0  0  0  0  0
  143.6667  134.0063  151.7194 C   0  0  0  0  0  0  0  0  0  0  0  0
  146.6200  130.4906  152.3670 H   0  0  0  0  0  0  0  0  0  0  0  0
  145.5619  130.7701  153.7379 H   0  0  0  0  0  0  0  0  0  0  0  0
  146.8186  131.9424  153.3409 H   0  0  0  0  0  0  0  0  0  0  0  0
  145.6926  132.3776  151.1368 H   0  0  0  0  0  0  0  0  0  0  0  0
  144.3682  131.3252  151.5721 H   0  0  0  0  0  0  0  0  0  0  0  0
  145.9296  133.3035  154.1617 H   0  0  0  0  0  0  0  0  0  0  0  0
  146.1381  134.4106  152.8191 H   0  0  0  0  0  0  0  0  0  0  0  0
  144.0181  134.5525  155.0181 H   0  0  0  0  0  0  0  0  0  0  0  0
  145.3777  135.6351  154.8258 H   0  0  0  0  0  0  0  0  0  0  0  0
  144.5528  136.3612  152.6604 H   0  0  0  0  0  0  0  0  0  0  0  0
  141.4715  138.2525  154.3948 H   0  0  0  0  0  0  0  0  0  0  0  0
  141.1353  136.6980  153.6747 H   0  0  0  0  0  0  0  0  0  0  0  0
  141.8210  137.9894  152.6871 H   0  0  0  0  0  0  0  0  0  0  0  0
  144.0942  140.1275  157.0623 H   0  0  0  0  0  0  0  0  0  0  0  0
  147.8608  138.4767  152.1087 H   0  0  0  0  0  0  0  0  0  0  0  0
  148.6077  140.8535  153.1842 H   0  0  0  0  0  0  0  0  0  0  0  0
  147.9379  141.2481  154.7462 H   0  0  0  0  0  0  0  0  0  0  0  0
  148.1683  139.2570  156.1354 H   0  0  0  0  0  0  0  0  0  0  0  0
  149.9670  137.7958  153.8910 H   0  0  0  0  0  0  0  0  0  0  0  0
  150.3027  139.2050  152.8878 H   0  0  0  0  0  0  0  0  0  0  0  0
  151.8723  138.3764  155.3599 H   0  0  0  0  0  0  0  0  0  0  0  0
  152.4982  138.6780  153.7301 H   0  0  0  0  0  0  0  0  0  0  0  0
  150.3444  141.7709  155.0337 H   0  0  0  0  0  0  0  0  0  0  0  0
  150.6464  140.7390  156.4242 H   0  0  0  0  0  0  0  0  0  0  0  0
  142.4410  135.7440  151.7005 H   0  0  0  0  0  0  0  0  0  0  0  0
  141.9659  133.8781  154.0686 H   0  0  0  0  0  0  0  0  0  0  0  0
  141.0852  133.8209  152.5485 H   0  0  0  0  0  0  0  0  0  0  0  0
  140.9696  135.2424  153.5543 H   0  0  0  0  0  0  0  0  0  0  0  0
  144.3545  134.4805  151.0170 H   0  0  0  0  0  0  0  0  0  0  0  0
  142.9881  133.4009  151.1196 H   0  0  0  0  0  0  0  0  0  0  0  0
  143.7838  132.7503  153.3067 H   0  0  0  0  0  0  0  0  0  0  0  0
  1  2  1  0  0  0  0
  1 28  1  0  0  0  0
  1 29  1  0  0  0  0
  1 30  1  0  0  0  0
  2  3  1  0  0  0  0
  2 31  1  0  0  0  0
  2 32  1  0  0  0  0
  3 27  1  0  0  0  0
  3  4  1  0  0  0  0
  3 58  1  0  0  0  0
  4  5  1  0  0  0  0
  4 33  1  0  0  0  0
  4 34  1  0  0  0  0
  5  6  1  0  0  0  0
  5 35  1  0  0  0  0
  5 36  1  0  0  0  0
  6  7  1  0  0  0  0
  6 25  1  0  0  0  0
  6 37  1  0  0  0  0
  7  8  1  0  0  0  0
  7  9  1  0  0  0  0
  8 38  1  0  0  0  0
  8 39  1  0  0  0  0
  8 40  1  0  0  0  0
  9 14  1  0  0  0  0
  9 10  2  0  0  0  0
 10 11  1  0  0  0  0
 11 12  2  0  0  0  0
 11 41  1  0  0  0  0
 12 13  1  0  0  0  0
 13 17  1  0  0  0  0
 13 14  2  0  0  0  0
 14 15  1  0  0  0  0
 15 16  2  0  0  0  0
 16 17  1  0  0  0  0
 16 42  1  0  0  0  0
 17 18  1  0  0  0  0
 18 19  1  0  0  0  0
 18 43  1  0  0  0  0
 18 44  1  0  0  0  0
 19 24  1  0  0  0  0
 19 20  1  0  0  0  0
 19 21  1  0  0  0  0
 20 45  1  0  0  0  0
 21 22  1  0  0  0  0
 21 46  1  0  0  0  0
 21 47  1  0  0  0  0
 22 23  1  0  0  0  0
 22 48  1  0  0  0  0
 22 49  1  0  0  0  0
 23 24  1  0  0  0  0
 24 50  1  0  0  0  0
 24 51  1  0  0  0  0
 25 26  1  0  0  0  0
 25 27  1  0  0  0  0
 25 52  1  0  0  0  0
 26 53  1  0  0  0  0
 26 54  1  0  0  0  0
 26 55  1  0  0  0  0
 27 56  1  0  0  0  0
 27 57  1  0  0  0  0
M  CHG  1   3   1
M  END
> <s_m_source_file>
AV-unprocessed.smi

> <i_m_source_file_index>
243

> <i_lp_mmshare_version>
43012

> <i_f3d_flags>
0

> <s_epik_input>
W0NIM11bQ0gyXU4xW0NIMl1bQ0gyXVtDQEhdKFtDQEBIXShbQ0gzXSlbQ0gyXTEpTihbQ0gzXSljKG5bY0hdbjIpYyhjMjMpbltjSF1uM1tDSDJdW0NAQF00KFtPSF0pW0NIMl1bQ0gyXU9bQ0gyXTQ=

> <s_epik_cmdline>
J2VwaWtfcHl0aG9uJywgJy1waCcsICc3LjAnLCAnLXRuJywgJzgnLCAnLW1hJywgJzIwMCcsICctbWV0YWxfYmluZGluZycsICctaW1hZScsICc8aW5maWxlLm1hZT4nLCAnLW9tYWUnLCAnPG91dGZpbGUubWFlPic=

> <r_lp_tautomer_probability>
1

> <r_epik_Ionization_Penalty>
0.00253099

> <r_epik_Ionization_Penalty_Charging>
0.00137877

> <r_epik_Ionization_Penalty_Neutral>
0.00115221

> <r_epik_State_Penalty>
-0

> <r_epik_Charging_Adjusted_Penalty>
0.00137877

> <i_epik_Tot_Q>
1

> <i_epik_Tot_abs_Q>
1

> <r_epik_Metal_State_Penalty>
-0

> <b_epik_Metal_Only>
0

> <s_lp_Force_Field>
OPLS_2005

> <r_lp_Energy>
49.5807

> <b_lp_Chiralities_Consistent>
1

> <s_lp_Variant>
AV-unprocessed.smi:243-12

> <Gold.Version>
5.8.1

> <Gold.Id.Protein>
6NUR|6NUR_protein|mol2

> <Gold.PLP.Fitness>
45.4484

> <Gold.PLP.PLP>
-33.9419

> <Gold.PLP.part.hbond>
-1.9928

> <Gold.PLP.part.metal>
0.0000

> <Gold.PLP.part.buried>
-3.4163

> <Gold.PLP.part.nonpolar>
-29.8164

> <Gold.PLP.part.repulsive>
0.4111

> <Gold.PLP.ligand.clash>
0.0000

> <Gold.PLP.ligand.torsion>
1.5561

> <Gold.PLP.Chemscore.Hbond>
2.7601

> <Gold.PLP.Chemscore.CHOScore>
1.8027

> <Gold.PLP.Chemscore.Metal>
0.0000

> <Gold.Chemscore.Hbonds>
donor molecule, donor type, donor heavy atom, donor atom, acceptor molecule, acceptor atom, score
      L1  H     3    58       P1 10957  1.72
      P1  H  7989  7998       L1    23  0.50
      L1  C    16    42       P1  7948  0.80
      L1  C    16    42       P1  7957  1.00

> <Gold.PLP.Chemscore.Internal.Correction>
0.9304

> <Gold.Rescore>
     Score         DG    S(hbond)    S(metal)    S(lipo)     H(rot)  DE(clash)    DE(int)     intcor
      8.99     -11.69       0.95        0.00      74.95       2.24       0.01       2.69       ----

> <Gold.Chemscore.Fitness>
8.9920

> <Gold.Chemscore.DG>
-11.6890

> <Gold.Chemscore.ZeroCoef>
-5.4800

> <Gold.Chemscore.Hbond>
0.9487

> <Gold.Chemscore.Metal>
0.0000

> <Gold.Chemscore.Lipo>
74.9538

> <Gold.Chemscore.Internal_Hbond>
0.0000

> <Gold.Chemscore.DEClash>
0.0091

> <Gold.Chemscore.DEInternal>
2.6878

> <Gold.Chemscore.Rot>
2.2379

> <Gold.Chemscore.Internal.Correction>
   9.000000E+99

> <Gold.Chemscore.Hbonds>
donor molecule, donor type, donor heavy atom, donor atom, acceptor molecule, acceptor atom, score
      L1  H     3    58       P1 10957  0.38
      P1  H  7989  7998       L1    23  0.03

> <Gold.Chemscore.Hbond.Weighted>
-3.1685

> <Gold.Chemscore.Metal.Weighted>
-0.0000

> <Gold.Chemscore.Lipo.Weighted>
-8.7696

> <Gold.Chemscore.Internal_Hbond.Weighted>
0.0000

> <Gold.Chemscore.DEClash.Weighted>
0.0091

> <Gold.Chemscore.DEInternal.Weighted>
2.6878

> <Gold.Chemscore.Rot.Weighted>
5.7291

> <Gold.Chemscore.Internal.Correction.Weighted>
   9.000000E+99

> <Gold.Protein.RotatedTorsions>
[ 6907 6896 6895 6894 ] final   41.71 input  -60.11 | X-H torsion
[ 7974 7965 7964 7962 ] final  172.19 input  175.53 | X-H torsion
[ 8008 7997 7996 7995 ] final  -10.41 input   59.86 | X-H torsion
[ 10167 10162 10161 10158 ] final  161.84 input  -65.29 | X-H torsion
[ 10718 10713 10712 10709 ] final   81.27 input   66.30 | X-H torsion
[ 10763 10752 10751 10750 ] final -118.66 input  -60.55 | X-H torsion
[ 11005 11000 10999 10996 ] final  141.63 input  -57.11 | X-H torsion

> <Gold.Protein.ActiveResidues>
 VAL166  LYS551  ARG553  GLY616  TRP617  ASP618  TYR619  PRO620  LYS621  CYS622 
 ASP623  PHE694  ASN695  SER759  ASP760  ASP761  ALA762  ILE779  LEU786  VAL792 
 PHE793  MET794  SER795  GLU796  ALA797  LYS798  CYS799  TRP800  GLU811  SER814 

> <Gold.Protein.RotatedAtoms>
  152.1987  134.8607  160.0509 H   0  0  0  0  0  0  0  0  0  0  0  0  # atno 6907 bound_to 6896
  151.9469  133.3649  159.3994 H   0  0  0  0  0  0  0  0  0  0  0  0  # atno 6908 bound_to 6896
  150.6950  134.4305  159.5290 H   0  0  0  0  0  0  0  0  0  0  0  0  # atno 6909 bound_to 6896
  144.7274  139.9462  143.6430 H   0  0  0  0  0  0  0  0  0  0  0  0  # atno 7974 bound_to 7965
  154.5557  140.2329  155.8414 H   0  0  0  0  0  0  0  0  0  0  0  0  # atno 8008 bound_to 7997
  156.1986  140.3058  155.9439 H   0  0  0  0  0  0  0  0  0  0  0  0  # atno 8009 bound_to 7997
  155.2984  140.0430  157.3018 H   0  0  0  0  0  0  0  0  0  0  0  0  # atno 8010 bound_to 7997
  139.4854  144.4496  151.8847 H   0  0  0  0  0  0  0  0  0  0  0  0  # atno 10167 bound_to 10162
  157.6828  130.9996  150.2202 H   0  0  0  0  0  0  0  0  0  0  0  0  # atno 10718 bound_to 10713
  154.8594  135.4266  154.2174 H   0  0  0  0  0  0  0  0  0  0  0  0  # atno 10763 bound_to 10752
  153.3187  135.6980  153.7056 H   0  0  0  0  0  0  0  0  0  0  0  0  # atno 10764 bound_to 10752
  153.6120  135.3517  155.2955 H   0  0  0  0  0  0  0  0  0  0  0  0  # atno 10765 bound_to 10752
  140.0416  134.9302  157.0853 H   0  0  0  0  0  0  0  0  0  0  0  0  # atno 11005 bound_to 11000
  146.0747  139.3735  143.0501 LP  0  0  0  0  0  0  0  0  0  0  0  0  # atno 17320 bound_to 7965
  145.7921  140.9809  143.1043 LP  0  0  0  0  0  0  0  0  0  0  0  0  # atno 17321 bound_to 7965
  140.3952  144.2564  150.5896 LP  0  0  0  0  0  0  0  0  0  0  0  0  # atno 17342 bound_to 10162
  140.5109  143.2291  151.8537 LP  0  0  0  0  0  0  0  0  0  0  0  0  # atno 17343 bound_to 10162
  156.2855  130.3739  149.7893 LP  0  0  0  0  0  0  0  0  0  0  0  0  # atno 17370 bound_to 10713
  156.5568  130.8366  151.3316 LP  0  0  0  0  0  0  0  0  0  0  0  0  # atno 17371 bound_to 10713
  140.4060  134.2032  155.7163 LP  0  0  0  0  0  0  0  0  0  0  0  0  # atno 17394 bound_to 11000
  141.1886  133.8257  157.0989 LP  0  0  0  0  0  0  0  0  0  0  0  0  # atno 17395 bound_to 11000

$$$$
