AV-unprocessed.smi:547|AV-procd|sdf|2889|dock4
  -GOLD-   2262023383D 1   1.00000     0.00000
 Structure written by MMmdl.
 37 38  0  0  0  0  0  0  0  0  1 V2000
  152.5267  139.6783  156.0205 O   0  0  0  0  0  0  0  0  0  0  0  0
  152.3111  139.3960  157.1993 C   0  0  0  0  0  0  0  0  0  0  0  0
  152.9972  138.1783  157.8381 C   0  0  0  0  0  0  0  0  0  0  0  0
  153.5227  138.3602  159.2113 N   0  0  0  0  0  0  0  0  0  0  0  0
  154.4320  139.3935  159.4105 N   0  0  0  0  0  0  0  0  0  0  0  0
  154.9117  139.6081  160.5861 C   0  0  0  0  0  0  0  0  0  0  0  0
  154.5414  138.8011  161.7259 C   0  0  0  0  0  0  0  0  0  0  0  0
  155.2171  139.1359  163.2812 Cl  0  0  0  0  0  0  0  0  0  0  0  0
  153.6613  137.7889  161.5254 C   0  0  0  0  0  0  0  0  0  0  0  0
  153.1741  136.7764  162.8415 Cl  0  0  0  0  0  0  0  0  0  0  0  0
  153.0936  137.5144  160.1975 C   0  0  0  0  0  0  0  0  0  0  0  0
  152.2969  136.6001  159.9810 O   0  0  0  0  0  0  0  0  0  0  0  0
  151.4940  140.1042  157.9932 N   0  0  0  0  0  0  0  0  0  0  0  0
  150.8283  141.3468  157.6177 C   0  0  0  0  0  0  0  0  0  0  0  0
  150.9682  142.4425  158.6984 C   0  0  0  0  0  0  0  0  0  0  0  0
  150.2892  143.7712  158.2949 C   0  0  0  0  0  0  0  0  0  0  0  0
  150.4471  144.8416  159.3865 C   0  0  0  0  0  0  0  0  0  0  0  0
  151.9263  145.0733  159.7291 C   0  0  0  0  0  0  0  0  0  0  0  0
  152.6104  143.7595  160.1365 C   0  0  0  0  0  0  0  0  0  0  0  0
  152.4504  142.6862  159.0470 C   0  0  0  0  0  0  0  0  0  0  0  0
  152.2886  137.3474  157.8239 H   0  0  0  0  0  0  0  0  0  0  0  0
  153.8232  137.8818  157.1898 H   0  0  0  0  0  0  0  0  0  0  0  0
  155.6229  140.4102  160.7837 H   0  0  0  0  0  0  0  0  0  0  0  0
  151.3659  139.7876  158.9433 H   0  0  0  0  0  0  0  0  0  0  0  0
  151.2258  141.6996  156.6644 H   0  0  0  0  0  0  0  0  0  0  0  0
  149.7744  141.1243  157.4479 H   0  0  0  0  0  0  0  0  0  0  0  0
  150.4774  142.0834  159.6044 H   0  0  0  0  0  0  0  0  0  0  0  0
  150.7189  144.1361  157.3610 H   0  0  0  0  0  0  0  0  0  0  0  0
  149.2265  143.6173  158.1057 H   0  0  0  0  0  0  0  0  0  0  0  0
  149.9898  145.7761  159.0603 H   0  0  0  0  0  0  0  0  0  0  0  0
  149.9081  144.5305  160.2826 H   0  0  0  0  0  0  0  0  0  0  0  0
  152.4390  145.5009  158.8667 H   0  0  0  0  0  0  0  0  0  0  0  0
  152.0125  145.8039  160.5339 H   0  0  0  0  0  0  0  0  0  0  0  0
  153.6685  143.9364  160.3311 H   0  0  0  0  0  0  0  0  0  0  0  0
  152.1807  143.3981  161.0717 H   0  0  0  0  0  0  0  0  0  0  0  0
  152.9121  141.7568  159.3826 H   0  0  0  0  0  0  0  0  0  0  0  0
  152.9937  142.9943  158.1525 H   0  0  0  0  0  0  0  0  0  0  0  0
  1  2  2  0  0  0  0
  2  3  1  0  0  0  0
  2 13  1  0  0  0  0
  3  4  1  0  0  0  0
  3 21  1  0  0  0  0
  3 22  1  0  0  0  0
  4 11  1  0  0  0  0
  4  5  1  0  0  0  0
  5  6  2  0  0  0  0
  6  7  1  0  0  0  0
  6 23  1  0  0  0  0
  7  8  1  0  0  0  0
  7  9  2  0  0  0  0
  9 10  1  0  0  0  0
  9 11  1  0  0  0  0
 11 12  2  0  0  0  0
 13 14  1  0  0  0  0
 13 24  1  0  0  0  0
 14 15  1  0  0  0  0
 14 25  1  0  0  0  0
 14 26  1  0  0  0  0
 15 20  1  0  0  0  0
 15 16  1  0  0  0  0
 15 27  1  0  0  0  0
 16 17  1  0  0  0  0
 16 28  1  0  0  0  0
 16 29  1  0  0  0  0
 17 18  1  0  0  0  0
 17 30  1  0  0  0  0
 17 31  1  0  0  0  0
 18 19  1  0  0  0  0
 18 32  1  0  0  0  0
 18 33  1  0  0  0  0
 19 20  1  0  0  0  0
 19 34  1  0  0  0  0
 19 35  1  0  0  0  0
 20 36  1  0  0  0  0
 20 37  1  0  0  0  0
M  END
> <s_m_source_file>
AV-unprocessed.smi

> <i_m_source_file_index>
547

> <i_lp_mmshare_version>
43012

> <i_f3d_flags>
0

> <s_epik_input>
W0NIMl0xW0NIMl1bQ0gyXVtDSDJdW0NIMl1bQ0hdMVtDSDJdW05IXUMoPU8pW0NIMl1uMm5bY0hdYyhDbCljKENsKWMyPU8=

> <s_epik_cmdline>
J2VwaWtfcHl0aG9uJywgJy1waCcsICc3LjAnLCAnLXRuJywgJzgnLCAnLW1hJywgJzIwMCcsICctbWV0YWxfYmluZGluZycsICctaW1hZScsICc8aW5maWxlLm1hZT4nLCAnLW9tYWUnLCAnPG91dGZpbGUubWFlPic=

> <r_lp_tautomer_probability>
1

> <r_epik_Ionization_Penalty>
1.98263e-08

> <r_epik_Ionization_Penalty_Charging>
2.84997e-11

> <r_epik_Ionization_Penalty_Neutral>
1.97978e-08

> <r_epik_State_Penalty>
-0

> <r_epik_Charging_Adjusted_Penalty>
2.84997e-11

> <i_epik_Tot_Q>
0

> <i_epik_Tot_abs_Q>
0

> <r_epik_Metal_State_Penalty>
-0

> <b_epik_Metal_Only>
0

> <s_lp_Force_Field>
OPLS_2005

> <r_lp_Energy>
30.5704

> <b_lp_Chiralities_Consistent>
1

> <s_lp_Variant>
AV-unprocessed.smi:547-1

> <Gold.Version>
5.8.1

> <Gold.Id.Protein>
6NUR|6NUR_protein|mol2

> <Gold.PLP.Fitness>
44.1513

> <Gold.PLP.PLP>
-35.8081

> <Gold.PLP.part.hbond>
-3.0000

> <Gold.PLP.part.metal>
0.0000

> <Gold.PLP.part.buried>
-3.7571

> <Gold.PLP.part.nonpolar>
-28.9703

> <Gold.PLP.part.repulsive>
0.0863

> <Gold.PLP.ligand.clash>
0.0000

> <Gold.PLP.ligand.torsion>
0.3343

> <Gold.PLP.Chemscore.Hbond>
3.0000

> <Gold.PLP.Chemscore.CHOScore>
0.0000

> <Gold.PLP.Chemscore.Metal>
0.0000

> <Gold.Chemscore.Hbonds>
donor molecule, donor type, donor heavy atom, donor atom, acceptor molecule, acceptor atom, score
      P1  H  6896  6907       L1    12  1.00
      P1  H  7997  8008       L1     5  0.21
      P1  H  7997  8009       L1     1  0.99

> <Gold.PLP.Chemscore.Internal.Correction>
0.0118

> <Gold.Rescore>
     Score         DG    S(hbond)    S(metal)    S(lipo)     H(rot)  DE(clash)    DE(int)     intcor
     20.36     -20.63       2.17        0.00     104.82       1.71       0.01       0.25       ----

> <Gold.Chemscore.Fitness>
20.3618

> <Gold.Chemscore.DG>
-20.6255

> <Gold.Chemscore.ZeroCoef>
-5.4800

> <Gold.Chemscore.Hbond>
2.1732

> <Gold.Chemscore.Metal>
0.0000

> <Gold.Chemscore.Lipo>
104.8222

> <Gold.Chemscore.Internal_Hbond>
0.0000

> <Gold.Chemscore.DEClash>
0.0129

> <Gold.Chemscore.DEInternal>
0.2508

> <Gold.Chemscore.Rot>
1.7099

> <Gold.Chemscore.Internal.Correction>
   9.000000E+99

> <Gold.Chemscore.Hbonds>
donor molecule, donor type, donor heavy atom, donor atom, acceptor molecule, acceptor atom, score
      P1  H  6896  6907       L1    12  0.94
      P1  H  7997  8008       L1     5  0.16
      P1  H  7997  8009       L1     1  0.46

> <Gold.Chemscore.Hbond.Weighted>
-7.2586

> <Gold.Chemscore.Metal.Weighted>
-0.0000

> <Gold.Chemscore.Lipo.Weighted>
-12.2642

> <Gold.Chemscore.Internal_Hbond.Weighted>
0.0000

> <Gold.Chemscore.DEClash.Weighted>
0.0129

> <Gold.Chemscore.DEInternal.Weighted>
0.2508

> <Gold.Chemscore.Rot.Weighted>
4.3774

> <Gold.Chemscore.Internal.Correction.Weighted>
   9.000000E+99

> <Gold.Protein.RotatedTorsions>
[ 6907 6896 6895 6894 ] final   13.02 input  -60.11 | X-H torsion
[ 7974 7965 7964 7962 ] final   18.11 input  175.53 | X-H torsion
[ 8008 7997 7996 7995 ] final -137.34 input   59.86 | X-H torsion
[ 10167 10162 10161 10158 ] final -178.10 input  -65.29 | X-H torsion
[ 10718 10713 10712 10709 ] final   75.37 input   66.30 | X-H torsion
[ 10763 10752 10751 10750 ] final -150.85 input  -60.55 | X-H torsion
[ 11005 11000 10999 10996 ] final  -18.59 input  -57.11 | X-H torsion

> <Gold.Protein.ActiveResidues>
 VAL166  LYS551  ARG553  GLY616  TRP617  ASP618  TYR619  PRO620  LYS621  CYS622 
 ASP623  PHE694  ASN695  SER759  ASP760  ASP761  ALA762  ILE779  LEU786  VAL792 
 PHE793  MET794  SER795  GLU796  ALA797  LYS798  CYS799  TRP800  GLU811  SER814 

> <Gold.Protein.RotatedAtoms>
  151.7796  135.0765  160.0371 H   0  0  0  0  0  0  0  0  0  0  0  0  # atno 6907 bound_to 6896
  152.3232  133.5872  159.5767 H   0  0  0  0  0  0  0  0  0  0  0  0  # atno 6908 bound_to 6896
  150.7381  133.9895  159.3644 H   0  0  0  0  0  0  0  0  0  0  0  0  # atno 6909 bound_to 6896
  146.2196  139.8505  142.8623 H   0  0  0  0  0  0  0  0  0  0  0  0  # atno 7974 bound_to 7965
  155.4102  140.0511  157.3032 H   0  0  0  0  0  0  0  0  0  0  0  0  # atno 8008 bound_to 7997
  154.4949  140.2135  155.9427 H   0  0  0  0  0  0  0  0  0  0  0  0  # atno 8009 bound_to 7997
  156.1393  140.3157  155.8475 H   0  0  0  0  0  0  0  0  0  0  0  0  # atno 8010 bound_to 7997
  139.5448  144.2265  152.0967 H   0  0  0  0  0  0  0  0  0  0  0  0  # atno 10167 bound_to 10162
  157.6631  130.9723  150.1344 H   0  0  0  0  0  0  0  0  0  0  0  0  # atno 10718 bound_to 10713
  154.8094  135.3274  154.7346 H   0  0  0  0  0  0  0  0  0  0  0  0  # atno 10763 bound_to 10752
  153.7998  135.6904  153.4862 H   0  0  0  0  0  0  0  0  0  0  0  0  # atno 10764 bound_to 10752
  153.1862  135.4568  155.0037 H   0  0  0  0  0  0  0  0  0  0  0  0  # atno 10765 bound_to 10752
  140.8283  133.8016  155.9732 H   0  0  0  0  0  0  0  0  0  0  0  0  # atno 11005 bound_to 11000
  145.2806  141.0137  143.3719 LP  0  0  0  0  0  0  0  0  0  0  0  0  # atno 17320 bound_to 7965
  144.9153  139.4478  143.6567 LP  0  0  0  0  0  0  0  0  0  0  0  0  # atno 17321 bound_to 7965
  140.1749  144.4900  150.6559 LP  0  0  0  0  0  0  0  0  0  0  0  0  # atno 17342 bound_to 10162
  140.6692  143.2279  151.5667 LP  0  0  0  0  0  0  0  0  0  0  0  0  # atno 17343 bound_to 10162
  156.2183  130.3672  149.8587 LP  0  0  0  0  0  0  0  0  0  0  0  0  # atno 17370 bound_to 10713
  156.6447  130.8719  151.3520 LP  0  0  0  0  0  0  0  0  0  0  0  0  # atno 17371 bound_to 10713
  140.9025  134.2361  157.5033 LP  0  0  0  0  0  0  0  0  0  0  0  0  # atno 17394 bound_to 11000
  139.8706  134.9713  156.4732 LP  0  0  0  0  0  0  0  0  0  0  0  0  # atno 17395 bound_to 11000

$$$$
