AV-unprocessed.smi:2631|AV-procd|sdf|10249|dock1
  -GOLD-   2272014263D 1   1.00000     0.00000
 Structure written by MMmdl.
 34 35  0  0  0  0  0  0  0  0  2 V2000
  148.4356  136.8146  155.7357 C   0  0  0  0  0  0  0  0  0  0  0  0
  147.0354  137.0210  155.7799 O   0  0  0  0  0  0  0  0  0  0  0  0
  146.5540  137.2172  157.0990 C   0  0  0  0  0  0  0  0  0  0  0  0
  147.2405  138.4403  157.7308 C   0  0  0  0  0  0  0  0  0  0  0  0
  148.6094  138.1248  158.1928 N   0  0  0  0  0  0  0  0  0  0  0  0
  149.7017  138.8490  157.6459 C   0  0  0  0  0  0  0  0  0  0  0  0
  149.4778  139.8277  156.6911 N   0  0  0  0  0  0  0  0  0  0  0  0
  150.9560  138.5779  158.0714 C   0  0  0  0  0  0  0  0  0  0  0  0
  152.4401  139.3940  157.5272 S   0  0  0  0  0  0  0  0  0  0  0  0
  152.2814  140.9469  158.3457 C   0  0  0  0  0  0  0  0  0  0  0  0
  153.1315  141.2633  159.4238 C   0  0  0  0  0  0  0  0  0  0  0  0
  153.0108  142.5087  160.0707 C   0  0  0  0  0  0  0  0  0  0  0  0
  152.0406  143.4357  159.6404 C   0  0  0  0  0  0  0  0  0  0  0  0
  151.8956  144.9619  160.4317 Cl  0  0  0  0  0  0  0  0  0  0  0  0
  151.1890  143.1164  158.5640 C   0  0  0  0  0  0  0  0  0  0  0  0
  151.3082  141.8712  157.9167 C   0  0  0  0  0  0  0  0  0  0  0  0
  151.1917  137.5438  159.0808 C   0  0  0  0  0  0  0  0  0  0  0  0
  152.3297  137.2768  159.4694 O   0  0  0  0  0  0  0  0  0  0  0  0
  150.0931  136.9016  159.5628 N   0  5  0  0  0  0  0  0  0  0  0  0
  148.8171  137.1681  159.1525 C   0  0  0  0  0  0  0  0  0  0  0  0
  147.8507  136.5686  159.6256 O   0  0  0  0  0  0  0  0  0  0  0  0
  148.7514  136.6704  154.7025 H   0  0  0  0  0  0  0  0  0  0  0  0
  148.7217  135.9279  156.3028 H   0  0  0  0  0  0  0  0  0  0  0  0
  148.9730  137.6758  156.1347 H   0  0  0  0  0  0  0  0  0  0  0  0
  145.4762  137.3824  157.0676 H   0  0  0  0  0  0  0  0  0  0  0  0
  146.7261  136.3254  157.7035 H   0  0  0  0  0  0  0  0  0  0  0  0
  147.2252  139.2710  157.0238 H   0  0  0  0  0  0  0  0  0  0  0  0
  146.6411  138.8047  158.5652 H   0  0  0  0  0  0  0  0  0  0  0  0
  148.5466  140.0454  156.3670 H   0  0  0  0  0  0  0  0  0  0  0  0
  150.2150  140.4460  156.3850 H   0  0  0  0  0  0  0  0  0  0  0  0
  153.8778  140.5557  159.7535 H   0  0  0  0  0  0  0  0  0  0  0  0
  153.6642  142.7519  160.8956 H   0  0  0  0  0  0  0  0  0  0  0  0
  150.4449  143.8255  158.2322 H   0  0  0  0  0  0  0  0  0  0  0  0
  150.6565  141.6304  157.0894 H   0  0  0  0  0  0  0  0  0  0  0  0
  1  2  1  0  0  0  0
  1 22  1  0  0  0  0
  1 23  1  0  0  0  0
  1 24  1  0  0  0  0
  2  3  1  0  0  0  0
  3  4  1  0  0  0  0
  3 25  1  0  0  0  0
  3 26  1  0  0  0  0
  4  5  1  0  0  0  0
  4 27  1  0  0  0  0
  4 28  1  0  0  0  0
  5 20  1  0  0  0  0
  5  6  1  0  0  0  0
  6  7  1  0  0  0  0
  6  8  2  0  0  0  0
  7 29  1  0  0  0  0
  7 30  1  0  0  0  0
  8  9  1  0  0  0  0
  8 17  1  0  0  0  0
  9 10  1  0  0  0  0
 10 16  1  0  0  0  0
 10 11  2  0  0  0  0
 11 12  1  0  0  0  0
 11 31  1  0  0  0  0
 12 13  2  0  0  0  0
 12 32  1  0  0  0  0
 13 14  1  0  0  0  0
 13 15  1  0  0  0  0
 15 16  2  0  0  0  0
 15 33  1  0  0  0  0
 16 34  1  0  0  0  0
 17 18  2  0  0  0  0
 17 19  1  0  0  0  0
 19 20  1  0  0  0  0
 20 21  2  0  0  0  0
M  CHG  1  19  -1
M  END
> <s_m_source_file>
AV-unprocessed.smi

> <i_m_source_file_index>
2631

> <i_lp_mmshare_version>
43012

> <i_f3d_flags>
0

> <s_epik_input>
W0NIM11PW0NIMl1bQ0gyXW4xYyhbTkgyXSljKGMoPU8pW25IXWMxPU8pU2MyW2NIXVtjSF1jKENsKVtjSF1bY0hdMg==

> <s_epik_cmdline>
J2VwaWtfcHl0aG9uJywgJy1waCcsICc3LjAnLCAnLXRuJywgJzgnLCAnLW1hJywgJzIwMCcsICctbWV0YWxfYmluZGluZycsICctaW1hZScsICc8aW5maWxlLm1hZT4nLCAnLW9tYWUnLCAnPG91dGZpbGUubWFlPic=

> <r_lp_tautomer_probability>
1

> <r_epik_Ionization_Penalty>
5.35309

> <r_epik_Ionization_Penalty_Charging>
0.0281434

> <r_epik_Ionization_Penalty_Neutral>
5.32495

> <r_epik_State_Penalty>
5.32488

> <r_epik_Charging_Adjusted_Penalty>
5.35302

> <i_epik_Tot_Q>
-1

> <i_epik_Tot_abs_Q>
1

> <r_epik_Metal_State_Penalty>
1.30191

> <b_epik_Metal_Only>
1

> <s_epik_Chemistry_Notes>
This compound has an imine and may undergo hydrolysis.

> <s_lp_Force_Field>
OPLS_2005

> <r_lp_Energy>
29.1443

> <b_lp_Chiralities_Consistent>
1

> <s_lp_Variant>
AV-unprocessed.smi:2631-2

> <Gold.Version>
5.8.1

> <Gold.Id.Protein>
6NUR|6NUR_protein|mol2

> <Gold.PLP.Fitness>
36.8490

> <Gold.PLP.PLP>
-31.4984

> <Gold.PLP.part.hbond>
-1.0167

> <Gold.PLP.part.metal>
0.0000

> <Gold.PLP.part.buried>
-4.6102

> <Gold.PLP.part.nonpolar>
-25.2561

> <Gold.PLP.part.repulsive>
0.0378

> <Gold.PLP.ligand.clash>
0.0000

> <Gold.PLP.ligand.torsion>
0.3599

> <Gold.PLP.Chemscore.Hbond>
2.0000

> <Gold.PLP.Chemscore.CHOScore>
0.0000

> <Gold.PLP.Chemscore.Metal>
0.0000

> <Gold.Chemscore.Hbonds>
donor molecule, donor type, donor heavy atom, donor atom, acceptor molecule, acceptor atom, score
      P1  H  6896  6908       L1    19  1.30

> <Gold.PLP.Chemscore.Internal.Correction>
0.0703

> <Gold.Rescore>
     Score         DG    S(hbond)    S(metal)    S(lipo)     H(rot)  DE(clash)    DE(int)     intcor
      9.68     -12.48       0.84        0.00      80.17       2.02       0.04       2.76       ----

> <Gold.Chemscore.Fitness>
9.6772

> <Gold.Chemscore.DG>
-12.4803

> <Gold.Chemscore.ZeroCoef>
-5.4800

> <Gold.Chemscore.Hbond>
0.8384

> <Gold.Chemscore.Metal>
0.0000

> <Gold.Chemscore.Lipo>
80.1695

> <Gold.Chemscore.Internal_Hbond>
0.0000

> <Gold.Chemscore.DEClash>
0.0425

> <Gold.Chemscore.DEInternal>
2.7607

> <Gold.Chemscore.Rot>
2.0234

> <Gold.Chemscore.Internal.Correction>
   9.000000E+99

> <Gold.Chemscore.Hbonds>
donor molecule, donor type, donor heavy atom, donor atom, acceptor molecule, acceptor atom, score
      P1  H  6896  6908       L1    19  0.09

> <Gold.Chemscore.Hbond.Weighted>
-2.8003

> <Gold.Chemscore.Metal.Weighted>
-0.0000

> <Gold.Chemscore.Lipo.Weighted>
-9.3798

> <Gold.Chemscore.Internal_Hbond.Weighted>
0.0000

> <Gold.Chemscore.DEClash.Weighted>
0.0425

> <Gold.Chemscore.DEInternal.Weighted>
2.7607

> <Gold.Chemscore.Rot.Weighted>
5.1798

> <Gold.Chemscore.Internal.Correction.Weighted>
   9.000000E+99

> <Gold.Protein.RotatedTorsions>
[ 6907 6896 6895 6894 ] final -154.34 input  -60.11 | X-H torsion
[ 7974 7965 7964 7962 ] final  -60.26 input  175.53 | X-H torsion
[ 8008 7997 7996 7995 ] final   67.62 input   59.86 | X-H torsion
[ 10167 10162 10161 10158 ] final  165.03 input  -65.29 | X-H torsion
[ 10718 10713 10712 10709 ] final  161.73 input   66.30 | X-H torsion
[ 10763 10752 10751 10750 ] final   67.34 input  -60.55 | X-H torsion
[ 11005 11000 10999 10996 ] final  166.27 input  -57.11 | X-H torsion

> <Gold.Protein.ActiveResidues>
 VAL166  LYS551  ARG553  GLY616  TRP617  ASP618  TYR619  PRO620  LYS621  CYS622 
 ASP623  PHE694  ASN695  SER759  ASP760  ASP761  ALA762  ILE779  LEU786  VAL792 
 PHE793  MET794  SER795  GLU796  ALA797  LYS798  CYS799  TRP800  GLU811  SER814 

> <Gold.Protein.RotatedAtoms>
  151.2560  133.4326  159.2613 H   0  0  0  0  0  0  0  0  0  0  0  0  # atno 6907 bound_to 6896
  151.0574  134.9714  159.8253 H   0  0  0  0  0  0  0  0  0  0  0  0  # atno 6908 bound_to 6896
  152.5393  134.2512  159.8952 H   0  0  0  0  0  0  0  0  0  0  0  0  # atno 6909 bound_to 6896
  145.8176  140.8560  143.0149 H   0  0  0  0  0  0  0  0  0  0  0  0  # atno 7974 bound_to 7965
  155.6956  140.3496  155.4912 H   0  0  0  0  0  0  0  0  0  0  0  0  # atno 8008 bound_to 7997
  155.9485  140.1115  157.1018 H   0  0  0  0  0  0  0  0  0  0  0  0  # atno 8009 bound_to 7997
  154.4117  140.1199  156.5008 H   0  0  0  0  0  0  0  0  0  0  0  0  # atno 8010 bound_to 7997
  139.4899  144.4174  151.9227 H   0  0  0  0  0  0  0  0  0  0  0  0  # atno 10167 bound_to 10162
  157.1325  131.0520  151.2365 H   0  0  0  0  0  0  0  0  0  0  0  0  # atno 10718 bound_to 10713
  153.0182  135.5287  154.6964 H   0  0  0  0  0  0  0  0  0  0  0  0  # atno 10763 bound_to 10752
  154.6085  135.2875  155.0461 H   0  0  0  0  0  0  0  0  0  0  0  0  # atno 10764 bound_to 10752
  154.1491  135.6566  153.5012 H   0  0  0  0  0  0  0  0  0  0  0  0  # atno 10765 bound_to 10752
  140.2647  134.7874  157.3622 H   0  0  0  0  0  0  0  0  0  0  0  0  # atno 11005 bound_to 11000
  144.6751  140.0487  143.7479 LP  0  0  0  0  0  0  0  0  0  0  0  0  # atno 17320 bound_to 7965
  145.9709  139.2869  143.1099 LP  0  0  0  0  0  0  0  0  0  0  0  0  # atno 17321 bound_to 7965
  140.3617  144.2965  150.5932 LP  0  0  0  0  0  0  0  0  0  0  0  0  # atno 17342 bound_to 10162
  140.5397  143.2226  151.8105 LP  0  0  0  0  0  0  0  0  0  0  0  0  # atno 17343 bound_to 10162
  157.4380  130.7528  149.7045 LP  0  0  0  0  0  0  0  0  0  0  0  0  # atno 17370 bound_to 10713
  155.9805  130.4029  150.3525 LP  0  0  0  0  0  0  0  0  0  0  0  0  # atno 17371 bound_to 10713
  140.1430  134.4947  155.8017 LP  0  0  0  0  0  0  0  0  0  0  0  0  # atno 17394 bound_to 11000
  141.2185  133.6833  156.7245 LP  0  0  0  0  0  0  0  0  0  0  0  0  # atno 17395 bound_to 11000

$$$$
