AV-unprocessed.smi:1385|AV-procd|sdf|5631|dock7
  -GOLD-   22720 5243D 1   1.00000     0.00000
 Structure written by MMmdl.
 37 38  0  0  0  0  0  0  0  0  2 V2000
  143.6174  135.8995  162.7758 C   0  0  0  0  0  0  0  0  0  0  0  0
  144.8907  136.2369  162.0785 C   0  0  0  0  0  0  0  0  0  0  0  0
  144.9904  137.2383  161.2011 N   0  0  0  0  0  0  0  0  0  0  0  0
  146.2730  137.3553  160.6852 N   0  0  0  0  0  0  0  0  0  0  0  0
  147.1203  136.4356  161.1689 C   0  0  0  0  0  0  0  0  0  0  0  0
  148.4101  136.3767  160.7983 N   0  5  0  0  0  0  0  0  0  0  0  0
  148.7387  136.4323  159.4875 C   0  0  0  0  0  0  0  0  0  0  0  0
  149.3809  135.5874  158.8593 O   0  0  0  0  0  0  0  0  0  0  0  0
  148.2951  137.5347  158.8666 N   0  0  0  0  0  0  0  0  0  0  0  0
  148.4884  137.8613  157.4565 C   0  0  0  0  0  0  0  0  0  0  0  0
  148.2267  139.3551  157.2224 C   0  0  0  0  0  0  0  0  0  0  0  0
  148.3112  139.7022  155.7259 C   0  0  0  0  0  0  0  0  0  0  0  0
  147.3444  138.9126  154.9556 N   0  0  0  0  0  0  0  0  0  0  0  0
  147.3635  139.3598  153.5444 C   0  0  0  0  0  0  0  0  0  0  0  0
  146.3039  138.6966  152.6567 C   0  0  0  0  0  0  0  0  0  0  0  0
  146.1314  139.1991  151.4316 N   0  0  0  0  0  0  0  0  0  0  0  0
  145.6550  137.7388  153.0715 O   0  0  0  0  0  0  0  0  0  0  0  0
  147.6321  137.4773  155.0971 C   0  0  0  0  0  0  0  0  0  0  0  0
  147.5343  137.0448  156.5703 C   0  0  0  0  0  0  0  0  0  0  0  0
  146.3803  135.3460  162.3413 S   0  0  0  0  0  0  0  0  0  0  0  0
  142.9767  135.3131  162.1172 H   0  0  0  0  0  0  0  0  0  0  0  0
  143.0897  136.8098  163.0619 H   0  0  0  0  0  0  0  0  0  0  0  0
  143.8216  135.3182  163.6751 H   0  0  0  0  0  0  0  0  0  0  0  0
  147.7726  138.1978  159.4198 H   0  0  0  0  0  0  0  0  0  0  0  0
  149.5194  137.6447  157.1703 H   0  0  0  0  0  0  0  0  0  0  0  0
  147.2406  139.6271  157.6029 H   0  0  0  0  0  0  0  0  0  0  0  0
  148.9491  139.9517  157.7807 H   0  0  0  0  0  0  0  0  0  0  0  0
  148.1038  140.7657  155.6005 H   0  0  0  0  0  0  0  0  0  0  0  0
  149.3235  139.5308  155.3553 H   0  0  0  0  0  0  0  0  0  0  0  0
  147.1832  140.4351  153.5034 H   0  0  0  0  0  0  0  0  0  0  0  0
  148.3561  139.1976  153.1194 H   0  0  0  0  0  0  0  0  0  0  0  0
  145.4424  138.7967  150.8130 H   0  0  0  0  0  0  0  0  0  0  0  0
  146.6904  139.9839  151.1300 H   0  0  0  0  0  0  0  0  0  0  0  0
  146.9228  136.8790  154.5254 H   0  0  0  0  0  0  0  0  0  0  0  0
  148.6248  137.2523  154.7034 H   0  0  0  0  0  0  0  0  0  0  0  0
  147.7612  135.9814  156.6553 H   0  0  0  0  0  0  0  0  0  0  0  0
  146.5068  137.1690  156.9165 H   0  0  0  0  0  0  0  0  0  0  0  0
  1  2  1  0  0  0  0
  1 21  1  0  0  0  0
  1 22  1  0  0  0  0
  1 23  1  0  0  0  0
  2 20  1  0  0  0  0
  2  3  2  0  0  0  0
  3  4  1  0  0  0  0
  4  5  2  0  0  0  0
  5  6  1  0  0  0  0
  5 20  1  0  0  0  0
  6  7  1  0  0  0  0
  7  8  2  0  0  0  0
  7  9  1  0  0  0  0
  9 10  1  0  0  0  0
  9 24  1  0  0  0  0
 10 19  1  0  0  0  0
 10 11  1  0  0  0  0
 10 25  1  0  0  0  0
 11 12  1  0  0  0  0
 11 26  1  0  0  0  0
 11 27  1  0  0  0  0
 12 13  1  0  0  0  0
 12 28  1  0  0  0  0
 12 29  1  0  0  0  0
 13 14  1  0  0  0  0
 13 18  1  0  0  0  0
 14 15  1  0  0  0  0
 14 30  1  0  0  0  0
 14 31  1  0  0  0  0
 15 16  1  0  0  0  0
 15 17  2  0  0  0  0
 16 32  1  0  0  0  0
 16 33  1  0  0  0  0
 18 19  1  0  0  0  0
 18 34  1  0  0  0  0
 18 35  1  0  0  0  0
 19 36  1  0  0  0  0
 19 37  1  0  0  0  0
M  CHG  1   6  -1
M  END
> <s_m_source_file>
AV-unprocessed.smi

> <i_m_source_file_index>
1385

> <i_lp_mmshare_version>
43012

> <i_f3d_flags>
0

> <s_epik_input>
W0NIM11jMW5uYyhzMSlbTkhdQyg9TylbTkhdW0NIXTJbQ0gyXVtDSDJdTihbQ0gyXVtDSDJdMilbQ0gyXUMoPU8pW05IMl0=

> <s_epik_cmdline>
J2VwaWtfcHl0aG9uJywgJy1waCcsICc3LjAnLCAnLXRuJywgJzgnLCAnLW1hJywgJzIwMCcsICctbWV0YWxfYmluZGluZycsICctaW1hZScsICc8aW5maWxlLm1hZT4nLCAnLW9tYWUnLCAnPG91dGZpbGUubWFlPic=

> <r_lp_tautomer_probability>
1

> <r_epik_Ionization_Penalty>
3.72698

> <r_epik_Ionization_Penalty_Charging>
3.38897

> <r_epik_Ionization_Penalty_Neutral>
0.338006

> <r_epik_State_Penalty>
3.53372

> <r_epik_Charging_Adjusted_Penalty>
6.92269

> <i_epik_Tot_Q>
-1

> <i_epik_Tot_abs_Q>
1

> <r_epik_Metal_State_Penalty>
0.657042

> <b_epik_Metal_Only>
1

> <s_lp_Force_Field>
OPLS_2005

> <r_lp_Energy>
7.29134

> <b_lp_Chiralities_Consistent>
1

> <s_lp_Variant>
AV-unprocessed.smi:1385-4

> <Gold.Version>
5.8.1

> <Gold.Id.Protein>
6NUR|6NUR_protein|mol2

> <Gold.PLP.Fitness>
36.4738

> <Gold.PLP.PLP>
-23.9544

> <Gold.PLP.part.hbond>
-4.8778

> <Gold.PLP.part.metal>
0.0000

> <Gold.PLP.part.buried>
-6.0862

> <Gold.PLP.part.nonpolar>
-14.7847

> <Gold.PLP.part.repulsive>
0.5240

> <Gold.PLP.ligand.clash>
0.0000

> <Gold.PLP.ligand.torsion>
1.2702

> <Gold.PLP.Chemscore.Hbond>
4.9920

> <Gold.PLP.Chemscore.CHOScore>
0.0000

> <Gold.PLP.Chemscore.Metal>
0.0000

> <Gold.Chemscore.Hbonds>
donor molecule, donor type, donor heavy atom, donor atom, acceptor molecule, acceptor atom, score
      L1  H    16    32       P1 10171  1.00
      P1  H  6896  6908       L1     8  1.00
      P1  H  6931  6943       L1     6  0.70
      P1  H  6934  6947       L1     4  1.00

> <Gold.PLP.Chemscore.Internal.Correction>
0.0838

> <Gold.Rescore>
     Score         DG    S(hbond)    S(metal)    S(lipo)     H(rot)  DE(clash)    DE(int)     intcor
     11.17     -13.92       3.06        0.00      28.82       2.02       0.00       2.75       ----

> <Gold.Chemscore.Fitness>
11.1659

> <Gold.Chemscore.DG>
-13.9172

> <Gold.Chemscore.ZeroCoef>
-5.4800

> <Gold.Chemscore.Hbond>
3.0620

> <Gold.Chemscore.Metal>
0.0000

> <Gold.Chemscore.Lipo>
28.8201

> <Gold.Chemscore.Internal_Hbond>
0.0000

> <Gold.Chemscore.DEClash>
0.0038

> <Gold.Chemscore.DEInternal>
2.7475

> <Gold.Chemscore.Rot>
2.0163

> <Gold.Chemscore.Internal.Correction>
   9.000000E+99

> <Gold.Chemscore.Hbonds>
donor molecule, donor type, donor heavy atom, donor atom, acceptor molecule, acceptor atom, score
      L1  H    16    32       P1 10171  1.00
      P1  H  6896  6908       L1     8  0.99
      P1  H  6931  6943       L1     6  0.04
      P1  H  6934  6947       L1     4  0.47

> <Gold.Chemscore.Hbond.Weighted>
-10.2269

> <Gold.Chemscore.Metal.Weighted>
-0.0000

> <Gold.Chemscore.Lipo.Weighted>
-3.3719

> <Gold.Chemscore.Internal_Hbond.Weighted>
0.0000

> <Gold.Chemscore.DEClash.Weighted>
0.0038

> <Gold.Chemscore.DEInternal.Weighted>
2.7475

> <Gold.Chemscore.Rot.Weighted>
5.1617

> <Gold.Chemscore.Internal.Correction.Weighted>
   9.000000E+99

> <Gold.Protein.RotatedTorsions>
[ 6907 6896 6895 6894 ] final  173.10 input  -60.11 | X-H torsion
[ 7974 7965 7964 7962 ] final   82.61 input  175.53 | X-H torsion
[ 8008 7997 7996 7995 ] final  111.91 input   59.86 | X-H torsion
[ 10167 10162 10161 10158 ] final  111.40 input  -65.29 | X-H torsion
[ 10718 10713 10712 10709 ] final -179.10 input   66.30 | X-H torsion
[ 10763 10752 10751 10750 ] final   69.43 input  -60.55 | X-H torsion
[ 11005 11000 10999 10996 ] final -159.44 input  -57.11 | X-H torsion

> <Gold.Protein.ActiveResidues>
 VAL166  LYS551  ARG553  GLY616  TRP617  ASP618  TYR619  PRO620  LYS621  CYS622 
 ASP623  PHE694  ASN695  SER759  ASP760  ASP761  ALA762  ILE779  LEU786  VAL792 
 PHE793  MET794  SER795  GLU796  ALA797  LYS798  CYS799  TRP800  GLU811  SER814 

> <Gold.Protein.RotatedAtoms>
  151.7736  133.3343  159.3451 H   0  0  0  0  0  0  0  0  0  0  0  0  # atno 6907 bound_to 6896
  150.7452  134.5995  159.6039 H   0  0  0  0  0  0  0  0  0  0  0  0  # atno 6908 bound_to 6896
  152.3324  134.7244  160.0337 H   0  0  0  0  0  0  0  0  0  0  0  0  # atno 6909 bound_to 6896
  145.6227  139.2389  143.2129 H   0  0  0  0  0  0  0  0  0  0  0  0  # atno 7974 bound_to 7965
  156.2156  140.3010  155.9832 H   0  0  0  0  0  0  0  0  0  0  0  0  # atno 8008 bound_to 7997
  155.2613  140.0430  157.3014 H   0  0  0  0  0  0  0  0  0  0  0  0  # atno 8009 bound_to 7997
  154.5763  140.2362  155.8126 H   0  0  0  0  0  0  0  0  0  0  0  0  # atno 8010 bound_to 7997
  139.6614  144.7128  151.1858 H   0  0  0  0  0  0  0  0  0  0  0  0  # atno 10167 bound_to 10162
  156.8540  130.9729  151.3089 H   0  0  0  0  0  0  0  0  0  0  0  0  # atno 10718 bound_to 10713
  153.0287  135.5211  154.7287 H   0  0  0  0  0  0  0  0  0  0  0  0  # atno 10763 bound_to 10752
  154.6321  135.2901  155.0206 H   0  0  0  0  0  0  0  0  0  0  0  0  # atno 10764 bound_to 10752
  154.1155  135.6615  153.4945 H   0  0  0  0  0  0  0  0  0  0  0  0  # atno 10765 bound_to 10752
  140.6425  134.4536  157.5233 H   0  0  0  0  0  0  0  0  0  0  0  0  # atno 11005 bound_to 11000
  146.1418  140.7047  142.9363 LP  0  0  0  0  0  0  0  0  0  0  0  0  # atno 17320 bound_to 7965
  144.7224  140.4418  143.6998 LP  0  0  0  0  0  0  0  0  0  0  0  0  # atno 17321 bound_to 7965
  140.7581  143.5988  150.8720 LP  0  0  0  0  0  0  0  0  0  0  0  0  # atno 17342 bound_to 10162
  139.9646  143.6125  152.2992 LP  0  0  0  0  0  0  0  0  0  0  0  0  # atno 17343 bound_to 10162
  157.6287  130.8712  149.9235 LP  0  0  0  0  0  0  0  0  0  0  0  0  # atno 17370 bound_to 10713
  156.0812  130.3673  150.0576 LP  0  0  0  0  0  0  0  0  0  0  0  0  # atno 17371 bound_to 10713
  139.9075  134.8417  156.1651 LP  0  0  0  0  0  0  0  0  0  0  0  0  # atno 17394 bound_to 11000
  141.0596  133.6848  156.1927 LP  0  0  0  0  0  0  0  0  0  0  0  0  # atno 17395 bound_to 11000

$$$$
