AV-unprocessed.smi:3150|AV-procd|sdf|12012|dock6
  -GOLD-   2272017423D 1   1.00000     0.00000
 Structure written by MMmdl.
 32 33  0  0  0  0  0  0  0  0  2 V2000
  152.1419  144.4876  158.0482 C   0  0  0  0  0  0  0  0  0  0  0  0
  152.2806  143.0503  158.5679 C   0  0  1  0  0  0  0  0  0  0  0  0
  152.0883  143.0766  159.9803 O   0  0  0  0  0  0  0  0  0  0  0  0
  153.1667  142.5494  160.7434 C   0  0  0  0  0  0  0  0  0  0  0  0
  152.7774  142.5575  162.2057 C   0  0  0  0  0  0  0  0  0  0  0  0
  152.9715  143.8015  163.0427 C   0  0  0  0  0  0  0  0  0  0  0  0
  153.8376  142.5912  163.2828 C   0  0  0  0  0  0  0  0  0  0  0  0
  151.2457  142.1291  157.9000 C   0  0  0  0  0  0  0  0  0  0  0  0
  150.0510  142.4291  157.9781 O   0  0  0  0  0  0  0  0  0  0  0  0
  151.8466  141.0380  157.2775 N   0  0  0  0  0  0  0  0  0  0  0  0
  151.2893  140.3622  156.3096 C   0  0  0  0  0  0  0  0  0  0  0  0
  150.0173  140.6612  155.7910 N   0  0  0  0  0  0  0  0  0  0  0  0
  149.4322  139.9410  154.7712 C   0  0  0  0  0  0  0  0  0  0  0  0
  150.0503  138.9022  154.2069 C   0  0  0  0  0  0  0  0  0  0  0  0
  151.3666  138.5289  154.6821 C   0  0  0  0  0  0  0  0  0  0  0  0
  152.0096  139.2219  155.7145 C   0  0  0  0  0  0  0  0  0  0  0  0
  153.1482  138.8626  156.0943 O   0  5  0  0  0  0  0  0  0  0  0  0
  152.2894  144.5337  156.9686 H   0  0  0  0  0  0  0  0  0  0  0  0
  152.8847  145.1388  158.5096 H   0  0  0  0  0  0  0  0  0  0  0  0
  151.1570  144.8999  158.2707 H   0  0  0  0  0  0  0  0  0  0  0  0
  153.2936  142.7029  158.3534 H   0  0  0  0  0  0  0  0  0  0  0  0
  153.4153  141.5315  160.4399 H   0  0  0  0  0  0  0  0  0  0  0  0
  154.0581  143.1640  160.6117 H   0  0  0  0  0  0  0  0  0  0  0  0
  151.8877  141.9711  162.4271 H   0  0  0  0  0  0  0  0  0  0  0  0
  153.4358  144.6647  162.5693 H   0  0  0  0  0  0  0  0  0  0  0  0
  152.2097  144.0306  163.7850 H   0  0  0  0  0  0  0  0  0  0  0  0
  153.6544  142.0110  164.1848 H   0  0  0  0  0  0  0  0  0  0  0  0
  154.8776  142.6450  162.9665 H   0  0  0  0  0  0  0  0  0  0  0  0
  148.4514  140.2847  154.4780 H   0  0  0  0  0  0  0  0  0  0  0  0
  149.5775  138.3482  153.4094 H   0  0  0  0  0  0  0  0  0  0  0  0
  151.8577  137.6860  154.2172 H   0  0  0  0  0  0  0  0  0  0  0  0
  149.4786  141.4310  156.1596 H   0  0  0  0  0  0  0  0  0  0  0  0
  1  2  1  0  0  0  0
  1 18  1  0  0  0  0
  1 19  1  0  0  0  0
  1 20  1  0  0  0  0
  2  3  1  0  0  0  0
  2  8  1  0  0  0  0
  2 21  1  0  0  0  0
  3  4  1  0  0  0  0
  4  5  1  0  0  0  0
  4 22  1  0  0  0  0
  4 23  1  0  0  0  0
  5  7  1  0  0  0  0
  5  6  1  0  0  0  0
  5 24  1  0  0  0  0
  6  7  1  0  0  0  0
  6 25  1  0  0  0  0
  6 26  1  0  0  0  0
  7 27  1  0  0  0  0
  7 28  1  0  0  0  0
  8  9  2  0  0  0  0
  8 10  1  0  0  0  0
 10 11  2  0  0  0  0
 11 16  1  0  0  0  0
 11 12  1  0  0  0  0
 12 32  1  0  0  0  0
 12 13  1  0  0  0  0
 13 29  1  0  0  0  0
 13 14  2  0  0  0  0
 14 30  1  0  0  0  0
 14 15  1  0  0  0  0
 15 16  2  0  0  0  0
 15 31  1  0  0  0  0
 16 17  1  0  0  0  0
M  CHG  1  17  -1
M  END
> <s_m_source_file>
AV-unprocessed.smi

> <i_m_source_file_index>
3150

> <i_lp_mmshare_version>
43012

> <i_f3d_flags>
0

> <s_epik_input>
W0NIMl0xW0NIMl1bQ0hdMVtDSDJdT1tDQEBIXShbQ0gzXSlDKD1PKVtOSF1jMm5bY0hdW2NIXVtjSF1jMltPSF0=

> <s_epik_cmdline>
J2VwaWtfcHl0aG9uJywgJy1waCcsICc3LjAnLCAnLXRuJywgJzgnLCAnLW1hJywgJzIwMCcsICctbWV0YWxfYmluZGluZycsICctaW1hZScsICc8aW5maWxlLm1hZT4nLCAnLW9tYWUnLCAnPG91dGZpbGUubWFlPic=

> <r_epik_Ionization_Penalty>
0.784632

> <r_epik_Ionization_Penalty_Charging>
0.784632

> <r_epik_Ionization_Penalty_Neutral>
7.02258e-13

> <r_epik_State_Penalty>
1.43154

> <r_epik_Charging_Adjusted_Penalty>
2.21617

> <i_epik_Tot_Q>
-1

> <i_epik_Tot_abs_Q>
1

> <r_epik_Metal_State_Penalty>
1.39244

> <b_epik_Metal_Only>
0

> <s_lp_Force_Field>
OPLS_2005

> <r_lp_Energy>
45.381

> <b_lp_Chiralities_Consistent>
1

> <s_lp_Variant>
AV-unprocessed.smi:3150-6

> <Gold.Version>
5.8.1

> <Gold.Id.Protein>
6NUR|6NUR_protein|mol2

> <Gold.PLP.Fitness>
46.6282

> <Gold.PLP.PLP>
-42.3904

> <Gold.PLP.part.hbond>
-1.0000

> <Gold.PLP.part.metal>
0.0000

> <Gold.PLP.part.buried>
-3.1212

> <Gold.PLP.part.nonpolar>
-38.5914

> <Gold.PLP.part.repulsive>
0.2433

> <Gold.PLP.ligand.clash>
0.0000

> <Gold.PLP.ligand.torsion>
1.1626

> <Gold.PLP.Chemscore.Hbond>
2.0000

> <Gold.PLP.Chemscore.CHOScore>
0.0000

> <Gold.PLP.Chemscore.Metal>
0.0000

> <Gold.Chemscore.Hbonds>
donor molecule, donor type, donor heavy atom, donor atom, acceptor molecule, acceptor atom, score
      P1  H  7997  8010       L1    17  2.00

> <Gold.PLP.Chemscore.Internal.Correction>
0.5631

> <Gold.Rescore>
     Score         DG    S(hbond)    S(metal)    S(lipo)     H(rot)  DE(clash)    DE(int)     intcor
     15.24     -16.66       1.00        0.00     102.99       1.64       0.30       1.12       ----

> <Gold.Chemscore.Fitness>
15.2400

> <Gold.Chemscore.DG>
-16.6625

> <Gold.Chemscore.ZeroCoef>
-5.4800

> <Gold.Chemscore.Hbond>
0.9963

> <Gold.Chemscore.Metal>
0.0000

> <Gold.Chemscore.Lipo>
102.9912

> <Gold.Chemscore.Internal_Hbond>
0.0000

> <Gold.Chemscore.DEClash>
0.3025

> <Gold.Chemscore.DEInternal>
1.1200

> <Gold.Chemscore.Rot>
1.6387

> <Gold.Chemscore.Internal.Correction>
   9.000000E+99

> <Gold.Chemscore.Hbonds>
donor molecule, donor type, donor heavy atom, donor atom, acceptor molecule, acceptor atom, score
      P1  H  7997  8010       L1    17  0.90

> <Gold.Chemscore.Hbond.Weighted>
-3.3275

> <Gold.Chemscore.Metal.Weighted>
-0.0000

> <Gold.Chemscore.Lipo.Weighted>
-12.0500

> <Gold.Chemscore.Internal_Hbond.Weighted>
0.0000

> <Gold.Chemscore.DEClash.Weighted>
0.3025

> <Gold.Chemscore.DEInternal.Weighted>
1.1200

> <Gold.Chemscore.Rot.Weighted>
4.1950

> <Gold.Chemscore.Internal.Correction.Weighted>
   9.000000E+99

> <Gold.Protein.RotatedTorsions>
[ 6907 6896 6895 6894 ] final   -3.90 input  -60.11 | X-H torsion
[ 7974 7965 7964 7962 ] final -113.83 input  175.53 | X-H torsion
[ 8008 7997 7996 7995 ] final   87.66 input   59.86 | X-H torsion
[ 10167 10162 10161 10158 ] final  -16.86 input  -65.29 | X-H torsion
[ 10718 10713 10712 10709 ] final   75.45 input   66.30 | X-H torsion
[ 10763 10752 10751 10750 ] final  161.31 input  -60.55 | X-H torsion
[ 11005 11000 10999 10996 ] final  -89.02 input  -57.11 | X-H torsion

> <Gold.Protein.ActiveResidues>
 VAL166  LYS551  ARG553  GLY616  TRP617  ASP618  TYR619  PRO620  LYS621  CYS622 
 ASP623  PHE694  ASN695  SER759  ASP760  ASP761  ALA762  ILE779  LEU786  VAL792 
 PHE793  MET794  SER795  GLU796  ALA797  LYS798  CYS799  TRP800  GLU811  SER814 

> <Gold.Protein.RotatedAtoms>
  151.5064  135.1063  159.9842 H   0  0  0  0  0  0  0  0  0  0  0  0  # atno 6907 bound_to 6896
  152.4680  133.7962  159.6939 H   0  0  0  0  0  0  0  0  0  0  0  0  # atno 6908 bound_to 6896
  150.8674  133.7491  159.2998 H   0  0  0  0  0  0  0  0  0  0  0  0  # atno 6909 bound_to 6896
  145.1273  140.8704  143.3778 H   0  0  0  0  0  0  0  0  0  0  0  0  # atno 7974 bound_to 7965
  155.9781  140.3380  155.6637 H   0  0  0  0  0  0  0  0  0  0  0  0  # atno 8008 bound_to 7997
  155.6585  140.0713  157.2580 H   0  0  0  0  0  0  0  0  0  0  0  0  # atno 8009 bound_to 7997
  154.4184  140.1713  156.1739 H   0  0  0  0  0  0  0  0  0  0  0  0  # atno 8010 bound_to 7997
  140.7239  143.5074  150.9793 H   0  0  0  0  0  0  0  0  0  0  0  0  # atno 10167 bound_to 10162
  157.6634  130.9727  150.1356 H   0  0  0  0  0  0  0  0  0  0  0  0  # atno 10718 bound_to 10713
  154.2609  135.2768  155.2778 H   0  0  0  0  0  0  0  0  0  0  0  0  # atno 10763 bound_to 10752
  154.5384  135.5709  153.6822 H   0  0  0  0  0  0  0  0  0  0  0  0  # atno 10764 bound_to 10752
  152.9962  135.6245  154.2760 H   0  0  0  0  0  0  0  0  0  0  0  0  # atno 10765 bound_to 10752
  141.1592  133.7605  156.9535 H   0  0  0  0  0  0  0  0  0  0  0  0  # atno 11005 bound_to 11000
  145.0674  139.3058  143.5849 LP  0  0  0  0  0  0  0  0  0  0  0  0  # atno 17320 bound_to 7965
  146.3516  140.0137  142.8665 LP  0  0  0  0  0  0  0  0  0  0  0  0  # atno 17321 bound_to 7965
  139.8786  143.7101  152.3159 LP  0  0  0  0  0  0  0  0  0  0  0  0  # atno 17342 bound_to 10162
  139.7375  144.7568  151.0705 LP  0  0  0  0  0  0  0  0  0  0  0  0  # atno 17343 bound_to 10162
  156.2191  130.3672  149.8577 LP  0  0  0  0  0  0  0  0  0  0  0  0  # atno 17370 bound_to 10713
  156.6435  130.8714  151.3518 LP  0  0  0  0  0  0  0  0  0  0  0  0  # atno 17371 bound_to 10713
  140.1241  134.9398  157.2245 LP  0  0  0  0  0  0  0  0  0  0  0  0  # atno 17394 bound_to 11000
  140.3035  134.3104  155.7284 LP  0  0  0  0  0  0  0  0  0  0  0  0  # atno 17395 bound_to 11000

$$$$
