AV-unprocessed.smi:1550|AV-procd|sdf|6227|dock2
  -GOLD-   22720 6403D 1   1.00000     0.00000
 Structure written by MMmdl.
 43 44  0  0  0  0  0  0  0  0  1 V2000
  152.3631  138.8692  156.7230 C   0  0  0  0  0  0  0  0  0  0  0  0
  151.0161  139.6053  156.7710 C   0  0  1  0  0  0  0  0  0  0  0  0
  151.2810  140.9577  157.1331 O   0  0  0  0  0  0  0  0  0  0  0  0
  151.7989  141.1494  158.4447 C   0  0  0  0  0  0  0  0  0  0  0  0
  151.3799  142.5395  158.9389 C   0  0  1  0  0  0  0  0  0  0  0  0
  152.3151  143.0614  160.0472 C   0  0  0  0  0  0  0  0  0  0  0  0
  151.9176  144.4830  160.4612 C   0  0  0  0  0  0  0  0  0  0  0  0
  151.8489  145.3830  159.2229 C   0  0  0  0  0  0  0  0  0  0  0  0
  150.9552  144.7452  158.1475 C   0  0  0  0  0  0  0  0  0  0  0  0
  151.4307  143.4397  157.8339 O   0  0  0  0  0  0  0  0  0  0  0  0
  150.3004  139.5514  155.4116 C   0  0  0  0  0  0  0  0  0  0  0  0
  150.9097  139.8779  154.3929 O   0  0  0  0  0  0  0  0  0  0  0  0
  149.0186  139.1367  155.4456 N   0  0  0  0  0  0  0  0  0  0  0  0
  148.0906  139.0507  154.3950 C   0  0  0  0  0  0  0  0  0  0  0  0
  147.3002  137.9727  154.1510 C   0  0  0  0  0  0  0  0  0  0  0  0
  146.3712  137.9365  153.0329 C   0  0  0  0  0  0  0  0  0  0  0  0
  145.4757  136.7399  152.7528 C   0  0  0  0  0  0  0  0  0  0  0  0
  145.7052  136.2707  151.5268 F   0  0  0  0  0  0  0  0  0  0  0  0
  145.7308  135.7614  153.6212 F   0  0  0  0  0  0  0  0  0  0  0  0
  144.1840  137.0567  152.8460 F   0  0  0  0  0  0  0  0  0  0  0  0
  146.3414  139.0240  152.2418 C   0  0  0  0  0  0  0  0  0  0  0  0
  147.1586  140.1314  152.4797 N   0  0  0  0  0  0  0  0  0  0  0  0
  148.0385  140.2203  153.5023 C   0  0  0  0  0  0  0  0  0  0  0  0
  148.7286  141.2293  153.6423 O   0  0  0  0  0  0  0  0  0  0  0  0
  147.0788  140.9072  151.8380 H   0  0  0  0  0  0  0  0  0  0  0  0
  152.2333  137.8238  156.4406 H   0  0  0  0  0  0  0  0  0  0  0  0
  152.8479  138.8883  157.6995 H   0  0  0  0  0  0  0  0  0  0  0  0
  153.0476  139.3280  156.0084 H   0  0  0  0  0  0  0  0  0  0  0  0
  150.3973  139.1381  157.5401 H   0  0  0  0  0  0  0  0  0  0  0  0
  151.3983  140.3930  159.1207 H   0  0  0  0  0  0  0  0  0  0  0  0
  152.8855  141.0509  158.4507 H   0  0  0  0  0  0  0  0  0  0  0  0
  150.3595  142.4844  159.3232 H   0  0  0  0  0  0  0  0  0  0  0  0
  152.2834  142.3998  160.9135 H   0  0  0  0  0  0  0  0  0  0  0  0
  153.3458  143.0601  159.6901 H   0  0  0  0  0  0  0  0  0  0  0  0
  150.9450  144.4621  160.9544 H   0  0  0  0  0  0  0  0  0  0  0  0
  152.6286  144.8827  161.1844 H   0  0  0  0  0  0  0  0  0  0  0  0
  151.4700  146.3691  159.4932 H   0  0  0  0  0  0  0  0  0  0  0  0
  152.8519  145.5316  158.8212 H   0  0  0  0  0  0  0  0  0  0  0  0
  149.9178  144.6952  158.4819 H   0  0  0  0  0  0  0  0  0  0  0  0
  150.9680  145.3517  157.2418 H   0  0  0  0  0  0  0  0  0  0  0  0
  148.6771  138.8102  156.3384 H   0  0  0  0  0  0  0  0  0  0  0  0
  147.3610  137.0970  154.7765 H   0  0  0  0  0  0  0  0  0  0  0  0
  145.6996  139.1261  151.3790 H   0  0  0  0  0  0  0  0  0  0  0  0
  1  2  1  0  0  0  0
  1 26  1  0  0  0  0
  1 27  1  0  0  0  0
  1 28  1  0  0  0  0
  2  3  1  0  0  0  0
  2 11  1  0  0  0  0
  2 29  1  0  0  0  0
  3  4  1  0  0  0  0
  4  5  1  0  0  0  0
  4 30  1  0  0  0  0
  4 31  1  0  0  0  0
  5 10  1  0  0  0  0
  5  6  1  0  0  0  0
  5 32  1  0  0  0  0
  6  7  1  0  0  0  0
  6 33  1  0  0  0  0
  6 34  1  0  0  0  0
  7  8  1  0  0  0  0
  7 35  1  0  0  0  0
  7 36  1  0  0  0  0
  8  9  1  0  0  0  0
  8 37  1  0  0  0  0
  8 38  1  0  0  0  0
  9 10  1  0  0  0  0
  9 39  1  0  0  0  0
  9 40  1  0  0  0  0
 11 12  2  0  0  0  0
 11 13  1  0  0  0  0
 13 14  1  0  0  0  0
 13 41  1  0  0  0  0
 14 23  1  0  0  0  0
 14 15  2  0  0  0  0
 15 16  1  0  0  0  0
 15 42  1  0  0  0  0
 16 17  1  0  0  0  0
 16 21  2  0  0  0  0
 17 18  1  0  0  0  0
 17 19  1  0  0  0  0
 17 20  1  0  0  0  0
 21 22  1  0  0  0  0
 21 43  1  0  0  0  0
 22 25  1  0  0  0  0
 22 23  1  0  0  0  0
 23 24  2  0  0  0  0
M  END
> <s_m_source_file>
AV-unprocessed.smi

> <i_m_source_file_index>
1550

> <i_lp_mmshare_version>
43012

> <i_f3d_flags>
0

> <s_epik_input>
TzFbQ0gyXVtDSDJdW0NIMl1bQ0gyXVtDQEhdMVtDSDJdT1tDQEBIXShbQ0gzXSlDKD1PKVtOSF1jMltjSF1jKEMoRikoRilGKVtjSF1bbkhdYzI9Tw==

> <s_epik_cmdline>
J2VwaWtfcHl0aG9uJywgJy1waCcsICc3LjAnLCAnLXRuJywgJzgnLCAnLW1hJywgJzIwMCcsICctbWV0YWxfYmluZGluZycsICctaW1hZScsICc8aW5maWxlLm1hZT4nLCAnLW9tYWUnLCAnPG91dGZpbGUubWFlPic=

> <r_lp_tautomer_probability>
0.999

> <r_epik_Ionization_Penalty>
0.00891333

> <r_epik_Ionization_Penalty_Charging>
0.00891323

> <r_epik_Ionization_Penalty_Neutral>
1.00146e-07

> <r_epik_State_Penalty>
0.00674197

> <r_epik_Charging_Adjusted_Penalty>
0.0156552

> <i_epik_Tot_Q>
0

> <i_epik_Tot_abs_Q>
0

> <r_epik_Metal_State_Penalty>
0.321024

> <b_epik_Metal_Only>
0

> <s_lp_Force_Field>
OPLS_2005

> <r_lp_Energy>
24.886

> <b_lp_Chiralities_Consistent>
1

> <s_lp_Variant>
AV-unprocessed.smi:1550-4

> <Gold.Version>
5.8.1

> <Gold.Id.Protein>
6NUR|6NUR_protein|mol2

> <Gold.PLP.Fitness>
46.6163

> <Gold.PLP.PLP>
-38.6581

> <Gold.PLP.part.hbond>
-2.9660

> <Gold.PLP.part.metal>
0.0000

> <Gold.PLP.part.buried>
-3.8965

> <Gold.PLP.part.nonpolar>
-34.6166

> <Gold.PLP.part.repulsive>
1.7269

> <Gold.PLP.ligand.clash>
0.0000

> <Gold.PLP.ligand.torsion>
0.9865

> <Gold.PLP.Chemscore.Hbond>
1.8012

> <Gold.PLP.Chemscore.CHOScore>
1.4747

> <Gold.PLP.Chemscore.Metal>
0.0000

> <Gold.Chemscore.Hbonds>
donor molecule, donor type, donor heavy atom, donor atom, acceptor molecule, acceptor atom, score
      P1  H  7989  7998       L1    12  0.96
      P1  H  8011  8017       L1    24  0.82
      L1  C    21    43       P1 10171  1.00
      L1  C    21    43       P1 10175  0.31

> <Gold.PLP.Chemscore.Internal.Correction>
0.1037

> <Gold.Rescore>
     Score         DG    S(hbond)    S(metal)    S(lipo)     H(rot)  DE(clash)    DE(int)     intcor
     12.04     -16.26       1.20        0.00      98.61       1.86       0.64       3.58       ----

> <Gold.Chemscore.Fitness>
12.0405

> <Gold.Chemscore.DG>
-16.2597

> <Gold.Chemscore.ZeroCoef>
-5.4800

> <Gold.Chemscore.Hbond>
1.1966

> <Gold.Chemscore.Metal>
0.0000

> <Gold.Chemscore.Lipo>
98.6080

> <Gold.Chemscore.Internal_Hbond>
0.0000

> <Gold.Chemscore.DEClash>
0.6392

> <Gold.Chemscore.DEInternal>
3.5800

> <Gold.Chemscore.Rot>
1.8571

> <Gold.Chemscore.Internal.Correction>
   9.000000E+99

> <Gold.Chemscore.Hbonds>
donor molecule, donor type, donor heavy atom, donor atom, acceptor molecule, acceptor atom, score
      P1  H  7989  7998       L1    12  0.91
      P1  H  8011  8017       L1    24  0.77

> <Gold.Chemscore.Hbond.Weighted>
-3.9966

> <Gold.Chemscore.Metal.Weighted>
-0.0000

> <Gold.Chemscore.Lipo.Weighted>
-11.5371

> <Gold.Chemscore.Internal_Hbond.Weighted>
0.0000

> <Gold.Chemscore.DEClash.Weighted>
0.6392

> <Gold.Chemscore.DEInternal.Weighted>
3.5800

> <Gold.Chemscore.Rot.Weighted>
4.7541

> <Gold.Chemscore.Internal.Correction.Weighted>
   9.000000E+99

> <Gold.Protein.RotatedTorsions>
[ 6907 6896 6895 6894 ] final   69.38 input  -60.11 | X-H torsion
[ 7974 7965 7964 7962 ] final -152.88 input  175.53 | X-H torsion
[ 8008 7997 7996 7995 ] final -177.22 input   59.86 | X-H torsion
[ 10167 10162 10161 10158 ] final  -19.49 input  -65.29 | X-H torsion
[ 10718 10713 10712 10709 ] final -107.77 input   66.30 | X-H torsion
[ 10763 10752 10751 10750 ] final  113.57 input  -60.55 | X-H torsion
[ 11005 11000 10999 10996 ] final -162.27 input  -57.11 | X-H torsion

> <Gold.Protein.ActiveResidues>
 VAL166  LYS551  ARG553  GLY616  TRP617  ASP618  TYR619  PRO620  LYS621  CYS622 
 ASP623  PHE694  ASN695  SER759  ASP760  ASP761  ALA762  ILE779  LEU786  VAL792 
 PHE793  MET794  SER795  GLU796  ALA797  LYS798  CYS799  TRP800  GLU811  SER814 

> <Gold.Protein.RotatedAtoms>
  152.4682  134.5025  159.9728 H   0  0  0  0  0  0  0  0  0  0  0  0  # atno 6907 bound_to 6896
  151.5058  133.3489  159.2884 H   0  0  0  0  0  0  0  0  0  0  0  0  # atno 6908 bound_to 6896
  150.8677  134.8072  159.7193 H   0  0  0  0  0  0  0  0  0  0  0  0  # atno 6909 bound_to 6896
  144.7770  140.4601  143.5866 H   0  0  0  0  0  0  0  0  0  0  0  0  # atno 7974 bound_to 7965
  156.0043  140.1227  157.0516 H   0  0  0  0  0  0  0  0  0  0  0  0  # atno 8008 bound_to 7997
  154.4253  140.1100  156.5810 H   0  0  0  0  0  0  0  0  0  0  0  0  # atno 8009 bound_to 7997
  155.6168  140.3472  155.4642 H   0  0  0  0  0  0  0  0  0  0  0  0  # atno 8010 bound_to 7997
  140.7269  143.4814  151.0113 H   0  0  0  0  0  0  0  0  0  0  0  0  # atno 10167 bound_to 10162
  156.0453  130.5679  150.7868 H   0  0  0  0  0  0  0  0  0  0  0  0  # atno 10718 bound_to 10713
  153.4945  135.3651  155.2509 H   0  0  0  0  0  0  0  0  0  0  0  0  # atno 10763 bound_to 10752
  154.8750  135.3985  154.3550 H   0  0  0  0  0  0  0  0  0  0  0  0  # atno 10764 bound_to 10752
  153.4175  135.7079  153.6382 H   0  0  0  0  0  0  0  0  0  0  0  0  # atno 10765 bound_to 10752
  140.6111  134.4848  157.5215 H   0  0  0  0  0  0  0  0  0  0  0  0  # atno 11005 bound_to 11000
  145.6158  139.1518  143.3050 LP  0  0  0  0  0  0  0  0  0  0  0  0  # atno 17320 bound_to 7965
  146.1956  140.6271  142.9126 LP  0  0  0  0  0  0  0  0  0  0  0  0  # atno 17321 bound_to 7965
  139.8512  143.7435  152.3178 LP  0  0  0  0  0  0  0  0  0  0  0  0  # atno 17342 bound_to 10162
  139.7618  144.7504  151.0352 LP  0  0  0  0  0  0  0  0  0  0  0  0  # atno 17343 bound_to 10162
  157.5320  131.0937  150.9942 LP  0  0  0  0  0  0  0  0  0  0  0  0  # atno 17370 bound_to 10713
  157.0246  130.5687  149.5335 LP  0  0  0  0  0  0  0  0  0  0  0  0  # atno 17371 bound_to 10713
  139.9192  134.8184  156.1267 LP  0  0  0  0  0  0  0  0  0  0  0  0  # atno 17394 bound_to 11000
  141.0807  133.6755  156.2331 LP  0  0  0  0  0  0  0  0  0  0  0  0  # atno 17395 bound_to 11000

$$$$
