AV-unprocessed.smi:2947|AV-procd|sdf|11282|dock5
  -GOLD-   2272016173D 1   1.00000     0.00000
 Structure written by MMmdl.
 33 34  0  0  0  0  0  0  0  0  1 V2000
  150.7666  140.7433  156.5306 O   0  0  0  0  0  0  0  0  0  0  0  0
  150.2106  141.8167  156.2958 C   0  0  0  0  0  0  0  0  0  0  0  0
  149.1970  141.9952  155.4303 N   0  0  0  0  0  0  0  0  0  0  0  0
  148.5586  141.0245  154.6129 C   0  0  0  0  0  0  0  0  0  0  0  0
  147.5144  141.5203  153.7998 C   0  0  0  0  0  0  0  0  0  0  0  0
  146.8177  140.6378  152.9516 C   0  0  0  0  0  0  0  0  0  0  0  0
  147.1838  139.2800  152.9379 C   0  0  0  0  0  0  0  0  0  0  0  0
  148.2344  138.8683  153.7784 C   0  0  0  0  0  0  0  0  0  0  0  0
  148.9033  139.7123  154.5922 N   0  0  0  0  0  0  0  0  0  0  0  0
  150.5513  142.9712  156.8876 N   0  0  0  0  0  0  0  0  0  0  0  0
  151.6131  143.1309  157.8769 C   0  0  0  0  0  0  0  0  0  0  0  0
  151.5990  141.9625  158.8846 C   0  0  0  0  0  0  0  0  0  0  0  0
  152.6592  142.1527  159.9813 C   0  0  0  0  0  0  0  0  0  0  0  0
  152.4850  143.5006  160.6986 C   0  0  0  0  0  0  0  0  0  0  0  0
  152.5056  144.6670  159.6985 C   0  0  0  0  0  0  0  0  0  0  0  0
  151.4445  144.4799  158.6018 C   0  0  0  0  0  0  0  0  0  0  0  0
  148.8408  142.9357  155.3451 H   0  0  0  0  0  0  0  0  0  0  0  0
  147.2465  142.5666  153.8223 H   0  0  0  0  0  0  0  0  0  0  0  0
  146.0172  140.9976  152.3224 H   0  0  0  0  0  0  0  0  0  0  0  0
  146.6735  138.5728  152.3010 H   0  0  0  0  0  0  0  0  0  0  0  0
  148.5464  137.8345  153.7980 H   0  0  0  0  0  0  0  0  0  0  0  0
  150.0398  143.8037  156.6346 H   0  0  0  0  0  0  0  0  0  0  0  0
  152.5771  143.1417  157.3639 H   0  0  0  0  0  0  0  0  0  0  0  0
  150.6131  141.8836  159.3452 H   0  0  0  0  0  0  0  0  0  0  0  0
  151.7748  141.0173  158.3695 H   0  0  0  0  0  0  0  0  0  0  0  0
  152.5986  141.3369  160.7021 H   0  0  0  0  0  0  0  0  0  0  0  0
  153.6546  142.1004  159.5387 H   0  0  0  0  0  0  0  0  0  0  0  0
  151.5415  143.5044  161.2458 H   0  0  0  0  0  0  0  0  0  0  0  0
  153.2738  143.6321  161.4401 H   0  0  0  0  0  0  0  0  0  0  0  0
  152.3372  145.6085  160.2221 H   0  0  0  0  0  0  0  0  0  0  0  0
  153.4936  144.7398  159.2420 H   0  0  0  0  0  0  0  0  0  0  0  0
  151.5096  145.3002  157.8860 H   0  0  0  0  0  0  0  0  0  0  0  0
  150.4509  144.5384  159.0491 H   0  0  0  0  0  0  0  0  0  0  0  0
  1  2  2  0  0  0  0
  2  3  1  0  0  0  0
  2 10  1  0  0  0  0
  3  4  1  0  0  0  0
  3 17  1  0  0  0  0
  4  9  1  0  0  0  0
  4  5  2  0  0  0  0
  5  6  1  0  0  0  0
  5 18  1  0  0  0  0
  6  7  2  0  0  0  0
  6 19  1  0  0  0  0
  7  8  1  0  0  0  0
  7 20  1  0  0  0  0
  8  9  2  0  0  0  0
  8 21  1  0  0  0  0
 10 11  1  0  0  0  0
 10 22  1  0  0  0  0
 11 16  1  0  0  0  0
 11 12  1  0  0  0  0
 11 23  1  0  0  0  0
 12 13  1  0  0  0  0
 12 24  1  0  0  0  0
 12 25  1  0  0  0  0
 13 14  1  0  0  0  0
 13 26  1  0  0  0  0
 13 27  1  0  0  0  0
 14 15  1  0  0  0  0
 14 28  1  0  0  0  0
 14 29  1  0  0  0  0
 15 16  1  0  0  0  0
 15 30  1  0  0  0  0
 15 31  1  0  0  0  0
 16 32  1  0  0  0  0
 16 33  1  0  0  0  0
M  END
> <s_m_source_file>
AV-unprocessed.smi

> <i_m_source_file_index>
2947

> <i_lp_mmshare_version>
43012

> <i_f3d_flags>
0

> <s_epik_input>
W0NIMl0xW0NIMl1bQ0gyXVtDSDJdW0NIMl1bQ0hdMVtOSF1DKD1PKVtOSF1jMltjSF1bY0hdW2NIXVtjSF1uMg==

> <s_epik_cmdline>
J2VwaWtfcHl0aG9uJywgJy1waCcsICc3LjAnLCAnLXRuJywgJzgnLCAnLW1hJywgJzIwMCcsICctbWV0YWxfYmluZGluZycsICctaW1hZScsICc8aW5maWxlLm1hZT4nLCAnLW9tYWUnLCAnPG91dGZpbGUubWFlPic=

> <r_lp_tautomer_probability>
1

> <r_epik_Ionization_Penalty>
5.26121e-05

> <r_epik_Ionization_Penalty_Charging>
0

> <r_epik_Ionization_Penalty_Neutral>
5.26121e-05

> <r_epik_State_Penalty>
-0

> <r_epik_Charging_Adjusted_Penalty>
0

> <i_epik_Tot_Q>
0

> <i_epik_Tot_abs_Q>
0

> <r_epik_Metal_State_Penalty>
-0

> <b_epik_Metal_Only>
0

> <s_lp_Force_Field>
OPLS_2005

> <r_lp_Energy>
11.3585

> <b_lp_Chiralities_Consistent>
1

> <s_lp_Variant>
AV-unprocessed.smi:2947-1

> <Gold.Version>
5.8.1

> <Gold.Id.Protein>
6NUR|6NUR_protein|mol2

> <Gold.PLP.Fitness>
44.0266

> <Gold.PLP.PLP>
-35.4852

> <Gold.PLP.part.hbond>
-2.0000

> <Gold.PLP.part.metal>
0.0000

> <Gold.PLP.part.buried>
-3.0500

> <Gold.PLP.part.nonpolar>
-30.7327

> <Gold.PLP.part.repulsive>
0.3235

> <Gold.PLP.ligand.clash>
0.0000

> <Gold.PLP.ligand.torsion>
0.2257

> <Gold.PLP.Chemscore.Hbond>
2.0000

> <Gold.PLP.Chemscore.CHOScore>
0.9966

> <Gold.PLP.Chemscore.Metal>
0.0000

> <Gold.Chemscore.Hbonds>
donor molecule, donor type, donor heavy atom, donor atom, acceptor molecule, acceptor atom, score
      L1  H     3    17       P1  8028  1.00
      L1  H    10    22       P1  8028  1.00
      L1  C     8    21       P1  7948  0.97

> <Gold.PLP.Chemscore.Internal.Correction>
0.0031

> <Gold.Rescore>
     Score         DG    S(hbond)    S(metal)    S(lipo)     H(rot)  DE(clash)    DE(int)     intcor
     17.85     -20.70       1.97        0.00      95.65       1.00       0.14       2.71       ----

> <Gold.Chemscore.Fitness>
17.8536

> <Gold.Chemscore.DG>
-20.7031

> <Gold.Chemscore.ZeroCoef>
-5.4800

> <Gold.Chemscore.Hbond>
1.9736

> <Gold.Chemscore.Metal>
0.0000

> <Gold.Chemscore.Lipo>
95.6523

> <Gold.Chemscore.Internal_Hbond>
0.0000

> <Gold.Chemscore.DEClash>
0.1438

> <Gold.Chemscore.DEInternal>
2.7057

> <Gold.Chemscore.Rot>
1.0000

> <Gold.Chemscore.Internal.Correction>
   9.000000E+99

> <Gold.Chemscore.Hbonds>
donor molecule, donor type, donor heavy atom, donor atom, acceptor molecule, acceptor atom, score
      L1  H     3    17       P1  8028  0.98
      L1  H    10    22       P1  8028  0.98

> <Gold.Chemscore.Hbond.Weighted>
-6.5917

> <Gold.Chemscore.Metal.Weighted>
-0.0000

> <Gold.Chemscore.Lipo.Weighted>
-11.1913

> <Gold.Chemscore.Internal_Hbond.Weighted>
0.0000

> <Gold.Chemscore.DEClash.Weighted>
0.1438

> <Gold.Chemscore.DEInternal.Weighted>
2.7057

> <Gold.Chemscore.Rot.Weighted>
2.5600

> <Gold.Chemscore.Internal.Correction.Weighted>
   9.000000E+99

> <Gold.Protein.RotatedTorsions>
[ 6907 6896 6895 6894 ] final -109.22 input  -60.11 | X-H torsion
[ 7974 7965 7964 7962 ] final  -91.87 input  175.53 | X-H torsion
[ 8008 7997 7996 7995 ] final  -84.52 input   59.86 | X-H torsion
[ 10167 10162 10161 10158 ] final  157.10 input  -65.29 | X-H torsion
[ 10718 10713 10712 10709 ] final  125.31 input   66.30 | X-H torsion
[ 10763 10752 10751 10750 ] final -157.21 input  -60.55 | X-H torsion
[ 11005 11000 10999 10996 ] final    5.82 input  -57.11 | X-H torsion

> <Gold.Protein.ActiveResidues>
 VAL166  LYS551  ARG553  GLY616  TRP617  ASP618  TYR619  PRO620  LYS621  CYS622 
 ASP623  PHE694  ASN695  SER759  ASP760  ASP761  ALA762  ILE779  LEU786  VAL792 
 PHE793  MET794  SER795  GLU796  ALA797  LYS798  CYS799  TRP800  GLU811  SER814 

> <Gold.Protein.RotatedAtoms>
  150.7549  133.9561  159.3500 H   0  0  0  0  0  0  0  0  0  0  0  0  # atno 6907 bound_to 6896
  151.7483  135.0836  160.0336 H   0  0  0  0  0  0  0  0  0  0  0  0  # atno 6908 bound_to 6896
  152.3483  133.6112  159.5962 H   0  0  0  0  0  0  0  0  0  0  0  0  # atno 6909 bound_to 6896
  145.4074  140.9542  143.2253 H   0  0  0  0  0  0  0  0  0  0  0  0  # atno 7974 bound_to 7965
  154.6307  140.0604  156.9728 H   0  0  0  0  0  0  0  0  0  0  0  0  # atno 8008 bound_to 7997
  155.1670  140.3287  155.4381 H   0  0  0  0  0  0  0  0  0  0  0  0  # atno 8009 bound_to 7997
  156.2481  140.1920  156.6775 H   0  0  0  0  0  0  0  0  0  0  0  0  # atno 8010 bound_to 7997
  139.4822  144.4948  151.8256 H   0  0  0  0  0  0  0  0  0  0  0  0  # atno 10167 bound_to 10162
  157.5514  131.1094  150.8696 H   0  0  0  0  0  0  0  0  0  0  0  0  # atno 10718 bound_to 10713
  154.7653  135.3129  154.8298 H   0  0  0  0  0  0  0  0  0  0  0  0  # atno 10763 bound_to 10752
  153.9047  135.6812  153.4758 H   0  0  0  0  0  0  0  0  0  0  0  0  # atno 10764 bound_to 10752
  153.1259  135.4802  154.9203 H   0  0  0  0  0  0  0  0  0  0  0  0  # atno 10765 bound_to 10752
  140.5664  134.0143  155.7991 H   0  0  0  0  0  0  0  0  0  0  0  0  # atno 11005 bound_to 11000
  144.8332  139.5593  143.6934 LP  0  0  0  0  0  0  0  0  0  0  0  0  # atno 17320 bound_to 7965
  146.2722  139.6663  142.9288 LP  0  0  0  0  0  0  0  0  0  0  0  0  # atno 17321 bound_to 7965
  140.4435  144.1953  150.5892 LP  0  0  0  0  0  0  0  0  0  0  0  0  # atno 17342 bound_to 10162
  140.4658  143.2431  151.9157 LP  0  0  0  0  0  0  0  0  0  0  0  0  # atno 17343 bound_to 10162
  156.9220  130.5318  149.5279 LP  0  0  0  0  0  0  0  0  0  0  0  0  # atno 17370 bound_to 10713
  156.0580  130.5638  150.9132 LP  0  0  0  0  0  0  0  0  0  0  0  0  # atno 17371 bound_to 10713
  141.1083  133.9658  157.2957 LP  0  0  0  0  0  0  0  0  0  0  0  0  # atno 17394 bound_to 11000
  139.9383  135.0194  156.8626 LP  0  0  0  0  0  0  0  0  0  0  0  0  # atno 17395 bound_to 11000

$$$$
