AV-unprocessed.smi:867|AV-procd|sdf|3994|dock9
  -GOLD-   22720 1473D 1   1.00000     0.00000
 Structure written by MMmdl.
 53 56  0  0  0  0  0  0  0  0  2 V2000
  148.7109  139.0402  154.0734 O   0  0  0  0  0  0  0  0  0  0  0  0
  147.9131  139.7881  154.6396 C   0  0  0  0  0  0  0  0  0  0  0  0
  146.6346  139.4389  154.8670 N   0  0  0  0  0  0  0  0  0  0  0  0
  146.0137  138.1729  154.4840 C   0  0  0  0  0  0  0  0  0  0  0  0
  146.0825  137.9282  152.9647 C   0  0  0  0  0  0  0  0  0  0  0  0
  145.2109  136.7768  152.4946 C   0  0  0  0  0  0  0  0  0  0  0  0
  143.9202  136.5780  153.0269 C   0  0  0  0  0  0  0  0  0  0  0  0
  143.1421  135.5110  152.5391 C   0  0  0  0  0  0  0  0  0  0  0  0
  143.6916  134.6830  151.5400 C   0  0  0  0  0  0  0  0  0  0  0  0
  144.9272  134.8615  151.0254 N   0  0  0  0  0  0  0  0  0  0  0  0
  145.6662  135.8881  151.4975 C   0  0  0  0  0  0  0  0  0  0  0  0
  148.2212  141.0575  155.0022 N   0  0  0  0  0  0  0  0  0  0  0  0
  147.4621  141.8918  155.9427 C   0  0  0  0  0  0  0  0  0  0  0  0
  148.2210  141.9518  157.2813 C   0  0  0  0  0  0  0  0  0  0  0  0
  149.6171  142.4464  157.1050 N   0  3  0  0  0  0  0  0  0  0  0  0
  150.3665  142.5176  158.3925 C   0  0  2  0  0  0  0  0  0  0  0  0
  149.7998  143.5426  159.4058 C   0  0  0  0  0  0  0  0  0  0  0  0
  151.0465  144.3419  159.8309 C   0  0  2  0  0  0  0  0  0  0  0  0
  151.4255  145.3093  158.6968 C   0  0  0  0  0  0  0  0  0  0  0  0
  151.9641  144.3581  157.6134 C   0  0  0  0  0  0  0  0  0  0  0  0
  151.8445  142.9693  158.2788 C   0  0  1  0  0  0  0  0  0  0  0  0
  152.1566  143.3024  159.7340 C   0  0  0  0  0  0  0  0  0  0  0  0
  150.3455  141.6985  156.0401 C   0  0  0  0  0  0  0  0  0  0  0  0
  149.5358  141.6432  154.7325 C   0  0  0  0  0  0  0  0  0  0  0  0
  146.0339  140.1186  155.3098 H   0  0  0  0  0  0  0  0  0  0  0  0
  146.4719  137.3397  155.0192 H   0  0  0  0  0  0  0  0  0  0  0  0
  144.9710  138.1977  154.8010 H   0  0  0  0  0  0  0  0  0  0  0  0
  145.7809  138.8321  152.4347 H   0  0  0  0  0  0  0  0  0  0  0  0
  147.1154  137.7363  152.6711 H   0  0  0  0  0  0  0  0  0  0  0  0
  143.5277  137.2357  153.7884 H   0  0  0  0  0  0  0  0  0  0  0  0
  142.1482  135.3313  152.9207 H   0  0  0  0  0  0  0  0  0  0  0  0
  143.1230  133.8552  151.1432 H   0  0  0  0  0  0  0  0  0  0  0  0
  146.6465  136.0096  151.0608 H   0  0  0  0  0  0  0  0  0  0  0  0
  147.3591  142.8951  155.5262 H   0  0  0  0  0  0  0  0  0  0  0  0
  146.4444  141.5434  156.1185 H   0  0  0  0  0  0  0  0  0  0  0  0
  147.6697  142.5923  157.9688 H   0  0  0  0  0  0  0  0  0  0  0  0
  148.2465  140.9582  157.7322 H   0  0  0  0  0  0  0  0  0  0  0  0
  150.3475  141.5244  158.8455 H   0  0  0  0  0  0  0  0  0  0  0  0
  149.0427  144.2029  158.9819 H   0  0  0  0  0  0  0  0  0  0  0  0
  149.3528  143.0287  160.2577 H   0  0  0  0  0  0  0  0  0  0  0  0
  150.9482  144.8262  160.8030 H   0  0  0  0  0  0  0  0  0  0  0  0
  150.5774  145.9014  158.3502 H   0  0  0  0  0  0  0  0  0  0  0  0
  152.2044  146.0008  159.0213 H   0  0  0  0  0  0  0  0  0  0  0  0
  151.4058  144.4340  156.6803 H   0  0  0  0  0  0  0  0  0  0  0  0
  153.0068  144.5890  157.3914 H   0  0  0  0  0  0  0  0  0  0  0  0
  152.5051  142.2168  157.8473 H   0  0  0  0  0  0  0  0  0  0  0  0
  153.1545  143.7207  159.8790 H   0  0  0  0  0  0  0  0  0  0  0  0
  152.0208  142.4591  160.4137 H   0  0  0  0  0  0  0  0  0  0  0  0
  151.3054  142.1692  155.8311 H   0  0  0  0  0  0  0  0  0  0  0  0
  150.5567  140.6863  156.3886 H   0  0  0  0  0  0  0  0  0  0  0  0
  150.0904  141.0942  153.9697 H   0  0  0  0  0  0  0  0  0  0  0  0
  149.4042  142.6492  154.3313 H   0  0  0  0  0  0  0  0  0  0  0  0
  149.5393  143.3961  156.7703 H   0  0  0  0  0  0  0  0  0  0  0  0
  1  2  2  0  0  0  0
  2  3  1  0  0  0  0
  2 12  1  0  0  0  0
  3  4  1  0  0  0  0
  3 25  1  0  0  0  0
  4  5  1  0  0  0  0
  4 26  1  0  0  0  0
  4 27  1  0  0  0  0
  5  6  1  0  0  0  0
  5 28  1  0  0  0  0
  5 29  1  0  0  0  0
  6 11  1  0  0  0  0
  6  7  2  0  0  0  0
  7  8  1  0  0  0  0
  7 30  1  0  0  0  0
  8  9  2  0  0  0  0
  8 31  1  0  0  0  0
  9 10  1  0  0  0  0
  9 32  1  0  0  0  0
 10 11  2  0  0  0  0
 11 33  1  0  0  0  0
 12 24  1  0  0  0  0
 12 13  1  0  0  0  0
 13 14  1  0  0  0  0
 13 34  1  0  0  0  0
 13 35  1  0  0  0  0
 14 15  1  0  0  0  0
 14 36  1  0  0  0  0
 14 37  1  0  0  0  0
 15 16  1  0  0  0  0
 15 23  1  0  0  0  0
 15 53  1  0  0  0  0
 16 21  1  0  0  0  0
 16 17  1  0  0  0  0
 16 38  1  0  0  0  0
 17 18  1  0  0  0  0
 17 39  1  0  0  0  0
 17 40  1  0  0  0  0
 18 22  1  0  0  0  0
 18 19  1  0  0  0  0
 18 41  1  0  0  0  0
 19 20  1  0  0  0  0
 19 42  1  0  0  0  0
 19 43  1  0  0  0  0
 20 21  1  0  0  0  0
 20 44  1  0  0  0  0
 20 45  1  0  0  0  0
 21 22  1  0  0  0  0
 21 46  1  0  0  0  0
 22 47  1  0  0  0  0
 22 48  1  0  0  0  0
 23 24  1  0  0  0  0
 23 49  1  0  0  0  0
 23 50  1  0  0  0  0
 24 51  1  0  0  0  0
 24 52  1  0  0  0  0
M  CHG  1  15   1
M  END
> <s_m_source_file>
AV-unprocessed.smi

> <i_m_source_file_index>
867

> <i_lp_mmshare_version>
43012

> <i_f3d_flags>
0

> <s_epik_input>
W0NIMl0xW0NIMl1bQ0BASF0oW0NIMl0yKVtDQEBIXShbQ0gyXVtDQEhdMTIpTihbQ0gyXVtDSDJdMylbQ0gyXVtDSDJdTjNDKD1PKVtOSF1bQ0gyXVtDSDJdYzRbY0hdW2NIXVtjSF1uW2NIXTQ=

> <s_epik_cmdline>
J2VwaWtfcHl0aG9uJywgJy1waCcsICc3LjAnLCAnLXRuJywgJzgnLCAnLW1hJywgJzIwMCcsICctbWV0YWxfYmluZGluZycsICctaW1hZScsICc8aW5maWxlLm1hZT4nLCAnLW9tYWUnLCAnPG91dGZpbGUubWFlPic=

> <r_epik_Ionization_Penalty>
0.0161279

> <r_epik_Ionization_Penalty_Charging>
0.00262064

> <r_epik_Ionization_Penalty_Neutral>
0.0135072

> <r_epik_State_Penalty>
0.0104914

> <r_epik_Charging_Adjusted_Penalty>
0.013112

> <i_epik_Tot_Q>
1

> <i_epik_Tot_abs_Q>
1

> <r_epik_Metal_State_Penalty>
0.0102536

> <b_epik_Metal_Only>
0

> <s_lp_Force_Field>
OPLS_2005

> <r_lp_Energy>
96.6143

> <b_lp_Chiralities_Consistent>
1

> <s_lp_Variant>
AV-unprocessed.smi:867-1

> <Gold.Version>
5.8.1

> <Gold.Id.Protein>
6NUR|6NUR_protein|mol2

> <Gold.PLP.Fitness>
50.4986

> <Gold.PLP.PLP>
-39.8671

> <Gold.PLP.part.hbond>
-1.0000

> <Gold.PLP.part.metal>
0.0000

> <Gold.PLP.part.buried>
-2.2725

> <Gold.PLP.part.nonpolar>
-36.3386

> <Gold.PLP.part.repulsive>
0.4114

> <Gold.PLP.ligand.clash>
0.0000

> <Gold.PLP.ligand.torsion>
0.4670

> <Gold.PLP.Chemscore.Hbond>
2.0000

> <Gold.PLP.Chemscore.CHOScore>
1.8165

> <Gold.PLP.Chemscore.Metal>
0.0000

> <Gold.Chemscore.Hbonds>
donor molecule, donor type, donor heavy atom, donor atom, acceptor molecule, acceptor atom, score
      L1  H    15    53       P1  8028  2.00
      L1  C     9    32       P1 10186  0.43
      L1  C    11    33       P1  7948  1.00

> <Gold.PLP.Chemscore.Internal.Correction>
0.1161

> <Gold.Rescore>
     Score         DG    S(hbond)    S(metal)    S(lipo)     H(rot)  DE(clash)    DE(int)     intcor
     19.31     -19.71       0.99        0.00     123.39       1.37       0.18       0.22       ----

> <Gold.Chemscore.Fitness>
19.3072

> <Gold.Chemscore.DG>
-19.7104

> <Gold.Chemscore.ZeroCoef>
-5.4800

> <Gold.Chemscore.Hbond>
0.9907

> <Gold.Chemscore.Metal>
0.0000

> <Gold.Chemscore.Lipo>
123.3905

> <Gold.Chemscore.Internal_Hbond>
0.0000

> <Gold.Chemscore.DEClash>
0.1822

> <Gold.Chemscore.DEInternal>
0.2210

> <Gold.Chemscore.Rot>
1.3731

> <Gold.Chemscore.Internal.Correction>
   9.000000E+99

> <Gold.Chemscore.Hbonds>
donor molecule, donor type, donor heavy atom, donor atom, acceptor molecule, acceptor atom, score
      L1  H    15    53       P1  8028  0.98

> <Gold.Chemscore.Hbond.Weighted>
-3.3089

> <Gold.Chemscore.Metal.Weighted>
-0.0000

> <Gold.Chemscore.Lipo.Weighted>
-14.4367

> <Gold.Chemscore.Internal_Hbond.Weighted>
0.0000

> <Gold.Chemscore.DEClash.Weighted>
0.1822

> <Gold.Chemscore.DEInternal.Weighted>
0.2210

> <Gold.Chemscore.Rot.Weighted>
3.5152

> <Gold.Chemscore.Internal.Correction.Weighted>
   9.000000E+99

> <Gold.Protein.RotatedTorsions>
[ 6907 6896 6895 6894 ] final  -56.16 input  -60.11 | X-H torsion
[ 7974 7965 7964 7962 ] final   39.15 input  175.53 | X-H torsion
[ 8008 7997 7996 7995 ] final   22.66 input   59.86 | X-H torsion
[ 10167 10162 10161 10158 ] final   67.94 input  -65.29 | X-H torsion
[ 10718 10713 10712 10709 ] final  169.57 input   66.30 | X-H torsion
[ 10763 10752 10751 10750 ] final  -79.98 input  -60.55 | X-H torsion
[ 11005 11000 10999 10996 ] final   88.25 input  -57.11 | X-H torsion

> <Gold.Protein.ActiveResidues>
 VAL166  LYS551  ARG553  GLY616  TRP617  ASP618  TYR619  PRO620  LYS621  CYS622 
 ASP623  PHE694  ASN695  SER759  ASP760  ASP761  ALA762  ILE779  LEU786  VAL792 
 PHE793  MET794  SER795  GLU796  ALA797  LYS798  CYS799  TRP800  GLU811  SER814 

> <Gold.Protein.RotatedAtoms>
  150.8191  134.7389  159.6755 H   0  0  0  0  0  0  0  0  0  0  0  0  # atno 6907 bound_to 6896
  152.4308  134.5779  159.9949 H   0  0  0  0  0  0  0  0  0  0  0  0  # atno 6908 bound_to 6896
  151.5967  133.3323  159.3075 H   0  0  0  0  0  0  0  0  0  0  0  0  # atno 6909 bound_to 6896
  146.1007  139.5686  142.9416 H   0  0  0  0  0  0  0  0  0  0  0  0  # atno 7974 bound_to 7965
  154.9691  140.3088  155.4996 H   0  0  0  0  0  0  0  0  0  0  0  0  # atno 8008 bound_to 7997
  156.2968  140.2287  156.4722 H   0  0  0  0  0  0  0  0  0  0  0  0  # atno 8009 bound_to 7997
  154.7893  140.0441  157.1177 H   0  0  0  0  0  0  0  0  0  0  0  0  # atno 8010 bound_to 7997
  140.0841  144.5046  150.7142 H   0  0  0  0  0  0  0  0  0  0  0  0  # atno 10167 bound_to 10162
  157.0207  131.0231  151.2775 H   0  0  0  0  0  0  0  0  0  0  0  0  # atno 10718 bound_to 10713
  154.5455  135.5677  153.6876 H   0  0  0  0  0  0  0  0  0  0  0  0  # atno 10763 bound_to 10752
  152.9975  135.6238  154.2444 H   0  0  0  0  0  0  0  0  0  0  0  0  # atno 10764 bound_to 10752
  154.2377  135.2863  155.2845 H   0  0  0  0  0  0  0  0  0  0  0  0  # atno 10765 bound_to 10752
  139.8901  134.8475  156.2973 H   0  0  0  0  0  0  0  0  0  0  0  0  # atno 11005 bound_to 11000
  145.5861  141.0376  143.2096 LP  0  0  0  0  0  0  0  0  0  0  0  0  # atno 17320 bound_to 7965
  144.7430  139.7396  143.7303 LP  0  0  0  0  0  0  0  0  0  0  0  0  # atno 17321 bound_to 7965
  140.7063  143.2470  151.4717 LP  0  0  0  0  0  0  0  0  0  0  0  0  # atno 17342 bound_to 10162
  139.5763  144.1812  152.1907 LP  0  0  0  0  0  0  0  0  0  0  0  0  # atno 17343 bound_to 10162
  157.5251  130.8023  149.7853 LP  0  0  0  0  0  0  0  0  0  0  0  0  # atno 17370 bound_to 10713
  156.0103  130.3836  150.2287 LP  0  0  0  0  0  0  0  0  0  0  0  0  # atno 17371 bound_to 10713
  140.9936  133.7193  156.0852 LP  0  0  0  0  0  0  0  0  0  0  0  0  # atno 17394 bound_to 11000
  140.7592  134.3958  157.5528 LP  0  0  0  0  0  0  0  0  0  0  0  0  # atno 17395 bound_to 11000

$$$$
