AV-unprocessed.smi:3145|AV-procd|sdf|11980|dock9
  -GOLD-   2272017383D 1   1.00000     0.00000
 Structure written by MMmdl.
 35 35  0  0  0  0  0  0  0  0  2 V2000
  145.4611  135.7433  151.9630 C   0  0  0  0  0  0  0  0  0  0  0  0
  146.1376  134.7009  152.8637 C   0  0  1  0  0  0  0  0  0  0  0  0
  146.7127  133.5440  152.0190 C   0  0  0  0  0  0  0  0  0  0  0  0
  145.7280  132.9377  151.1412 N   0  0  0  0  0  0  0  0  0  0  0  0
  145.9321  132.0434  150.1116 C   0  0  0  0  0  0  0  0  0  0  0  0
  144.7108  131.7656  149.5678 C   0  0  0  0  0  0  0  0  0  0  0  0
  143.8084  132.5447  150.3446 C   0  0  0  0  0  0  0  0  0  0  0  0
  144.4207  133.2465  151.2849 N   0  0  0  0  0  0  0  0  0  0  0  0
  147.1954  135.3581  153.6648 N   0  3  0  0  0  0  0  0  0  0  0  0
  147.9891  134.4519  154.5226 C   0  0  0  0  0  0  0  0  0  0  0  0
  149.0649  135.2077  155.3023 C   0  0  0  0  0  0  0  0  0  0  0  0
  149.3185  134.9064  156.4690 O   0  0  0  0  0  0  0  0  0  0  0  0
  149.7035  136.1826  154.6397 N   0  0  0  0  0  0  0  0  0  0  0  0
  150.7610  137.0073  155.2084 C   0  0  0  0  0  0  0  0  0  0  0  0
  151.1829  138.0998  154.2202 C   0  0  0  0  0  0  0  0  0  0  0  0
  152.3501  138.8640  154.6857 C   0  0  0  0  0  0  0  0  0  0  0  0
  153.2680  139.4652  155.0518 N   0  0  0  0  0  0  0  0  0  0  0  0
  144.6571  135.2949  151.3785 H   0  0  0  0  0  0  0  0  0  0  0  0
  146.1715  136.1865  151.2640 H   0  0  0  0  0  0  0  0  0  0  0  0
  145.0255  136.5507  152.5528 H   0  0  0  0  0  0  0  0  0  0  0  0
  145.3720  134.3063  153.5342 H   0  0  0  0  0  0  0  0  0  0  0  0
  147.5304  133.9086  151.3959 H   0  0  0  0  0  0  0  0  0  0  0  0
  147.1380  132.7725  152.6636 H   0  0  0  0  0  0  0  0  0  0  0  0
  146.9178  131.6850  149.8527 H   0  0  0  0  0  0  0  0  0  0  0  0
  144.4943  131.1038  148.7423 H   0  0  0  0  0  0  0  0  0  0  0  0
  142.7348  132.6212  150.2530 H   0  0  0  0  0  0  0  0  0  0  0  0
  147.8190  135.8454  153.0371 H   0  0  0  0  0  0  0  0  0  0  0  0
  147.3266  133.9521  155.2301 H   0  0  0  0  0  0  0  0  0  0  0  0
  148.4587  133.6763  153.9176 H   0  0  0  0  0  0  0  0  0  0  0  0
  149.4403  136.3671  153.6821 H   0  0  0  0  0  0  0  0  0  0  0  0
  150.4139  137.4624  156.1375 H   0  0  0  0  0  0  0  0  0  0  0  0
  151.6164  136.3773  155.4563 H   0  0  0  0  0  0  0  0  0  0  0  0
  151.4339  137.6644  153.2528 H   0  0  0  0  0  0  0  0  0  0  0  0
  150.3669  138.8046  154.0587 H   0  0  0  0  0  0  0  0  0  0  0  0
  146.7602  136.0389  154.2709 H   0  0  0  0  0  0  0  0  0  0  0  0
  1  2  1  0  0  0  0
  1 18  1  0  0  0  0
  1 19  1  0  0  0  0
  1 20  1  0  0  0  0
  2  3  1  0  0  0  0
  2  9  1  0  0  0  0
  2 21  1  0  0  0  0
  3  4  1  0  0  0  0
  3 22  1  0  0  0  0
  3 23  1  0  0  0  0
  4  8  1  0  0  0  0
  4  5  1  0  0  0  0
  5  6  2  0  0  0  0
  5 24  1  0  0  0  0
  6  7  1  0  0  0  0
  6 25  1  0  0  0  0
  7  8  2  0  0  0  0
  7 26  1  0  0  0  0
  9 10  1  0  0  0  0
  9 27  1  0  0  0  0
  9 35  1  0  0  0  0
 10 11  1  0  0  0  0
 10 28  1  0  0  0  0
 10 29  1  0  0  0  0
 11 12  2  0  0  0  0
 11 13  1  0  0  0  0
 13 14  1  0  0  0  0
 13 30  1  0  0  0  0
 14 15  1  0  0  0  0
 14 31  1  0  0  0  0
 14 32  1  0  0  0  0
 15 16  1  0  0  0  0
 15 33  1  0  0  0  0
 15 34  1  0  0  0  0
 16 17  3  0  0  0  0
M  CHG  1   9   1
M  END
> <s_m_source_file>
AV-unprocessed.smi

> <i_m_source_file_index>
3145

> <i_lp_mmshare_version>
43012

> <i_f3d_flags>
0

> <s_epik_input>
bjFbY0hdW2NIXVtjSF1uMVtDSDJdW0NAQEhdKFtDSDNdKVtOSF1bQ0gyXUMoPU8pW05IXVtDSDJdW0NIMl1DI04=

> <s_epik_cmdline>
J2VwaWtfcHl0aG9uJywgJy1waCcsICc3LjAnLCAnLXRuJywgJzgnLCAnLW1hJywgJzIwMCcsICctbWV0YWxfYmluZGluZycsICctaW1hZScsICc8aW5maWxlLm1hZT4nLCAnLW9tYWUnLCAnPG91dGZpbGUubWFlPic=

> <r_lp_tautomer_probability>
1

> <r_epik_Ionization_Penalty>
0.190162

> <r_epik_Ionization_Penalty_Charging>
0.190142

> <r_epik_Ionization_Penalty_Neutral>
2.0165e-05

> <r_epik_State_Penalty>
0.179787

> <r_epik_Charging_Adjusted_Penalty>
0.369929

> <i_epik_Tot_Q>
1

> <i_epik_Tot_abs_Q>
1

> <r_epik_Metal_State_Penalty>
0.191786

> <b_epik_Metal_Only>
0

> <s_lp_Force_Field>
OPLS_2005

> <r_lp_Energy>
4.60732

> <b_lp_Chiralities_Consistent>
1

> <s_lp_Variant>
AV-unprocessed.smi:3145-2

> <Gold.Version>
5.8.1

> <Gold.Id.Protein>
6NUR|6NUR_protein|mol2

> <Gold.PLP.Fitness>
49.6309

> <Gold.PLP.PLP>
-32.4790

> <Gold.PLP.part.hbond>
-3.1155

> <Gold.PLP.part.metal>
0.0000

> <Gold.PLP.part.buried>
-4.0066

> <Gold.PLP.part.nonpolar>
-26.3730

> <Gold.PLP.part.repulsive>
0.1921

> <Gold.PLP.ligand.clash>
0.0000

> <Gold.PLP.ligand.torsion>
0.4567

> <Gold.PLP.Chemscore.Hbond>
4.0000

> <Gold.PLP.Chemscore.CHOScore>
2.0000

> <Gold.PLP.Chemscore.Metal>
0.0000

> <Gold.Chemscore.Hbonds>
donor molecule, donor type, donor heavy atom, donor atom, acceptor molecule, acceptor atom, score
      L1  H     9    27       P1  7948  2.00
      L1  H    13    30       P1  7948  1.00
      P1  H  7997  8010       L1    17  1.00
      L1  C     5    24       P1 10747  1.00
      L1  C     7    26       P1 10186  0.86

> <Gold.PLP.Chemscore.Internal.Correction>
0.0653

> <Gold.Rescore>
     Score         DG    S(hbond)    S(metal)    S(lipo)     H(rot)  DE(clash)    DE(int)     intcor
     12.86     -14.89       2.84        0.00      62.44       2.89       0.19       1.84       ----

> <Gold.Chemscore.Fitness>
12.8562

> <Gold.Chemscore.DG>
-14.8879

> <Gold.Chemscore.ZeroCoef>
-5.4800

> <Gold.Chemscore.Hbond>
2.8439

> <Gold.Chemscore.Metal>
0.0000

> <Gold.Chemscore.Lipo>
62.4438

> <Gold.Chemscore.Internal_Hbond>
0.0000

> <Gold.Chemscore.DEClash>
0.1904

> <Gold.Chemscore.DEInternal>
1.8413

> <Gold.Chemscore.Rot>
2.8894

> <Gold.Chemscore.Internal.Correction>
   9.000000E+99

> <Gold.Chemscore.Hbonds>
donor molecule, donor type, donor heavy atom, donor atom, acceptor molecule, acceptor atom, score
      L1  H     9    27       P1  7948  1.00
      L1  H    13    30       P1  7948  0.78
      P1  H  7997  8010       L1    17  0.95

> <Gold.Chemscore.Hbond.Weighted>
-9.4988

> <Gold.Chemscore.Metal.Weighted>
-0.0000

> <Gold.Chemscore.Lipo.Weighted>
-7.3059

> <Gold.Chemscore.Internal_Hbond.Weighted>
0.0000

> <Gold.Chemscore.DEClash.Weighted>
0.1904

> <Gold.Chemscore.DEInternal.Weighted>
1.8413

> <Gold.Chemscore.Rot.Weighted>
7.3968

> <Gold.Chemscore.Internal.Correction.Weighted>
   9.000000E+99

> <Gold.Protein.RotatedTorsions>
[ 6907 6896 6895 6894 ] final  -34.72 input  -60.11 | X-H torsion
[ 7974 7965 7964 7962 ] final   14.87 input  175.53 | X-H torsion
[ 8008 7997 7996 7995 ] final   86.71 input   59.86 | X-H torsion
[ 10167 10162 10161 10158 ] final   62.94 input  -65.29 | X-H torsion
[ 10718 10713 10712 10709 ] final  143.32 input   66.30 | X-H torsion
[ 10763 10752 10751 10750 ] final  -19.76 input  -60.55 | X-H torsion
[ 11005 11000 10999 10996 ] final   38.43 input  -57.11 | X-H torsion

> <Gold.Protein.ActiveResidues>
 VAL166  LYS551  ARG553  GLY616  TRP617  ASP618  TYR619  PRO620  LYS621  CYS622 
 ASP623  PHE694  ASN695  SER759  ASP760  ASP761  ALA762  ILE779  LEU786  VAL792 
 PHE793  MET794  SER795  GLU796  ALA797  LYS798  CYS799  TRP800  GLU811  SER814 

> <Gold.Protein.RotatedAtoms>
  151.0489  134.9659  159.8200 H   0  0  0  0  0  0  0  0  0  0  0  0  # atno 6907 bound_to 6896
  152.5377  134.2562  159.8928 H   0  0  0  0  0  0  0  0  0  0  0  0  # atno 6908 bound_to 6896
  151.2577  133.4275  159.2648 H   0  0  0  0  0  0  0  0  0  0  0  0  # atno 6909 bound_to 6896
  146.2294  139.8978  142.8544 H   0  0  0  0  0  0  0  0  0  0  0  0  # atno 7974 bound_to 7965
  155.9662  140.3389  155.6535 H   0  0  0  0  0  0  0  0  0  0  0  0  # atno 8008 bound_to 7997
  155.6734  140.0729  157.2530 H   0  0  0  0  0  0  0  0  0  0  0  0  # atno 8009 bound_to 7997
  154.4155  140.1687  156.1891 H   0  0  0  0  0  0  0  0  0  0  0  0  # atno 8010 bound_to 7997
  140.1385  144.4576  150.6824 H   0  0  0  0  0  0  0  0  0  0  0  0  # atno 10167 bound_to 10162
  157.3703  131.0978  151.0834 H   0  0  0  0  0  0  0  0  0  0  0  0  # atno 10718 bound_to 10713
  153.6098  135.6996  153.5351 H   0  0  0  0  0  0  0  0  0  0  0  0  # atno 10763 bound_to 10752
  153.3026  135.4124  155.1266 H   0  0  0  0  0  0  0  0  0  0  0  0  # atno 10764 bound_to 10752
  154.8566  135.3652  154.5636 H   0  0  0  0  0  0  0  0  0  0  0  0  # atno 10765 bound_to 10752
  140.2127  134.3736  155.8041 H   0  0  0  0  0  0  0  0  0  0  0  0  # atno 11005 bound_to 11000
  145.2354  140.9989  143.3967 LP  0  0  0  0  0  0  0  0  0  0  0  0  # atno 17320 bound_to 7965
  144.9496  139.4098  143.6409 LP  0  0  0  0  0  0  0  0  0  0  0  0  # atno 17321 bound_to 7965
  140.6775  143.2311  151.5470 LP  0  0  0  0  0  0  0  0  0  0  0  0  # atno 17342 bound_to 10162
  139.5484  144.2460  152.1485 LP  0  0  0  0  0  0  0  0  0  0  0  0  # atno 17343 bound_to 10162
  157.1941  130.6365  149.5715 LP  0  0  0  0  0  0  0  0  0  0  0  0  # atno 17370 bound_to 10713
  155.9754  130.4712  150.6458 LP  0  0  0  0  0  0  0  0  0  0  0  0  # atno 17371 bound_to 10713
  141.2226  133.7151  156.8444 LP  0  0  0  0  0  0  0  0  0  0  0  0  # atno 17394 bound_to 11000
  140.1934  134.8949  157.3086 LP  0  0  0  0  0  0  0  0  0  0  0  0  # atno 17395 bound_to 11000

$$$$
