AV-unprocessed.smi:2120|AV-procd|sdf|8638|dock10
  -GOLD-   2272011383D 1   1.00000     0.00000
 Structure written by MMmdl.
 45 48  0  0  0  0  0  0  0  0  1 V2000
  152.7458  139.5614  157.0416 O   0  0  0  0  0  0  0  0  0  0  0  0
  151.6653  139.9667  157.4727 C   0  0  0  0  0  0  0  0  0  0  0  0
  151.5220  140.4165  158.7308 N   0  0  0  0  0  0  0  0  0  0  0  0
  152.5844  140.4798  159.7274 C   0  0  0  0  0  0  0  0  0  0  0  0
  153.5738  141.6202  159.4342 C   0  0  0  0  0  0  0  0  0  0  0  0
  152.9584  142.9863  159.6659 C   0  0  0  0  0  0  0  0  0  0  0  0
  152.5152  143.3675  160.9493 C   0  0  0  0  0  0  0  0  0  0  0  0
  151.9475  144.6447  161.1195 C   0  0  0  0  0  0  0  0  0  0  0  0
  151.8494  145.4898  159.9961 C   0  0  0  0  0  0  0  0  0  0  0  0
  152.2712  145.1360  158.7628 N   0  0  0  0  0  0  0  0  0  0  0  0
  152.8130  143.9087  158.6078 C   0  0  0  0  0  0  0  0  0  0  0  0
  150.4262  139.9698  156.5464 C   0  0  0  0  0  0  0  0  0  0  0  0
  149.2594  139.2280  157.2540 C   0  0  0  0  0  0  0  0  0  0  0  0
  147.9902  139.2611  156.3750 C   0  0  1  0  0  0  0  0  0  0  0  0
  147.5704  140.7254  156.1292 C   0  0  0  0  0  0  0  0  0  0  0  0
  148.7139  141.4670  155.4056 C   0  0  2  0  0  0  0  0  0  0  0  0
  149.0008  140.7831  154.0530 C   0  0  0  0  0  0  0  0  0  0  0  0
  149.4158  139.3183  154.3024 C   0  0  2  0  0  0  0  0  0  0  0  0
  148.2755  138.5709  155.0246 C   0  0  0  0  0  0  0  0  0  0  0  0
  150.6894  139.2816  155.1735 C   0  0  0  0  0  0  0  0  0  0  0  0
  149.9845  141.4365  156.2820 C   0  0  0  0  0  0  0  0  0  0  0  0
  150.6073  140.7335  159.0179 H   0  0  0  0  0  0  0  0  0  0  0  0
  152.1230  140.6317  160.7035 H   0  0  0  0  0  0  0  0  0  0  0  0
  153.1034  139.5209  159.7748 H   0  0  0  0  0  0  0  0  0  0  0  0
  154.4568  141.5311  160.0683 H   0  0  0  0  0  0  0  0  0  0  0  0
  153.9268  141.5519  158.4042 H   0  0  0  0  0  0  0  0  0  0  0  0
  152.6060  142.6927  161.7879 H   0  0  0  0  0  0  0  0  0  0  0  0
  151.5957  144.9695  162.0877 H   0  0  0  0  0  0  0  0  0  0  0  0
  151.4199  146.4762  160.0913 H   0  0  0  0  0  0  0  0  0  0  0  0
  153.1389  143.6573  157.6091 H   0  0  0  0  0  0  0  0  0  0  0  0
  149.5373  138.1930  157.4596 H   0  0  0  0  0  0  0  0  0  0  0  0
  149.0427  139.6826  158.2222 H   0  0  0  0  0  0  0  0  0  0  0  0
  147.1832  138.7352  156.8858 H   0  0  0  0  0  0  0  0  0  0  0  0
  146.6581  140.7625  155.5324 H   0  0  0  0  0  0  0  0  0  0  0  0
  147.3403  141.2168  157.0753 H   0  0  0  0  0  0  0  0  0  0  0  0
  148.4200  142.5024  155.2320 H   0  0  0  0  0  0  0  0  0  0  0  0
  148.1170  140.8222  153.4150 H   0  0  0  0  0  0  0  0  0  0  0  0
  149.7900  141.3150  153.5203 H   0  0  0  0  0  0  0  0  0  0  0  0
  149.6173  138.8332  153.3467 H   0  0  0  0  0  0  0  0  0  0  0  0
  148.5482  137.5268  155.1831 H   0  0  0  0  0  0  0  0  0  0  0  0
  147.3769  138.5648  154.4062 H   0  0  0  0  0  0  0  0  0  0  0  0
  151.5050  139.7783  154.6451 H   0  0  0  0  0  0  0  0  0  0  0  0
  150.9966  138.2436  155.3135 H   0  0  0  0  0  0  0  0  0  0  0  0
  149.7867  141.9583  157.2198 H   0  0  0  0  0  0  0  0  0  0  0  0
  150.7856  141.9901  155.7895 H   0  0  0  0  0  0  0  0  0  0  0  0
  1  2  2  0  0  0  0
  2  3  1  0  0  0  0
  2 12  1  0  0  0  0
  3  4  1  0  0  0  0
  3 22  1  0  0  0  0
  4  5  1  0  0  0  0
  4 23  1  0  0  0  0
  4 24  1  0  0  0  0
  5  6  1  0  0  0  0
  5 25  1  0  0  0  0
  5 26  1  0  0  0  0
  6 11  1  0  0  0  0
  6  7  2  0  0  0  0
  7  8  1  0  0  0  0
  7 27  1  0  0  0  0
  8  9  2  0  0  0  0
  8 28  1  0  0  0  0
  9 10  1  0  0  0  0
  9 29  1  0  0  0  0
 10 11  2  0  0  0  0
 11 30  1  0  0  0  0
 12 20  1  0  0  0  0
 12 21  1  0  0  0  0
 12 13  1  0  0  0  0
 13 14  1  0  0  0  0
 13 31  1  0  0  0  0
 13 32  1  0  0  0  0
 14 19  1  0  0  0  0
 14 15  1  0  0  0  0
 14 33  1  0  0  0  0
 15 16  1  0  0  0  0
 15 34  1  0  0  0  0
 15 35  1  0  0  0  0
 16 17  1  0  0  0  0
 16 21  1  0  0  0  0
 16 36  1  0  0  0  0
 17 18  1  0  0  0  0
 17 37  1  0  0  0  0
 17 38  1  0  0  0  0
 18 19  1  0  0  0  0
 18 20  1  0  0  0  0
 18 39  1  0  0  0  0
 19 40  1  0  0  0  0
 19 41  1  0  0  0  0
 20 42  1  0  0  0  0
 20 43  1  0  0  0  0
 21 44  1  0  0  0  0
 21 45  1  0  0  0  0
M  END
> <s_m_source_file>
AV-unprocessed.smi

> <i_m_source_file_index>
2120

> <i_lp_mmshare_version>
43012

> <i_f3d_flags>
0

> <s_epik_input>
W0NIMl0xW0NASF0oW0NIMl0yKVtDSDJdW0NASF0oW0NIMl0zKVtDSDJdW0NAQEhdMVtDSDJdQzIzQyg9TylbTkhdW0NIMl1bQ0gyXWM0W2NIXVtjSF1bY0hdbltjSF00

> <s_epik_cmdline>
J2VwaWtfcHl0aG9uJywgJy1waCcsICc3LjAnLCAnLXRuJywgJzgnLCAnLW1hJywgJzIwMCcsICctbWV0YWxfYmluZGluZycsICctaW1hZScsICc8aW5maWxlLm1hZT4nLCAnLW9tYWUnLCAnPG91dGZpbGUubWFlPic=

> <r_epik_Ionization_Penalty>
0.0137322

> <r_epik_Ionization_Penalty_Charging>
0

> <r_epik_Ionization_Penalty_Neutral>
0.0137322

> <r_epik_State_Penalty>
0.0107033

> <r_epik_Charging_Adjusted_Penalty>
0.0107033

> <i_epik_Tot_Q>
0

> <i_epik_Tot_abs_Q>
0

> <r_epik_Metal_State_Penalty>
0.0104605

> <b_epik_Metal_Only>
0

> <s_lp_Force_Field>
OPLS_2005

> <r_lp_Energy>
34.8386

> <b_lp_Chiralities_Consistent>
1

> <s_lp_Variant>
AV-unprocessed.smi:2120-1

> <Gold.Version>
5.8.1

> <Gold.Id.Protein>
6NUR|6NUR_protein|mol2

> <Gold.PLP.Fitness>
44.3099

> <Gold.PLP.PLP>
-41.7790

> <Gold.PLP.part.hbond>
-1.0000

> <Gold.PLP.part.metal>
0.0000

> <Gold.PLP.part.buried>
-3.0469

> <Gold.PLP.part.nonpolar>
-38.1928

> <Gold.PLP.part.repulsive>
0.2042

> <Gold.PLP.ligand.clash>
0.0000

> <Gold.PLP.ligand.torsion>
0.2384

> <Gold.PLP.Chemscore.Hbond>
1.0000

> <Gold.PLP.Chemscore.CHOScore>
0.0000

> <Gold.PLP.Chemscore.Metal>
0.0000

> <Gold.Chemscore.Hbonds>
donor molecule, donor type, donor heavy atom, donor atom, acceptor molecule, acceptor atom, score
      P1  H  7997  8010       L1     1  1.00

> <Gold.PLP.Chemscore.Internal.Correction>
0.0076

> <Gold.Rescore>
     Score         DG    S(hbond)    S(metal)    S(lipo)     H(rot)  DE(clash)    DE(int)     intcor
     19.53     -20.33       1.00        0.00     127.34       1.32       0.35       0.44       ----

> <Gold.Chemscore.Fitness>
19.5285

> <Gold.Chemscore.DG>
-20.3260

> <Gold.Chemscore.ZeroCoef>
-5.4800

> <Gold.Chemscore.Hbond>
0.9997

> <Gold.Chemscore.Metal>
0.0000

> <Gold.Chemscore.Lipo>
127.3416

> <Gold.Chemscore.Internal_Hbond>
0.0000

> <Gold.Chemscore.DEClash>
0.3545

> <Gold.Chemscore.DEInternal>
0.4430

> <Gold.Chemscore.Rot>
1.3250

> <Gold.Chemscore.Internal.Correction>
   9.000000E+99

> <Gold.Chemscore.Hbonds>
donor molecule, donor type, donor heavy atom, donor atom, acceptor molecule, acceptor atom, score
      P1  H  7997  8010       L1     1  1.00

> <Gold.Chemscore.Hbond.Weighted>
-3.3390

> <Gold.Chemscore.Metal.Weighted>
-0.0000

> <Gold.Chemscore.Lipo.Weighted>
-14.8990

> <Gold.Chemscore.Internal_Hbond.Weighted>
0.0000

> <Gold.Chemscore.DEClash.Weighted>
0.3545

> <Gold.Chemscore.DEInternal.Weighted>
0.4430

> <Gold.Chemscore.Rot.Weighted>
3.3920

> <Gold.Chemscore.Internal.Correction.Weighted>
   9.000000E+99

> <Gold.Protein.RotatedTorsions>
[ 6907 6896 6895 6894 ] final  144.30 input  -60.11 | X-H torsion
[ 7974 7965 7964 7962 ] final  -99.88 input  175.53 | X-H torsion
[ 8008 7997 7996 7995 ] final   68.24 input   59.86 | X-H torsion
[ 10167 10162 10161 10158 ] final  115.36 input  -65.29 | X-H torsion
[ 10718 10713 10712 10709 ] final  121.02 input   66.30 | X-H torsion
[ 10763 10752 10751 10750 ] final  133.40 input  -60.55 | X-H torsion
[ 11005 11000 10999 10996 ] final  -49.35 input  -57.11 | X-H torsion

> <Gold.Protein.ActiveResidues>
 VAL166  LYS551  ARG553  GLY616  TRP617  ASP618  TYR619  PRO620  LYS621  CYS622 
 ASP623  PHE694  ASN695  SER759  ASP760  ASP761  ALA762  ILE779  LEU786  VAL792 
 PHE793  MET794  SER795  GLU796  ALA797  LYS798  CYS799  TRP800  GLU811  SER814 

> <Gold.Protein.RotatedAtoms>
  152.1953  133.4802  159.5029 H   0  0  0  0  0  0  0  0  0  0  0  0  # atno 6907 bound_to 6896
  150.6959  134.1659  159.4203 H   0  0  0  0  0  0  0  0  0  0  0  0  # atno 6908 bound_to 6896
  151.9575  135.0139  160.0596 H   0  0  0  0  0  0  0  0  0  0  0  0  # atno 6909 bound_to 6896
  145.3018  140.9379  143.2819 H   0  0  0  0  0  0  0  0  0  0  0  0  # atno 7974 bound_to 7965
  155.7053  140.3495  155.4950 H   0  0  0  0  0  0  0  0  0  0  0  0  # atno 8008 bound_to 7997
  155.9404  140.1100  157.1082 H   0  0  0  0  0  0  0  0  0  0  0  0  # atno 8009 bound_to 7997
  154.4101  140.1214  156.4906 H   0  0  0  0  0  0  0  0  0  0  0  0  # atno 8010 bound_to 7997
  139.6322  144.7116  151.2408 H   0  0  0  0  0  0  0  0  0  0  0  0  # atno 10167 bound_to 10162
  157.5848  131.1071  150.8116 H   0  0  0  0  0  0  0  0  0  0  0  0  # atno 10718 bound_to 10713
  153.8064  135.3135  155.3396 H   0  0  0  0  0  0  0  0  0  0  0  0  # atno 10763 bound_to 10752
  154.8068  135.4692  154.0417 H   0  0  0  0  0  0  0  0  0  0  0  0  # atno 10764 bound_to 10752
  153.1781  135.6889  153.8603 H   0  0  0  0  0  0  0  0  0  0  0  0  # atno 10765 bound_to 10752
  141.0754  133.6667  156.3574 H   0  0  0  0  0  0  0  0  0  0  0  0  # atno 11005 bound_to 11000
  144.9087  139.4556  143.6597 LP  0  0  0  0  0  0  0  0  0  0  0  0  # atno 17320 bound_to 7965
  146.3149  139.7883  142.8991 LP  0  0  0  0  0  0  0  0  0  0  0  0  # atno 17321 bound_to 7965
  140.7446  143.6459  150.8292 LP  0  0  0  0  0  0  0  0  0  0  0  0  # atno 17342 bound_to 10162
  140.0085  143.5667  152.2848 LP  0  0  0  0  0  0  0  0  0  0  0  0  # atno 17343 bound_to 10162
  156.8553  130.5094  149.5308 LP  0  0  0  0  0  0  0  0  0  0  0  0  # atno 17370 bound_to 10713
  156.0896  130.5885  150.9710 LP  0  0  0  0  0  0  0  0  0  0  0  0  # atno 17371 bound_to 10713
  140.5584  134.5959  157.5427 LP  0  0  0  0  0  0  0  0  0  0  0  0  # atno 17394 bound_to 11000
  139.9567  134.7523  156.0327 LP  0  0  0  0  0  0  0  0  0  0  0  0  # atno 17395 bound_to 11000

$$$$
