AV-unprocessed.smi:76|AV-procd|sdf|768|dock5
  -GOLD-   2262017113D 1   1.00000     0.00000
 Structure written by MMmdl.
 55 58  0  0  0  0  0  0  0  0  1 V2000
  152.9135  139.1062  158.3183 C   0  0  0  0  0  0  0  0  0  0  0  0
  151.8515  140.2238  158.2572 C   0  0  1  0  0  0  0  0  0  0  0  0
  152.3933  141.4982  158.9385 C   0  0  0  0  0  0  0  0  0  0  0  0
  151.3801  142.6585  158.8827 C   0  0  1  0  0  0  0  0  0  0  0  0
  151.9132  143.9344  159.5648 C   0  0  0  0  0  0  0  0  0  0  0  0
  152.7781  144.5708  158.7742 F   0  0  0  0  0  0  0  0  0  0  0  0
  150.9018  144.7555  159.8466 F   0  0  0  0  0  0  0  0  0  0  0  0
  152.5241  143.6195  160.7069 F   0  0  0  0  0  0  0  0  0  0  0  0
  150.9838  142.9042  157.4151 C   0  0  0  0  0  0  0  0  0  0  0  0
  150.4543  141.6171  156.7674 C   0  0  0  0  0  0  0  0  0  0  0  0
  151.4237  140.5299  156.8846 N   0  0  0  0  0  0  0  0  0  0  0  0
  151.0516  139.4685  156.1351 C   0  0  0  0  0  0  0  0  0  0  0  0
  151.1450  139.5989  154.7893 N   0  0  0  0  0  0  0  0  0  0  0  0
  150.8047  138.5790  153.9956 C   0  0  0  0  0  0  0  0  0  0  0  0
  150.3514  137.3708  154.3372 N   0  0  0  0  0  0  0  0  0  0  0  0
  150.2424  137.2428  155.6909 C   0  0  0  0  0  0  0  0  0  0  0  0
  150.5727  138.2338  156.6572 C   0  0  0  0  0  0  0  0  0  0  0  0
  150.3444  137.7438  157.9368 N   0  0  0  0  0  0  0  0  0  0  0  0
  149.9082  136.5302  157.7381 C   0  0  0  0  0  0  0  0  0  0  0  0
  149.7974  136.1516  156.4182 N   0  0  0  0  0  0  0  0  0  0  0  0
  149.3455  134.8609  155.9166 C   0  0  0  0  0  0  0  0  0  0  0  0
  150.2292  133.6414  156.3321 C   0  0  0  0  0  0  0  0  0  0  0  0
  151.6208  134.1111  156.8329 C   0  0  0  0  0  0  0  0  0  0  0  0
  152.3808  133.0519  157.3795 O   0  0  0  0  0  0  0  0  0  0  0  0
  149.5278  132.8306  157.4507 C   0  0  0  0  0  0  0  0  0  0  0  0
  148.3004  132.0487  156.9452 C   0  0  0  0  0  0  0  0  0  0  0  0
  148.6699  131.1974  155.8677 O   0  0  0  0  0  0  0  0  0  0  0  0
  149.1813  131.9099  154.7485 C   0  0  0  0  0  0  0  0  0  0  0  0
  150.4610  132.6618  155.1539 C   0  0  0  0  0  0  0  0  0  0  0  0
  153.2453  138.9398  159.3433 H   0  0  0  0  0  0  0  0  0  0  0  0
  153.7910  139.3616  157.7231 H   0  0  0  0  0  0  0  0  0  0  0  0
  152.5274  138.1544  157.9529 H   0  0  0  0  0  0  0  0  0  0  0  0
  150.9774  139.8937  158.8194 H   0  0  0  0  0  0  0  0  0  0  0  0
  152.6449  141.2779  159.9765 H   0  0  0  0  0  0  0  0  0  0  0  0
  153.3229  141.8031  158.4557 H   0  0  0  0  0  0  0  0  0  0  0  0
  150.4850  142.3459  159.4228 H   0  0  0  0  0  0  0  0  0  0  0  0
  150.2228  143.6823  157.3532 H   0  0  0  0  0  0  0  0  0  0  0  0
  151.8453  143.2667  156.8527 H   0  0  0  0  0  0  0  0  0  0  0  0
  149.5180  141.3249  157.2451 H   0  0  0  0  0  0  0  0  0  0  0  0
  150.2299  141.8037  155.7158 H   0  0  0  0  0  0  0  0  0  0  0  0
  150.9114  138.7563  152.9354 H   0  0  0  0  0  0  0  0  0  0  0  0
  149.6470  135.8754  158.5566 H   0  0  0  0  0  0  0  0  0  0  0  0
  148.3190  134.7105  156.2526 H   0  0  0  0  0  0  0  0  0  0  0  0
  149.2777  134.9443  154.8329 H   0  0  0  0  0  0  0  0  0  0  0  0
  152.1971  134.5408  156.0126 H   0  0  0  0  0  0  0  0  0  0  0  0
  151.5254  134.8973  157.5820 H   0  0  0  0  0  0  0  0  0  0  0  0
  153.1972  132.9945  156.9056 H   0  0  0  0  0  0  0  0  0  0  0  0
  150.2322  132.1147  157.8770 H   0  0  0  0  0  0  0  0  0  0  0  0
  149.2319  133.4851  158.2711 H   0  0  0  0  0  0  0  0  0  0  0  0
  147.8995  131.4325  157.7502 H   0  0  0  0  0  0  0  0  0  0  0  0
  147.4958  132.7170  156.6378 H   0  0  0  0  0  0  0  0  0  0  0  0
  149.4076  131.1959  153.9566 H   0  0  0  0  0  0  0  0  0  0  0  0
  148.4239  132.5859  154.3513 H   0  0  0  0  0  0  0  0  0  0  0  0
  150.8892  133.1723  154.2922 H   0  0  0  0  0  0  0  0  0  0  0  0
  151.2031  131.9165  155.4446 H   0  0  0  0  0  0  0  0  0  0  0  0
  1  2  1  0  0  0  0
  1 30  1  0  0  0  0
  1 31  1  0  0  0  0
  1 32  1  0  0  0  0
  2 11  1  0  0  0  0
  2  3  1  0  0  0  0
  2 33  1  0  0  0  0
  3  4  1  0  0  0  0
  3 34  1  0  0  0  0
  3 35  1  0  0  0  0
  4  5  1  0  0  0  0
  4  9  1  0  0  0  0
  4 36  1  0  0  0  0
  5  6  1  0  0  0  0
  5  7  1  0  0  0  0
  5  8  1  0  0  0  0
  9 10  1  0  0  0  0
  9 37  1  0  0  0  0
  9 38  1  0  0  0  0
 10 11  1  0  0  0  0
 10 39  1  0  0  0  0
 10 40  1  0  0  0  0
 11 12  1  0  0  0  0
 12 17  1  0  0  0  0
 12 13  2  0  0  0  0
 13 14  1  0  0  0  0
 14 15  2  0  0  0  0
 14 41  1  0  0  0  0
 15 16  1  0  0  0  0
 16 20  1  0  0  0  0
 16 17  2  0  0  0  0
 17 18  1  0  0  0  0
 18 19  2  0  0  0  0
 19 20  1  0  0  0  0
 19 42  1  0  0  0  0
 20 21  1  0  0  0  0
 21 22  1  0  0  0  0
 21 43  1  0  0  0  0
 21 44  1  0  0  0  0
 22 29  1  0  0  0  0
 22 23  1  0  0  0  0
 22 25  1  0  0  0  0
 23 24  1  0  0  0  0
 23 45  1  0  0  0  0
 23 46  1  0  0  0  0
 24 47  1  0  0  0  0
 25 26  1  0  0  0  0
 25 48  1  0  0  0  0
 25 49  1  0  0  0  0
 26 27  1  0  0  0  0
 26 50  1  0  0  0  0
 26 51  1  0  0  0  0
 27 28  1  0  0  0  0
 28 29  1  0  0  0  0
 28 52  1  0  0  0  0
 28 53  1  0  0  0  0
 29 54  1  0  0  0  0
 29 55  1  0  0  0  0
M  END
> <s_m_source_file>
AV-unprocessed.smi

> <i_m_source_file_index>
76

> <i_lp_mmshare_version>
43012

> <i_f3d_flags>
0

> <s_epik_input>
W0NIM11bQ0BASF0xW0NIMl1bQ0BASF0oQyhGKShGKUYpW0NIMl1bQ0gyXU4xYyhuW2NIXW4yKWMoYzIzKW5bY0hdbjNbQ0gyXUM0KFtDSDJdW09IXSlbQ0gyXVtDSDJdT1tDSDJdW0NIMl00

> <s_epik_cmdline>
J2VwaWtfcHl0aG9uJywgJy1waCcsICc3LjAnLCAnLXRuJywgJzgnLCAnLW1hJywgJzIwMCcsICctbWV0YWxfYmluZGluZycsICctaW1hZScsICc8aW5maWxlLm1hZT4nLCAnLW9tYWUnLCAnPG91dGZpbGUubWFlPic=

> <r_lp_tautomer_probability>
1

> <r_epik_Ionization_Penalty>
0.00244097

> <r_epik_Ionization_Penalty_Charging>
0

> <r_epik_Ionization_Penalty_Neutral>
0.00244097

> <r_epik_State_Penalty>
0.00151846

> <r_epik_Charging_Adjusted_Penalty>
0.00151846

> <i_epik_Tot_Q>
0

> <i_epik_Tot_abs_Q>
0

> <r_epik_Metal_State_Penalty>
-0

> <b_epik_Metal_Only>
0

> <s_lp_Force_Field>
OPLS_2005

> <r_lp_Energy>
36.6064

> <b_lp_Chiralities_Consistent>
1

> <s_lp_Variant>
AV-unprocessed.smi:76-2

> <Gold.Version>
5.8.1

> <Gold.Id.Protein>
6NUR|6NUR_protein|mol2

> <Gold.PLP.Fitness>
45.3395

> <Gold.PLP.PLP>
-41.4928

> <Gold.PLP.part.hbond>
-2.0000

> <Gold.PLP.part.metal>
0.0000

> <Gold.PLP.part.buried>
-6.4759

> <Gold.PLP.part.nonpolar>
-34.7759

> <Gold.PLP.part.repulsive>
0.9968

> <Gold.PLP.ligand.clash>
0.0007

> <Gold.PLP.ligand.torsion>
1.8259

> <Gold.PLP.Chemscore.Hbond>
1.6185

> <Gold.PLP.Chemscore.CHOScore>
0.8097

> <Gold.PLP.Chemscore.Metal>
0.0000

> <Gold.Chemscore.Hbonds>
donor molecule, donor type, donor heavy atom, donor atom, acceptor molecule, acceptor atom, score
      P1  H  6896  6908       L1    24  0.58
      P1  H  7989  7998       L1    13  1.00
      L1  C    14    41       P1  7957  0.82

> <Gold.PLP.Chemscore.Internal.Correction>
0.2146

> <Gold.Rescore>
     Score         DG    S(hbond)    S(metal)    S(lipo)     H(rot)  DE(clash)    DE(int)     intcor
      6.59     -12.20       0.86        0.00      86.91       2.47       0.40       5.21       ----

> <Gold.Chemscore.Fitness>
6.5878

> <Gold.Chemscore.DG>
-12.1960

> <Gold.Chemscore.ZeroCoef>
-5.4800

> <Gold.Chemscore.Hbond>
0.8566

> <Gold.Chemscore.Metal>
0.0000

> <Gold.Chemscore.Lipo>
86.9150

> <Gold.Chemscore.Internal_Hbond>
0.0000

> <Gold.Chemscore.DEClash>
0.3996

> <Gold.Chemscore.DEInternal>
5.2086

> <Gold.Chemscore.Rot>
2.4665

> <Gold.Chemscore.Internal.Correction>
   9.000000E+99

> <Gold.Chemscore.Hbonds>
donor molecule, donor type, donor heavy atom, donor atom, acceptor molecule, acceptor atom, score
      P1  H  6896  6908       L1    24  0.14
      P1  H  7989  7998       L1    13  0.26

> <Gold.Chemscore.Hbond.Weighted>
-2.8611

> <Gold.Chemscore.Metal.Weighted>
-0.0000

> <Gold.Chemscore.Lipo.Weighted>
-10.1691

> <Gold.Chemscore.Internal_Hbond.Weighted>
0.0000

> <Gold.Chemscore.DEClash.Weighted>
0.3996

> <Gold.Chemscore.DEInternal.Weighted>
5.2086

> <Gold.Chemscore.Rot.Weighted>
6.3142

> <Gold.Chemscore.Internal.Correction.Weighted>
   9.000000E+99

> <Gold.Protein.RotatedTorsions>
[ 6907 6896 6895 6894 ] final   29.87 input  -60.11 | X-H torsion
[ 7974 7965 7964 7962 ] final   61.64 input  175.53 | X-H torsion
[ 8008 7997 7996 7995 ] final -169.58 input   59.86 | X-H torsion
[ 10167 10162 10161 10158 ] final   72.47 input  -65.29 | X-H torsion
[ 10718 10713 10712 10709 ] final -126.36 input   66.30 | X-H torsion
[ 10763 10752 10751 10750 ] final   43.49 input  -60.55 | X-H torsion
[ 11005 11000 10999 10996 ] final   35.27 input  -57.11 | X-H torsion

> <Gold.Protein.ActiveResidues>
 VAL166  LYS551  ARG553  GLY616  TRP617  ASP618  TYR619  PRO620  LYS621  CYS622 
 ASP623  PHE694  ASN695  SER759  ASP760  ASP761  ALA762  ILE779  LEU786  VAL792 
 PHE793  MET794  SER795  GLU796  ALA797  LYS798  CYS799  TRP800  GLU811  SER814 

> <Gold.Protein.RotatedAtoms>
  152.0378  134.9729  160.0573 H   0  0  0  0  0  0  0  0  0  0  0  0  # atno 6907 bound_to 6896
  152.1180  133.4332  159.4670 H   0  0  0  0  0  0  0  0  0  0  0  0  # atno 6908 bound_to 6896
  150.6847  134.2488  159.4545 H   0  0  0  0  0  0  0  0  0  0  0  0  # atno 6909 bound_to 6896
  145.8825  139.3453  143.0698 H   0  0  0  0  0  0  0  0  0  0  0  0  # atno 7974 bound_to 7965
  155.9069  140.1050  157.1309 H   0  0  0  0  0  0  0  0  0  0  0  0  # atno 8008 bound_to 7997
  154.4034  140.1282  156.4571 H   0  0  0  0  0  0  0  0  0  0  0  0  # atno 8009 bound_to 7997
  155.7357  140.3467  155.5082 H   0  0  0  0  0  0  0  0  0  0  0  0  # atno 8010 bound_to 7997
  140.0350  144.5435  150.7478 H   0  0  0  0  0  0  0  0  0  0  0  0  # atno 10167 bound_to 10162
  156.1759  130.6699  151.0241 H   0  0  0  0  0  0  0  0  0  0  0  0  # atno 10718 bound_to 10713
  152.9859  135.6099  154.3121 H   0  0  0  0  0  0  0  0  0  0  0  0  # atno 10763 bound_to 10752
  154.2835  135.2776  155.2688 H   0  0  0  0  0  0  0  0  0  0  0  0  # atno 10764 bound_to 10752
  154.5016  135.5865  153.6592 H   0  0  0  0  0  0  0  0  0  0  0  0  # atno 10765 bound_to 10752
  140.2444  134.3377  155.7913 H   0  0  0  0  0  0  0  0  0  0  0  0  # atno 11005 bound_to 11000
  145.9007  140.9245  143.0504 LP  0  0  0  0  0  0  0  0  0  0  0  0  # atno 17320 bound_to 7965
  144.6727  140.1028  143.7459 LP  0  0  0  0  0  0  0  0  0  0  0  0  # atno 17321 bound_to 7965
  140.7285  143.2663  151.4034 LP  0  0  0  0  0  0  0  0  0  0  0  0  # atno 17342 bound_to 10162
  139.6051  144.1214  152.2240 LP  0  0  0  0  0  0  0  0  0  0  0  0  # atno 17343 bound_to 10162
  157.6835  131.0831  150.7306 LP  0  0  0  0  0  0  0  0  0  0  0  0  # atno 17370 bound_to 10713
  156.7364  130.4725  149.5487 LP  0  0  0  0  0  0  0  0  0  0  0  0  # atno 17371 bound_to 10713
  141.2207  133.7317  156.8936 LP  0  0  0  0  0  0  0  0  0  0  0  0  # atno 17394 bound_to 11000
  140.1621  134.9158  157.2728 LP  0  0  0  0  0  0  0  0  0  0  0  0  # atno 17395 bound_to 11000

$$$$
