AV-unprocessed.smi:548|AV-procd|sdf|2890|dock8
  -GOLD-   2262023383D 1   1.00000     0.00000
 Structure written by MMmdl.
 25 25  0  0  0  0  0  0  0  0  3 V2000
  150.1254  140.1758  157.5879 C   0  0  0  0  0  0  0  0  0  0  0  0
  150.5372  140.5104  156.1329 C   0  0  0  0  0  0  0  0  0  0  0  0
  150.8079  142.0317  156.0288 C   0  0  0  0  0  0  0  0  0  0  0  0
  151.8450  139.7428  155.7921 C   0  0  0  0  0  0  0  0  0  0  0  0
  152.5334  139.3075  156.7424 O   0  0  0  0  0  0  0  0  0  0  0  0
  152.1672  139.6415  154.5868 O   0  5  0  0  0  0  0  0  0  0  0  0
  149.4069  140.1077  155.1581 C   0  0  0  0  0  0  0  0  0  0  0  0
  148.1948  140.8414  155.1733 C   0  0  0  0  0  0  0  0  0  0  0  0
  147.1427  140.5027  154.2986 C   0  0  0  0  0  0  0  0  0  0  0  0
  147.3122  139.4252  153.4086 C   0  0  0  0  0  0  0  0  0  0  0  0
  146.3150  139.0350  152.5173 N   0  0  0  0  0  0  0  0  0  0  0  0
  148.4733  138.7397  153.4091 N   0  3  0  0  0  0  0  0  0  0  0  0
  149.5039  139.0338  154.2317 C   0  0  0  0  0  0  0  0  0  0  0  0
  149.8440  139.1276  157.6986 H   0  0  0  0  0  0  0  0  0  0  0  0
  149.2730  140.7713  157.9147 H   0  0  0  0  0  0  0  0  0  0  0  0
  150.9377  140.3761  158.2881 H   0  0  0  0  0  0  0  0  0  0  0  0
  151.0252  142.3357  155.0037 H   0  0  0  0  0  0  0  0  0  0  0  0
  151.6546  142.3295  156.6492 H   0  0  0  0  0  0  0  0  0  0  0  0
  149.9516  142.6188  156.3608 H   0  0  0  0  0  0  0  0  0  0  0  0
  148.0634  141.6682  155.8548 H   0  0  0  0  0  0  0  0  0  0  0  0
  146.2215  141.0667  154.3162 H   0  0  0  0  0  0  0  0  0  0  0  0
  145.4268  139.5140  152.4762 H   0  0  0  0  0  0  0  0  0  0  0  0
  146.4466  138.2598  151.8837 H   0  0  0  0  0  0  0  0  0  0  0  0
  150.3631  138.3909  154.1082 H   0  0  0  0  0  0  0  0  0  0  0  0
  148.5831  137.9612  152.7593 H   0  0  0  0  0  0  0  0  0  0  0  0
  1  2  1  0  0  0  0
  1 14  1  0  0  0  0
  1 15  1  0  0  0  0
  1 16  1  0  0  0  0
  2  3  1  0  0  0  0
  2  4  1  0  0  0  0
  2  7  1  0  0  0  0
  3 17  1  0  0  0  0
  3 18  1  0  0  0  0
  3 19  1  0  0  0  0
  4  5  2  0  0  0  0
  4  6  1  0  0  0  0
  7 13  1  0  0  0  0
  7  8  2  0  0  0  0
  8  9  1  0  0  0  0
  8 20  1  0  0  0  0
  9 10  2  0  0  0  0
  9 21  1  0  0  0  0
 10 11  1  0  0  0  0
 10 12  1  0  0  0  0
 11 22  1  0  0  0  0
 11 23  1  0  0  0  0
 12 13  2  0  0  0  0
 12 25  1  0  0  0  0
 13 24  1  0  0  0  0
M  CHG  1   6  -1
M  CHG  1  12   1
M  END
> <s_m_source_file>
AV-unprocessed.smi

> <i_m_source_file_index>
548

> <i_lp_mmshare_version>
43012

> <i_f3d_flags>
0

> <s_epik_input>
Tz1DKFtPSF0pQyhbQ0gzXSkoW0NIM10pYzFbY0hdW2NIXWMoW05IMl0pbltjSF0x

> <s_epik_cmdline>
J2VwaWtfcHl0aG9uJywgJy1waCcsICc3LjAnLCAnLXRuJywgJzgnLCAnLW1hJywgJzIwMCcsICctbWV0YWxfYmluZGluZycsICctaW1hZScsICc8aW5maWxlLm1hZT4nLCAnLW9tYWUnLCAnPG91dGZpbGUubWFlPic=

> <r_lp_tautomer_probability>
0.999994

> <r_epik_Ionization_Penalty>
0.0472787

> <r_epik_Ionization_Penalty_Charging>
0.0472785

> <r_epik_Ionization_Penalty_Neutral>
2.36651e-07

> <r_epik_State_Penalty>
0.0398874

> <r_epik_Charging_Adjusted_Penalty>
0.0871658

> <i_epik_Tot_Q>
0

> <i_epik_Tot_abs_Q>
2

> <r_epik_Metal_State_Penalty>
2.52256

> <b_epik_Metal_Only>
0

> <s_lp_Force_Field>
OPLS_2005

> <r_lp_Energy>
11.9737

> <b_lp_Chiralities_Consistent>
1

> <s_lp_Variant>
AV-unprocessed.smi:548-1

> <Gold.Version>
5.8.1

> <Gold.Id.Protein>
6NUR|6NUR_protein|mol2

> <Gold.PLP.Fitness>
40.5739

> <Gold.PLP.PLP>
-22.1200

> <Gold.PLP.part.hbond>
-4.9496

> <Gold.PLP.part.metal>
0.0000

> <Gold.PLP.part.buried>
-4.5120

> <Gold.PLP.part.nonpolar>
-14.5114

> <Gold.PLP.part.repulsive>
0.1375

> <Gold.PLP.ligand.clash>
0.0000

> <Gold.PLP.ligand.torsion>
0.9795

> <Gold.PLP.Chemscore.Hbond>
6.8000

> <Gold.PLP.Chemscore.CHOScore>
0.0000

> <Gold.PLP.Chemscore.Metal>
0.0000

> <Gold.Chemscore.Hbonds>
donor molecule, donor type, donor heavy atom, donor atom, acceptor molecule, acceptor atom, score
      L1  H    11    22       P1 10175  2.00
      L1  H    12    25       P1  7948  2.00
      P1  H  7989  7998       L1     6  0.78
      P1  H  7997  8010       L1     5  2.00

> <Gold.PLP.Chemscore.Internal.Correction>
0.0130

> <Gold.Rescore>
     Score         DG    S(hbond)    S(metal)    S(lipo)     H(rot)  DE(clash)    DE(int)     intcor
     15.95     -18.70       3.77        0.00      38.20       1.50       0.07       2.68       ----

> <Gold.Chemscore.Fitness>
15.9466

> <Gold.Chemscore.DG>
-18.7028

> <Gold.Chemscore.ZeroCoef>
-5.4800

> <Gold.Chemscore.Hbond>
3.7676

> <Gold.Chemscore.Metal>
0.0000

> <Gold.Chemscore.Lipo>
38.1951

> <Gold.Chemscore.Internal_Hbond>
0.0000

> <Gold.Chemscore.DEClash>
0.0720

> <Gold.Chemscore.DEInternal>
2.6842

> <Gold.Chemscore.Rot>
1.4961

> <Gold.Chemscore.Internal.Correction>
   9.000000E+99

> <Gold.Chemscore.Hbonds>
donor molecule, donor type, donor heavy atom, donor atom, acceptor molecule, acceptor atom, score
      L1  H    11    22       P1 10175  0.97
      L1  H    12    25       P1  7948  0.99
      P1  H  7989  7998       L1     6  0.75
      P1  H  7997  8010       L1     5  0.68

> <Gold.Chemscore.Hbond.Weighted>
-12.5839

> <Gold.Chemscore.Metal.Weighted>
-0.0000

> <Gold.Chemscore.Lipo.Weighted>
-4.4688

> <Gold.Chemscore.Internal_Hbond.Weighted>
0.0000

> <Gold.Chemscore.DEClash.Weighted>
0.0720

> <Gold.Chemscore.DEInternal.Weighted>
2.6842

> <Gold.Chemscore.Rot.Weighted>
3.8299

> <Gold.Chemscore.Internal.Correction.Weighted>
   9.000000E+99

> <Gold.Protein.RotatedTorsions>
[ 6907 6896 6895 6894 ] final  -48.56 input  -60.11 | X-H torsion
[ 7974 7965 7964 7962 ] final   44.73 input  175.53 | X-H torsion
[ 8008 7997 7996 7995 ] final   61.26 input   59.86 | X-H torsion
[ 10167 10162 10161 10158 ] final -145.25 input  -65.29 | X-H torsion
[ 10718 10713 10712 10709 ] final  -94.15 input   66.30 | X-H torsion
[ 10763 10752 10751 10750 ] final  -22.00 input  -60.55 | X-H torsion
[ 11005 11000 10999 10996 ] final  -79.21 input  -57.11 | X-H torsion

> <Gold.Protein.ActiveResidues>
 VAL166  LYS551  ARG553  GLY616  TRP617  ASP618  TYR619  PRO620  LYS621  CYS622 
 ASP623  PHE694  ASN695  SER759  ASP760  ASP761  ALA762  ILE779  LEU786  VAL792 
 PHE793  MET794  SER795  GLU796  ALA797  LYS798  CYS799  TRP800  GLU811  SER814 

> <Gold.Protein.RotatedAtoms>
  150.8893  134.8295  159.7281 H   0  0  0  0  0  0  0  0  0  0  0  0  # atno 6907 bound_to 6896
  152.4827  134.4673  159.9634 H   0  0  0  0  0  0  0  0  0  0  0  0  # atno 6908 bound_to 6896
  151.4738  133.3524  159.2863 H   0  0  0  0  0  0  0  0  0  0  0  0  # atno 6909 bound_to 6896
  146.0542  139.5042  142.9699 H   0  0  0  0  0  0  0  0  0  0  0  0  # atno 7974 bound_to 7965
  155.5955  140.3493  155.4578 H   0  0  0  0  0  0  0  0  0  0  0  0  # atno 8008 bound_to 7997
  156.0269  140.1266  157.0324 H   0  0  0  0  0  0  0  0  0  0  0  0  # atno 8009 bound_to 7997
  154.4336  140.1051  156.6029 H   0  0  0  0  0  0  0  0  0  0  0  0  # atno 8010 bound_to 7997
  139.7823  143.8083  152.2640 H   0  0  0  0  0  0  0  0  0  0  0  0  # atno 10167 bound_to 10162
  156.0023  130.5056  150.5884 H   0  0  0  0  0  0  0  0  0  0  0  0  # atno 10718 bound_to 10713
  153.6450  135.6983  153.5228 H   0  0  0  0  0  0  0  0  0  0  0  0  # atno 10763 bound_to 10752
  153.2752  135.4202  155.1025 H   0  0  0  0  0  0  0  0  0  0  0  0  # atno 10764 bound_to 10752
  154.8490  135.3588  154.5994 H   0  0  0  0  0  0  0  0  0  0  0  0  # atno 10765 bound_to 10752
  141.1667  133.7096  156.8088 H   0  0  0  0  0  0  0  0  0  0  0  0  # atno 11005 bound_to 11000
  145.6672  141.0226  143.1677 LP  0  0  0  0  0  0  0  0  0  0  0  0  # atno 17320 bound_to 7965
  144.7139  139.8268  143.7405 LP  0  0  0  0  0  0  0  0  0  0  0  0  # atno 17321 bound_to 7965
  139.8149  144.7320  150.9648 LP  0  0  0  0  0  0  0  0  0  0  0  0  # atno 17342 bound_to 10162
  140.7818  143.4214  151.0835 LP  0  0  0  0  0  0  0  0  0  0  0  0  # atno 17343 bound_to 10162
  157.3753  131.0772  151.1523 LP  0  0  0  0  0  0  0  0  0  0  0  0  # atno 17370 bound_to 10713
  157.2263  130.6504  149.5831 LP  0  0  0  0  0  0  0  0  0  0  0  0  # atno 17371 bound_to 10713
  140.2203  134.8762  157.3369 LP  0  0  0  0  0  0  0  0  0  0  0  0  # atno 17394 bound_to 11000
  140.1995  134.4272  155.7670 LP  0  0  0  0  0  0  0  0  0  0  0  0  # atno 17395 bound_to 11000

$$$$
