AV-unprocessed.smi:2750|AV-procd|sdf|10590|dock4
  -GOLD-   2272015 43D 1   1.00000     0.00000
 Structure written by MMmdl.
 25 26  0  0  0  0  0  0  0  0  2 V2000
  152.4195  138.1933  158.8137 O   0  0  0  0  0  0  0  0  0  0  0  0
  153.1079  139.2313  158.7012 C   0  0  0  0  0  0  0  0  0  0  0  0
  154.3482  139.2977  158.8536 O   0  5  0  0  0  0  0  0  0  0  0  0
  152.3656  140.5163  158.3209 C   0  0  0  0  0  0  0  0  0  0  0  0
  151.7186  140.4411  157.0217 N   0  0  0  0  0  0  0  0  0  0  0  0
  150.3903  140.6452  156.7085 C   0  0  0  0  0  0  0  0  0  0  0  0
  150.3480  140.4489  155.3577 C   0  0  0  0  0  0  0  0  0  0  0  0
  149.1753  140.5370  154.4266 C   0  0  0  0  0  0  0  0  0  0  0  0
  147.8725  140.9604  155.1355 C   0  0  1  0  0  0  0  0  0  0  0  0
  147.5006  142.3411  154.8747 N   0  0  0  0  0  0  0  0  0  0  0  0
  146.2970  142.4468  154.2956 C   0  0  0  0  0  0  0  0  0  0  0  0
  145.7424  143.4931  153.9680 O   0  0  0  0  0  0  0  0  0  0  0  0
  145.8068  141.2128  154.1349 N   0  0  0  0  0  0  0  0  0  0  0  0
  146.6413  140.2723  154.5745 C   0  0  0  0  0  0  0  0  0  0  0  0
  146.4686  139.0554  154.5423 O   0  0  0  0  0  0  0  0  0  0  0  0
  151.6329  140.1411  154.9104 N   0  0  0  0  0  0  0  0  0  0  0  0
  152.4460  140.1356  155.9200 N   0  0  0  0  0  0  0  0  0  0  0  0
  151.6061  140.7215  159.0757 H   0  0  0  0  0  0  0  0  0  0  0  0
  153.0546  141.3626  158.3261 H   0  0  0  0  0  0  0  0  0  0  0  0
  149.6353  140.8942  157.4393 H   0  0  0  0  0  0  0  0  0  0  0  0
  149.4013  141.2342  153.6180 H   0  0  0  0  0  0  0  0  0  0  0  0
  149.0223  139.5701  153.9454 H   0  0  0  0  0  0  0  0  0  0  0  0
  147.9368  140.7926  156.2114 H   0  0  0  0  0  0  0  0  0  0  0  0
  148.1000  143.1221  155.0999 H   0  0  0  0  0  0  0  0  0  0  0  0
  144.9100  141.0161  153.7150 H   0  0  0  0  0  0  0  0  0  0  0  0
  1  2  2  0  0  0  0
  2  3  1  0  0  0  0
  2  4  1  0  0  0  0
  4  5  1  0  0  0  0
  4 18  1  0  0  0  0
  4 19  1  0  0  0  0
  5 17  1  0  0  0  0
  5  6  1  0  0  0  0
  6  7  2  0  0  0  0
  6 20  1  0  0  0  0
  7  8  1  0  0  0  0
  7 16  1  0  0  0  0
  8  9  1  0  0  0  0
  8 21  1  0  0  0  0
  8 22  1  0  0  0  0
  9 14  1  0  0  0  0
  9 10  1  0  0  0  0
  9 23  1  0  0  0  0
 10 11  1  0  0  0  0
 10 24  1  0  0  0  0
 11 12  2  0  0  0  0
 11 13  1  0  0  0  0
 13 14  1  0  0  0  0
 13 25  1  0  0  0  0
 14 15  2  0  0  0  0
 16 17  2  0  0  0  0
M  CHG  1   3  -1
M  END
> <s_m_source_file>
AV-unprocessed.smi

> <i_m_source_file_index>
2750

> <i_lp_mmshare_version>
43012

> <i_f3d_flags>
0

> <s_epik_input>
Tz1DKFtPSF0pW0NIMl1uMVtjSF1jKG5uMSlbQ0gyXVtDQEBIXTJbTkhdQyg9TylbTkhdQzI9Tw==

> <s_epik_cmdline>
J2VwaWtfcHl0aG9uJywgJy1waCcsICc3LjAnLCAnLXRuJywgJzgnLCAnLW1hJywgJzIwMCcsICctbWV0YWxfYmluZGluZycsICctaW1hZScsICc8aW5maWxlLm1hZT4nLCAnLW9tYWUnLCAnPG91dGZpbGUubWFlPic=

> <r_lp_tautomer_probability>
1

> <r_epik_Ionization_Penalty>
0.019671

> <r_epik_Ionization_Penalty_Charging>
2.66176e-05

> <r_epik_Ionization_Penalty_Neutral>
0.0196444

> <r_epik_State_Penalty>
0.0155882

> <r_epik_Charging_Adjusted_Penalty>
0.0156148

> <i_epik_Tot_Q>
-1

> <i_epik_Tot_abs_Q>
1

> <r_epik_Metal_State_Penalty>
0.396229

> <b_epik_Metal_Only>
0

> <s_lp_Force_Field>
OPLS_2005

> <r_lp_Energy>
18.3652

> <b_lp_Chiralities_Consistent>
1

> <s_lp_Variant>
AV-unprocessed.smi:2750-2

> <Gold.Version>
5.8.1

> <Gold.Id.Protein>
6NUR|6NUR_protein|mol2

> <Gold.PLP.Fitness>
41.1833

> <Gold.PLP.PLP>
-25.2271

> <Gold.PLP.part.hbond>
-6.0000

> <Gold.PLP.part.metal>
0.0000

> <Gold.PLP.part.buried>
-2.2203

> <Gold.PLP.part.nonpolar>
-16.8329

> <Gold.PLP.part.repulsive>
0.5255

> <Gold.PLP.ligand.clash>
0.0000

> <Gold.PLP.ligand.torsion>
0.5930

> <Gold.PLP.Chemscore.Hbond>
5.7060

> <Gold.PLP.Chemscore.CHOScore>
0.0000

> <Gold.PLP.Chemscore.Metal>
0.0000

> <Gold.Chemscore.Hbonds>
donor molecule, donor type, donor heavy atom, donor atom, acceptor molecule, acceptor atom, score
      L1  H    10    24       P1  8028  1.00
      L1  H    13    25       P1 10175  1.00
      P1  H  7989  7998       L1    16  1.00
      P1  H  7997  8009       L1     3  2.00
      P1  H  7997  8010       L1    17  0.83

> <Gold.PLP.Chemscore.Internal.Correction>
0.0241

> <Gold.Rescore>
     Score         DG    S(hbond)    S(metal)    S(lipo)     H(rot)  DE(clash)    DE(int)     intcor
     13.41     -14.15       3.68        0.00      31.22       2.84       0.09       0.65       ----

> <Gold.Chemscore.Fitness>
13.4131

> <Gold.Chemscore.DG>
-14.1522

> <Gold.Chemscore.ZeroCoef>
-5.4800

> <Gold.Chemscore.Hbond>
3.6762

> <Gold.Chemscore.Metal>
0.0000

> <Gold.Chemscore.Lipo>
31.2168

> <Gold.Chemscore.Internal_Hbond>
0.0000

> <Gold.Chemscore.DEClash>
0.0901

> <Gold.Chemscore.DEInternal>
0.6490

> <Gold.Chemscore.Rot>
2.8354

> <Gold.Chemscore.Internal.Correction>
   9.000000E+99

> <Gold.Chemscore.Hbonds>
donor molecule, donor type, donor heavy atom, donor atom, acceptor molecule, acceptor atom, score
      L1  H    10    24       P1  8028  0.93
      L1  H    13    25       P1 10175  0.74
      P1  H  7989  7998       L1    16  0.32
      P1  H  7997  8009       L1     3  0.85
      P1  H  7997  8010       L1    17  0.77

> <Gold.Chemscore.Hbond.Weighted>
-12.2784

> <Gold.Chemscore.Metal.Weighted>
-0.0000

> <Gold.Chemscore.Lipo.Weighted>
-3.6524

> <Gold.Chemscore.Internal_Hbond.Weighted>
0.0000

> <Gold.Chemscore.DEClash.Weighted>
0.0901

> <Gold.Chemscore.DEInternal.Weighted>
0.6490

> <Gold.Chemscore.Rot.Weighted>
7.2586

> <Gold.Chemscore.Internal.Correction.Weighted>
   9.000000E+99

> <Gold.Protein.RotatedTorsions>
[ 6907 6896 6895 6894 ] final  102.16 input  -60.11 | X-H torsion
[ 7974 7965 7964 7962 ] final -171.70 input  175.53 | X-H torsion
[ 8008 7997 7996 7995 ] final  107.75 input   59.86 | X-H torsion
[ 10167 10162 10161 10158 ] final  -80.29 input  -65.29 | X-H torsion
[ 10718 10713 10712 10709 ] final  140.73 input   66.30 | X-H torsion
[ 10763 10752 10751 10750 ] final  -14.25 input  -60.55 | X-H torsion
[ 11005 11000 10999 10996 ] final   84.44 input  -57.11 | X-H torsion

> <Gold.Protein.ActiveResidues>
 VAL166  LYS551  ARG553  GLY616  TRP617  ASP618  TYR619  PRO620  LYS621  CYS622 
 ASP623  PHE694  ASN695  SER759  ASP760  ASP761  ALA762  ILE779  LEU786  VAL792 
 PHE793  MET794  SER795  GLU796  ALA797  LYS798  CYS799  TRP800  GLU811  SER814 

> <Gold.Protein.RotatedAtoms>
  152.5331  134.0017  159.7897 H   0  0  0  0  0  0  0  0  0  0  0  0  # atno 6907 bound_to 6896
  151.0235  133.5847  159.2676 H   0  0  0  0  0  0  0  0  0  0  0  0  # atno 6908 bound_to 6896
  151.2878  135.0740  159.9246 H   0  0  0  0  0  0  0  0  0  0  0  0  # atno 6909 bound_to 6896
  144.7154  140.1883  143.6351 H   0  0  0  0  0  0  0  0  0  0  0  0  # atno 7974 bound_to 7965
  156.1849  140.3089  155.9219 H   0  0  0  0  0  0  0  0  0  0  0  0  # atno 8008 bound_to 7997
  155.3303  140.0460  157.3059 H   0  0  0  0  0  0  0  0  0  0  0  0  # atno 8009 bound_to 7997
  154.5384  140.2253  155.8692 H   0  0  0  0  0  0  0  0  0  0  0  0  # atno 8010 bound_to 7997
  140.4516  143.2481  151.8480 H   0  0  0  0  0  0  0  0  0  0  0  0  # atno 10167 bound_to 10162
  157.4000  131.1015  151.0561 H   0  0  0  0  0  0  0  0  0  0  0  0  # atno 10718 bound_to 10713
  153.5254  135.7015  153.5710 H   0  0  0  0  0  0  0  0  0  0  0  0  # atno 10763 bound_to 10752
  153.3740  135.3937  155.1809 H   0  0  0  0  0  0  0  0  0  0  0  0  # atno 10764 bound_to 10752
  154.8690  135.3819  154.4747 H   0  0  0  0  0  0  0  0  0  0  0  0  # atno 10765 bound_to 10752
  139.9000  134.8216  156.2446 H   0  0  0  0  0  0  0  0  0  0  0  0  # atno 11005 bound_to 11000
  145.8792  139.2314  143.1615 LP  0  0  0  0  0  0  0  0  0  0  0  0  # atno 17320 bound_to 7965
  146.0011  140.8520  143.0018 LP  0  0  0  0  0  0  0  0  0  0  0  0  # atno 17321 bound_to 7965
  139.4797  144.5113  151.8929 LP  0  0  0  0  0  0  0  0  0  0  0  0  # atno 17342 bound_to 10162
  140.4200  144.2256  150.5887 LP  0  0  0  0  0  0  0  0  0  0  0  0  # atno 17343 bound_to 10162
  157.1564  130.6206  149.5597 LP  0  0  0  0  0  0  0  0  0  0  0  0  # atno 17370 bound_to 10713
  155.9820  130.4832  150.6861 LP  0  0  0  0  0  0  0  0  0  0  0  0  # atno 17371 bound_to 10713
  141.0263  133.7013  156.1353 LP  0  0  0  0  0  0  0  0  0  0  0  0  # atno 17394 bound_to 11000
  140.7161  134.4409  157.5578 LP  0  0  0  0  0  0  0  0  0  0  0  0  # atno 17395 bound_to 11000

$$$$
