AV-unprocessed.smi:2120|AV-procd|sdf|8638|dock6
  -GOLD-   2272011383D 1   1.00000     0.00000
 Structure written by MMmdl.
 45 48  0  0  0  0  0  0  0  0  1 V2000
  149.5136  140.7565  157.8484 O   0  0  0  0  0  0  0  0  0  0  0  0
  149.6257  141.9565  157.5933 C   0  0  0  0  0  0  0  0  0  0  0  0
  148.8983  142.5535  156.6339 N   0  0  0  0  0  0  0  0  0  0  0  0
  147.9152  141.8880  155.7873 C   0  0  0  0  0  0  0  0  0  0  0  0
  148.4626  141.6292  154.3735 C   0  0  0  0  0  0  0  0  0  0  0  0
  147.6890  140.5450  153.6492 C   0  0  0  0  0  0  0  0  0  0  0  0
  147.0427  140.8173  152.4257 C   0  0  0  0  0  0  0  0  0  0  0  0
  146.3332  139.7818  151.7878 C   0  0  0  0  0  0  0  0  0  0  0  0
  146.3023  138.5136  152.4014 C   0  0  0  0  0  0  0  0  0  0  0  0
  146.9180  138.2410  153.5722 N   0  0  0  0  0  0  0  0  0  0  0  0
  147.5950  139.2400  154.1782 C   0  0  0  0  0  0  0  0  0  0  0  0
  150.6271  142.8182  158.3984 C   0  0  0  0  0  0  0  0  0  0  0  0
  151.5023  141.8891  159.2832 C   0  0  0  0  0  0  0  0  0  0  0  0
  152.5492  142.7169  160.0598 C   0  0  1  0  0  0  0  0  0  0  0  0
  153.4642  143.4583  159.0628 C   0  0  0  0  0  0  0  0  0  0  0  0
  152.6078  144.4023  158.1929 C   0  0  2  0  0  0  0  0  0  0  0  0
  151.8930  145.4307  159.0932 C   0  0  0  0  0  0  0  0  0  0  0  0
  150.9827  144.6858  160.0915 C   0  0  2  0  0  0  0  0  0  0  0  0
  151.8337  143.7411  160.9656 C   0  0  0  0  0  0  0  0  0  0  0  0
  149.9292  143.8640  159.3187 C   0  0  0  0  0  0  0  0  0  0  0  0
  151.5603  143.5778  157.4143 C   0  0  0  0  0  0  0  0  0  0  0  0
  149.0416  143.5406  156.4778 H   0  0  0  0  0  0  0  0  0  0  0  0
  147.6479  140.9424  156.2597 H   0  0  0  0  0  0  0  0  0  0  0  0
  147.0017  142.4835  155.7447 H   0  0  0  0  0  0  0  0  0  0  0  0
  148.4171  142.5397  153.7746 H   0  0  0  0  0  0  0  0  0  0  0  0
  149.5155  141.3488  154.4269 H   0  0  0  0  0  0  0  0  0  0  0  0
  147.0875  141.8025  151.9848 H   0  0  0  0  0  0  0  0  0  0  0  0
  145.8248  139.9548  150.8507 H   0  0  0  0  0  0  0  0  0  0  0  0
  145.7680  137.6967  151.9391 H   0  0  0  0  0  0  0  0  0  0  0  0
  148.0747  138.9886  155.1128 H   0  0  0  0  0  0  0  0  0  0  0  0
  150.8772  141.3351  159.9854 H   0  0  0  0  0  0  0  0  0  0  0  0
  152.0108  141.1406  158.6731 H   0  0  0  0  0  0  0  0  0  0  0  0
  153.1527  142.0497  160.6759 H   0  0  0  0  0  0  0  0  0  0  0  0
  154.2268  144.0252  159.5984 H   0  0  0  0  0  0  0  0  0  0  0  0
  153.9961  142.7433  158.4339 H   0  0  0  0  0  0  0  0  0  0  0  0
  153.2522  144.9263  157.4866 H   0  0  0  0  0  0  0  0  0  0  0  0
  152.6246  146.0370  159.6288 H   0  0  0  0  0  0  0  0  0  0  0  0
  151.3051  146.1204  158.4864 H   0  0  0  0  0  0  0  0  0  0  0  0
  150.4780  145.4117  160.7298 H   0  0  0  0  0  0  0  0  0  0  0  0
  151.2032  143.2280  161.6929 H   0  0  0  0  0  0  0  0  0  0  0  0
  152.5641  144.3131  161.5393 H   0  0  0  0  0  0  0  0  0  0  0  0
  149.3043  144.5375  158.7297 H   0  0  0  0  0  0  0  0  0  0  0  0
  149.2671  143.3706  160.0325 H   0  0  0  0  0  0  0  0  0  0  0  0
  152.0734  142.8815  156.7489 H   0  0  0  0  0  0  0  0  0  0  0  0
  150.9756  144.2375  156.7711 H   0  0  0  0  0  0  0  0  0  0  0  0
  1  2  2  0  0  0  0
  2  3  1  0  0  0  0
  2 12  1  0  0  0  0
  3  4  1  0  0  0  0
  3 22  1  0  0  0  0
  4  5  1  0  0  0  0
  4 23  1  0  0  0  0
  4 24  1  0  0  0  0
  5  6  1  0  0  0  0
  5 25  1  0  0  0  0
  5 26  1  0  0  0  0
  6 11  1  0  0  0  0
  6  7  2  0  0  0  0
  7  8  1  0  0  0  0
  7 27  1  0  0  0  0
  8  9  2  0  0  0  0
  8 28  1  0  0  0  0
  9 10  1  0  0  0  0
  9 29  1  0  0  0  0
 10 11  2  0  0  0  0
 11 30  1  0  0  0  0
 12 20  1  0  0  0  0
 12 21  1  0  0  0  0
 12 13  1  0  0  0  0
 13 14  1  0  0  0  0
 13 31  1  0  0  0  0
 13 32  1  0  0  0  0
 14 19  1  0  0  0  0
 14 15  1  0  0  0  0
 14 33  1  0  0  0  0
 15 16  1  0  0  0  0
 15 34  1  0  0  0  0
 15 35  1  0  0  0  0
 16 17  1  0  0  0  0
 16 21  1  0  0  0  0
 16 36  1  0  0  0  0
 17 18  1  0  0  0  0
 17 37  1  0  0  0  0
 17 38  1  0  0  0  0
 18 19  1  0  0  0  0
 18 20  1  0  0  0  0
 18 39  1  0  0  0  0
 19 40  1  0  0  0  0
 19 41  1  0  0  0  0
 20 42  1  0  0  0  0
 20 43  1  0  0  0  0
 21 44  1  0  0  0  0
 21 45  1  0  0  0  0
M  END
> <s_m_source_file>
AV-unprocessed.smi

> <i_m_source_file_index>
2120

> <i_lp_mmshare_version>
43012

> <i_f3d_flags>
0

> <s_epik_input>
W0NIMl0xW0NASF0oW0NIMl0yKVtDSDJdW0NASF0oW0NIMl0zKVtDSDJdW0NAQEhdMVtDSDJdQzIzQyg9TylbTkhdW0NIMl1bQ0gyXWM0W2NIXVtjSF1bY0hdbltjSF00

> <s_epik_cmdline>
J2VwaWtfcHl0aG9uJywgJy1waCcsICc3LjAnLCAnLXRuJywgJzgnLCAnLW1hJywgJzIwMCcsICctbWV0YWxfYmluZGluZycsICctaW1hZScsICc8aW5maWxlLm1hZT4nLCAnLW9tYWUnLCAnPG91dGZpbGUubWFlPic=

> <r_epik_Ionization_Penalty>
0.0137322

> <r_epik_Ionization_Penalty_Charging>
0

> <r_epik_Ionization_Penalty_Neutral>
0.0137322

> <r_epik_State_Penalty>
0.0107033

> <r_epik_Charging_Adjusted_Penalty>
0.0107033

> <i_epik_Tot_Q>
0

> <i_epik_Tot_abs_Q>
0

> <r_epik_Metal_State_Penalty>
0.0104605

> <b_epik_Metal_Only>
0

> <s_lp_Force_Field>
OPLS_2005

> <r_lp_Energy>
34.8386

> <b_lp_Chiralities_Consistent>
1

> <s_lp_Variant>
AV-unprocessed.smi:2120-1

> <Gold.Version>
5.8.1

> <Gold.Id.Protein>
6NUR|6NUR_protein|mol2

> <Gold.PLP.Fitness>
45.5897

> <Gold.PLP.PLP>
-43.3746

> <Gold.PLP.part.hbond>
-0.9964

> <Gold.PLP.part.metal>
0.0000

> <Gold.PLP.part.buried>
0.7416

> <Gold.PLP.part.nonpolar>
-43.4388

> <Gold.PLP.part.repulsive>
0.1862

> <Gold.PLP.ligand.clash>
0.0000

> <Gold.PLP.ligand.torsion>
0.3963

> <Gold.PLP.Chemscore.Hbond>
1.0000

> <Gold.PLP.Chemscore.CHOScore>
0.0000

> <Gold.PLP.Chemscore.Metal>
0.0000

> <Gold.Chemscore.Hbonds>
donor molecule, donor type, donor heavy atom, donor atom, acceptor molecule, acceptor atom, score
      L1  H     3    22       P1  8028  0.76

> <Gold.PLP.Chemscore.Internal.Correction>
0.0076

> <Gold.Rescore>
     Score         DG    S(hbond)    S(metal)    S(lipo)     H(rot)  DE(clash)    DE(int)     intcor
     21.69     -23.64       1.00        0.00     155.75       1.32       1.39       0.56       ----

> <Gold.Chemscore.Fitness>
21.6931

> <Gold.Chemscore.DG>
-23.6382

> <Gold.Chemscore.ZeroCoef>
-5.4800

> <Gold.Chemscore.Hbond>
0.9963

> <Gold.Chemscore.Metal>
0.0000

> <Gold.Chemscore.Lipo>
155.7489

> <Gold.Chemscore.Internal_Hbond>
0.0000

> <Gold.Chemscore.DEClash>
1.3897

> <Gold.Chemscore.DEInternal>
0.5554

> <Gold.Chemscore.Rot>
1.3250

> <Gold.Chemscore.Internal.Correction>
   9.000000E+99

> <Gold.Chemscore.Hbonds>
donor molecule, donor type, donor heavy atom, donor atom, acceptor molecule, acceptor atom, score
      L1  H     3    22       P1  8028  0.71

> <Gold.Chemscore.Hbond.Weighted>
-3.3275

> <Gold.Chemscore.Metal.Weighted>
-0.0000

> <Gold.Chemscore.Lipo.Weighted>
-18.2226

> <Gold.Chemscore.Internal_Hbond.Weighted>
0.0000

> <Gold.Chemscore.DEClash.Weighted>
1.3897

> <Gold.Chemscore.DEInternal.Weighted>
0.5554

> <Gold.Chemscore.Rot.Weighted>
3.3920

> <Gold.Chemscore.Internal.Correction.Weighted>
   9.000000E+99

> <Gold.Protein.RotatedTorsions>
[ 6907 6896 6895 6894 ] final  154.72 input  -60.11 | X-H torsion
[ 7974 7965 7964 7962 ] final  -96.09 input  175.53 | X-H torsion
[ 8008 7997 7996 7995 ] final   21.68 input   59.86 | X-H torsion
[ 10167 10162 10161 10158 ] final   61.56 input  -65.29 | X-H torsion
[ 10718 10713 10712 10709 ] final   12.37 input   66.30 | X-H torsion
[ 10763 10752 10751 10750 ] final   26.42 input  -60.55 | X-H torsion
[ 11005 11000 10999 10996 ] final -144.72 input  -57.11 | X-H torsion

> <Gold.Protein.ActiveResidues>
 VAL166  LYS551  ARG553  GLY616  TRP617  ASP618  TYR619  PRO620  LYS621  CYS622 
 ASP623  PHE694  ASN695  SER759  ASP760  ASP761  ALA762  ILE779  LEU786  VAL792 
 PHE793  MET794  SER795  GLU796  ALA797  LYS798  CYS799  TRP800  GLU811  SER814 

> <Gold.Protein.RotatedAtoms>
  152.0545  133.4034  159.4390 H   0  0  0  0  0  0  0  0  0  0  0  0  # atno 6907 bound_to 6896
  150.6868  134.3271  159.4820 H   0  0  0  0  0  0  0  0  0  0  0  0  # atno 6908 bound_to 6896
  152.1084  134.9291  160.0618 H   0  0  0  0  0  0  0  0  0  0  0  0  # atno 6909 bound_to 6896
  145.3514  140.9477  143.2552 H   0  0  0  0  0  0  0  0  0  0  0  0  # atno 7974 bound_to 7965
  154.9542  140.3069  155.5060 H   0  0  0  0  0  0  0  0  0  0  0  0  # atno 8008 bound_to 7997
  156.2984  140.2313  156.4561 H   0  0  0  0  0  0  0  0  0  0  0  0  # atno 8009 bound_to 7997
  154.8025  140.0433  157.1272 H   0  0  0  0  0  0  0  0  0  0  0  0  # atno 8010 bound_to 7997
  140.1535  144.4440  150.6747 H   0  0  0  0  0  0  0  0  0  0  0  0  # atno 10167 bound_to 10162
  157.0091  130.6110  149.5706 H   0  0  0  0  0  0  0  0  0  0  0  0  # atno 10718 bound_to 10713
  153.0624  135.6560  154.0432 H   0  0  0  0  0  0  0  0  0  0  0  0  # atno 10763 bound_to 10752
  154.0097  135.2929  155.3395 H   0  0  0  0  0  0  0  0  0  0  0  0  # atno 10764 bound_to 10752
  154.6968  135.5261  153.8537 H   0  0  0  0  0  0  0  0  0  0  0  0  # atno 10765 bound_to 10752
  140.7995  134.2873  157.4984 H   0  0  0  0  0  0  0  0  0  0  0  0  # atno 11005 bound_to 11000
  144.8714  139.5032  143.6766 LP  0  0  0  0  0  0  0  0  0  0  0  0  # atno 17320 bound_to 7965
  146.2966  139.7297  142.9122 LP  0  0  0  0  0  0  0  0  0  0  0  0  # atno 17321 bound_to 7965
  140.6688  143.2278  151.5677 LP  0  0  0  0  0  0  0  0  0  0  0  0  # atno 17342 bound_to 10162
  139.5415  144.2636  152.1359 LP  0  0  0  0  0  0  0  0  0  0  0  0  # atno 17343 bound_to 10162
  156.0143  130.5236  150.8085 LP  0  0  0  0  0  0  0  0  0  0  0  0  # atno 17370 bound_to 10713
  157.5334  131.0937  150.9925 LP  0  0  0  0  0  0  0  0  0  0  0  0  # atno 17371 bound_to 10713
  139.8723  134.9421  156.3816 LP  0  0  0  0  0  0  0  0  0  0  0  0  # atno 17394 bound_to 11000
  140.9309  133.7580  156.0023 LP  0  0  0  0  0  0  0  0  0  0  0  0  # atno 17395 bound_to 11000

$$$$
