AV-unprocessed.smi:1643|AV-procd|sdf|6580|dock4
  -GOLD-   22720 7263D 1   1.00000     0.00000
 Structure written by MMmdl.
 55 57  0  0  0  0  0  0  0  0  3 V2000
  150.6812  141.1670  156.0409 C   0  0  0  0  0  0  0  0  0  0  0  0
  149.2551  141.2621  156.5902 C   0  0  0  0  0  0  0  0  0  0  0  0
  149.0912  141.1180  157.8018 O   0  0  0  0  0  0  0  0  0  0  0  0
  148.2316  141.5109  155.7366 N   0  0  0  0  0  0  0  0  0  0  0  0
  146.8624  141.7196  156.2321 C   0  0  0  0  0  0  0  0  0  0  0  0
  145.9922  140.4517  156.0926 C   0  0  0  0  0  0  0  0  0  0  0  0
  146.5078  139.3993  155.0869 C   0  0  0  0  0  0  0  0  0  0  0  0
  146.5673  139.8652  153.6741 N   0  3  2  0  0  0  0  0  0  0  0  0
  147.1380  138.8381  152.7613 C   0  0  0  0  0  0  0  0  0  0  0  0
  146.0376  137.9314  152.1826 C   0  0  1  0  0  0  0  0  0  0  0  0
  146.4165  137.4898  150.8932 O   0  0  0  0  0  0  0  0  0  0  0  0
  145.7722  136.7022  153.0741 C   0  0  0  0  0  0  0  0  0  0  0  0
  145.0722  135.6250  152.3616 N   0  0  0  0  0  0  0  0  0  0  0  0
  143.9313  135.6594  151.6199 C   0  0  0  0  0  0  0  0  0  0  0  0
  143.6958  134.3954  151.1707 N   0  3  0  0  0  0  0  0  0  0  0  0
  144.7013  133.5422  151.6302 C   0  0  0  0  0  0  0  0  0  0  0  0
  144.8980  132.1797  151.4394 C   0  0  0  0  0  0  0  0  0  0  0  0
  146.0347  131.6008  152.0481 C   0  0  0  0  0  0  0  0  0  0  0  0
  146.2814  130.1141  151.8567 C   0  0  0  0  0  0  0  0  0  0  0  0
  146.9294  132.3863  152.8205 C   0  0  0  0  0  0  0  0  0  0  0  0
  148.1482  131.7534  153.4701 C   0  0  0  0  0  0  0  0  0  0  0  0
  146.7116  133.7707  153.0025 C   0  0  0  0  0  0  0  0  0  0  0  0
  145.5878  134.3249  152.3947 C   0  0  0  0  0  0  0  0  0  0  0  0
  147.1312  141.2279  153.4442 C   0  0  0  0  0  0  0  0  0  0  0  0
  148.4001  141.5693  154.2706 C   0  0  0  0  0  0  0  0  0  0  0  0
  150.9123  142.0172  155.3987 H   0  0  0  0  0  0  0  0  0  0  0  0
  150.8157  140.2463  155.4733 H   0  0  0  0  0  0  0  0  0  0  0  0
  151.4050  141.1636  156.8566 H   0  0  0  0  0  0  0  0  0  0  0  0
  146.8496  142.0542  157.2707 H   0  0  0  0  0  0  0  0  0  0  0  0
  146.4112  142.5543  155.6964 H   0  0  0  0  0  0  0  0  0  0  0  0
  145.9369  139.9705  157.0699 H   0  0  0  0  0  0  0  0  0  0  0  0
  144.9682  140.7360  155.8478 H   0  0  0  0  0  0  0  0  0  0  0  0
  147.4866  139.0316  155.3995 H   0  0  0  0  0  0  0  0  0  0  0  0
  145.8460  138.5331  155.1223 H   0  0  0  0  0  0  0  0  0  0  0  0
  147.7265  139.2954  151.9640 H   0  0  0  0  0  0  0  0  0  0  0  0
  147.8414  138.2101  153.3105 H   0  0  0  0  0  0  0  0  0  0  0  0
  145.1168  138.5085  152.0871 H   0  0  0  0  0  0  0  0  0  0  0  0
  145.6756  137.5770  150.3124 H   0  0  0  0  0  0  0  0  0  0  0  0
  146.7110  136.2927  153.4498 H   0  0  0  0  0  0  0  0  0  0  0  0
  145.1818  136.9726  153.9504 H   0  0  0  0  0  0  0  0  0  0  0  0
  143.3214  136.5297  151.4251 H   0  0  0  0  0  0  0  0  0  0  0  0
  144.2124  131.5878  150.8504 H   0  0  0  0  0  0  0  0  0  0  0  0
  147.2454  129.9446  151.3764 H   0  0  0  0  0  0  0  0  0  0  0  0
  145.5133  129.6594  151.2305 H   0  0  0  0  0  0  0  0  0  0  0  0
  146.2768  129.5985  152.8173 H   0  0  0  0  0  0  0  0  0  0  0  0
  148.7192  132.4836  154.0443 H   0  0  0  0  0  0  0  0  0  0  0  0
  148.8104  131.3333  152.7127 H   0  0  0  0  0  0  0  0  0  0  0  0
  147.8499  130.9557  154.1511 H   0  0  0  0  0  0  0  0  0  0  0  0
  147.3934  134.3684  153.5890 H   0  0  0  0  0  0  0  0  0  0  0  0
  147.3548  141.3519  152.3840 H   0  0  0  0  0  0  0  0  0  0  0  0
  146.3420  141.9565  153.6249 H   0  0  0  0  0  0  0  0  0  0  0  0
  148.7405  142.5719  154.0088 H   0  0  0  0  0  0  0  0  0  0  0  0
  149.1839  140.8849  153.9460 H   0  0  0  0  0  0  0  0  0  0  0  0
  145.6019  139.9461  153.3874 H   0  0  0  0  0  0  0  0  0  0  0  0
  142.9065  134.1368  150.5921 H   0  0  0  0  0  0  0  0  0  0  0  0
  1  2  1  0  0  0  0
  1 26  1  0  0  0  0
  1 27  1  0  0  0  0
  1 28  1  0  0  0  0
  2  3  2  0  0  0  0
  2  4  1  0  0  0  0
  4 25  1  0  0  0  0
  4  5  1  0  0  0  0
  5  6  1  0  0  0  0
  5 29  1  0  0  0  0
  5 30  1  0  0  0  0
  6  7  1  0  0  0  0
  6 31  1  0  0  0  0
  6 32  1  0  0  0  0
  7  8  1  0  0  0  0
  7 33  1  0  0  0  0
  7 34  1  0  0  0  0
  8  9  1  0  0  0  0
  8 24  1  0  0  0  0
  8 54  1  0  0  0  0
  9 10  1  0  0  0  0
  9 35  1  0  0  0  0
  9 36  1  0  0  0  0
 10 11  1  0  0  0  0
 10 12  1  0  0  0  0
 10 37  1  0  0  0  0
 11 38  1  0  0  0  0
 12 13  1  0  0  0  0
 12 39  1  0  0  0  0
 12 40  1  0  0  0  0
 13 23  1  0  0  0  0
 13 14  1  0  0  0  0
 14 15  2  0  0  0  0
 14 41  1  0  0  0  0
 15 16  1  0  0  0  0
 15 55  1  0  0  0  0
 16 23  2  0  0  0  0
 16 17  1  0  0  0  0
 17 18  2  0  0  0  0
 17 42  1  0  0  0  0
 18 19  1  0  0  0  0
 18 20  1  0  0  0  0
 19 43  1  0  0  0  0
 19 44  1  0  0  0  0
 19 45  1  0  0  0  0
 20 21  1  0  0  0  0
 20 22  2  0  0  0  0
 21 46  1  0  0  0  0
 21 47  1  0  0  0  0
 21 48  1  0  0  0  0
 22 23  1  0  0  0  0
 22 49  1  0  0  0  0
 24 25  1  0  0  0  0
 24 50  1  0  0  0  0
 24 51  1  0  0  0  0
 25 52  1  0  0  0  0
 25 53  1  0  0  0  0
M  CHG  1   8   1
M  CHG  1  15   1
M  END
> <s_m_source_file>
AV-unprocessed.smi

> <i_m_source_file_index>
1643

> <i_lp_mmshare_version>
43012

> <i_f3d_flags>
0

> <s_epik_input>
W0NIM11DKD1PKU4xW0NIMl1bQ0gyXVtDSDJdTihbQ0gyXVtDSDJdMSlbQ0gyXVtDQEhdKFtPSF0pW0NIMl1uKFtjSF1uMiljKGMyMylbY0hdYyhbQ0gzXSljKFtjSF0zKVtDSDNd

> <s_epik_cmdline>
J2VwaWtfcHl0aG9uJywgJy1waCcsICc3LjAnLCAnLXRuJywgJzgnLCAnLW1hJywgJzIwMCcsICctbWV0YWxfYmluZGluZycsICctaW1hZScsICc8aW5maWxlLm1hZT4nLCAnLW9tYWUnLCAnPG91dGZpbGUubWFlPic=

> <r_epik_Ionization_Penalty>
1.2865

> <r_epik_Ionization_Penalty_Charging>
1.2865

> <r_epik_Ionization_Penalty_Neutral>
2.89706e-06

> <r_epik_State_Penalty>
1.3566

> <r_epik_Charging_Adjusted_Penalty>
2.6431

> <i_epik_Tot_Q>
2

> <i_epik_Tot_abs_Q>
2

> <r_epik_Metal_State_Penalty>
5.37339

> <b_epik_Metal_Only>
0

> <s_lp_Force_Field>
OPLS_2005

> <r_lp_Energy>
57.2213

> <b_lp_Chiralities_Consistent>
1

> <s_lp_Variant>
AV-unprocessed.smi:1643-9

> <Gold.Version>
5.8.1

> <Gold.Id.Protein>
6NUR|6NUR_protein|mol2

> <Gold.PLP.Fitness>
61.1561

> <Gold.PLP.PLP>
-42.8881

> <Gold.PLP.part.hbond>
-4.8750

> <Gold.PLP.part.metal>
0.0000

> <Gold.PLP.part.buried>
-3.0919

> <Gold.PLP.part.nonpolar>
-35.5135

> <Gold.PLP.part.repulsive>
0.0467

> <Gold.PLP.ligand.clash>
0.0000

> <Gold.PLP.ligand.torsion>
1.1449

> <Gold.PLP.Chemscore.Hbond>
5.8188

> <Gold.PLP.Chemscore.CHOScore>
1.0000

> <Gold.PLP.Chemscore.Metal>
0.0000

> <Gold.Chemscore.Hbonds>
donor molecule, donor type, donor heavy atom, donor atom, acceptor molecule, acceptor atom, score
      L1  H     8    54       P1 10175  1.20
      L1  H    11    38       P1 10171  0.76
      L1  H    15    55       P1 10186  1.27
      P1  H  7954  7966       L1    11  0.96
      L1  C    14    41       P1 10171  0.67

> <Gold.PLP.Chemscore.Internal.Correction>
0.1014

> <Gold.Rescore>
     Score         DG    S(hbond)    S(metal)    S(lipo)     H(rot)  DE(clash)    DE(int)     intcor
     22.10     -23.39       3.55        0.00      99.26       2.17       0.17       1.12       ----

> <Gold.Chemscore.Fitness>
22.0970

> <Gold.Chemscore.DG>
-23.3909

> <Gold.Chemscore.ZeroCoef>
-5.4800

> <Gold.Chemscore.Hbond>
3.5522

> <Gold.Chemscore.Metal>
0.0000

> <Gold.Chemscore.Lipo>
99.2576

> <Gold.Chemscore.Internal_Hbond>
0.0000

> <Gold.Chemscore.DEClash>
0.1706

> <Gold.Chemscore.DEInternal>
1.1233

> <Gold.Chemscore.Rot>
2.1744

> <Gold.Chemscore.Internal.Correction>
   9.000000E+99

> <Gold.Chemscore.Hbonds>
donor molecule, donor type, donor heavy atom, donor atom, acceptor molecule, acceptor atom, score
      L1  H     8    54       P1 10175  0.60
      L1  H    11    38       P1 10171  0.73
      L1  H    15    55       P1 10186  0.48
      P1  H  7954  7966       L1    11  0.67

> <Gold.Chemscore.Hbond.Weighted>
-11.8644

> <Gold.Chemscore.Metal.Weighted>
-0.0000

> <Gold.Chemscore.Lipo.Weighted>
-11.6131

> <Gold.Chemscore.Internal_Hbond.Weighted>
0.0000

> <Gold.Chemscore.DEClash.Weighted>
0.1706

> <Gold.Chemscore.DEInternal.Weighted>
1.1233

> <Gold.Chemscore.Rot.Weighted>
5.5666

> <Gold.Chemscore.Internal.Correction.Weighted>
   9.000000E+99

> <Gold.Protein.RotatedTorsions>
[ 6907 6896 6895 6894 ] final  -49.03 input  -60.11 | X-H torsion
[ 7974 7965 7964 7962 ] final   86.21 input  175.53 | X-H torsion
[ 8008 7997 7996 7995 ] final  108.91 input   59.86 | X-H torsion
[ 10167 10162 10161 10158 ] final  170.69 input  -65.29 | X-H torsion
[ 10718 10713 10712 10709 ] final -121.65 input   66.30 | X-H torsion
[ 10763 10752 10751 10750 ] final  -90.13 input  -60.55 | X-H torsion
[ 11005 11000 10999 10996 ] final  -15.92 input  -57.11 | X-H torsion

> <Gold.Protein.ActiveResidues>
 VAL166  LYS551  ARG553  GLY616  TRP617  ASP618  TYR619  PRO620  LYS621  CYS622 
 ASP623  PHE694  ASN695  SER759  ASP760  ASP761  ALA762  ILE779  LEU786  VAL792 
 PHE793  MET794  SER795  GLU796  ALA797  LYS798  CYS799  TRP800  GLU811  SER814 

> <Gold.Protein.RotatedAtoms>
  150.8846  134.8241  159.7249 H   0  0  0  0  0  0  0  0  0  0  0  0  # atno 6907 bound_to 6896
  152.4799  134.4743  159.9655 H   0  0  0  0  0  0  0  0  0  0  0  0  # atno 6908 bound_to 6896
  151.4814  133.3507  159.2874 H   0  0  0  0  0  0  0  0  0  0  0  0  # atno 6909 bound_to 6896
  145.5753  139.2318  143.2383 H   0  0  0  0  0  0  0  0  0  0  0  0  # atno 7974 bound_to 7965
  156.1939  140.3067  155.9387 H   0  0  0  0  0  0  0  0  0  0  0  0  # atno 8008 bound_to 7997
  155.3111  140.0451  157.3052 H   0  0  0  0  0  0  0  0  0  0  0  0  # atno 8009 bound_to 7997
  154.5485  140.2284  155.8532 H   0  0  0  0  0  0  0  0  0  0  0  0  # atno 8010 bound_to 7997
  139.5025  144.3569  151.9865 H   0  0  0  0  0  0  0  0  0  0  0  0  # atno 10167 bound_to 10162
  156.1355  130.6427  150.9689 H   0  0  0  0  0  0  0  0  0  0  0  0  # atno 10718 bound_to 10713
  154.6625  135.5316  153.8036 H   0  0  0  0  0  0  0  0  0  0  0  0  # atno 10763 bound_to 10752
  153.0451  135.6509  154.0849 H   0  0  0  0  0  0  0  0  0  0  0  0  # atno 10764 bound_to 10752
  154.0757  135.2951  155.3280 H   0  0  0  0  0  0  0  0  0  0  0  0  # atno 10765 bound_to 10752
  140.8015  133.8210  155.9475 H   0  0  0  0  0  0  0  0  0  0  0  0  # atno 11005 bound_to 11000
  146.1755  140.6579  142.9213 LP  0  0  0  0  0  0  0  0  0  0  0  0  # atno 17320 bound_to 7965
  144.7419  140.4964  143.6863 LP  0  0  0  0  0  0  0  0  0  0  0  0  # atno 17321 bound_to 7965
  140.3005  144.3652  150.6061 LP  0  0  0  0  0  0  0  0  0  0  0  0  # atno 17342 bound_to 10162
  140.5877  143.2169  151.7311 LP  0  0  0  0  0  0  0  0  0  0  0  0  # atno 17343 bound_to 10162
  157.6528  131.0894  150.8014 LP  0  0  0  0  0  0  0  0  0  0  0  0  # atno 17370 bound_to 10713
  156.8094  130.4947  149.5358 LP  0  0  0  0  0  0  0  0  0  0  0  0  # atno 17371 bound_to 10713
  140.9289  134.2047  157.4877 LP  0  0  0  0  0  0  0  0  0  0  0  0  # atno 17394 bound_to 11000
  139.8721  134.9824  156.5157 LP  0  0  0  0  0  0  0  0  0  0  0  0  # atno 17395 bound_to 11000

$$$$
