AV-unprocessed.smi:3273|AV-procd|sdf|12520|dock3
  -GOLD-   2272018433D 1   1.00000     0.00000
 Structure written by MMmdl.
 41 42  0  0  0  0  0  0  0  0  1 V2000
  148.6596  141.2967  154.3076 C   0  0  0  0  0  0  0  0  0  0  0  0
  148.7136  140.7031  155.7276 C   0  0  0  0  0  0  0  0  0  0  0  0
  148.0463  141.6851  156.7119 C   0  0  0  0  0  0  0  0  0  0  0  0
  150.1556  140.3149  156.1615 C   0  0  2  0  0  0  0  0  0  0  0  0
  151.1880  141.4227  155.8496 C   0  0  0  0  0  0  0  0  0  0  0  0
  150.9038  142.6470  156.5911 N   0  0  0  0  0  0  0  0  0  0  0  0
  151.4772  142.9885  157.7533 C   0  0  0  0  0  0  0  0  0  0  0  0
  152.3227  142.2936  158.3179 O   0  0  0  0  0  0  0  0  0  0  0  0
  151.0148  144.3130  158.3672 C   0  0  0  0  0  0  0  0  0  0  0  0
  152.0604  144.9572  159.2624 C   0  0  0  0  0  0  0  0  0  0  0  0
  152.2179  144.5324  160.7049 C   0  0  0  0  0  0  0  0  0  0  0  0
  151.6548  145.8934  160.3794 C   0  0  0  0  0  0  0  0  0  0  0  0
  150.5949  138.9903  155.5918 C   0  0  0  0  0  0  0  0  0  0  0  0
  150.0314  138.2350  154.6001 C   0  0  0  0  0  0  0  0  0  0  0  0
  150.8918  137.1094  154.4860 C   0  0  0  0  0  0  0  0  0  0  0  0
  151.9071  137.1609  155.3298 N   0  0  0  0  0  0  0  0  0  0  0  0
  151.7302  138.3146  156.0083 N   0  0  0  0  0  0  0  0  0  0  0  0
  152.6934  138.6851  157.0277 C   0  0  0  0  0  0  0  0  0  0  0  0
  149.3048  142.1710  154.2179 H   0  0  0  0  0  0  0  0  0  0  0  0
  147.6463  141.6073  154.0518 H   0  0  0  0  0  0  0  0  0  0  0  0
  148.9635  140.5744  153.5509 H   0  0  0  0  0  0  0  0  0  0  0  0
  148.1069  139.7965  155.7282 H   0  0  0  0  0  0  0  0  0  0  0  0
  148.6332  142.5983  156.8157 H   0  0  0  0  0  0  0  0  0  0  0  0
  147.9233  141.2533  157.7050 H   0  0  0  0  0  0  0  0  0  0  0  0
  147.0511  141.9697  156.3692 H   0  0  0  0  0  0  0  0  0  0  0  0
  150.1276  140.2232  157.2474 H   0  0  0  0  0  0  0  0  0  0  0  0
  152.1885  141.0695  156.1064 H   0  0  0  0  0  0  0  0  0  0  0  0
  151.1968  141.6675  154.7879 H   0  0  0  0  0  0  0  0  0  0  0  0
  150.2156  143.2723  156.1974 H   0  0  0  0  0  0  0  0  0  0  0  0
  150.7541  145.0069  157.5665 H   0  0  0  0  0  0  0  0  0  0  0  0
  150.1075  144.1417  158.9472 H   0  0  0  0  0  0  0  0  0  0  0  0
  152.9802  145.2173  158.7412 H   0  0  0  0  0  0  0  0  0  0  0  0
  151.5290  143.7859  161.0952 H   0  0  0  0  0  0  0  0  0  0  0  0
  153.2276  144.4895  161.1080 H   0  0  0  0  0  0  0  0  0  0  0  0
  152.2885  146.7589  160.5615 H   0  0  0  0  0  0  0  0  0  0  0  0
  150.5913  146.0500  160.5499 H   0  0  0  0  0  0  0  0  0  0  0  0
  149.1359  138.4570  154.0388 H   0  0  0  0  0  0  0  0  0  0  0  0
  150.8105  136.2646  153.8181 H   0  0  0  0  0  0  0  0  0  0  0  0
  153.1425  139.6460  156.7756 H   0  0  0  0  0  0  0  0  0  0  0  0
  153.4835  137.9368  157.1029 H   0  0  0  0  0  0  0  0  0  0  0  0
  152.1925  138.7650  157.9926 H   0  0  0  0  0  0  0  0  0  0  0  0
  1  2  1  0  0  0  0
  1 19  1  0  0  0  0
  1 20  1  0  0  0  0
  1 21  1  0  0  0  0
  2  3  1  0  0  0  0
  2  4  1  0  0  0  0
  2 22  1  0  0  0  0
  3 23  1  0  0  0  0
  3 24  1  0  0  0  0
  3 25  1  0  0  0  0
  4  5  1  0  0  0  0
  4 13  1  0  0  0  0
  4 26  1  0  0  0  0
  5  6  1  0  0  0  0
  5 27  1  0  0  0  0
  5 28  1  0  0  0  0
  6  7  1  0  0  0  0
  6 29  1  0  0  0  0
  7  8  2  0  0  0  0
  7  9  1  0  0  0  0
  9 10  1  0  0  0  0
  9 30  1  0  0  0  0
  9 31  1  0  0  0  0
 10 12  1  0  0  0  0
 10 11  1  0  0  0  0
 10 32  1  0  0  0  0
 11 12  1  0  0  0  0
 11 33  1  0  0  0  0
 11 34  1  0  0  0  0
 12 35  1  0  0  0  0
 12 36  1  0  0  0  0
 13 17  1  0  0  0  0
 13 14  2  0  0  0  0
 14 15  1  0  0  0  0
 14 37  1  0  0  0  0
 15 16  2  0  0  0  0
 15 38  1  0  0  0  0
 16 17  1  0  0  0  0
 17 18  1  0  0  0  0
 18 39  1  0  0  0  0
 18 40  1  0  0  0  0
 18 41  1  0  0  0  0
M  END
> <s_m_source_file>
AV-unprocessed.smi

> <i_m_source_file_index>
3273

> <i_lp_mmshare_version>
43012

> <i_f3d_flags>
0

> <s_epik_input>
W0NIM11uMW5bY0hdW2NIXWMxW0NASF0oW0NIXShbQ0gzXSlbQ0gzXSlbQ0gyXVtOSF1DKD1PKVtDSDJdW0NIXTJbQ0gyXVtDSDJdMg==

> <s_epik_cmdline>
J2VwaWtfcHl0aG9uJywgJy1waCcsICc3LjAnLCAnLXRuJywgJzgnLCAnLW1hJywgJzIwMCcsICctbWV0YWxfYmluZGluZycsICctaW1hZScsICc8aW5maWxlLm1hZT4nLCAnLW9tYWUnLCAnPG91dGZpbGUubWFlPic=

> <r_lp_tautomer_probability>
1

> <r_epik_Ionization_Penalty>
0.00116261

> <r_epik_Ionization_Penalty_Charging>
0

> <r_epik_Ionization_Penalty_Neutral>
0.00116261

> <r_epik_State_Penalty>
-0

> <r_epik_Charging_Adjusted_Penalty>
0

> <i_epik_Tot_Q>
0

> <i_epik_Tot_abs_Q>
0

> <r_epik_Metal_State_Penalty>
-0

> <b_epik_Metal_Only>
0

> <s_lp_Force_Field>
OPLS_2005

> <r_lp_Energy>
13.9008

> <b_lp_Chiralities_Consistent>
1

> <s_lp_Variant>
AV-unprocessed.smi:3273-1

> <Gold.Version>
5.8.1

> <Gold.Id.Protein>
6NUR|6NUR_protein|mol2

> <Gold.PLP.Fitness>
40.0178

> <Gold.PLP.PLP>
-33.4796

> <Gold.PLP.part.hbond>
-2.0000

> <Gold.PLP.part.metal>
0.0000

> <Gold.PLP.part.buried>
-1.1908

> <Gold.PLP.part.nonpolar>
-29.7335

> <Gold.PLP.part.repulsive>
0.1338

> <Gold.PLP.ligand.clash>
0.0000

> <Gold.PLP.ligand.torsion>
1.3267

> <Gold.PLP.Chemscore.Hbond>
1.9760

> <Gold.PLP.Chemscore.CHOScore>
0.8472

> <Gold.PLP.Chemscore.Metal>
0.0000

> <Gold.Chemscore.Hbonds>
donor molecule, donor type, donor heavy atom, donor atom, acceptor molecule, acceptor atom, score
      L1  H     6    29       P1  8028  0.99
      P1  H 10752 10764       L1    16  0.98
      L1  C    15    38       P1  7948  0.08
      L1  C    15    38       P1  7949  0.75

> <Gold.PLP.Chemscore.Internal.Correction>
0.7220

> <Gold.Rescore>
     Score         DG    S(hbond)    S(metal)    S(lipo)     H(rot)  DE(clash)    DE(int)     intcor
     15.11     -18.30       1.46        0.00     103.88       1.64       0.86       2.32       ----

> <Gold.Chemscore.Fitness>
15.1113

> <Gold.Chemscore.DG>
-18.2953

> <Gold.Chemscore.ZeroCoef>
-5.4800

> <Gold.Chemscore.Hbond>
1.4573

> <Gold.Chemscore.Metal>
0.0000

> <Gold.Chemscore.Lipo>
103.8805

> <Gold.Chemscore.Internal_Hbond>
0.0000

> <Gold.Chemscore.DEClash>
0.8630

> <Gold.Chemscore.DEInternal>
2.3210

> <Gold.Chemscore.Rot>
1.6430

> <Gold.Chemscore.Internal.Correction>
   9.000000E+99

> <Gold.Chemscore.Hbonds>
donor molecule, donor type, donor heavy atom, donor atom, acceptor molecule, acceptor atom, score
      L1  H     6    29       P1  8028  0.92
      P1  H 10752 10764       L1    16  0.27

> <Gold.Chemscore.Hbond.Weighted>
-4.8674

> <Gold.Chemscore.Metal.Weighted>
-0.0000

> <Gold.Chemscore.Lipo.Weighted>
-12.1540

> <Gold.Chemscore.Internal_Hbond.Weighted>
0.0000

> <Gold.Chemscore.DEClash.Weighted>
0.8630

> <Gold.Chemscore.DEInternal.Weighted>
2.3210

> <Gold.Chemscore.Rot.Weighted>
4.2062

> <Gold.Chemscore.Internal.Correction.Weighted>
   9.000000E+99

> <Gold.Protein.RotatedTorsions>
[ 6907 6896 6895 6894 ] final  -25.21 input  -60.11 | X-H torsion
[ 7974 7965 7964 7962 ] final   97.59 input  175.53 | X-H torsion
[ 8008 7997 7996 7995 ] final  132.40 input   59.86 | X-H torsion
[ 10167 10162 10161 10158 ] final  107.19 input  -65.29 | X-H torsion
[ 10718 10713 10712 10709 ] final  166.37 input   66.30 | X-H torsion
[ 10763 10752 10751 10750 ] final  -52.23 input  -60.55 | X-H torsion
[ 11005 11000 10999 10996 ] final   86.51 input  -57.11 | X-H torsion

> <Gold.Protein.ActiveResidues>
 VAL166  LYS551  ARG553  GLY616  TRP617  ASP618  TYR619  PRO620  LYS621  CYS622 
 ASP623  PHE694  ASN695  SER759  ASP760  ASP761  ALA762  ILE779  LEU786  VAL792 
 PHE793  MET794  SER795  GLU796  ALA797  LYS798  CYS799  TRP800  GLU811  SER814 

> <Gold.Protein.RotatedAtoms>
  151.1785  135.0350  159.8781 H   0  0  0  0  0  0  0  0  0  0  0  0  # atno 6907 bound_to 6896
  152.5446  134.1090  159.8360 H   0  0  0  0  0  0  0  0  0  0  0  0  # atno 6908 bound_to 6896
  151.1204  133.5061  159.2634 H   0  0  0  0  0  0  0  0  0  0  0  0  # atno 6909 bound_to 6896
  145.4234  139.2319  143.3184 H   0  0  0  0  0  0  0  0  0  0  0  0  # atno 7974 bound_to 7965
  156.2982  140.2547  156.3083 H   0  0  0  0  0  0  0  0  0  0  0  0  # atno 8008 bound_to 7997
  154.9351  140.0397  157.2087 H   0  0  0  0  0  0  0  0  0  0  0  0  # atno 8009 bound_to 7997
  154.8180  140.2855  155.5811 H   0  0  0  0  0  0  0  0  0  0  0  0  # atno 8010 bound_to 7997
  139.6947  144.7103  151.1288 H   0  0  0  0  0  0  0  0  0  0  0  0  # atno 10167 bound_to 10162
  157.0668  131.0355  151.2626 H   0  0  0  0  0  0  0  0  0  0  0  0  # atno 10718 bound_to 10713
  154.1393  135.6507  153.4939 H   0  0  0  0  0  0  0  0  0  0  0  0  # atno 10763 bound_to 10752
  153.0171  135.5311  154.6921 H   0  0  0  0  0  0  0  0  0  0  0  0  # atno 10764 bound_to 10752
  154.6178  135.2961  155.0331 H   0  0  0  0  0  0  0  0  0  0  0  0  # atno 10765 bound_to 10752
  139.8943  134.8360  156.2731 H   0  0  0  0  0  0  0  0  0  0  0  0  # atno 11005 bound_to 11000
  146.2645  140.4961  142.8840 LP  0  0  0  0  0  0  0  0  0  0  0  0  # atno 17320 bound_to 7965
  144.8230  140.6582  143.6340 LP  0  0  0  0  0  0  0  0  0  0  0  0  # atno 17321 bound_to 7965
  140.7693  143.5509  150.9206 LP  0  0  0  0  0  0  0  0  0  0  0  0  # atno 17342 bound_to 10162
  139.9188  143.6631  152.3101 LP  0  0  0  0  0  0  0  0  0  0  0  0  # atno 17343 bound_to 10162
  157.4910  130.7822  149.7508 LP  0  0  0  0  0  0  0  0  0  0  0  0  # atno 17370 bound_to 10713
  155.9962  130.3907  150.2788 LP  0  0  0  0  0  0  0  0  0  0  0  0  # atno 17371 bound_to 10713
  141.0088  133.7108  156.1078 LP  0  0  0  0  0  0  0  0  0  0  0  0  # atno 17394 bound_to 11000
  140.7397  134.4164  157.5556 LP  0  0  0  0  0  0  0  0  0  0  0  0  # atno 17395 bound_to 11000

$$$$
