AV-unprocessed.smi:2520|AV-procd|sdf|9907|dock3
  -GOLD-   2272013543D 1   1.00000     0.00000
 Structure written by MMmdl.
 41 44  0  0  0  0  0  0  0  0  1 V2000
  149.2646  136.2086  156.3693 O   0  0  0  0  0  0  0  0  0  0  0  0
  149.0772  136.2355  155.1545 C   0  0  0  0  0  0  0  0  0  0  0  0
  149.2227  135.1235  154.4033 N   0  0  0  0  0  0  0  0  0  0  0  0
  149.5860  133.7904  154.7548 C   0  0  0  0  0  0  0  0  0  0  0  0
  149.2538  132.8134  153.7918 C   0  0  0  0  0  0  0  0  0  0  0  0
  149.5705  131.4712  154.0620 C   0  0  0  0  0  0  0  0  0  0  0  0
  150.1998  131.1927  155.2871 C   0  0  0  0  0  0  0  0  0  0  0  0
  150.4965  132.1575  156.1840 N   0  0  0  0  0  0  0  0  0  0  0  0
  150.1914  133.4320  155.9187 N   0  0  0  0  0  0  0  0  0  0  0  0
  148.7189  137.3510  154.5004 N   0  0  0  0  0  0  0  0  0  0  0  0
  148.5703  138.6674  155.1076 C   0  0  2  0  0  0  0  0  0  0  0  0
  148.1149  139.7239  154.1015 C   0  0  1  0  0  0  0  0  0  0  0  0
  146.8726  140.5211  153.9215 C   0  0  0  0  0  0  0  0  0  0  0  0
  147.5356  141.9080  153.7110 C   0  0  0  0  0  0  0  0  0  0  0  0
  148.9307  141.7387  154.0598 O   0  0  0  0  0  0  0  0  0  0  0  0
  148.9263  140.6605  154.9738 C   0  0  2  0  0  0  0  0  0  0  0  0
  149.9129  139.4913  155.1703 C   0  0  0  0  0  0  0  0  0  0  0  0
  150.6832  139.4483  156.4972 C   0  0  0  0  0  0  0  0  0  0  0  0
  152.1728  139.2839  156.1895 C   0  0  0  0  0  0  0  0  0  0  0  0
  152.2111  138.6623  154.8012 C   0  0  0  0  0  0  0  0  0  0  0  0
  151.0030  139.2748  154.0995 C   0  0  0  0  0  0  0  0  0  0  0  0
  148.9981  135.2488  153.4270 H   0  0  0  0  0  0  0  0  0  0  0  0
  148.7680  133.0831  152.8654 H   0  0  0  0  0  0  0  0  0  0  0  0
  149.3397  130.6858  153.3579 H   0  0  0  0  0  0  0  0  0  0  0  0
  150.4685  130.1812  155.5532 H   0  0  0  0  0  0  0  0  0  0  0  0
  148.5785  137.2897  153.5018 H   0  0  0  0  0  0  0  0  0  0  0  0
  147.9913  138.6722  156.0359 H   0  0  0  0  0  0  0  0  0  0  0  0
  148.5819  139.5492  153.1272 H   0  0  0  0  0  0  0  0  0  0  0  0
  146.2840  140.2016  153.0613 H   0  0  0  0  0  0  0  0  0  0  0  0
  146.2431  140.5006  154.8122 H   0  0  0  0  0  0  0  0  0  0  0  0
  147.4589  142.2426  152.6761 H   0  0  0  0  0  0  0  0  0  0  0  0
  147.0714  142.6627  154.3468 H   0  0  0  0  0  0  0  0  0  0  0  0
  148.4273  140.9458  155.9071 H   0  0  0  0  0  0  0  0  0  0  0  0
  150.5135  140.3416  157.0993 H   0  0  0  0  0  0  0  0  0  0  0  0
  150.3464  138.6040  157.0990 H   0  0  0  0  0  0  0  0  0  0  0  0
  152.6490  140.2648  156.1611 H   0  0  0  0  0  0  0  0  0  0  0  0
  152.6935  138.6829  156.9356 H   0  0  0  0  0  0  0  0  0  0  0  0
  153.1480  138.8520  154.2770 H   0  0  0  0  0  0  0  0  0  0  0  0
  152.0806  137.5822  154.8788 H   0  0  0  0  0  0  0  0  0  0  0  0
  150.6830  138.6459  153.2685 H   0  0  0  0  0  0  0  0  0  0  0  0
  151.2902  140.2344  153.6678 H   0  0  0  0  0  0  0  0  0  0  0  0
  1  2  2  0  0  0  0
  2  3  1  0  0  0  0
  2 10  1  0  0  0  0
  3  4  1  0  0  0  0
  3 22  1  0  0  0  0
  4  9  1  0  0  0  0
  4  5  2  0  0  0  0
  5  6  1  0  0  0  0
  5 23  1  0  0  0  0
  6  7  2  0  0  0  0
  6 24  1  0  0  0  0
  7  8  1  0  0  0  0
  7 25  1  0  0  0  0
  8  9  2  0  0  0  0
 10 11  1  0  0  0  0
 10 26  1  0  0  0  0
 11 17  1  0  0  0  0
 11 12  1  0  0  0  0
 11 27  1  0  0  0  0
 12 16  1  0  0  0  0
 12 13  1  0  0  0  0
 12 28  1  0  0  0  0
 13 14  1  0  0  0  0
 13 29  1  0  0  0  0
 13 30  1  0  0  0  0
 14 15  1  0  0  0  0
 14 31  1  0  0  0  0
 14 32  1  0  0  0  0
 15 16  1  0  0  0  0
 16 17  1  0  0  0  0
 16 33  1  0  0  0  0
 17 21  1  0  0  0  0
 17 18  1  0  0  0  0
 18 19  1  0  0  0  0
 18 34  1  0  0  0  0
 18 35  1  0  0  0  0
 19 20  1  0  0  0  0
 19 36  1  0  0  0  0
 19 37  1  0  0  0  0
 20 21  1  0  0  0  0
 20 38  1  0  0  0  0
 20 39  1  0  0  0  0
 21 40  1  0  0  0  0
 21 41  1  0  0  0  0
M  END
> <s_m_source_file>
AV-unprocessed.smi

> <i_m_source_file_index>
2520

> <i_lp_mmshare_version>
43012

> <i_f3d_flags>
0

> <s_epik_input>
bjFuW2NIXVtjSF1bY0hdYzFbTkhdQyg9TylbTkhdW0NAQEhdMltDQEBIXShbQ0gyXVtDSDJdTzMpW0NASF0zQzI0W0NIMl1bQ0gyXVtDSDJdW0NIMl00

> <s_epik_cmdline>
J2VwaWtfcHl0aG9uJywgJy1waCcsICc3LjAnLCAnLXRuJywgJzgnLCAnLW1hJywgJzIwMCcsICctbWV0YWxfYmluZGluZycsICctaW1hZScsICc8aW5maWxlLm1hZT4nLCAnLW9tYWUnLCAnPG91dGZpbGUubWFlPic=

> <r_lp_tautomer_probability>
1

> <r_epik_Ionization_Penalty>
0.00552561

> <r_epik_Ionization_Penalty_Charging>
0

> <r_epik_Ionization_Penalty_Neutral>
0.00552561

> <r_epik_State_Penalty>
-0

> <r_epik_Charging_Adjusted_Penalty>
0

> <i_epik_Tot_Q>
0

> <i_epik_Tot_abs_Q>
0

> <r_epik_Metal_State_Penalty>
-0

> <b_epik_Metal_Only>
0

> <s_lp_Force_Field>
OPLS_2005

> <r_lp_Energy>
83.7492

> <b_lp_Chiralities_Consistent>
1

> <s_lp_Variant>
AV-unprocessed.smi:2520-1

> <Gold.Version>
5.8.1

> <Gold.Id.Protein>
6NUR|6NUR_protein|mol2

> <Gold.PLP.Fitness>
38.3806

> <Gold.PLP.PLP>
-31.2534

> <Gold.PLP.part.hbond>
-3.0480

> <Gold.PLP.part.metal>
0.0000

> <Gold.PLP.part.buried>
-3.1194

> <Gold.PLP.part.nonpolar>
-25.0105

> <Gold.PLP.part.repulsive>
0.2319

> <Gold.PLP.ligand.clash>
0.0000

> <Gold.PLP.ligand.torsion>
0.2535

> <Gold.PLP.Chemscore.Hbond>
2.4511

> <Gold.PLP.Chemscore.CHOScore>
0.0000

> <Gold.PLP.Chemscore.Metal>
0.0000

> <Gold.Chemscore.Hbonds>
donor molecule, donor type, donor heavy atom, donor atom, acceptor molecule, acceptor atom, score
      L1  H     3    22       P1  7948  1.00
      L1  H    10    26       P1  7948  0.90
      P1  H  8011  8017       L1    15  0.50

> <Gold.PLP.Chemscore.Internal.Correction>
0.2809

> <Gold.Rescore>
     Score         DG    S(hbond)    S(metal)    S(lipo)     H(rot)  DE(clash)    DE(int)     intcor
     14.73     -17.17       1.58        0.00      76.61       1.00       1.02       1.42       ----

> <Gold.Chemscore.Fitness>
14.7299

> <Gold.Chemscore.DG>
-17.1679

> <Gold.Chemscore.ZeroCoef>
-5.4800

> <Gold.Chemscore.Hbond>
1.5822

> <Gold.Chemscore.Metal>
0.0000

> <Gold.Chemscore.Lipo>
76.6096

> <Gold.Chemscore.Internal_Hbond>
0.0000

> <Gold.Chemscore.DEClash>
1.0227

> <Gold.Chemscore.DEInternal>
1.4154

> <Gold.Chemscore.Rot>
1.0000

> <Gold.Chemscore.Internal.Correction>
   9.000000E+99

> <Gold.Chemscore.Hbonds>
donor molecule, donor type, donor heavy atom, donor atom, acceptor molecule, acceptor atom, score
      L1  H     3    22       P1  7948  0.48
      L1  H    10    26       P1  7948  0.86
      P1  H  8011  8017       L1    15  0.11

> <Gold.Chemscore.Hbond.Weighted>
-5.2846

> <Gold.Chemscore.Metal.Weighted>
-0.0000

> <Gold.Chemscore.Lipo.Weighted>
-8.9633

> <Gold.Chemscore.Internal_Hbond.Weighted>
0.0000

> <Gold.Chemscore.DEClash.Weighted>
1.0227

> <Gold.Chemscore.DEInternal.Weighted>
1.4154

> <Gold.Chemscore.Rot.Weighted>
2.5600

> <Gold.Chemscore.Internal.Correction.Weighted>
   9.000000E+99

> <Gold.Protein.RotatedTorsions>
[ 6907 6896 6895 6894 ] final  -75.65 input  -60.11 | X-H torsion
[ 7974 7965 7964 7962 ] final  -40.25 input  175.53 | X-H torsion
[ 8008 7997 7996 7995 ] final  177.62 input   59.86 | X-H torsion
[ 10167 10162 10161 10158 ] final -101.70 input  -65.29 | X-H torsion
[ 10718 10713 10712 10709 ] final   10.86 input   66.30 | X-H torsion
[ 10763 10752 10751 10750 ] final -157.24 input  -60.55 | X-H torsion
[ 11005 11000 10999 10996 ] final  -38.22 input  -57.11 | X-H torsion

> <Gold.Protein.ActiveResidues>
 VAL166  LYS551  ARG553  GLY616  TRP617  ASP618  TYR619  PRO620  LYS621  CYS622 
 ASP623  PHE694  ASN695  SER759  ASP760  ASP761  ALA762  ILE779  LEU786  VAL792 
 PHE793  MET794  SER795  GLU796  ALA797  LYS798  CYS799  TRP800  GLU811  SER814 

> <Gold.Protein.RotatedAtoms>
  150.7052  134.4689  159.5415 H   0  0  0  0  0  0  0  0  0  0  0  0  # atno 6907 bound_to 6896
  152.2349  134.8283  160.0477 H   0  0  0  0  0  0  0  0  0  0  0  0  # atno 6908 bound_to 6896
  151.9086  133.3520  159.3892 H   0  0  0  0  0  0  0  0  0  0  0  0  # atno 6909 bound_to 6896
  146.0321  140.6718  142.9127 H   0  0  0  0  0  0  0  0  0  0  0  0  # atno 7974 bound_to 7965
  156.0636  140.1354  156.9912 H   0  0  0  0  0  0  0  0  0  0  0  0  # atno 8008 bound_to 7997
  154.4494  140.0986  156.6625 H   0  0  0  0  0  0  0  0  0  0  0  0  # atno 8009 bound_to 7997
  155.5338  140.3459  155.4434 H   0  0  0  0  0  0  0  0  0  0  0  0  # atno 8010 bound_to 7997
  140.2385  143.3556  152.0823 H   0  0  0  0  0  0  0  0  0  0  0  0  # atno 10167 bound_to 10162
  156.9872  130.6028  149.5682 H   0  0  0  0  0  0  0  0  0  0  0  0  # atno 10718 bound_to 10713
  154.7652  135.3129  154.8301 H   0  0  0  0  0  0  0  0  0  0  0  0  # atno 10763 bound_to 10752
  153.9051  135.6811  153.4757 H   0  0  0  0  0  0  0  0  0  0  0  0  # atno 10764 bound_to 10752
  153.1257  135.4802  154.9200 H   0  0  0  0  0  0  0  0  0  0  0  0  # atno 10765 bound_to 10752
  141.0011  133.6955  156.2025 H   0  0  0  0  0  0  0  0  0  0  0  0  # atno 11005 bound_to 11000
  144.7035  140.3755  143.7137 LP  0  0  0  0  0  0  0  0  0  0  0  0  # atno 17320 bound_to 7965
  145.7023  139.1664  143.2586 LP  0  0  0  0  0  0  0  0  0  0  0  0  # atno 17321 bound_to 7965
  139.5085  144.6852  151.5907 LP  0  0  0  0  0  0  0  0  0  0  0  0  # atno 17342 bound_to 10162
  140.6132  143.9398  150.6468 LP  0  0  0  0  0  0  0  0  0  0  0  0  # atno 17343 bound_to 10162
  156.0221  130.5316  150.8305 LP  0  0  0  0  0  0  0  0  0  0  0  0  # atno 17370 bound_to 10713
  157.5485  131.0943  150.9729 LP  0  0  0  0  0  0  0  0  0  0  0  0  # atno 17371 bound_to 10713
  140.6887  134.4689  157.5589 LP  0  0  0  0  0  0  0  0  0  0  0  0  # atno 17394 bound_to 11000
  139.9039  134.8492  156.1783 LP  0  0  0  0  0  0  0  0  0  0  0  0  # atno 17395 bound_to 11000

$$$$
