AV-unprocessed.smi:1430|AV-procd|sdf|5822|dock6
  -GOLD-   22720 5483D 1   1.00000     0.00000
 Structure written by MMmdl.
 46 47  0  0  0  0  0  0  0  0  1 V2000
  146.4342  128.7830  152.7615 C   0  0  0  0  0  0  0  0  0  0  0  0
  147.4848  129.1281  153.6579 O   0  0  0  0  0  0  0  0  0  0  0  0
  147.8755  130.4495  153.7314 C   0  0  0  0  0  0  0  0  0  0  0  0
  149.0098  130.7752  154.5006 C   0  0  0  0  0  0  0  0  0  0  0  0
  149.4095  132.1224  154.5820 C   0  0  0  0  0  0  0  0  0  0  0  0
  148.6632  133.1051  153.9010 C   0  0  0  0  0  0  0  0  0  0  0  0
  149.1024  134.4538  153.9941 N   0  0  0  0  0  0  0  0  0  0  0  0
  149.8938  135.0197  154.9218 C   0  0  0  0  0  0  0  0  0  0  0  0
  150.3984  134.4380  155.8816 O   0  0  0  0  0  0  0  0  0  0  0  0
  150.0871  136.3204  154.6622 N   0  0  0  0  0  0  0  0  0  0  0  0
  150.9071  137.2222  155.4619 C   0  0  0  0  0  0  0  0  0  0  0  0
  151.6513  138.2364  154.5735 C   0  0  0  0  0  0  0  0  0  0  0  0
  151.1398  139.6047  154.6360 N   0  0  0  0  0  0  0  0  0  0  0  0
  149.6855  139.6681  154.5110 C   0  0  0  0  0  0  0  0  0  0  0  0
  149.1591  141.1133  154.6076 C   0  0  1  0  0  0  0  0  0  0  0  0
  147.6288  141.1758  154.5664 C   0  0  0  0  0  0  0  0  0  0  0  0
  149.5980  141.6907  155.8343 O   0  0  0  0  0  0  0  0  0  0  0  0
  151.0157  141.6971  155.9767 C   0  0  1  0  0  0  0  0  0  0  0  0
  151.3633  142.3525  157.3175 C   0  0  0  0  0  0  0  0  0  0  0  0
  151.5345  140.2495  155.8833 C   0  0  0  0  0  0  0  0  0  0  0  0
  147.5463  132.6751  153.1431 C   0  0  0  0  0  0  0  0  0  0  0  0
  147.1584  131.3842  153.0605 N   0  0  0  0  0  0  0  0  0  0  0  0
  146.2450  127.7115  152.8238 H   0  0  0  0  0  0  0  0  0  0  0  0
  146.6999  129.0121  151.7285 H   0  0  0  0  0  0  0  0  0  0  0  0
  145.5065  129.2979  153.0155 H   0  0  0  0  0  0  0  0  0  0  0  0
  149.5632  130.0057  155.0184 H   0  0  0  0  0  0  0  0  0  0  0  0
  150.2773  132.3950  155.1650 H   0  0  0  0  0  0  0  0  0  0  0  0
  148.8245  135.0503  153.2287 H   0  0  0  0  0  0  0  0  0  0  0  0
  149.6366  136.7161  153.8501 H   0  0  0  0  0  0  0  0  0  0  0  0
  150.2905  137.7393  156.1991 H   0  0  0  0  0  0  0  0  0  0  0  0
  151.6108  136.6058  156.0203 H   0  0  0  0  0  0  0  0  0  0  0  0
  152.7137  138.2291  154.8221 H   0  0  0  0  0  0  0  0  0  0  0  0
  151.5838  137.8881  153.5419 H   0  0  0  0  0  0  0  0  0  0  0  0
  149.3702  139.2483  153.5565 H   0  0  0  0  0  0  0  0  0  0  0  0
  149.2223  139.0596  155.2895 H   0  0  0  0  0  0  0  0  0  0  0  0
  149.5557  141.7021  153.7788 H   0  0  0  0  0  0  0  0  0  0  0  0
  147.2441  140.7552  153.6369 H   0  0  0  0  0  0  0  0  0  0  0  0
  147.2785  142.2061  154.6346 H   0  0  0  0  0  0  0  0  0  0  0  0
  147.1888  140.6186  155.3939 H   0  0  0  0  0  0  0  0  0  0  0  0
  151.4495  142.2937  155.1723 H   0  0  0  0  0  0  0  0  0  0  0  0
  152.4424  142.3901  157.4675 H   0  0  0  0  0  0  0  0  0  0  0  0
  150.9284  141.8004  158.1514 H   0  0  0  0  0  0  0  0  0  0  0  0
  150.9856  143.3744  157.3609 H   0  0  0  0  0  0  0  0  0  0  0  0
  151.1573  139.6738  156.7303 H   0  0  0  0  0  0  0  0  0  0  0  0
  152.6219  140.2512  155.9683 H   0  0  0  0  0  0  0  0  0  0  0  0
  146.9457  133.3595  152.5653 H   0  0  0  0  0  0  0  0  0  0  0  0
  1  2  1  0  0  0  0
  1 23  1  0  0  0  0
  1 24  1  0  0  0  0
  1 25  1  0  0  0  0
  2  3  1  0  0  0  0
  3 22  1  0  0  0  0
  3  4  2  0  0  0  0
  4  5  1  0  0  0  0
  4 26  1  0  0  0  0
  5  6  2  0  0  0  0
  5 27  1  0  0  0  0
  6  7  1  0  0  0  0
  6 21  1  0  0  0  0
  7  8  1  0  0  0  0
  7 28  1  0  0  0  0
  8  9  2  0  0  0  0
  8 10  1  0  0  0  0
 10 11  1  0  0  0  0
 10 29  1  0  0  0  0
 11 12  1  0  0  0  0
 11 30  1  0  0  0  0
 11 31  1  0  0  0  0
 12 13  1  0  0  0  0
 12 32  1  0  0  0  0
 12 33  1  0  0  0  0
 13 20  1  0  0  0  0
 13 14  1  0  0  0  0
 14 15  1  0  0  0  0
 14 34  1  0  0  0  0
 14 35  1  0  0  0  0
 15 16  1  0  0  0  0
 15 17  1  0  0  0  0
 15 36  1  0  0  0  0
 16 37  1  0  0  0  0
 16 38  1  0  0  0  0
 16 39  1  0  0  0  0
 17 18  1  0  0  0  0
 18 19  1  0  0  0  0
 18 20  1  0  0  0  0
 18 40  1  0  0  0  0
 19 41  1  0  0  0  0
 19 42  1  0  0  0  0
 19 43  1  0  0  0  0
 20 44  1  0  0  0  0
 20 45  1  0  0  0  0
 21 22  2  0  0  0  0
 21 46  1  0  0  0  0
M  END
> <s_m_source_file>
AV-unprocessed.smi

> <i_m_source_file_index>
1430

> <i_lp_mmshare_version>
43012

> <i_f3d_flags>
0

> <s_epik_input>
W0NIM11PYzFbY0hdW2NIXWMoW2NIXW4xKVtOSF1DKD1PKVtOSF1bQ0gyXVtDSDJdTjJbQ0gyXVtDQEBIXShbQ0gzXSlPW0NAQEhdKFtDSDNdKVtDSDJdMg==

> <s_epik_cmdline>
J2VwaWtfcHl0aG9uJywgJy1waCcsICc3LjAnLCAnLXRuJywgJzgnLCAnLW1hJywgJzIwMCcsICctbWV0YWxfYmluZGluZycsICctaW1hZScsICc8aW5maWxlLm1hZT4nLCAnLW9tYWUnLCAnPG91dGZpbGUubWFlPic=

> <r_lp_tautomer_probability>
1

> <r_epik_Ionization_Penalty>
0.266083

> <r_epik_Ionization_Penalty_Charging>
0

> <r_epik_Ionization_Penalty_Neutral>
0.266083

> <r_epik_State_Penalty>
0.257924

> <r_epik_Charging_Adjusted_Penalty>
0.257924

> <i_epik_Tot_Q>
0

> <i_epik_Tot_abs_Q>
0

> <r_epik_Metal_State_Penalty>
0.257922

> <b_epik_Metal_Only>
0

> <s_lp_Force_Field>
OPLS_2005

> <r_lp_Energy>
23.3408

> <b_lp_Chiralities_Consistent>
1

> <s_lp_Variant>
AV-unprocessed.smi:1430-1

> <Gold.Version>
5.8.1

> <Gold.Id.Protein>
6NUR|6NUR_protein|mol2

> <Gold.PLP.Fitness>
48.3947

> <Gold.PLP.PLP>
-41.2932

> <Gold.PLP.part.hbond>
-3.1948

> <Gold.PLP.part.metal>
0.0000

> <Gold.PLP.part.buried>
-5.5941

> <Gold.PLP.part.nonpolar>
-33.7326

> <Gold.PLP.part.repulsive>
0.9818

> <Gold.PLP.ligand.clash>
0.0000

> <Gold.PLP.ligand.torsion>
0.7305

> <Gold.PLP.Chemscore.Hbond>
2.8424

> <Gold.PLP.Chemscore.CHOScore>
0.0000

> <Gold.PLP.Chemscore.Metal>
0.0000

> <Gold.Chemscore.Hbonds>
donor molecule, donor type, donor heavy atom, donor atom, acceptor molecule, acceptor atom, score
      L1  H     7    28       P1  7948  1.00
      L1  H    10    29       P1  7948  0.65
      P1  H  7989  7998       L1    13  0.95

> <Gold.PLP.Chemscore.Internal.Correction>
0.0354

> <Gold.Rescore>
     Score         DG    S(hbond)    S(metal)    S(lipo)     H(rot)  DE(clash)    DE(int)     intcor
     13.72     -15.93       1.53        0.00      83.00       1.71       0.10       2.11       ----

> <Gold.Chemscore.Fitness>
13.7218

> <Gold.Chemscore.DG>
-15.9314

> <Gold.Chemscore.ZeroCoef>
-5.4800

> <Gold.Chemscore.Hbond>
1.5328

> <Gold.Chemscore.Metal>
0.0000

> <Gold.Chemscore.Lipo>
83.0020

> <Gold.Chemscore.Internal_Hbond>
0.0000

> <Gold.Chemscore.DEClash>
0.1024

> <Gold.Chemscore.DEInternal>
2.1072

> <Gold.Chemscore.Rot>
1.7107

> <Gold.Chemscore.Internal.Correction>
   9.000000E+99

> <Gold.Chemscore.Hbonds>
donor molecule, donor type, donor heavy atom, donor atom, acceptor molecule, acceptor atom, score
      L1  H     7    28       P1  7948  0.45
      L1  H    10    29       P1  7948  0.46
      P1  H  7989  7998       L1    13  0.06

> <Gold.Chemscore.Hbond.Weighted>
-5.1196

> <Gold.Chemscore.Metal.Weighted>
-0.0000

> <Gold.Chemscore.Lipo.Weighted>
-9.7112

> <Gold.Chemscore.Internal_Hbond.Weighted>
0.0000

> <Gold.Chemscore.DEClash.Weighted>
0.1024

> <Gold.Chemscore.DEInternal.Weighted>
2.1072

> <Gold.Chemscore.Rot.Weighted>
4.3794

> <Gold.Chemscore.Internal.Correction.Weighted>
   9.000000E+99

> <Gold.Protein.RotatedTorsions>
[ 6907 6896 6895 6894 ] final    4.93 input  -60.11 | X-H torsion
[ 7974 7965 7964 7962 ] final -147.07 input  175.53 | X-H torsion
[ 8008 7997 7996 7995 ] final  107.81 input   59.86 | X-H torsion
[ 10167 10162 10161 10158 ] final  -59.05 input  -65.29 | X-H torsion
[ 10718 10713 10712 10709 ] final   71.07 input   66.30 | X-H torsion
[ 10763 10752 10751 10750 ] final  -15.85 input  -60.55 | X-H torsion
[ 11005 11000 10999 10996 ] final -135.53 input  -57.11 | X-H torsion

> <Gold.Protein.ActiveResidues>
 VAL166  LYS551  ARG553  GLY616  TRP617  ASP618  TYR619  PRO620  LYS621  CYS622 
 ASP623  PHE694  ASN695  SER759  ASP760  ASP761  ALA762  ILE779  LEU786  VAL792 
 PHE793  MET794  SER795  GLU796  ALA797  LYS798  CYS799  TRP800  GLU811  SER814 

> <Gold.Protein.RotatedAtoms>
  151.6492  135.1003  160.0157 H   0  0  0  0  0  0  0  0  0  0  0  0  # atno 6907 bound_to 6896
  152.4010  133.6814  159.6325 H   0  0  0  0  0  0  0  0  0  0  0  0  # atno 6908 bound_to 6896
  150.7910  133.8708  159.3299 H   0  0  0  0  0  0  0  0  0  0  0  0  # atno 6909 bound_to 6896
  144.8118  140.5375  143.5637 H   0  0  0  0  0  0  0  0  0  0  0  0  # atno 7974 bound_to 7965
  156.1854  140.3088  155.9227 H   0  0  0  0  0  0  0  0  0  0  0  0  # atno 8008 bound_to 7997
  155.3293  140.0460  157.3059 H   0  0  0  0  0  0  0  0  0  0  0  0  # atno 8009 bound_to 7997
  154.5389  140.2255  155.8684 H   0  0  0  0  0  0  0  0  0  0  0  0  # atno 8010 bound_to 7997
  140.6159  143.2402  151.5597 H   0  0  0  0  0  0  0  0  0  0  0  0  # atno 10167 bound_to 10162
  157.6433  130.9509  150.0738 H   0  0  0  0  0  0  0  0  0  0  0  0  # atno 10718 bound_to 10713
  153.5496  135.7012  153.5597 H   0  0  0  0  0  0  0  0  0  0  0  0  # atno 10763 bound_to 10752
  153.3527  135.3991  155.1658 H   0  0  0  0  0  0  0  0  0  0  0  0  # atno 10764 bound_to 10752
  154.8663  135.3769  154.5006 H   0  0  0  0  0  0  0  0  0  0  0  0  # atno 10765 bound_to 10752
  140.8889  134.1837  157.4541 H   0  0  0  0  0  0  0  0  0  0  0  0  # atno 11005 bound_to 11000
  145.5307  139.1475  143.3501 LP  0  0  0  0  0  0  0  0  0  0  0  0  # atno 17320 bound_to 7965
  146.2417  140.5448  142.8931 LP  0  0  0  0  0  0  0  0  0  0  0  0  # atno 17321 bound_to 7965
  139.5398  144.2678  152.1328 LP  0  0  0  0  0  0  0  0  0  0  0  0  # atno 17342 bound_to 10162
  140.1887  144.4773  150.6490 LP  0  0  0  0  0  0  0  0  0  0  0  0  # atno 17343 bound_to 10162
  156.1734  130.3647  149.9133 LP  0  0  0  0  0  0  0  0  0  0  0  0  # atno 17370 bound_to 10713
  156.7103  130.8967  151.3608 LP  0  0  0  0  0  0  0  0  0  0  0  0  # atno 17371 bound_to 10713
  139.8727  134.9850  156.5263 LP  0  0  0  0  0  0  0  0  0  0  0  0  # atno 17394 bound_to 11000
  140.8371  133.8234  155.9039 LP  0  0  0  0  0  0  0  0  0  0  0  0  # atno 17395 bound_to 11000

$$$$
