AV-unprocessed.smi:578|AV-procd|sdf|2982|dock5
  -GOLD-   2262023493D 1   1.00000     0.00000
 Structure written by MMmdl.
 33 34  0  0  0  0  0  0  0  0  3 V2000
  153.8674  141.5850  161.0522 C   0  0  0  0  0  0  0  0  0  0  0  0
  152.6764  142.1039  160.2397 C   0  0  2  0  0  0  0  0  0  0  0  0
  152.4771  141.3114  158.9334 C   0  0  0  0  0  0  0  0  0  0  0  0
  151.3978  141.8999  158.1514 N   0  0  0  0  0  0  0  0  0  0  0  0
  151.0796  141.1633  157.0023 C   0  0  0  0  0  0  0  0  0  0  0  0
  149.8313  141.3679  156.3768 C   0  0  0  0  0  0  0  0  0  0  0  0
  149.5092  140.6277  155.2222 C   0  0  0  0  0  0  0  0  0  0  0  0
  150.3937  139.7350  154.7294 N   0  3  0  0  0  0  0  0  0  0  0  0
  151.6027  139.4991  155.2885 C   0  0  0  0  0  0  0  0  0  0  0  0
  152.5069  138.4829  154.6559 C   0  0  0  0  0  0  0  0  0  0  0  0
  151.9948  137.4996  154.0771 O   0  0  0  0  0  0  0  0  0  0  0  0
  153.7438  138.6570  154.7308 O   0  5  0  0  0  0  0  0  0  0  0  0
  151.9739  140.2165  156.4490 C   0  0  0  0  0  0  0  0  0  0  0  0
  151.6083  143.3183  157.8923 C   0  0  0  0  0  0  0  0  0  0  0  0
  151.8236  144.0713  159.2189 C   0  0  2  0  0  0  0  0  0  0  0  0
  152.1475  145.5522  158.9949 C   0  0  0  0  0  0  0  0  0  0  0  0
  152.9119  143.4741  159.9212 O   0  0  0  0  0  0  0  0  0  0  0  0
  153.7279  140.5398  161.3294 H   0  0  0  0  0  0  0  0  0  0  0  0
  153.9911  142.1586  161.9711 H   0  0  0  0  0  0  0  0  0  0  0  0
  154.7958  141.6603  160.4852 H   0  0  0  0  0  0  0  0  0  0  0  0
  151.7781  142.0300  160.8552 H   0  0  0  0  0  0  0  0  0  0  0  0
  153.4000  141.3160  158.3517 H   0  0  0  0  0  0  0  0  0  0  0  0
  152.2420  140.2701  159.1586 H   0  0  0  0  0  0  0  0  0  0  0  0
  149.1274  142.0837  156.7763 H   0  0  0  0  0  0  0  0  0  0  0  0
  148.5788  140.7208  154.6817 H   0  0  0  0  0  0  0  0  0  0  0  0
  152.9349  140.0424  156.9116 H   0  0  0  0  0  0  0  0  0  0  0  0
  152.4764  143.4517  157.2450 H   0  0  0  0  0  0  0  0  0  0  0  0
  150.7455  143.7270  157.3645 H   0  0  0  0  0  0  0  0  0  0  0  0
  150.9228  144.0022  159.8315 H   0  0  0  0  0  0  0  0  0  0  0  0
  151.3362  146.0560  158.4686 H   0  0  0  0  0  0  0  0  0  0  0  0
  153.0560  145.6734  158.4043 H   0  0  0  0  0  0  0  0  0  0  0  0
  152.2967  146.0661  159.9448 H   0  0  0  0  0  0  0  0  0  0  0  0
  150.1466  139.2058  153.8924 H   0  0  0  0  0  0  0  0  0  0  0  0
  1  2  1  0  0  0  0
  1 18  1  0  0  0  0
  1 19  1  0  0  0  0
  1 20  1  0  0  0  0
  2 17  1  0  0  0  0
  2  3  1  0  0  0  0
  2 21  1  0  0  0  0
  3  4  1  0  0  0  0
  3 22  1  0  0  0  0
  3 23  1  0  0  0  0
  4  5  1  0  0  0  0
  4 14  1  0  0  0  0
  5 13  1  0  0  0  0
  5  6  2  0  0  0  0
  6  7  1  0  0  0  0
  6 24  1  0  0  0  0
  7  8  2  0  0  0  0
  7 25  1  0  0  0  0
  8  9  1  0  0  0  0
  8 33  1  0  0  0  0
  9 10  1  0  0  0  0
  9 13  2  0  0  0  0
 10 11  2  0  0  0  0
 10 12  1  0  0  0  0
 13 26  1  0  0  0  0
 14 15  1  0  0  0  0
 14 27  1  0  0  0  0
 14 28  1  0  0  0  0
 15 16  1  0  0  0  0
 15 17  1  0  0  0  0
 15 29  1  0  0  0  0
 16 30  1  0  0  0  0
 16 31  1  0  0  0  0
 16 32  1  0  0  0  0
M  CHG  1   8   1
M  CHG  1  12  -1
M  END
> <s_m_source_file>
AV-unprocessed.smi

> <i_m_source_file_index>
578

> <i_lp_mmshare_version>
43012

> <i_f3d_flags>
0

> <s_epik_input>
W0NIM11bQ0BASF0xW0NIMl1OKFtDSDJdW0NASF0oTzEpW0NIM10pYzJbY0hdW2NIXW5jKFtjSF0yKUMoPU8pW09IXQ==

> <s_epik_cmdline>
J2VwaWtfcHl0aG9uJywgJy1waCcsICc3LjAnLCAnLXRuJywgJzgnLCAnLW1hJywgJzIwMCcsICctbWV0YWxfYmluZGluZycsICctaW1hZScsICc8aW5maWxlLm1hZT4nLCAnLW9tYWUnLCAnPG91dGZpbGUubWFlPic=

> <r_epik_Ionization_Penalty>
0.0203651

> <r_epik_Ionization_Penalty_Charging>
0.0203651

> <r_epik_Ionization_Penalty_Neutral>
3.18831e-12

> <r_epik_State_Penalty>
0.0163096

> <r_epik_Charging_Adjusted_Penalty>
0.0366747

> <i_epik_Tot_Q>
0

> <i_epik_Tot_abs_Q>
2

> <r_epik_Metal_State_Penalty>
1.99323

> <b_epik_Metal_Only>
0

> <s_lp_Force_Field>
OPLS_2005

> <r_lp_Energy>
16.452

> <b_lp_Chiralities_Consistent>
1

> <s_lp_Variant>
AV-unprocessed.smi:578-2

> <Gold.Version>
5.8.1

> <Gold.Id.Protein>
6NUR|6NUR_protein|mol2

> <Gold.PLP.Fitness>
49.0185

> <Gold.PLP.PLP>
-39.5894

> <Gold.PLP.part.hbond>
-2.0000

> <Gold.PLP.part.metal>
0.0000

> <Gold.PLP.part.buried>
-6.1808

> <Gold.PLP.part.nonpolar>
-31.6040

> <Gold.PLP.part.repulsive>
0.7690

> <Gold.PLP.ligand.clash>
0.0000

> <Gold.PLP.ligand.torsion>
0.7589

> <Gold.PLP.Chemscore.Hbond>
3.6161

> <Gold.PLP.Chemscore.CHOScore>
0.0000

> <Gold.PLP.Chemscore.Metal>
0.0000

> <Gold.Chemscore.Hbonds>
donor molecule, donor type, donor heavy atom, donor atom, acceptor molecule, acceptor atom, score
      P1  H  7997  8009       L1    12  1.79
      P1  H 10752 10764       L1    11  1.75

> <Gold.PLP.Chemscore.Internal.Correction>
0.0986

> <Gold.Rescore>
     Score         DG    S(hbond)    S(metal)    S(lipo)     H(rot)  DE(clash)    DE(int)     intcor
     18.68     -19.44       1.78        0.00      90.52       1.00       0.04       0.73       ----

> <Gold.Chemscore.Fitness>
18.6791

> <Gold.Chemscore.DG>
-19.4414

> <Gold.Chemscore.ZeroCoef>
-5.4800

> <Gold.Chemscore.Hbond>
1.7757

> <Gold.Chemscore.Metal>
0.0000

> <Gold.Chemscore.Lipo>
90.5183

> <Gold.Chemscore.Internal_Hbond>
0.0000

> <Gold.Chemscore.DEClash>
0.0359

> <Gold.Chemscore.DEInternal>
0.7264

> <Gold.Chemscore.Rot>
1.0000

> <Gold.Chemscore.Internal.Correction>
   9.000000E+99

> <Gold.Chemscore.Hbonds>
donor molecule, donor type, donor heavy atom, donor atom, acceptor molecule, acceptor atom, score
      P1  H  7997  8009       L1    12  0.82
      P1  H 10752 10764       L1    11  0.79

> <Gold.Chemscore.Hbond.Weighted>
-5.9308

> <Gold.Chemscore.Metal.Weighted>
-0.0000

> <Gold.Chemscore.Lipo.Weighted>
-10.5906

> <Gold.Chemscore.Internal_Hbond.Weighted>
0.0000

> <Gold.Chemscore.DEClash.Weighted>
0.0359

> <Gold.Chemscore.DEInternal.Weighted>
0.7264

> <Gold.Chemscore.Rot.Weighted>
2.5600

> <Gold.Chemscore.Internal.Correction.Weighted>
   9.000000E+99

> <Gold.Protein.RotatedTorsions>
[ 6907 6896 6895 6894 ] final -172.67 input  -60.11 | X-H torsion
[ 7974 7965 7964 7962 ] final -128.36 input  175.53 | X-H torsion
[ 8008 7997 7996 7995 ] final -130.53 input   59.86 | X-H torsion
[ 10167 10162 10161 10158 ] final  148.95 input  -65.29 | X-H torsion
[ 10718 10713 10712 10709 ] final  120.18 input   66.30 | X-H torsion
[ 10763 10752 10751 10750 ] final  -88.74 input  -60.55 | X-H torsion
[ 11005 11000 10999 10996 ] final   79.04 input  -57.11 | X-H torsion

> <Gold.Protein.ActiveResidues>
 VAL166  LYS551  ARG553  GLY616  TRP617  ASP618  TYR619  PRO620  LYS621  CYS622 
 ASP623  PHE694  ASN695  SER759  ASP760  ASP761  ALA762  ILE779  LEU786  VAL792 
 PHE793  MET794  SER795  GLU796  ALA797  LYS798  CYS799  TRP800  GLU811  SER814 

> <Gold.Protein.RotatedAtoms>
  151.5437  133.3428  159.2939 H   0  0  0  0  0  0  0  0  0  0  0  0  # atno 6907 bound_to 6896
  150.8520  134.7850  159.7027 H   0  0  0  0  0  0  0  0  0  0  0  0  # atno 6908 bound_to 6896
  152.4563  134.5291  159.9857 H   0  0  0  0  0  0  0  0  0  0  0  0  # atno 6909 bound_to 6896
  144.9679  140.7515  143.4689 H   0  0  0  0  0  0  0  0  0  0  0  0  # atno 7974 bound_to 7965
  155.2973  140.0451  157.3027 H   0  0  0  0  0  0  0  0  0  0  0  0  # atno 8008 bound_to 7997
  154.5507  140.2316  155.8457 H   0  0  0  0  0  0  0  0  0  0  0  0  # atno 8009 bound_to 7997
  156.1964  140.3037  155.9443 H   0  0  0  0  0  0  0  0  0  0  0  0  # atno 8010 bound_to 7997
  139.4868  144.5640  151.7179 H   0  0  0  0  0  0  0  0  0  0  0  0  # atno 10167 bound_to 10162
  157.5909  131.1064  150.8000 H   0  0  0  0  0  0  0  0  0  0  0  0  # atno 10718 bound_to 10713
  154.6478  135.5366  153.7866 H   0  0  0  0  0  0  0  0  0  0  0  0  # atno 10763 bound_to 10752
  153.0369  135.6475  154.1062 H   0  0  0  0  0  0  0  0  0  0  0  0  # atno 10764 bound_to 10752
  154.0982  135.2935  155.3237 H   0  0  0  0  0  0  0  0  0  0  0  0  # atno 10765 bound_to 10752
  139.9188  134.7811  156.1727 H   0  0  0  0  0  0  0  0  0  0  0  0  # atno 11005 bound_to 11000
  145.2603  139.1995  143.4895 LP  0  0  0  0  0  0  0  0  0  0  0  0  # atno 17320 bound_to 7965
  146.3373  140.2532  142.8599 LP  0  0  0  0  0  0  0  0  0  0  0  0  # atno 17321 bound_to 7965
  140.5214  144.0872  150.6024 LP  0  0  0  0  0  0  0  0  0  0  0  0  # atno 17342 bound_to 10162
  140.3832  143.2792  152.0147 LP  0  0  0  0  0  0  0  0  0  0  0  0  # atno 17343 bound_to 10162
  156.8422  130.5052  149.5320 LP  0  0  0  0  0  0  0  0  0  0  0  0  # atno 17370 bound_to 10713
  156.0964  130.5935  150.9820 LP  0  0  0  0  0  0  0  0  0  0  0  0  # atno 17371 bound_to 10713
  141.0690  133.6805  156.2103 LP  0  0  0  0  0  0  0  0  0  0  0  0  # atno 17394 bound_to 11000
  140.6537  134.5040  157.5579 LP  0  0  0  0  0  0  0  0  0  0  0  0  # atno 17395 bound_to 11000

$$$$
