AV-unprocessed.smi:2978|AV-procd|sdf|11369|dock3
  -GOLD-   2272016283D 1   1.00000     0.00000
 Structure written by MMmdl.
 32 33  0  0  0  0  0  0  0  0  1 V2000
  150.3673  140.0266  154.2698 O   0  0  0  0  0  0  0  0  0  0  0  0
  150.2893  140.2735  155.4742 C   0  0  0  0  0  0  0  0  0  0  0  0
  151.4850  140.0267  156.4062 C   0  0  0  0  0  0  0  0  0  0  0  0
  151.6843  141.0993  157.3920 N   0  0  0  0  0  0  0  0  0  0  0  0
  150.9493  142.2440  157.1374 N   0  0  0  0  0  0  0  0  0  0  0  0
  151.0328  143.2441  157.9453 C   0  0  0  0  0  0  0  0  0  0  0  0
  151.8775  143.2182  159.1188 C   0  0  0  0  0  0  0  0  0  0  0  0
  151.9485  144.5911  160.1667 Cl  0  0  0  0  0  0  0  0  0  0  0  0
  152.5991  142.0939  159.3558 C   0  0  0  0  0  0  0  0  0  0  0  0
  153.6339  141.9888  160.7388 Cl  0  0  0  0  0  0  0  0  0  0  0  0
  152.5295  140.9340  158.4562 C   0  0  0  0  0  0  0  0  0  0  0  0
  153.1700  139.8972  158.6350 O   0  0  0  0  0  0  0  0  0  0  0  0
  149.1788  140.7512  156.0551 N   0  0  0  0  0  0  0  0  0  0  0  0
  147.9425  141.0799  155.3555 C   0  0  0  0  0  0  0  0  0  0  0  0
  146.8081  141.4016  156.3424 C   0  0  1  0  0  0  0  0  0  0  0  0
  147.2433  142.2576  157.5267 C   0  0  0  0  0  0  0  0  0  0  0  0
  145.9222  142.8227  158.0084 C   0  0  0  0  0  0  0  0  0  0  0  0
  145.0780  142.8944  156.7323 C   0  0  0  0  0  0  0  0  0  0  0  0
  145.8172  142.2102  155.7244 O   0  0  0  0  0  0  0  0  0  0  0  0
  151.3592  139.0715  156.9199 H   0  0  0  0  0  0  0  0  0  0  0  0
  152.3761  139.9105  155.7868 H   0  0  0  0  0  0  0  0  0  0  0  0
  150.4706  144.1645  157.7869 H   0  0  0  0  0  0  0  0  0  0  0  0
  149.1990  140.9252  157.0495 H   0  0  0  0  0  0  0  0  0  0  0  0
  148.1099  141.9231  154.6834 H   0  0  0  0  0  0  0  0  0  0  0  0
  147.6652  140.2332  154.7272 H   0  0  0  0  0  0  0  0  0  0  0  0
  146.3399  140.4861  156.7092 H   0  0  0  0  0  0  0  0  0  0  0  0
  147.7685  141.6878  158.2939 H   0  0  0  0  0  0  0  0  0  0  0  0
  147.8954  143.0666  157.1935 H   0  0  0  0  0  0  0  0  0  0  0  0
  145.4611  142.1373  158.7205 H   0  0  0  0  0  0  0  0  0  0  0  0
  146.0347  143.7914  158.4964 H   0  0  0  0  0  0  0  0  0  0  0  0
  144.1081  142.4174  156.8774 H   0  0  0  0  0  0  0  0  0  0  0  0
  144.9054  143.9243  156.4187 H   0  0  0  0  0  0  0  0  0  0  0  0
  1  2  2  0  0  0  0
  2  3  1  0  0  0  0
  2 13  1  0  0  0  0
  3  4  1  0  0  0  0
  3 20  1  0  0  0  0
  3 21  1  0  0  0  0
  4 11  1  0  0  0  0
  4  5  1  0  0  0  0
  5  6  2  0  0  0  0
  6  7  1  0  0  0  0
  6 22  1  0  0  0  0
  7  8  1  0  0  0  0
  7  9  2  0  0  0  0
  9 10  1  0  0  0  0
  9 11  1  0  0  0  0
 11 12  2  0  0  0  0
 13 14  1  0  0  0  0
 13 23  1  0  0  0  0
 14 15  1  0  0  0  0
 14 24  1  0  0  0  0
 14 25  1  0  0  0  0
 15 19  1  0  0  0  0
 15 16  1  0  0  0  0
 15 26  1  0  0  0  0
 16 17  1  0  0  0  0
 16 27  1  0  0  0  0
 16 28  1  0  0  0  0
 17 18  1  0  0  0  0
 17 29  1  0  0  0  0
 17 30  1  0  0  0  0
 18 19  1  0  0  0  0
 18 31  1  0  0  0  0
 18 32  1  0  0  0  0
M  END
> <s_m_source_file>
AV-unprocessed.smi

> <i_m_source_file_index>
2978

> <i_lp_mmshare_version>
43012

> <i_f3d_flags>
0

> <s_epik_input>
TzFbQ0gyXVtDSDJdW0NIMl1bQ0BIXTFbQ0gyXVtOSF1DKD1PKVtDSDJdbjJuW2NIXWMoQ2wpYyhDbCljMj1P

> <s_epik_cmdline>
J2VwaWtfcHl0aG9uJywgJy1waCcsICc3LjAnLCAnLXRuJywgJzgnLCAnLW1hJywgJzIwMCcsICctbWV0YWxfYmluZGluZycsICctaW1hZScsICc8aW5maWxlLm1hZT4nLCAnLW9tYWUnLCAnPG91dGZpbGUubWFlPic=

> <r_lp_tautomer_probability>
1

> <r_epik_Ionization_Penalty>
2.68881e-08

> <r_epik_Ionization_Penalty_Charging>
2.90862e-11

> <r_epik_Ionization_Penalty_Neutral>
2.6859e-08

> <r_epik_State_Penalty>
-0

> <r_epik_Charging_Adjusted_Penalty>
2.90862e-11

> <i_epik_Tot_Q>
0

> <i_epik_Tot_abs_Q>
0

> <r_epik_Metal_State_Penalty>
-0

> <b_epik_Metal_Only>
0

> <s_lp_Force_Field>
OPLS_2005

> <r_lp_Energy>
30.853

> <b_lp_Chiralities_Consistent>
1

> <s_lp_Variant>
AV-unprocessed.smi:2978-2

> <Gold.Version>
5.8.1

> <Gold.Id.Protein>
6NUR|6NUR_protein|mol2

> <Gold.PLP.Fitness>
40.4357

> <Gold.PLP.PLP>
-32.9039

> <Gold.PLP.part.hbond>
-2.0000

> <Gold.PLP.part.metal>
0.0000

> <Gold.PLP.part.buried>
-5.0401

> <Gold.PLP.part.nonpolar>
-26.1559

> <Gold.PLP.part.repulsive>
1.2671

> <Gold.PLP.ligand.clash>
0.0000

> <Gold.PLP.ligand.torsion>
0.6261

> <Gold.PLP.Chemscore.Hbond>
1.9920

> <Gold.PLP.Chemscore.CHOScore>
0.9268

> <Gold.PLP.Chemscore.Metal>
0.0000

> <Gold.Chemscore.Hbonds>
donor molecule, donor type, donor heavy atom, donor atom, acceptor molecule, acceptor atom, score
      P1  H  7989  7998       L1     1  1.00
      P1  H  7997  8009       L1    12  0.66
      L1  C     6    22       P1  8028  0.59

> <Gold.PLP.Chemscore.Internal.Correction>
0.0275

> <Gold.Rescore>
     Score         DG    S(hbond)    S(metal)    S(lipo)     H(rot)  DE(clash)    DE(int)     intcor
     13.97     -14.65       1.60        0.00      72.85       1.83       0.10       0.58       ----

> <Gold.Chemscore.Fitness>
13.9713

> <Gold.Chemscore.DG>
-14.6529

> <Gold.Chemscore.ZeroCoef>
-5.4800

> <Gold.Chemscore.Hbond>
1.5987

> <Gold.Chemscore.Metal>
0.0000

> <Gold.Chemscore.Lipo>
72.8483

> <Gold.Chemscore.Internal_Hbond>
0.0000

> <Gold.Chemscore.DEClash>
0.0985

> <Gold.Chemscore.DEInternal>
0.5831

> <Gold.Chemscore.Rot>
1.8320

> <Gold.Chemscore.Internal.Correction>
   9.000000E+99

> <Gold.Chemscore.Hbonds>
donor molecule, donor type, donor heavy atom, donor atom, acceptor molecule, acceptor atom, score
      P1  H  7989  7998       L1     1  0.87
      P1  H  7997  8009       L1    12  0.14

> <Gold.Chemscore.Hbond.Weighted>
-5.3396

> <Gold.Chemscore.Metal.Weighted>
-0.0000

> <Gold.Chemscore.Lipo.Weighted>
-8.5233

> <Gold.Chemscore.Internal_Hbond.Weighted>
0.0000

> <Gold.Chemscore.DEClash.Weighted>
0.0985

> <Gold.Chemscore.DEInternal.Weighted>
0.5831

> <Gold.Chemscore.Rot.Weighted>
4.6900

> <Gold.Chemscore.Internal.Correction.Weighted>
   9.000000E+99

> <Gold.Protein.RotatedTorsions>
[ 6907 6896 6895 6894 ] final  -39.37 input  -60.11 | X-H torsion
[ 7974 7965 7964 7962 ] final  131.41 input  175.53 | X-H torsion
[ 8008 7997 7996 7995 ] final  157.56 input   59.86 | X-H torsion
[ 10167 10162 10161 10158 ] final   79.34 input  -65.29 | X-H torsion
[ 10718 10713 10712 10709 ] final  -62.24 input   66.30 | X-H torsion
[ 10763 10752 10751 10750 ] final   57.92 input  -60.55 | X-H torsion
[ 11005 11000 10999 10996 ] final -138.23 input  -57.11 | X-H torsion

> <Gold.Protein.ActiveResidues>
 VAL166  LYS551  ARG553  GLY616  TRP617  ASP618  TYR619  PRO620  LYS621  CYS622 
 ASP623  PHE694  ASN695  SER759  ASP760  ASP761  ALA762  ILE779  LEU786  VAL792 
 PHE793  MET794  SER795  GLU796  ALA797  LYS798  CYS799  TRP800  GLU811  SER814 

> <Gold.Protein.RotatedAtoms>
  150.9912  134.9246  159.7900 H   0  0  0  0  0  0  0  0  0  0  0  0  # atno 6907 bound_to 6896
  152.5251  134.3279  159.9182 H   0  0  0  0  0  0  0  0  0  0  0  0  # atno 6908 bound_to 6896
  151.3285  133.3969  159.2695 H   0  0  0  0  0  0  0  0  0  0  0  0  # atno 6909 bound_to 6896
  145.0076  139.4251  143.5261 H   0  0  0  0  0  0  0  0  0  0  0  0  # atno 7974 bound_to 7965
  156.2357  140.1882  156.7127 H   0  0  0  0  0  0  0  0  0  0  0  0  # atno 8008 bound_to 7997
  154.6101  140.0623  156.9510 H   0  0  0  0  0  0  0  0  0  0  0  0  # atno 8009 bound_to 7997
  155.2030  140.3294  155.4343 H   0  0  0  0  0  0  0  0  0  0  0  0  # atno 8010 bound_to 7997
  139.9614  144.5958  150.8069 H   0  0  0  0  0  0  0  0  0  0  0  0  # atno 10167 bound_to 10162
  156.0868  130.4207  150.1107 H   0  0  0  0  0  0  0  0  0  0  0  0  # atno 10718 bound_to 10713
  152.9860  135.5625  154.5468 H   0  0  0  0  0  0  0  0  0  0  0  0  # atno 10763 bound_to 10752
  154.4913  135.2793  155.1496 H   0  0  0  0  0  0  0  0  0  0  0  0  # atno 10764 bound_to 10752
  154.2965  135.6316  153.5460 H   0  0  0  0  0  0  0  0  0  0  0  0  # atno 10765 bound_to 10752
  140.8635  134.2139  157.4693 H   0  0  0  0  0  0  0  0  0  0  0  0  # atno 11005 bound_to 11000
  146.3464  139.9501  142.8730 LP  0  0  0  0  0  0  0  0  0  0  0  0  # atno 17320 bound_to 7965
  145.2067  140.9878  143.4124 LP  0  0  0  0  0  0  0  0  0  0  0  0  # atno 17321 bound_to 7965
  140.7552  143.3041  151.3005 LP  0  0  0  0  0  0  0  0  0  0  0  0  # atno 17342 bound_to 10162
  139.6551  144.0291  152.2654 LP  0  0  0  0  0  0  0  0  0  0  0  0  # atno 17343 bound_to 10162
  156.9126  130.9657  151.3560 LP  0  0  0  0  0  0  0  0  0  0  0  0  # atno 17370 bound_to 10713
  157.6005  130.8509  149.8795 LP  0  0  0  0  0  0  0  0  0  0  0  0  # atno 17371 bound_to 10713
  139.8708  134.9741  156.4833 LP  0  0  0  0  0  0  0  0  0  0  0  0  # atno 17394 bound_to 11000
  140.8655  133.8027  155.9309 LP  0  0  0  0  0  0  0  0  0  0  0  0  # atno 17395 bound_to 11000

$$$$
