AV-unprocessed.smi:1839|AV-procd|sdf|7486|dock1
  -GOLD-   22720 9183D 1   1.00000     0.00000
 Structure written by MMmdl.
 47 48  0  0  0  0  0  0  0  0  2 V2000
  151.0260  144.9348  159.8842 C   0  0  0  0  0  0  0  0  0  0  0  0
  151.5441  143.7074  159.2799 N   0  0  0  0  0  0  0  0  0  0  0  0
  152.9919  143.7228  159.0382 C   0  0  0  0  0  0  0  0  0  0  0  0
  150.6951  142.8135  158.7156 C   0  0  0  0  0  0  0  0  0  0  0  0
  149.5478  143.1224  158.3851 O   0  0  0  0  0  0  0  0  0  0  0  0
  151.1900  141.5704  158.5021 N   0  0  0  0  0  0  0  0  0  0  0  0
  152.0136  140.8490  159.4839 C   0  0  0  0  0  0  0  0  0  0  0  0
  153.1650  140.1261  158.7621 C   0  0  0  0  0  0  0  0  0  0  0  0
  152.6267  139.1963  157.6600 C   0  0  0  0  0  0  0  0  0  0  0  0
  151.6605  139.9476  156.7180 C   0  0  1  0  0  0  0  0  0  0  0  0
  151.0276  139.0114  155.6812 C   0  0  0  0  0  0  0  0  0  0  0  0
  151.0630  139.2910  154.4829 O   0  0  0  0  0  0  0  0  0  0  0  0
  150.4833  137.8807  156.1555 N   0  0  0  0  0  0  0  0  0  0  0  0
  149.9140  136.8116  155.3406 C   0  0  0  0  0  0  0  0  0  0  0  0
  150.8899  135.6409  155.0918 C   0  0  0  0  0  0  0  0  0  0  0  0
  150.2073  134.3367  154.7127 C   0  0  0  0  0  0  0  0  0  0  0  0
  150.4923  133.1220  155.3730 C   0  0  0  0  0  0  0  0  0  0  0  0
  149.8410  131.9422  154.9557 C   0  0  0  0  0  0  0  0  0  0  0  0
  148.9223  132.0005  153.8870 C   0  0  0  0  0  0  0  0  0  0  0  0
  148.6754  133.2400  153.2624 C   0  0  0  0  0  0  0  0  0  0  0  0
  149.3170  134.3480  153.6934 N   0  3  0  0  0  0  0  0  0  0  0  0
  150.5635  140.6587  157.5393 C   0  0  0  0  0  0  0  0  0  0  0  0
  150.1185  144.7446  160.4597 H   0  0  0  0  0  0  0  0  0  0  0  0
  150.7948  145.6711  159.1137 H   0  0  0  0  0  0  0  0  0  0  0  0
  151.7528  145.3748  160.5681 H   0  0  0  0  0  0  0  0  0  0  0  0
  153.2661  143.1923  158.1252 H   0  0  0  0  0  0  0  0  0  0  0  0
  153.5256  143.2697  159.8737 H   0  0  0  0  0  0  0  0  0  0  0  0
  153.3606  144.7434  158.9268 H   0  0  0  0  0  0  0  0  0  0  0  0
  152.4100  141.5017  160.2618 H   0  0  0  0  0  0  0  0  0  0  0  0
  151.3880  140.1211  160.0030 H   0  0  0  0  0  0  0  0  0  0  0  0
  153.8419  140.8594  158.3230 H   0  0  0  0  0  0  0  0  0  0  0  0
  153.7542  139.5525  159.4780 H   0  0  0  0  0  0  0  0  0  0  0  0
  153.4579  138.7739  157.0942 H   0  0  0  0  0  0  0  0  0  0  0  0
  152.1136  138.3556  158.1298 H   0  0  0  0  0  0  0  0  0  0  0  0
  152.2342  140.7100  156.1871 H   0  0  0  0  0  0  0  0  0  0  0  0
  150.4908  137.7363  157.1553 H   0  0  0  0  0  0  0  0  0  0  0  0
  149.0384  136.4386  155.8726 H   0  0  0  0  0  0  0  0  0  0  0  0
  149.5501  137.2124  154.3934 H   0  0  0  0  0  0  0  0  0  0  0  0
  151.5950  135.9137  154.3059 H   0  0  0  0  0  0  0  0  0  0  0  0
  151.4927  135.4706  155.9851 H   0  0  0  0  0  0  0  0  0  0  0  0
  151.2043  133.0923  156.1853 H   0  0  0  0  0  0  0  0  0  0  0  0
  150.0469  131.0026  155.4474 H   0  0  0  0  0  0  0  0  0  0  0  0
  148.4156  131.1078  153.5503 H   0  0  0  0  0  0  0  0  0  0  0  0
  147.9930  133.3777  152.4360 H   0  0  0  0  0  0  0  0  0  0  0  0
  149.9413  139.9380  158.0733 H   0  0  0  0  0  0  0  0  0  0  0  0
  149.9023  141.1975  156.8588 H   0  0  0  0  0  0  0  0  0  0  0  0
  149.1265  135.2342  153.2243 H   0  0  0  0  0  0  0  0  0  0  0  0
  1  2  1  0  0  0  0
  1 23  1  0  0  0  0
  1 24  1  0  0  0  0
  1 25  1  0  0  0  0
  2  3  1  0  0  0  0
  2  4  1  0  0  0  0
  3 26  1  0  0  0  0
  3 27  1  0  0  0  0
  3 28  1  0  0  0  0
  4  5  2  0  0  0  0
  4  6  1  0  0  0  0
  6 22  1  0  0  0  0
  6  7  1  0  0  0  0
  7  8  1  0  0  0  0
  7 29  1  0  0  0  0
  7 30  1  0  0  0  0
  8  9  1  0  0  0  0
  8 31  1  0  0  0  0
  8 32  1  0  0  0  0
  9 10  1  0  0  0  0
  9 33  1  0  0  0  0
  9 34  1  0  0  0  0
 10 11  1  0  0  0  0
 10 22  1  0  0  0  0
 10 35  1  0  0  0  0
 11 12  2  0  0  0  0
 11 13  1  0  0  0  0
 13 14  1  0  0  0  0
 13 36  1  0  0  0  0
 14 15  1  0  0  0  0
 14 37  1  0  0  0  0
 14 38  1  0  0  0  0
 15 16  1  0  0  0  0
 15 39  1  0  0  0  0
 15 40  1  0  0  0  0
 16 21  1  0  0  0  0
 16 17  2  0  0  0  0
 17 18  1  0  0  0  0
 17 41  1  0  0  0  0
 18 19  2  0  0  0  0
 18 42  1  0  0  0  0
 19 20  1  0  0  0  0
 19 43  1  0  0  0  0
 20 21  2  0  0  0  0
 20 44  1  0  0  0  0
 21 47  1  0  0  0  0
 22 45  1  0  0  0  0
 22 46  1  0  0  0  0
M  CHG  1  21   1
M  END
> <s_m_source_file>
AV-unprocessed.smi

> <i_m_source_file_index>
1839

> <i_lp_mmshare_version>
43012

> <i_f3d_flags>
0

> <s_epik_input>
W0NIM11OKFtDSDNdKUMoPU8pTjFbQ0gyXVtDSDJdW0NIMl1bQ0BIXShbQ0gyXTEpQyg9TylbTkhdW0NIMl1bQ0gyXWMyW2NIXVtjSF1bY0hdW2NIXW4y

> <s_epik_cmdline>
J2VwaWtfcHl0aG9uJywgJy1waCcsICc3LjAnLCAnLXRuJywgJzgnLCAnLW1hJywgJzIwMCcsICctbWV0YWxfYmluZGluZycsICctaW1hZScsICc8aW5maWxlLm1hZT4nLCAnLW9tYWUnLCAnPG91dGZpbGUubWFlPic=

> <r_epik_Ionization_Penalty>
1.8476

> <r_epik_Ionization_Penalty_Charging>
1.84754

> <r_epik_Ionization_Penalty_Neutral>
5.83857e-05

> <r_epik_State_Penalty>
1.96477

> <r_epik_Charging_Adjusted_Penalty>
3.81231

> <i_epik_Tot_Q>
1

> <i_epik_Tot_abs_Q>
1

> <r_epik_Metal_State_Penalty>
1.99061

> <b_epik_Metal_Only>
0

> <s_lp_Force_Field>
OPLS_2005

> <r_lp_Energy>
54.126

> <b_lp_Chiralities_Consistent>
1

> <s_lp_Variant>
AV-unprocessed.smi:1839-3

> <Gold.Version>
5.8.1

> <Gold.Id.Protein>
6NUR|6NUR_protein|mol2

> <Gold.PLP.Fitness>
47.3093

> <Gold.PLP.PLP>
-39.4833

> <Gold.PLP.part.hbond>
-2.0000

> <Gold.PLP.part.metal>
0.0000

> <Gold.PLP.part.buried>
-2.4926

> <Gold.PLP.part.nonpolar>
-35.1024

> <Gold.PLP.part.repulsive>
0.7735

> <Gold.PLP.ligand.clash>
0.0000

> <Gold.PLP.ligand.torsion>
1.2845

> <Gold.PLP.Chemscore.Hbond>
3.0000

> <Gold.PLP.Chemscore.CHOScore>
0.0000

> <Gold.PLP.Chemscore.Metal>
0.0000

> <Gold.Chemscore.Hbonds>
donor molecule, donor type, donor heavy atom, donor atom, acceptor molecule, acceptor atom, score
      L1  H    21    47       P1  7948  1.90
      P1  H  7989  7998       L1    12  1.00

> <Gold.PLP.Chemscore.Internal.Correction>
1.3951

> <Gold.Rescore>
     Score         DG    S(hbond)    S(metal)    S(lipo)     H(rot)  DE(clash)    DE(int)     intcor
     16.18     -17.49       1.75        0.00      87.75       1.60       0.07       1.24       ----

> <Gold.Chemscore.Fitness>
16.1799

> <Gold.Chemscore.DG>
-17.4904

> <Gold.Chemscore.ZeroCoef>
-5.4800

> <Gold.Chemscore.Hbond>
1.7521

> <Gold.Chemscore.Metal>
0.0000

> <Gold.Chemscore.Lipo>
87.7514

> <Gold.Chemscore.Internal_Hbond>
0.0000

> <Gold.Chemscore.DEClash>
0.0669

> <Gold.Chemscore.DEInternal>
1.2437

> <Gold.Chemscore.Rot>
1.6049

> <Gold.Chemscore.Internal.Correction>
   9.000000E+99

> <Gold.Chemscore.Hbonds>
donor molecule, donor type, donor heavy atom, donor atom, acceptor molecule, acceptor atom, score
      L1  H    21    47       P1  7948  0.21
      P1  H  7989  7998       L1    12  0.99

> <Gold.Chemscore.Hbond.Weighted>
-5.8522

> <Gold.Chemscore.Metal.Weighted>
-0.0000

> <Gold.Chemscore.Lipo.Weighted>
-10.2669

> <Gold.Chemscore.Internal_Hbond.Weighted>
0.0000

> <Gold.Chemscore.DEClash.Weighted>
0.0669

> <Gold.Chemscore.DEInternal.Weighted>
1.2437

> <Gold.Chemscore.Rot.Weighted>
4.1087

> <Gold.Chemscore.Internal.Correction.Weighted>
   9.000000E+99

> <Gold.Protein.RotatedTorsions>
[ 6907 6896 6895 6894 ] final -148.68 input  -60.11 | X-H torsion
[ 7974 7965 7964 7962 ] final  118.80 input  175.53 | X-H torsion
[ 8008 7997 7996 7995 ] final  140.73 input   59.86 | X-H torsion
[ 10167 10162 10161 10158 ] final   11.52 input  -65.29 | X-H torsion
[ 10718 10713 10712 10709 ] final   -3.81 input   66.30 | X-H torsion
[ 10763 10752 10751 10750 ] final -135.08 input  -60.55 | X-H torsion
[ 11005 11000 10999 10996 ] final  -39.49 input  -57.11 | X-H torsion

> <Gold.Protein.ActiveResidues>
 VAL166  LYS551  ARG553  GLY616  TRP617  ASP618  TYR619  PRO620  LYS621  CYS622 
 ASP623  PHE694  ASN695  SER759  ASP760  ASP761  ALA762  ILE779  LEU786  VAL792 
 PHE793  MET794  SER795  GLU796  ALA797  LYS798  CYS799  TRP800  GLU811  SER814 

> <Gold.Protein.RotatedAtoms>
  151.1733  133.4770  159.2593 H   0  0  0  0  0  0  0  0  0  0  0  0  # atno 6907 bound_to 6896
  151.1333  135.0142  159.8602 H   0  0  0  0  0  0  0  0  0  0  0  0  # atno 6908 bound_to 6896
  152.5460  134.1634  159.8620 H   0  0  0  0  0  0  0  0  0  0  0  0  # atno 6909 bound_to 6896
  145.1509  139.3211  143.4567 H   0  0  0  0  0  0  0  0  0  0  0  0  # atno 7974 bound_to 7965
  156.2975  140.2333  156.4449 H   0  0  0  0  0  0  0  0  0  0  0  0  # atno 8008 bound_to 7997
  154.8153  140.0441  157.1392 H   0  0  0  0  0  0  0  0  0  0  0  0  # atno 8009 bound_to 7997
  154.9377  140.3025  155.5139 H   0  0  0  0  0  0  0  0  0  0  0  0  # atno 8010 bound_to 7997
  140.6127  143.8375  150.7083 H   0  0  0  0  0  0  0  0  0  0  0  0  # atno 10167 bound_to 10162
  156.7705  130.5298  149.5768 H   0  0  0  0  0  0  0  0  0  0  0  0  # atno 10718 bound_to 10713
  154.8709  135.3714  154.4840 H   0  0  0  0  0  0  0  0  0  0  0  0  # atno 10763 bound_to 10752
  153.5491  135.7025  153.5605 H   0  0  0  0  0  0  0  0  0  0  0  0  # atno 10764 bound_to 10752
  153.3731  135.4016  155.1767 H   0  0  0  0  0  0  0  0  0  0  0  0  # atno 10765 bound_to 10752
  141.0105  133.6910  156.2193 H   0  0  0  0  0  0  0  0  0  0  0  0  # atno 11005 bound_to 11000
  146.3494  140.1582  142.8591 LP  0  0  0  0  0  0  0  0  0  0  0  0  # atno 17320 bound_to 7965
  145.0432  140.8961  143.5040 LP  0  0  0  0  0  0  0  0  0  0  0  0  # atno 17321 bound_to 7965
  140.1946  143.4008  152.1837 LP  0  0  0  0  0  0  0  0  0  0  0  0  # atno 17342 bound_to 10162
  139.5373  144.7223  151.4849 LP  0  0  0  0  0  0  0  0  0  0  0  0  # atno 17343 bound_to 10162
  156.1281  130.6158  151.0293 LP  0  0  0  0  0  0  0  0  0  0  0  0  # atno 17370 bound_to 10713
  157.6693  131.0865  150.7651 LP  0  0  0  0  0  0  0  0  0  0  0  0  # atno 17371 bound_to 10713
  140.6741  134.4837  157.5588 LP  0  0  0  0  0  0  0  0  0  0  0  0  # atno 17394 bound_to 11000
  139.9087  134.8391  156.1607 LP  0  0  0  0  0  0  0  0  0  0  0  0  # atno 17395 bound_to 11000

$$$$
