AV-unprocessed.smi:1540|AV-procd|sdf|6200|dock4
  -GOLD-   22720 6373D 1   1.00000     0.00000
 Structure written by MMmdl.
 32 32  0  0  0  0  0  0  0  0  2 V2000
  146.8344  142.3445  154.1194 C   0  0  0  0  0  0  0  0  0  0  0  0
  147.5906  141.3125  153.7158 C   0  0  0  0  0  0  0  0  0  0  0  0
  149.0430  141.1160  154.0906 C   0  0  0  0  0  0  0  0  0  0  0  0
  149.2536  139.7915  154.5645 O   0  0  0  0  0  0  0  0  0  0  0  0
  150.5904  139.3083  154.4548 C   0  0  2  0  0  0  0  0  0  0  0  0
  150.5359  137.7752  154.5230 C   0  0  0  0  0  0  0  0  0  0  0  0
  151.4615  139.8836  155.5833 C   0  0  0  0  0  0  0  0  0  0  0  0
  152.6777  139.6944  155.5637 O   0  0  0  0  0  0  0  0  0  0  0  0
  150.7966  140.5734  156.5307 N   0  0  0  0  0  0  0  0  0  0  0  0
  151.2849  141.1812  157.6994 C   0  0  0  0  0  0  0  0  0  0  0  0
  151.1541  142.5032  157.9993 C   0  0  0  0  0  0  0  0  0  0  0  0
  151.6939  143.0823  159.2231 C   0  0  0  0  0  0  0  0  0  0  0  0
  151.6311  144.5629  159.5546 C   0  0  0  0  0  0  0  0  0  0  0  0
  152.2502  145.2666  158.6079 F   0  0  0  0  0  0  0  0  0  0  0  0
  150.3683  144.9851  159.6271 F   0  0  0  0  0  0  0  0  0  0  0  0
  152.2272  144.8183  160.7195 F   0  0  0  0  0  0  0  0  0  0  0  0
  152.3622  142.1505  159.9934 C   0  0  0  0  0  0  0  0  0  0  0  0
  152.5323  140.8284  159.7728 N   0  5  0  0  0  0  0  0  0  0  0  0
  152.0156  140.2956  158.6296 C   0  0  0  0  0  0  0  0  0  0  0  0
  152.1439  139.1009  158.3600 O   0  0  0  0  0  0  0  0  0  0  0  0
  147.2354  143.1190  154.7568 H   0  0  0  0  0  0  0  0  0  0  0  0
  145.8009  142.4269  153.8164 H   0  0  0  0  0  0  0  0  0  0  0  0
  147.1553  140.5562  153.0790 H   0  0  0  0  0  0  0  0  0  0  0  0
  149.6551  141.2978  153.2062 H   0  0  0  0  0  0  0  0  0  0  0  0
  149.3241  141.8545  154.8425 H   0  0  0  0  0  0  0  0  0  0  0  0
  150.9991  139.5943  153.4835 H   0  0  0  0  0  0  0  0  0  0  0  0
  151.5341  137.3405  154.4566 H   0  0  0  0  0  0  0  0  0  0  0  0
  149.9468  137.3729  153.6987 H   0  0  0  0  0  0  0  0  0  0  0  0
  150.0808  137.4299  155.4522 H   0  0  0  0  0  0  0  0  0  0  0  0
  149.8092  140.7132  156.3717 H   0  0  0  0  0  0  0  0  0  0  0  0
  150.6546  143.1762  157.3222 H   0  0  0  0  0  0  0  0  0  0  0  0
  152.8356  142.5249  160.9261 H   0  0  0  0  0  0  0  0  0  0  0  0
  1  2  2  0  0  0  0
  1 21  1  0  0  0  0
  1 22  1  0  0  0  0
  2  3  1  0  0  0  0
  2 23  1  0  0  0  0
  3  4  1  0  0  0  0
  3 24  1  0  0  0  0
  3 25  1  0  0  0  0
  4  5  1  0  0  0  0
  5  6  1  0  0  0  0
  5  7  1  0  0  0  0
  5 26  1  0  0  0  0
  6 27  1  0  0  0  0
  6 28  1  0  0  0  0
  6 29  1  0  0  0  0
  7  8  2  0  0  0  0
  7  9  1  0  0  0  0
  9 10  1  0  0  0  0
  9 30  1  0  0  0  0
 10 19  1  0  0  0  0
 10 11  2  0  0  0  0
 11 12  1  0  0  0  0
 11 31  1  0  0  0  0
 12 13  1  0  0  0  0
 12 17  2  0  0  0  0
 13 14  1  0  0  0  0
 13 15  1  0  0  0  0
 13 16  1  0  0  0  0
 17 18  1  0  0  0  0
 17 32  1  0  0  0  0
 18 19  1  0  0  0  0
 19 20  2  0  0  0  0
M  CHG  1  18  -1
M  END
> <s_m_source_file>
AV-unprocessed.smi

> <i_m_source_file_index>
1540

> <i_lp_mmshare_version>
43012

> <i_f3d_flags>
0

> <s_epik_input>
W0NIMl09W0NIXVtDSDJdT1tDQEhdKFtDSDNdKUMoPU8pW05IXWMxW2NIXWMoQyhGKShGKUYpW2NIXVtuSF1jMT1P

> <s_epik_cmdline>
J2VwaWtfcHl0aG9uJywgJy1waCcsICc3LjAnLCAnLXRuJywgJzgnLCAnLW1hJywgJzIwMCcsICctbWV0YWxfYmluZGluZycsICctaW1hZScsICc8aW5maWxlLm1hZT4nLCAnLW9tYWUnLCAnPG91dGZpbGUubWFlPic=

> <r_epik_Ionization_Penalty>
2.56803

> <r_epik_Ionization_Penalty_Charging>
0.0609694

> <r_epik_Ionization_Penalty_Neutral>
2.50706

> <r_epik_State_Penalty>
2.67253

> <r_epik_Charging_Adjusted_Penalty>
2.7335

> <i_epik_Tot_Q>
-1

> <i_epik_Tot_abs_Q>
1

> <r_epik_Metal_State_Penalty>
0.517713

> <b_epik_Metal_Only>
0

> <s_lp_Force_Field>
OPLS_2005

> <r_lp_Energy>
19.8511

> <b_lp_Chiralities_Consistent>
1

> <s_lp_Variant>
AV-unprocessed.smi:1540-3

> <Gold.Version>
5.8.1

> <Gold.Id.Protein>
6NUR|6NUR_protein|mol2

> <Gold.PLP.Fitness>
48.1307

> <Gold.PLP.PLP>
-47.1005

> <Gold.PLP.part.hbond>
-1.1653

> <Gold.PLP.part.metal>
0.0000

> <Gold.PLP.part.buried>
-5.7645

> <Gold.PLP.part.nonpolar>
-39.6568

> <Gold.PLP.part.repulsive>
0.1826

> <Gold.PLP.ligand.clash>
0.0000

> <Gold.PLP.ligand.torsion>
1.0496

> <Gold.PLP.Chemscore.Hbond>
1.0000

> <Gold.PLP.Chemscore.CHOScore>
0.0000

> <Gold.PLP.Chemscore.Metal>
0.0000

> <Gold.Chemscore.Hbonds>
donor molecule, donor type, donor heavy atom, donor atom, acceptor molecule, acceptor atom, score
      P1  H  7997  8008       L1     8  1.00

> <Gold.PLP.Chemscore.Internal.Correction>
0.1293

> <Gold.Rescore>
     Score         DG    S(hbond)    S(metal)    S(lipo)     H(rot)  DE(clash)    DE(int)     intcor
     11.70     -13.93       0.99        0.00      82.84       1.77       0.33       1.90       ----

> <Gold.Chemscore.Fitness>
11.7010

> <Gold.Chemscore.DG>
-13.9304

> <Gold.Chemscore.ZeroCoef>
-5.4800

> <Gold.Chemscore.Hbond>
0.9886

> <Gold.Chemscore.Metal>
0.0000

> <Gold.Chemscore.Lipo>
82.8405

> <Gold.Chemscore.Internal_Hbond>
0.0000

> <Gold.Chemscore.DEClash>
0.3328

> <Gold.Chemscore.DEInternal>
1.8965

> <Gold.Chemscore.Rot>
1.7750

> <Gold.Chemscore.Internal.Correction>
   9.000000E+99

> <Gold.Chemscore.Hbonds>
donor molecule, donor type, donor heavy atom, donor atom, acceptor molecule, acceptor atom, score
      P1  H  7997  8008       L1     8  0.97

> <Gold.Chemscore.Hbond.Weighted>
-3.3019

> <Gold.Chemscore.Metal.Weighted>
-0.0000

> <Gold.Chemscore.Lipo.Weighted>
-9.6923

> <Gold.Chemscore.Internal_Hbond.Weighted>
0.0000

> <Gold.Chemscore.DEClash.Weighted>
0.3328

> <Gold.Chemscore.DEInternal.Weighted>
1.8965

> <Gold.Chemscore.Rot.Weighted>
4.5439

> <Gold.Chemscore.Internal.Correction.Weighted>
   9.000000E+99

> <Gold.Protein.RotatedTorsions>
[ 6907 6896 6895 6894 ] final   78.71 input  -60.11 | X-H torsion
[ 7974 7965 7964 7962 ] final   36.90 input  175.53 | X-H torsion
[ 8008 7997 7996 7995 ] final  -46.54 input   59.86 | X-H torsion
[ 10167 10162 10161 10158 ] final   24.24 input  -65.29 | X-H torsion
[ 10718 10713 10712 10709 ] final   17.94 input   66.30 | X-H torsion
[ 10763 10752 10751 10750 ] final -155.99 input  -60.55 | X-H torsion
[ 11005 11000 10999 10996 ] final  -40.49 input  -57.11 | X-H torsion

> <Gold.Protein.ActiveResidues>
 VAL166  LYS551  ARG553  GLY616  TRP617  ASP618  TYR619  PRO620  LYS621  CYS622 
 ASP623  PHE694  ASN695  SER759  ASP760  ASP761  ALA762  ILE779  LEU786  VAL792 
 PHE793  MET794  SER795  GLU796  ALA797  LYS798  CYS799  TRP800  GLU811  SER814 

> <Gold.Protein.RotatedAtoms>
  152.5170  134.3623  159.9288 H   0  0  0  0  0  0  0  0  0  0  0  0  # atno 6907 bound_to 6896
  151.3576  133.3895  159.2694 H   0  0  0  0  0  0  0  0  0  0  0  0  # atno 6908 bound_to 6896
  150.9678  134.9074  159.7827 H   0  0  0  0  0  0  0  0  0  0  0  0  # atno 6909 bound_to 6896
  146.1177  139.5960  142.9310 H   0  0  0  0  0  0  0  0  0  0  0  0  # atno 7974 bound_to 7965
  154.4008  140.1369  156.4029 H   0  0  0  0  0  0  0  0  0  0  0  0  # atno 8008 bound_to 7997
  155.7807  140.3481  155.5276 H   0  0  0  0  0  0  0  0  0  0  0  0  # atno 8009 bound_to 7997
  155.8676  140.0966  157.1562 H   0  0  0  0  0  0  0  0  0  0  0  0  # atno 8010 bound_to 7997
  140.5204  144.0012  150.6414 H   0  0  0  0  0  0  0  0  0  0  0  0  # atno 10167 bound_to 10162
  157.0893  130.6421  149.5845 H   0  0  0  0  0  0  0  0  0  0  0  0  # atno 10718 bound_to 10713
  154.7746  135.3155  154.8118 H   0  0  0  0  0  0  0  0  0  0  0  0  # atno 10763 bound_to 10752
  153.8845  135.6831  153.4769 H   0  0  0  0  0  0  0  0  0  0  0  0  # atno 10764 bound_to 10752
  153.1367  135.4756  154.9369 H   0  0  0  0  0  0  0  0  0  0  0  0  # atno 10765 bound_to 10752
  141.0178  133.6877  156.2328 H   0  0  0  0  0  0  0  0  0  0  0  0  # atno 11005 bound_to 11000
  145.5531  141.0411  143.2267 LP  0  0  0  0  0  0  0  0  0  0  0  0  # atno 17320 bound_to 7965
  144.7568  139.7054  143.7250 LP  0  0  0  0  0  0  0  0  0  0  0  0  # atno 17321 bound_to 7965
  140.3359  143.3049  152.0638 LP  0  0  0  0  0  0  0  0  0  0  0  0  # atno 17342 bound_to 10162
  139.4921  144.6476  151.6744 LP  0  0  0  0  0  0  0  0  0  0  0  0  # atno 17343 bound_to 10162
  155.9902  130.4952  150.7248 LP  0  0  0  0  0  0  0  0  0  0  0  0  # atno 17370 bound_to 10713
  157.4734  131.0895  151.0617 LP  0  0  0  0  0  0  0  0  0  0  0  0  # atno 17371 bound_to 10713
  140.6625  134.4953  157.5584 LP  0  0  0  0  0  0  0  0  0  0  0  0  # atno 17394 bound_to 11000
  139.9127  134.8310  156.1470 LP  0  0  0  0  0  0  0  0  0  0  0  0  # atno 17395 bound_to 11000

$$$$
