AV-unprocessed.smi:598|AV-procd|sdf|3025|dock1
  -GOLD-   2262023533D 1   1.00000     0.00000
 Structure written by MMmdl.
 43 44  0  0  0  0  0  0  0  0  3 V2000
  152.5813  143.1453  161.5180 C   0  0  0  0  0  0  0  0  0  0  0  0
  152.8707  143.3490  160.0165 C   0  0  2  0  0  0  0  0  0  0  0  0
  152.3779  144.7255  159.5252 C   0  0  0  0  0  0  0  0  0  0  0  0
  150.8464  144.7892  159.4177 C   0  0  0  0  0  0  0  0  0  0  0  0
  150.3079  143.6718  158.5139 C   0  0  0  0  0  0  0  0  0  0  0  0
  150.7769  142.2776  158.9790 C   0  0  1  0  0  0  0  0  0  0  0  0
  150.3041  141.2639  158.0380 N   0  0  0  0  0  0  0  0  0  0  0  0
  149.0264  141.0714  157.6778 C   0  0  0  0  0  0  0  0  0  0  0  0
  148.0951  141.7617  158.0943 O   0  0  0  0  0  0  0  0  0  0  0  0
  148.7752  139.9347  156.6771 C   0  0  0  0  0  0  0  0  0  0  0  0
  149.9993  139.1991  156.3173 N   0  0  0  0  0  0  0  0  0  0  0  0
  150.4691  138.2452  157.2417 C   0  0  0  0  0  0  0  0  0  0  0  0
  151.5831  137.5202  157.0186 C   0  0  0  0  0  0  0  0  0  0  0  0
  152.0544  136.5493  157.9817 N   0  3  0  0  0  0  0  0  0  0  0  0
  152.8331  135.6785  157.6065 O   0  0  0  0  0  0  0  0  0  0  0  0
  151.6624  136.6233  159.1426 O   0  5  0  0  0  0  0  0  0  0  0  0
  152.2996  137.7494  155.7789 C   0  0  0  0  0  0  0  0  0  0  0  0
  151.8569  138.6625  154.8922 C   0  0  0  0  0  0  0  0  0  0  0  0
  150.6463  139.4529  155.1387 C   0  0  0  0  0  0  0  0  0  0  0  0
  150.2392  140.2920  154.3350 O   0  0  0  0  0  0  0  0  0  0  0  0
  152.3217  142.2195  159.1037 C   0  0  2  0  0  0  0  0  0  0  0  0
  152.8398  140.8272  159.5162 C   0  0  0  0  0  0  0  0  0  0  0  0
  151.5144  143.0726  161.7265 H   0  0  0  0  0  0  0  0  0  0  0  0
  152.9729  143.9767  162.1046 H   0  0  0  0  0  0  0  0  0  0  0  0
  153.0546  142.2404  161.8987 H   0  0  0  0  0  0  0  0  0  0  0  0
  153.9569  143.3505  159.9139 H   0  0  0  0  0  0  0  0  0  0  0  0
  152.7385  145.5150  160.1854 H   0  0  0  0  0  0  0  0  0  0  0  0
  152.8105  144.9324  158.5454 H   0  0  0  0  0  0  0  0  0  0  0  0
  150.3975  144.7104  160.4083 H   0  0  0  0  0  0  0  0  0  0  0  0
  150.5448  145.7597  159.0230 H   0  0  0  0  0  0  0  0  0  0  0  0
  149.2183  143.7150  158.4934 H   0  0  0  0  0  0  0  0  0  0  0  0
  150.6414  143.8489  157.4904 H   0  0  0  0  0  0  0  0  0  0  0  0
  150.3465  142.0719  159.9606 H   0  0  0  0  0  0  0  0  0  0  0  0
  151.0041  140.6545  157.6405 H   0  0  0  0  0  0  0  0  0  0  0  0
  148.0356  139.2602  157.1101 H   0  0  0  0  0  0  0  0  0  0  0  0
  148.3017  140.3374  155.7794 H   0  0  0  0  0  0  0  0  0  0  0  0
  149.8698  138.1547  158.1361 H   0  0  0  0  0  0  0  0  0  0  0  0
  153.1965  137.1913  155.5527 H   0  0  0  0  0  0  0  0  0  0  0  0
  152.4071  138.8176  153.9756 H   0  0  0  0  0  0  0  0  0  0  0  0
  152.7276  142.4089  158.1083 H   0  0  0  0  0  0  0  0  0  0  0  0
  152.3876  140.4908  160.4495 H   0  0  0  0  0  0  0  0  0  0  0  0
  153.9215  140.8353  159.6513 H   0  0  0  0  0  0  0  0  0  0  0  0
  152.6175  140.0764  158.7577 H   0  0  0  0  0  0  0  0  0  0  0  0
  1  2  1  0  0  0  0
  1 23  1  0  0  0  0
  1 24  1  0  0  0  0
  1 25  1  0  0  0  0
  2 21  1  0  0  0  0
  2  3  1  0  0  0  0
  2 26  1  0  0  0  0
  3  4  1  0  0  0  0
  3 27  1  0  0  0  0
  3 28  1  0  0  0  0
  4  5  1  0  0  0  0
  4 29  1  0  0  0  0
  4 30  1  0  0  0  0
  5  6  1  0  0  0  0
  5 31  1  0  0  0  0
  5 32  1  0  0  0  0
  6  7  1  0  0  0  0
  6 21  1  0  0  0  0
  6 33  1  0  0  0  0
  7  8  1  0  0  0  0
  7 34  1  0  0  0  0
  8  9  2  0  0  0  0
  8 10  1  0  0  0  0
 10 11  1  0  0  0  0
 10 35  1  0  0  0  0
 10 36  1  0  0  0  0
 11 19  1  0  0  0  0
 11 12  1  0  0  0  0
 12 13  2  0  0  0  0
 12 37  1  0  0  0  0
 13 14  1  0  0  0  0
 13 17  1  0  0  0  0
 14 15  2  0  0  0  0
 14 16  1  0  0  0  0
 17 18  2  0  0  0  0
 17 38  1  0  0  0  0
 18 19  1  0  0  0  0
 18 39  1  0  0  0  0
 19 20  2  0  0  0  0
 21 22  1  0  0  0  0
 21 40  1  0  0  0  0
 22 41  1  0  0  0  0
 22 42  1  0  0  0  0
 22 43  1  0  0  0  0
M  CHG  1  14   1
M  CHG  1  16  -1
M  END
> <s_m_source_file>
AV-unprocessed.smi

> <i_m_source_file_index>
598

> <i_lp_mmshare_version>
43012

> <i_f3d_flags>
0

> <s_epik_input>
W0NIM11bQ0BASF0xW0NIMl1bQ0gyXVtDSDJdW0NASF0oW0NASF0xW0NIM10pW05IXUMoPU8pW0NIMl1uMltjSF1jKFtOK10oPU8pW08tXSlbY0hdW2NIXWMyPU8=

> <s_epik_cmdline>
J2VwaWtfcHl0aG9uJywgJy1waCcsICc3LjAnLCAnLXRuJywgJzgnLCAnLW1hJywgJzIwMCcsICctbWV0YWxfYmluZGluZycsICctaW1hZScsICc8aW5maWxlLm1hZT4nLCAnLW9tYWUnLCAnPG91dGZpbGUubWFlPic=

> <r_lp_tautomer_probability>
1

> <r_epik_Ionization_Penalty>
1.91291e-08

> <r_epik_Ionization_Penalty_Charging>
8.21931e-11

> <r_epik_Ionization_Penalty_Neutral>
1.90469e-08

> <r_epik_State_Penalty>
-0

> <r_epik_Charging_Adjusted_Penalty>
8.21931e-11

> <i_epik_Tot_Q>
0

> <i_epik_Tot_abs_Q>
2

> <r_epik_Metal_State_Penalty>
-0

> <b_epik_Metal_Only>
0

> <s_lp_Force_Field>
OPLS_2005

> <r_lp_Energy>
25.21

> <b_lp_Chiralities_Consistent>
1

> <s_lp_Variant>
AV-unprocessed.smi:598-5

> <Gold.Version>
5.8.1

> <Gold.Id.Protein>
6NUR|6NUR_protein|mol2

> <Gold.PLP.Fitness>
45.4483

> <Gold.PLP.PLP>
-37.8924

> <Gold.PLP.part.hbond>
-3.3588

> <Gold.PLP.part.metal>
0.0000

> <Gold.PLP.part.buried>
-5.6601

> <Gold.PLP.part.nonpolar>
-30.7231

> <Gold.PLP.part.repulsive>
0.3002

> <Gold.PLP.ligand.clash>
0.0000

> <Gold.PLP.ligand.torsion>
0.4455

> <Gold.PLP.Chemscore.Hbond>
2.8080

> <Gold.PLP.Chemscore.CHOScore>
0.0000

> <Gold.PLP.Chemscore.Metal>
0.0000

> <Gold.Chemscore.Hbonds>
donor molecule, donor type, donor heavy atom, donor atom, acceptor molecule, acceptor atom, score
      P1  H  6896  6909       L1    16  0.91
      P1  H  7989  7998       L1    20  0.99
      P1  H 10752 10763       L1    15  0.10

> <Gold.PLP.Chemscore.Internal.Correction>
0.0228

> <Gold.Rescore>
     Score         DG    S(hbond)    S(metal)    S(lipo)     H(rot)  DE(clash)    DE(int)     intcor
     21.45     -22.09       2.47        0.00     105.21       1.54       0.10       0.54       ----

> <Gold.Chemscore.Fitness>
21.4527

> <Gold.Chemscore.DG>
-22.0886

> <Gold.Chemscore.ZeroCoef>
-5.4800

> <Gold.Chemscore.Hbond>
2.4670

> <Gold.Chemscore.Metal>
0.0000

> <Gold.Chemscore.Lipo>
105.2082

> <Gold.Chemscore.Internal_Hbond>
0.0000

> <Gold.Chemscore.DEClash>
0.0975

> <Gold.Chemscore.DEInternal>
0.5384

> <Gold.Chemscore.Rot>
1.5393

> <Gold.Chemscore.Internal.Correction>
   9.000000E+99

> <Gold.Chemscore.Hbonds>
donor molecule, donor type, donor heavy atom, donor atom, acceptor molecule, acceptor atom, score
      P1  H  6896  6909       L1    16  0.80
      P1  H  7989  7998       L1    20  0.57
      P1  H 10752 10763       L1    15  0.13

> <Gold.Chemscore.Hbond.Weighted>
-8.2399

> <Gold.Chemscore.Metal.Weighted>
-0.0000

> <Gold.Chemscore.Lipo.Weighted>
-12.3094

> <Gold.Chemscore.Internal_Hbond.Weighted>
0.0000

> <Gold.Chemscore.DEClash.Weighted>
0.0975

> <Gold.Chemscore.DEInternal.Weighted>
0.5384

> <Gold.Chemscore.Rot.Weighted>
3.9407

> <Gold.Chemscore.Internal.Correction.Weighted>
   9.000000E+99

> <Gold.Protein.RotatedTorsions>
[ 6907 6896 6895 6894 ] final  127.08 input  -60.11 | X-H torsion
[ 7974 7965 7964 7962 ] final   59.53 input  175.53 | X-H torsion
[ 8008 7997 7996 7995 ] final   84.53 input   59.86 | X-H torsion
[ 10167 10162 10161 10158 ] final -128.69 input  -65.29 | X-H torsion
[ 10718 10713 10712 10709 ] final   70.65 input   66.30 | X-H torsion
[ 10763 10752 10751 10750 ] final  124.12 input  -60.55 | X-H torsion
[ 11005 11000 10999 10996 ] final -163.24 input  -57.11 | X-H torsion

> <Gold.Protein.ActiveResidues>
 VAL166  LYS551  ARG553  GLY616  TRP617  ASP618  TYR619  PRO620  LYS621  CYS622 
 ASP623  PHE694  ASN695  SER759  ASP760  ASP761  ALA762  ILE779  LEU786  VAL792 
 PHE793  MET794  SER795  GLU796  ALA797  LYS798  CYS799  TRP800  GLU811  SER814 

> <Gold.Protein.RotatedAtoms>
  152.3845  133.6592  159.6187 H   0  0  0  0  0  0  0  0  0  0  0  0  # atno 6907 bound_to 6896
  150.7767  133.9058  159.3363 H   0  0  0  0  0  0  0  0  0  0  0  0  # atno 6908 bound_to 6896
  151.6857  135.0956  160.0275 H   0  0  0  0  0  0  0  0  0  0  0  0  # atno 6909 bound_to 6896
  145.9061  139.3618  143.0563 H   0  0  0  0  0  0  0  0  0  0  0  0  # atno 7974 bound_to 7965
  155.9382  140.3410  155.6305 H   0  0  0  0  0  0  0  0  0  0  0  0  # atno 8008 bound_to 7997
  155.7072  140.0767  157.2404 H   0  0  0  0  0  0  0  0  0  0  0  0  # atno 8009 bound_to 7997
  154.4097  140.1629  156.2244 H   0  0  0  0  0  0  0  0  0  0  0  0  # atno 8010 bound_to 7997
  139.9476  143.6092  152.2485 H   0  0  0  0  0  0  0  0  0  0  0  0  # atno 10167 bound_to 10162
  157.6411  130.9488  150.0680 H   0  0  0  0  0  0  0  0  0  0  0  0  # atno 10718 bound_to 10713
  153.6564  135.3354  155.3114 H   0  0  0  0  0  0  0  0  0  0  0  0  # atno 10763 bound_to 10752
  154.8525  135.4353  154.1850 H   0  0  0  0  0  0  0  0  0  0  0  0  # atno 10764 bound_to 10752
  153.2806  135.7008  153.7464 H   0  0  0  0  0  0  0  0  0  0  0  0  # atno 10765 bound_to 10752
  140.6003  134.4954  157.5204 H   0  0  0  0  0  0  0  0  0  0  0  0  # atno 11005 bound_to 11000
  145.8730  140.9408  143.0640 LP  0  0  0  0  0  0  0  0  0  0  0  0  # atno 17320 bound_to 7965
  144.6739  140.0680  143.7474 LP  0  0  0  0  0  0  0  0  0  0  0  0  # atno 17321 bound_to 7965
  139.6654  144.7662  151.1883 LP  0  0  0  0  0  0  0  0  0  0  0  0  # atno 17342 bound_to 10162
  140.7592  143.5946  150.8761 LP  0  0  0  0  0  0  0  0  0  0  0  0  # atno 17343 bound_to 10162
  156.1693  130.3646  149.9188 LP  0  0  0  0  0  0  0  0  0  0  0  0  # atno 17370 bound_to 10713
  156.7167  130.8991  151.3614 LP  0  0  0  0  0  0  0  0  0  0  0  0  # atno 17371 bound_to 10713
  139.9235  134.8101  156.1138 LP  0  0  0  0  0  0  0  0  0  0  0  0  # atno 17394 bound_to 11000
  141.0876  133.6727  156.2471 LP  0  0  0  0  0  0  0  0  0  0  0  0  # atno 17395 bound_to 11000

$$$$
