AV-unprocessed.smi:290|AV-procd|sdf|2245|dock2
  -GOLD-   2262022123D 1   1.00000     0.00000
 Structure written by MMmdl.
 59 62  0  0  0  0  0  0  0  0  2 V2000
  152.3707  143.2368  161.8059 C   0  0  0  0  0  0  0  0  0  0  0  0
  152.5244  143.7948  160.3824 C   0  0  2  0  0  0  0  0  0  0  0  0
  151.9373  145.0907  160.2698 O   0  0  0  0  0  0  0  0  0  0  0  0
  151.1269  145.1693  159.1031 C   0  0  0  0  0  0  0  0  0  0  0  0
  151.5895  144.0165  158.2191 C   0  0  0  0  0  0  0  0  0  0  0  0
  151.9343  142.9387  159.2381 C   0  0  2  0  0  0  0  0  0  0  0  0
  150.7315  142.3161  159.6580 O   0  0  0  0  0  0  0  0  0  0  0  0
  152.8471  141.7976  158.7180 C   0  0  0  0  0  0  0  0  0  0  0  0
  152.1454  140.6595  158.1443 N   0  0  0  0  0  0  0  0  0  0  0  0
  151.1790  140.6940  157.1666 C   0  0  0  0  0  0  0  0  0  0  0  0
  150.7025  139.5313  156.8172 N   0  0  0  0  0  0  0  0  0  0  0  0
  151.4070  138.6167  157.5936 C   0  0  0  0  0  0  0  0  0  0  0  0
  151.4035  137.1945  157.7242 C   0  0  0  0  0  0  0  0  0  0  0  0
  150.6025  136.3470  157.0224 N   0  0  0  0  0  0  0  0  0  0  0  0
  150.8724  134.9161  156.9357 C   0  0  0  0  0  0  0  0  0  0  0  0
  149.8871  134.3698  155.8942 C   0  0  0  0  0  0  0  0  0  0  0  0
  148.8373  135.4861  155.7512 C   0  0  2  0  0  0  0  0  0  0  0  0
  148.0343  135.4738  154.4914 N   0  3  2  0  0  0  0  0  0  0  0  0
  146.9418  136.4807  154.5256 C   0  0  0  0  0  0  0  0  0  0  0  0
  147.5313  134.1217  154.1151 C   0  0  0  0  0  0  0  0  0  0  0  0
  148.5130  133.3339  153.2286 C   0  0  0  0  0  0  0  0  0  0  0  0
  147.9694  132.0709  152.9066 O   0  0  0  0  0  0  0  0  0  0  0  0
  149.6891  136.7560  155.9649 C   0  0  2  0  0  0  0  0  0  0  0  0
  150.4663  137.2072  154.7059 C   0  0  0  0  0  0  0  0  0  0  0  0
  152.2593  136.6562  158.6332 N   0  0  0  0  0  0  0  0  0  0  0  0
  153.0714  137.4353  159.3522 C   0  0  0  0  0  0  0  0  0  0  0  0
  153.1871  138.7628  159.3286 N   0  0  0  0  0  0  0  0  0  0  0  0
  152.3238  139.3172  158.4311 C   0  0  0  0  0  0  0  0  0  0  0  0
  148.1436  135.3939  156.5898 H   0  0  0  0  0  0  0  0  0  0  0  0
  149.0426  137.5588  156.3157 H   0  0  0  0  0  0  0  0  0  0  0  0
  152.8170  142.2454  161.8883 H   0  0  0  0  0  0  0  0  0  0  0  0
  151.3233  143.1623  162.0990 H   0  0  0  0  0  0  0  0  0  0  0  0
  152.8667  143.8842  162.5290 H   0  0  0  0  0  0  0  0  0  0  0  0
  153.5847  143.9594  160.1975 H   0  0  0  0  0  0  0  0  0  0  0  0
  150.0831  145.0375  159.3904 H   0  0  0  0  0  0  0  0  0  0  0  0
  151.2233  146.1384  158.6135 H   0  0  0  0  0  0  0  0  0  0  0  0
  150.8418  143.7076  157.4877 H   0  0  0  0  0  0  0  0  0  0  0  0
  152.4763  144.3384  157.6740 H   0  0  0  0  0  0  0  0  0  0  0  0
  150.5172  141.6316  159.0428 H   0  0  0  0  0  0  0  0  0  0  0  0
  153.5312  142.1856  157.9621 H   0  0  0  0  0  0  0  0  0  0  0  0
  153.4752  141.4267  159.5294 H   0  0  0  0  0  0  0  0  0  0  0  0
  150.8305  141.6159  156.7235 H   0  0  0  0  0  0  0  0  0  0  0  0
  151.9046  134.7150  156.6454 H   0  0  0  0  0  0  0  0  0  0  0  0
  150.6951  134.4593  157.9101 H   0  0  0  0  0  0  0  0  0  0  0  0
  150.4047  134.2078  154.9477 H   0  0  0  0  0  0  0  0  0  0  0  0
  149.4588  133.4180  156.2097 H   0  0  0  0  0  0  0  0  0  0  0  0
  146.1938  136.2172  155.2744 H   0  0  0  0  0  0  0  0  0  0  0  0
  146.4418  136.5677  153.5625 H   0  0  0  0  0  0  0  0  0  0  0  0
  147.3140  137.4762  154.7636 H   0  0  0  0  0  0  0  0  0  0  0  0
  147.3473  133.5120  154.9978 H   0  0  0  0  0  0  0  0  0  0  0  0
  146.5683  134.2227  153.6125 H   0  0  0  0  0  0  0  0  0  0  0  0
  148.6788  133.8774  152.2981 H   0  0  0  0  0  0  0  0  0  0  0  0
  149.4914  133.2112  153.6905 H   0  0  0  0  0  0  0  0  0  0  0  0
  148.3199  131.7949  152.0727 H   0  0  0  0  0  0  0  0  0  0  0  0
  149.7941  137.5067  153.9025 H   0  0  0  0  0  0  0  0  0  0  0  0
  151.1111  136.4180  154.3190 H   0  0  0  0  0  0  0  0  0  0  0  0
  151.1026  138.0654  154.9203 H   0  0  0  0  0  0  0  0  0  0  0  0
  153.7198  136.9213  160.0466 H   0  0  0  0  0  0  0  0  0  0  0  0
  148.6688  135.7491  153.7547 H   0  0  0  0  0  0  0  0  0  0  0  0
  1  2  1  0  0  0  0
  1 31  1  0  0  0  0
  1 32  1  0  0  0  0
  1 33  1  0  0  0  0
  2  6  1  0  0  0  0
  2  3  1  0  0  0  0
  2 34  1  0  0  0  0
  3  4  1  0  0  0  0
  4  5  1  0  0  0  0
  4 35  1  0  0  0  0
  4 36  1  0  0  0  0
  5  6  1  0  0  0  0
  5 37  1  0  0  0  0
  5 38  1  0  0  0  0
  6  7  1  0  0  0  0
  6  8  1  0  0  0  0
  7 39  1  0  0  0  0
  8  9  1  0  0  0  0
  8 40  1  0  0  0  0
  8 41  1  0  0  0  0
  9 28  1  0  0  0  0
  9 10  1  0  0  0  0
 10 11  2  0  0  0  0
 10 42  1  0  0  0  0
 11 12  1  0  0  0  0
 12 28  2  0  0  0  0
 12 13  1  0  0  0  0
 13 14  1  0  0  0  0
 13 25  2  0  0  0  0
 14 23  1  0  0  0  0
 14 15  1  0  0  0  0
 15 16  1  0  0  0  0
 15 43  1  0  0  0  0
 15 44  1  0  0  0  0
 16 17  1  0  0  0  0
 16 45  1  0  0  0  0
 16 46  1  0  0  0  0
 17 29  1  0  0  0  0
 17 18  1  0  0  0  0
 17 23  1  0  0  0  0
 18 19  1  0  0  0  0
 18 20  1  0  0  0  0
 18 59  1  0  0  0  0
 19 47  1  0  0  0  0
 19 48  1  0  0  0  0
 19 49  1  0  0  0  0
 20 21  1  0  0  0  0
 20 50  1  0  0  0  0
 20 51  1  0  0  0  0
 21 22  1  0  0  0  0
 21 52  1  0  0  0  0
 21 53  1  0  0  0  0
 22 54  1  0  0  0  0
 23 30  1  0  0  0  0
 23 24  1  0  0  0  0
 24 55  1  0  0  0  0
 24 56  1  0  0  0  0
 24 57  1  0  0  0  0
 25 26  1  0  0  0  0
 26 27  2  0  0  0  0
 26 58  1  0  0  0  0
 27 28  1  0  0  0  0
M  CHG  1  18   1
M  END
> <s_m_source_file>
AV-unprocessed.smi

> <i_m_source_file_index>
290

> <i_lp_mmshare_version>
43012

> <i_f3d_flags>
0

> <s_epik_input>
W0NIMl0xW0NIMl1PW0NAQEhdKFtDSDNdKVtDQEBdMShbT0hdKVtDSDJdbihbY0hdbjIpYyhjMjMpbltjSF1uYzNONFtDSDJdW0NIMl1bQ0BIXShbQ0BIXTRbQ0gzXSlOKFtDSDNdKVtDSDJdW0NIMl1bT0hd

> <s_epik_cmdline>
J2VwaWtfcHl0aG9uJywgJy1waCcsICc3LjAnLCAnLXRuJywgJzgnLCAnLW1hJywgJzIwMCcsICctbWV0YWxfYmluZGluZycsICctaW1hZScsICc8aW5maWxlLm1hZT4nLCAnLW9tYWUnLCAnPG91dGZpbGUubWFlPic=

> <r_lp_tautomer_probability>
1

> <r_epik_Ionization_Penalty>
0.0036983

> <r_epik_Ionization_Penalty_Charging>
0.0032725

> <r_epik_Ionization_Penalty_Neutral>
0.000425798

> <r_epik_State_Penalty>
-0

> <r_epik_Charging_Adjusted_Penalty>
0.0032725

> <i_epik_Tot_Q>
1

> <i_epik_Tot_abs_Q>
1

> <r_epik_Metal_State_Penalty>
-0

> <b_epik_Metal_Only>
0

> <s_lp_Force_Field>
OPLS_2005

> <r_lp_Energy>
66.7181

> <b_lp_Chiralities_Consistent>
1

> <s_lp_Variant>
AV-unprocessed.smi:290-31

> <Gold.Version>
5.8.1

> <Gold.Id.Protein>
6NUR|6NUR_protein|mol2

> <Gold.PLP.Fitness>
50.2713

> <Gold.PLP.PLP>
-42.7805

> <Gold.PLP.part.hbond>
-4.0000

> <Gold.PLP.part.metal>
0.0000

> <Gold.PLP.part.buried>
-4.4348

> <Gold.PLP.part.nonpolar>
-34.7580

> <Gold.PLP.part.repulsive>
0.1384

> <Gold.PLP.ligand.clash>
0.0000

> <Gold.PLP.ligand.torsion>
1.2593

> <Gold.PLP.Chemscore.Hbond>
3.2576

> <Gold.PLP.Chemscore.CHOScore>
0.0000

> <Gold.PLP.Chemscore.Metal>
0.0000

> <Gold.Chemscore.Hbonds>
donor molecule, donor type, donor heavy atom, donor atom, acceptor molecule, acceptor atom, score
      L1  H    18    59       P1  7948  1.98
      L1  H    22    54       P1 10747  0.78
      P1  H  6896  6907       L1    25  0.57

> <Gold.PLP.Chemscore.Internal.Correction>
0.2365

> <Gold.Rescore>
     Score         DG    S(hbond)    S(metal)    S(lipo)     H(rot)  DE(clash)    DE(int)     intcor
     13.24     -16.28       2.12        0.00     105.02       3.35       0.25       2.80       ----

> <Gold.Chemscore.Fitness>
13.2375

> <Gold.Chemscore.DG>
-16.2806

> <Gold.Chemscore.ZeroCoef>
-5.4800

> <Gold.Chemscore.Hbond>
2.1237

> <Gold.Chemscore.Metal>
0.0000

> <Gold.Chemscore.Lipo>
105.0249

> <Gold.Chemscore.Internal_Hbond>
0.0000

> <Gold.Chemscore.DEClash>
0.2472

> <Gold.Chemscore.DEInternal>
2.7959

> <Gold.Chemscore.Rot>
3.3518

> <Gold.Chemscore.Internal.Correction>
   9.000000E+99

> <Gold.Chemscore.Hbonds>
donor molecule, donor type, donor heavy atom, donor atom, acceptor molecule, acceptor atom, score
      L1  H    18    59       P1  7948  0.92
      L1  H    22    54       P1 10747  0.77
      P1  H  6896  6907       L1    25  0.28

> <Gold.Chemscore.Hbond.Weighted>
-7.0933

> <Gold.Chemscore.Metal.Weighted>
-0.0000

> <Gold.Chemscore.Lipo.Weighted>
-12.2879

> <Gold.Chemscore.Internal_Hbond.Weighted>
0.0000

> <Gold.Chemscore.DEClash.Weighted>
0.2472

> <Gold.Chemscore.DEInternal.Weighted>
2.7959

> <Gold.Chemscore.Rot.Weighted>
8.5806

> <Gold.Chemscore.Internal.Correction.Weighted>
   9.000000E+99

> <Gold.Protein.RotatedTorsions>
[ 6907 6896 6895 6894 ] final    2.70 input  -60.11 | X-H torsion
[ 7974 7965 7964 7962 ] final  -71.81 input  175.53 | X-H torsion
[ 8008 7997 7996 7995 ] final -151.93 input   59.86 | X-H torsion
[ 10167 10162 10161 10158 ] final -176.08 input  -65.29 | X-H torsion
[ 10718 10713 10712 10709 ] final   93.09 input   66.30 | X-H torsion
[ 10763 10752 10751 10750 ] final  102.09 input  -60.55 | X-H torsion
[ 11005 11000 10999 10996 ] final  114.77 input  -57.11 | X-H torsion

> <Gold.Protein.ActiveResidues>
 VAL166  LYS551  ARG553  GLY616  TRP617  ASP618  TYR619  PRO620  LYS621  CYS622 
 ASP623  PHE694  ASN695  SER759  ASP760  ASP761  ALA762  ILE779  LEU786  VAL792 
 PHE793  MET794  SER795  GLU796  ALA797  LYS798  CYS799  TRP800  GLU811  SER814 

> <Gold.Protein.RotatedAtoms>
  151.6131  135.1038  160.0085 H   0  0  0  0  0  0  0  0  0  0  0  0  # atno 6907 bound_to 6896
  152.4198  133.7093  159.6480 H   0  0  0  0  0  0  0  0  0  0  0  0  # atno 6908 bound_to 6896
  150.8085  133.8391  159.3215 H   0  0  0  0  0  0  0  0  0  0  0  0  # atno 6909 bound_to 6896
  145.6732  140.9214  143.0871 H   0  0  0  0  0  0  0  0  0  0  0  0  # atno 7974 bound_to 7965
  155.6472  140.0708  157.2599 H   0  0  0  0  0  0  0  0  0  0  0  0  # atno 8008 bound_to 7997
  154.4170  140.1740  156.1685 H   0  0  0  0  0  0  0  0  0  0  0  0  # atno 8009 bound_to 7997
  155.9807  140.3354  155.6663 H   0  0  0  0  0  0  0  0  0  0  0  0  # atno 8010 bound_to 7997
  139.5548  144.2018  152.1139 H   0  0  0  0  0  0  0  0  0  0  0  0  # atno 10167 bound_to 10162
  157.6956  131.0466  150.3980 H   0  0  0  0  0  0  0  0  0  0  0  0  # atno 10718 bound_to 10713
  153.3350  135.4022  155.1526 H   0  0  0  0  0  0  0  0  0  0  0  0  # atno 10763 bound_to 10752
  154.8631  135.3620  154.5420 H   0  0  0  0  0  0  0  0  0  0  0  0  # atno 10764 bound_to 10752
  153.5861  135.7075  153.5502 H   0  0  0  0  0  0  0  0  0  0  0  0  # atno 10765 bound_to 10752
  139.8990  134.9573  156.6943 H   0  0  0  0  0  0  0  0  0  0  0  0  # atno 11005 bound_to 11000
  144.7050  139.8600  143.7433 LP  0  0  0  0  0  0  0  0  0  0  0  0  # atno 17320 bound_to 7965
  146.1027  139.4024  143.0337 LP  0  0  0  0  0  0  0  0  0  0  0  0  # atno 17321 bound_to 7965
  140.1520  144.5106  150.6682 LP  0  0  0  0  0  0  0  0  0  0  0  0  # atno 17342 bound_to 10162
  140.6818  143.2330  151.5364 LP  0  0  0  0  0  0  0  0  0  0  0  0  # atno 17343 bound_to 10162
  156.4377  130.3985  149.6718 LP  0  0  0  0  0  0  0  0  0  0  0  0  # atno 17370 bound_to 10713
  156.3913  130.7628  151.2629 LP  0  0  0  0  0  0  0  0  0  0  0  0  # atno 17371 bound_to 10713
  140.7201  133.9148  155.8141 LP  0  0  0  0  0  0  0  0  0  0  0  0  # atno 17394 bound_to 11000
  141.0234  134.0857  157.4095 LP  0  0  0  0  0  0  0  0  0  0  0  0  # atno 17395 bound_to 11000

$$$$
