AV-unprocessed.smi:1521|AV-procd|sdf|6133|dock4
  -GOLD-   22720 6273D 1   1.00000     0.00000
 Structure written by MMmdl.
 35 36  0  0  0  0  0  0  0  0  2 V2000
  146.6860  133.1946  154.3250 O   0  0  0  0  0  0  0  0  0  0  0  0
  147.4271  134.0536  153.8490 C   0  0  0  0  0  0  0  0  0  0  0  0
  147.0246  134.9394  152.9268 N   0  0  0  0  0  0  0  0  0  0  0  0
  145.6734  135.0387  152.3846 C   0  0  0  0  0  0  0  0  0  0  0  0
  145.5217  134.2181  151.0920 C   0  0  1  0  0  0  0  0  0  0  0  0
  146.1373  132.8110  151.2269 C   0  0  0  0  0  0  0  0  0  0  0  0
  145.9358  132.0922  150.0170 O   0  0  0  0  0  0  0  0  0  0  0  0
  144.5524  131.9524  149.7236 C   0  0  0  0  0  0  0  0  0  0  0  0
  143.9249  133.3495  149.5925 C   0  0  0  0  0  0  0  0  0  0  0  0
  144.1362  134.0637  150.8023 O   0  0  0  0  0  0  0  0  0  0  0  0
  148.7195  134.2542  154.1655 N   0  0  0  0  0  0  0  0  0  0  0  0
  149.5435  133.5806  155.0851 C   0  0  0  0  0  0  0  0  0  0  0  0
  150.0716  132.3376  154.9060 C   0  0  0  0  0  0  0  0  0  0  0  0
  150.9181  131.6974  155.9053 C   0  0  0  0  0  0  0  0  0  0  0  0
  151.5891  130.3501  155.7037 C   0  0  0  0  0  0  0  0  0  0  0  0
  152.9150  130.4782  155.6470 F   0  0  0  0  0  0  0  0  0  0  0  0
  151.2938  129.5398  156.7193 F   0  0  0  0  0  0  0  0  0  0  0  0
  151.1740  129.7726  154.5761 F   0  0  0  0  0  0  0  0  0  0  0  0
  151.1261  132.5009  157.0093 C   0  0  0  0  0  0  0  0  0  0  0  0
  150.6325  133.7306  157.2712 N   0  5  0  0  0  0  0  0  0  0  0  0
  149.8377  134.3175  156.3324 C   0  0  0  0  0  0  0  0  0  0  0  0
  149.3636  135.4414  156.5037 O   0  0  0  0  0  0  0  0  0  0  0  0
  147.6991  135.6107  152.5904 H   0  0  0  0  0  0  0  0  0  0  0  0
  144.9907  134.6556  153.1434 H   0  0  0  0  0  0  0  0  0  0  0  0
  145.3929  136.0799  152.2172 H   0  0  0  0  0  0  0  0  0  0  0  0
  146.0097  134.7490  150.2723 H   0  0  0  0  0  0  0  0  0  0  0  0
  147.2081  132.8814  151.4182 H   0  0  0  0  0  0  0  0  0  0  0  0
  145.6962  132.2679  152.0644 H   0  0  0  0  0  0  0  0  0  0  0  0
  144.4384  131.3955  148.7937 H   0  0  0  0  0  0  0  0  0  0  0  0
  144.0576  131.3764  150.5070 H   0  0  0  0  0  0  0  0  0  0  0  0
  144.3556  133.8948  148.7511 H   0  0  0  0  0  0  0  0  0  0  0  0
  142.8534  133.2692  149.4097 H   0  0  0  0  0  0  0  0  0  0  0  0
  149.1789  135.0161  153.6886 H   0  0  0  0  0  0  0  0  0  0  0  0
  149.8826  131.7738  154.0088 H   0  0  0  0  0  0  0  0  0  0  0  0
  151.7933  132.0959  157.7998 H   0  0  0  0  0  0  0  0  0  0  0  0
  1  2  2  0  0  0  0
  2  3  1  0  0  0  0
  2 11  1  0  0  0  0
  3  4  1  0  0  0  0
  3 23  1  0  0  0  0
  4  5  1  0  0  0  0
  4 24  1  0  0  0  0
  4 25  1  0  0  0  0
  5 10  1  0  0  0  0
  5  6  1  0  0  0  0
  5 26  1  0  0  0  0
  6  7  1  0  0  0  0
  6 27  1  0  0  0  0
  6 28  1  0  0  0  0
  7  8  1  0  0  0  0
  8  9  1  0  0  0  0
  8 29  1  0  0  0  0
  8 30  1  0  0  0  0
  9 10  1  0  0  0  0
  9 31  1  0  0  0  0
  9 32  1  0  0  0  0
 11 12  1  0  0  0  0
 11 33  1  0  0  0  0
 12 21  1  0  0  0  0
 12 13  2  0  0  0  0
 13 14  1  0  0  0  0
 13 34  1  0  0  0  0
 14 15  1  0  0  0  0
 14 19  2  0  0  0  0
 15 16  1  0  0  0  0
 15 17  1  0  0  0  0
 15 18  1  0  0  0  0
 19 20  1  0  0  0  0
 19 35  1  0  0  0  0
 20 21  1  0  0  0  0
 21 22  2  0  0  0  0
M  CHG  1  20  -1
M  END
> <s_m_source_file>
AV-unprocessed.smi

> <i_m_source_file_index>
1521

> <i_lp_mmshare_version>
43012

> <i_f3d_flags>
0

> <s_epik_input>
Tz1jMVtuSF1bY0hdYyhDKEYpKEYpRilbY0hdYzFbTkhdQyg9TylbTkhdW0NIMl1bQ0BASF0yW0NIMl1PW0NIMl1bQ0gyXU8y

> <s_epik_cmdline>
J2VwaWtfcHl0aG9uJywgJy1waCcsICc3LjAnLCAnLXRuJywgJzgnLCAnLW1hJywgJzIwMCcsICctbWV0YWxfYmluZGluZycsICctaW1hZScsICc8aW5maWxlLm1hZT4nLCAnLW9tYWUnLCAnPG91dGZpbGUubWFlPic=

> <r_lp_tautomer_probability>
1

> <r_epik_Ionization_Penalty>
3.1412

> <r_epik_Ionization_Penalty_Charging>
0.17015

> <r_epik_Ionization_Penalty_Neutral>
2.97105

> <r_epik_State_Penalty>
2.96707

> <r_epik_Charging_Adjusted_Penalty>
3.13722

> <i_epik_Tot_Q>
-1

> <i_epik_Tot_abs_Q>
1

> <r_epik_Metal_State_Penalty>
0.451298

> <b_epik_Metal_Only>
1

> <s_lp_Force_Field>
OPLS_2005

> <r_lp_Energy>
21.3

> <b_lp_Chiralities_Consistent>
1

> <s_lp_Variant>
AV-unprocessed.smi:1521-4

> <Gold.Version>
5.8.1

> <Gold.Id.Protein>
6NUR|6NUR_protein|mol2

> <Gold.PLP.Fitness>
38.8581

> <Gold.PLP.PLP>
-31.1389

> <Gold.PLP.part.hbond>
-2.8946

> <Gold.PLP.part.metal>
0.0000

> <Gold.PLP.part.buried>
-2.8584

> <Gold.PLP.part.nonpolar>
-26.6358

> <Gold.PLP.part.repulsive>
0.4332

> <Gold.PLP.ligand.clash>
0.0000

> <Gold.PLP.ligand.torsion>
1.0608

> <Gold.PLP.Chemscore.Hbond>
3.2631

> <Gold.PLP.Chemscore.CHOScore>
0.0000

> <Gold.PLP.Chemscore.Metal>
0.0000

> <Gold.Chemscore.Hbonds>
donor molecule, donor type, donor heavy atom, donor atom, acceptor molecule, acceptor atom, score
      L1  H     3    23       P1  7948  1.00
      L1  H    11    33       P1  7948  0.52
      P1  H  6896  6907       L1    20  1.23

> <Gold.PLP.Chemscore.Internal.Correction>
0.0516

> <Gold.Rescore>
     Score         DG    S(hbond)    S(metal)    S(lipo)     H(rot)  DE(clash)    DE(int)     intcor
     14.37     -15.44       1.83        0.00      62.62       1.36       0.03       1.04       ----

> <Gold.Chemscore.Fitness>
14.3729

> <Gold.Chemscore.DG>
-15.4418

> <Gold.Chemscore.ZeroCoef>
-5.4800

> <Gold.Chemscore.Hbond>
1.8345

> <Gold.Chemscore.Metal>
0.0000

> <Gold.Chemscore.Lipo>
62.6192

> <Gold.Chemscore.Internal_Hbond>
0.0000

> <Gold.Chemscore.DEClash>
0.0279

> <Gold.Chemscore.DEInternal>
1.0410

> <Gold.Chemscore.Rot>
1.3640

> <Gold.Chemscore.Internal.Correction>
   9.000000E+99

> <Gold.Chemscore.Hbonds>
donor molecule, donor type, donor heavy atom, donor atom, acceptor molecule, acceptor atom, score
      L1  H     3    23       P1  7948  0.96
      L1  H    11    33       P1  7948  0.13
      P1  H  6896  6907       L1    20  0.09

> <Gold.Chemscore.Hbond.Weighted>
-6.1271

> <Gold.Chemscore.Metal.Weighted>
-0.0000

> <Gold.Chemscore.Lipo.Weighted>
-7.3264

> <Gold.Chemscore.Internal_Hbond.Weighted>
0.0000

> <Gold.Chemscore.DEClash.Weighted>
0.0279

> <Gold.Chemscore.DEInternal.Weighted>
1.0410

> <Gold.Chemscore.Rot.Weighted>
3.4918

> <Gold.Chemscore.Internal.Correction.Weighted>
   9.000000E+99

> <Gold.Protein.RotatedTorsions>
[ 6907 6896 6895 6894 ] final -131.01 input  -60.11 | X-H torsion
[ 7974 7965 7964 7962 ] final -119.18 input  175.53 | X-H torsion
[ 8008 7997 7996 7995 ] final  122.28 input   59.86 | X-H torsion
[ 10167 10162 10161 10158 ] final   40.24 input  -65.29 | X-H torsion
[ 10718 10713 10712 10709 ] final  -27.92 input   66.30 | X-H torsion
[ 10763 10752 10751 10750 ] final  170.36 input  -60.55 | X-H torsion
[ 11005 11000 10999 10996 ] final  128.44 input  -57.11 | X-H torsion

> <Gold.Protein.ActiveResidues>
 VAL166  LYS551  ARG553  GLY616  TRP617  ASP618  TYR619  PRO620  LYS621  CYS622 
 ASP623  PHE694  ASN695  SER759  ASP760  ASP761  ALA762  ILE779  LEU786  VAL792 
 PHE793  MET794  SER795  GLU796  ALA797  LYS798  CYS799  TRP800  GLU811  SER814 

> <Gold.Protein.RotatedAtoms>
  150.9462  133.6600  159.2780 H   0  0  0  0  0  0  0  0  0  0  0  0  # atno 6907 bound_to 6896
  151.3972  135.0964  159.9554 H   0  0  0  0  0  0  0  0  0  0  0  0  # atno 6908 bound_to 6896
  152.5091  133.8964  159.7474 H   0  0  0  0  0  0  0  0  0  0  0  0  # atno 6909 bound_to 6896
  145.0654  140.8321  143.4127 H   0  0  0  0  0  0  0  0  0  0  0  0  # atno 7974 bound_to 7965
  156.2721  140.2789  156.1443 H   0  0  0  0  0  0  0  0  0  0  0  0  # atno 8008 bound_to 7997
  155.0920  140.0388  157.2689 H   0  0  0  0  0  0  0  0  0  0  0  0  # atno 8009 bound_to 7997
  154.6882  140.2623  155.6845 H   0  0  0  0  0  0  0  0  0  0  0  0  # atno 8010 bound_to 7997
  140.3761  144.2041  150.6131 H   0  0  0  0  0  0  0  0  0  0  0  0  # atno 10167 bound_to 10162
  156.4319  130.4447  149.7111 H   0  0  0  0  0  0  0  0  0  0  0  0  # atno 10718 bound_to 10713
  154.3965  135.2754  155.2123 H   0  0  0  0  0  0  0  0  0  0  0  0  # atno 10763 bound_to 10752
  154.4167  135.6010  153.5988 H   0  0  0  0  0  0  0  0  0  0  0  0  # atno 10764 bound_to 10752
  152.9831  135.5962  154.4227 H   0  0  0  0  0  0  0  0  0  0  0  0  # atno 10765 bound_to 10752
  139.9561  134.9612  156.9003 H   0  0  0  0  0  0  0  0  0  0  0  0  # atno 11005 bound_to 11000
  145.1357  139.2603  143.5516 LP  0  0  0  0  0  0  0  0  0  0  0  0  # atno 17320 bound_to 7965
  146.3526  140.1021  142.8607 LP  0  0  0  0  0  0  0  0  0  0  0  0  # atno 17321 bound_to 7965
  140.4985  143.2325  151.8714 LP  0  0  0  0  0  0  0  0  0  0  0  0  # atno 17342 bound_to 10162
  139.4799  144.5087  151.8963 LP  0  0  0  0  0  0  0  0  0  0  0  0  # atno 17343 bound_to 10162
  156.4010  130.7675  151.2683 LP  0  0  0  0  0  0  0  0  0  0  0  0  # atno 17370 bound_to 10713
  157.7508  131.0239  150.3856 LP  0  0  0  0  0  0  0  0  0  0  0  0  # atno 17371 bound_to 10713
  140.5606  134.0538  155.7398 LP  0  0  0  0  0  0  0  0  0  0  0  0  # atno 17394 bound_to 11000
  141.1232  133.9426  157.2687 LP  0  0  0  0  0  0  0  0  0  0  0  0  # atno 17395 bound_to 11000

$$$$
