AV-unprocessed.smi:2215|AV-procd|sdf|8962|dock5
  -GOLD-   2272012183D 1   1.00000     0.00000
 Structure written by MMmdl.
 40 41  0  0  0  0  0  0  0  0  1 V2000
  150.9088  142.1852  156.2618 C   0  0  0  0  0  0  0  0  0  0  0  0
  150.1800  141.0975  155.5010 C   0  0  0  0  0  0  0  0  0  0  0  0
  150.7468  139.8201  155.3311 C   0  0  0  0  0  0  0  0  0  0  0  0
  150.0255  138.8482  154.6113 C   0  0  0  0  0  0  0  0  0  0  0  0
  148.7573  139.1743  154.0800 C   0  0  0  0  0  0  0  0  0  0  0  0
  148.1182  138.1258  153.3660 N   0  0  0  0  0  0  0  0  0  0  0  0
  146.8016  137.9309  153.1740 C   0  0  0  0  0  0  0  0  0  0  0  0
  145.9021  138.6427  153.6221 O   0  0  0  0  0  0  0  0  0  0  0  0
  146.5784  136.8434  152.4222 N   0  0  0  0  0  0  0  0  0  0  0  0
  145.2625  136.3500  152.0274 C   0  0  0  0  0  0  0  0  0  0  0  0
  145.3009  134.8942  151.5078 C   0  0  2  0  0  0  0  0  0  0  0  0
  144.3130  134.6364  150.3465 C   0  0  0  0  0  0  0  0  0  0  0  0
  144.4150  133.1928  149.8285 C   0  0  0  0  0  0  0  0  0  0  0  0
  144.2006  132.1733  150.9570 C   0  0  0  0  0  0  0  0  0  0  0  0
  145.1745  132.4178  152.1227 C   0  0  0  0  0  0  0  0  0  0  0  0
  145.1010  133.8649  152.6468 C   0  0  2  0  0  0  0  0  0  0  0  0
  143.8595  134.0591  153.2987 O   0  0  0  0  0  0  0  0  0  0  0  0
  148.2178  140.4067  154.2526 N   0  0  0  0  0  0  0  0  0  0  0  0
  148.9100  141.3378  154.9421 C   0  0  0  0  0  0  0  0  0  0  0  0
  151.9363  141.8938  156.4814 H   0  0  0  0  0  0  0  0  0  0  0  0
  150.4017  142.3903  157.2047 H   0  0  0  0  0  0  0  0  0  0  0  0
  150.9341  143.1051  155.6772 H   0  0  0  0  0  0  0  0  0  0  0  0
  151.7174  139.5848  155.7423 H   0  0  0  0  0  0  0  0  0  0  0  0
  150.4470  137.8637  154.4696 H   0  0  0  0  0  0  0  0  0  0  0  0
  148.7372  137.4520  152.9405 H   0  0  0  0  0  0  0  0  0  0  0  0
  147.3760  136.3168  152.0972 H   0  0  0  0  0  0  0  0  0  0  0  0
  144.5737  136.4329  152.8700 H   0  0  0  0  0  0  0  0  0  0  0  0
  144.8798  137.0162  151.2539 H   0  0  0  0  0  0  0  0  0  0  0  0
  146.3040  134.7242  151.1129 H   0  0  0  0  0  0  0  0  0  0  0  0
  143.2923  134.8384  150.6732 H   0  0  0  0  0  0  0  0  0  0  0  0
  144.5105  135.3202  149.5208 H   0  0  0  0  0  0  0  0  0  0  0  0
  143.6830  133.0298  149.0370 H   0  0  0  0  0  0  0  0  0  0  0  0
  145.3961  133.0363  149.3779 H   0  0  0  0  0  0  0  0  0  0  0  0
  143.1721  132.2343  151.3147 H   0  0  0  0  0  0  0  0  0  0  0  0
  144.3310  131.1617  150.5719 H   0  0  0  0  0  0  0  0  0  0  0  0
  144.9776  131.7116  152.9303 H   0  0  0  0  0  0  0  0  0  0  0  0
  146.1910  132.2138  151.7836 H   0  0  0  0  0  0  0  0  0  0  0  0
  145.8807  134.0052  153.3964 H   0  0  0  0  0  0  0  0  0  0  0  0
  143.6406  133.2669  153.7649 H   0  0  0  0  0  0  0  0  0  0  0  0
  148.4359  142.3025  155.0488 H   0  0  0  0  0  0  0  0  0  0  0  0
  1  2  1  0  0  0  0
  1 20  1  0  0  0  0
  1 21  1  0  0  0  0
  1 22  1  0  0  0  0
  2 19  1  0  0  0  0
  2  3  2  0  0  0  0
  3  4  1  0  0  0  0
  3 23  1  0  0  0  0
  4  5  2  0  0  0  0
  4 24  1  0  0  0  0
  5  6  1  0  0  0  0
  5 18  1  0  0  0  0
  6  7  1  0  0  0  0
  6 25  1  0  0  0  0
  7  8  2  0  0  0  0
  7  9  1  0  0  0  0
  9 10  1  0  0  0  0
  9 26  1  0  0  0  0
 10 11  1  0  0  0  0
 10 27  1  0  0  0  0
 10 28  1  0  0  0  0
 11 16  1  0  0  0  0
 11 12  1  0  0  0  0
 11 29  1  0  0  0  0
 12 13  1  0  0  0  0
 12 30  1  0  0  0  0
 12 31  1  0  0  0  0
 13 14  1  0  0  0  0
 13 32  1  0  0  0  0
 13 33  1  0  0  0  0
 14 15  1  0  0  0  0
 14 34  1  0  0  0  0
 14 35  1  0  0  0  0
 15 16  1  0  0  0  0
 15 36  1  0  0  0  0
 15 37  1  0  0  0  0
 16 17  1  0  0  0  0
 16 38  1  0  0  0  0
 17 39  1  0  0  0  0
 18 19  2  0  0  0  0
 19 40  1  0  0  0  0
M  END
> <s_m_source_file>
AV-unprocessed.smi

> <i_m_source_file_index>
2215

> <i_lp_mmshare_version>
43012

> <i_f3d_flags>
0

> <s_epik_input>
W0NIM11jMVtjSF1bY0hdYyhuW2NIXTEpW05IXUMoPU8pW05IXVtDSDJdW0NAQEhdMltDSDJdW0NIMl1bQ0gyXVtDSDJdW0NASF0yW09IXQ==

> <s_epik_cmdline>
J2VwaWtfcHl0aG9uJywgJy1waCcsICc3LjAnLCAnLXRuJywgJzgnLCAnLW1hJywgJzIwMCcsICctbWV0YWxfYmluZGluZycsICctaW1hZScsICc8aW5maWxlLm1hZT4nLCAnLW9tYWUnLCAnPG91dGZpbGUubWFlPic=

> <r_lp_tautomer_probability>
1

> <r_epik_Ionization_Penalty>
6.08491e-05

> <r_epik_Ionization_Penalty_Charging>
0

> <r_epik_Ionization_Penalty_Neutral>
6.08491e-05

> <r_epik_State_Penalty>
-0

> <r_epik_Charging_Adjusted_Penalty>
0

> <i_epik_Tot_Q>
0

> <i_epik_Tot_abs_Q>
0

> <r_epik_Metal_State_Penalty>
-0

> <b_epik_Metal_Only>
0

> <s_lp_Force_Field>
OPLS_2005

> <r_lp_Energy>
16.4092

> <b_lp_Chiralities_Consistent>
1

> <s_lp_Variant>
AV-unprocessed.smi:2215-3

> <Gold.Version>
5.8.1

> <Gold.Id.Protein>
6NUR|6NUR_protein|mol2

> <Gold.PLP.Fitness>
43.6433

> <Gold.PLP.PLP>
-33.0258

> <Gold.PLP.part.hbond>
-3.1067

> <Gold.PLP.part.metal>
0.0000

> <Gold.PLP.part.buried>
-3.6629

> <Gold.PLP.part.nonpolar>
-27.4221

> <Gold.PLP.part.repulsive>
0.3681

> <Gold.PLP.ligand.clash>
0.0000

> <Gold.PLP.ligand.torsion>
0.6844

> <Gold.PLP.Chemscore.Hbond>
2.9913

> <Gold.PLP.Chemscore.CHOScore>
0.9998

> <Gold.PLP.Chemscore.Metal>
0.0000

> <Gold.Chemscore.Hbonds>
donor molecule, donor type, donor heavy atom, donor atom, acceptor molecule, acceptor atom, score
      L1  H     6    25       P1  7948  0.99
      L1  H     9    26       P1  7948  0.99
      L1  H    17    39       P1 10957  0.93
      L1  C    19    40       P1  8028  1.00

> <Gold.PLP.Chemscore.Internal.Correction>
0.0130

> <Gold.Rescore>
     Score         DG    S(hbond)    S(metal)    S(lipo)     H(rot)  DE(clash)    DE(int)     intcor
     18.10     -20.01       2.94        0.00      78.12       1.73       0.09       1.82       ----

> <Gold.Chemscore.Fitness>
18.0973

> <Gold.Chemscore.DG>
-20.0077

> <Gold.Chemscore.ZeroCoef>
-5.4800

> <Gold.Chemscore.Hbond>
2.9421

> <Gold.Chemscore.Metal>
0.0000

> <Gold.Chemscore.Lipo>
78.1170

> <Gold.Chemscore.Internal_Hbond>
0.0000

> <Gold.Chemscore.DEClash>
0.0943

> <Gold.Chemscore.DEInternal>
1.8161

> <Gold.Chemscore.Rot>
1.7339

> <Gold.Chemscore.Internal.Correction>
   9.000000E+99

> <Gold.Chemscore.Hbonds>
donor molecule, donor type, donor heavy atom, donor atom, acceptor molecule, acceptor atom, score
      L1  H     6    25       P1  7948  0.94
      L1  H     9    26       P1  7948  0.92
      L1  H    17    39       P1 10957  0.88

> <Gold.Chemscore.Hbond.Weighted>
-9.8267

> <Gold.Chemscore.Metal.Weighted>
-0.0000

> <Gold.Chemscore.Lipo.Weighted>
-9.1397

> <Gold.Chemscore.Internal_Hbond.Weighted>
0.0000

> <Gold.Chemscore.DEClash.Weighted>
0.0943

> <Gold.Chemscore.DEInternal.Weighted>
1.8161

> <Gold.Chemscore.Rot.Weighted>
4.4387

> <Gold.Chemscore.Internal.Correction.Weighted>
   9.000000E+99

> <Gold.Protein.RotatedTorsions>
[ 6907 6896 6895 6894 ] final   57.28 input  -60.11 | X-H torsion
[ 7974 7965 7964 7962 ] final -146.96 input  175.53 | X-H torsion
[ 8008 7997 7996 7995 ] final  -88.70 input   59.86 | X-H torsion
[ 10167 10162 10161 10158 ] final  -59.00 input  -65.29 | X-H torsion
[ 10718 10713 10712 10709 ] final -105.41 input   66.30 | X-H torsion
[ 10763 10752 10751 10750 ] final   84.66 input  -60.55 | X-H torsion
[ 11005 11000 10999 10996 ] final   38.56 input  -57.11 | X-H torsion

> <Gold.Protein.ActiveResidues>
 VAL166  LYS551  ARG553  GLY616  TRP617  ASP618  TYR619  PRO620  LYS621  CYS622 
 ASP623  PHE694  ASN695  SER759  ASP760  ASP761  ALA762  ILE779  LEU786  VAL792 
 PHE793  MET794  SER795  GLU796  ALA797  LYS798  CYS799  TRP800  GLU811  SER814 

> <Gold.Protein.RotatedAtoms>
  152.3716  134.6725  160.0173 H   0  0  0  0  0  0  0  0  0  0  0  0  # atno 6907 bound_to 6896
  151.7016  133.3306  159.3276 H   0  0  0  0  0  0  0  0  0  0  0  0  # atno 6908 bound_to 6896
  150.7678  134.6546  159.6351 H   0  0  0  0  0  0  0  0  0  0  0  0  # atno 6909 bound_to 6896
  144.8125  140.5389  143.5633 H   0  0  0  0  0  0  0  0  0  0  0  0  # atno 7974 bound_to 7965
  154.6779  140.0550  157.0235 H   0  0  0  0  0  0  0  0  0  0  0  0  # atno 8008 bound_to 7997
  155.0994  140.3227  155.4532 H   0  0  0  0  0  0  0  0  0  0  0  0  # atno 8009 bound_to 7997
  156.2683  140.2034  156.6120 H   0  0  0  0  0  0  0  0  0  0  0  0  # atno 8010 bound_to 7997
  140.6162  143.2403  151.5591 H   0  0  0  0  0  0  0  0  0  0  0  0  # atno 10167 bound_to 10162
  156.0345  130.5562  150.7535 H   0  0  0  0  0  0  0  0  0  0  0  0  # atno 10718 bound_to 10713
  153.1403  135.4646  154.9485 H   0  0  0  0  0  0  0  0  0  0  0  0  # atno 10763 bound_to 10752
  154.7741  135.3168  154.8131 H   0  0  0  0  0  0  0  0  0  0  0  0  # atno 10764 bound_to 10752
  153.8655  135.6908  153.4833 H   0  0  0  0  0  0  0  0  0  0  0  0  # atno 10765 bound_to 10752
  140.2114  134.3750  155.8047 H   0  0  0  0  0  0  0  0  0  0  0  0  # atno 11005 bound_to 11000
  145.5291  139.1475  143.3509 LP  0  0  0  0  0  0  0  0  0  0  0  0  # atno 17320 bound_to 7965
  146.2425  140.5432  142.8928 LP  0  0  0  0  0  0  0  0  0  0  0  0  # atno 17321 bound_to 7965
  139.5401  144.2672  152.1332 LP  0  0  0  0  0  0  0  0  0  0  0  0  # atno 17342 bound_to 10162
  140.1882  144.4778  150.6492 LP  0  0  0  0  0  0  0  0  0  0  0  0  # atno 17343 bound_to 10162
  157.5073  131.0923  151.0241 LP  0  0  0  0  0  0  0  0  0  0  0  0  # atno 17370 bound_to 10713
  157.0606  130.5824  149.5385 LP  0  0  0  0  0  0  0  0  0  0  0  0  # atno 17371 bound_to 10713
  141.2226  133.7145  156.8424 LP  0  0  0  0  0  0  0  0  0  0  0  0  # atno 17394 bound_to 11000
  140.1947  134.8940  157.3100 LP  0  0  0  0  0  0  0  0  0  0  0  0  # atno 17395 bound_to 11000

$$$$
