AV-unprocessed.smi:1244|AV-procd|sdf|5231|dock9
  -GOLD-   22720 4333D 1   1.00000     0.00000
 Structure written by MMmdl.
 56 58  0  0  0  0  0  0  0  0  3 V2000
  150.7466  141.3994  156.0136 C   0  0  0  0  0  0  0  0  0  0  0  0
  151.6774  140.1772  155.9157 C   0  0  2  0  0  0  0  0  0  0  0  0
  150.9440  138.8707  155.5524 C   0  0  0  0  0  0  0  0  0  0  0  0
  150.1602  138.3568  156.7009 N   0  3  1  0  0  0  0  0  0  0  0  0
  149.3895  137.1351  156.3594 C   0  0  0  0  0  0  0  0  0  0  0  0
  150.2256  136.1196  155.5571 C   0  0  0  0  0  0  0  0  0  0  0  0
  149.4233  135.4345  154.5501 N   0  0  0  0  0  0  0  0  0  0  0  0
  149.0174  134.1594  154.6309 C   0  0  0  0  0  0  0  0  0  0  0  0
  149.2521  133.4326  155.5962 O   0  0  0  0  0  0  0  0  0  0  0  0
  148.3506  133.7869  153.5255 N   0  0  0  0  0  0  0  0  0  0  0  0
  147.8374  132.4970  153.2078 C   0  0  0  0  0  0  0  0  0  0  0  0
  148.5249  131.3175  153.5934 C   0  0  0  0  0  0  0  0  0  0  0  0
  148.0065  130.0558  153.2463 C   0  0  0  0  0  0  0  0  0  0  0  0
  146.8047  129.9909  152.5212 C   0  0  0  0  0  0  0  0  0  0  0  0
  146.1637  131.1295  152.1863 N   0  3  0  0  0  0  0  0  0  0  0  0
  146.6035  132.3728  152.5043 C   0  0  0  0  0  0  0  0  0  0  0  0
  145.8173  133.4741  152.0956 N   0  0  0  0  0  0  0  0  0  0  0  0
  146.4179  134.5755  151.3518 C   0  0  0  0  0  0  0  0  0  0  0  0
  145.2375  135.3695  150.7991 C   0  0  0  0  0  0  0  0  0  0  0  0
  144.2172  134.2745  150.5023 C   0  0  0  0  0  0  0  0  0  0  0  0
  144.4634  133.2383  151.6043 C   0  0  0  0  0  0  0  0  0  0  0  0
  151.0354  138.1967  157.8868 C   0  0  0  0  0  0  0  0  0  0  0  0
  151.7228  139.5301  158.2306 C   0  0  1  0  0  0  0  0  0  0  0  0
  152.7029  139.3870  159.4003 C   0  0  0  0  0  0  0  0  0  0  0  0
  152.4549  139.9933  157.0989 O   0  0  0  0  0  0  0  0  0  0  0  0
  150.2664  141.5973  155.0549 H   0  0  0  0  0  0  0  0  0  0  0  0
  151.3065  142.2929  156.2904 H   0  0  0  0  0  0  0  0  0  0  0  0
  149.9544  141.2597  156.7485 H   0  0  0  0  0  0  0  0  0  0  0  0
  152.3899  140.3893  155.1179 H   0  0  0  0  0  0  0  0  0  0  0  0
  150.2918  139.0387  154.6942 H   0  0  0  0  0  0  0  0  0  0  0  0
  151.6705  138.1135  155.2526 H   0  0  0  0  0  0  0  0  0  0  0  0
  149.0631  136.6576  157.2844 H   0  0  0  0  0  0  0  0  0  0  0  0
  148.4829  137.4074  155.8164 H   0  0  0  0  0  0  0  0  0  0  0  0
  151.0409  136.6161  155.0323 H   0  0  0  0  0  0  0  0  0  0  0  0
  150.6860  135.3908  156.2265 H   0  0  0  0  0  0  0  0  0  0  0  0
  149.1852  135.9615  153.7221 H   0  0  0  0  0  0  0  0  0  0  0  0
  148.3173  134.4645  152.7781 H   0  0  0  0  0  0  0  0  0  0  0  0
  149.4444  131.3610  154.1570 H   0  0  0  0  0  0  0  0  0  0  0  0
  148.5251  129.1519  153.5307 H   0  0  0  0  0  0  0  0  0  0  0  0
  146.3345  129.0701  152.2072 H   0  0  0  0  0  0  0  0  0  0  0  0
  147.0547  135.1879  151.9905 H   0  0  0  0  0  0  0  0  0  0  0  0
  147.0205  134.1947  150.5262 H   0  0  0  0  0  0  0  0  0  0  0  0
  144.8487  136.0435  151.5636 H   0  0  0  0  0  0  0  0  0  0  0  0
  145.4968  135.9632  149.9223 H   0  0  0  0  0  0  0  0  0  0  0  0
  143.1905  134.6409  150.4873 H   0  0  0  0  0  0  0  0  0  0  0  0
  144.4296  133.8315  149.5285 H   0  0  0  0  0  0  0  0  0  0  0  0
  144.3322  132.2224  151.2292 H   0  0  0  0  0  0  0  0  0  0  0  0
  143.7607  133.3933  152.4235 H   0  0  0  0  0  0  0  0  0  0  0  0
  150.4553  137.8637  158.7467 H   0  0  0  0  0  0  0  0  0  0  0  0
  151.7817  137.4258  157.6877 H   0  0  0  0  0  0  0  0  0  0  0  0
  150.9705  140.2677  158.5109 H   0  0  0  0  0  0  0  0  0  0  0  0
  152.1936  139.0414  160.3003 H   0  0  0  0  0  0  0  0  0  0  0  0
  153.1743  140.3422  159.6325 H   0  0  0  0  0  0  0  0  0  0  0  0
  153.4941  138.6732  159.1687 H   0  0  0  0  0  0  0  0  0  0  0  0
  149.4835  139.0728  156.9242 H   0  0  0  0  0  0  0  0  0  0  0  0
  145.2890  131.0485  151.6678 H   0  0  0  0  0  0  0  0  0  0  0  0
  1  2  1  0  0  0  0
  1 26  1  0  0  0  0
  1 27  1  0  0  0  0
  1 28  1  0  0  0  0
  2 25  1  0  0  0  0
  2  3  1  0  0  0  0
  2 29  1  0  0  0  0
  3  4  1  0  0  0  0
  3 30  1  0  0  0  0
  3 31  1  0  0  0  0
  4  5  1  0  0  0  0
  4 22  1  0  0  0  0
  4 55  1  0  0  0  0
  5  6  1  0  0  0  0
  5 32  1  0  0  0  0
  5 33  1  0  0  0  0
  6  7  1  0  0  0  0
  6 34  1  0  0  0  0
  6 35  1  0  0  0  0
  7  8  1  0  0  0  0
  7 36  1  0  0  0  0
  8  9  2  0  0  0  0
  8 10  1  0  0  0  0
 10 11  1  0  0  0  0
 10 37  1  0  0  0  0
 11 16  1  0  0  0  0
 11 12  2  0  0  0  0
 12 13  1  0  0  0  0
 12 38  1  0  0  0  0
 13 14  2  0  0  0  0
 13 39  1  0  0  0  0
 14 15  1  0  0  0  0
 14 40  1  0  0  0  0
 15 16  2  0  0  0  0
 15 56  1  0  0  0  0
 16 17  1  0  0  0  0
 17 21  1  0  0  0  0
 17 18  1  0  0  0  0
 18 19  1  0  0  0  0
 18 41  1  0  0  0  0
 18 42  1  0  0  0  0
 19 20  1  0  0  0  0
 19 43  1  0  0  0  0
 19 44  1  0  0  0  0
 20 21  1  0  0  0  0
 20 45  1  0  0  0  0
 20 46  1  0  0  0  0
 21 47  1  0  0  0  0
 21 48  1  0  0  0  0
 22 23  1  0  0  0  0
 22 49  1  0  0  0  0
 22 50  1  0  0  0  0
 23 24  1  0  0  0  0
 23 25  1  0  0  0  0
 23 51  1  0  0  0  0
 24 52  1  0  0  0  0
 24 53  1  0  0  0  0
 24 54  1  0  0  0  0
M  CHG  1   4   1
M  CHG  1  15   1
M  END
> <s_m_source_file>
AV-unprocessed.smi

> <i_m_source_file_index>
1244

> <i_lp_mmshare_version>
43012

> <i_f3d_flags>
0

> <s_epik_input>
W0NIM11bQ0BASF0xW0NIMl1OKFtDSDJdW0NASF0oTzEpW0NIM10pW0NIMl1bQ0gyXVtOSF1DKD1PKVtOSF1jMltjSF1bY0hdW2NIXW5jMk4zW0NIMl1bQ0gyXVtDSDJdW0NIMl0z

> <s_epik_cmdline>
J2VwaWtfcHl0aG9uJywgJy1waCcsICc3LjAnLCAnLXRuJywgJzgnLCAnLW1hJywgJzIwMCcsICctbWV0YWxfYmluZGluZycsICctaW1hZScsICc8aW5maWxlLm1hZT4nLCAnLW9tYWUnLCAnPG91dGZpbGUubWFlPic=

> <r_lp_tautomer_probability>
0.999994

> <r_epik_Ionization_Penalty>
1.81601

> <r_epik_Ionization_Penalty_Charging>
1.81599

> <r_epik_Ionization_Penalty_Neutral>
2.01972e-05

> <r_epik_State_Penalty>
1.85672

> <r_epik_Charging_Adjusted_Penalty>
3.6727

> <i_epik_Tot_Q>
2

> <i_epik_Tot_abs_Q>
2

> <r_epik_Metal_State_Penalty>
1.93796

> <b_epik_Metal_Only>
0

> <s_lp_Force_Field>
OPLS_2005

> <r_lp_Energy>
54.4997

> <b_lp_Chiralities_Consistent>
1

> <s_lp_Variant>
AV-unprocessed.smi:1244-11

> <Gold.Version>
5.8.1

> <Gold.Id.Protein>
6NUR|6NUR_protein|mol2

> <Gold.PLP.Fitness>
45.2317

> <Gold.PLP.PLP>
-37.6980

> <Gold.PLP.part.hbond>
-3.0000

> <Gold.PLP.part.metal>
0.0000

> <Gold.PLP.part.buried>
-3.0122

> <Gold.PLP.part.nonpolar>
-30.8899

> <Gold.PLP.part.repulsive>
0.1552

> <Gold.PLP.ligand.clash>
0.0000

> <Gold.PLP.ligand.torsion>
0.9416

> <Gold.PLP.Chemscore.Hbond>
3.0000

> <Gold.PLP.Chemscore.CHOScore>
0.0000

> <Gold.PLP.Chemscore.Metal>
0.0000

> <Gold.Chemscore.Hbonds>
donor molecule, donor type, donor heavy atom, donor atom, acceptor molecule, acceptor atom, score
      L1  H     7    36       P1  7948  1.00
      L1  H    10    37       P1  7948  0.96
      P1  H  7997  8010       L1    25  1.00

> <Gold.PLP.Chemscore.Internal.Correction>
0.4169

> <Gold.Rescore>
     Score         DG    S(hbond)    S(metal)    S(lipo)     H(rot)  DE(clash)    DE(int)     intcor
     16.74     -19.02       2.16        0.00      89.76       1.63       0.18       2.10       ----

> <Gold.Chemscore.Fitness>
16.7416

> <Gold.Chemscore.DG>
-19.0201

> <Gold.Chemscore.ZeroCoef>
-5.4800

> <Gold.Chemscore.Hbond>
2.1583

> <Gold.Chemscore.Metal>
0.0000

> <Gold.Chemscore.Lipo>
89.7624

> <Gold.Chemscore.Internal_Hbond>
0.0000

> <Gold.Chemscore.DEClash>
0.1765

> <Gold.Chemscore.DEInternal>
2.1019

> <Gold.Chemscore.Rot>
1.6293

> <Gold.Chemscore.Internal.Correction>
   9.000000E+99

> <Gold.Chemscore.Hbonds>
donor molecule, donor type, donor heavy atom, donor atom, acceptor molecule, acceptor atom, score
      L1  H     7    36       P1  7948  0.83
      L1  H    10    37       P1  7948  0.26
      P1  H  7997  8010       L1    25  0.81

> <Gold.Chemscore.Hbond.Weighted>
-7.2088

> <Gold.Chemscore.Metal.Weighted>
-0.0000

> <Gold.Chemscore.Lipo.Weighted>
-10.5022

> <Gold.Chemscore.Internal_Hbond.Weighted>
0.0000

> <Gold.Chemscore.DEClash.Weighted>
0.1765

> <Gold.Chemscore.DEInternal.Weighted>
2.1019

> <Gold.Chemscore.Rot.Weighted>
4.1709

> <Gold.Chemscore.Internal.Correction.Weighted>
   9.000000E+99

> <Gold.Protein.RotatedTorsions>
[ 6907 6896 6895 6894 ] final   98.29 input  -60.11 | X-H torsion
[ 7974 7965 7964 7962 ] final -175.51 input  175.53 | X-H torsion
[ 8008 7997 7996 7995 ] final   51.45 input   59.86 | X-H torsion
[ 10167 10162 10161 10158 ] final  167.80 input  -65.29 | X-H torsion
[ 10718 10713 10712 10709 ] final  -21.99 input   66.30 | X-H torsion
[ 10763 10752 10751 10750 ] final   74.60 input  -60.55 | X-H torsion
[ 11005 11000 10999 10996 ] final -102.50 input  -57.11 | X-H torsion

> <Gold.Protein.ActiveResidues>
 VAL166  LYS551  ARG553  GLY616  TRP617  ASP618  TYR619  PRO620  LYS621  CYS622 
 ASP623  PHE694  ASN695  SER759  ASP760  ASP761  ALA762  ILE779  LEU786  VAL792 
 PHE793  MET794  SER795  GLU796  ALA797  LYS798  CYS799  TRP800  GLU811  SER814 

> <Gold.Protein.RotatedAtoms>
  152.5411  134.0604  159.8149 H   0  0  0  0  0  0  0  0  0  0  0  0  # atno 6907 bound_to 6896
  151.0732  133.5441  159.2633 H   0  0  0  0  0  0  0  0  0  0  0  0  # atno 6908 bound_to 6896
  151.2296  135.0558  159.9036 H   0  0  0  0  0  0  0  0  0  0  0  0  # atno 6909 bound_to 6896
  144.7128  140.1311  143.6398 H   0  0  0  0  0  0  0  0  0  0  0  0  # atno 7974 bound_to 7965
  155.4355  140.3452  155.4284 H   0  0  0  0  0  0  0  0  0  0  0  0  # atno 8008 bound_to 7997
  156.1310  140.1514  156.9095 H   0  0  0  0  0  0  0  0  0  0  0  0  # atno 8009 bound_to 7997
  154.4895  140.0845  156.7542 H   0  0  0  0  0  0  0  0  0  0  0  0  # atno 8010 bound_to 7997
  139.4953  144.3882  151.9546 H   0  0  0  0  0  0  0  0  0  0  0  0  # atno 10167 bound_to 10162
  156.5106  130.4609  149.6650 H   0  0  0  0  0  0  0  0  0  0  0  0  # atno 10718 bound_to 10713
  153.0598  135.5019  154.8066 H   0  0  0  0  0  0  0  0  0  0  0  0  # atno 10763 bound_to 10752
  154.6864  135.2977  154.9543 H   0  0  0  0  0  0  0  0  0  0  0  0  # atno 10764 bound_to 10752
  154.0312  135.6729  153.4833 H   0  0  0  0  0  0  0  0  0  0  0  0  # atno 10765 bound_to 10752
  141.1186  133.8564  157.1368 H   0  0  0  0  0  0  0  0  0  0  0  0  # atno 11005 bound_to 11000
  145.9286  139.2591  143.1338 LP  0  0  0  0  0  0  0  0  0  0  0  0  # atno 17320 bound_to 7965
  145.9546  140.8882  143.0242 LP  0  0  0  0  0  0  0  0  0  0  0  0  # atno 17321 bound_to 7965
  140.3320  144.3305  150.5985 LP  0  0  0  0  0  0  0  0  0  0  0  0  # atno 17342 bound_to 10162
  140.5637  143.2189  151.7720 LP  0  0  0  0  0  0  0  0  0  0  0  0  # atno 17343 bound_to 10162
  156.3244  130.7298  151.2216 LP  0  0  0  0  0  0  0  0  0  0  0  0  # atno 17370 bound_to 10713
  157.7451  131.0447  150.4806 LP  0  0  0  0  0  0  0  0  0  0  0  0  # atno 17371 bound_to 10713
  140.0126  134.9981  157.0428 LP  0  0  0  0  0  0  0  0  0  0  0  0  # atno 17394 bound_to 11000
  140.4573  134.1520  155.7187 LP  0  0  0  0  0  0  0  0  0  0  0  0  # atno 17395 bound_to 11000

$$$$
