AV-unprocessed.smi:2106|AV-procd|sdf|8596|dock7
  -GOLD-   2272011333D 1   1.00000     0.00000
 Structure written by MMmdl.
 48 49  0  0  0  0  0  0  0  0  2 V2000
  152.1883  138.1178  154.0683 C   0  0  0  0  0  0  0  0  0  0  0  0
  151.5049  139.2283  154.8101 C   0  0  0  0  0  0  0  0  0  0  0  0
  151.6696  139.6099  156.1707 C   0  0  0  0  0  0  0  0  0  0  0  0
  150.8218  140.6694  156.3297 C   0  0  0  0  0  0  0  0  0  0  0  0
  150.5428  141.5051  157.5354 C   0  0  0  0  0  0  0  0  0  0  0  0
  150.2051  140.8765  155.1081 N   0  0  0  0  0  0  0  0  0  0  0  0
  149.2259  141.8843  154.7328 C   0  0  0  0  0  0  0  0  0  0  0  0
  147.8843  141.2412  154.3782 C   0  0  0  0  0  0  0  0  0  0  0  0
  146.9680  141.2333  155.2000 O   0  0  0  0  0  0  0  0  0  0  0  0
  147.7797  140.7090  153.1504 N   0  0  0  0  0  0  0  0  0  0  0  0
  146.5765  140.0916  152.6046 C   0  0  0  0  0  0  0  0  0  0  0  0
  146.8366  138.6466  152.1341 C   0  0  0  0  0  0  0  0  0  0  0  0
  145.5860  137.8666  151.9565 N   0  3  1  0  0  0  0  0  0  0  0  0
  145.8529  136.4722  151.5295 C   0  0  0  0  0  0  0  0  0  0  0  0
  144.5340  135.7102  151.3003 C   0  0  1  0  0  0  0  0  0  0  0  0
  144.7706  134.2398  150.9385 C   0  0  0  0  0  0  0  0  0  0  0  0
  143.7611  135.7518  152.4944 O   0  0  0  0  0  0  0  0  0  0  0  0
  143.4140  137.0781  152.8756 C   0  0  1  0  0  0  0  0  0  0  0  0
  142.5113  136.9985  154.1119 C   0  0  0  0  0  0  0  0  0  0  0  0
  144.7018  137.8781  153.1484 C   0  0  0  0  0  0  0  0  0  0  0  0
  150.6268  139.9903  154.1789 N   0  0  0  0  0  0  0  0  0  0  0  0
  152.8497  137.5539  154.7265 H   0  0  0  0  0  0  0  0  0  0  0  0
  152.7909  138.5067  153.2475 H   0  0  0  0  0  0  0  0  0  0  0  0
  151.4631  137.4194  153.6498 H   0  0  0  0  0  0  0  0  0  0  0  0
  152.3143  139.1719  156.9183 H   0  0  0  0  0  0  0  0  0  0  0  0
  151.1528  141.1844  158.3798 H   0  0  0  0  0  0  0  0  0  0  0  0
  149.4961  141.4265  157.8296 H   0  0  0  0  0  0  0  0  0  0  0  0
  150.7643  142.5546  157.3425 H   0  0  0  0  0  0  0  0  0  0  0  0
  149.1019  142.5929  155.5537 H   0  0  0  0  0  0  0  0  0  0  0  0
  149.6030  142.4525  153.8820 H   0  0  0  0  0  0  0  0  0  0  0  0
  148.5833  140.7667  152.5408 H   0  0  0  0  0  0  0  0  0  0  0  0
  145.7909  140.1323  153.3594 H   0  0  0  0  0  0  0  0  0  0  0  0
  146.2353  140.6998  151.7665 H   0  0  0  0  0  0  0  0  0  0  0  0
  147.3653  138.6906  151.1806 H   0  0  0  0  0  0  0  0  0  0  0  0
  147.4944  138.1198  152.8271 H   0  0  0  0  0  0  0  0  0  0  0  0
  146.4393  136.4747  150.6098 H   0  0  0  0  0  0  0  0  0  0  0  0
  146.4519  135.9685  152.2903 H   0  0  0  0  0  0  0  0  0  0  0  0
  143.9722  136.1809  150.4915 H   0  0  0  0  0  0  0  0  0  0  0  0
  145.3568  134.1492  150.0237 H   0  0  0  0  0  0  0  0  0  0  0  0
  143.8249  133.7212  150.7792 H   0  0  0  0  0  0  0  0  0  0  0  0
  145.3062  133.7184  151.7325 H   0  0  0  0  0  0  0  0  0  0  0  0
  142.8524  137.5491  152.0667 H   0  0  0  0  0  0  0  0  0  0  0  0
  142.2077  137.9924  154.4413 H   0  0  0  0  0  0  0  0  0  0  0  0
  143.0217  136.5120  154.9438 H   0  0  0  0  0  0  0  0  0  0  0  0
  141.6064  136.4294  153.8977 H   0  0  0  0  0  0  0  0  0  0  0  0
  145.2350  137.4536  154.0007 H   0  0  0  0  0  0  0  0  0  0  0  0
  144.4351  138.8999  153.4156 H   0  0  0  0  0  0  0  0  0  0  0  0
  145.0749  138.3029  151.2023 H   0  0  0  0  0  0  0  0  0  0  0  0
  1  2  1  0  0  0  0
  1 22  1  0  0  0  0
  1 23  1  0  0  0  0
  1 24  1  0  0  0  0
  2 21  2  0  0  0  0
  2  3  1  0  0  0  0
  3  4  2  0  0  0  0
  3 25  1  0  0  0  0
  4  5  1  0  0  0  0
  4  6  1  0  0  0  0
  5 26  1  0  0  0  0
  5 27  1  0  0  0  0
  5 28  1  0  0  0  0
  6  7  1  0  0  0  0
  6 21  1  0  0  0  0
  7  8  1  0  0  0  0
  7 29  1  0  0  0  0
  7 30  1  0  0  0  0
  8  9  2  0  0  0  0
  8 10  1  0  0  0  0
 10 11  1  0  0  0  0
 10 31  1  0  0  0  0
 11 12  1  0  0  0  0
 11 32  1  0  0  0  0
 11 33  1  0  0  0  0
 12 13  1  0  0  0  0
 12 34  1  0  0  0  0
 12 35  1  0  0  0  0
 13 20  1  0  0  0  0
 13 14  1  0  0  0  0
 13 48  1  0  0  0  0
 14 15  1  0  0  0  0
 14 36  1  0  0  0  0
 14 37  1  0  0  0  0
 15 16  1  0  0  0  0
 15 17  1  0  0  0  0
 15 38  1  0  0  0  0
 16 39  1  0  0  0  0
 16 40  1  0  0  0  0
 16 41  1  0  0  0  0
 17 18  1  0  0  0  0
 18 19  1  0  0  0  0
 18 20  1  0  0  0  0
 18 42  1  0  0  0  0
 19 43  1  0  0  0  0
 19 44  1  0  0  0  0
 19 45  1  0  0  0  0
 20 46  1  0  0  0  0
 20 47  1  0  0  0  0
M  CHG  1  13   1
M  END
> <s_m_source_file>
AV-unprocessed.smi

> <i_m_source_file_index>
2106

> <i_lp_mmshare_version>
43012

> <i_f3d_flags>
0

> <s_epik_input>
W0NIM11jMVtjSF1jKFtDSDNdKW4objEpW0NIMl1DKD1PKVtOSF1bQ0gyXVtDSDJdTjJbQ0gyXVtDQEBIXShbQ0gzXSlPW0NAQEhdKFtDSDNdKVtDSDJdMg==

> <s_epik_cmdline>
J2VwaWtfcHl0aG9uJywgJy1waCcsICc3LjAnLCAnLXRuJywgJzgnLCAnLW1hJywgJzIwMCcsICctbWV0YWxfYmluZGluZycsICctaW1hZScsICc8aW5maWxlLm1hZT4nLCAnLW9tYWUnLCAnPG91dGZpbGUubWFlPic=

> <r_lp_tautomer_probability>
1

> <r_epik_Ionization_Penalty>
0.748586

> <r_epik_Ionization_Penalty_Charging>
0.748396

> <r_epik_Ionization_Penalty_Neutral>
0.000189656

> <r_epik_State_Penalty>
0.775162

> <r_epik_Charging_Adjusted_Penalty>
1.52356

> <i_epik_Tot_Q>
1

> <i_epik_Tot_abs_Q>
1

> <r_epik_Metal_State_Penalty>
0.775295

> <b_epik_Metal_Only>
0

> <s_lp_Force_Field>
OPLS_2005

> <r_lp_Energy>
12.4658

> <b_lp_Chiralities_Consistent>
1

> <s_lp_Variant>
AV-unprocessed.smi:2106-4

> <Gold.Version>
5.8.1

> <Gold.Id.Protein>
6NUR|6NUR_protein|mol2

> <Gold.PLP.Fitness>
44.6456

> <Gold.PLP.PLP>
-36.4132

> <Gold.PLP.part.hbond>
-3.1988

> <Gold.PLP.part.metal>
0.0000

> <Gold.PLP.part.buried>
5.8210

> <Gold.PLP.part.nonpolar>
-38.9935

> <Gold.PLP.part.repulsive>
0.5198

> <Gold.PLP.ligand.clash>
0.0000

> <Gold.PLP.ligand.torsion>
0.3958

> <Gold.PLP.Chemscore.Hbond>
3.0000

> <Gold.PLP.Chemscore.CHOScore>
0.0000

> <Gold.PLP.Chemscore.Metal>
0.0000

> <Gold.Chemscore.Hbonds>
donor molecule, donor type, donor heavy atom, donor atom, acceptor molecule, acceptor atom, score
      L1  H    10    31       P1  7957  0.99
      L1  H    13    48       P1 10171  1.00
      P1  H  7989  7998       L1    21  0.70

> <Gold.PLP.Chemscore.Internal.Correction>
0.0240

> <Gold.Rescore>
     Score         DG    S(hbond)    S(metal)    S(lipo)     H(rot)  DE(clash)    DE(int)     intcor
     16.28     -18.60       2.34        0.00      83.30       1.73       1.69       0.64       ----

> <Gold.Chemscore.Fitness>
16.2754

> <Gold.Chemscore.DG>
-18.5988

> <Gold.Chemscore.ZeroCoef>
-5.4800

> <Gold.Chemscore.Hbond>
2.3370

> <Gold.Chemscore.Metal>
0.0000

> <Gold.Chemscore.Lipo>
83.3005

> <Gold.Chemscore.Internal_Hbond>
0.0000

> <Gold.Chemscore.DEClash>
1.6862

> <Gold.Chemscore.DEInternal>
0.6372

> <Gold.Chemscore.Rot>
1.7316

> <Gold.Chemscore.Internal.Correction>
   9.000000E+99

> <Gold.Chemscore.Hbonds>
donor molecule, donor type, donor heavy atom, donor atom, acceptor molecule, acceptor atom, score
      L1  H    10    31       P1  7957  0.94
      L1  H    13    48       P1 10171  1.00
      P1  H  7989  7998       L1    21  0.02

> <Gold.Chemscore.Hbond.Weighted>
-7.8057

> <Gold.Chemscore.Metal.Weighted>
-0.0000

> <Gold.Chemscore.Lipo.Weighted>
-9.7462

> <Gold.Chemscore.Internal_Hbond.Weighted>
0.0000

> <Gold.Chemscore.DEClash.Weighted>
1.6862

> <Gold.Chemscore.DEInternal.Weighted>
0.6372

> <Gold.Chemscore.Rot.Weighted>
4.4330

> <Gold.Chemscore.Internal.Correction.Weighted>
   9.000000E+99

> <Gold.Protein.RotatedTorsions>
[ 6907 6896 6895 6894 ] final   65.80 input  -60.11 | X-H torsion
[ 7974 7965 7964 7962 ] final  -44.21 input  175.53 | X-H torsion
[ 8008 7997 7996 7995 ] final  -64.25 input   59.86 | X-H torsion
[ 10167 10162 10161 10158 ] final  -77.30 input  -65.29 | X-H torsion
[ 10718 10713 10712 10709 ] final   89.58 input   66.30 | X-H torsion
[ 10763 10752 10751 10750 ] final  -19.13 input  -60.55 | X-H torsion
[ 11005 11000 10999 10996 ] final  -65.20 input  -57.11 | X-H torsion

> <Gold.Protein.ActiveResidues>
 VAL166  LYS551  ARG553  GLY616  TRP617  ASP618  TYR619  PRO620  LYS621  CYS622 
 ASP623  PHE694  ASN695  SER759  ASP760  ASP761  ALA762  ILE779  LEU786  VAL792 
 PHE793  MET794  SER795  GLU796  ALA797  LYS798  CYS799  TRP800  GLU811  SER814 

> <Gold.Protein.RotatedAtoms>
  152.4434  134.5544  159.9875 H   0  0  0  0  0  0  0  0  0  0  0  0  # atno 6907 bound_to 6896
  151.5636  133.3394  159.2984 H   0  0  0  0  0  0  0  0  0  0  0  0  # atno 6908 bound_to 6896
  150.8345  134.7645  159.6945 H   0  0  0  0  0  0  0  0  0  0  0  0  # atno 6909 bound_to 6896
  145.9943  140.7146  142.9301 H   0  0  0  0  0  0  0  0  0  0  0  0  # atno 7974 bound_to 7965
  154.4600  140.0958  156.6867 H   0  0  0  0  0  0  0  0  0  0  0  0  # atno 8008 bound_to 7997
  155.5021  140.3474  155.4354 H   0  0  0  0  0  0  0  0  0  0  0  0  # atno 8009 bound_to 7997
  156.0853  140.1383  156.9650 H   0  0  0  0  0  0  0  0  0  0  0  0  # atno 8010 bound_to 7997
  140.4782  143.2409  151.8100 H   0  0  0  0  0  0  0  0  0  0  0  0  # atno 10167 bound_to 10162
  157.6956  131.0338  150.3448 H   0  0  0  0  0  0  0  0  0  0  0  0  # atno 10718 bound_to 10713
  153.6000  135.6999  153.5388 H   0  0  0  0  0  0  0  0  0  0  0  0  # atno 10763 bound_to 10752
  153.3105  135.4102  155.1331 H   0  0  0  0  0  0  0  0  0  0  0  0  # atno 10764 bound_to 10752
  154.8584  135.3671  154.5535 H   0  0  0  0  0  0  0  0  0  0  0  0  # atno 10765 bound_to 10752
  141.1447  133.6677  156.5949 H   0  0  0  0  0  0  0  0  0  0  0  0  # atno 11005 bound_to 11000
  144.6899  140.3124  143.7246 LP  0  0  0  0  0  0  0  0  0  0  0  0  # atno 17320 bound_to 7965
  145.7583  139.1816  143.2282 LP  0  0  0  0  0  0  0  0  0  0  0  0  # atno 17321 bound_to 7965
  139.4829  144.4807  151.9311 LP  0  0  0  0  0  0  0  0  0  0  0  0  # atno 17342 bound_to 10162
  140.3892  144.2637  150.5901 LP  0  0  0  0  0  0  0  0  0  0  0  0  # atno 17343 bound_to 10162
  156.3904  130.3897  149.7034 LP  0  0  0  0  0  0  0  0  0  0  0  0  # atno 17370 bound_to 10713
  156.4386  130.7850  151.2871 LP  0  0  0  0  0  0  0  0  0  0  0  0  # atno 17371 bound_to 10713
  140.3734  134.7586  157.4613 LP  0  0  0  0  0  0  0  0  0  0  0  0  # atno 17394 bound_to 11000
  140.0693  134.5885  155.8660 LP  0  0  0  0  0  0  0  0  0  0  0  0  # atno 17395 bound_to 11000

$$$$
