AV-unprocessed.smi:565|AV-procd|sdf|2954|dock4
  -GOLD-   2262023453D 1   1.00000     0.00000
 Structure written by MMmdl.
 50 51  0  0  0  0  0  0  0  0  2 V2000
  148.7572  136.7388  158.5733 C   0  0  0  0  0  0  0  0  0  0  0  0
  148.2652  136.2166  159.8931 C   0  0  0  0  0  0  0  0  0  0  0  0
  148.3424  136.9880  160.9646 N   0  0  0  0  0  0  0  0  0  0  0  0
  147.8321  136.2419  161.9643 N   0  0  0  0  0  0  0  0  0  0  0  0
  147.7689  136.7956  163.3029 C   0  0  0  0  0  0  0  0  0  0  0  0
  147.4270  134.9973  161.5228 C   0  0  0  0  0  0  0  0  0  0  0  0
  146.8297  133.9820  162.4433 C   0  0  0  0  0  0  0  0  0  0  0  0
  147.6969  134.9409  160.1808 C   0  0  0  0  0  0  0  0  0  0  0  0
  147.4659  133.8050  159.2159 C   0  0  0  0  0  0  0  0  0  0  0  0
  146.6538  134.3102  158.0238 C   0  0  0  0  0  0  0  0  0  0  0  0
  145.5779  134.8799  158.2056 O   0  0  0  0  0  0  0  0  0  0  0  0
  147.1886  134.1137  156.8084 N   0  0  0  0  0  0  0  0  0  0  0  0
  146.6114  134.5870  155.5572 C   0  0  0  0  0  0  0  0  0  0  0  0
  147.6290  134.4896  154.4042 C   0  0  0  0  0  0  0  0  0  0  0  0
  147.0229  134.7971  153.0847 N   0  3  2  0  0  0  0  0  0  0  0  0
  145.9952  135.8659  153.1760 C   0  0  0  0  0  0  0  0  0  0  0  0
  145.4841  136.2630  151.7823 C   0  0  0  0  0  0  0  0  0  0  0  0
  144.9341  135.0437  151.0320 C   0  0  0  0  0  0  0  0  0  0  0  0
  145.9956  133.9323  150.9704 C   0  0  2  0  0  0  0  0  0  0  0  0
  145.4611  132.6871  150.2487 C   0  0  0  0  0  0  0  0  0  0  0  0
  146.4956  133.5920  152.3890 C   0  0  0  0  0  0  0  0  0  0  0  0
  149.2992  135.9688  158.0244 H   0  0  0  0  0  0  0  0  0  0  0  0
  149.4312  137.5867  158.7008 H   0  0  0  0  0  0  0  0  0  0  0  0
  147.9245  137.0664  157.9508 H   0  0  0  0  0  0  0  0  0  0  0  0
  148.1904  136.0864  164.0155 H   0  0  0  0  0  0  0  0  0  0  0  0
  146.7298  136.9928  163.5677 H   0  0  0  0  0  0  0  0  0  0  0  0
  148.3327  137.7278  163.3611 H   0  0  0  0  0  0  0  0  0  0  0  0
  146.3795  133.1595  161.8880 H   0  0  0  0  0  0  0  0  0  0  0  0
  146.0520  134.4270  163.0646 H   0  0  0  0  0  0  0  0  0  0  0  0
  147.5916  133.5646  163.1016 H   0  0  0  0  0  0  0  0  0  0  0  0
  148.4042  133.3793  158.8595 H   0  0  0  0  0  0  0  0  0  0  0  0
  146.9269  132.9850  159.6917 H   0  0  0  0  0  0  0  0  0  0  0  0
  148.0739  133.6309  156.7531 H   0  0  0  0  0  0  0  0  0  0  0  0
  145.7377  133.9742  155.3344 H   0  0  0  0  0  0  0  0  0  0  0  0
  146.2499  135.6067  155.6919 H   0  0  0  0  0  0  0  0  0  0  0  0
  148.4834  135.1465  154.5742 H   0  0  0  0  0  0  0  0  0  0  0  0
  148.0242  133.4727  154.3926 H   0  0  0  0  0  0  0  0  0  0  0  0
  145.1672  135.5245  153.7993 H   0  0  0  0  0  0  0  0  0  0  0  0
  146.4179  136.7456  153.6633 H   0  0  0  0  0  0  0  0  0  0  0  0
  144.7097  137.0255  151.8725 H   0  0  0  0  0  0  0  0  0  0  0  0
  146.2954  136.7124  151.2078 H   0  0  0  0  0  0  0  0  0  0  0  0
  144.0384  134.6769  151.5356 H   0  0  0  0  0  0  0  0  0  0  0  0
  144.6294  135.3337  150.0258 H   0  0  0  0  0  0  0  0  0  0  0  0
  146.8440  134.3060  150.3945 H   0  0  0  0  0  0  0  0  0  0  0  0
  144.6071  132.2593  150.7750 H   0  0  0  0  0  0  0  0  0  0  0  0
  146.2278  131.9153  150.1752 H   0  0  0  0  0  0  0  0  0  0  0  0
  145.1400  132.9283  149.2349 H   0  0  0  0  0  0  0  0  0  0  0  0
  147.2728  132.8320  152.3166 H   0  0  0  0  0  0  0  0  0  0  0  0
  145.6871  133.1572  152.9794 H   0  0  0  0  0  0  0  0  0  0  0  0
  147.7644  135.1702  152.5093 H   0  0  0  0  0  0  0  0  0  0  0  0
  1  2  1  0  0  0  0
  1 22  1  0  0  0  0
  1 23  1  0  0  0  0
  1 24  1  0  0  0  0
  2  8  1  0  0  0  0
  2  3  2  0  0  0  0
  3  4  1  0  0  0  0
  4  5  1  0  0  0  0
  4  6  1  0  0  0  0
  5 25  1  0  0  0  0
  5 26  1  0  0  0  0
  5 27  1  0  0  0  0
  6  7  1  0  0  0  0
  6  8  2  0  0  0  0
  7 28  1  0  0  0  0
  7 29  1  0  0  0  0
  7 30  1  0  0  0  0
  8  9  1  0  0  0  0
  9 10  1  0  0  0  0
  9 31  1  0  0  0  0
  9 32  1  0  0  0  0
 10 11  2  0  0  0  0
 10 12  1  0  0  0  0
 12 13  1  0  0  0  0
 12 33  1  0  0  0  0
 13 14  1  0  0  0  0
 13 34  1  0  0  0  0
 13 35  1  0  0  0  0
 14 15  1  0  0  0  0
 14 36  1  0  0  0  0
 14 37  1  0  0  0  0
 15 21  1  0  0  0  0
 15 16  1  0  0  0  0
 15 50  1  0  0  0  0
 16 17  1  0  0  0  0
 16 38  1  0  0  0  0
 16 39  1  0  0  0  0
 17 18  1  0  0  0  0
 17 40  1  0  0  0  0
 17 41  1  0  0  0  0
 18 19  1  0  0  0  0
 18 42  1  0  0  0  0
 18 43  1  0  0  0  0
 19 20  1  0  0  0  0
 19 21  1  0  0  0  0
 19 44  1  0  0  0  0
 20 45  1  0  0  0  0
 20 46  1  0  0  0  0
 20 47  1  0  0  0  0
 21 48  1  0  0  0  0
 21 49  1  0  0  0  0
M  CHG  1  15   1
M  END
> <s_m_source_file>
AV-unprocessed.smi

> <i_m_source_file_index>
565

> <i_lp_mmshare_version>
43012

> <i_f3d_flags>
0

> <s_epik_input>
W0NIM11jMW5uKFtDSDNdKWMoW0NIM10pYzFbQ0gyXUMoPU8pW05IXVtDSDJdW0NIMl1OMltDSDJdW0NIMl1bQ0gyXVtDQEBIXShbQ0gzXSlbQ0gyXTI=

> <s_epik_cmdline>
J2VwaWtfcHl0aG9uJywgJy1waCcsICc3LjAnLCAnLXRuJywgJzgnLCAnLW1hJywgJzIwMCcsICctbWV0YWxfYmluZGluZycsICctaW1hZScsICc8aW5maWxlLm1hZT4nLCAnLW9tYWUnLCAnPG91dGZpbGUubWFlPic=

> <r_lp_tautomer_probability>
1

> <r_epik_Ionization_Penalty>
0.00411138

> <r_epik_Ionization_Penalty_Charging>
0.0019503

> <r_epik_Ionization_Penalty_Neutral>
0.00216107

> <r_epik_State_Penalty>
-0

> <r_epik_Charging_Adjusted_Penalty>
0.0019503

> <i_epik_Tot_Q>
1

> <i_epik_Tot_abs_Q>
1

> <r_epik_Metal_State_Penalty>
-0

> <b_epik_Metal_Only>
0

> <s_lp_Force_Field>
OPLS_2005

> <r_lp_Energy>
10.1844

> <b_lp_Chiralities_Consistent>
1

> <s_lp_Variant>
AV-unprocessed.smi:565-4

> <Gold.Version>
5.8.1

> <Gold.Id.Protein>
6NUR|6NUR_protein|mol2

> <Gold.PLP.Fitness>
45.9849

> <Gold.PLP.PLP>
-35.8164

> <Gold.PLP.part.hbond>
-3.0000

> <Gold.PLP.part.metal>
0.0000

> <Gold.PLP.part.buried>
-3.8104

> <Gold.PLP.part.nonpolar>
-29.1425

> <Gold.PLP.part.repulsive>
0.0000

> <Gold.PLP.ligand.clash>
0.0000

> <Gold.PLP.ligand.torsion>
0.4914

> <Gold.PLP.Chemscore.Hbond>
3.6960

> <Gold.PLP.Chemscore.CHOScore>
0.0000

> <Gold.PLP.Chemscore.Metal>
0.0000

> <Gold.Chemscore.Hbonds>
donor molecule, donor type, donor heavy atom, donor atom, acceptor molecule, acceptor atom, score
      L1  H    15    50       P1  7948  2.00
      P1  H  6931  6943       L1     3  0.95
      P1  H  6934  6947       L1     3  0.15

> <Gold.PLP.Chemscore.Internal.Correction>
0.0633

> <Gold.Rescore>
     Score         DG    S(hbond)    S(metal)    S(lipo)     H(rot)  DE(clash)    DE(int)     intcor
     17.61     -18.35       2.28        0.00      80.29       1.61       0.37       0.38       ----

> <Gold.Chemscore.Fitness>
17.6086

> <Gold.Chemscore.DG>
-18.3534

> <Gold.Chemscore.ZeroCoef>
-5.4800

> <Gold.Chemscore.Hbond>
2.2791

> <Gold.Chemscore.Metal>
0.0000

> <Gold.Chemscore.Lipo>
80.2862

> <Gold.Chemscore.Internal_Hbond>
0.0000

> <Gold.Chemscore.DEClash>
0.3688

> <Gold.Chemscore.DEInternal>
0.3759

> <Gold.Chemscore.Rot>
1.6142

> <Gold.Chemscore.Internal.Correction>
   9.000000E+99

> <Gold.Chemscore.Hbonds>
donor molecule, donor type, donor heavy atom, donor atom, acceptor molecule, acceptor atom, score
      L1  H    15    50       P1  7948  0.99
      P1  H  6931  6943       L1     3  0.21
      P1  H  6934  6947       L1     3  0.10

> <Gold.Chemscore.Hbond.Weighted>
-7.6123

> <Gold.Chemscore.Metal.Weighted>
-0.0000

> <Gold.Chemscore.Lipo.Weighted>
-9.3935

> <Gold.Chemscore.Internal_Hbond.Weighted>
0.0000

> <Gold.Chemscore.DEClash.Weighted>
0.3688

> <Gold.Chemscore.DEInternal.Weighted>
0.3759

> <Gold.Chemscore.Rot.Weighted>
4.1324

> <Gold.Chemscore.Internal.Correction.Weighted>
   9.000000E+99

> <Gold.Protein.RotatedTorsions>
[ 6907 6896 6895 6894 ] final   29.15 input  -60.11 | X-H torsion
[ 7974 7965 7964 7962 ] final   84.26 input  175.53 | X-H torsion
[ 8008 7997 7996 7995 ] final -170.66 input   59.86 | X-H torsion
[ 10167 10162 10161 10158 ] final  -39.11 input  -65.29 | X-H torsion
[ 10718 10713 10712 10709 ] final -120.21 input   66.30 | X-H torsion
[ 10763 10752 10751 10750 ] final   49.99 input  -60.55 | X-H torsion
[ 11005 11000 10999 10996 ] final   98.24 input  -57.11 | X-H torsion

> <Gold.Protein.ActiveResidues>
 VAL166  LYS551  ARG553  GLY616  TRP617  ASP618  TYR619  PRO620  LYS621  CYS622 
 ASP623  PHE694  ASN695  SER759  ASP760  ASP761  ALA762  ILE779  LEU786  VAL792 
 PHE793  MET794  SER795  GLU796  ALA797  LYS798  CYS799  TRP800  GLU811  SER814 

> <Gold.Protein.RotatedAtoms>
  152.0273  134.9788  160.0571 H   0  0  0  0  0  0  0  0  0  0  0  0  # atno 6907 bound_to 6896
  152.1278  133.4386  159.4715 H   0  0  0  0  0  0  0  0  0  0  0  0  # atno 6908 bound_to 6896
  150.6854  134.2375  159.4502 H   0  0  0  0  0  0  0  0  0  0  0  0  # atno 6909 bound_to 6896
  145.6010  139.2352  143.2246 H   0  0  0  0  0  0  0  0  0  0  0  0  # atno 7974 bound_to 7965
  155.9213  140.1075  157.1204 H   0  0  0  0  0  0  0  0  0  0  0  0  # atno 8008 bound_to 7997
  154.4055  140.1255  156.4749 H   0  0  0  0  0  0  0  0  0  0  0  0  # atno 8009 bound_to 7997
  155.7192  140.3470  155.5010 H   0  0  0  0  0  0  0  0  0  0  0  0  # atno 8010 bound_to 7997
  140.7073  143.3234  151.2737 H   0  0  0  0  0  0  0  0  0  0  0  0  # atno 10167 bound_to 10162
  156.1241  130.6345  150.9512 H   0  0  0  0  0  0  0  0  0  0  0  0  # atno 10718 bound_to 10713
  152.9785  135.5893  154.4179 H   0  0  0  0  0  0  0  0  0  0  0  0  # atno 10763 bound_to 10752
  154.3807  135.2767  155.2215 H   0  0  0  0  0  0  0  0  0  0  0  0  # atno 10764 bound_to 10752
  154.4130  135.6077  153.6018 H   0  0  0  0  0  0  0  0  0  0  0  0  # atno 10765 bound_to 10752
  139.8773  134.9039  156.4426 H   0  0  0  0  0  0  0  0  0  0  0  0  # atno 11005 bound_to 11000
  146.1576  140.6835  142.9292 LP  0  0  0  0  0  0  0  0  0  0  0  0  # atno 17320 bound_to 7965
  144.7310  140.4670  143.6938 LP  0  0  0  0  0  0  0  0  0  0  0  0  # atno 17321 bound_to 7965
  139.6695  144.0045  152.2744 LP  0  0  0  0  0  0  0  0  0  0  0  0  # atno 17342 bound_to 10162
  139.9639  144.6539  150.8053 LP  0  0  0  0  0  0  0  0  0  0  0  0  # atno 17343 bound_to 10162
  157.6423  131.0908  150.8226 LP  0  0  0  0  0  0  0  0  0  0  0  0  # atno 17370 bound_to 10713
  156.8319  130.5018  149.5330 LP  0  0  0  0  0  0  0  0  0  0  0  0  # atno 17371 bound_to 10713
  140.8988  133.7794  155.9656 LP  0  0  0  0  0  0  0  0  0  0  0  0  # atno 17394 bound_to 11000
  140.8673  134.2768  157.5207 LP  0  0  0  0  0  0  0  0  0  0  0  0  # atno 17395 bound_to 11000

$$$$
