AV-unprocessed.smi:3281|AV-procd|sdf|12559|dock5
  -GOLD-   2272018483D 1   1.00000     0.00000
 Structure written by MMmdl.
 36 37  0  0  0  0  0  0  0  0  1 V2000
  146.4720  138.3900  152.0931 C   0  0  0  0  0  0  0  0  0  0  0  0
  146.7438  139.8873  151.9128 C   0  0  0  0  0  0  0  0  0  0  0  0
  147.1726  140.5643  153.1728 C   0  0  0  0  0  0  0  0  0  0  0  0
  146.5481  141.6016  153.8200 C   0  0  0  0  0  0  0  0  0  0  0  0
  147.1955  142.0116  154.9875 N   0  0  0  0  0  0  0  0  0  0  0  0
  148.3063  141.3109  155.2283 C   0  0  0  0  0  0  0  0  0  0  0  0
  149.1653  141.5207  156.4339 C   0  0  0  0  0  0  0  0  0  0  0  0
  150.6269  141.8487  156.0888 C   0  0  0  0  0  0  0  0  0  0  0  0
  150.9921  143.1573  156.6152 N   0  0  0  0  0  0  0  0  0  0  0  0
  151.1183  143.1505  158.0668 C   0  0  1  0  0  0  0  0  0  0  0  0
  152.0384  141.9921  158.5135 C   0  0  0  0  0  0  0  0  0  0  0  0
  152.2219  141.9379  160.0388 C   0  0  0  0  0  0  0  0  0  0  0  0
  152.8593  143.2162  160.5997 C   0  0  0  0  0  0  0  0  0  0  0  0
  151.8079  144.6601  160.2912 S   0  0  0  0  0  0  0  0  0  0  0  0
  151.6858  144.5181  158.4875 C   0  0  0  0  0  0  0  0  0  0  0  0
  148.6172  140.0705  154.0181 S   0  0  0  0  0  0  0  0  0  0  0  0
  146.1681  137.9349  151.1503 H   0  0  0  0  0  0  0  0  0  0  0  0
  145.6760  138.2166  152.8176 H   0  0  0  0  0  0  0  0  0  0  0  0
  147.3634  137.8686  152.4427 H   0  0  0  0  0  0  0  0  0  0  0  0
  147.5092  140.0232  151.1480 H   0  0  0  0  0  0  0  0  0  0  0  0
  145.8463  140.3739  151.5299 H   0  0  0  0  0  0  0  0  0  0  0  0
  145.6391  142.1040  153.5231 H   0  0  0  0  0  0  0  0  0  0  0  0
  148.7314  142.3152  157.0422 H   0  0  0  0  0  0  0  0  0  0  0  0
  149.1304  140.6162  157.0422 H   0  0  0  0  0  0  0  0  0  0  0  0
  151.2857  141.0969  156.5248 H   0  0  0  0  0  0  0  0  0  0  0  0
  150.7637  141.8090  155.0084 H   0  0  0  0  0  0  0  0  0  0  0  0
  150.2845  143.8248  156.3431 H   0  0  0  0  0  0  0  0  0  0  0  0
  150.1294  143.0369  158.5137 H   0  0  0  0  0  0  0  0  0  0  0  0
  151.6328  141.0353  158.1853 H   0  0  0  0  0  0  0  0  0  0  0  0
  153.0140  142.0869  158.0341 H   0  0  0  0  0  0  0  0  0  0  0  0
  151.2591  141.7642  160.5208 H   0  0  0  0  0  0  0  0  0  0  0  0
  152.8492  141.0833  160.2937 H   0  0  0  0  0  0  0  0  0  0  0  0
  153.0154  143.1205  161.6743 H   0  0  0  0  0  0  0  0  0  0  0  0
  153.8374  143.3840  160.1476 H   0  0  0  0  0  0  0  0  0  0  0  0
  152.6748  144.6759  158.0545 H   0  0  0  0  0  0  0  0  0  0  0  0
  151.0461  145.3248  158.1273 H   0  0  0  0  0  0  0  0  0  0  0  0
  1  2  1  0  0  0  0
  1 17  1  0  0  0  0
  1 18  1  0  0  0  0
  1 19  1  0  0  0  0
  2  3  1  0  0  0  0
  2 20  1  0  0  0  0
  2 21  1  0  0  0  0
  3 16  1  0  0  0  0
  3  4  2  0  0  0  0
  4  5  1  0  0  0  0
  4 22  1  0  0  0  0
  5  6  2  0  0  0  0
  6  7  1  0  0  0  0
  6 16  1  0  0  0  0
  7  8  1  0  0  0  0
  7 23  1  0  0  0  0
  7 24  1  0  0  0  0
  8  9  1  0  0  0  0
  8 25  1  0  0  0  0
  8 26  1  0  0  0  0
  9 10  1  0  0  0  0
  9 27  1  0  0  0  0
 10 15  1  0  0  0  0
 10 11  1  0  0  0  0
 10 28  1  0  0  0  0
 11 12  1  0  0  0  0
 11 29  1  0  0  0  0
 11 30  1  0  0  0  0
 12 13  1  0  0  0  0
 12 31  1  0  0  0  0
 12 32  1  0  0  0  0
 13 14  1  0  0  0  0
 13 33  1  0  0  0  0
 13 34  1  0  0  0  0
 14 15  1  0  0  0  0
 15 35  1  0  0  0  0
 15 36  1  0  0  0  0
M  END
> <s_m_source_file>
AV-unprocessed.smi

> <i_m_source_file_index>
3281

> <i_lp_mmshare_version>
43012

> <i_f3d_flags>
0

> <s_epik_input>
W0NIM11bQ0gyXWMxW2NIXW5jKHMxKVtDSDJdW0NIMl1bTkhdW0NAQEhdMltDSDJdW0NIMl1bQ0gyXVNbQ0gyXTI=

> <s_epik_cmdline>
J2VwaWtfcHl0aG9uJywgJy1waCcsICc3LjAnLCAnLXRuJywgJzgnLCAnLW1hJywgJzIwMCcsICctbWV0YWxfYmluZGluZycsICctaW1hZScsICc8aW5maWxlLm1hZT4nLCAnLW9tYWUnLCAnPG91dGZpbGUubWFlPic=

> <r_epik_Ionization_Penalty>
2.53829

> <r_epik_Ionization_Penalty_Charging>
0

> <r_epik_Ionization_Penalty_Neutral>
2.53829

> <r_epik_State_Penalty>
2.70274

> <r_epik_Charging_Adjusted_Penalty>
2.70274

> <i_epik_Tot_Q>
0

> <i_epik_Tot_abs_Q>
0

> <r_epik_Metal_State_Penalty>
2.69977

> <b_epik_Metal_Only>
0

> <s_lp_Force_Field>
OPLS_2005

> <r_lp_Energy>
0.42492

> <b_lp_Chiralities_Consistent>
1

> <s_lp_Variant>
AV-unprocessed.smi:3281-4

> <Gold.Version>
5.8.1

> <Gold.Id.Protein>
6NUR|6NUR_protein|mol2

> <Gold.PLP.Fitness>
41.1850

> <Gold.PLP.PLP>
-38.4620

> <Gold.PLP.part.hbond>
-1.0000

> <Gold.PLP.part.metal>
0.0000

> <Gold.PLP.part.buried>
0.1687

> <Gold.PLP.part.nonpolar>
-38.9778

> <Gold.PLP.part.repulsive>
0.1320

> <Gold.PLP.ligand.clash>
0.0000

> <Gold.PLP.ligand.torsion>
0.4494

> <Gold.PLP.Chemscore.Hbond>
1.0000

> <Gold.PLP.Chemscore.CHOScore>
0.1983

> <Gold.PLP.Chemscore.Metal>
0.0000

> <Gold.Chemscore.Hbonds>
donor molecule, donor type, donor heavy atom, donor atom, acceptor molecule, acceptor atom, score
      L1  H     9    27       P1  8028  1.00
      L1  C     4    22       P1 10175  0.14

> <Gold.PLP.Chemscore.Internal.Correction>
0.0269

> <Gold.Rescore>
     Score         DG    S(hbond)    S(metal)    S(lipo)     H(rot)  DE(clash)    DE(int)     intcor
     19.33     -20.00       1.00        0.00     123.91       1.30       0.22       0.45       ----

> <Gold.Chemscore.Fitness>
19.3287

> <Gold.Chemscore.DG>
-19.9962

> <Gold.Chemscore.ZeroCoef>
-5.4800

> <Gold.Chemscore.Hbond>
1.0000

> <Gold.Chemscore.Metal>
0.0000

> <Gold.Chemscore.Lipo>
123.9060

> <Gold.Chemscore.Internal_Hbond>
0.0000

> <Gold.Chemscore.DEClash>
0.2188

> <Gold.Chemscore.DEInternal>
0.4486

> <Gold.Chemscore.Rot>
1.2972

> <Gold.Chemscore.Internal.Correction>
   9.000000E+99

> <Gold.Chemscore.Hbonds>
donor molecule, donor type, donor heavy atom, donor atom, acceptor molecule, acceptor atom, score
      L1  H     9    27       P1  8028  1.00

> <Gold.Chemscore.Hbond.Weighted>
-3.3400

> <Gold.Chemscore.Metal.Weighted>
-0.0000

> <Gold.Chemscore.Lipo.Weighted>
-14.4970

> <Gold.Chemscore.Internal_Hbond.Weighted>
0.0000

> <Gold.Chemscore.DEClash.Weighted>
0.2188

> <Gold.Chemscore.DEInternal.Weighted>
0.4486

> <Gold.Chemscore.Rot.Weighted>
3.3208

> <Gold.Chemscore.Internal.Correction.Weighted>
   9.000000E+99

> <Gold.Protein.RotatedTorsions>
[ 6907 6896 6895 6894 ] final  117.52 input  -60.11 | X-H torsion
[ 7974 7965 7964 7962 ] final  105.91 input  175.53 | X-H torsion
[ 8008 7997 7996 7995 ] final  156.00 input   59.86 | X-H torsion
[ 10167 10162 10161 10158 ] final   -9.00 input  -65.29 | X-H torsion
[ 10718 10713 10712 10709 ] final   -9.61 input   66.30 | X-H torsion
[ 10763 10752 10751 10750 ] final  157.33 input  -60.55 | X-H torsion
[ 11005 11000 10999 10996 ] final  104.02 input  -57.11 | X-H torsion

> <Gold.Protein.ActiveResidues>
 VAL166  LYS551  ARG553  GLY616  TRP617  ASP618  TYR619  PRO620  LYS621  CYS622 
 ASP623  PHE694  ASN695  SER759  ASP760  ASP761  ALA762  ILE779  LEU786  VAL792 
 PHE793  MET794  SER795  GLU796  ALA797  LYS798  CYS799  TRP800  GLU811  SER814 

> <Gold.Protein.RotatedAtoms>
  152.4606  133.7815  159.6852 H   0  0  0  0  0  0  0  0  0  0  0  0  # atno 6907 bound_to 6896
  150.8549  133.7721  159.3019 H   0  0  0  0  0  0  0  0  0  0  0  0  # atno 6908 bound_to 6896
  151.5305  135.1071  159.9953 H   0  0  0  0  0  0  0  0  0  0  0  0  # atno 6909 bound_to 6896
  145.3135  139.2533  143.3750 H   0  0  0  0  0  0  0  0  0  0  0  0  # atno 7974 bound_to 7965
  156.2447  140.1924  156.6888 H   0  0  0  0  0  0  0  0  0  0  0  0  # atno 8008 bound_to 7997
  154.6267  140.0601  156.9708 H   0  0  0  0  0  0  0  0  0  0  0  0  # atno 8009 bound_to 7997
  155.1775  140.3273  155.4384 H   0  0  0  0  0  0  0  0  0  0  0  0  # atno 8010 bound_to 7997
  140.7075  143.5906  150.8897 H   0  0  0  0  0  0  0  0  0  0  0  0  # atno 10167 bound_to 10162
  156.6855  130.5049  149.5959 H   0  0  0  0  0  0  0  0  0  0  0  0  # atno 10718 bound_to 10713
  154.1985  135.2791  155.2998 H   0  0  0  0  0  0  0  0  0  0  0  0  # atno 10763 bound_to 10752
  154.5873  135.5571  153.7247 H   0  0  0  0  0  0  0  0  0  0  0  0  # atno 10764 bound_to 10752
  153.0094  135.6359  154.2124 H   0  0  0  0  0  0  0  0  0  0  0  0  # atno 10765 bound_to 10752
  139.8788  134.9285  156.5298 H   0  0  0  0  0  0  0  0  0  0  0  0  # atno 11005 bound_to 11000
  146.3109  140.3676  142.8671 LP  0  0  0  0  0  0  0  0  0  0  0  0  # atno 17320 bound_to 7965
  144.8997  140.7627  143.5875 LP  0  0  0  0  0  0  0  0  0  0  0  0  # atno 17321 bound_to 7965
  139.9632  143.6140  152.2996 LP  0  0  0  0  0  0  0  0  0  0  0  0  # atno 17342 bound_to 10162
  139.6700  144.7661  151.1800 LP  0  0  0  0  0  0  0  0  0  0  0  0  # atno 17343 bound_to 10162
  156.1836  130.6515  151.0980 LP  0  0  0  0  0  0  0  0  0  0  0  0  # atno 17370 bound_to 10713
  157.7028  131.0769  150.6765 LP  0  0  0  0  0  0  0  0  0  0  0  0  # atno 17371 bound_to 10713
  140.8389  133.8220  155.9056 LP  0  0  0  0  0  0  0  0  0  0  0  0  # atno 17394 bound_to 11000
  140.9257  134.2086  157.4898 LP  0  0  0  0  0  0  0  0  0  0  0  0  # atno 17395 bound_to 11000

$$$$
