AV-unprocessed.smi:280|AV-procd|sdf|2099|dock7
  -GOLD-   2262021383D 1   1.00000     0.00000
 Structure written by MMmdl.
 59 62  0  0  0  0  0  0  0  0  2 V2000
  146.1896  135.3393  153.1110 C   0  0  0  0  0  0  0  0  0  0  0  0
  145.0189  134.5821  153.7764 C   0  0  2  0  0  0  0  0  0  0  0  0
  144.8549  134.9691  155.2618 C   0  0  0  0  0  0  0  0  0  0  0  0
  145.9102  134.3719  156.0808 N   0  0  0  0  0  0  0  0  0  0  0  0
  146.9710  135.1464  156.4388 C   0  0  0  0  0  0  0  0  0  0  0  0
  148.0444  134.5158  156.9838 N   0  0  0  0  0  0  0  0  0  0  0  0
  149.1252  135.2047  157.3576 C   0  0  0  0  0  0  0  0  0  0  0  0
  149.3435  136.5167  157.2786 N   0  0  0  0  0  0  0  0  0  0  0  0
  148.2741  137.1636  156.7346 C   0  0  0  0  0  0  0  0  0  0  0  0
  147.0578  136.5652  156.2920 C   0  0  0  0  0  0  0  0  0  0  0  0
  146.2050  137.5575  155.8187 N   0  0  0  0  0  0  0  0  0  0  0  0
  146.8797  138.6652  155.9559 C   0  0  0  0  0  0  0  0  0  0  0  0
  148.1391  138.5192  156.4879 N   0  0  0  0  0  0  0  0  0  0  0  0
  149.1056  139.5748  156.7489 C   0  0  0  0  0  0  0  0  0  0  0  0
  149.7264  140.2126  155.4868 C   0  0  0  0  0  0  0  0  0  0  0  0
  148.6300  140.8080  154.5835 C   0  0  0  0  0  0  0  0  0  0  0  0
  149.1407  141.2361  153.3362 O   0  0  0  0  0  0  0  0  0  0  0  0
  150.9756  141.0816  155.7021 C   0  0  0  0  0  0  0  0  0  0  0  0
  151.8601  140.0207  155.2858 O   0  0  0  0  0  0  0  0  0  0  0  0
  150.7264  139.2916  154.7711 C   0  0  0  0  0  0  0  0  0  0  0  0
  146.0342  132.9237  155.9540 C   0  0  0  0  0  0  0  0  0  0  0  0
  146.1991  132.5091  154.4798 C   0  0  0  0  0  0  0  0  0  0  0  0
  145.1205  133.0983  153.6402 N   0  3  2  0  0  0  0  0  0  0  0  0
  145.1078  132.6078  152.2346 C   0  0  0  0  0  0  0  0  0  0  0  0
  143.9553  133.2041  151.3896 C   0  0  0  0  0  0  0  0  0  0  0  0
  144.2944  134.6032  150.8431 C   0  0  0  0  0  0  0  0  0  0  0  0
  143.6067  132.2531  150.2323 C   0  0  0  0  0  0  0  0  0  0  0  0
  142.7891  133.3072  152.1810 O   0  0  0  0  0  0  0  0  0  0  0  0
  146.0659  136.4160  153.2296 H   0  0  0  0  0  0  0  0  0  0  0  0
  146.2499  135.1420  152.0412 H   0  0  0  0  0  0  0  0  0  0  0  0
  147.1530  135.0774  153.5476 H   0  0  0  0  0  0  0  0  0  0  0  0
  144.1048  134.8895  153.2666 H   0  0  0  0  0  0  0  0  0  0  0  0
  144.8057  136.0535  155.3612 H   0  0  0  0  0  0  0  0  0  0  0  0
  143.8995  134.5939  155.6302 H   0  0  0  0  0  0  0  0  0  0  0  0
  149.9304  134.6207  157.7788 H   0  0  0  0  0  0  0  0  0  0  0  0
  146.4712  139.6238  155.6721 H   0  0  0  0  0  0  0  0  0  0  0  0
  148.6040  140.3362  157.3481 H   0  0  0  0  0  0  0  0  0  0  0  0
  149.8886  139.1703  157.3914 H   0  0  0  0  0  0  0  0  0  0  0  0
  147.8560  140.0691  154.3748 H   0  0  0  0  0  0  0  0  0  0  0  0
  148.1292  141.6455  155.0698 H   0  0  0  0  0  0  0  0  0  0  0  0
  149.0797  140.5180  152.7247 H   0  0  0  0  0  0  0  0  0  0  0  0
  151.0375  141.9422  155.0339 H   0  0  0  0  0  0  0  0  0  0  0  0
  151.1457  141.3821  156.7351 H   0  0  0  0  0  0  0  0  0  0  0  0
  150.7040  138.2567  155.1151 H   0  0  0  0  0  0  0  0  0  0  0  0
  150.6811  139.3357  153.6817 H   0  0  0  0  0  0  0  0  0  0  0  0
  146.8392  132.5291  156.5727 H   0  0  0  0  0  0  0  0  0  0  0  0
  145.1201  132.4796  156.3497 H   0  0  0  0  0  0  0  0  0  0  0  0
  147.1704  132.8211  154.0974 H   0  0  0  0  0  0  0  0  0  0  0  0
  146.1819  131.4224  154.4167 H   0  0  0  0  0  0  0  0  0  0  0  0
  146.0413  132.8904  151.7465 H   0  0  0  0  0  0  0  0  0  0  0  0
  145.0852  131.5167  152.2188 H   0  0  0  0  0  0  0  0  0  0  0  0
  145.1962  134.5779  150.2305 H   0  0  0  0  0  0  0  0  0  0  0  0
  144.4595  135.3241  151.6442 H   0  0  0  0  0  0  0  0  0  0  0  0
  143.4872  134.9916  150.2209 H   0  0  0  0  0  0  0  0  0  0  0  0
  144.4553  132.1225  149.5597 H   0  0  0  0  0  0  0  0  0  0  0  0
  142.7745  132.6338  149.6384 H   0  0  0  0  0  0  0  0  0  0  0  0
  143.3233  131.2656  150.5989 H   0  0  0  0  0  0  0  0  0  0  0  0
  142.9402  132.8620  153.0014 H   0  0  0  0  0  0  0  0  0  0  0  0
  144.2595  132.7512  154.0382 H   0  0  0  0  0  0  0  0  0  0  0  0
  1  2  1  0  0  0  0
  1 29  1  0  0  0  0
  1 30  1  0  0  0  0
  1 31  1  0  0  0  0
  2 23  1  0  0  0  0
  2  3  1  0  0  0  0
  2 32  1  0  0  0  0
  3  4  1  0  0  0  0
  3 33  1  0  0  0  0
  3 34  1  0  0  0  0
  4  5  1  0  0  0  0
  4 21  1  0  0  0  0
  5 10  1  0  0  0  0
  5  6  2  0  0  0  0
  6  7  1  0  0  0  0
  7  8  2  0  0  0  0
  7 35  1  0  0  0  0
  8  9  1  0  0  0  0
  9 13  1  0  0  0  0
  9 10  2  0  0  0  0
 10 11  1  0  0  0  0
 11 12  2  0  0  0  0
 12 13  1  0  0  0  0
 12 36  1  0  0  0  0
 13 14  1  0  0  0  0
 14 15  1  0  0  0  0
 14 37  1  0  0  0  0
 14 38  1  0  0  0  0
 15 20  1  0  0  0  0
 15 16  1  0  0  0  0
 15 18  1  0  0  0  0
 16 17  1  0  0  0  0
 16 39  1  0  0  0  0
 16 40  1  0  0  0  0
 17 41  1  0  0  0  0
 18 19  1  0  0  0  0
 18 42  1  0  0  0  0
 18 43  1  0  0  0  0
 19 20  1  0  0  0  0
 20 44  1  0  0  0  0
 20 45  1  0  0  0  0
 21 22  1  0  0  0  0
 21 46  1  0  0  0  0
 21 47  1  0  0  0  0
 22 23  1  0  0  0  0
 22 48  1  0  0  0  0
 22 49  1  0  0  0  0
 23 24  1  0  0  0  0
 23 59  1  0  0  0  0
 24 25  1  0  0  0  0
 24 50  1  0  0  0  0
 24 51  1  0  0  0  0
 25 26  1  0  0  0  0
 25 27  1  0  0  0  0
 25 28  1  0  0  0  0
 26 52  1  0  0  0  0
 26 53  1  0  0  0  0
 26 54  1  0  0  0  0
 27 55  1  0  0  0  0
 27 56  1  0  0  0  0
 27 57  1  0  0  0  0
 28 58  1  0  0  0  0
M  CHG  1  23   1
M  END
> <s_m_source_file>
AV-unprocessed.smi

> <i_m_source_file_index>
280

> <i_lp_mmshare_version>
43012

> <i_f3d_flags>
0

> <s_epik_input>
W0NIM11DKFtDSDNdKShbT0hdKVtDSDJdTjFbQ0gyXVtDSDJdTihbQ0gyXVtDQEhdMVtDSDNdKWMobltjSF1uMiljKGMyMyluW2NIXW4zW0NIMl1DNChbQ0gyXVtPSF0pW0NIMl1PW0NIMl00

> <s_epik_cmdline>
J2VwaWtfcHl0aG9uJywgJy1waCcsICc3LjAnLCAnLXRuJywgJzgnLCAnLW1hJywgJzIwMCcsICctbWV0YWxfYmluZGluZycsICctaW1hZScsICc8aW5maWxlLm1hZT4nLCAnLW9tYWUnLCAnPG91dGZpbGUubWFlPic=

> <r_lp_tautomer_probability>
1

> <r_epik_Ionization_Penalty>
0.00179402

> <r_epik_Ionization_Penalty_Charging>
0.00173996

> <r_epik_Ionization_Penalty_Neutral>
5.40607e-05

> <r_epik_State_Penalty>
-0

> <r_epik_Charging_Adjusted_Penalty>
0.00173996

> <i_epik_Tot_Q>
1

> <i_epik_Tot_abs_Q>
1

> <r_epik_Metal_State_Penalty>
-0

> <b_epik_Metal_Only>
0

> <s_lp_Force_Field>
OPLS_2005

> <r_lp_Energy>
53.0384

> <b_lp_Chiralities_Consistent>
1

> <s_lp_Variant>
AV-unprocessed.smi:280-3

> <Gold.Version>
5.8.1

> <Gold.Id.Protein>
6NUR|6NUR_protein|mol2

> <Gold.PLP.Fitness>
43.5712

> <Gold.PLP.PLP>
-30.1250

> <Gold.PLP.part.hbond>
-5.9397

> <Gold.PLP.part.metal>
0.0000

> <Gold.PLP.part.buried>
-4.4634

> <Gold.PLP.part.nonpolar>
-20.2313

> <Gold.PLP.part.repulsive>
0.0115

> <Gold.PLP.ligand.clash>
0.0000

> <Gold.PLP.ligand.torsion>
0.7622

> <Gold.PLP.Chemscore.Hbond>
4.6649

> <Gold.PLP.Chemscore.CHOScore>
0.0000

> <Gold.PLP.Chemscore.Metal>
0.0000

> <Gold.Chemscore.Hbonds>
donor molecule, donor type, donor heavy atom, donor atom, acceptor molecule, acceptor atom, score
      L1  H    17    41       P1  7957  0.82
      L1  H    23    59       P1 10957  2.00
      L1  H    28    58       P1 10957  0.84
      P1  H  8011  8017       L1    17  1.00

> <Gold.PLP.Chemscore.Internal.Correction>
0.9758

> <Gold.Rescore>
     Score         DG    S(hbond)    S(metal)    S(lipo)     H(rot)  DE(clash)    DE(int)     intcor
     12.35     -15.54       3.31        0.00      63.79       3.30       0.08       3.11       ----

> <Gold.Chemscore.Fitness>
12.3536

> <Gold.Chemscore.DG>
-15.5429

> <Gold.Chemscore.ZeroCoef>
-5.4800

> <Gold.Chemscore.Hbond>
3.3068

> <Gold.Chemscore.Metal>
0.0000

> <Gold.Chemscore.Lipo>
63.7924

> <Gold.Chemscore.Internal_Hbond>
0.0000

> <Gold.Chemscore.DEClash>
0.0766

> <Gold.Chemscore.DEInternal>
3.1127

> <Gold.Chemscore.Rot>
3.2991

> <Gold.Chemscore.Internal.Correction>
   9.000000E+99

> <Gold.Chemscore.Hbonds>
donor molecule, donor type, donor heavy atom, donor atom, acceptor molecule, acceptor atom, score
      L1  H    17    41       P1  7957  0.81
      L1  H    23    59       P1 10957  0.81
      L1  H    28    58       P1 10957  0.33
      P1  H  8011  8017       L1    17  0.25

> <Gold.Chemscore.Hbond.Weighted>
-11.0448

> <Gold.Chemscore.Metal.Weighted>
-0.0000

> <Gold.Chemscore.Lipo.Weighted>
-7.4637

> <Gold.Chemscore.Internal_Hbond.Weighted>
0.0000

> <Gold.Chemscore.DEClash.Weighted>
0.0766

> <Gold.Chemscore.DEInternal.Weighted>
3.1127

> <Gold.Chemscore.Rot.Weighted>
8.4456

> <Gold.Chemscore.Internal.Correction.Weighted>
   9.000000E+99

> <Gold.Protein.RotatedTorsions>
[ 6907 6896 6895 6894 ] final  -56.44 input  -60.11 | X-H torsion
[ 7974 7965 7964 7962 ] final  114.44 input  175.53 | X-H torsion
[ 8008 7997 7996 7995 ] final  136.20 input   59.86 | X-H torsion
[ 10167 10162 10161 10158 ] final  128.58 input  -65.29 | X-H torsion
[ 10718 10713 10712 10709 ] final -131.13 input   66.30 | X-H torsion
[ 10763 10752 10751 10750 ] final   12.03 input  -60.55 | X-H torsion
[ 11005 11000 10999 10996 ] final  -91.56 input  -57.11 | X-H torsion

> <Gold.Protein.ActiveResidues>
 VAL166  LYS551  ARG553  GLY616  TRP617  ASP618  TYR619  PRO620  LYS621  CYS622 
 ASP623  PHE694  ASN695  SER759  ASP760  ASP761  ALA762  ILE779  LEU786  VAL792 
 PHE793  MET794  SER795  GLU796  ALA797  LYS798  CYS799  TRP800  GLU811  SER814 

> <Gold.Protein.RotatedAtoms>
  150.8168  134.7354  159.6736 H   0  0  0  0  0  0  0  0  0  0  0  0  # atno 6907 bound_to 6896
  152.4286  134.5818  159.9960 H   0  0  0  0  0  0  0  0  0  0  0  0  # atno 6908 bound_to 6896
  151.6013  133.3319  159.3084 H   0  0  0  0  0  0  0  0  0  0  0  0  # atno 6909 bound_to 6896
  145.2044  139.2936  143.4301 H   0  0  0  0  0  0  0  0  0  0  0  0  # atno 7974 bound_to 7965
  156.3004  140.2451  156.3706 H   0  0  0  0  0  0  0  0  0  0  0  0  # atno 8008 bound_to 7997
  154.8792  140.0413  157.1792 H   0  0  0  0  0  0  0  0  0  0  0  0  # atno 8009 bound_to 7997
  154.8713  140.2935  155.5483 H   0  0  0  0  0  0  0  0  0  0  0  0  # atno 8010 bound_to 7997
  139.5520  144.6820  151.4296 H   0  0  0  0  0  0  0  0  0  0  0  0  # atno 10167 bound_to 10162
  156.2214  130.6980  151.0759 H   0  0  0  0  0  0  0  0  0  0  0  0  # atno 10718 bound_to 10713
  153.1864  135.6835  153.8410 H   0  0  0  0  0  0  0  0  0  0  0  0  # atno 10763 bound_to 10752
  153.7724  135.3194  155.3355 H   0  0  0  0  0  0  0  0  0  0  0  0  # atno 10764 bound_to 10752
  154.8091  135.4729  154.0566 H   0  0  0  0  0  0  0  0  0  0  0  0  # atno 10765 bound_to 10752
  141.1542  133.7763  156.9896 H   0  0  0  0  0  0  0  0  0  0  0  0  # atno 11005 bound_to 11000
  146.3411  140.2299  142.8593 LP  0  0  0  0  0  0  0  0  0  0  0  0  # atno 17320 bound_to 7965
  144.9916  140.8552  143.5335 LP  0  0  0  0  0  0  0  0  0  0  0  0  # atno 17321 bound_to 7965
  140.6784  143.8137  150.7089 LP  0  0  0  0  0  0  0  0  0  0  0  0  # atno 17342 bound_to 10162
  140.1583  143.4298  152.2085 LP  0  0  0  0  0  0  0  0  0  0  0  0  # atno 17343 bound_to 10162
  157.7089  131.0743  150.6571 LP  0  0  0  0  0  0  0  0  0  0  0  0  # atno 17370 bound_to 10713
  156.6634  130.4518  149.5680 LP  0  0  0  0  0  0  0  0  0  0  0  0  # atno 17371 bound_to 10713
  140.1012  134.9534  157.1925 LP  0  0  0  0  0  0  0  0  0  0  0  0  # atno 17394 bound_to 11000
  140.3316  134.2803  155.7227 LP  0  0  0  0  0  0  0  0  0  0  0  0  # atno 17395 bound_to 11000

$$$$
