AV-unprocessed.smi:193|AV-procd|sdf|1507|dock9
  -GOLD-   2262019343D 1   1.00000     0.00000
 Structure written by MMmdl.
 62 66  0  0  0  0  0  0  0  0  2 V2000
  144.7768  131.6024  150.6730 C   0  0  0  0  0  0  0  0  0  0  0  0
  146.0549  131.3505  151.4890 C   0  0  1  0  0  0  0  0  0  0  0  0
  146.1572  132.3970  152.6185 C   0  0  0  0  0  0  0  0  0  0  0  0
  147.5150  132.6099  153.1241 N   0  0  0  0  0  0  0  0  0  0  0  0
  147.7631  133.7460  153.8273 C   0  0  0  0  0  0  0  0  0  0  0  0
  146.8930  134.7860  153.7282 N   0  0  0  0  0  0  0  0  0  0  0  0
  147.1001  135.9106  154.4193 C   0  0  0  0  0  0  0  0  0  0  0  0
  148.0982  136.2042  155.2541 N   0  0  0  0  0  0  0  0  0  0  0  0
  148.9831  135.1714  155.3493 C   0  0  0  0  0  0  0  0  0  0  0  0
  148.8955  133.9202  154.6753 C   0  0  0  0  0  0  0  0  0  0  0  0
  149.9897  133.1293  155.0084 N   0  0  0  0  0  0  0  0  0  0  0  0
  150.6748  133.8640  155.8415 C   0  0  0  0  0  0  0  0  0  0  0  0
  150.1369  135.1019  156.1101 N   0  0  0  0  0  0  0  0  0  0  0  0
  150.6832  136.1140  157.0017 C   0  0  0  0  0  0  0  0  0  0  0  0
  151.5593  137.1711  156.2853 C   0  0  0  0  0  0  0  0  0  0  0  0
  152.8959  136.6985  156.2945 O   0  0  0  0  0  0  0  0  0  0  0  0
  151.1125  137.3377  154.8189 C   0  0  0  0  0  0  0  0  0  0  0  0
  151.8436  138.4959  154.1171 C   0  0  0  0  0  0  0  0  0  0  0  0
  151.6636  139.7006  154.8511 O   0  0  0  0  0  0  0  0  0  0  0  0
  152.2247  139.6381  156.1567 C   0  0  0  0  0  0  0  0  0  0  0  0
  151.5217  138.5478  156.9848 C   0  0  0  0  0  0  0  0  0  0  0  0
  148.4969  131.5293  153.2107 C   0  0  0  0  0  0  0  0  0  0  0  0
  147.8942  130.1900  153.6552 C   0  0  0  0  0  0  0  0  0  0  0  0
  147.3656  129.4286  152.4983 N   0  3  1  0  0  0  0  0  0  0  0  0
  147.3516  127.9691  152.7547 C   0  0  2  0  0  0  0  0  0  0  0  0
  148.7274  127.3628  152.9200 C   0  0  0  0  0  0  0  0  0  0  0  0
  147.9451  127.1117  151.6501 C   0  0  2  0  0  0  0  0  0  0  0  0
  148.4414  127.6690  150.3282 C   0  0  0  0  0  0  0  0  0  0  0  0
  146.0386  129.9076  152.0397 C   0  0  0  0  0  0  0  0  0  0  0  0
  143.8846  131.5035  151.2923 H   0  0  0  0  0  0  0  0  0  0  0  0
  144.6884  130.8967  149.8464 H   0  0  0  0  0  0  0  0  0  0  0  0
  144.7744  132.6047  150.2433 H   0  0  0  0  0  0  0  0  0  0  0  0
  146.8946  131.4699  150.8024 H   0  0  0  0  0  0  0  0  0  0  0  0
  145.8015  133.3550  152.2355 H   0  0  0  0  0  0  0  0  0  0  0  0
  145.4930  132.1328  153.4425 H   0  0  0  0  0  0  0  0  0  0  0  0
  146.3590  136.6852  154.2859 H   0  0  0  0  0  0  0  0  0  0  0  0
  151.5948  133.5197  156.2913 H   0  0  0  0  0  0  0  0  0  0  0  0
  149.8532  136.5963  157.5200 H   0  0  0  0  0  0  0  0  0  0  0  0
  151.2659  135.6072  157.7721 H   0  0  0  0  0  0  0  0  0  0  0  0
  153.0572  136.2705  157.1212 H   0  0  0  0  0  0  0  0  0  0  0  0
  151.2608  136.4102  154.2645 H   0  0  0  0  0  0  0  0  0  0  0  0
  150.0414  137.5418  154.7901 H   0  0  0  0  0  0  0  0  0  0  0  0
  152.9072  138.2805  154.0036 H   0  0  0  0  0  0  0  0  0  0  0  0
  151.4421  138.6349  153.1132 H   0  0  0  0  0  0  0  0  0  0  0  0
  153.2983  139.4538  156.0953 H   0  0  0  0  0  0  0  0  0  0  0  0
  152.0994  140.6082  156.6378 H   0  0  0  0  0  0  0  0  0  0  0  0
  150.4831  138.8442  157.1359 H   0  0  0  0  0  0  0  0  0  0  0  0
  151.9721  138.4946  157.9768 H   0  0  0  0  0  0  0  0  0  0  0  0
  149.0188  131.4277  152.2584 H   0  0  0  0  0  0  0  0  0  0  0  0
  149.2587  131.7894  153.9461 H   0  0  0  0  0  0  0  0  0  0  0  0
  148.7010  129.6119  154.1072 H   0  0  0  0  0  0  0  0  0  0  0  0
  147.1413  130.3140  154.4353 H   0  0  0  0  0  0  0  0  0  0  0  0
  146.5230  127.6009  153.3576 H   0  0  0  0  0  0  0  0  0  0  0  0
  149.5915  128.0224  152.8599 H   0  0  0  0  0  0  0  0  0  0  0  0
  148.8296  126.5297  153.6125 H   0  0  0  0  0  0  0  0  0  0  0  0
  147.5088  126.1195  151.5534 H   0  0  0  0  0  0  0  0  0  0  0  0
  148.9502  128.6238  150.4634 H   0  0  0  0  0  0  0  0  0  0  0  0
  147.6066  127.8100  149.6416 H   0  0  0  0  0  0  0  0  0  0  0  0
  149.1446  126.9708  149.8738 H   0  0  0  0  0  0  0  0  0  0  0  0
  145.3084  129.8097  152.8446 H   0  0  0  0  0  0  0  0  0  0  0  0
  145.7021  129.2378  151.2477 H   0  0  0  0  0  0  0  0  0  0  0  0
  148.0134  129.5700  151.7363 H   0  0  0  0  0  0  0  0  0  0  0  0
  1  2  1  0  0  0  0
  1 30  1  0  0  0  0
  1 31  1  0  0  0  0
  1 32  1  0  0  0  0
  2 29  1  0  0  0  0
  2  3  1  0  0  0  0
  2 33  1  0  0  0  0
  3  4  1  0  0  0  0
  3 34  1  0  0  0  0
  3 35  1  0  0  0  0
  4  5  1  0  0  0  0
  4 22  1  0  0  0  0
  5 10  1  0  0  0  0
  5  6  2  0  0  0  0
  6  7  1  0  0  0  0
  7  8  2  0  0  0  0
  7 36  1  0  0  0  0
  8  9  1  0  0  0  0
  9 13  1  0  0  0  0
  9 10  2  0  0  0  0
 10 11  1  0  0  0  0
 11 12  2  0  0  0  0
 12 13  1  0  0  0  0
 12 37  1  0  0  0  0
 13 14  1  0  0  0  0
 14 15  1  0  0  0  0
 14 38  1  0  0  0  0
 14 39  1  0  0  0  0
 15 21  1  0  0  0  0
 15 16  1  0  0  0  0
 15 17  1  0  0  0  0
 16 40  1  0  0  0  0
 17 18  1  0  0  0  0
 17 41  1  0  0  0  0
 17 42  1  0  0  0  0
 18 19  1  0  0  0  0
 18 43  1  0  0  0  0
 18 44  1  0  0  0  0
 19 20  1  0  0  0  0
 20 21  1  0  0  0  0
 20 45  1  0  0  0  0
 20 46  1  0  0  0  0
 21 47  1  0  0  0  0
 21 48  1  0  0  0  0
 22 23  1  0  0  0  0
 22 49  1  0  0  0  0
 22 50  1  0  0  0  0
 23 24  1  0  0  0  0
 23 51  1  0  0  0  0
 23 52  1  0  0  0  0
 24 25  1  0  0  0  0
 24 29  1  0  0  0  0
 24 62  1  0  0  0  0
 25 27  1  0  0  0  0
 25 26  1  0  0  0  0
 25 53  1  0  0  0  0
 26 27  1  0  0  0  0
 26 54  1  0  0  0  0
 26 55  1  0  0  0  0
 27 28  1  0  0  0  0
 27 56  1  0  0  0  0
 28 57  1  0  0  0  0
 28 58  1  0  0  0  0
 28 59  1  0  0  0  0
 29 60  1  0  0  0  0
 29 61  1  0  0  0  0
M  CHG  1  24   1
M  END
> <s_m_source_file>
AV-unprocessed.smi

> <i_m_source_file_index>
193

> <i_lp_mmshare_version>
43012

> <i_f3d_flags>
0

> <s_epik_input>
W0NIM11bQ0BASF0xW0NIMl1bQ0BIXTFOKFtDSDJdMilbQ0gyXVtDSDJdTihbQ0gyXVtDQEhdMltDSDNdKWMobltjSF1uMyljKGMzNCluW2NIXW40W0NIMl1DNShbT0hdKVtDSDJdW0NIMl1PW0NIMl1bQ0gyXTU=

> <s_epik_cmdline>
J2VwaWtfcHl0aG9uJywgJy1waCcsICc3LjAnLCAnLXRuJywgJzgnLCAnLW1hJywgJzIwMCcsICctbWV0YWxfYmluZGluZycsICctaW1hZScsICc8aW5maWxlLm1hZT4nLCAnLW9tYWUnLCAnPG91dGZpbGUubWFlPic=

> <r_lp_tautomer_probability>
1

> <r_epik_Ionization_Penalty>
0.0540825

> <r_epik_Ionization_Penalty_Charging>
0.0538476

> <r_epik_Ionization_Penalty_Neutral>
0.000234891

> <r_epik_State_Penalty>
0.0200719

> <r_epik_Charging_Adjusted_Penalty>
0.0739194

> <i_epik_Tot_Q>
1

> <i_epik_Tot_abs_Q>
1

> <r_epik_Metal_State_Penalty>
0.0199414

> <b_epik_Metal_Only>
0

> <s_lp_Force_Field>
OPLS_2005

> <r_lp_Energy>
56.3109

> <b_lp_Chiralities_Consistent>
1

> <s_lp_Variant>
AV-unprocessed.smi:193-12

> <Gold.Version>
5.8.1

> <Gold.Id.Protein>
6NUR|6NUR_protein|mol2

> <Gold.PLP.Fitness>
48.7045

> <Gold.PLP.PLP>
-43.0972

> <Gold.PLP.part.hbond>
-2.6630

> <Gold.PLP.part.metal>
0.0000

> <Gold.PLP.part.buried>
-2.9003

> <Gold.PLP.part.nonpolar>
-36.3441

> <Gold.PLP.part.repulsive>
1.1611

> <Gold.PLP.ligand.clash>
0.0000

> <Gold.PLP.ligand.torsion>
1.6816

> <Gold.PLP.Chemscore.Hbond>
2.5363

> <Gold.PLP.Chemscore.CHOScore>
0.0000

> <Gold.PLP.Chemscore.Metal>
0.0000

> <Gold.Chemscore.Hbonds>
donor molecule, donor type, donor heavy atom, donor atom, acceptor molecule, acceptor atom, score
      L1  H    24    62       P1 10747  0.73
      P1  H  7989  7998       L1    19  0.95
      P1  H 10752 10765       L1    16  0.91

> <Gold.PLP.Chemscore.Internal.Correction>
1.3617

> <Gold.Rescore>
     Score         DG    S(hbond)    S(metal)    S(lipo)     H(rot)  DE(clash)    DE(int)     intcor
     15.91     -21.38       2.18        0.00     115.94       1.93       2.26       3.21       ----

> <Gold.Chemscore.Fitness>
15.9076

> <Gold.Chemscore.DG>
-21.3819

> <Gold.Chemscore.ZeroCoef>
-5.4800

> <Gold.Chemscore.Hbond>
2.1783

> <Gold.Chemscore.Metal>
0.0000

> <Gold.Chemscore.Lipo>
115.9377

> <Gold.Chemscore.Internal_Hbond>
0.0000

> <Gold.Chemscore.DEClash>
2.2630

> <Gold.Chemscore.DEInternal>
3.2113

> <Gold.Chemscore.Rot>
1.9290

> <Gold.Chemscore.Internal.Correction>
   9.000000E+99

> <Gold.Chemscore.Hbonds>
donor molecule, donor type, donor heavy atom, donor atom, acceptor molecule, acceptor atom, score
      L1  H    24    62       P1 10747  0.53
      P1  H  7989  7998       L1    19  0.21
      P1  H 10752 10765       L1    16  0.29

> <Gold.Chemscore.Hbond.Weighted>
-7.2754

> <Gold.Chemscore.Metal.Weighted>
-0.0000

> <Gold.Chemscore.Lipo.Weighted>
-13.5647

> <Gold.Chemscore.Internal_Hbond.Weighted>
0.0000

> <Gold.Chemscore.DEClash.Weighted>
2.2630

> <Gold.Chemscore.DEInternal.Weighted>
3.2113

> <Gold.Chemscore.Rot.Weighted>
4.9383

> <Gold.Chemscore.Internal.Correction.Weighted>
   9.000000E+99

> <Gold.Protein.RotatedTorsions>
[ 6907 6896 6895 6894 ] final   16.92 input  -60.11 | X-H torsion
[ 7974 7965 7964 7962 ] final   65.66 input  175.53 | X-H torsion
[ 8008 7997 7996 7995 ] final  -33.27 input   59.86 | X-H torsion
[ 10167 10162 10161 10158 ] final    0.41 input  -65.29 | X-H torsion
[ 10718 10713 10712 10709 ] final  116.58 input   66.30 | X-H torsion
[ 10763 10752 10751 10750 ] final -139.44 input  -60.55 | X-H torsion
[ 11005 11000 10999 10996 ] final  -52.00 input  -57.11 | X-H torsion

> <Gold.Protein.ActiveResidues>
 VAL166  LYS551  ARG553  GLY616  TRP617  ASP618  TYR619  PRO620  LYS621  CYS622 
 ASP623  PHE694  ASN695  SER759  ASP760  ASP761  ALA762  ILE779  LEU786  VAL792 
 PHE793  MET794  SER795  GLU796  ALA797  LYS798  CYS799  TRP800  GLU811  SER814 

> <Gold.Protein.RotatedAtoms>
  151.8414  135.0589  160.0448 H   0  0  0  0  0  0  0  0  0  0  0  0  # atno 6907 bound_to 6896
  152.2806  133.5462  159.5503 H   0  0  0  0  0  0  0  0  0  0  0  0  # atno 6908 bound_to 6896
  150.7188  134.0486  159.3832 H   0  0  0  0  0  0  0  0  0  0  0  0  # atno 6909 bound_to 6896
  145.8358  139.3166  143.0960 H   0  0  0  0  0  0  0  0  0  0  0  0  # atno 7974 bound_to 7965
  154.4154  140.1715  156.1861 H   0  0  0  0  0  0  0  0  0  0  0  0  # atno 8008 bound_to 7997
  155.9642  140.3391  155.6494 H   0  0  0  0  0  0  0  0  0  0  0  0  # atno 8009 bound_to 7997
  155.6709  140.0711  157.2511 H   0  0  0  0  0  0  0  0  0  0  0  0  # atno 8010 bound_to 7997
  140.6730  143.6996  150.7962 H   0  0  0  0  0  0  0  0  0  0  0  0  # atno 10167 bound_to 10162
  157.6151  131.1027  150.7493 H   0  0  0  0  0  0  0  0  0  0  0  0  # atno 10718 bound_to 10713
  154.8609  135.3582  154.5547 H   0  0  0  0  0  0  0  0  0  0  0  0  # atno 10763 bound_to 10752
  153.6164  135.7007  153.5332 H   0  0  0  0  0  0  0  0  0  0  0  0  # atno 10764 bound_to 10752
  153.3166  135.4163  155.1341 H   0  0  0  0  0  0  0  0  0  0  0  0  # atno 10765 bound_to 10752
  141.0901  133.6634  156.3960 H   0  0  0  0  0  0  0  0  0  0  0  0  # atno 11005 bound_to 11000
  145.9520  140.8901  143.0254 LP  0  0  0  0  0  0  0  0  0  0  0  0  # atno 17320 bound_to 7965
  144.6736  140.1693  143.7415 LP  0  0  0  0  0  0  0  0  0  0  0  0  # atno 17321 bound_to 7965
  140.0684  143.5085  152.2592 LP  0  0  0  0  0  0  0  0  0  0  0  0  # atno 17342 bound_to 10162
  139.6007  144.7582  151.3178 LP  0  0  0  0  0  0  0  0  0  0  0  0  # atno 17343 bound_to 10162
  156.7862  130.4875  149.5392 LP  0  0  0  0  0  0  0  0  0  0  0  0  # atno 17370 bound_to 10713
  156.1270  130.6151  151.0278 LP  0  0  0  0  0  0  0  0  0  0  0  0  # atno 17371 bound_to 10713
  140.5272  134.6248  157.5338 LP  0  0  0  0  0  0  0  0  0  0  0  0  # atno 17394 bound_to 11000
  139.9726  134.7268  156.0012 LP  0  0  0  0  0  0  0  0  0  0  0  0  # atno 17395 bound_to 11000

$$$$
