AV-unprocessed.smi:1945|AV-procd|sdf|7858|dock8
  -GOLD-   2272010 03D 1   1.00000     0.00000
 Structure written by MMmdl.
 47 48  0  0  0  0  0  0  0  0  1 V2000
  145.3512  130.1016  151.6437 C   0  0  0  0  0  0  0  0  0  0  0  0
  146.1254  131.2985  152.1111 C   0  0  0  0  0  0  0  0  0  0  0  0
  145.7954  132.6751  151.9476 C   0  0  0  0  0  0  0  0  0  0  0  0
  146.8411  133.3098  152.5606 C   0  0  0  0  0  0  0  0  0  0  0  0
  147.0695  134.6438  152.6870 N   0  0  0  0  0  0  0  0  0  0  0  0
  146.2255  135.5901  153.1316 C   0  0  0  0  0  0  0  0  0  0  0  0
  145.1544  135.3748  153.6995 O   0  0  0  0  0  0  0  0  0  0  0  0
  146.6907  136.8201  152.8688 N   0  0  0  0  0  0  0  0  0  0  0  0
  145.9404  138.0560  153.0710 C   0  0  0  0  0  0  0  0  0  0  0  0
  146.8149  139.2861  152.7803 C   0  0  0  0  0  0  0  0  0  0  0  0
  147.7381  139.4475  153.8461 O   0  0  0  0  0  0  0  0  0  0  0  0
  148.5125  140.6393  153.8173 C   0  0  1  0  0  0  0  0  0  0  0  0
  147.6225  141.8742  154.0834 C   0  0  0  0  0  0  0  0  0  0  0  0
  147.0075  141.8452  155.4932 C   0  0  0  0  0  0  0  0  0  0  0  0
  148.0893  141.7000  156.5736 C   0  0  0  0  0  0  0  0  0  0  0  0
  148.9817  140.4761  156.3134 C   0  0  0  0  0  0  0  0  0  0  0  0
  149.6054  140.5183  154.9028 C   0  0  1  0  0  0  0  0  0  0  0  0
  150.5353  139.3204  154.6542 C   0  0  0  0  0  0  0  0  0  0  0  0
  147.7230  132.3628  153.0316 N   0  0  0  0  0  0  0  0  0  0  0  0
  148.9781  132.5394  153.7353 C   0  0  0  0  0  0  0  0  0  0  0  0
  147.2712  131.1194  152.7591 N   0  0  0  0  0  0  0  0  0  0  0  0
  144.4932  130.3987  151.0405 H   0  0  0  0  0  0  0  0  0  0  0  0
  144.9784  129.5218  152.4883 H   0  0  0  0  0  0  0  0  0  0  0  0
  145.9721  129.4443  151.0347 H   0  0  0  0  0  0  0  0  0  0  0  0
  144.9363  133.1041  151.4539 H   0  0  0  0  0  0  0  0  0  0  0  0
  147.9570  134.9659  152.3305 H   0  0  0  0  0  0  0  0  0  0  0  0
  147.5892  136.9037  152.4169 H   0  0  0  0  0  0  0  0  0  0  0  0
  145.0370  138.0702  152.4588 H   0  0  0  0  0  0  0  0  0  0  0  0
  145.6110  138.0808  154.1098 H   0  0  0  0  0  0  0  0  0  0  0  0
  147.3630  139.1466  151.8478 H   0  0  0  0  0  0  0  0  0  0  0  0
  146.1836  140.1658  152.6568 H   0  0  0  0  0  0  0  0  0  0  0  0
  148.9944  140.7366  152.8429 H   0  0  0  0  0  0  0  0  0  0  0  0
  148.2258  142.7765  153.9778 H   0  0  0  0  0  0  0  0  0  0  0  0
  146.8328  141.9582  153.3379 H   0  0  0  0  0  0  0  0  0  0  0  0
  146.4312  142.7543  155.6661 H   0  0  0  0  0  0  0  0  0  0  0  0
  146.3029  141.0178  155.5699 H   0  0  0  0  0  0  0  0  0  0  0  0
  148.7041  142.6004  156.5966 H   0  0  0  0  0  0  0  0  0  0  0  0
  147.6233  141.6177  157.5560 H   0  0  0  0  0  0  0  0  0  0  0  0
  149.7678  140.4336  157.0679 H   0  0  0  0  0  0  0  0  0  0  0  0
  148.3934  139.5653  156.4335 H   0  0  0  0  0  0  0  0  0  0  0  0
  150.2240  141.4153  154.8454 H   0  0  0  0  0  0  0  0  0  0  0  0
  149.9949  138.3754  154.7179 H   0  0  0  0  0  0  0  0  0  0  0  0
  151.3408  139.2906  155.3884 H   0  0  0  0  0  0  0  0  0  0  0  0
  150.9922  139.3765  153.6658 H   0  0  0  0  0  0  0  0  0  0  0  0
  149.5733  133.3084  153.2423 H   0  0  0  0  0  0  0  0  0  0  0  0
  149.5465  131.6083  153.7435 H   0  0  0  0  0  0  0  0  0  0  0  0
  148.7801  132.8443  154.7631 H   0  0  0  0  0  0  0  0  0  0  0  0
  1  2  1  0  0  0  0
  1 22  1  0  0  0  0
  1 23  1  0  0  0  0
  1 24  1  0  0  0  0
  2 21  2  0  0  0  0
  2  3  1  0  0  0  0
  3  4  2  0  0  0  0
  3 25  1  0  0  0  0
  4  5  1  0  0  0  0
  4 19  1  0  0  0  0
  5  6  1  0  0  0  0
  5 26  1  0  0  0  0
  6  7  2  0  0  0  0
  6  8  1  0  0  0  0
  8  9  1  0  0  0  0
  8 27  1  0  0  0  0
  9 10  1  0  0  0  0
  9 28  1  0  0  0  0
  9 29  1  0  0  0  0
 10 11  1  0  0  0  0
 10 30  1  0  0  0  0
 10 31  1  0  0  0  0
 11 12  1  0  0  0  0
 12 17  1  0  0  0  0
 12 13  1  0  0  0  0
 12 32  1  0  0  0  0
 13 14  1  0  0  0  0
 13 33  1  0  0  0  0
 13 34  1  0  0  0  0
 14 15  1  0  0  0  0
 14 35  1  0  0  0  0
 14 36  1  0  0  0  0
 15 16  1  0  0  0  0
 15 37  1  0  0  0  0
 15 38  1  0  0  0  0
 16 17  1  0  0  0  0
 16 39  1  0  0  0  0
 16 40  1  0  0  0  0
 17 18  1  0  0  0  0
 17 41  1  0  0  0  0
 18 42  1  0  0  0  0
 18 43  1  0  0  0  0
 18 44  1  0  0  0  0
 19 20  1  0  0  0  0
 19 21  1  0  0  0  0
 20 45  1  0  0  0  0
 20 46  1  0  0  0  0
 20 47  1  0  0  0  0
M  END
> <s_m_source_file>
AV-unprocessed.smi

> <i_m_source_file_index>
1945

> <i_lp_mmshare_version>
43012

> <i_f3d_flags>
0

> <s_epik_input>
W0NIM11jMVtjSF1jKG4objEpW0NIM10pW05IXUMoPU8pW05IXVtDSDJdW0NIMl1PW0NAQEhdMltDSDJdW0NIMl1bQ0gyXVtDSDJdW0NASF0yW0NIM10=

> <s_epik_cmdline>
J2VwaWtfcHl0aG9uJywgJy1waCcsICc3LjAnLCAnLXRuJywgJzgnLCAnLW1hJywgJzIwMCcsICctbWV0YWxfYmluZGluZycsICctaW1hZScsICc8aW5maWxlLm1hZT4nLCAnLW9tYWUnLCAnPG91dGZpbGUubWFlPic=

> <r_lp_tautomer_probability>
1

> <r_epik_Ionization_Penalty>
9.47735e-05

> <r_epik_Ionization_Penalty_Charging>
0

> <r_epik_Ionization_Penalty_Neutral>
9.47735e-05

> <r_epik_State_Penalty>
-0

> <r_epik_Charging_Adjusted_Penalty>
0

> <i_epik_Tot_Q>
0

> <i_epik_Tot_abs_Q>
0

> <r_epik_Metal_State_Penalty>
-0

> <b_epik_Metal_Only>
0

> <s_lp_Force_Field>
OPLS_2005

> <r_lp_Energy>
11.3834

> <b_lp_Chiralities_Consistent>
1

> <s_lp_Variant>
AV-unprocessed.smi:1945-2

> <Gold.Version>
5.8.1

> <Gold.Id.Protein>
6NUR|6NUR_protein|mol2

> <Gold.PLP.Fitness>
39.0708

> <Gold.PLP.PLP>
-34.1267

> <Gold.PLP.part.hbond>
-2.0000

> <Gold.PLP.part.metal>
0.0000

> <Gold.PLP.part.buried>
-1.4721

> <Gold.PLP.part.nonpolar>
-31.5257

> <Gold.PLP.part.repulsive>
0.8460

> <Gold.PLP.ligand.clash>
0.0000

> <Gold.PLP.ligand.torsion>
0.5456

> <Gold.PLP.Chemscore.Hbond>
2.0000

> <Gold.PLP.Chemscore.CHOScore>
0.0000

> <Gold.PLP.Chemscore.Metal>
0.0000

> <Gold.Chemscore.Hbonds>
donor molecule, donor type, donor heavy atom, donor atom, acceptor molecule, acceptor atom, score
      L1  H     5    26       P1  7948  1.00
      L1  H     8    27       P1  7948  1.00

> <Gold.PLP.Chemscore.Internal.Correction>
0.0352

> <Gold.Rescore>
     Score         DG    S(hbond)    S(metal)    S(lipo)     H(rot)  DE(clash)    DE(int)     intcor
     16.22     -16.89       1.91        0.00      78.68       1.63       0.08       0.59       ----

> <Gold.Chemscore.Fitness>
16.2236

> <Gold.Chemscore.DG>
-16.8946

> <Gold.Chemscore.ZeroCoef>
-5.4800

> <Gold.Chemscore.Hbond>
1.9120

> <Gold.Chemscore.Metal>
0.0000

> <Gold.Chemscore.Lipo>
78.6777

> <Gold.Chemscore.Internal_Hbond>
0.0000

> <Gold.Chemscore.DEClash>
0.0824

> <Gold.Chemscore.DEInternal>
0.5886

> <Gold.Chemscore.Rot>
1.6316

> <Gold.Chemscore.Internal.Correction>
   9.000000E+99

> <Gold.Chemscore.Hbonds>
donor molecule, donor type, donor heavy atom, donor atom, acceptor molecule, acceptor atom, score
      L1  H     5    26       P1  7948  0.74
      L1  H     8    27       P1  7948  0.94

> <Gold.Chemscore.Hbond.Weighted>
-6.3861

> <Gold.Chemscore.Metal.Weighted>
-0.0000

> <Gold.Chemscore.Lipo.Weighted>
-9.2053

> <Gold.Chemscore.Internal_Hbond.Weighted>
0.0000

> <Gold.Chemscore.DEClash.Weighted>
0.0824

> <Gold.Chemscore.DEInternal.Weighted>
0.5886

> <Gold.Chemscore.Rot.Weighted>
4.1768

> <Gold.Chemscore.Internal.Correction.Weighted>
   9.000000E+99

> <Gold.Protein.RotatedTorsions>
[ 6907 6896 6895 6894 ] final -158.20 input  -60.11 | X-H torsion
[ 7974 7965 7964 7962 ] final  146.83 input  175.53 | X-H torsion
[ 8008 7997 7996 7995 ] final   27.07 input   59.86 | X-H torsion
[ 10167 10162 10161 10158 ] final   -8.54 input  -65.29 | X-H torsion
[ 10718 10713 10712 10709 ] final   95.89 input   66.30 | X-H torsion
[ 10763 10752 10751 10750 ] final  114.47 input  -60.55 | X-H torsion
[ 11005 11000 10999 10996 ] final  -70.27 input  -57.11 | X-H torsion

> <Gold.Protein.ActiveResidues>
 VAL166  LYS551  ARG553  GLY616  TRP617  ASP618  TYR619  PRO620  LYS621  CYS622 
 ASP623  PHE694  ASN695  SER759  ASP760  ASP761  ALA762  ILE779  LEU786  VAL792 
 PHE793  MET794  SER795  GLU796  ALA797  LYS798  CYS799  TRP800  GLU811  SER814 

> <Gold.Protein.RotatedAtoms>
  151.3145  133.4066  159.2649 H   0  0  0  0  0  0  0  0  0  0  0  0  # atno 6907 bound_to 6896
  151.0086  134.9379  159.8005 H   0  0  0  0  0  0  0  0  0  0  0  0  # atno 6908 bound_to 6896
  152.5294  134.3110  159.9166 H   0  0  0  0  0  0  0  0  0  0  0  0  # atno 6909 bound_to 6896
  144.8640  139.5953  143.5917 H   0  0  0  0  0  0  0  0  0  0  0  0  # atno 7974 bound_to 7965
  155.0372  140.3165  155.4737 H   0  0  0  0  0  0  0  0  0  0  0  0  # atno 8008 bound_to 7997
  156.2862  140.2169  156.5438 H   0  0  0  0  0  0  0  0  0  0  0  0  # atno 8009 bound_to 7997
  154.7320  140.0480  157.0723 H   0  0  0  0  0  0  0  0  0  0  0  0  # atno 8010 bound_to 7997
  140.7062  143.5958  150.8848 H   0  0  0  0  0  0  0  0  0  0  0  0  # atno 10167 bound_to 10162
  157.6933  131.0560  150.4408 H   0  0  0  0  0  0  0  0  0  0  0  0  # atno 10718 bound_to 10713
  153.5077  135.3624  155.2571 H   0  0  0  0  0  0  0  0  0  0  0  0  # atno 10763 bound_to 10752
  154.8744  135.4015  154.3404 H   0  0  0  0  0  0  0  0  0  0  0  0  # atno 10764 bound_to 10752
  153.4052  135.7076  153.6464 H   0  0  0  0  0  0  0  0  0  0  0  0  # atno 10765 bound_to 10752
  141.1571  133.6786  156.6727 H   0  0  0  0  0  0  0  0  0  0  0  0  # atno 11005 bound_to 11000
  146.2882  139.7063  142.9180 LP  0  0  0  0  0  0  0  0  0  0  0  0  # atno 17320 bound_to 7965
  145.4257  141.0411  143.2938 LP  0  0  0  0  0  0  0  0  0  0  0  0  # atno 17321 bound_to 7965
  139.9683  143.6086  152.2981 LP  0  0  0  0  0  0  0  0  0  0  0  0  # atno 17342 bound_to 10162
  139.6663  144.7662  151.1867 LP  0  0  0  0  0  0  0  0  0  0  0  0  # atno 17343 bound_to 10162
  156.4767  130.4064  149.6486 LP  0  0  0  0  0  0  0  0  0  0  0  0  # atno 17370 bound_to 10713
  156.3546  130.7450  151.2414 LP  0  0  0  0  0  0  0  0  0  0  0  0  # atno 17371 bound_to 10713
  140.3162  134.8045  157.4216 LP  0  0  0  0  0  0  0  0  0  0  0  0  # atno 17394 bound_to 11000
  140.1136  134.5313  155.8244 LP  0  0  0  0  0  0  0  0  0  0  0  0  # atno 17395 bound_to 11000

$$$$
