AV-unprocessed.smi:1795|AV-procd|sdf|7238|dock5
  -GOLD-   22720 8483D 1   1.00000     0.00000
 Structure written by MMmdl.
 47 48  0  0  0  0  0  0  0  0  1 V2000
  144.4223  144.9915  153.4099 C   0  0  0  0  0  0  0  0  0  0  0  0
  144.6104  143.6488  154.1238 C   0  0  1  0  0  0  0  0  0  0  0  0
  145.8679  142.9032  153.6384 C   0  0  0  0  0  0  0  0  0  0  0  0
  146.1045  141.6476  154.3595 N   0  0  0  0  0  0  0  0  0  0  0  0
  147.3300  140.9540  153.8980 C   0  0  2  0  0  0  0  0  0  0  0  0
  147.4372  139.5040  154.4352 C   0  0  0  0  0  0  0  0  0  0  0  0
  148.6419  141.7142  154.2512 C   0  0  0  0  0  0  0  0  0  0  0  0
  149.0939  141.4850  155.6209 N   0  0  0  0  0  0  0  0  0  0  0  0
  150.2924  140.9878  155.9621 C   0  0  0  0  0  0  0  0  0  0  0  0
  151.1458  140.6623  155.1351 O   0  0  0  0  0  0  0  0  0  0  0  0
  150.5465  140.8188  157.4669 C   0  0  0  0  0  0  0  0  0  0  0  0
  151.3281  141.9198  158.0545 N   0  0  0  0  0  0  0  0  0  0  0  0
  151.0585  143.2202  157.5828 C   0  0  0  0  0  0  0  0  0  0  0  0
  151.7083  144.2958  158.0549 C   0  0  0  0  0  0  0  0  0  0  0  0
  152.7100  144.0946  159.0749 C   0  0  0  0  0  0  0  0  0  0  0  0
  152.9736  142.8555  159.5355 C   0  0  0  0  0  0  0  0  0  0  0  0
  152.2631  141.6771  159.0246 C   0  0  0  0  0  0  0  0  0  0  0  0
  152.4939  140.5423  159.4432 O   0  0  0  0  0  0  0  0  0  0  0  0
  146.1336  141.9525  155.7945 C   0  0  0  0  0  0  0  0  0  0  0  0
  144.8790  142.7052  156.2771 C   0  0  1  0  0  0  0  0  0  0  0  0
  144.9685  143.0874  157.7584 C   0  0  0  0  0  0  0  0  0  0  0  0
  144.7275  143.8981  155.5185 O   0  0  0  0  0  0  0  0  0  0  0  0
  144.3131  144.8519  152.3340 H   0  0  0  0  0  0  0  0  0  0  0  0
  145.2743  145.6509  153.5779 H   0  0  0  0  0  0  0  0  0  0  0  0
  143.5294  145.5028  153.7703 H   0  0  0  0  0  0  0  0  0  0  0  0
  143.7278  143.0318  153.9455 H   0  0  0  0  0  0  0  0  0  0  0  0
  145.7351  142.7133  152.5749 H   0  0  0  0  0  0  0  0  0  0  0  0
  146.7382  143.5541  153.7382 H   0  0  0  0  0  0  0  0  0  0  0  0
  147.2808  140.8853  152.8104 H   0  0  0  0  0  0  0  0  0  0  0  0
  148.3668  139.0184  154.1409 H   0  0  0  0  0  0  0  0  0  0  0  0
  146.6481  138.8605  154.0490 H   0  0  0  0  0  0  0  0  0  0  0  0
  147.3878  139.4830  155.5243 H   0  0  0  0  0  0  0  0  0  0  0  0
  149.4696  141.4324  153.6020 H   0  0  0  0  0  0  0  0  0  0  0  0
  148.4973  142.7864  154.1152 H   0  0  0  0  0  0  0  0  0  0  0  0
  148.4481  141.7222  156.3602 H   0  0  0  0  0  0  0  0  0  0  0  0
  149.5911  140.7174  157.9855 H   0  0  0  0  0  0  0  0  0  0  0  0
  151.0558  139.8664  157.6200 H   0  0  0  0  0  0  0  0  0  0  0  0
  150.2904  143.2856  156.8258 H   0  0  0  0  0  0  0  0  0  0  0  0
  151.4849  145.2857  157.6850 H   0  0  0  0  0  0  0  0  0  0  0  0
  153.2499  144.9417  159.4716 H   0  0  0  0  0  0  0  0  0  0  0  0
  153.7258  142.7246  160.2997 H   0  0  0  0  0  0  0  0  0  0  0  0
  146.1924  141.0375  156.3801 H   0  0  0  0  0  0  0  0  0  0  0  0
  147.0242  142.5380  156.0289 H   0  0  0  0  0  0  0  0  0  0  0  0
  143.9982  142.0774  156.1308 H   0  0  0  0  0  0  0  0  0  0  0  0
  145.0722  142.2024  158.3868 H   0  0  0  0  0  0  0  0  0  0  0  0
  144.0718  143.6189  158.0783 H   0  0  0  0  0  0  0  0  0  0  0  0
  145.8251  143.7350  157.9480 H   0  0  0  0  0  0  0  0  0  0  0  0
  1  2  1  0  0  0  0
  1 23  1  0  0  0  0
  1 24  1  0  0  0  0
  1 25  1  0  0  0  0
  2 22  1  0  0  0  0
  2  3  1  0  0  0  0
  2 26  1  0  0  0  0
  3  4  1  0  0  0  0
  3 27  1  0  0  0  0
  3 28  1  0  0  0  0
  4  5  1  0  0  0  0
  4 19  1  0  0  0  0
  5  6  1  0  0  0  0
  5  7  1  0  0  0  0
  5 29  1  0  0  0  0
  6 30  1  0  0  0  0
  6 31  1  0  0  0  0
  6 32  1  0  0  0  0
  7  8  1  0  0  0  0
  7 33  1  0  0  0  0
  7 34  1  0  0  0  0
  8  9  1  0  0  0  0
  8 35  1  0  0  0  0
  9 10  2  0  0  0  0
  9 11  1  0  0  0  0
 11 12  1  0  0  0  0
 11 36  1  0  0  0  0
 11 37  1  0  0  0  0
 12 17  1  0  0  0  0
 12 13  1  0  0  0  0
 13 14  2  0  0  0  0
 13 38  1  0  0  0  0
 14 15  1  0  0  0  0
 14 39  1  0  0  0  0
 15 16  2  0  0  0  0
 15 40  1  0  0  0  0
 16 17  1  0  0  0  0
 16 41  1  0  0  0  0
 17 18  2  0  0  0  0
 19 20  1  0  0  0  0
 19 42  1  0  0  0  0
 19 43  1  0  0  0  0
 20 21  1  0  0  0  0
 20 22  1  0  0  0  0
 20 44  1  0  0  0  0
 21 45  1  0  0  0  0
 21 46  1  0  0  0  0
 21 47  1  0  0  0  0
M  END
> <s_m_source_file>
AV-unprocessed.smi

> <i_m_source_file_index>
1795

> <i_lp_mmshare_version>
43012

> <i_f3d_flags>
0

> <s_epik_input>
W0NIM11bQ0BASF0xW0NIMl1OKFtDSDJdW0NASF0oTzEpW0NIM10pW0NASF0oW0NIM10pW0NIMl1bTkhdQyg9TylbQ0gyXW4yW2NIXVtjSF1bY0hdW2NIXWMyPU8=

> <s_epik_cmdline>
J2VwaWtfcHl0aG9uJywgJy1waCcsICc3LjAnLCAnLXRuJywgJzgnLCAnLW1hJywgJzIwMCcsICctbWV0YWxfYmluZGluZycsICctaW1hZScsICc8aW5maWxlLm1hZT4nLCAnLW9tYWUnLCAnPG91dGZpbGUubWFlPic=

> <r_lp_tautomer_probability>
1

> <r_epik_Ionization_Penalty>
0.237383

> <r_epik_Ionization_Penalty_Charging>
3.58805e-07

> <r_epik_Ionization_Penalty_Neutral>
0.237382

> <r_epik_State_Penalty>
0.228245

> <r_epik_Charging_Adjusted_Penalty>
0.228245

> <i_epik_Tot_Q>
0

> <i_epik_Tot_abs_Q>
0

> <r_epik_Metal_State_Penalty>
0.228221

> <b_epik_Metal_Only>
0

> <s_lp_Force_Field>
OPLS_2005

> <r_lp_Energy>
36.5545

> <b_lp_Chiralities_Consistent>
1

> <s_lp_Variant>
AV-unprocessed.smi:1795-2

> <Gold.Version>
5.8.1

> <Gold.Id.Protein>
6NUR|6NUR_protein|mol2

> <Gold.PLP.Fitness>
48.1155

> <Gold.PLP.PLP>
-43.8407

> <Gold.PLP.part.hbond>
-1.1212

> <Gold.PLP.part.metal>
0.0000

> <Gold.PLP.part.buried>
-4.9697

> <Gold.PLP.part.nonpolar>
-38.1743

> <Gold.PLP.part.repulsive>
0.4691

> <Gold.PLP.ligand.clash>
0.0000

> <Gold.PLP.ligand.torsion>
0.8745

> <Gold.PLP.Chemscore.Hbond>
0.9920

> <Gold.PLP.Chemscore.CHOScore>
1.0000

> <Gold.PLP.Chemscore.Metal>
0.0000

> <Gold.Chemscore.Hbonds>
donor molecule, donor type, donor heavy atom, donor atom, acceptor molecule, acceptor atom, score
      P1  H  7989  7998       L1    10  0.88
      L1  C    13    38       P1  8028  1.00

> <Gold.PLP.Chemscore.Internal.Correction>
0.0478

> <Gold.Rescore>
     Score         DG    S(hbond)    S(metal)    S(lipo)     H(rot)  DE(clash)    DE(int)     intcor
     13.80     -15.62       0.98        0.00      98.78       1.83       0.05       1.77       ----

> <Gold.Chemscore.Fitness>
13.7962

> <Gold.Chemscore.DG>
-15.6210

> <Gold.Chemscore.ZeroCoef>
-5.4800

> <Gold.Chemscore.Hbond>
0.9750

> <Gold.Chemscore.Metal>
0.0000

> <Gold.Chemscore.Lipo>
98.7764

> <Gold.Chemscore.Internal_Hbond>
0.0000

> <Gold.Chemscore.DEClash>
0.0504

> <Gold.Chemscore.DEInternal>
1.7743

> <Gold.Chemscore.Rot>
1.8251

> <Gold.Chemscore.Internal.Correction>
   9.000000E+99

> <Gold.Chemscore.Hbonds>
donor molecule, donor type, donor heavy atom, donor atom, acceptor molecule, acceptor atom, score
      P1  H  7989  7998       L1    10  0.86

> <Gold.Chemscore.Hbond.Weighted>
-3.2565

> <Gold.Chemscore.Metal.Weighted>
-0.0000

> <Gold.Chemscore.Lipo.Weighted>
-11.5568

> <Gold.Chemscore.Internal_Hbond.Weighted>
0.0000

> <Gold.Chemscore.DEClash.Weighted>
0.0504

> <Gold.Chemscore.DEInternal.Weighted>
1.7743

> <Gold.Chemscore.Rot.Weighted>
4.6724

> <Gold.Chemscore.Internal.Correction.Weighted>
   9.000000E+99

> <Gold.Protein.RotatedTorsions>
[ 6907 6896 6895 6894 ] final  135.73 input  -60.11 | X-H torsion
[ 7974 7965 7964 7962 ] final  -53.46 input  175.53 | X-H torsion
[ 8008 7997 7996 7995 ] final  167.71 input   59.86 | X-H torsion
[ 10167 10162 10161 10158 ] final    2.73 input  -65.29 | X-H torsion
[ 10718 10713 10712 10709 ] final -102.31 input   66.30 | X-H torsion
[ 10763 10752 10751 10750 ] final   10.60 input  -60.55 | X-H torsion
[ 11005 11000 10999 10996 ] final  -16.68 input  -57.11 | X-H torsion

> <Gold.Protein.ActiveResidues>
 VAL166  LYS551  ARG553  GLY616  TRP617  ASP618  TYR619  PRO620  LYS621  CYS622 
 ASP623  PHE694  ASN695  SER759  ASP760  ASP761  ALA762  ILE779  LEU786  VAL792 
 PHE793  MET794  SER795  GLU796  ALA797  LYS798  CYS799  TRP800  GLU811  SER814 

> <Gold.Protein.RotatedAtoms>
  152.2972  133.5619  159.5594 H   0  0  0  0  0  0  0  0  0  0  0  0  # atno 6907 bound_to 6896
  150.7261  134.0344  159.3753 H   0  0  0  0  0  0  0  0  0  0  0  0  # atno 6908 bound_to 6896
  151.8246  135.0641  160.0480 H   0  0  0  0  0  0  0  0  0  0  0  0  # atno 6909 bound_to 6896
  145.8965  140.8028  142.9765 H   0  0  0  0  0  0  0  0  0  0  0  0  # atno 7974 bound_to 7965
  156.1610  140.1609  156.8612 H   0  0  0  0  0  0  0  0  0  0  0  0  # atno 8008 bound_to 7997
  154.5161  140.0789  156.8118 H   0  0  0  0  0  0  0  0  0  0  0  0  # atno 8009 bound_to 7997
  155.3707  140.3400  155.4245 H   0  0  0  0  0  0  0  0  0  0  0  0  # atno 8010 bound_to 7997
  140.6621  143.7277  150.7757 H   0  0  0  0  0  0  0  0  0  0  0  0  # atno 10167 bound_to 10162
  156.0224  130.5414  150.7090 H   0  0  0  0  0  0  0  0  0  0  0  0  # atno 10718 bound_to 10713
  153.2014  135.6856  153.8226 H   0  0  0  0  0  0  0  0  0  0  0  0  # atno 10763 bound_to 10752
  153.7491  135.3226  155.3319 H   0  0  0  0  0  0  0  0  0  0  0  0  # atno 10764 bound_to 10752
  154.8173  135.4676  154.0782 H   0  0  0  0  0  0  0  0  0  0  0  0  # atno 10765 bound_to 10752
  140.8092  133.8153  155.9547 H   0  0  0  0  0  0  0  0  0  0  0  0  # atno 11005 bound_to 11000
  144.6733  140.1611  143.7422 LP  0  0  0  0  0  0  0  0  0  0  0  0  # atno 17320 bound_to 7965
  145.8844  139.2340  143.1586 LP  0  0  0  0  0  0  0  0  0  0  0  0  # atno 17321 bound_to 7965
  140.0948  143.4844  152.2459 LP  0  0  0  0  0  0  0  0  0  0  0  0  # atno 17342 bound_to 10162
  139.5858  144.7530  151.3525 LP  0  0  0  0  0  0  0  0  0  0  0  0  # atno 17343 bound_to 10162
  157.4733  131.0895  151.0618 LP  0  0  0  0  0  0  0  0  0  0  0  0  # atno 17370 bound_to 10713
  157.1073  130.6006  149.5473 LP  0  0  0  0  0  0  0  0  0  0  0  0  # atno 17371 bound_to 10713
  140.9215  134.2136  157.4923 LP  0  0  0  0  0  0  0  0  0  0  0  0  # atno 17394 bound_to 11000
  139.8715  134.9794  156.5035 LP  0  0  0  0  0  0  0  0  0  0  0  0  # atno 17395 bound_to 11000

$$$$
