AV-unprocessed.smi:38|AV-procd|sdf|349|dock1
  -GOLD-   2262016183D 1   1.00000     0.00000
 Structure written by MMmdl.
 27 28  0  0  0  0  0  0  0  0  2 V2000
  149.7605  131.6984  155.1211 O   0  0  0  0  0  0  0  0  0  0  0  0
  148.9437  131.8290  154.2108 C   0  0  0  0  0  0  0  0  0  0  0  0
  148.1988  130.7910  153.7321 N   0  5  0  0  0  0  0  0  0  0  0  0
  147.2939  130.9380  152.7202 C   0  0  0  0  0  0  0  0  0  0  0  0
  146.6081  130.0099  152.2907 O   0  0  0  0  0  0  0  0  0  0  0  0
  147.1235  132.2205  152.1307 N   0  0  0  0  0  0  0  0  0  0  0  0
  146.1155  132.3854  151.0141 C   0  0  1  0  0  0  0  0  0  0  0  0
  144.7407  131.8506  151.4487 C   0  0  0  0  0  0  0  0  0  0  0  0
  143.7966  132.9210  150.9371 C   0  0  1  0  0  0  0  0  0  0  0  0
  142.6202  132.9796  151.7175 O   0  0  0  0  0  0  0  0  0  0  0  0
  144.6614  134.1741  151.0867 C   0  0  2  0  0  0  0  0  0  0  0  0
  144.2418  135.4205  150.2866 C   0  0  0  0  0  0  0  0  0  0  0  0
  145.2644  136.3941  150.2391 O   0  0  0  0  0  0  0  0  0  0  0  0
  145.9657  133.7451  150.7141 O   0  0  0  0  0  0  0  0  0  0  0  0
  147.8593  133.2948  152.6036 C   0  0  0  0  0  0  0  0  0  0  0  0
  148.7489  133.1454  153.6063 C   0  0  0  0  0  0  0  0  0  0  0  0
  149.4479  134.2068  154.0443 F   0  0  0  0  0  0  0  0  0  0  0  0
  146.5345  131.8817  150.1416 H   0  0  0  0  0  0  0  0  0  0  0  0
  143.5505  132.7228  149.8936 H   0  0  0  0  0  0  0  0  0  0  0  0
  144.7151  134.4450  152.1429 H   0  0  0  0  0  0  0  0  0  0  0  0
  144.5512  130.8615  151.0306 H   0  0  0  0  0  0  0  0  0  0  0  0
  144.7015  131.7870  152.5382 H   0  0  0  0  0  0  0  0  0  0  0  0
  142.0173  133.5790  151.3049 H   0  0  0  0  0  0  0  0  0  0  0  0
  144.0088  135.1346  149.2608 H   0  0  0  0  0  0  0  0  0  0  0  0
  143.3372  135.8591  150.7082 H   0  0  0  0  0  0  0  0  0  0  0  0
  144.8691  137.2492  150.3144 H   0  0  0  0  0  0  0  0  0  0  0  0
  147.7298  134.2763  152.1747 H   0  0  0  0  0  0  0  0  0  0  0  0
  1  2  2  0  0  0  0
  2 16  1  0  0  0  0
  2  3  1  0  0  0  0
  3  4  1  0  0  0  0
  4  5  2  0  0  0  0
  4  6  1  0  0  0  0
  6  7  1  0  0  0  0
  6 15  1  0  0  0  0
  7 18  1  0  0  0  0
  7 14  1  0  0  0  0
  7  8  1  0  0  0  0
  8  9  1  0  0  0  0
  8 21  1  0  0  0  0
  8 22  1  0  0  0  0
  9 19  1  0  0  0  0
  9 10  1  0  0  0  0
  9 11  1  0  0  0  0
 10 23  1  0  0  0  0
 11 20  1  0  0  0  0
 11 12  1  0  0  0  0
 11 14  1  0  0  0  0
 12 13  1  0  0  0  0
 12 24  1  0  0  0  0
 12 25  1  0  0  0  0
 13 26  1  0  0  0  0
 15 16  2  0  0  0  0
 15 27  1  0  0  0  0
 16 17  1  0  0  0  0
M  CHG  1   3  -1
M  END
> <s_m_source_file>
AV-unprocessed.smi

> <i_m_source_file_index>
38

> <i_lp_mmshare_version>
43012

> <i_f3d_flags>
0

> <s_epik_input>
Tz1jMVtuSF1jKD1PKW4oW2NIXWMxRilbQ0BIXTJbQ0gyXVtDQEhdKFtPSF0pW0NASF0oTzIpW0NIMl1bT0hd

> <s_epik_cmdline>
J2VwaWtfcHl0aG9uJywgJy1waCcsICc3LjAnLCAnLXRuJywgJzgnLCAnLW1hJywgJzIwMCcsICctbWV0YWxfYmluZGluZycsICctaW1hZScsICc8aW5maWxlLm1hZT4nLCAnLW9tYWUnLCAnPG91dGZpbGUubWFlPic=

> <r_epik_Ionization_Penalty>
1.68146

> <r_epik_Ionization_Penalty_Charging>
3.4211e-08

> <r_epik_Ionization_Penalty_Neutral>
1.68146

> <r_epik_State_Penalty>
1.78593

> <r_epik_Charging_Adjusted_Penalty>
1.78593

> <i_epik_Tot_Q>
-1

> <i_epik_Tot_abs_Q>
1

> <r_epik_Metal_State_Penalty>
0.0113696

> <b_epik_Metal_Only>
0

> <s_epik_Chemistry_Notes>
This compound contains an acetal/aminal-like group ( X-CH(R)-Y where X, Y are N, S, or O) that may be acid/base labile, releasing an aldehyde.

> <s_lp_Force_Field>
OPLS_2005

> <r_lp_Energy>
38.28

> <b_lp_Chiralities_Consistent>
1

> <s_lp_Variant>
AV-unprocessed.smi:38-15

> <Gold.Version>
5.8.1

> <Gold.Id.Protein>
6NUR|6NUR_protein|mol2

> <Gold.PLP.Fitness>
39.1035

> <Gold.PLP.PLP>
-30.4963

> <Gold.PLP.part.hbond>
-3.0000

> <Gold.PLP.part.metal>
0.0000

> <Gold.PLP.part.buried>
-3.0391

> <Gold.PLP.part.nonpolar>
-24.7782

> <Gold.PLP.part.repulsive>
0.4134

> <Gold.PLP.ligand.clash>
0.0000

> <Gold.PLP.ligand.torsion>
0.1988

> <Gold.PLP.Chemscore.Hbond>
2.0000

> <Gold.PLP.Chemscore.CHOScore>
1.0000

> <Gold.PLP.Chemscore.Metal>
0.0000

> <Gold.Chemscore.Hbonds>
donor molecule, donor type, donor heavy atom, donor atom, acceptor molecule, acceptor atom, score
      L1  H    10    23       P1 10186  0.63
      L1  H    13    26       P1 10171  1.00
      L1  C    15    27       P1  7948  1.00

> <Gold.PLP.Chemscore.Internal.Correction>
0.0048

> <Gold.Rescore>
     Score         DG    S(hbond)    S(metal)    S(lipo)     H(rot)  DE(clash)    DE(int)     intcor
      7.77      -9.55       1.98        0.00      41.21       2.88       0.24       1.53       ----

> <Gold.Chemscore.Fitness>
7.7723

> <Gold.Chemscore.DG>
-9.5501

> <Gold.Chemscore.ZeroCoef>
-5.4800

> <Gold.Chemscore.Hbond>
1.9836

> <Gold.Chemscore.Metal>
0.0000

> <Gold.Chemscore.Lipo>
41.2072

> <Gold.Chemscore.Internal_Hbond>
0.0000

> <Gold.Chemscore.DEClash>
0.2446

> <Gold.Chemscore.DEInternal>
1.5332

> <Gold.Chemscore.Rot>
2.8815

> <Gold.Chemscore.Internal.Correction>
   9.000000E+99

> <Gold.Chemscore.Hbonds>
donor molecule, donor type, donor heavy atom, donor atom, acceptor molecule, acceptor atom, score
      L1  H    10    23       P1 10186  0.19
      L1  H    13    26       P1 10171  0.98

> <Gold.Chemscore.Hbond.Weighted>
-6.6253

> <Gold.Chemscore.Metal.Weighted>
-0.0000

> <Gold.Chemscore.Lipo.Weighted>
-4.8212

> <Gold.Chemscore.Internal_Hbond.Weighted>
0.0000

> <Gold.Chemscore.DEClash.Weighted>
0.2446

> <Gold.Chemscore.DEInternal.Weighted>
1.5332

> <Gold.Chemscore.Rot.Weighted>
7.3765

> <Gold.Chemscore.Internal.Correction.Weighted>
   9.000000E+99

> <Gold.Protein.RotatedTorsions>
[ 6907 6896 6895 6894 ] final   32.72 input  -60.11 | X-H torsion
[ 7974 7965 7964 7962 ] final -105.19 input  175.53 | X-H torsion
[ 8008 7997 7996 7995 ] final  147.12 input   59.86 | X-H torsion
[ 10167 10162 10161 10158 ] final  118.68 input  -65.29 | X-H torsion
[ 10718 10713 10712 10709 ] final  144.58 input   66.30 | X-H torsion
[ 10763 10752 10751 10750 ] final  -41.81 input  -60.55 | X-H torsion
[ 11005 11000 10999 10996 ] final  -82.72 input  -57.11 | X-H torsion

> <Gold.Protein.ActiveResidues>
 VAL166  LYS551  ARG553  GLY616  TRP617  ASP618  TYR619  PRO620  LYS621  CYS622 
 ASP623  PHE694  ASN695  SER759  ASP760  ASP761  ALA762  ILE779  LEU786  VAL792 
 PHE793  MET794  SER795  GLU796  ALA797  LYS798  CYS799  TRP800  GLU811  SER814 

> <Gold.Protein.RotatedAtoms>
  152.0784  134.9487  160.0573 H   0  0  0  0  0  0  0  0  0  0  0  0  # atno 6907 bound_to 6896
  152.0785  133.4136  159.4499 H   0  0  0  0  0  0  0  0  0  0  0  0  # atno 6908 bound_to 6896
  150.6836  134.2929  159.4717 H   0  0  0  0  0  0  0  0  0  0  0  0  # atno 6909 bound_to 6896
  145.2336  140.9179  143.3190 H   0  0  0  0  0  0  0  0  0  0  0  0  # atno 7974 bound_to 7965
  156.2834  140.2164  156.5487 H   0  0  0  0  0  0  0  0  0  0  0  0  # atno 8008 bound_to 7997
  154.7309  140.0495  157.0748 H   0  0  0  0  0  0  0  0  0  0  0  0  # atno 8009 bound_to 7997
  155.0355  140.3140  155.4746 H   0  0  0  0  0  0  0  0  0  0  0  0  # atno 8010 bound_to 7997
  139.6095  144.7078  151.2876 H   0  0  0  0  0  0  0  0  0  0  0  0  # atno 10167 bound_to 10162
  157.3554  131.0957  151.0963 H   0  0  0  0  0  0  0  0  0  0  0  0  # atno 10718 bound_to 10713
  153.9686  135.6731  153.4746 H   0  0  0  0  0  0  0  0  0  0  0  0  # atno 10763 bound_to 10752
  153.0803  135.4926  154.8487 H   0  0  0  0  0  0  0  0  0  0  0  0  # atno 10764 bound_to 10752
  154.7232  135.3121  154.8975 H   0  0  0  0  0  0  0  0  0  0  0  0  # atno 10765 bound_to 10752
  141.1662  133.7258  156.8613 H   0  0  0  0  0  0  0  0  0  0  0  0  # atno 11005 bound_to 11000
  144.9654  139.3936  143.6335 LP  0  0  0  0  0  0  0  0  0  0  0  0  # atno 17320 bound_to 7965
  146.3347  139.8726  142.8837 LP  0  0  0  0  0  0  0  0  0  0  0  0  # atno 17321 bound_to 7965
  140.7309  143.6867  150.7956 LP  0  0  0  0  0  0  0  0  0  0  0  0  # atno 17342 bound_to 10162
  140.0459  143.5299  152.2696 LP  0  0  0  0  0  0  0  0  0  0  0  0  # atno 17343 bound_to 10162
  157.2122  130.6443  149.5778 LP  0  0  0  0  0  0  0  0  0  0  0  0  # atno 17370 bound_to 10713
  155.9728  130.4656  150.6259 LP  0  0  0  0  0  0  0  0  0  0  0  0  # atno 17371 bound_to 10713
  140.1846  134.9009  157.2989 LP  0  0  0  0  0  0  0  0  0  0  0  0  # atno 17394 bound_to 11000
  140.2357  134.3856  155.7502 LP  0  0  0  0  0  0  0  0  0  0  0  0  # atno 17395 bound_to 11000

$$$$
