AV-unprocessed.smi:926|AV-procd|sdf|4183|dock8
  -GOLD-   22720 2 83D 1   1.00000     0.00000
 Structure written by MMmdl.
 37 39  0  0  0  0  0  0  0  0  1 V2000
  149.1778  141.6923  154.1265 O   0  0  0  0  0  0  0  0  0  0  0  0
  149.5101  140.7382  154.8297 C   0  0  0  0  0  0  0  0  0  0  0  0
  149.8769  139.4040  154.1809 C   0  0  0  0  0  0  0  0  0  0  0  0
  151.1987  138.9754  154.5977 N   0  0  0  0  0  0  0  0  0  0  0  0
  151.8532  137.8292  154.3988 C   0  0  0  0  0  0  0  0  0  0  0  0
  153.0505  137.8457  154.9646 N   0  0  0  0  0  0  0  0  0  0  0  0
  153.1080  139.1028  155.5431 N   0  0  0  0  0  0  0  0  0  0  0  0
  152.0121  139.7778  155.3286 N   0  0  0  0  0  0  0  0  0  0  0  0
  149.5628  140.7880  156.1701 N   0  0  0  0  0  0  0  0  0  0  0  0
  149.2036  141.9488  156.9746 C   0  0  0  0  0  0  0  0  0  0  0  0
  150.0837  142.0502  158.2327 C   0  0  0  0  0  0  0  0  0  0  0  0
  151.4312  142.7548  157.9810 C   0  0  2  0  0  0  0  0  0  0  0  0
  152.4625  142.5567  159.1129 C   0  0  0  0  0  0  0  0  0  0  0  0
  152.9242  143.9946  159.4156 C   0  0  2  0  0  0  0  0  0  0  0  0
  151.8044  144.7379  160.1676 C   0  0  0  0  0  0  0  0  0  0  0  0
  150.7562  144.9745  159.0650 C   0  0  0  0  0  0  0  0  0  0  0  0
  151.3952  144.2965  157.8354 C   0  0  1  0  0  0  0  0  0  0  0  0
  152.8661  144.6460  158.0386 C   0  0  0  0  0  0  0  0  0  0  0  0
  149.1551  138.6376  154.4660 H   0  0  0  0  0  0  0  0  0  0  0  0
  149.8449  139.4914  153.0935 H   0  0  0  0  0  0  0  0  0  0  0  0
  151.4542  136.9892  153.8494 H   0  0  0  0  0  0  0  0  0  0  0  0
  149.8482  139.9566  156.6674 H   0  0  0  0  0  0  0  0  0  0  0  0
  149.3251  142.8422  156.3616 H   0  0  0  0  0  0  0  0  0  0  0  0
  148.1472  141.8964  157.2419 H   0  0  0  0  0  0  0  0  0  0  0  0
  149.5399  142.5539  159.0315 H   0  0  0  0  0  0  0  0  0  0  0  0
  150.2812  141.0449  158.6067 H   0  0  0  0  0  0  0  0  0  0  0  0
  151.8530  142.3429  157.0627 H   0  0  0  0  0  0  0  0  0  0  0  0
  152.0408  142.0723  159.9947 H   0  0  0  0  0  0  0  0  0  0  0  0
  153.2958  141.9436  158.7673 H   0  0  0  0  0  0  0  0  0  0  0  0
  153.8935  144.0472  159.9121 H   0  0  0  0  0  0  0  0  0  0  0  0
  151.4080  144.1554  161.0000 H   0  0  0  0  0  0  0  0  0  0  0  0
  152.1639  145.6881  160.5645 H   0  0  0  0  0  0  0  0  0  0  0  0
  149.7740  144.5783  159.3198 H   0  0  0  0  0  0  0  0  0  0  0  0
  150.6336  146.0436  158.8867 H   0  0  0  0  0  0  0  0  0  0  0  0
  150.9801  144.6365  156.8862 H   0  0  0  0  0  0  0  0  0  0  0  0
  153.0593  145.7201  158.0589 H   0  0  0  0  0  0  0  0  0  0  0  0
  153.5298  144.1776  157.3095 H   0  0  0  0  0  0  0  0  0  0  0  0
  1  2  2  0  0  0  0
  2  3  1  0  0  0  0
  2  9  1  0  0  0  0
  3  4  1  0  0  0  0
  3 19  1  0  0  0  0
  3 20  1  0  0  0  0
  4  8  1  0  0  0  0
  4  5  1  0  0  0  0
  5  6  2  0  0  0  0
  5 21  1  0  0  0  0
  6  7  1  0  0  0  0
  7  8  2  0  0  0  0
  9 10  1  0  0  0  0
  9 22  1  0  0  0  0
 10 11  1  0  0  0  0
 10 23  1  0  0  0  0
 10 24  1  0  0  0  0
 11 12  1  0  0  0  0
 11 25  1  0  0  0  0
 11 26  1  0  0  0  0
 12 17  1  0  0  0  0
 12 13  1  0  0  0  0
 12 27  1  0  0  0  0
 13 14  1  0  0  0  0
 13 28  1  0  0  0  0
 13 29  1  0  0  0  0
 14 18  1  0  0  0  0
 14 15  1  0  0  0  0
 14 30  1  0  0  0  0
 15 16  1  0  0  0  0
 15 31  1  0  0  0  0
 15 32  1  0  0  0  0
 16 17  1  0  0  0  0
 16 33  1  0  0  0  0
 16 34  1  0  0  0  0
 17 18  1  0  0  0  0
 17 35  1  0  0  0  0
 18 36  1  0  0  0  0
 18 37  1  0  0  0  0
M  END
> <s_m_source_file>
AV-unprocessed.smi

> <i_m_source_file_index>
926

> <i_lp_mmshare_version>
43012

> <i_f3d_flags>
0

> <s_epik_input>
bjFubltjSF1uMVtDSDJdQyg9TylbTkhdW0NIMl1bQ0gyXVtDQEhdKFtDSDJdW0NASF0yMylbQ0BIXShbQ0gyXTMpW0NIMl1bQ0gyXTI=

> <s_epik_cmdline>
J2VwaWtfcHl0aG9uJywgJy1waCcsICc3LjAnLCAnLXRuJywgJzgnLCAnLW1hJywgJzIwMCcsICctbWV0YWxfYmluZGluZycsICctaW1hZScsICc8aW5maWxlLm1hZT4nLCAnLW9tYWUnLCAnPG91dGZpbGUubWFlPic=

> <r_lp_tautomer_probability>
1

> <r_epik_Ionization_Penalty>
4.22645e-07

> <r_epik_Ionization_Penalty_Charging>
0

> <r_epik_Ionization_Penalty_Neutral>
4.22645e-07

> <r_epik_State_Penalty>
-0

> <r_epik_Charging_Adjusted_Penalty>
0

> <i_epik_Tot_Q>
0

> <i_epik_Tot_abs_Q>
0

> <r_epik_Metal_State_Penalty>
-0

> <b_epik_Metal_Only>
0

> <s_lp_Force_Field>
OPLS_2005

> <r_lp_Energy>
51.1932

> <b_lp_Chiralities_Consistent>
1

> <s_lp_Variant>
AV-unprocessed.smi:926-1

> <Gold.Version>
5.8.1

> <Gold.Id.Protein>
6NUR|6NUR_protein|mol2

> <Gold.PLP.Fitness>
50.6544

> <Gold.PLP.PLP>
-44.1378

> <Gold.PLP.part.hbond>
-4.4892

> <Gold.PLP.part.metal>
0.0000

> <Gold.PLP.part.buried>
-3.6996

> <Gold.PLP.part.nonpolar>
-36.0671

> <Gold.PLP.part.repulsive>
0.2810

> <Gold.PLP.ligand.clash>
0.0000

> <Gold.PLP.ligand.torsion>
0.5006

> <Gold.PLP.Chemscore.Hbond>
1.5023

> <Gold.PLP.Chemscore.CHOScore>
0.9986

> <Gold.PLP.Chemscore.Metal>
0.0000

> <Gold.Chemscore.Hbonds>
donor molecule, donor type, donor heavy atom, donor atom, acceptor molecule, acceptor atom, score
      P1  H  7997  8008       L1     7  1.00
      P1  H  8011  8017       L1     1  0.56
      P1  H 10752 10765       L1     6  0.03
      L1  C     5    21       P1  7949  0.88

> <Gold.PLP.Chemscore.Internal.Correction>
0.0151

> <Gold.Rescore>
     Score         DG    S(hbond)    S(metal)    S(lipo)     H(rot)  DE(clash)    DE(int)     intcor
     14.31     -14.85       1.27        0.00      99.40       2.54       0.07       0.47       ----

> <Gold.Chemscore.Fitness>
14.3144

> <Gold.Chemscore.DG>
-14.8488

> <Gold.Chemscore.ZeroCoef>
-5.4800

> <Gold.Chemscore.Hbond>
1.2726

> <Gold.Chemscore.Metal>
0.0000

> <Gold.Chemscore.Lipo>
99.4032

> <Gold.Chemscore.Internal_Hbond>
0.0000

> <Gold.Chemscore.DEClash>
0.0669

> <Gold.Chemscore.DEInternal>
0.4676

> <Gold.Chemscore.Rot>
2.5436

> <Gold.Chemscore.Internal.Correction>
   9.000000E+99

> <Gold.Chemscore.Hbonds>
donor molecule, donor type, donor heavy atom, donor atom, acceptor molecule, acceptor atom, score
      P1  H  7997  8008       L1     7  0.80
      P1  H  8011  8017       L1     1  0.52

> <Gold.Chemscore.Hbond.Weighted>
-4.2504

> <Gold.Chemscore.Metal.Weighted>
-0.0000

> <Gold.Chemscore.Lipo.Weighted>
-11.6302

> <Gold.Chemscore.Internal_Hbond.Weighted>
0.0000

> <Gold.Chemscore.DEClash.Weighted>
0.0669

> <Gold.Chemscore.DEInternal.Weighted>
0.4676

> <Gold.Chemscore.Rot.Weighted>
6.5117

> <Gold.Chemscore.Internal.Correction.Weighted>
   9.000000E+99

> <Gold.Protein.RotatedTorsions>
[ 6907 6896 6895 6894 ] final  -81.36 input  -60.11 | X-H torsion
[ 7974 7965 7964 7962 ] final   70.70 input  175.53 | X-H torsion
[ 8008 7997 7996 7995 ] final  -42.93 input   59.86 | X-H torsion
[ 10167 10162 10161 10158 ] final -139.90 input  -65.29 | X-H torsion
[ 10718 10713 10712 10709 ] final  -62.49 input   66.30 | X-H torsion
[ 10763 10752 10751 10750 ] final -175.63 input  -60.55 | X-H torsion
[ 11005 11000 10999 10996 ] final -112.59 input  -57.11 | X-H torsion

> <Gold.Protein.ActiveResidues>
 VAL166  LYS551  ARG553  GLY616  TRP617  ASP618  TYR619  PRO620  LYS621  CYS622 
 ASP623  PHE694  ASN695  SER759  ASP760  ASP761  ALA762  ILE779  LEU786  VAL792 
 PHE793  MET794  SER795  GLU796  ALA797  LYS798  CYS799  TRP800  GLU811  SER814 

> <Gold.Protein.RotatedAtoms>
  150.6913  134.3829  159.5041 H   0  0  0  0  0  0  0  0  0  0  0  0  # atno 6907 bound_to 6896
  152.1629  134.8895  160.0549 H   0  0  0  0  0  0  0  0  0  0  0  0  # atno 6908 bound_to 6896
  151.9950  133.3770  159.4196 H   0  0  0  0  0  0  0  0  0  0  0  0  # atno 6909 bound_to 6896
  145.7749  139.2860  143.1299 H   0  0  0  0  0  0  0  0  0  0  0  0  # atno 7974 bound_to 7965
  154.3997  140.1461  156.3435 H   0  0  0  0  0  0  0  0  0  0  0  0  # atno 8008 bound_to 7997
  155.8334  140.3465  155.5565 H   0  0  0  0  0  0  0  0  0  0  0  0  # atno 8009 bound_to 7997
  155.8163  140.0891  157.1865 H   0  0  0  0  0  0  0  0  0  0  0  0  # atno 8010 bound_to 7997
  139.8334  143.7417  152.2665 H   0  0  0  0  0  0  0  0  0  0  0  0  # atno 10167 bound_to 10162
  156.0852  130.4209  150.1142 H   0  0  0  0  0  0  0  0  0  0  0  0  # atno 10718 bound_to 10713
  154.5821  135.2837  155.0722 H   0  0  0  0  0  0  0  0  0  0  0  0  # atno 10763 bound_to 10752
  154.2054  135.6417  153.5103 H   0  0  0  0  0  0  0  0  0  0  0  0  # atno 10764 bound_to 10752
  153.0092  135.5479  154.6479 H   0  0  0  0  0  0  0  0  0  0  0  0  # atno 10765 bound_to 10752
  141.0666  133.9449  157.2567 H   0  0  0  0  0  0  0  0  0  0  0  0  # atno 11005 bound_to 11000
  146.0132  140.8416  142.9960 LP  0  0  0  0  0  0  0  0  0  0  0  0  # atno 17320 bound_to 7965
  144.6806  140.2521  143.7330 LP  0  0  0  0  0  0  0  0  0  0  0  0  # atno 17321 bound_to 7965
  139.7631  144.7500  151.0334 LP  0  0  0  0  0  0  0  0  0  0  0  0  # atno 17342 bound_to 10162
  140.7805  143.4728  151.0123 LP  0  0  0  0  0  0  0  0  0  0  0  0  # atno 17343 bound_to 10162
  156.9165  130.9669  151.3555 LP  0  0  0  0  0  0  0  0  0  0  0  0  # atno 17370 bound_to 10713
  157.5984  130.8494  149.8763 LP  0  0  0  0  0  0  0  0  0  0  0  0  # atno 17371 bound_to 10713
  139.9482  135.0180  156.8916 LP  0  0  0  0  0  0  0  0  0  0  0  0  # atno 17394 bound_to 11000
  140.5761  134.0397  155.7447 LP  0  0  0  0  0  0  0  0  0  0  0  0  # atno 17395 bound_to 11000

$$$$
