AV-unprocessed.smi:279|AV-procd|sdf|2096|dock7
  -GOLD-   2262021383D 1   1.00000     0.00000
 Structure written by MMmdl.
 50 54  0  0  0  0  0  0  0  0  1 V2000
  154.2276  133.1418  159.4100 O   0  0  0  0  0  0  0  0  0  0  0  0
  154.0264  132.9985  157.9602 S   0  0  0  0  0  0  0  0  0  0  0  0
  154.2512  134.1325  157.0507 O   0  0  0  0  0  0  0  0  0  0  0  0
  154.9665  131.5544  157.3543 C   0  0  0  0  0  0  0  0  0  0  0  0
  154.0826  130.9583  156.2549 C   0  0  0  0  0  0  0  0  0  0  0  0
  152.6057  131.0391  156.7053 C   0  0  2  0  0  0  0  0  0  0  0  0
  151.6007  131.2116  155.5552 C   0  0  0  0  0  0  0  0  0  0  0  0
  150.6908  132.2710  155.9677 N   0  0  0  0  0  0  0  0  0  0  0  0
  149.8055  132.7913  155.0736 C   0  0  0  0  0  0  0  0  0  0  0  0
  149.7464  134.1429  154.9293 N   0  0  0  0  0  0  0  0  0  0  0  0
  148.8978  134.7016  154.0627 C   0  0  0  0  0  0  0  0  0  0  0  0
  148.0207  134.1063  153.2546 N   0  0  0  0  0  0  0  0  0  0  0  0
  148.0549  132.7516  153.4016 C   0  0  0  0  0  0  0  0  0  0  0  0
  148.9092  132.0167  154.2756 C   0  0  0  0  0  0  0  0  0  0  0  0
  148.6527  130.6566  154.1348 N   0  0  0  0  0  0  0  0  0  0  0  0
  147.7173  130.5921  153.2281 C   0  0  0  0  0  0  0  0  0  0  0  0
  147.2803  131.8060  152.7521 N   0  0  0  0  0  0  0  0  0  0  0  0
  146.3013  132.0211  151.7271 C   0  0  0  0  0  0  0  0  0  0  0  0
  146.4362  133.1728  150.7255 C   0  0  0  0  0  0  0  0  0  0  0  0
  144.8955  133.2902  150.6738 C   0  0  0  0  0  0  0  0  0  0  0  0
  144.3128  134.7156  150.6063 C   0  0  0  0  0  0  0  0  0  0  0  0
  144.5195  135.3294  149.3496 O   0  0  0  0  0  0  0  0  0  0  0  0
  144.2416  132.4781  149.5393 C   0  0  0  0  0  0  0  0  0  0  0  0
  142.9186  132.1033  149.8653 O   0  0  0  0  0  0  0  0  0  0  0  0
  144.9215  132.5987  152.0568 C   0  0  0  0  0  0  0  0  0  0  0  0
  151.4087  133.1592  156.8714 C   0  0  0  0  0  0  0  0  0  0  0  0
  152.3807  132.2493  157.6263 C   0  0  2  0  0  0  0  0  0  0  0  0
  152.3608  130.1390  157.2709 H   0  0  0  0  0  0  0  0  0  0  0  0
  151.9460  131.9204  158.5710 H   0  0  0  0  0  0  0  0  0  0  0  0
  155.9517  131.8617  157.0036 H   0  0  0  0  0  0  0  0  0  0  0  0
  155.0859  130.8529  158.1802 H   0  0  0  0  0  0  0  0  0  0  0  0
  154.2244  131.5541  155.3523 H   0  0  0  0  0  0  0  0  0  0  0  0
  154.3746  129.9373  156.0085 H   0  0  0  0  0  0  0  0  0  0  0  0
  152.0930  131.4969  154.6245 H   0  0  0  0  0  0  0  0  0  0  0  0
  151.0658  130.2774  155.3860 H   0  0  0  0  0  0  0  0  0  0  0  0
  148.9240  135.7800  154.0107 H   0  0  0  0  0  0  0  0  0  0  0  0
  147.3156  129.6499  152.8845 H   0  0  0  0  0  0  0  0  0  0  0  0
  146.2029  131.0678  151.2054 H   0  0  0  0  0  0  0  0  0  0  0  0
  146.9324  134.0410  151.1618 H   0  0  0  0  0  0  0  0  0  0  0  0
  146.9066  132.8934  149.7822 H   0  0  0  0  0  0  0  0  0  0  0  0
  143.2398  134.7045  150.7998 H   0  0  0  0  0  0  0  0  0  0  0  0
  144.7619  135.3600  151.3624 H   0  0  0  0  0  0  0  0  0  0  0  0
  145.2426  134.8981  148.9203 H   0  0  0  0  0  0  0  0  0  0  0  0
  144.2251  133.0470  148.6092 H   0  0  0  0  0  0  0  0  0  0  0  0
  144.8026  131.5678  149.3277 H   0  0  0  0  0  0  0  0  0  0  0  0
  142.3429  132.8237  149.6585 H   0  0  0  0  0  0  0  0  0  0  0  0
  144.1473  131.8472  152.2136 H   0  0  0  0  0  0  0  0  0  0  0  0
  144.9546  133.2994  152.8927 H   0  0  0  0  0  0  0  0  0  0  0  0
  151.9309  133.9113  156.2800 H   0  0  0  0  0  0  0  0  0  0  0  0
  150.7346  133.6715  157.5588 H   0  0  0  0  0  0  0  0  0  0  0  0
  1  2  2  0  0  0  0
  2 27  1  0  0  0  0
  2  3  2  0  0  0  0
  2  4  1  0  0  0  0
  4  5  1  0  0  0  0
  4 30  1  0  0  0  0
  4 31  1  0  0  0  0
  5  6  1  0  0  0  0
  5 32  1  0  0  0  0
  5 33  1  0  0  0  0
  6 28  1  0  0  0  0
  6 27  1  0  0  0  0
  6  7  1  0  0  0  0
  7  8  1  0  0  0  0
  7 34  1  0  0  0  0
  7 35  1  0  0  0  0
  8  9  1  0  0  0  0
  8 26  1  0  0  0  0
  9 14  1  0  0  0  0
  9 10  2  0  0  0  0
 10 11  1  0  0  0  0
 11 12  2  0  0  0  0
 11 36  1  0  0  0  0
 12 13  1  0  0  0  0
 13 17  1  0  0  0  0
 13 14  2  0  0  0  0
 14 15  1  0  0  0  0
 15 16  2  0  0  0  0
 16 17  1  0  0  0  0
 16 37  1  0  0  0  0
 17 18  1  0  0  0  0
 18 25  1  0  0  0  0
 18 19  1  0  0  0  0
 18 38  1  0  0  0  0
 19 20  1  0  0  0  0
 19 39  1  0  0  0  0
 19 40  1  0  0  0  0
 20 21  1  0  0  0  0
 20 23  1  0  0  0  0
 20 25  1  0  0  0  0
 21 22  1  0  0  0  0
 21 41  1  0  0  0  0
 21 42  1  0  0  0  0
 22 43  1  0  0  0  0
 23 24  1  0  0  0  0
 23 44  1  0  0  0  0
 23 45  1  0  0  0  0
 24 46  1  0  0  0  0
 25 47  1  0  0  0  0
 25 48  1  0  0  0  0
 26 27  1  0  0  0  0
 26 49  1  0  0  0  0
 26 50  1  0  0  0  0
 27 29  1  0  0  0  0
M  END
> <s_m_source_file>
AV-unprocessed.smi

> <i_m_source_file_index>
279

> <i_lp_mmshare_version>
43012

> <i_f3d_flags>
0

> <s_epik_input>
W0NIMl0xW0NIMl1TKD1PKSg9TylbQ0BASF0oW0NAQEhdMTIpW0NIMl1OKFtDSDJdMiljKG5bY0hdbjMpYyhjMzQpbltjSF1uNFtDSF0oW0NIMl01KVtDSDJdQzUoW0NIMl1bT0hdKVtDSDJdW09IXQ==

> <s_epik_cmdline>
J2VwaWtfcHl0aG9uJywgJy1waCcsICc3LjAnLCAnLXRuJywgJzgnLCAnLW1hJywgJzIwMCcsICctbWV0YWxfYmluZGluZycsICctaW1hZScsICc8aW5maWxlLm1hZT4nLCAnLW9tYWUnLCAnPG91dGZpbGUubWFlPic=

> <r_lp_tautomer_probability>
1

> <r_epik_Ionization_Penalty>
0.000990948

> <r_epik_Ionization_Penalty_Charging>
0

> <r_epik_Ionization_Penalty_Neutral>
0.000990948

> <r_epik_State_Penalty>
0.000515994

> <r_epik_Charging_Adjusted_Penalty>
0.000515994

> <i_epik_Tot_Q>
0

> <i_epik_Tot_abs_Q>
0

> <r_epik_Metal_State_Penalty>
-0

> <b_epik_Metal_Only>
0

> <s_lp_Force_Field>
OPLS_2005

> <r_lp_Energy>
55.7342

> <b_lp_Chiralities_Consistent>
1

> <s_lp_Variant>
AV-unprocessed.smi:279-2

> <Gold.Version>
5.8.1

> <Gold.Id.Protein>
6NUR|6NUR_protein|mol2

> <Gold.PLP.Fitness>
46.9073

> <Gold.PLP.PLP>
-36.5237

> <Gold.PLP.part.hbond>
-5.5098

> <Gold.PLP.part.metal>
0.0000

> <Gold.PLP.part.buried>
0.4829

> <Gold.PLP.part.nonpolar>
-32.5449

> <Gold.PLP.part.repulsive>
2.0485

> <Gold.PLP.ligand.clash>
0.0000

> <Gold.PLP.ligand.torsion>
0.9370

> <Gold.PLP.Chemscore.Hbond>
3.3060

> <Gold.PLP.Chemscore.CHOScore>
0.5254

> <Gold.PLP.Chemscore.Metal>
0.0000

> <Gold.Chemscore.Hbonds>
donor molecule, donor type, donor heavy atom, donor atom, acceptor molecule, acceptor atom, score
      L1  H    22    43       P1  7921  0.91
      L1  H    24    46       P1 10186  0.88
      P1  H  6896  6907       L1     1  0.70
      P1  H 10752 10765       L1     3  0.77
      P1  H 10785 10796       L1    24  0.20
      L1  C    11    36       P1  7948  0.48

> <Gold.PLP.Chemscore.Internal.Correction>
0.7637

> <Gold.Rescore>
     Score         DG    S(hbond)    S(metal)    S(lipo)     H(rot)  DE(clash)    DE(int)     intcor
     11.77     -14.22       2.45        0.00      76.84       3.29       1.60       0.85       ----

> <Gold.Chemscore.Fitness>
11.7745

> <Gold.Chemscore.DG>
-14.2229

> <Gold.Chemscore.ZeroCoef>
-5.4800

> <Gold.Chemscore.Hbond>
2.4509

> <Gold.Chemscore.Metal>
0.0000

> <Gold.Chemscore.Lipo>
76.8436

> <Gold.Chemscore.Internal_Hbond>
0.0000

> <Gold.Chemscore.DEClash>
1.6012

> <Gold.Chemscore.DEInternal>
0.8472

> <Gold.Chemscore.Rot>
3.2944

> <Gold.Chemscore.Internal.Correction>
   9.000000E+99

> <Gold.Chemscore.Hbonds>
donor molecule, donor type, donor heavy atom, donor atom, acceptor molecule, acceptor atom, score
      L1  H    22    43       P1  7921  0.87
      L1  H    24    46       P1 10186  0.86
      P1  H  6896  6907       L1     1  0.07
      P1  H 10752 10765       L1     3  0.72
      P1  H 10785 10796       L1    24  0.01

> <Gold.Chemscore.Hbond.Weighted>
-8.1859

> <Gold.Chemscore.Metal.Weighted>
-0.0000

> <Gold.Chemscore.Lipo.Weighted>
-8.9907

> <Gold.Chemscore.Internal_Hbond.Weighted>
0.0000

> <Gold.Chemscore.DEClash.Weighted>
1.6012

> <Gold.Chemscore.DEInternal.Weighted>
0.8472

> <Gold.Chemscore.Rot.Weighted>
8.4337

> <Gold.Chemscore.Internal.Correction.Weighted>
   9.000000E+99

> <Gold.Protein.RotatedTorsions>
[ 6907 6896 6895 6894 ] final  113.41 input  -60.11 | X-H torsion
[ 7974 7965 7964 7962 ] final  124.86 input  175.53 | X-H torsion
[ 8008 7997 7996 7995 ] final   78.72 input   59.86 | X-H torsion
[ 10167 10162 10161 10158 ] final  -34.14 input  -65.29 | X-H torsion
[ 10718 10713 10712 10709 ] final  111.40 input   66.30 | X-H torsion
[ 10763 10752 10751 10750 ] final  -92.02 input  -60.55 | X-H torsion
[ 11005 11000 10999 10996 ] final   30.92 input  -57.11 | X-H torsion

> <Gold.Protein.ActiveResidues>
 VAL166  LYS551  ARG553  GLY616  TRP617  ASP618  TYR619  PRO620  LYS621  CYS622 
 ASP623  PHE694  ASN695  SER759  ASP760  ASP761  ALA762  ILE779  LEU786  VAL792 
 PHE793  MET794  SER795  GLU796  ALA797  LYS798  CYS799  TRP800  GLU811  SER814 

> <Gold.Protein.RotatedAtoms>
  152.4862  133.8380  159.7137 H   0  0  0  0  0  0  0  0  0  0  0  0  # atno 6907 bound_to 6896
  150.8951  133.7182  159.2900 H   0  0  0  0  0  0  0  0  0  0  0  0  # atno 6908 bound_to 6896
  151.4642  135.1044  159.9785 H   0  0  0  0  0  0  0  0  0  0  0  0  # atno 6909 bound_to 6896
  145.0795  139.3668  143.4916 H   0  0  0  0  0  0  0  0  0  0  0  0  # atno 7974 bound_to 7965
  155.8596  140.3454  155.5747 H   0  0  0  0  0  0  0  0  0  0  0  0  # atno 8008 bound_to 7997
  155.7948  140.0877  157.2009 H   0  0  0  0  0  0  0  0  0  0  0  0  # atno 8009 bound_to 7997
  154.4011  140.1476  156.3192 H   0  0  0  0  0  0  0  0  0  0  0  0  # atno 8010 bound_to 7997
  140.7191  143.3569  151.2040 H   0  0  0  0  0  0  0  0  0  0  0  0  # atno 10167 bound_to 10162
  157.6446  131.0950  150.6744 H   0  0  0  0  0  0  0  0  0  0  0  0  # atno 10718 bound_to 10713
  154.6819  135.5246  153.8274 H   0  0  0  0  0  0  0  0  0  0  0  0  # atno 10763 bound_to 10752
  153.0570  135.6554  154.0562 H   0  0  0  0  0  0  0  0  0  0  0  0  # atno 10764 bound_to 10752
  154.0448  135.2974  155.3329 H   0  0  0  0  0  0  0  0  0  0  0  0  # atno 10765 bound_to 10752
  140.2893  134.2883  155.7780 H   0  0  0  0  0  0  0  0  0  0  0  0  # atno 11005 bound_to 11000
  146.3531  140.0579  142.8631 LP  0  0  0  0  0  0  0  0  0  0  0  0  # atno 17320 bound_to 7965
  145.1195  140.9454  143.4609 LP  0  0  0  0  0  0  0  0  0  0  0  0  # atno 17321 bound_to 7965
  139.7113  143.9372  152.2948 LP  0  0  0  0  0  0  0  0  0  0  0  0  # atno 17342 bound_to 10162
  139.9098  144.6863  150.8574 LP  0  0  0  0  0  0  0  0  0  0  0  0  # atno 17343 bound_to 10162
  156.7063  130.4638  149.5559 LP  0  0  0  0  0  0  0  0  0  0  0  0  # atno 17370 bound_to 10713
  156.1761  130.6468  151.0895 LP  0  0  0  0  0  0  0  0  0  0  0  0  # atno 17371 bound_to 10713
  141.2149  133.7575  156.9600 LP  0  0  0  0  0  0  0  0  0  0  0  0  # atno 17394 bound_to 11000
  140.1210  134.9417  157.2203 LP  0  0  0  0  0  0  0  0  0  0  0  0  # atno 17395 bound_to 11000

$$$$
