AV-unprocessed.smi:2912|AV-procd|sdf|11181|dock3
  -GOLD-   2272016 73D 1   1.00000     0.00000
 Structure written by MMmdl.
 31 32  0  0  0  0  0  0  0  0  1 V2000
  146.8551  142.6600  153.2721 C   0  0  0  0  0  0  0  0  0  0  0  0
  147.8674  141.6799  153.6009 N   0  0  0  0  0  0  0  0  0  0  0  0
  148.8576  141.7527  154.5559 C   0  0  0  0  0  0  0  0  0  0  0  0
  149.5622  140.5826  154.5070 C   0  0  0  0  0  0  0  0  0  0  0  0
  150.7180  140.1440  155.3691 C   0  0  0  0  0  0  0  0  0  0  0  0
  150.4334  140.2859  156.8778 C   0  0  0  0  0  0  0  0  0  0  0  0
  151.4284  141.1245  157.5428 N   0  0  0  0  0  0  0  0  0  0  0  0
  151.1626  142.2232  158.2699 C   0  0  0  0  0  0  0  0  0  0  0  0
  150.0162  142.5692  158.5593 O   0  0  0  0  0  0  0  0  0  0  0  0
  152.3735  143.0609  158.7130 C   0  0  0  0  0  0  0  0  0  0  0  0
  152.5364  143.1587  160.5131 S   0  0  0  0  0  0  0  0  0  0  0  0
  151.5078  144.6441  160.5949 C   0  0  0  0  0  0  0  0  0  0  0  0
  151.9766  145.6179  159.5063 C   0  0  0  0  0  0  0  0  0  0  0  0
  152.3429  144.7171  157.9692 S   0  0  0  0  0  0  0  0  0  0  0  0
  148.9209  139.8553  153.4637 C   0  0  0  0  0  0  0  0  0  0  0  0
  147.9062  140.5129  152.9263 N   0  0  0  0  0  0  0  0  0  0  0  0
  147.0002  143.5615  153.8678 H   0  0  0  0  0  0  0  0  0  0  0  0
  145.8658  142.2521  153.4812 H   0  0  0  0  0  0  0  0  0  0  0  0
  146.9203  142.9189  152.2150 H   0  0  0  0  0  0  0  0  0  0  0  0
  148.9695  142.6156  155.1957 H   0  0  0  0  0  0  0  0  0  0  0  0
  150.9812  139.1076  155.1559 H   0  0  0  0  0  0  0  0  0  0  0  0
  151.6087  140.7248  155.1266 H   0  0  0  0  0  0  0  0  0  0  0  0
  149.4291  140.6848  157.0286 H   0  0  0  0  0  0  0  0  0  0  0  0
  150.4401  139.3022  157.3476 H   0  0  0  0  0  0  0  0  0  0  0  0
  152.3978  140.9066  157.3619 H   0  0  0  0  0  0  0  0  0  0  0  0
  153.2590  142.5474  158.3384 H   0  0  0  0  0  0  0  0  0  0  0  0
  150.4708  144.3566  160.4183 H   0  0  0  0  0  0  0  0  0  0  0  0
  151.5591  145.0929  161.5867 H   0  0  0  0  0  0  0  0  0  0  0  0
  151.2394  146.3988  159.3212 H   0  0  0  0  0  0  0  0  0  0  0  0
  152.8941  146.1097  159.8299 H   0  0  0  0  0  0  0  0  0  0  0  0
  149.1528  138.8674  153.0940 H   0  0  0  0  0  0  0  0  0  0  0  0
  1  2  1  0  0  0  0
  1 17  1  0  0  0  0
  1 18  1  0  0  0  0
  1 19  1  0  0  0  0
  2 16  1  0  0  0  0
  2  3  1  0  0  0  0
  3  4  2  0  0  0  0
  3 20  1  0  0  0  0
  4  5  1  0  0  0  0
  4 15  1  0  0  0  0
  5  6  1  0  0  0  0
  5 21  1  0  0  0  0
  5 22  1  0  0  0  0
  6  7  1  0  0  0  0
  6 23  1  0  0  0  0
  6 24  1  0  0  0  0
  7  8  1  0  0  0  0
  7 25  1  0  0  0  0
  8  9  2  0  0  0  0
  8 10  1  0  0  0  0
 10 14  1  0  0  0  0
 10 11  1  0  0  0  0
 10 26  1  0  0  0  0
 11 12  1  0  0  0  0
 12 13  1  0  0  0  0
 12 27  1  0  0  0  0
 12 28  1  0  0  0  0
 13 14  1  0  0  0  0
 13 29  1  0  0  0  0
 13 30  1  0  0  0  0
 15 16  2  0  0  0  0
 15 31  1  0  0  0  0
M  END
> <s_m_source_file>
AV-unprocessed.smi

> <i_m_source_file_index>
2912

> <i_lp_mmshare_version>
43012

> <i_f3d_flags>
0

> <s_epik_input>
W0NIM11uMVtjSF1jKFtjSF1uMSlbQ0gyXVtDSDJdW05IXUMoPU8pW0NIXTJTW0NIMl1bQ0gyXVMy

> <s_epik_cmdline>
J2VwaWtfcHl0aG9uJywgJy1waCcsICc3LjAnLCAnLXRuJywgJzgnLCAnLW1hJywgJzIwMCcsICctbWV0YWxfYmluZGluZycsICctaW1hZScsICc8aW5maWxlLm1hZT4nLCAnLW9tYWUnLCAnPG91dGZpbGUubWFlPic=

> <r_lp_tautomer_probability>
1

> <r_epik_Ionization_Penalty>
0.000416309

> <r_epik_Ionization_Penalty_Charging>
0

> <r_epik_Ionization_Penalty_Neutral>
0.000416309

> <r_epik_State_Penalty>
-0

> <r_epik_Charging_Adjusted_Penalty>
0

> <i_epik_Tot_Q>
0

> <i_epik_Tot_abs_Q>
0

> <r_epik_Metal_State_Penalty>
-0

> <b_epik_Metal_Only>
0

> <s_epik_Chemistry_Notes>
This compound contains an acetal/aminal-like group ( X-CH(R)-Y where X, Y are N, S, or O) that may be acid/base labile, releasing an aldehyde.

> <s_lp_Force_Field>
OPLS_2005

> <r_lp_Energy>
6.65343

> <b_lp_Chiralities_Consistent>
1

> <s_lp_Variant>
AV-unprocessed.smi:2912-1

> <Gold.Version>
5.8.1

> <Gold.Id.Protein>
6NUR|6NUR_protein|mol2

> <Gold.PLP.Fitness>
43.4375

> <Gold.PLP.PLP>
-39.9310

> <Gold.PLP.part.hbond>
-0.8522

> <Gold.PLP.part.metal>
0.0000

> <Gold.PLP.part.buried>
0.0826

> <Gold.PLP.part.nonpolar>
-40.0850

> <Gold.PLP.part.repulsive>
0.2996

> <Gold.PLP.ligand.clash>
0.0000

> <Gold.PLP.ligand.torsion>
0.4635

> <Gold.PLP.Chemscore.Hbond>
0.0000

> <Gold.PLP.Chemscore.CHOScore>
1.4633

> <Gold.PLP.Chemscore.Metal>
0.0000

> <Gold.Chemscore.Hbonds>
donor molecule, donor type, donor heavy atom, donor atom, acceptor molecule, acceptor atom, score
      L1  C     3    20       P1  8028  1.00
      L1  C    15    31       P1  7948  0.12
      L1  C    15    31       P1  7957  0.06

> <Gold.PLP.Chemscore.Internal.Correction>
0.0436

> <Gold.Rescore>
     Score         DG    S(hbond)    S(metal)    S(lipo)     H(rot)  DE(clash)    DE(int)     intcor
     12.84     -13.24       0.00        0.00     100.09       1.54       0.02       0.37       ----

> <Gold.Chemscore.Fitness>
12.8427

> <Gold.Chemscore.DG>
-13.2395

> <Gold.Chemscore.ZeroCoef>
-5.4800

> <Gold.Chemscore.Hbond>
0.0000

> <Gold.Chemscore.Metal>
0.0000

> <Gold.Chemscore.Lipo>
100.0906

> <Gold.Chemscore.Internal_Hbond>
0.0000

> <Gold.Chemscore.DEClash>
0.0227

> <Gold.Chemscore.DEInternal>
0.3742

> <Gold.Chemscore.Rot>
1.5434

> <Gold.Chemscore.Internal.Correction>
   9.000000E+99

> <Gold.Chemscore.Hbond.Weighted>
-0.0000

> <Gold.Chemscore.Metal.Weighted>
-0.0000

> <Gold.Chemscore.Lipo.Weighted>
-11.7106

> <Gold.Chemscore.Internal_Hbond.Weighted>
0.0000

> <Gold.Chemscore.DEClash.Weighted>
0.0227

> <Gold.Chemscore.DEInternal.Weighted>
0.3742

> <Gold.Chemscore.Rot.Weighted>
3.9511

> <Gold.Chemscore.Internal.Correction.Weighted>
   9.000000E+99

> <Gold.Protein.RotatedTorsions>
[ 6907 6896 6895 6894 ] final  -41.49 input  -60.11 | X-H torsion
[ 7974 7965 7964 7962 ] final  -77.09 input  175.53 | X-H torsion
[ 8008 7997 7996 7995 ] final -153.70 input   59.86 | X-H torsion
[ 10167 10162 10161 10158 ] final   66.21 input  -65.29 | X-H torsion
[ 10718 10713 10712 10709 ] final  -68.89 input   66.30 | X-H torsion
[ 10763 10752 10751 10750 ] final -107.02 input  -60.55 | X-H torsion
[ 11005 11000 10999 10996 ] final  -47.04 input  -57.11 | X-H torsion

> <Gold.Protein.ActiveResidues>
 VAL166  LYS551  ARG553  GLY616  TRP617  ASP618  TYR619  PRO620  LYS621  CYS622 
 ASP623  PHE694  ASN695  SER759  ASP760  ASP761  ALA762  ILE779  LEU786  VAL792 
 PHE793  MET794  SER795  GLU796  ALA797  LYS798  CYS799  TRP800  GLU811  SER814 

> <Gold.Protein.RotatedAtoms>
  150.9662  134.9042  159.7760 H   0  0  0  0  0  0  0  0  0  0  0  0  # atno 6907 bound_to 6896
  152.5174  134.3604  159.9293 H   0  0  0  0  0  0  0  0  0  0  0  0  # atno 6908 bound_to 6896
  151.3615  133.3847  159.2725 H   0  0  0  0  0  0  0  0  0  0  0  0  # atno 6909 bound_to 6896
  145.6043  140.9401  143.1224 H   0  0  0  0  0  0  0  0  0  0  0  0  # atno 7974 bound_to 7965
  155.6749  140.0737  157.2506 H   0  0  0  0  0  0  0  0  0  0  0  0  # atno 8008 bound_to 7997
  154.4116  140.1692  156.1971 H   0  0  0  0  0  0  0  0  0  0  0  0  # atno 8009 bound_to 7997
  155.9585  140.3372  155.6472 H   0  0  0  0  0  0  0  0  0  0  0  0  # atno 8010 bound_to 7997
  140.1029  144.4888  150.7026 H   0  0  0  0  0  0  0  0  0  0  0  0  # atno 10167 bound_to 10162
  156.0482  130.4303  150.2068 H   0  0  0  0  0  0  0  0  0  0  0  0  # atno 10718 bound_to 10713
  154.8049  135.4690  154.0367 H   0  0  0  0  0  0  0  0  0  0  0  0  # atno 10763 bound_to 10752
  153.1844  135.6845  153.8442 H   0  0  0  0  0  0  0  0  0  0  0  0  # atno 10764 bound_to 10752
  153.7981  135.3234  155.3364 H   0  0  0  0  0  0  0  0  0  0  0  0  # atno 10765 bound_to 10752
  141.0616  133.6707  156.3240 H   0  0  0  0  0  0  0  0  0  0  0  0  # atno 11005 bound_to 11000
  144.7296  139.7766  143.7352 LP  0  0  0  0  0  0  0  0  0  0  0  0  # atno 17320 bound_to 7965
  146.1552  139.4648  143.0023 LP  0  0  0  0  0  0  0  0  0  0  0  0  # atno 17321 bound_to 7965
  140.6968  143.2409  151.4978 LP  0  0  0  0  0  0  0  0  0  0  0  0  # atno 17342 bound_to 10162
  139.5661  144.2038  152.1767 LP  0  0  0  0  0  0  0  0  0  0  0  0  # atno 17343 bound_to 10162
  157.0154  130.9963  151.3354 LP  0  0  0  0  0  0  0  0  0  0  0  0  # atno 17370 bound_to 10713
  157.5381  130.8102  149.7996 LP  0  0  0  0  0  0  0  0  0  0  0  0  # atno 17371 bound_to 10713
  140.5857  134.5701  157.5489 LP  0  0  0  0  0  0  0  0  0  0  0  0  # atno 17394 bound_to 11000
  139.9438  134.7739  156.0613 LP  0  0  0  0  0  0  0  0  0  0  0  0  # atno 17395 bound_to 11000

$$$$
