AV-unprocessed.smi:3198|AV-procd|sdf|12228|dock1
  -GOLD-   2272018 63D 1   1.00000     0.00000
 Structure written by MMmdl.
 38 39  0  0  0  0  0  0  0  0  2 V2000
  152.9399  142.3322  161.3304 C   0  0  0  0  0  0  0  0  0  0  0  0
  152.2849  143.3481  160.4191 C   0  0  0  0  0  0  0  0  0  0  0  0
  152.2518  144.7242  160.7250 C   0  0  0  0  0  0  0  0  0  0  0  0
  151.6229  145.6091  159.8272 C   0  0  0  0  0  0  0  0  0  0  0  0
  151.0455  145.1023  158.6454 C   0  0  0  0  0  0  0  0  0  0  0  0
  151.1152  143.7135  158.3763 C   0  0  0  0  0  0  0  0  0  0  0  0
  150.6000  143.0990  157.2251 N   0  0  0  0  0  0  0  0  0  0  0  0
  150.7231  141.6575  157.0418 C   0  0  0  0  0  0  0  0  0  0  0  0
  150.3832  141.2173  155.6091 C   0  0  0  0  0  0  0  0  0  0  0  0
  150.6964  139.8441  155.4647 O   0  0  0  0  0  0  0  0  0  0  0  0
  152.0618  139.5408  155.6877 C   0  0  0  0  0  0  0  0  0  0  0  0
  152.2380  139.0668  157.1372 C   0  0  1  0  0  0  0  0  0  0  0  0
  151.9867  137.5758  157.3807 C   0  0  0  0  0  0  0  0  0  0  0  0
  152.9219  137.2326  158.5333 C   0  0  0  0  0  0  0  0  0  0  0  0
  153.7219  138.5152  158.7734 C   0  0  0  0  0  0  0  0  0  0  0  0
  153.5738  139.2601  157.5746 O   0  0  0  0  0  0  0  0  0  0  0  0
  151.7216  142.9039  159.2734 N   0  3  0  0  0  0  0  0  0  0  0  0
  153.2194  142.7827  162.2833 H   0  0  0  0  0  0  0  0  0  0  0  0
  153.8402  141.9309  160.8645 H   0  0  0  0  0  0  0  0  0  0  0  0
  152.2581  141.5057  161.5331 H   0  0  0  0  0  0  0  0  0  0  0  0
  152.7007  145.0990  161.6335 H   0  0  0  0  0  0  0  0  0  0  0  0
  151.5862  146.6671  160.0409 H   0  0  0  0  0  0  0  0  0  0  0  0
  150.5681  145.7869  157.9611 H   0  0  0  0  0  0  0  0  0  0  0  0
  149.8190  143.5482  156.7692 H   0  0  0  0  0  0  0  0  0  0  0  0
  151.7626  141.4016  157.2483 H   0  0  0  0  0  0  0  0  0  0  0  0
  150.1310  141.1102  157.7746 H   0  0  0  0  0  0  0  0  0  0  0  0
  149.3300  141.4055  155.3944 H   0  0  0  0  0  0  0  0  0  0  0  0
  150.9717  141.7930  154.8937 H   0  0  0  0  0  0  0  0  0  0  0  0
  152.3938  138.7573  155.0049 H   0  0  0  0  0  0  0  0  0  0  0  0
  152.6738  140.4239  155.4988 H   0  0  0  0  0  0  0  0  0  0  0  0
  151.5855  139.6520  157.7881 H   0  0  0  0  0  0  0  0  0  0  0  0
  150.9410  137.3718  157.6126 H   0  0  0  0  0  0  0  0  0  0  0  0
  152.2549  136.9794  156.5081 H   0  0  0  0  0  0  0  0  0  0  0  0
  152.3794  136.9309  159.4297 H   0  0  0  0  0  0  0  0  0  0  0  0
  153.5815  136.4116  158.2504 H   0  0  0  0  0  0  0  0  0  0  0  0
  153.2968  139.0828  159.6028 H   0  0  0  0  0  0  0  0  0  0  0  0
  154.7712  138.3211  158.9961 H   0  0  0  0  0  0  0  0  0  0  0  0
  151.7650  141.9045  159.0733 H   0  0  0  0  0  0  0  0  0  0  0  0
  1  2  1  0  0  0  0
  1 18  1  0  0  0  0
  1 19  1  0  0  0  0
  1 20  1  0  0  0  0
  2 17  1  0  0  0  0
  2  3  2  0  0  0  0
  3  4  1  0  0  0  0
  3 21  1  0  0  0  0
  4  5  2  0  0  0  0
  4 22  1  0  0  0  0
  5  6  1  0  0  0  0
  5 23  1  0  0  0  0
  6  7  1  0  0  0  0
  6 17  2  0  0  0  0
  7  8  1  0  0  0  0
  7 24  1  0  0  0  0
  8  9  1  0  0  0  0
  8 25  1  0  0  0  0
  8 26  1  0  0  0  0
  9 10  1  0  0  0  0
  9 27  1  0  0  0  0
  9 28  1  0  0  0  0
 10 11  1  0  0  0  0
 11 12  1  0  0  0  0
 11 29  1  0  0  0  0
 11 30  1  0  0  0  0
 12 16  1  0  0  0  0
 12 13  1  0  0  0  0
 12 31  1  0  0  0  0
 13 14  1  0  0  0  0
 13 32  1  0  0  0  0
 13 33  1  0  0  0  0
 14 15  1  0  0  0  0
 14 34  1  0  0  0  0
 14 35  1  0  0  0  0
 15 16  1  0  0  0  0
 15 36  1  0  0  0  0
 15 37  1  0  0  0  0
 17 38  1  0  0  0  0
M  CHG  1  17   1
M  END
> <s_m_source_file>
AV-unprocessed.smi

> <i_m_source_file_index>
3198

> <i_lp_mmshare_version>
43012

> <i_f3d_flags>
0

> <s_epik_input>
W0NIM11jMVtjSF1bY0hdW2NIXWMobjEpW05IXVtDSDJdW0NIMl1PW0NIMl1bQ0BASF0yW0NIMl1bQ0gyXVtDSDJdTzI=

> <s_epik_cmdline>
J2VwaWtfcHl0aG9uJywgJy1waCcsICc3LjAnLCAnLXRuJywgJzgnLCAnLW1hJywgJzIwMCcsICctbWV0YWxfYmluZGluZycsICctaW1hZScsICc8aW5maWxlLm1hZT4nLCAnLW9tYWUnLCAnPG91dGZpbGUubWFlPic=

> <r_lp_tautomer_probability>
0.999994

> <r_epik_Ionization_Penalty>
0.0710016

> <r_epik_Ionization_Penalty_Charging>
0.0710012

> <r_epik_Ionization_Penalty_Neutral>
3.47026e-07

> <r_epik_State_Penalty>
0.0622974

> <r_epik_Charging_Adjusted_Penalty>
0.133299

> <i_epik_Tot_Q>
1

> <i_epik_Tot_abs_Q>
1

> <r_epik_Metal_State_Penalty>
2.79497

> <b_epik_Metal_Only>
0

> <s_lp_Force_Field>
OPLS_2005

> <r_lp_Energy>
24.0011

> <b_lp_Chiralities_Consistent>
1

> <s_lp_Variant>
AV-unprocessed.smi:3198-2

> <Gold.Version>
5.8.1

> <Gold.Id.Protein>
6NUR|6NUR_protein|mol2

> <Gold.PLP.Fitness>
44.4672

> <Gold.PLP.PLP>
-36.8501

> <Gold.PLP.part.hbond>
-1.8342

> <Gold.PLP.part.metal>
0.0000

> <Gold.PLP.part.buried>
-5.8061

> <Gold.PLP.part.nonpolar>
-28.5911

> <Gold.PLP.part.repulsive>
0.0980

> <Gold.PLP.ligand.clash>
0.2098

> <Gold.PLP.ligand.torsion>
0.6015

> <Gold.PLP.Chemscore.Hbond>
3.0000

> <Gold.PLP.Chemscore.CHOScore>
0.0000

> <Gold.PLP.Chemscore.Metal>
0.0000

> <Gold.Chemscore.Hbonds>
donor molecule, donor type, donor heavy atom, donor atom, acceptor molecule, acceptor atom, score
      L1  H     7    24       P1  8028  2.00
      P1  H  7997  8009       L1    16  0.82

> <Gold.PLP.Chemscore.Internal.Correction>
0.0298

> <Gold.Rescore>
     Score         DG    S(hbond)    S(metal)    S(lipo)     H(rot)  DE(clash)    DE(int)     intcor
     18.65     -19.31       1.99        0.00      98.65       1.71       0.07       0.59       ----

> <Gold.Chemscore.Fitness>
18.6480

> <Gold.Chemscore.DG>
-19.3058

> <Gold.Chemscore.ZeroCoef>
-5.4800

> <Gold.Chemscore.Hbond>
1.9916

> <Gold.Chemscore.Metal>
0.0000

> <Gold.Chemscore.Lipo>
98.6482

> <Gold.Chemscore.Internal_Hbond>
0.0000

> <Gold.Chemscore.DEClash>
0.0682

> <Gold.Chemscore.DEInternal>
0.5896

> <Gold.Chemscore.Rot>
1.7063

> <Gold.Chemscore.Internal.Correction>
   9.000000E+99

> <Gold.Chemscore.Hbonds>
donor molecule, donor type, donor heavy atom, donor atom, acceptor molecule, acceptor atom, score
      L1  H     7    24       P1  8028  0.99
      P1  H  7997  8009       L1    16  0.69

> <Gold.Chemscore.Hbond.Weighted>
-6.6520

> <Gold.Chemscore.Metal.Weighted>
-0.0000

> <Gold.Chemscore.Lipo.Weighted>
-11.5418

> <Gold.Chemscore.Internal_Hbond.Weighted>
0.0000

> <Gold.Chemscore.DEClash.Weighted>
0.0682

> <Gold.Chemscore.DEInternal.Weighted>
0.5896

> <Gold.Chemscore.Rot.Weighted>
4.3681

> <Gold.Chemscore.Internal.Correction.Weighted>
   9.000000E+99

> <Gold.Protein.RotatedTorsions>
[ 6907 6896 6895 6894 ] final  120.78 input  -60.11 | X-H torsion
[ 7974 7965 7964 7962 ] final -172.67 input  175.53 | X-H torsion
[ 8008 7997 7996 7995 ] final  140.92 input   59.86 | X-H torsion
[ 10167 10162 10161 10158 ] final -104.68 input  -65.29 | X-H torsion
[ 10718 10713 10712 10709 ] final  -91.89 input   66.30 | X-H torsion
[ 10763 10752 10751 10750 ] final -126.44 input  -60.55 | X-H torsion
[ 11005 11000 10999 10996 ] final  170.19 input  -57.11 | X-H torsion

> <Gold.Protein.ActiveResidues>
 VAL166  LYS551  ARG553  GLY616  TRP617  ASP618  TYR619  PRO620  LYS621  CYS622 
 ASP623  PHE694  ASN695  SER759  ASP760  ASP761  ALA762  ILE779  LEU786  VAL792 
 PHE793  MET794  SER795  GLU796  ALA797  LYS798  CYS799  TRP800  GLU811  SER814 

> <Gold.Protein.RotatedAtoms>
  152.4372  133.7382  159.6625 H   0  0  0  0  0  0  0  0  0  0  0  0  # atno 6907 bound_to 6896
  150.8257  133.8165  159.3126 H   0  0  0  0  0  0  0  0  0  0  0  0  # atno 6908 bound_to 6896
  151.5834  135.1059  160.0074 H   0  0  0  0  0  0  0  0  0  0  0  0  # atno 6909 bound_to 6896
  144.7144  140.1738  143.6365 H   0  0  0  0  0  0  0  0  0  0  0  0  # atno 7974 bound_to 7965
  156.2973  140.2329  156.4480 H   0  0  0  0  0  0  0  0  0  0  0  0  # atno 8008 bound_to 7997
  154.8127  140.0442  157.1375 H   0  0  0  0  0  0  0  0  0  0  0  0  # atno 8009 bound_to 7997
  154.9405  140.3029  155.5126 H   0  0  0  0  0  0  0  0  0  0  0  0  # atno 8010 bound_to 7997
  140.2067  143.3778  152.1085 H   0  0  0  0  0  0  0  0  0  0  0  0  # atno 10167 bound_to 10162
  155.9997  130.4966  150.5543 H   0  0  0  0  0  0  0  0  0  0  0  0  # atno 10718 bound_to 10713
  154.8745  135.3995  154.3432 H   0  0  0  0  0  0  0  0  0  0  0  0  # atno 10763 bound_to 10752
  153.4228  135.7023  153.6288 H   0  0  0  0  0  0  0  0  0  0  0  0  # atno 10764 bound_to 10752
  153.4943  135.3741  155.2477 H   0  0  0  0  0  0  0  0  0  0  0  0  # atno 10765 bound_to 10752
  140.3057  134.7558  157.3951 H   0  0  0  0  0  0  0  0  0  0  0  0  # atno 11005 bound_to 11000
  145.8920  139.2381  143.1544 LP  0  0  0  0  0  0  0  0  0  0  0  0  # atno 17320 bound_to 7965
  145.9895  140.8615  143.0074 LP  0  0  0  0  0  0  0  0  0  0  0  0  # atno 17321 bound_to 7965
  139.5196  144.7021  151.5462 LP  0  0  0  0  0  0  0  0  0  0  0  0  # atno 17342 bound_to 10162
  140.6353  143.8997  150.6641 LP  0  0  0  0  0  0  0  0  0  0  0  0  # atno 17343 bound_to 10162
  157.3462  131.0725  151.1749 LP  0  0  0  0  0  0  0  0  0  0  0  0  # atno 17370 bound_to 10713
  157.2581  130.6646  149.5962 LP  0  0  0  0  0  0  0  0  0  0  0  0  # atno 17371 bound_to 10713
  140.1069  134.5397  155.8301 LP  0  0  0  0  0  0  0  0  0  0  0  0  # atno 17394 bound_to 11000
  141.2119  133.6712  156.6616 LP  0  0  0  0  0  0  0  0  0  0  0  0  # atno 17395 bound_to 11000

$$$$
