AV-unprocessed.smi:102|AV-procd|sdf|949|dock7
  -GOLD-   2262017473D 1   1.00000     0.00000
 Structure written by MMmdl.
 44 45  0  0  0  0  0  0  0  0  1 V2000
  152.6636  143.2762  162.5882 C   0  0  0  0  0  0  0  0  0  0  0  0
  153.8009  142.2645  162.5264 C   0  0  0  0  0  0  0  0  0  0  0  0
  154.5302  142.0585  163.4967 O   0  0  0  0  0  0  0  0  0  0  0  0
  153.8896  141.6613  161.3314 O   0  0  0  0  0  0  0  0  0  0  0  0
  154.7725  140.5645  161.1642 C   0  0  0  0  0  0  0  0  0  0  0  0
  154.5118  139.9094  159.8044 C   0  0  2  0  0  0  0  0  0  0  0  0
  153.3328  139.1188  159.8583 O   0  0  0  0  0  0  0  0  0  0  0  0
  153.3665  138.2001  158.8147 C   0  0  1  0  0  0  0  0  0  0  0  0
  152.6649  138.8211  157.6152 N   0  0  0  0  0  0  0  0  0  0  0  0
  151.9601  140.0199  157.6909 C   0  0  0  0  0  0  0  0  0  0  0  0
  151.2660  140.5398  156.6512 C   0  0  0  0  0  0  0  0  0  0  0  0
  150.6101  141.7023  156.8072 F   0  0  0  0  0  0  0  0  0  0  0  0
  151.1998  139.8382  155.3740 C   0  0  0  0  0  0  0  0  0  0  0  0
  150.6093  140.2350  154.3717 O   0  0  0  0  0  0  0  0  0  0  0  0
  151.8693  138.6128  155.3576 N   0  0  0  0  0  0  0  0  0  0  0  0
  152.5773  138.0597  156.4258 C   0  0  0  0  0  0  0  0  0  0  0  0
  153.0940  136.9501  156.3017 O   0  0  0  0  0  0  0  0  0  0  0  0
  154.8485  137.8597  158.5616 C   0  0  2  0  0  0  0  0  0  0  0  0
  155.1587  136.5551  159.0351 O   0  0  0  0  0  0  0  0  0  0  0  0
  155.2739  135.5319  158.1705 C   0  0  0  0  0  0  0  0  0  0  0  0
  155.4407  134.1914  158.8735 C   0  0  0  0  0  0  0  0  0  0  0  0
  155.2471  135.6154  156.9427 O   0  0  0  0  0  0  0  0  0  0  0  0
  155.5921  138.8983  159.4027 C   0  0  1  0  0  0  0  0  0  0  0  0
  156.6079  139.5342  158.6379 O   0  0  0  0  0  0  0  0  0  0  0  0
  157.4468  140.4083  159.2221 C   0  0  0  0  0  0  0  0  0  0  0  0
  158.3336  141.1279  158.2146 C   0  0  0  0  0  0  0  0  0  0  0  0
  157.5336  140.6332  160.4294 O   0  0  0  0  0  0  0  0  0  0  0  0
  151.8273  138.0757  154.5035 H   0  0  0  0  0  0  0  0  0  0  0  0
  152.3633  143.5837  161.5862 H   0  0  0  0  0  0  0  0  0  0  0  0
  152.9752  144.1628  163.1408 H   0  0  0  0  0  0  0  0  0  0  0  0
  151.7996  142.8411  163.0904 H   0  0  0  0  0  0  0  0  0  0  0  0
  155.7994  140.9304  161.2058 H   0  0  0  0  0  0  0  0  0  0  0  0
  154.6480  139.8394  161.9698 H   0  0  0  0  0  0  0  0  0  0  0  0
  154.4014  140.6722  159.0320 H   0  0  0  0  0  0  0  0  0  0  0  0
  152.7894  137.3102  159.0720 H   0  0  0  0  0  0  0  0  0  0  0  0
  151.9278  140.5781  158.6134 H   0  0  0  0  0  0  0  0  0  0  0  0
  155.0963  137.9357  157.5034 H   0  0  0  0  0  0  0  0  0  0  0  0
  156.0444  134.3033  159.7745 H   0  0  0  0  0  0  0  0  0  0  0  0
  155.9346  133.4756  158.2159 H   0  0  0  0  0  0  0  0  0  0  0  0
  154.4675  133.7889  159.1545 H   0  0  0  0  0  0  0  0  0  0  0  0
  156.0002  138.4352  160.3032 H   0  0  0  0  0  0  0  0  0  0  0  0
  157.8158  141.2481  157.2628 H   0  0  0  0  0  0  0  0  0  0  0  0
  159.2471  140.5585  158.0430 H   0  0  0  0  0  0  0  0  0  0  0  0
  158.6060  142.1163  158.5855 H   0  0  0  0  0  0  0  0  0  0  0  0
  1  2  1  0  0  0  0
  1 29  1  0  0  0  0
  1 30  1  0  0  0  0
  1 31  1  0  0  0  0
  2  3  2  0  0  0  0
  2  4  1  0  0  0  0
  4  5  1  0  0  0  0
  5  6  1  0  0  0  0
  5 32  1  0  0  0  0
  5 33  1  0  0  0  0
  6 23  1  0  0  0  0
  6  7  1  0  0  0  0
  6 34  1  0  0  0  0
  7  8  1  0  0  0  0
  8  9  1  0  0  0  0
  8 18  1  0  0  0  0
  8 35  1  0  0  0  0
  9 16  1  0  0  0  0
  9 10  1  0  0  0  0
 10 11  2  0  0  0  0
 10 36  1  0  0  0  0
 11 12  1  0  0  0  0
 11 13  1  0  0  0  0
 13 14  2  0  0  0  0
 13 15  1  0  0  0  0
 15 28  1  0  0  0  0
 15 16  1  0  0  0  0
 16 17  2  0  0  0  0
 18 19  1  0  0  0  0
 18 23  1  0  0  0  0
 18 37  1  0  0  0  0
 19 20  1  0  0  0  0
 20 21  1  0  0  0  0
 20 22  2  0  0  0  0
 21 38  1  0  0  0  0
 21 39  1  0  0  0  0
 21 40  1  0  0  0  0
 23 24  1  0  0  0  0
 23 41  1  0  0  0  0
 24 25  1  0  0  0  0
 25 26  1  0  0  0  0
 25 27  2  0  0  0  0
 26 42  1  0  0  0  0
 26 43  1  0  0  0  0
 26 44  1  0  0  0  0
M  END
> <s_m_source_file>
AV-unprocessed.smi

> <i_m_source_file_index>
102

> <i_lp_mmshare_version>
43012

> <i_f3d_flags>
0

> <s_epik_input>
W0NIM11DKD1PKU9bQ0gyXVtDQEBIXTFPW0NASF0oW0NAQEhdKE9DKD1PKVtDSDNdKVtDQEhdMU9DKD1PKVtDSDNdKW4yW2NIXWMoRiljKD1PKVtuSF1jMj1P

> <s_epik_cmdline>
J2VwaWtfcHl0aG9uJywgJy1waCcsICc3LjAnLCAnLXRuJywgJzgnLCAnLW1hJywgJzIwMCcsICctbWV0YWxfYmluZGluZycsICctaW1hZScsICc8aW5maWxlLm1hZT4nLCAnLW9tYWUnLCAnPG91dGZpbGUubWFlPic=

> <r_lp_tautomer_probability>
0.999537

> <r_epik_Ionization_Penalty>
0.058267

> <r_epik_Ionization_Penalty_Charging>
0.058267

> <r_epik_Ionization_Penalty_Neutral>
6.57791e-16

> <r_epik_State_Penalty>
0.0503774

> <r_epik_Charging_Adjusted_Penalty>
0.108644

> <i_epik_Tot_Q>
0

> <i_epik_Tot_abs_Q>
0

> <r_epik_Metal_State_Penalty>
2.6644

> <b_epik_Metal_Only>
0

> <s_epik_Chemistry_Notes>
This compound has an ester and may undergo hydrolysis at high or low pH. This compound contains an acetal/aminal-like group ( X-CH(R)-Y where X, Y are N, S, or O) that may be acid/base labile, releasing an aldehyde.

> <s_lp_Force_Field>
OPLS_2005

> <r_lp_Energy>
9.37948

> <b_lp_Chiralities_Consistent>
1

> <s_lp_Variant>
AV-unprocessed.smi:102-5

> <Gold.Version>
5.8.1

> <Gold.Id.Protein>
6NUR|6NUR_protein|mol2

> <Gold.PLP.Fitness>
43.3231

> <Gold.PLP.PLP>
-37.8355

> <Gold.PLP.part.hbond>
-5.8992

> <Gold.PLP.part.metal>
0.0000

> <Gold.PLP.part.buried>
-3.0459

> <Gold.PLP.part.nonpolar>
-29.8081

> <Gold.PLP.part.repulsive>
0.3713

> <Gold.PLP.ligand.clash>
0.0000

> <Gold.PLP.ligand.torsion>
0.9416

> <Gold.PLP.Chemscore.Hbond>
2.3638

> <Gold.PLP.Chemscore.CHOScore>
0.0000

> <Gold.PLP.Chemscore.Metal>
0.0000

> <Gold.Chemscore.Hbonds>
donor molecule, donor type, donor heavy atom, donor atom, acceptor molecule, acceptor atom, score
      P1  H  7989  7998       L1    14  0.88
      P1  H 10752 10763       L1    17  0.38
      P1  H 10752 10764       L1    22  0.99

> <Gold.PLP.Chemscore.Internal.Correction>
0.2793

> <Gold.Rescore>
     Score         DG    S(hbond)    S(metal)    S(lipo)     H(rot)  DE(clash)    DE(int)     intcor
      2.86      -8.49       1.87        0.00      60.86       4.05       1.87       3.75       ----

> <Gold.Chemscore.Fitness>
2.8603

> <Gold.Chemscore.DG>
-8.4853

> <Gold.Chemscore.ZeroCoef>
-5.4800

> <Gold.Chemscore.Hbond>
1.8735

> <Gold.Chemscore.Metal>
0.0000

> <Gold.Chemscore.Lipo>
60.8641

> <Gold.Chemscore.Internal_Hbond>
0.0000

> <Gold.Chemscore.DEClash>
1.8703

> <Gold.Chemscore.DEInternal>
3.7547

> <Gold.Chemscore.Rot>
4.0520

> <Gold.Chemscore.Internal.Correction>
   9.000000E+99

> <Gold.Chemscore.Hbonds>
donor molecule, donor type, donor heavy atom, donor atom, acceptor molecule, acceptor atom, score
      P1  H  7989  7998       L1    14  0.51
      P1  H 10752 10763       L1    17  0.36
      P1  H 10752 10764       L1    22  0.91

> <Gold.Chemscore.Hbond.Weighted>
-6.2574

> <Gold.Chemscore.Metal.Weighted>
-0.0000

> <Gold.Chemscore.Lipo.Weighted>
-7.1211

> <Gold.Chemscore.Internal_Hbond.Weighted>
0.0000

> <Gold.Chemscore.DEClash.Weighted>
1.8703

> <Gold.Chemscore.DEInternal.Weighted>
3.7547

> <Gold.Chemscore.Rot.Weighted>
10.3732

> <Gold.Chemscore.Internal.Correction.Weighted>
   9.000000E+99

> <Gold.Protein.RotatedTorsions>
[ 6907 6896 6895 6894 ] final -134.37 input  -60.11 | X-H torsion
[ 7974 7965 7964 7962 ] final  -88.30 input  175.53 | X-H torsion
[ 8008 7997 7996 7995 ] final -135.88 input   59.86 | X-H torsion
[ 10167 10162 10161 10158 ] final -118.67 input  -65.29 | X-H torsion
[ 10718 10713 10712 10709 ] final  144.42 input   66.30 | X-H torsion
[ 10763 10752 10751 10750 ] final   70.35 input  -60.55 | X-H torsion
[ 11005 11000 10999 10996 ] final -117.58 input  -57.11 | X-H torsion

> <Gold.Protein.ActiveResidues>
 VAL166  LYS551  ARG553  GLY616  TRP617  ASP618  TYR619  PRO620  LYS621  CYS622 
 ASP623  PHE694  ASN695  SER759  ASP760  ASP761  ALA762  ILE779  LEU786  VAL792 
 PHE793  MET794  SER795  GLU796  ALA797  LYS798  CYS799  TRP800  GLU811  SER814 

> <Gold.Protein.RotatedAtoms>
  150.9851  133.6206  159.2716 H   0  0  0  0  0  0  0  0  0  0  0  0  # atno 6907 bound_to 6896
  151.3447  135.0870  159.9392 H   0  0  0  0  0  0  0  0  0  0  0  0  # atno 6908 bound_to 6896
  152.5228  133.9455  159.7701 H   0  0  0  0  0  0  0  0  0  0  0  0  # atno 6909 bound_to 6896
  145.4549  140.9561  143.2001 H   0  0  0  0  0  0  0  0  0  0  0  0  # atno 7974 bound_to 7965
  155.3859  140.0497  157.3042 H   0  0  0  0  0  0  0  0  0  0  0  0  # atno 8008 bound_to 7997
  154.5059  140.2174  155.9213 H   0  0  0  0  0  0  0  0  0  0  0  0  # atno 8009 bound_to 7997
  156.1525  140.3133  155.8677 H   0  0  0  0  0  0  0  0  0  0  0  0  # atno 8010 bound_to 7997
  140.0550  143.5023  152.2062 H   0  0  0  0  0  0  0  0  0  0  0  0  # atno 10167 bound_to 10162
  157.3573  131.0960  151.0946 H   0  0  0  0  0  0  0  0  0  0  0  0  # atno 10718 bound_to 10713
  153.0336  135.5177  154.7427 H   0  0  0  0  0  0  0  0  0  0  0  0  # atno 10763 bound_to 10752
  154.6421  135.2914  155.0092 H   0  0  0  0  0  0  0  0  0  0  0  0  # atno 10764 bound_to 10752
  154.1006  135.6637  153.4920 H   0  0  0  0  0  0  0  0  0  0  0  0  # atno 10765 bound_to 10752
  141.0345  133.9930  157.3092 H   0  0  0  0  0  0  0  0  0  0  0  0  # atno 11005 bound_to 11000
  144.8038  139.6090  143.7060 LP  0  0  0  0  0  0  0  0  0  0  0  0  # atno 17320 bound_to 7965
  146.2483  139.6146  142.9444 LP  0  0  0  0  0  0  0  0  0  0  0  0  # atno 17321 bound_to 7965
  139.5929  144.7556  151.3357 LP  0  0  0  0  0  0  0  0  0  0  0  0  # atno 17342 bound_to 10162
  140.7199  143.7165  150.7729 LP  0  0  0  0  0  0  0  0  0  0  0  0  # atno 17343 bound_to 10162
  157.2099  130.6433  149.5770 LP  0  0  0  0  0  0  0  0  0  0  0  0  # atno 17370 bound_to 10713
  155.9731  130.4663  150.6285 LP  0  0  0  0  0  0  0  0  0  0  0  0  # atno 17371 bound_to 10713
  139.9231  135.0201  156.8137 LP  0  0  0  0  0  0  0  0  0  0  0  0  # atno 17394 bound_to 11000
  140.6347  133.9873  155.7678 LP  0  0  0  0  0  0  0  0  0  0  0  0  # atno 17395 bound_to 11000

$$$$
