AV-unprocessed.smi:138|AV-procd|sdf|1180|dock6
  -GOLD-   2262018333D 1   1.00000     0.00000
 Structure written by MMmdl.
 52 55  0  0  0  0  0  0  0  0  1 V2000
  148.6418  141.0772  154.7494 C   0  0  0  0  0  0  0  0  0  0  0  0
  148.8439  140.2229  155.9599 C   0  0  0  0  0  0  0  0  0  0  0  0
  147.9816  139.3603  156.5690 C   0  0  0  0  0  0  0  0  0  0  0  0
  148.6375  138.7790  157.6896 C   0  0  0  0  0  0  0  0  0  0  0  0
  148.0933  137.8032  158.6681 C   0  0  0  0  0  0  0  0  0  0  0  0
  146.9062  137.7655  158.9953 O   0  0  0  0  0  0  0  0  0  0  0  0
  149.1115  136.8098  159.2586 C   0  0  0  0  0  0  0  0  0  0  0  0
  148.4863  135.6250  159.8345 N   0  0  0  0  0  0  0  0  0  0  0  0
  147.7394  135.7849  161.0284 C   0  0  0  0  0  0  0  0  0  0  0  0
  147.6038  136.8805  161.5759 O   0  0  0  0  0  0  0  0  0  0  0  0
  147.1681  134.5504  161.5538 C   0  0  0  0  0  0  0  0  0  0  0  0
  146.4481  134.5809  162.6883 F   0  0  0  0  0  0  0  0  0  0  0  0
  147.3534  133.3718  160.9213 C   0  0  0  0  0  0  0  0  0  0  0  0
  148.0747  133.2442  159.7479 N   0  0  0  0  0  0  0  0  0  0  0  0
  148.2614  131.8655  159.1520 C   0  0  1  0  0  0  0  0  0  0  0  0
  149.0227  130.8931  160.0653 C   0  0  0  0  0  0  0  0  0  0  0  0
  148.3350  129.5852  159.7385 C   0  0  0  0  0  0  0  0  0  0  0  0
  146.8971  130.0334  159.5003 C   0  0  0  0  0  0  0  0  0  0  0  0
  147.0078  131.3101  158.8760 O   0  0  0  0  0  0  0  0  0  0  0  0
  148.6958  134.3841  159.1844 C   0  0  0  0  0  0  0  0  0  0  0  0
  149.4004  134.2971  158.1772 O   0  0  0  0  0  0  0  0  0  0  0  0
  149.9133  139.2949  157.7317 C   0  0  0  0  0  0  0  0  0  0  0  0
  151.0508  139.0260  158.6785 C   0  0  0  0  0  0  0  0  0  0  0  0
  150.0342  140.2027  156.6767 N   0  0  0  0  0  0  0  0  0  0  0  0
  151.2114  141.0017  156.3503 C   0  0  0  0  0  0  0  0  0  0  0  0
  151.5467  141.9922  157.4183 C   0  0  0  0  0  0  0  0  0  0  0  0
  152.0585  141.8728  158.6810 C   0  0  0  0  0  0  0  0  0  0  0  0
  152.1426  143.1916  159.2071 C   0  0  0  0  0  0  0  0  0  0  0  0
  151.6767  144.0187  158.2254 C   0  0  0  0  0  0  0  0  0  0  0  0
  151.3105  143.3032  157.1276 O   0  0  0  0  0  0  0  0  0  0  0  0
  147.6722  140.8777  154.2924 H   0  0  0  0  0  0  0  0  0  0  0  0
  149.4077  140.8823  153.9989 H   0  0  0  0  0  0  0  0  0  0  0  0
  148.6751  142.1361  155.0073 H   0  0  0  0  0  0  0  0  0  0  0  0
  146.9701  139.1715  156.2405 H   0  0  0  0  0  0  0  0  0  0  0  0
  149.8233  136.4831  158.4992 H   0  0  0  0  0  0  0  0  0  0  0  0
  149.7155  137.2828  160.0347 H   0  0  0  0  0  0  0  0  0  0  0  0
  146.9101  132.4900  161.3606 H   0  0  0  0  0  0  0  0  0  0  0  0
  148.7782  132.0144  158.2031 H   0  0  0  0  0  0  0  0  0  0  0  0
  150.0885  130.8947  159.8357 H   0  0  0  0  0  0  0  0  0  0  0  0
  148.8919  131.1427  161.1174 H   0  0  0  0  0  0  0  0  0  0  0  0
  148.7514  129.1623  158.8233 H   0  0  0  0  0  0  0  0  0  0  0  0
  148.4252  128.8426  160.5316 H   0  0  0  0  0  0  0  0  0  0  0  0
  146.3389  129.3341  158.8778 H   0  0  0  0  0  0  0  0  0  0  0  0
  146.3668  130.1366  160.4471 H   0  0  0  0  0  0  0  0  0  0  0  0
  151.0963  137.9716  158.9489 H   0  0  0  0  0  0  0  0  0  0  0  0
  150.9341  139.6050  159.5947 H   0  0  0  0  0  0  0  0  0  0  0  0
  152.0221  139.2646  158.2500 H   0  0  0  0  0  0  0  0  0  0  0  0
  152.0571  140.3330  156.1893 H   0  0  0  0  0  0  0  0  0  0  0  0
  151.0652  141.5050  155.3954 H   0  0  0  0  0  0  0  0  0  0  0  0
  152.3356  140.9489  159.1670 H   0  0  0  0  0  0  0  0  0  0  0  0
  152.4980  143.4964  160.1804 H   0  0  0  0  0  0  0  0  0  0  0  0
  151.5437  145.0874  158.1450 H   0  0  0  0  0  0  0  0  0  0  0  0
  1  2  1  0  0  0  0
  1 31  1  0  0  0  0
  1 32  1  0  0  0  0
  1 33  1  0  0  0  0
  2 24  1  0  0  0  0
  2  3  2  0  0  0  0
  3  4  1  0  0  0  0
  3 34  1  0  0  0  0
  4  5  1  0  0  0  0
  4 22  2  0  0  0  0
  5  6  2  0  0  0  0
  5  7  1  0  0  0  0
  7  8  1  0  0  0  0
  7 35  1  0  0  0  0
  7 36  1  0  0  0  0
  8 20  1  0  0  0  0
  8  9  1  0  0  0  0
  9 10  2  0  0  0  0
  9 11  1  0  0  0  0
 11 12  1  0  0  0  0
 11 13  2  0  0  0  0
 13 14  1  0  0  0  0
 13 37  1  0  0  0  0
 14 15  1  0  0  0  0
 14 20  1  0  0  0  0
 15 19  1  0  0  0  0
 15 16  1  0  0  0  0
 15 38  1  0  0  0  0
 16 17  1  0  0  0  0
 16 39  1  0  0  0  0
 16 40  1  0  0  0  0
 17 18  1  0  0  0  0
 17 41  1  0  0  0  0
 17 42  1  0  0  0  0
 18 19  1  0  0  0  0
 18 43  1  0  0  0  0
 18 44  1  0  0  0  0
 20 21  2  0  0  0  0
 22 23  1  0  0  0  0
 22 24  1  0  0  0  0
 23 45  1  0  0  0  0
 23 46  1  0  0  0  0
 23 47  1  0  0  0  0
 24 25  1  0  0  0  0
 25 26  1  0  0  0  0
 25 48  1  0  0  0  0
 25 49  1  0  0  0  0
 26 30  1  0  0  0  0
 26 27  2  0  0  0  0
 27 28  1  0  0  0  0
 27 50  1  0  0  0  0
 28 29  2  0  0  0  0
 28 51  1  0  0  0  0
 29 30  1  0  0  0  0
 29 52  1  0  0  0  0
M  END
> <s_m_source_file>
AV-unprocessed.smi

> <i_m_source_file_index>
138

> <i_lp_mmshare_version>
43012

> <i_f3d_flags>
0

> <s_epik_input>
bzFbY0hdW2NIXVtjSF1jMVtDSDJdbjJjKFtDSDNdKWMoW2NIXWMyW0NIM10pQyg9TylbQ0gyXW4zYyg9TyljKEYpW2NIXW4oYzM9TylbQ0BASF00W0NIMl1bQ0gyXVtDSDJdTzQ=

> <s_epik_cmdline>
J2VwaWtfcHl0aG9uJywgJy1waCcsICc3LjAnLCAnLXRuJywgJzgnLCAnLW1hJywgJzIwMCcsICctbWV0YWxfYmluZGluZycsICctaW1hZScsICc8aW5maWxlLm1hZT4nLCAnLW9tYWUnLCAnPG91dGZpbGUubWFlPic=

> <r_lp_tautomer_probability>
1

> <r_epik_Ionization_Penalty>
5.03107e-09

> <r_epik_Ionization_Penalty_Charging>
5.01743e-09

> <r_epik_Ionization_Penalty_Neutral>
1.36377e-11

> <r_epik_State_Penalty>
-0

> <r_epik_Charging_Adjusted_Penalty>
5.01743e-09

> <i_epik_Tot_Q>
0

> <i_epik_Tot_abs_Q>
0

> <r_epik_Metal_State_Penalty>
-0

> <b_epik_Metal_Only>
0

> <s_epik_Chemistry_Notes>
This compound contains an acetal/aminal-like group ( X-CH(R)-Y where X, Y are N, S, or O) that may be acid/base labile, releasing an aldehyde.

> <s_lp_Force_Field>
OPLS_2005

> <r_lp_Energy>
34.2081

> <b_lp_Chiralities_Consistent>
1

> <s_lp_Variant>
AV-unprocessed.smi:138-2

> <Gold.Version>
5.8.1

> <Gold.Id.Protein>
6NUR|6NUR_protein|mol2

> <Gold.PLP.Fitness>
47.4390

> <Gold.PLP.PLP>
-41.4193

> <Gold.PLP.part.hbond>
-4.0000

> <Gold.PLP.part.metal>
0.0000

> <Gold.PLP.part.buried>
-3.0075

> <Gold.PLP.part.nonpolar>
-34.9706

> <Gold.PLP.part.repulsive>
0.3143

> <Gold.PLP.ligand.clash>
0.0000

> <Gold.PLP.ligand.torsion>
0.9308

> <Gold.PLP.Chemscore.Hbond>
2.5600

> <Gold.PLP.Chemscore.CHOScore>
0.0000

> <Gold.PLP.Chemscore.Metal>
0.0000

> <Gold.Chemscore.Hbonds>
donor molecule, donor type, donor heavy atom, donor atom, acceptor molecule, acceptor atom, score
      P1  H  6896  6909       L1    21  0.30
      P1  H  6931  6943       L1    10  1.00
      P1  H  6934  6947       L1    10  0.34

> <Gold.PLP.Chemscore.Internal.Correction>
0.2012

> <Gold.Rescore>
     Score         DG    S(hbond)    S(metal)    S(lipo)     H(rot)  DE(clash)    DE(int)     intcor
     13.20     -17.45       1.82        0.00      94.02       2.00       0.11       4.15       ----

> <Gold.Chemscore.Fitness>
13.1962

> <Gold.Chemscore.DG>
-17.4486

> <Gold.Chemscore.ZeroCoef>
-5.4800

> <Gold.Chemscore.Hbond>
1.8197

> <Gold.Chemscore.Metal>
0.0000

> <Gold.Chemscore.Lipo>
94.0177

> <Gold.Chemscore.Internal_Hbond>
0.0000

> <Gold.Chemscore.DEClash>
0.1069

> <Gold.Chemscore.DEInternal>
4.1456

> <Gold.Chemscore.Rot>
1.9958

> <Gold.Chemscore.Internal.Correction>
   9.000000E+99

> <Gold.Chemscore.Hbonds>
donor molecule, donor type, donor heavy atom, donor atom, acceptor molecule, acceptor atom, score
      P1  H  6931  6943       L1    10  0.95
      P1  H  6934  6947       L1    10  0.33

> <Gold.Chemscore.Hbond.Weighted>
-6.0777

> <Gold.Chemscore.Metal.Weighted>
-0.0000

> <Gold.Chemscore.Lipo.Weighted>
-11.0001

> <Gold.Chemscore.Internal_Hbond.Weighted>
0.0000

> <Gold.Chemscore.DEClash.Weighted>
0.1069

> <Gold.Chemscore.DEInternal.Weighted>
4.1456

> <Gold.Chemscore.Rot.Weighted>
5.1092

> <Gold.Chemscore.Internal.Correction.Weighted>
   9.000000E+99

> <Gold.Protein.RotatedTorsions>
[ 6907 6896 6895 6894 ] final    8.10 input  -60.11 | X-H torsion
[ 7974 7965 7964 7962 ] final  153.28 input  175.53 | X-H torsion
[ 8008 7997 7996 7995 ] final  169.29 input   59.86 | X-H torsion
[ 10167 10162 10161 10158 ] final  -40.65 input  -65.29 | X-H torsion
[ 10718 10713 10712 10709 ] final  139.42 input   66.30 | X-H torsion
[ 10763 10752 10751 10750 ] final   35.50 input  -60.55 | X-H torsion
[ 11005 11000 10999 10996 ] final   73.74 input  -57.11 | X-H torsion

> <Gold.Protein.ActiveResidues>
 VAL166  LYS551  ARG553  GLY616  TRP617  ASP618  TYR619  PRO620  LYS621  CYS622 
 ASP623  PHE694  ASN695  SER759  ASP760  ASP761  ALA762  ILE779  LEU786  VAL792 
 PHE793  MET794  SER795  GLU796  ALA797  LYS798  CYS799  TRP800  GLU811  SER814 

> <Gold.Protein.RotatedAtoms>
  151.7006  135.0931  160.0249 H   0  0  0  0  0  0  0  0  0  0  0  0  # atno 6907 bound_to 6896
  152.3723  133.6431  159.6105 H   0  0  0  0  0  0  0  0  0  0  0  0  # atno 6908 bound_to 6896
  150.7682  133.9167  159.3427 H   0  0  0  0  0  0  0  0  0  0  0  0  # atno 6909 bound_to 6896
  144.8165  139.6779  143.6119 H   0  0  0  0  0  0  0  0  0  0  0  0  # atno 7974 bound_to 7965
  156.1471  140.1568  156.8830 H   0  0  0  0  0  0  0  0  0  0  0  0  # atno 8008 bound_to 7997
  154.5037  140.0818  156.7889 H   0  0  0  0  0  0  0  0  0  0  0  0  # atno 8009 bound_to 7997
  155.3968  140.3412  155.4257 H   0  0  0  0  0  0  0  0  0  0  0  0  # atno 8010 bound_to 7997
  140.7028  143.3141  151.2954 H   0  0  0  0  0  0  0  0  0  0  0  0  # atno 10167 bound_to 10162
  157.4145  131.1032  151.0419 H   0  0  0  0  0  0  0  0  0  0  0  0  # atno 10718 bound_to 10713
  153.0116  135.6331  154.1837 H   0  0  0  0  0  0  0  0  0  0  0  0  # atno 10763 bound_to 10752
  154.1579  135.2825  155.3119 H   0  0  0  0  0  0  0  0  0  0  0  0  # atno 10764 bound_to 10752
  154.6004  135.5589  153.7429 H   0  0  0  0  0  0  0  0  0  0  0  0  # atno 10765 bound_to 10752
  139.9425  134.7373  156.1063 H   0  0  0  0  0  0  0  0  0  0  0  0  # atno 11005 bound_to 11000
  146.2469  139.6116  142.9454 LP  0  0  0  0  0  0  0  0  0  0  0  0  # atno 17320 bound_to 7965
  145.5202  141.0432  143.2440 LP  0  0  0  0  0  0  0  0  0  0  0  0  # atno 17321 bound_to 7965
  139.6573  144.0252  152.2669 LP  0  0  0  0  0  0  0  0  0  0  0  0  # atno 17342 bound_to 10162
  139.9808  144.6429  150.7902 LP  0  0  0  0  0  0  0  0  0  0  0  0  # atno 17343 bound_to 10162
  157.1371  130.6127  149.5545 LP  0  0  0  0  0  0  0  0  0  0  0  0  # atno 17370 bound_to 10713
  155.9861  130.4894  150.7062 LP  0  0  0  0  0  0  0  0  0  0  0  0  # atno 17371 bound_to 10713
  141.1064  133.6658  156.2875 LP  0  0  0  0  0  0  0  0  0  0  0  0  # atno 17394 bound_to 11000
  140.5916  134.5644  157.5500 LP  0  0  0  0  0  0  0  0  0  0  0  0  # atno 17395 bound_to 11000

$$$$
