AV-unprocessed.smi:310|AV-procd|sdf|2295|dock4
  -GOLD-   2262022193D 1   1.00000     0.00000
 Structure written by MMmdl.
 41 43  0  0  0  0  0  0  0  0  1 V2000
  149.5235  130.1439  155.0712 C   0  0  0  0  0  0  0  0  0  0  0  0
  149.3483  131.6229  155.1272 C   0  0  0  0  0  0  0  0  0  0  0  0
  149.7018  132.6350  154.2798 C   0  0  0  0  0  0  0  0  0  0  0  0
  149.2277  133.7940  154.9501 C   0  0  0  0  0  0  0  0  0  0  0  0
  149.4013  135.0834  154.3854 N   0  0  0  0  0  0  0  0  0  0  0  0
  150.1176  136.1065  154.8822 C   0  0  0  0  0  0  0  0  0  0  0  0
  150.7602  136.0784  155.9321 O   0  0  0  0  0  0  0  0  0  0  0  0
  150.0483  137.1824  154.0843 N   0  0  0  0  0  0  0  0  0  0  0  0
  150.7004  138.4636  154.3387 C   0  0  0  0  0  0  0  0  0  0  0  0
  152.1326  138.2210  154.8626 C   0  0  0  0  0  0  0  0  0  0  0  0
  152.7837  139.5384  155.3177 C   0  0  0  0  0  0  0  0  0  0  0  0
  151.9314  140.1549  156.3435 N   0  0  0  0  0  0  0  0  0  0  0  0
  152.2211  140.2622  157.6646 C   0  0  0  0  0  0  0  0  0  0  0  0
  153.2430  139.7763  158.1519 O   0  0  0  0  0  0  0  0  0  0  0  0
  151.2542  141.0279  158.5174 C   0  0  0  0  0  0  0  0  0  0  0  0
  150.9583  142.4730  158.1570 C   0  0  0  0  0  0  0  0  0  0  0  0
  151.8218  142.1577  159.3506 C   0  0  0  0  0  0  0  0  0  0  0  0
  150.6409  140.5692  155.7793 C   0  0  0  0  0  0  0  0  0  0  0  0
  149.8709  139.3130  155.3303 C   0  0  0  0  0  0  0  0  0  0  0  0
  148.6387  133.5148  156.1028 N   0  0  0  0  0  0  0  0  0  0  0  0
  148.7134  132.1219  156.2223 O   0  0  0  0  0  0  0  0  0  0  0  0
  149.9733  129.8397  154.1259 H   0  0  0  0  0  0  0  0  0  0  0  0
  148.5630  129.6371  155.1669 H   0  0  0  0  0  0  0  0  0  0  0  0
  150.1698  129.8009  155.8793 H   0  0  0  0  0  0  0  0  0  0  0  0
  150.2156  132.5557  153.3334 H   0  0  0  0  0  0  0  0  0  0  0  0
  148.9235  135.2460  153.5115 H   0  0  0  0  0  0  0  0  0  0  0  0
  149.4988  137.1137  153.2402 H   0  0  0  0  0  0  0  0  0  0  0  0
  150.7836  139.0158  153.4004 H   0  0  0  0  0  0  0  0  0  0  0  0
  152.1107  137.5238  155.7018 H   0  0  0  0  0  0  0  0  0  0  0  0
  152.7401  137.7536  154.0870 H   0  0  0  0  0  0  0  0  0  0  0  0
  153.8094  139.3673  155.6416 H   0  0  0  0  0  0  0  0  0  0  0  0
  152.8681  140.2187  154.4690 H   0  0  0  0  0  0  0  0  0  0  0  0
  150.4142  140.4695  158.9264 H   0  0  0  0  0  0  0  0  0  0  0  0
  151.4500  142.9198  157.2949 H   0  0  0  0  0  0  0  0  0  0  0  0
  149.9464  142.8283  158.3402 H   0  0  0  0  0  0  0  0  0  0  0  0
  151.3980  142.3002  160.3424 H   0  0  0  0  0  0  0  0  0  0  0  0
  152.8863  142.3724  159.2687 H   0  0  0  0  0  0  0  0  0  0  0  0
  150.0326  141.1406  156.4816 H   0  0  0  0  0  0  0  0  0  0  0  0
  150.8104  141.2309  154.9286 H   0  0  0  0  0  0  0  0  0  0  0  0
  148.9226  139.6030  154.8762 H   0  0  0  0  0  0  0  0  0  0  0  0
  149.6219  138.7162  156.2092 H   0  0  0  0  0  0  0  0  0  0  0  0
  1  2  1  0  0  0  0
  1 22  1  0  0  0  0
  1 23  1  0  0  0  0
  1 24  1  0  0  0  0
  2 21  1  0  0  0  0
  2  3  2  0  0  0  0
  3  4  1  0  0  0  0
  3 25  1  0  0  0  0
  4  5  1  0  0  0  0
  4 20  2  0  0  0  0
  5  6  1  0  0  0  0
  5 26  1  0  0  0  0
  6  7  2  0  0  0  0
  6  8  1  0  0  0  0
  8  9  1  0  0  0  0
  8 27  1  0  0  0  0
  9 19  1  0  0  0  0
  9 10  1  0  0  0  0
  9 28  1  0  0  0  0
 10 11  1  0  0  0  0
 10 29  1  0  0  0  0
 10 30  1  0  0  0  0
 11 12  1  0  0  0  0
 11 31  1  0  0  0  0
 11 32  1  0  0  0  0
 12 13  1  0  0  0  0
 12 18  1  0  0  0  0
 13 14  2  0  0  0  0
 13 15  1  0  0  0  0
 15 17  1  0  0  0  0
 15 16  1  0  0  0  0
 15 33  1  0  0  0  0
 16 17  1  0  0  0  0
 16 34  1  0  0  0  0
 16 35  1  0  0  0  0
 17 36  1  0  0  0  0
 17 37  1  0  0  0  0
 18 19  1  0  0  0  0
 18 38  1  0  0  0  0
 18 39  1  0  0  0  0
 19 40  1  0  0  0  0
 19 41  1  0  0  0  0
 20 21  1  0  0  0  0
M  END
> <s_m_source_file>
AV-unprocessed.smi

> <i_m_source_file_index>
310

> <i_lp_mmshare_version>
43012

> <i_f3d_flags>
0

> <s_epik_input>
W0NIM11jMVtjSF1jKG5vMSlbTkhdQyg9TylbTkhdW0NIXTJbQ0gyXVtDSDJdTihbQ0gyXVtDSDJdMilDKD1PKVtDSF0zW0NIMl1bQ0gyXTM=

> <s_epik_cmdline>
J2VwaWtfcHl0aG9uJywgJy1waCcsICc3LjAnLCAnLXRuJywgJzgnLCAnLW1hJywgJzIwMCcsICctbWV0YWxfYmluZGluZycsICctaW1hZScsICc8aW5maWxlLm1hZT4nLCAnLW9tYWUnLCAnPG91dGZpbGUubWFlPic=

> <r_lp_tautomer_probability>
1

> <r_epik_Ionization_Penalty>
2.91812e-05

> <r_epik_Ionization_Penalty_Charging>
0

> <r_epik_Ionization_Penalty_Neutral>
2.91812e-05

> <r_epik_State_Penalty>
-0

> <r_epik_Charging_Adjusted_Penalty>
0

> <i_epik_Tot_Q>
0

> <i_epik_Tot_abs_Q>
0

> <r_epik_Metal_State_Penalty>
0.00922567

> <b_epik_Metal_Only>
0

> <s_lp_Force_Field>
OPLS_2005

> <r_lp_Energy>
27.9216

> <b_lp_Chiralities_Consistent>
1

> <s_lp_Variant>
AV-unprocessed.smi:310-1

> <Gold.Version>
5.8.1

> <Gold.Id.Protein>
6NUR|6NUR_protein|mol2

> <Gold.PLP.Fitness>
40.1707

> <Gold.PLP.PLP>
-33.4080

> <Gold.PLP.part.hbond>
-3.8068

> <Gold.PLP.part.metal>
0.0000

> <Gold.PLP.part.buried>
0.3695

> <Gold.PLP.part.nonpolar>
-29.9925

> <Gold.PLP.part.repulsive>
0.1155

> <Gold.PLP.ligand.clash>
0.0000

> <Gold.PLP.ligand.torsion>
0.9394

> <Gold.PLP.Chemscore.Hbond>
2.8400

> <Gold.PLP.Chemscore.CHOScore>
0.0000

> <Gold.PLP.Chemscore.Metal>
0.0000

> <Gold.Chemscore.Hbonds>
donor molecule, donor type, donor heavy atom, donor atom, acceptor molecule, acceptor atom, score
      L1  H     5    26       P1  7948  0.90
      L1  H     8    27       P1  7948  1.00
      P1  H  7997  8010       L1    14  1.00

> <Gold.PLP.Chemscore.Internal.Correction>
0.1214

> <Gold.Rescore>
     Score         DG    S(hbond)    S(metal)    S(lipo)     H(rot)  DE(clash)    DE(int)     intcor
     16.40     -19.05       2.44        0.00      73.77       1.26       0.10       2.55       ----

> <Gold.Chemscore.Fitness>
16.3981

> <Gold.Chemscore.DG>
-19.0452

> <Gold.Chemscore.ZeroCoef>
-5.4800

> <Gold.Chemscore.Hbond>
2.4443

> <Gold.Chemscore.Metal>
0.0000

> <Gold.Chemscore.Lipo>
73.7670

> <Gold.Chemscore.Internal_Hbond>
0.0000

> <Gold.Chemscore.DEClash>
0.1019

> <Gold.Chemscore.DEInternal>
2.5452

> <Gold.Chemscore.Rot>
1.2615

> <Gold.Chemscore.Internal.Correction>
   9.000000E+99

> <Gold.Chemscore.Hbonds>
donor molecule, donor type, donor heavy atom, donor atom, acceptor molecule, acceptor atom, score
      L1  H     5    26       P1  7948  0.53
      L1  H     8    27       P1  7948  0.81
      P1  H  7997  8010       L1    14  0.81

> <Gold.Chemscore.Hbond.Weighted>
-8.1640

> <Gold.Chemscore.Metal.Weighted>
-0.0000

> <Gold.Chemscore.Lipo.Weighted>
-8.6307

> <Gold.Chemscore.Internal_Hbond.Weighted>
0.0000

> <Gold.Chemscore.DEClash.Weighted>
0.1019

> <Gold.Chemscore.DEInternal.Weighted>
2.5452

> <Gold.Chemscore.Rot.Weighted>
3.2295

> <Gold.Chemscore.Internal.Correction.Weighted>
   9.000000E+99

> <Gold.Protein.RotatedTorsions>
[ 6907 6896 6895 6894 ] final -179.99 input  -60.11 | X-H torsion
[ 7974 7965 7964 7962 ] final  147.76 input  175.53 | X-H torsion
[ 8008 7997 7996 7995 ] final   26.53 input   59.86 | X-H torsion
[ 10167 10162 10161 10158 ] final -107.02 input  -65.29 | X-H torsion
[ 10718 10713 10712 10709 ] final    6.19 input   66.30 | X-H torsion
[ 10763 10752 10751 10750 ] final  135.26 input  -60.55 | X-H torsion
[ 11005 11000 10999 10996 ] final   19.41 input  -57.11 | X-H torsion

> <Gold.Protein.ActiveResidues>
 VAL166  LYS551  ARG553  GLY616  TRP617  ASP618  TYR619  PRO620  LYS621  CYS622 
 ASP623  PHE694  ASN695  SER759  ASP760  ASP761  ALA762  ILE779  LEU786  VAL792 
 PHE793  MET794  SER795  GLU796  ALA797  LYS798  CYS799  TRP800  GLU811  SER814 

> <Gold.Protein.RotatedAtoms>
  151.6623  133.3316  159.3176 H   0  0  0  0  0  0  0  0  0  0  0  0  # atno 6907 bound_to 6896
  150.7907  134.6933  159.6518 H   0  0  0  0  0  0  0  0  0  0  0  0  # atno 6908 bound_to 6896
  152.3986  134.6327  160.0131 H   0  0  0  0  0  0  0  0  0  0  0  0  # atno 6909 bound_to 6896
  144.8566  139.6069  143.5949 H   0  0  0  0  0  0  0  0  0  0  0  0  # atno 7974 bound_to 7965
  155.0287  140.3156  155.4766 H   0  0  0  0  0  0  0  0  0  0  0  0  # atno 8008 bound_to 7997
  156.2878  140.2184  156.5350 H   0  0  0  0  0  0  0  0  0  0  0  0  # atno 8009 bound_to 7997
  154.7389  140.0475  157.0781 H   0  0  0  0  0  0  0  0  0  0  0  0  # atno 8010 bound_to 7997
  140.1815  143.3963  152.1277 H   0  0  0  0  0  0  0  0  0  0  0  0  # atno 10167 bound_to 10162
  156.9185  130.5782  149.5647 H   0  0  0  0  0  0  0  0  0  0  0  0  # atno 10718 bound_to 10713
  153.8371  135.3096  155.3423 H   0  0  0  0  0  0  0  0  0  0  0  0  # atno 10763 bound_to 10752
  154.7948  135.4761  154.0139 H   0  0  0  0  0  0  0  0  0  0  0  0  # atno 10764 bound_to 10752
  153.1598  135.6859  153.8850 H   0  0  0  0  0  0  0  0  0  0  0  0  # atno 10765 bound_to 10752
  140.4140  134.1588  155.7669 H   0  0  0  0  0  0  0  0  0  0  0  0  # atno 11005 bound_to 11000
  146.2828  139.6923  142.9217 LP  0  0  0  0  0  0  0  0  0  0  0  0  # atno 17320 bound_to 7965
  145.4394  141.0421  143.2866 LP  0  0  0  0  0  0  0  0  0  0  0  0  # atno 17321 bound_to 7965
  139.5294  144.7141  151.5111 LP  0  0  0  0  0  0  0  0  0  0  0  0  # atno 17342 bound_to 10162
  140.6516  143.8684  150.6792 LP  0  0  0  0  0  0  0  0  0  0  0  0  # atno 17343 bound_to 10162
  156.0502  130.5573  150.8972 LP  0  0  0  0  0  0  0  0  0  0  0  0  # atno 17370 bound_to 10713
  157.5923  131.0944  150.9099 LP  0  0  0  0  0  0  0  0  0  0  0  0  # atno 17371 bound_to 10713
  141.1810  133.8414  157.1258 LP  0  0  0  0  0  0  0  0  0  0  0  0  # atno 17394 bound_to 11000
  140.0247  134.9929  157.0662 LP  0  0  0  0  0  0  0  0  0  0  0  0  # atno 17395 bound_to 11000

$$$$
