AV-unprocessed.smi:1006|AV-procd|sdf|4391|dock6
  -GOLD-   22720 2323D 1   1.00000     0.00000
 Structure written by MMmdl.
 45 47  0  0  0  0  0  0  0  0  1 V2000
  155.3821  143.9364  165.6261 C   0  0  0  0  0  0  0  0  0  0  0  0
  155.5130  142.6719  166.4486 C   0  0  0  0  0  0  0  0  0  0  0  0
  155.5958  142.7140  167.8568 C   0  0  0  0  0  0  0  0  0  0  0  0
  155.7126  141.4697  168.5115 C   0  0  0  0  0  0  0  0  0  0  0  0
  155.8013  141.4003  169.8995 N   0  0  0  0  0  0  0  0  0  0  0  0
  155.7433  140.3049  167.8285 N   0  0  0  0  0  0  0  0  0  0  0  0
  155.6561  140.3898  166.4989 C   0  0  0  0  0  0  0  0  0  0  0  0
  155.7073  138.8291  165.6298 S   0  0  0  0  0  0  0  0  0  0  0  0
  156.9815  139.1288  164.3662 C   0  0  0  0  0  0  0  0  0  0  0  0
  156.4302  139.8433  163.1186 C   0  0  1  0  0  0  0  0  0  0  0  0
  157.5071  140.3172  162.3359 O   0  0  0  0  0  0  0  0  0  0  0  0
  155.5607  138.9357  162.2245 C   0  0  0  0  0  0  0  0  0  0  0  0
  154.8533  139.6729  161.1926 N   0  0  0  0  0  0  0  0  0  0  0  0
  154.7293  139.3330  159.8955 C   0  0  0  0  0  0  0  0  0  0  0  0
  154.0447  140.1613  159.1119 N   0  0  0  0  0  0  0  0  0  0  0  0
  153.6825  141.1555  160.0047 C   0  0  0  0  0  0  0  0  0  0  0  0
  152.9440  142.3426  159.8058 C   0  0  0  0  0  0  0  0  0  0  0  0
  152.6962  143.2306  160.8768 C   0  0  0  0  0  0  0  0  0  0  0  0
  151.8992  144.4969  160.6171 C   0  0  0  0  0  0  0  0  0  0  0  0
  153.1904  142.9361  162.1728 C   0  0  0  0  0  0  0  0  0  0  0  0
  152.9417  143.8770  163.3382 C   0  0  0  0  0  0  0  0  0  0  0  0
  153.9261  141.7526  162.3899 C   0  0  0  0  0  0  0  0  0  0  0  0
  154.1683  140.8778  161.3156 C   0  0  0  0  0  0  0  0  0  0  0  0
  155.5410  141.5045  165.7700 N   0  0  0  0  0  0  0  0  0  0  0  0
  154.3350  144.2290  165.5501 H   0  0  0  0  0  0  0  0  0  0  0  0
  155.7725  143.7905  164.6181 H   0  0  0  0  0  0  0  0  0  0  0  0
  155.9353  144.7548  166.0872 H   0  0  0  0  0  0  0  0  0  0  0  0
  155.5707  143.6470  168.4008 H   0  0  0  0  0  0  0  0  0  0  0  0
  155.7849  142.2307  170.4736 H   0  0  0  0  0  0  0  0  0  0  0  0
  155.8864  140.5140  170.3757 H   0  0  0  0  0  0  0  0  0  0  0  0
  157.7927  139.7115  164.8047 H   0  0  0  0  0  0  0  0  0  0  0  0
  157.3917  138.1593  164.0849 H   0  0  0  0  0  0  0  0  0  0  0  0
  155.8396  140.7045  163.4335 H   0  0  0  0  0  0  0  0  0  0  0  0
  157.9252  139.5760  161.9243 H   0  0  0  0  0  0  0  0  0  0  0  0
  156.1782  138.1765  161.7424 H   0  0  0  0  0  0  0  0  0  0  0  0
  154.8261  138.4004  162.8273 H   0  0  0  0  0  0  0  0  0  0  0  0
  155.1710  138.4282  159.5039 H   0  0  0  0  0  0  0  0  0  0  0  0
  152.5704  142.5680  158.8178 H   0  0  0  0  0  0  0  0  0  0  0  0
  151.0196  144.5346  161.2605 H   0  0  0  0  0  0  0  0  0  0  0  0
  151.5578  144.5477  159.5826 H   0  0  0  0  0  0  0  0  0  0  0  0
  152.5103  145.3782  160.8125 H   0  0  0  0  0  0  0  0  0  0  0  0
  153.4478  143.5338  164.2409 H   0  0  0  0  0  0  0  0  0  0  0  0
  151.8751  143.9414  163.5541 H   0  0  0  0  0  0  0  0  0  0  0  0
  153.3105  144.8771  163.1099 H   0  0  0  0  0  0  0  0  0  0  0  0
  154.3107  141.5176  163.3712 H   0  0  0  0  0  0  0  0  0  0  0  0
  1  2  1  0  0  0  0
  1 25  1  0  0  0  0
  1 26  1  0  0  0  0
  1 27  1  0  0  0  0
  2 24  1  0  0  0  0
  2  3  2  0  0  0  0
  3  4  1  0  0  0  0
  3 28  1  0  0  0  0
  4  5  1  0  0  0  0
  4  6  2  0  0  0  0
  5 29  1  0  0  0  0
  5 30  1  0  0  0  0
  6  7  1  0  0  0  0
  7  8  1  0  0  0  0
  7 24  2  0  0  0  0
  8  9  1  0  0  0  0
  9 10  1  0  0  0  0
  9 31  1  0  0  0  0
  9 32  1  0  0  0  0
 10 11  1  0  0  0  0
 10 12  1  0  0  0  0
 10 33  1  0  0  0  0
 11 34  1  0  0  0  0
 12 13  1  0  0  0  0
 12 35  1  0  0  0  0
 12 36  1  0  0  0  0
 13 23  1  0  0  0  0
 13 14  1  0  0  0  0
 14 15  2  0  0  0  0
 14 37  1  0  0  0  0
 15 16  1  0  0  0  0
 16 23  2  0  0  0  0
 16 17  1  0  0  0  0
 17 18  2  0  0  0  0
 17 38  1  0  0  0  0
 18 19  1  0  0  0  0
 18 20  1  0  0  0  0
 19 39  1  0  0  0  0
 19 40  1  0  0  0  0
 19 41  1  0  0  0  0
 20 21  1  0  0  0  0
 20 22  2  0  0  0  0
 21 42  1  0  0  0  0
 21 43  1  0  0  0  0
 21 44  1  0  0  0  0
 22 23  1  0  0  0  0
 22 45  1  0  0  0  0
M  END
> <s_m_source_file>
AV-unprocessed.smi

> <i_m_source_file_index>
1006

> <i_lp_mmshare_version>
43012

> <i_f3d_flags>
0

> <s_epik_input>
W0NIM11jMVtjSF1jKFtOSDJdKW5jKG4xKVNbQ0gyXVtDQEhdKFtPSF0pW0NIMl1uKFtjSF1uMiljKGMyMylbY0hdYyhbQ0gzXSljKFtjSF0zKVtDSDNd

> <s_epik_cmdline>
J2VwaWtfcHl0aG9uJywgJy1waCcsICc3LjAnLCAnLXRuJywgJzgnLCAnLW1hJywgJzIwMCcsICctbWV0YWxfYmluZGluZycsICctaW1hZScsICc8aW5maWxlLm1hZT4nLCAnLW9tYWUnLCAnPG91dGZpbGUubWFlPic=

> <r_lp_tautomer_probability>
1

> <r_epik_Ionization_Penalty>
0.490208

> <r_epik_Ionization_Penalty_Charging>
0

> <r_epik_Ionization_Penalty_Neutral>
0.490208

> <r_epik_State_Penalty>
0.473203

> <r_epik_Charging_Adjusted_Penalty>
0.473203

> <i_epik_Tot_Q>
0

> <i_epik_Tot_abs_Q>
0

> <r_epik_Metal_State_Penalty>
0.354099

> <b_epik_Metal_Only>
0

> <s_lp_Force_Field>
OPLS_2005

> <r_lp_Energy>
2.6746

> <b_lp_Chiralities_Consistent>
1

> <s_lp_Variant>
AV-unprocessed.smi:1006-2

> <Gold.Version>
5.8.1

> <Gold.Id.Protein>
6NUR|6NUR_protein|mol2

> <Gold.PLP.Fitness>
52.6504

> <Gold.PLP.PLP>
-50.8811

> <Gold.PLP.part.hbond>
-2.3654

> <Gold.PLP.part.metal>
0.0000

> <Gold.PLP.part.buried>
-4.7783

> <Gold.PLP.part.nonpolar>
-43.4569

> <Gold.PLP.part.repulsive>
0.1637

> <Gold.PLP.ligand.clash>
0.0000

> <Gold.PLP.ligand.torsion>
0.5540

> <Gold.PLP.Chemscore.Hbond>
0.9440

> <Gold.PLP.Chemscore.CHOScore>
0.0000

> <Gold.PLP.Chemscore.Metal>
0.0000

> <Gold.Chemscore.Hbonds>
donor molecule, donor type, donor heavy atom, donor atom, acceptor molecule, acceptor atom, score
      P1  H  7997  8009       L1    15  0.92

> <Gold.PLP.Chemscore.Internal.Correction>
0.0453

> <Gold.Rescore>
     Score         DG    S(hbond)    S(metal)    S(lipo)     H(rot)  DE(clash)    DE(int)     intcor
     14.48     -16.61       0.92        0.00     130.44       2.82       1.56       0.57       ----

> <Gold.Chemscore.Fitness>
14.4830

> <Gold.Chemscore.DG>
-16.6081

> <Gold.Chemscore.ZeroCoef>
-5.4800

> <Gold.Chemscore.Hbond>
0.9245

> <Gold.Chemscore.Metal>
0.0000

> <Gold.Chemscore.Lipo>
130.4412

> <Gold.Chemscore.Internal_Hbond>
0.0000

> <Gold.Chemscore.DEClash>
1.5579

> <Gold.Chemscore.DEInternal>
0.5672

> <Gold.Chemscore.Rot>
2.8209

> <Gold.Chemscore.Internal.Correction>
   9.000000E+99

> <Gold.Chemscore.Hbonds>
donor molecule, donor type, donor heavy atom, donor atom, acceptor molecule, acceptor atom, score
      P1  H  7997  8009       L1    15  0.37

> <Gold.Chemscore.Hbond.Weighted>
-3.0880

> <Gold.Chemscore.Metal.Weighted>
-0.0000

> <Gold.Chemscore.Lipo.Weighted>
-15.2616

> <Gold.Chemscore.Internal_Hbond.Weighted>
0.0000

> <Gold.Chemscore.DEClash.Weighted>
1.5579

> <Gold.Chemscore.DEInternal.Weighted>
0.5672

> <Gold.Chemscore.Rot.Weighted>
7.2215

> <Gold.Chemscore.Internal.Correction.Weighted>
   9.000000E+99

> <Gold.Protein.RotatedTorsions>
[ 6907 6896 6895 6894 ] final -179.55 input  -60.11 | X-H torsion
[ 7974 7965 7964 7962 ] final  -42.61 input  175.53 | X-H torsion
[ 8008 7997 7996 7995 ] final  125.87 input   59.86 | X-H torsion
[ 10167 10162 10161 10158 ] final   31.92 input  -65.29 | X-H torsion
[ 10718 10713 10712 10709 ] final   76.52 input   66.30 | X-H torsion
[ 10763 10752 10751 10750 ] final -142.64 input  -60.55 | X-H torsion
[ 11005 11000 10999 10996 ] final  -27.02 input  -57.11 | X-H torsion

> <Gold.Protein.ActiveResidues>
 VAL166  LYS551  ARG553  GLY616  TRP617  ASP618  TYR619  PRO620  LYS621  CYS622 
 ASP623  PHE694  ASN695  SER759  ASP760  ASP761  ALA762  ILE779  LEU786  VAL792 
 PHE793  MET794  SER795  GLU796  ALA797  LYS798  CYS799  TRP800  GLU811  SER814 

> <Gold.Protein.RotatedAtoms>
  151.6553  133.3319  159.3161 H   0  0  0  0  0  0  0  0  0  0  0  0  # atno 6907 bound_to 6896
  150.7940  134.6990  159.6548 H   0  0  0  0  0  0  0  0  0  0  0  0  # atno 6908 bound_to 6896
  152.4024  134.6267  160.0116 H   0  0  0  0  0  0  0  0  0  0  0  0  # atno 6909 bound_to 6896
  146.0099  140.6976  142.9229 H   0  0  0  0  0  0  0  0  0  0  0  0  # atno 7974 bound_to 7965
  156.2847  140.2706  156.2019 H   0  0  0  0  0  0  0  0  0  0  0  0  # atno 8008 bound_to 7997
  155.0352  140.0386  157.2507 H   0  0  0  0  0  0  0  0  0  0  0  0  # atno 8009 bound_to 7997
  154.7321  140.2708  155.6452 H   0  0  0  0  0  0  0  0  0  0  0  0  # atno 8010 bound_to 7997
  140.4545  144.0998  150.6199 H   0  0  0  0  0  0  0  0  0  0  0  0  # atno 10167 bound_to 10162
  157.6676  130.9778  150.1508 H   0  0  0  0  0  0  0  0  0  0  0  0  # atno 10718 bound_to 10713
  154.8501  135.3490  154.6059 H   0  0  0  0  0  0  0  0  0  0  0  0  # atno 10763 bound_to 10752
  153.6668  135.6987  153.5164 H   0  0  0  0  0  0  0  0  0  0  0  0  # atno 10764 bound_to 10752
  153.2774  135.4274  155.1003 H   0  0  0  0  0  0  0  0  0  0  0  0  # atno 10765 bound_to 10752
  140.9082  133.7478  156.0635 H   0  0  0  0  0  0  0  0  0  0  0  0  # atno 11005 bound_to 11000
  144.6949  140.3381  143.7204 LP  0  0  0  0  0  0  0  0  0  0  0  0  # atno 17320 bound_to 7965
  145.7357  139.1749  143.2404 LP  0  0  0  0  0  0  0  0  0  0  0  0  # atno 17321 bound_to 7965
  140.4167  143.2631  151.9766 LP  0  0  0  0  0  0  0  0  0  0  0  0  # atno 17342 bound_to 10162
  139.4800  144.5867  151.7841 LP  0  0  0  0  0  0  0  0  0  0  0  0  # atno 17343 bound_to 10162
  156.2308  130.3682  149.8447 LP  0  0  0  0  0  0  0  0  0  0  0  0  # atno 17370 bound_to 10713
  156.6274  130.8651  151.3488 LP  0  0  0  0  0  0  0  0  0  0  0  0  # atno 17371 bound_to 10713
  140.8144  134.3362  157.5402 LP  0  0  0  0  0  0  0  0  0  0  0  0  # atno 17394 bound_to 11000
  139.8753  134.9273  156.3421 LP  0  0  0  0  0  0  0  0  0  0  0  0  # atno 17395 bound_to 11000

$$$$
