AV-unprocessed.smi:1116|AV-procd|sdf|4811|dock2
  -GOLD-   22720 3363D 1   1.00000     0.00000
 Structure written by MMmdl.
 35 36  0  0  0  0  0  0  0  0  2 V2000
  152.5882  143.4522  161.5834 C   0  0  0  0  0  0  0  0  0  0  0  0
  152.0041  143.2652  160.2250 C   0  0  0  0  0  0  0  0  0  0  0  0
  151.6169  142.0814  159.7425 N   0  0  0  0  0  0  0  0  0  0  0  0
  151.0985  142.1719  158.4468 C   0  0  0  0  0  0  0  0  0  0  0  0
  150.6156  140.9394  157.7443 C   0  0  0  0  0  0  0  0  0  0  0  0
  151.7455  139.9231  157.5093 C   0  0  0  0  0  0  0  0  0  0  0  0
  151.2781  138.7633  156.7583 N   0  0  0  0  0  0  0  0  0  0  0  0
  151.1918  138.6936  155.4210 C   0  0  0  0  0  0  0  0  0  0  0  0
  151.5095  139.6215  154.6764 O   0  0  0  0  0  0  0  0  0  0  0  0
  150.6506  137.3817  154.8451 C   0  0  0  0  0  0  0  0  0  0  0  0
  149.9186  136.5177  155.8904 C   0  0  0  0  0  0  0  0  0  0  0  0
  149.7866  135.0429  155.4615 C   0  0  2  0  0  0  0  0  0  0  0  0
  148.7346  134.8734  154.4827 N   0  0  0  0  0  0  0  0  0  0  0  0
  147.8188  134.0020  154.9000 C   0  0  0  0  0  0  0  0  0  0  0  0
  146.8521  133.6987  154.2044 O   0  0  0  0  0  0  0  0  0  0  0  0
  148.1285  133.5582  156.1337 N   0  5  0  0  0  0  0  0  0  0  0  0
  149.2756  134.1223  156.5696 C   0  0  0  0  0  0  0  0  0  0  0  0
  149.8792  133.9790  157.6316 O   0  0  0  0  0  0  0  0  0  0  0  0
  151.1040  143.4514  157.9500 C   0  0  0  0  0  0  0  0  0  0  0  0
  151.7569  144.5906  159.0949 S   0  0  0  0  0  0  0  0  0  0  0  0
  152.6426  142.5009  162.1138 H   0  0  0  0  0  0  0  0  0  0  0  0
  151.9714  144.1399  162.1621 H   0  0  0  0  0  0  0  0  0  0  0  0
  153.5934  143.8658  161.5022 H   0  0  0  0  0  0  0  0  0  0  0  0
  149.8199  140.4705  158.3248 H   0  0  0  0  0  0  0  0  0  0  0  0
  150.1642  141.2151  156.7905 H   0  0  0  0  0  0  0  0  0  0  0  0
  152.5810  140.3939  156.9882 H   0  0  0  0  0  0  0  0  0  0  0  0
  152.1346  139.5715  158.4652 H   0  0  0  0  0  0  0  0  0  0  0  0
  150.9976  137.9548  157.2943 H   0  0  0  0  0  0  0  0  0  0  0  0
  149.9778  137.6055  154.0160 H   0  0  0  0  0  0  0  0  0  0  0  0
  151.4879  136.8236  154.4252 H   0  0  0  0  0  0  0  0  0  0  0  0
  150.4659  136.5568  156.8337 H   0  0  0  0  0  0  0  0  0  0  0  0
  148.9317  136.9375  156.0945 H   0  0  0  0  0  0  0  0  0  0  0  0
  150.7291  134.6572  155.0707 H   0  0  0  0  0  0  0  0  0  0  0  0
  148.7217  135.3427  153.5894 H   0  0  0  0  0  0  0  0  0  0  0  0
  150.7651  143.7913  156.9823 H   0  0  0  0  0  0  0  0  0  0  0  0
  1  2  1  0  0  0  0
  1 21  1  0  0  0  0
  1 22  1  0  0  0  0
  1 23  1  0  0  0  0
  2 20  1  0  0  0  0
  2  3  2  0  0  0  0
  3  4  1  0  0  0  0
  4  5  1  0  0  0  0
  4 19  2  0  0  0  0
  5  6  1  0  0  0  0
  5 24  1  0  0  0  0
  5 25  1  0  0  0  0
  6  7  1  0  0  0  0
  6 26  1  0  0  0  0
  6 27  1  0  0  0  0
  7  8  1  0  0  0  0
  7 28  1  0  0  0  0
  8  9  2  0  0  0  0
  8 10  1  0  0  0  0
 10 11  1  0  0  0  0
 10 29  1  0  0  0  0
 10 30  1  0  0  0  0
 11 12  1  0  0  0  0
 11 31  1  0  0  0  0
 11 32  1  0  0  0  0
 12 17  1  0  0  0  0
 12 13  1  0  0  0  0
 12 33  1  0  0  0  0
 13 14  1  0  0  0  0
 13 34  1  0  0  0  0
 14 15  2  0  0  0  0
 14 16  1  0  0  0  0
 16 17  1  0  0  0  0
 17 18  2  0  0  0  0
 19 20  1  0  0  0  0
 19 35  1  0  0  0  0
M  CHG  1  16  -1
M  END
> <s_m_source_file>
AV-unprocessed.smi

> <i_m_source_file_index>
1116

> <i_lp_mmshare_version>
43012

> <i_f3d_flags>
0

> <s_epik_input>
W0NIM11jMW5jKFtjSF1zMSlbQ0gyXVtDSDJdW05IXUMoPU8pW0NIMl1bQ0gyXVtDQEBIXTJbTkhdQyg9TylbTkhdQzI9Tw==

> <s_epik_cmdline>
J2VwaWtfcHl0aG9uJywgJy1waCcsICc3LjAnLCAnLXRuJywgJzgnLCAnLW1hJywgJzIwMCcsICctbWV0YWxfYmluZGluZycsICctaW1hZScsICc8aW5maWxlLm1hZT4nLCAnLW9tYWUnLCAnPG91dGZpbGUubWFlPic=

> <r_lp_tautomer_probability>
1

> <r_epik_Ionization_Penalty>
2.5713

> <r_epik_Ionization_Penalty_Charging>
2.57023

> <r_epik_Ionization_Penalty_Neutral>
0.00106405

> <r_epik_State_Penalty>
2.56828

> <r_epik_Charging_Adjusted_Penalty>
5.13851

> <i_epik_Tot_Q>
-1

> <i_epik_Tot_abs_Q>
1

> <r_epik_Metal_State_Penalty>
0.44525

> <b_epik_Metal_Only>
1

> <s_lp_Force_Field>
OPLS_2005

> <r_lp_Energy>
1.68608

> <b_lp_Chiralities_Consistent>
1

> <s_lp_Variant>
AV-unprocessed.smi:1116-5

> <Gold.Version>
5.8.1

> <Gold.Id.Protein>
6NUR|6NUR_protein|mol2

> <Gold.PLP.Fitness>
45.7931

> <Gold.PLP.PLP>
-35.8734

> <Gold.PLP.part.hbond>
-2.9023

> <Gold.PLP.part.metal>
0.0000

> <Gold.PLP.part.buried>
-5.8785

> <Gold.PLP.part.nonpolar>
-27.1216

> <Gold.PLP.part.repulsive>
0.2470

> <Gold.PLP.ligand.clash>
0.0000

> <Gold.PLP.ligand.torsion>
0.5925

> <Gold.PLP.Chemscore.Hbond>
2.6800

> <Gold.PLP.Chemscore.CHOScore>
1.0000

> <Gold.PLP.Chemscore.Metal>
0.0000

> <Gold.Chemscore.Hbonds>
donor molecule, donor type, donor heavy atom, donor atom, acceptor molecule, acceptor atom, score
      L1  H    13    34       P1  7948  1.00
      P1  H  6896  6908       L1    18  1.00
      P1  H  7989  7998       L1     9  1.00
      L1  C    19    35       P1  8028  1.00

> <Gold.PLP.Chemscore.Internal.Correction>
0.0647

> <Gold.Rescore>
     Score         DG    S(hbond)    S(metal)    S(lipo)     H(rot)  DE(clash)    DE(int)     intcor
     17.05     -17.70       2.86        0.00      83.51       2.77       0.01       0.64       ----

> <Gold.Chemscore.Fitness>
17.0488

> <Gold.Chemscore.DG>
-17.7048

> <Gold.Chemscore.ZeroCoef>
-5.4800

> <Gold.Chemscore.Hbond>
2.8571

> <Gold.Chemscore.Metal>
0.0000

> <Gold.Chemscore.Lipo>
83.5116

> <Gold.Chemscore.Internal_Hbond>
0.0000

> <Gold.Chemscore.DEClash>
0.0110

> <Gold.Chemscore.DEInternal>
0.6449

> <Gold.Chemscore.Rot>
2.7691

> <Gold.Chemscore.Internal.Correction>
   9.000000E+99

> <Gold.Chemscore.Hbonds>
donor molecule, donor type, donor heavy atom, donor atom, acceptor molecule, acceptor atom, score
      L1  H    13    34       P1  7948  0.88
      P1  H  6896  6908       L1    18  0.95
      P1  H  7989  7998       L1     9  1.00

> <Gold.Chemscore.Hbond.Weighted>
-9.5428

> <Gold.Chemscore.Metal.Weighted>
-0.0000

> <Gold.Chemscore.Lipo.Weighted>
-9.7709

> <Gold.Chemscore.Internal_Hbond.Weighted>
0.0000

> <Gold.Chemscore.DEClash.Weighted>
0.0110

> <Gold.Chemscore.DEInternal.Weighted>
0.6449

> <Gold.Chemscore.Rot.Weighted>
7.0889

> <Gold.Chemscore.Internal.Correction.Weighted>
   9.000000E+99

> <Gold.Protein.RotatedTorsions>
[ 6907 6896 6895 6894 ] final  118.58 input  -60.11 | X-H torsion
[ 7974 7965 7964 7962 ] final   -5.14 input  175.53 | X-H torsion
[ 8008 7997 7996 7995 ] final   11.21 input   59.86 | X-H torsion
[ 10167 10162 10161 10158 ] final  128.72 input  -65.29 | X-H torsion
[ 10718 10713 10712 10709 ] final   90.35 input   66.30 | X-H torsion
[ 10763 10752 10751 10750 ] final  -81.18 input  -60.55 | X-H torsion
[ 11005 11000 10999 10996 ] final  -81.45 input  -57.11 | X-H torsion

> <Gold.Protein.ActiveResidues>
 VAL166  LYS551  ARG553  GLY616  TRP617  ASP618  TYR619  PRO620  LYS621  CYS622 
 ASP623  PHE694  ASN695  SER759  ASP760  ASP761  ALA762  ILE779  LEU786  VAL792 
 PHE793  MET794  SER795  GLU796  ALA797  LYS798  CYS799  TRP800  GLU811  SER814 

> <Gold.Protein.RotatedAtoms>
  152.4533  133.7672  159.6778 H   0  0  0  0  0  0  0  0  0  0  0  0  # atno 6907 bound_to 6896
  150.8451  133.7864  159.3052 H   0  0  0  0  0  0  0  0  0  0  0  0  # atno 6908 bound_to 6896
  151.5477  135.1070  159.9994 H   0  0  0  0  0  0  0  0  0  0  0  0  # atno 6909 bound_to 6896
  146.2359  140.1976  142.8333 H   0  0  0  0  0  0  0  0  0  0  0  0  # atno 7974 bound_to 7965
  154.8038  140.2856  155.5902 H   0  0  0  0  0  0  0  0  0  0  0  0  # atno 8008 bound_to 7997
  156.2980  140.2581  156.2842 H   0  0  0  0  0  0  0  0  0  0  0  0  # atno 8009 bound_to 7997
  154.9526  140.0379  157.2141 H   0  0  0  0  0  0  0  0  0  0  0  0  # atno 8010 bound_to 7997
  139.5513  144.6815  151.4316 H   0  0  0  0  0  0  0  0  0  0  0  0  # atno 10167 bound_to 10162
  157.6958  131.0367  150.3563 H   0  0  0  0  0  0  0  0  0  0  0  0  # atno 10718 bound_to 10713
  154.5604  135.5635  153.7002 H   0  0  0  0  0  0  0  0  0  0  0  0  # atno 10763 bound_to 10752
  153.0016  135.6272  154.2253 H   0  0  0  0  0  0  0  0  0  0  0  0  # atno 10764 bound_to 10752
  154.2190  135.2870  155.2911 H   0  0  0  0  0  0  0  0  0  0  0  0  # atno 10765 bound_to 10752
  141.1666  133.7197  156.8424 H   0  0  0  0  0  0  0  0  0  0  0  0  # atno 11005 bound_to 11000
  144.9807  140.8457  143.5399 LP  0  0  0  0  0  0  0  0  0  0  0  0  # atno 17320 bound_to 7965
  145.1969  139.2272  143.5213 LP  0  0  0  0  0  0  0  0  0  0  0  0  # atno 17321 bound_to 7965
  140.6776  143.8155  150.7079 LP  0  0  0  0  0  0  0  0  0  0  0  0  # atno 17342 bound_to 10162
  140.1598  143.4285  152.2074 LP  0  0  0  0  0  0  0  0  0  0  0  0  # atno 17343 bound_to 10162
  156.4005  130.3915  149.6963 LP  0  0  0  0  0  0  0  0  0  0  0  0  # atno 17370 bound_to 10713
  156.4282  130.7802  151.2821 LP  0  0  0  0  0  0  0  0  0  0  0  0  # atno 17371 bound_to 10713
  140.1974  134.8922  157.3130 LP  0  0  0  0  0  0  0  0  0  0  0  0  # atno 17394 bound_to 11000
  140.2224  134.4007  155.7559 LP  0  0  0  0  0  0  0  0  0  0  0  0  # atno 17395 bound_to 11000

$$$$
