AV-unprocessed.smi:630|AV-procd|sdf|3119|dock4
  -GOLD-   22720 0 43D 1   1.00000     0.00000
 Structure written by MMmdl.
 37 38  0  0  0  0  0  0  0  0  1 V2000
  149.6632  142.2277  155.8317 N   0  0  0  0  0  0  0  0  0  0  0  0
  150.6345  141.4299  156.2839 C   0  0  0  0  0  0  0  0  0  0  0  0
  150.8127  140.3010  155.8283 O   0  0  0  0  0  0  0  0  0  0  0  0
  151.5453  141.9873  157.3979 C   0  0  2  0  0  0  0  0  0  0  0  0
  151.5768  141.0452  158.6267 C   0  0  0  0  0  0  0  0  0  0  0  0
  152.9796  140.9411  159.2541 C   0  0  0  0  0  0  0  0  0  0  0  0
  153.4363  142.1889  160.0271 C   0  0  0  0  0  0  0  0  0  0  0  0
  153.3936  143.5050  159.2293 C   0  0  0  0  0  0  0  0  0  0  0  0
  151.9597  144.0155  159.0072 C   0  0  0  0  0  0  0  0  0  0  0  0
  151.2339  143.4726  157.7530 C   0  0  2  0  0  0  0  0  0  0  0  0
  149.7972  143.7248  157.8970 N   0  0  0  0  0  0  0  0  0  0  0  0
  149.0866  143.5756  159.0242 C   0  0  0  0  0  0  0  0  0  0  0  0
  149.5712  143.1855  160.0865 O   0  0  0  0  0  0  0  0  0  0  0  0
  147.7994  143.9057  158.8326 N   0  0  0  0  0  0  0  0  0  0  0  0
  146.7448  143.8690  159.7779 C   0  0  0  0  0  0  0  0  0  0  0  0
  146.8186  143.0072  160.7938 N   0  0  0  0  0  0  0  0  0  0  0  0
  145.7072  143.0938  161.6372 C   0  0  0  0  0  0  0  0  0  0  0  0
  144.7879  144.0348  161.2443 C   0  0  0  0  0  0  0  0  0  0  0  0
  145.2826  144.8584  159.7899 S   0  0  0  0  0  0  0  0  0  0  0  0
  149.0428  141.8988  155.1060 H   0  0  0  0  0  0  0  0  0  0  0  0
  149.5488  143.1535  156.2180 H   0  0  0  0  0  0  0  0  0  0  0  0
  152.5488  141.9746  156.9692 H   0  0  0  0  0  0  0  0  0  0  0  0
  150.8445  141.3535  159.3737 H   0  0  0  0  0  0  0  0  0  0  0  0
  151.2853  140.0355  158.3326 H   0  0  0  0  0  0  0  0  0  0  0  0
  152.9913  140.0947  159.9414 H   0  0  0  0  0  0  0  0  0  0  0  0
  153.7118  140.6989  158.4828 H   0  0  0  0  0  0  0  0  0  0  0  0
  152.8398  142.2929  160.9342 H   0  0  0  0  0  0  0  0  0  0  0  0
  154.4584  142.0214  160.3683 H   0  0  0  0  0  0  0  0  0  0  0  0
  153.9291  144.2568  159.8099 H   0  0  0  0  0  0  0  0  0  0  0  0
  153.9355  143.4190  158.2869 H   0  0  0  0  0  0  0  0  0  0  0  0
  151.3696  143.8102  159.9018 H   0  0  0  0  0  0  0  0  0  0  0  0
  151.9887  145.1034  158.9322 H   0  0  0  0  0  0  0  0  0  0  0  0
  151.5905  144.0549  156.9006 H   0  0  0  0  0  0  0  0  0  0  0  0
  149.3143  144.0556  157.0742 H   0  0  0  0  0  0  0  0  0  0  0  0
  147.5433  144.2136  157.9060 H   0  0  0  0  0  0  0  0  0  0  0  0
  145.6511  142.4449  162.4986 H   0  0  0  0  0  0  0  0  0  0  0  0
  143.8536  144.2927  161.7200 H   0  0  0  0  0  0  0  0  0  0  0  0
  1  2  1  0  0  0  0
  1 20  1  0  0  0  0
  1 21  1  0  0  0  0
  2  3  2  0  0  0  0
  2  4  1  0  0  0  0
  4 10  1  0  0  0  0
  4  5  1  0  0  0  0
  4 22  1  0  0  0  0
  5  6  1  0  0  0  0
  5 23  1  0  0  0  0
  5 24  1  0  0  0  0
  6  7  1  0  0  0  0
  6 25  1  0  0  0  0
  6 26  1  0  0  0  0
  7  8  1  0  0  0  0
  7 27  1  0  0  0  0
  7 28  1  0  0  0  0
  8  9  1  0  0  0  0
  8 29  1  0  0  0  0
  8 30  1  0  0  0  0
  9 10  1  0  0  0  0
  9 31  1  0  0  0  0
  9 32  1  0  0  0  0
 10 11  1  0  0  0  0
 10 33  1  0  0  0  0
 11 12  1  0  0  0  0
 11 34  1  0  0  0  0
 12 13  2  0  0  0  0
 12 14  1  0  0  0  0
 14 15  1  0  0  0  0
 14 35  1  0  0  0  0
 15 19  1  0  0  0  0
 15 16  2  0  0  0  0
 16 17  1  0  0  0  0
 17 18  2  0  0  0  0
 17 36  1  0  0  0  0
 18 19  1  0  0  0  0
 18 37  1  0  0  0  0
M  END
> <s_m_source_file>
AV-unprocessed.smi

> <i_m_source_file_index>
630

> <i_lp_mmshare_version>
43012

> <i_f3d_flags>
0

> <s_epik_input>
W05IMl1DKD1PKVtDQEBIXTFbQ0gyXVtDSDJdW0NIMl1bQ0gyXVtDSDJdW0NASF0xW05IXUMoPU8pW05IXWMybltjSF1bY0hdczI=

> <s_epik_cmdline>
J2VwaWtfcHl0aG9uJywgJy1waCcsICc3LjAnLCAnLXRuJywgJzgnLCAnLW1hJywgJzIwMCcsICctbWV0YWxfYmluZGluZycsICctaW1hZScsICc8aW5maWxlLm1hZT4nLCAnLW9tYWUnLCAnPG91dGZpbGUubWFlPic=

> <r_lp_tautomer_probability>
0.999

> <r_epik_Ionization_Penalty>
0.000342689

> <r_epik_Ionization_Penalty_Charging>
0

> <r_epik_Ionization_Penalty_Neutral>
0.000342689

> <r_epik_State_Penalty>
0.000177984

> <r_epik_Charging_Adjusted_Penalty>
0.000177984

> <i_epik_Tot_Q>
0

> <i_epik_Tot_abs_Q>
0

> <r_epik_Metal_State_Penalty>
0.00743087

> <b_epik_Metal_Only>
0

> <s_lp_Force_Field>
OPLS_2005

> <r_lp_Energy>
11.6017

> <b_lp_Chiralities_Consistent>
1

> <s_lp_Variant>
AV-unprocessed.smi:630-3

> <Gold.Version>
5.8.1

> <Gold.Id.Protein>
6NUR|6NUR_protein|mol2

> <Gold.PLP.Fitness>
45.5287

> <Gold.PLP.PLP>
-35.4270

> <Gold.PLP.part.hbond>
-6.3770

> <Gold.PLP.part.metal>
0.0000

> <Gold.PLP.part.buried>
-4.4372

> <Gold.PLP.part.nonpolar>
-26.3756

> <Gold.PLP.part.repulsive>
0.3676

> <Gold.PLP.ligand.clash>
0.0223

> <Gold.PLP.ligand.torsion>
0.5173

> <Gold.PLP.Chemscore.Hbond>
3.6756

> <Gold.PLP.Chemscore.CHOScore>
0.0000

> <Gold.PLP.Chemscore.Metal>
0.0000

> <Gold.Chemscore.Hbonds>
donor molecule, donor type, donor heavy atom, donor atom, acceptor molecule, acceptor atom, score
      L1  H     1    21       P1  8028  0.74
      L1  H    11    34       P1  8028  1.00
      L1  H    14    35       P1  8029  0.41
      P1  H  6933  6944       L1    16  1.00
      P1  H  6934  6946       L1    16  0.52

> <Gold.PLP.Chemscore.Internal.Correction>
0.1320

> <Gold.Rescore>
     Score         DG    S(hbond)    S(metal)    S(lipo)     H(rot)  DE(clash)    DE(int)     intcor
     15.39     -20.58       2.63        0.00      87.08       1.52       0.14       5.05       ----

> <Gold.Chemscore.Fitness>
15.3890

> <Gold.Chemscore.DG>
-20.5778

> <Gold.Chemscore.ZeroCoef>
-5.4800

> <Gold.Chemscore.Hbond>
2.6338

> <Gold.Chemscore.Metal>
0.0000

> <Gold.Chemscore.Lipo>
87.0774

> <Gold.Chemscore.Internal_Hbond>
0.0000

> <Gold.Chemscore.DEClash>
0.1414

> <Gold.Chemscore.DEInternal>
5.0475

> <Gold.Chemscore.Rot>
1.5184

> <Gold.Chemscore.Internal.Correction>
   9.000000E+99

> <Gold.Chemscore.Hbonds>
donor molecule, donor type, donor heavy atom, donor atom, acceptor molecule, acceptor atom, score
      L1  H     1    21       P1  8028  0.74
      L1  H    11    34       P1  8028  0.34
      L1  H    14    35       P1  8029  0.07
      P1  H  6933  6944       L1    16  0.91
      P1  H  6934  6946       L1    16  0.09

> <Gold.Chemscore.Hbond.Weighted>
-8.7969

> <Gold.Chemscore.Metal.Weighted>
-0.0000

> <Gold.Chemscore.Lipo.Weighted>
-10.1881

> <Gold.Chemscore.Internal_Hbond.Weighted>
0.0000

> <Gold.Chemscore.DEClash.Weighted>
0.1414

> <Gold.Chemscore.DEInternal.Weighted>
5.0475

> <Gold.Chemscore.Rot.Weighted>
3.8872

> <Gold.Chemscore.Internal.Correction.Weighted>
   9.000000E+99

> <Gold.Protein.RotatedTorsions>
[ 6907 6896 6895 6894 ] final    8.34 input  -60.11 | X-H torsion
[ 7974 7965 7964 7962 ] final  -14.21 input  175.53 | X-H torsion
[ 8008 7997 7996 7995 ] final    8.25 input   59.86 | X-H torsion
[ 10167 10162 10161 10158 ] final   76.46 input  -65.29 | X-H torsion
[ 10718 10713 10712 10709 ] final  115.29 input   66.30 | X-H torsion
[ 10763 10752 10751 10750 ] final -134.56 input  -60.55 | X-H torsion
[ 11005 11000 10999 10996 ] final   33.30 input  -57.11 | X-H torsion

> <Gold.Protein.ActiveResidues>
 VAL166  LYS551  ARG553  GLY616  TRP617  ASP618  TYR619  PRO620  LYS621  CYS622 
 ASP623  PHE694  ASN695  SER759  ASP760  ASP761  ALA762  ILE779  LEU786  VAL792 
 PHE793  MET794  SER795  GLU796  ALA797  LYS798  CYS799  TRP800  GLU811  SER814 

> <Gold.Protein.RotatedAtoms>
  151.7045  135.0924  160.0256 H   0  0  0  0  0  0  0  0  0  0  0  0  # atno 6907 bound_to 6896
  152.3700  133.6402  159.6088 H   0  0  0  0  0  0  0  0  0  0  0  0  # atno 6908 bound_to 6896
  150.7666  133.9202  159.3437 H   0  0  0  0  0  0  0  0  0  0  0  0  # atno 6909 bound_to 6896
  146.2083  140.3315  142.8399 H   0  0  0  0  0  0  0  0  0  0  0  0  # atno 7974 bound_to 7965
  154.7644  140.2790  155.6188 H   0  0  0  0  0  0  0  0  0  0  0  0  # atno 8008 bound_to 7997
  156.2922  140.2653  156.2358 H   0  0  0  0  0  0  0  0  0  0  0  0  # atno 8009 bound_to 7997
  154.9977  140.0373  157.2336 H   0  0  0  0  0  0  0  0  0  0  0  0  # atno 8010 bound_to 7997
  139.9921  144.5749  150.7809 H   0  0  0  0  0  0  0  0  0  0  0  0  # atno 10167 bound_to 10162
  157.6231  131.1010  150.7308 H   0  0  0  0  0  0  0  0  0  0  0  0  # atno 10718 bound_to 10713
  154.8717  135.3731  154.4756 H   0  0  0  0  0  0  0  0  0  0  0  0  # atno 10763 bound_to 10752
  153.5413  135.7026  153.5640 H   0  0  0  0  0  0  0  0  0  0  0  0  # atno 10764 bound_to 10752
  153.3801  135.3999  155.1815 H   0  0  0  0  0  0  0  0  0  0  0  0  # atno 10765 bound_to 10752
  140.2646  134.3153  155.7847 H   0  0  0  0  0  0  0  0  0  0  0  0  # atno 11005 bound_to 11000
  144.8849  140.7449  143.5963 LP  0  0  0  0  0  0  0  0  0  0  0  0  # atno 17320 bound_to 7965
  145.3236  139.1781  143.4575 LP  0  0  0  0  0  0  0  0  0  0  0  0  # atno 17321 bound_to 7965
  140.7451  143.2870  151.3435 LP  0  0  0  0  0  0  0  0  0  0  0  0  # atno 17342 bound_to 10162
  139.6333  144.0679  152.2494 LP  0  0  0  0  0  0  0  0  0  0  0  0  # atno 17343 bound_to 10162
  156.7662  130.4814  149.5427 LP  0  0  0  0  0  0  0  0  0  0  0  0  # atno 17370 bound_to 10713
  156.1387  130.6229  151.0437 LP  0  0  0  0  0  0  0  0  0  0  0  0  # atno 17371 bound_to 10713
  141.2186  133.7430  156.9240 LP  0  0  0  0  0  0  0  0  0  0  0  0  # atno 17394 bound_to 11000
  140.1432  134.9280  157.2494 LP  0  0  0  0  0  0  0  0  0  0  0  0  # atno 17395 bound_to 11000

$$$$
