AV-unprocessed.smi:249|AV-procd|sdf|1927|dock3
  -GOLD-   2262021 43D 1   1.00000     0.00000
 Structure written by MMmdl.
 64 67  0  0  0  0  0  0  0  0  2 V2000
  146.4584  128.8359  151.7512 C   0  0  0  0  0  0  0  0  0  0  0  0
  146.8948  130.0465  152.5929 C   0  0  0  0  0  0  0  0  0  0  0  0
  147.0674  131.2972  151.7979 N   0  3  1  0  0  0  0  0  0  0  0  0
  145.8750  131.5824  150.9481 C   0  0  0  0  0  0  0  0  0  0  0  0
  146.0720  132.8246  150.0651 C   0  0  0  0  0  0  0  0  0  0  0  0
  146.3758  134.0728  150.9101 C   0  0  1  0  0  0  0  0  0  0  0  0
  145.2227  134.4908  151.7244 N   0  0  0  0  0  0  0  0  0  0  0  0
  144.0131  134.8937  151.0138 C   0  0  0  0  0  0  0  0  0  0  0  0
  145.4982  135.3660  152.7168 C   0  0  0  0  0  0  0  0  0  0  0  0
  145.3341  134.9329  153.9908 N   0  0  0  0  0  0  0  0  0  0  0  0
  145.6007  135.7528  155.0122 C   0  0  0  0  0  0  0  0  0  0  0  0
  146.0303  137.0165  154.9789 N   0  0  0  0  0  0  0  0  0  0  0  0
  146.1877  137.4542  153.6964 C   0  0  0  0  0  0  0  0  0  0  0  0
  145.9446  136.7015  152.5141 C   0  0  0  0  0  0  0  0  0  0  0  0
  146.2102  137.4768  151.3921 N   0  0  0  0  0  0  0  0  0  0  0  0
  146.5857  138.6265  151.8836 C   0  0  0  0  0  0  0  0  0  0  0  0
  146.5992  138.7004  153.2580 N   0  0  0  0  0  0  0  0  0  0  0  0
  146.9702  139.8522  154.0596 C   0  0  0  0  0  0  0  0  0  0  0  0
  148.4689  140.2426  153.9316 C   0  0  1  0  0  0  0  0  0  0  0  0
  148.8591  141.4773  154.7813 C   0  0  0  0  0  0  0  0  0  0  0  0
  148.3116  142.6731  154.2644 O   0  0  0  0  0  0  0  0  0  0  0  0
  149.4380  139.0670  154.2281 C   0  0  1  0  0  0  0  0  0  0  0  0
  150.9241  139.3181  153.9771 C   0  0  0  0  0  0  0  0  0  0  0  0
  151.6281  138.5046  155.0684 C   0  0  0  0  0  0  0  0  0  0  0  0
  150.6066  137.7291  155.6813 O   0  0  0  0  0  0  0  0  0  0  0  0
  149.4173  138.4993  155.6485 C   0  0  0  0  0  0  0  0  0  0  0  0
  147.6358  133.7410  151.7389 C   0  0  0  0  0  0  0  0  0  0  0  0
  147.4600  132.4853  152.6245 C   0  0  2  0  0  0  0  0  0  0  0  0
  148.7603  132.2641  153.4249 C   0  0  0  0  0  0  0  0  0  0  0  0
  146.5127  127.9229  152.3442 H   0  0  0  0  0  0  0  0  0  0  0  0
  147.1045  128.7020  150.8831 H   0  0  0  0  0  0  0  0  0  0  0  0
  145.4296  128.9223  151.4027 H   0  0  0  0  0  0  0  0  0  0  0  0
  146.1881  130.2179  153.4061 H   0  0  0  0  0  0  0  0  0  0  0  0
  147.8368  129.7611  153.0556 H   0  0  0  0  0  0  0  0  0  0  0  0
  145.6692  130.7426  150.2865 H   0  0  0  0  0  0  0  0  0  0  0  0
  144.9954  131.7043  151.5822 H   0  0  0  0  0  0  0  0  0  0  0  0
  146.8999  132.6449  149.3778 H   0  0  0  0  0  0  0  0  0  0  0  0
  145.1987  132.9796  149.4316 H   0  0  0  0  0  0  0  0  0  0  0  0
  146.6131  134.8915  150.2301 H   0  0  0  0  0  0  0  0  0  0  0  0
  143.3245  135.4452  151.6567 H   0  0  0  0  0  0  0  0  0  0  0  0
  143.4803  134.0158  150.6486 H   0  0  0  0  0  0  0  0  0  0  0  0
  144.2590  135.5258  150.1596 H   0  0  0  0  0  0  0  0  0  0  0  0
  145.4489  135.3372  155.9974 H   0  0  0  0  0  0  0  0  0  0  0  0
  146.8604  139.4601  151.2538 H   0  0  0  0  0  0  0  0  0  0  0  0
  146.3249  140.6822  153.7745 H   0  0  0  0  0  0  0  0  0  0  0  0
  146.7203  139.6124  155.0921 H   0  0  0  0  0  0  0  0  0  0  0  0
  148.6421  140.5070  152.8870 H   0  0  0  0  0  0  0  0  0  0  0  0
  148.5474  141.3489  155.8184 H   0  0  0  0  0  0  0  0  0  0  0  0
  149.9415  141.6089  154.7930 H   0  0  0  0  0  0  0  0  0  0  0  0
  148.6982  143.4033  154.7235 H   0  0  0  0  0  0  0  0  0  0  0  0
  149.1493  138.2374  153.5801 H   0  0  0  0  0  0  0  0  0  0  0  0
  151.2084  138.9794  152.9800 H   0  0  0  0  0  0  0  0  0  0  0  0
  151.2011  140.3687  154.0551 H   0  0  0  0  0  0  0  0  0  0  0  0
  152.4182  137.8669  154.6714 H   0  0  0  0  0  0  0  0  0  0  0  0
  152.0696  139.1679  155.8135 H   0  0  0  0  0  0  0  0  0  0  0  0
  149.4810  139.2708  156.4155 H   0  0  0  0  0  0  0  0  0  0  0  0
  148.5367  137.8872  155.8452 H   0  0  0  0  0  0  0  0  0  0  0  0
  148.4701  133.5769  151.0550 H   0  0  0  0  0  0  0  0  0  0  0  0
  147.9351  134.5953  152.3469 H   0  0  0  0  0  0  0  0  0  0  0  0
  146.6579  132.6748  153.3392 H   0  0  0  0  0  0  0  0  0  0  0  0
  149.0961  133.1938  153.8856 H   0  0  0  0  0  0  0  0  0  0  0  0
  149.5672  131.9062  152.7846 H   0  0  0  0  0  0  0  0  0  0  0  0
  148.6309  131.5561  154.2426 H   0  0  0  0  0  0  0  0  0  0  0  0
  147.8368  131.1303  151.1652 H   0  0  0  0  0  0  0  0  0  0  0  0
  1  2  1  0  0  0  0
  1 30  1  0  0  0  0
  1 31  1  0  0  0  0
  1 32  1  0  0  0  0
  2  3  1  0  0  0  0
  2 33  1  0  0  0  0
  2 34  1  0  0  0  0
  3 28  1  0  0  0  0
  3  4  1  0  0  0  0
  3 64  1  0  0  0  0
  4  5  1  0  0  0  0
  4 35  1  0  0  0  0
  4 36  1  0  0  0  0
  5  6  1  0  0  0  0
  5 37  1  0  0  0  0
  5 38  1  0  0  0  0
  6  7  1  0  0  0  0
  6 27  1  0  0  0  0
  6 39  1  0  0  0  0
  7  8  1  0  0  0  0
  7  9  1  0  0  0  0
  8 40  1  0  0  0  0
  8 41  1  0  0  0  0
  8 42  1  0  0  0  0
  9 14  1  0  0  0  0
  9 10  2  0  0  0  0
 10 11  1  0  0  0  0
 11 12  2  0  0  0  0
 11 43  1  0  0  0  0
 12 13  1  0  0  0  0
 13 17  1  0  0  0  0
 13 14  2  0  0  0  0
 14 15  1  0  0  0  0
 15 16  2  0  0  0  0
 16 17  1  0  0  0  0
 16 44  1  0  0  0  0
 17 18  1  0  0  0  0
 18 19  1  0  0  0  0
 18 45  1  0  0  0  0
 18 46  1  0  0  0  0
 19 20  1  0  0  0  0
 19 22  1  0  0  0  0
 19 47  1  0  0  0  0
 20 21  1  0  0  0  0
 20 48  1  0  0  0  0
 20 49  1  0  0  0  0
 21 50  1  0  0  0  0
 22 26  1  0  0  0  0
 22 23  1  0  0  0  0
 22 51  1  0  0  0  0
 23 24  1  0  0  0  0
 23 52  1  0  0  0  0
 23 53  1  0  0  0  0
 24 25  1  0  0  0  0
 24 54  1  0  0  0  0
 24 55  1  0  0  0  0
 25 26  1  0  0  0  0
 26 56  1  0  0  0  0
 26 57  1  0  0  0  0
 27 28  1  0  0  0  0
 27 58  1  0  0  0  0
 27 59  1  0  0  0  0
 28 29  1  0  0  0  0
 28 60  1  0  0  0  0
 29 61  1  0  0  0  0
 29 62  1  0  0  0  0
 29 63  1  0  0  0  0
M  CHG  1   3   1
M  END
> <s_m_source_file>
AV-unprocessed.smi

> <i_m_source_file_index>
249

> <i_lp_mmshare_version>
43012

> <i_f3d_flags>
0

> <s_epik_input>
W0NIM11bQ0gyXU4xW0NIMl1bQ0gyXVtDQEhdKFtDSDJdW0NASF0xW0NIM10pTihbQ0gzXSljKG5bY0hdbjIpYyhjMjMpbltjSF1uM1tDSDJdW0NASF0oW0NIMl1bT0hdKVtDQEBIXTRbQ0gyXVtDSDJdT1tDSDJdNA==

> <s_epik_cmdline>
J2VwaWtfcHl0aG9uJywgJy1waCcsICc3LjAnLCAnLXRuJywgJzgnLCAnLW1hJywgJzIwMCcsICctbWV0YWxfYmluZGluZycsICctaW1hZScsICc8aW5maWxlLm1hZT4nLCAnLW9tYWUnLCAnPG91dGZpbGUubWFlPic=

> <r_lp_tautomer_probability>
1

> <r_epik_Ionization_Penalty>
0.00294688

> <r_epik_Ionization_Penalty_Charging>
0.00169971

> <r_epik_Ionization_Penalty_Neutral>
0.00124717

> <r_epik_State_Penalty>
-0

> <r_epik_Charging_Adjusted_Penalty>
0.00169971

> <i_epik_Tot_Q>
1

> <i_epik_Tot_abs_Q>
1

> <r_epik_Metal_State_Penalty>
-0

> <b_epik_Metal_Only>
0

> <s_lp_Force_Field>
OPLS_2005

> <r_lp_Energy>
57.5801

> <b_lp_Chiralities_Consistent>
1

> <s_lp_Variant>
AV-unprocessed.smi:249-30

> <Gold.Version>
5.8.1

> <Gold.Id.Protein>
6NUR|6NUR_protein|mol2

> <Gold.PLP.Fitness>
52.6389

> <Gold.PLP.PLP>
-43.8156

> <Gold.PLP.part.hbond>
-3.7617

> <Gold.PLP.part.metal>
0.0000

> <Gold.PLP.part.buried>
-1.0173

> <Gold.PLP.part.nonpolar>
-40.5218

> <Gold.PLP.part.repulsive>
2.3897

> <Gold.PLP.ligand.clash>
0.0000

> <Gold.PLP.ligand.torsion>
0.4515

> <Gold.PLP.Chemscore.Hbond>
2.0728

> <Gold.PLP.Chemscore.CHOScore>
0.9161

> <Gold.PLP.Chemscore.Metal>
0.0000

> <Gold.Chemscore.Hbonds>
donor molecule, donor type, donor heavy atom, donor atom, acceptor molecule, acceptor atom, score
      L1  H     3    64       P1 10747  0.84
      L1  H    21    50       P1  8028  1.00
      L1  C    16    44       P1  7957  0.31

> <Gold.PLP.Chemscore.Internal.Correction>
0.7597

> <Gold.Rescore>
     Score         DG    S(hbond)    S(metal)    S(lipo)     H(rot)  DE(clash)    DE(int)     intcor
     14.17     -17.45       1.99        0.00     109.04       2.90       2.63       0.65       ----

> <Gold.Chemscore.Fitness>
14.1706

> <Gold.Chemscore.DG>
-17.4515

> <Gold.Chemscore.ZeroCoef>
-5.4800

> <Gold.Chemscore.Hbond>
1.9879

> <Gold.Chemscore.Metal>
0.0000

> <Gold.Chemscore.Lipo>
109.0396

> <Gold.Chemscore.Internal_Hbond>
0.0000

> <Gold.Chemscore.DEClash>
2.6309

> <Gold.Chemscore.DEInternal>
0.6500

> <Gold.Chemscore.Rot>
2.9006

> <Gold.Chemscore.Internal.Correction>
   9.000000E+99

> <Gold.Chemscore.Hbonds>
donor molecule, donor type, donor heavy atom, donor atom, acceptor molecule, acceptor atom, score
      L1  H     3    64       P1 10747  0.84
      L1  H    21    50       P1  8028  0.98

> <Gold.Chemscore.Hbond.Weighted>
-6.6395

> <Gold.Chemscore.Metal.Weighted>
-0.0000

> <Gold.Chemscore.Lipo.Weighted>
-12.7576

> <Gold.Chemscore.Internal_Hbond.Weighted>
0.0000

> <Gold.Chemscore.DEClash.Weighted>
2.6309

> <Gold.Chemscore.DEInternal.Weighted>
0.6500

> <Gold.Chemscore.Rot.Weighted>
7.4256

> <Gold.Chemscore.Internal.Correction.Weighted>
   9.000000E+99

> <Gold.Protein.RotatedTorsions>
[ 6907 6896 6895 6894 ] final -114.66 input  -60.11 | X-H torsion
[ 7974 7965 7964 7962 ] final   22.60 input  175.53 | X-H torsion
[ 8008 7997 7996 7995 ] final -146.53 input   59.86 | X-H torsion
[ 10167 10162 10161 10158 ] final  104.78 input  -65.29 | X-H torsion
[ 10718 10713 10712 10709 ] final   79.54 input   66.30 | X-H torsion
[ 10763 10752 10751 10750 ] final  113.61 input  -60.55 | X-H torsion
[ 11005 11000 10999 10996 ] final  142.12 input  -57.11 | X-H torsion

> <Gold.Protein.ActiveResidues>
 VAL166  LYS551  ARG553  GLY616  TRP617  ASP618  TYR619  PRO620  LYS621  CYS622 
 ASP623  PHE694  ASN695  SER759  ASP760  ASP761  ALA762  ILE779  LEU786  VAL792 
 PHE793  MET794  SER795  GLU796  ALA797  LYS798  CYS799  TRP800  GLU811  SER814 

> <Gold.Protein.RotatedAtoms>
  150.7919  133.8769  159.3274 H   0  0  0  0  0  0  0  0  0  0  0  0  # atno 6907 bound_to 6896
  151.6605  135.0988  160.0188 H   0  0  0  0  0  0  0  0  0  0  0  0  # atno 6908 bound_to 6896
  152.3994  133.6756  159.6339 H   0  0  0  0  0  0  0  0  0  0  0  0  # atno 6909 bound_to 6896
  146.2021  139.7862  142.8753 H   0  0  0  0  0  0  0  0  0  0  0  0  # atno 7974 bound_to 7965
  155.5609  140.0625  157.2829 H   0  0  0  0  0  0  0  0  0  0  0  0  # atno 8008 bound_to 7997
  154.4390  140.1886  156.0827 H   0  0  0  0  0  0  0  0  0  0  0  0  # atno 8009 bound_to 7997
  156.0447  140.3291  155.7287 H   0  0  0  0  0  0  0  0  0  0  0  0  # atno 8010 bound_to 7997
  139.7148  144.7070  151.0968 H   0  0  0  0  0  0  0  0  0  0  0  0  # atno 10167 bound_to 10162
  157.6780  130.9919  150.1948 H   0  0  0  0  0  0  0  0  0  0  0  0  # atno 10718 bound_to 10713
  153.4950  135.3650  155.2511 H   0  0  0  0  0  0  0  0  0  0  0  0  # atno 10763 bound_to 10752
  154.8750  135.3986  154.3544 H   0  0  0  0  0  0  0  0  0  0  0  0  # atno 10764 bound_to 10752
  153.4170  135.7079  153.6385 H   0  0  0  0  0  0  0  0  0  0  0  0  # atno 10765 bound_to 10752
  140.0452  134.9284  157.0917 H   0  0  0  0  0  0  0  0  0  0  0  0  # atno 11005 bound_to 11000
  145.3446  141.0295  143.3373 LP  0  0  0  0  0  0  0  0  0  0  0  0  # atno 17320 bound_to 7965
  144.8708  139.5041  143.6769 LP  0  0  0  0  0  0  0  0  0  0  0  0  # atno 17321 bound_to 7965
  140.7741  143.5245  150.9497 LP  0  0  0  0  0  0  0  0  0  0  0  0  # atno 17342 bound_to 10162
  139.8930  143.6929  152.3142 LP  0  0  0  0  0  0  0  0  0  0  0  0  # atno 17343 bound_to 10162
  156.2651  130.3715  149.8089 LP  0  0  0  0  0  0  0  0  0  0  0  0  # atno 17370 bound_to 10713
  156.5823  130.8471  151.3386 LP  0  0  0  0  0  0  0  0  0  0  0  0  # atno 17371 bound_to 10713
  140.4004  134.2088  155.7163 LP  0  0  0  0  0  0  0  0  0  0  0  0  # atno 17394 bound_to 11000
  141.1903  133.8219  157.0922 LP  0  0  0  0  0  0  0  0  0  0  0  0  # atno 17395 bound_to 11000

$$$$
