AV-unprocessed.smi:3057|AV-procd|sdf|11665|dock8
  -GOLD-   2272017 73D 1   1.00000     0.00000
 Structure written by MMmdl.
 41 43  0  0  0  0  0  0  0  0  2 V2000
  148.1814  138.8074  155.9260 C   0  0  0  0  0  0  0  0  0  0  0  0
  148.9482  139.4446  154.7510 C   0  0  1  0  0  0  0  0  0  0  0  0
  148.1111  139.4322  153.4590 C   0  0  0  0  0  0  0  0  0  0  0  0
  147.4438  140.8151  153.4192 C   0  0  0  0  0  0  0  0  0  0  0  0
  148.3721  141.6509  154.2855 C   0  0  0  0  0  0  0  0  0  0  0  0
  148.3849  142.8809  154.2734 O   0  0  0  0  0  0  0  0  0  0  0  0
  149.1913  140.8553  154.9848 N   0  0  0  0  0  0  0  0  0  0  0  0
  150.4437  141.2408  155.6400 C   0  0  1  0  0  0  0  0  0  0  0  0
  150.1665  141.8361  157.0309 C   0  0  0  0  0  0  0  0  0  0  0  0
  149.6178  141.1675  157.9079 O   0  0  0  0  0  0  0  0  0  0  0  0
  150.5634  143.1033  157.2174 N   0  0  0  0  0  0  0  0  0  0  0  0
  150.3833  143.8576  158.4507 C   0  0  0  0  0  0  0  0  0  0  0  0
  151.7238  144.4304  158.9313 C   0  0  0  0  0  0  0  0  0  0  0  0
  152.3145  143.6306  160.0762 C   0  0  0  0  0  0  0  0  0  0  0  0
  152.1528  144.0142  161.4255 C   0  0  0  0  0  0  0  0  0  0  0  0
  152.7310  143.2230  162.4403 C   0  0  0  0  0  0  0  0  0  0  0  0
  153.4581  142.0677  162.0855 C   0  0  0  0  0  0  0  0  0  0  0  0
  153.5895  141.7323  160.7225 C   0  0  0  0  0  0  0  0  0  0  0  0
  153.0204  142.5150  159.7797 N   0  3  0  0  0  0  0  0  0  0  0  0
  151.2851  139.9470  155.7730 C   0  0  0  0  0  0  0  0  0  0  0  0
  150.6020  138.7508  154.5917 S   0  0  0  0  0  0  0  0  0  0  0  0
  147.2261  139.3047  156.0961 H   0  0  0  0  0  0  0  0  0  0  0  0
  148.7486  138.8583  156.8553 H   0  0  0  0  0  0  0  0  0  0  0  0
  147.9751  137.7548  155.7303 H   0  0  0  0  0  0  0  0  0  0  0  0
  148.7542  139.3150  152.5854 H   0  0  0  0  0  0  0  0  0  0  0  0
  147.3826  138.6209  153.4363 H   0  0  0  0  0  0  0  0  0  0  0  0
  147.3648  141.2090  152.4056 H   0  0  0  0  0  0  0  0  0  0  0  0
  146.4514  140.7936  153.8706 H   0  0  0  0  0  0  0  0  0  0  0  0
  150.9676  141.9603  155.0077 H   0  0  0  0  0  0  0  0  0  0  0  0
  151.0106  143.5795  156.4474 H   0  0  0  0  0  0  0  0  0  0  0  0
  149.6723  144.6710  158.2946 H   0  0  0  0  0  0  0  0  0  0  0  0
  149.9578  143.1991  159.2089 H   0  0  0  0  0  0  0  0  0  0  0  0
  152.4374  144.4559  158.1066 H   0  0  0  0  0  0  0  0  0  0  0  0
  151.5931  145.4635  159.2573 H   0  0  0  0  0  0  0  0  0  0  0  0
  151.5934  144.9022  161.6824 H   0  0  0  0  0  0  0  0  0  0  0  0
  152.6182  143.4991  163.4785 H   0  0  0  0  0  0  0  0  0  0  0  0
  153.9087  141.4486  162.8475 H   0  0  0  0  0  0  0  0  0  0  0  0
  154.1280  140.8686  160.3604 H   0  0  0  0  0  0  0  0  0  0  0  0
  152.3426  140.1229  155.5752 H   0  0  0  0  0  0  0  0  0  0  0  0
  151.2057  139.5056  156.7678 H   0  0  0  0  0  0  0  0  0  0  0  0
  153.1281  142.2532  158.7993 H   0  0  0  0  0  0  0  0  0  0  0  0
  1  2  1  0  0  0  0
  1 22  1  0  0  0  0
  1 23  1  0  0  0  0
  1 24  1  0  0  0  0
  2  7  1  0  0  0  0
  2 21  1  0  0  0  0
  2  3  1  0  0  0  0
  3  4  1  0  0  0  0
  3 25  1  0  0  0  0
  3 26  1  0  0  0  0
  4  5  1  0  0  0  0
  4 27  1  0  0  0  0
  4 28  1  0  0  0  0
  5  6  2  0  0  0  0
  5  7  1  0  0  0  0
  7  8  1  0  0  0  0
  8  9  1  0  0  0  0
  8 20  1  0  0  0  0
  8 29  1  0  0  0  0
  9 10  2  0  0  0  0
  9 11  1  0  0  0  0
 11 12  1  0  0  0  0
 11 30  1  0  0  0  0
 12 13  1  0  0  0  0
 12 31  1  0  0  0  0
 12 32  1  0  0  0  0
 13 14  1  0  0  0  0
 13 33  1  0  0  0  0
 13 34  1  0  0  0  0
 14 19  1  0  0  0  0
 14 15  2  0  0  0  0
 15 16  1  0  0  0  0
 15 35  1  0  0  0  0
 16 17  2  0  0  0  0
 16 36  1  0  0  0  0
 17 18  1  0  0  0  0
 17 37  1  0  0  0  0
 18 19  2  0  0  0  0
 18 38  1  0  0  0  0
 19 41  1  0  0  0  0
 20 21  1  0  0  0  0
 20 39  1  0  0  0  0
 20 40  1  0  0  0  0
M  CHG  1  19   1
M  END
> <s_m_source_file>
AV-unprocessed.smi

> <i_m_source_file_index>
3057

> <i_lp_mmshare_version>
43012

> <i_f3d_flags>
0

> <s_epik_input>
W0NIMl0xW0NIMl1DKD1PKU4oW0NAQF0xMltDSDNdKVtDQEhdKFtDSDJdUzIpQyg9TylbTkhdW0NIMl1bQ0gyXWMzW2NIXVtjSF1bY0hdW2NIXW4z

> <s_epik_cmdline>
J2VwaWtfcHl0aG9uJywgJy1waCcsICc3LjAnLCAnLXRuJywgJzgnLCAnLW1hJywgJzIwMCcsICctbWV0YWxfYmluZGluZycsICctaW1hZScsICc8aW5maWxlLm1hZT4nLCAnLW9tYWUnLCAnPG91dGZpbGUubWFlPic=

> <r_epik_Ionization_Penalty>
1.8888

> <r_epik_Ionization_Penalty_Charging>
1.8888

> <r_epik_Ionization_Penalty_Neutral>
1.66252e-07

> <r_epik_State_Penalty>
2.00916

> <r_epik_Charging_Adjusted_Penalty>
3.89796

> <i_epik_Tot_Q>
1

> <i_epik_Tot_abs_Q>
1

> <r_epik_Metal_State_Penalty>
2.03343

> <b_epik_Metal_Only>
0

> <s_lp_Force_Field>
OPLS_2005

> <r_lp_Energy>
32.3191

> <b_lp_Chiralities_Consistent>
1

> <s_lp_Variant>
AV-unprocessed.smi:3057-5

> <Gold.Version>
5.8.1

> <Gold.Id.Protein>
6NUR|6NUR_protein|mol2

> <Gold.PLP.Fitness>
48.0316

> <Gold.PLP.PLP>
-46.3551

> <Gold.PLP.part.hbond>
-3.0000

> <Gold.PLP.part.metal>
0.0000

> <Gold.PLP.part.buried>
-2.5579

> <Gold.PLP.part.nonpolar>
-46.2974

> <Gold.PLP.part.repulsive>
5.1855

> <Gold.PLP.ligand.clash>
0.0000

> <Gold.PLP.ligand.torsion>
0.6601

> <Gold.PLP.Chemscore.Hbond>
0.9913

> <Gold.PLP.Chemscore.CHOScore>
0.0000

> <Gold.PLP.Chemscore.Metal>
0.0000

> <Gold.Chemscore.Hbonds>
donor molecule, donor type, donor heavy atom, donor atom, acceptor molecule, acceptor atom, score
      P1  H  8022  8030       L1     6  1.00

> <Gold.PLP.Chemscore.Internal.Correction>
0.0230

> <Gold.Rescore>
     Score         DG    S(hbond)    S(metal)    S(lipo)     H(rot)  DE(clash)    DE(int)     intcor
     15.28     -19.06       0.97        0.00     123.94       1.62       3.07       0.72       ----

> <Gold.Chemscore.Fitness>
15.2766

> <Gold.Chemscore.DG>
-19.0588

> <Gold.Chemscore.ZeroCoef>
-5.4800

> <Gold.Chemscore.Hbond>
0.9683

> <Gold.Chemscore.Metal>
0.0000

> <Gold.Chemscore.Lipo>
123.9359

> <Gold.Chemscore.Internal_Hbond>
0.0000

> <Gold.Chemscore.DEClash>
3.0653

> <Gold.Chemscore.DEInternal>
0.7169

> <Gold.Chemscore.Rot>
1.6234

> <Gold.Chemscore.Internal.Correction>
   9.000000E+99

> <Gold.Chemscore.Hbonds>
donor molecule, donor type, donor heavy atom, donor atom, acceptor molecule, acceptor atom, score
      P1  H  8022  8030       L1     6  0.95

> <Gold.Chemscore.Hbond.Weighted>
-3.2341

> <Gold.Chemscore.Metal.Weighted>
-0.0000

> <Gold.Chemscore.Lipo.Weighted>
-14.5005

> <Gold.Chemscore.Internal_Hbond.Weighted>
0.0000

> <Gold.Chemscore.DEClash.Weighted>
3.0653

> <Gold.Chemscore.DEInternal.Weighted>
0.7169

> <Gold.Chemscore.Rot.Weighted>
4.1558

> <Gold.Chemscore.Internal.Correction.Weighted>
   9.000000E+99

> <Gold.Protein.RotatedTorsions>
[ 6907 6896 6895 6894 ] final  -15.76 input  -60.11 | X-H torsion
[ 7974 7965 7964 7962 ] final -167.25 input  175.53 | X-H torsion
[ 8008 7997 7996 7995 ] final -146.55 input   59.86 | X-H torsion
[ 10167 10162 10161 10158 ] final  -75.61 input  -65.29 | X-H torsion
[ 10718 10713 10712 10709 ] final  -18.29 input   66.30 | X-H torsion
[ 10763 10752 10751 10750 ] final  155.25 input  -60.55 | X-H torsion
[ 11005 11000 10999 10996 ] final   -5.61 input  -57.11 | X-H torsion

> <Gold.Protein.ActiveResidues>
 VAL166  LYS551  ARG553  GLY616  TRP617  ASP618  TYR619  PRO620  LYS621  CYS622 
 ASP623  PHE694  ASN695  SER759  ASP760  ASP761  ALA762  ILE779  LEU786  VAL792 
 PHE793  MET794  SER795  GLU796  ALA797  LYS798  CYS799  TRP800  GLU811  SER814 

> <Gold.Protein.RotatedAtoms>
  151.3190  135.0814  159.9298 H   0  0  0  0  0  0  0  0  0  0  0  0  # atno 6907 bound_to 6896
  152.5261  133.9658  159.7749 H   0  0  0  0  0  0  0  0  0  0  0  0  # atno 6908 bound_to 6896
  150.9976  133.6036  159.2729 H   0  0  0  0  0  0  0  0  0  0  0  0  # atno 6909 bound_to 6896
  144.7227  140.2546  143.6273 H   0  0  0  0  0  0  0  0  0  0  0  0  # atno 7974 bound_to 7965
  155.5613  140.0625  157.2828 H   0  0  0  0  0  0  0  0  0  0  0  0  # atno 8008 bound_to 7997
  154.4389  140.1885  156.0830 H   0  0  0  0  0  0  0  0  0  0  0  0  # atno 8009 bound_to 7997
  156.0445  140.3291  155.7284 H   0  0  0  0  0  0  0  0  0  0  0  0  # atno 8010 bound_to 7997
  140.4928  143.2377  151.7879 H   0  0  0  0  0  0  0  0  0  0  0  0  # atno 10167 bound_to 10162
  156.5616  130.4727  149.6404 H   0  0  0  0  0  0  0  0  0  0  0  0  # atno 10718 bound_to 10713
  154.1654  135.2807  155.3096 H   0  0  0  0  0  0  0  0  0  0  0  0  # atno 10763 bound_to 10752
  154.6115  135.5497  153.7482 H   0  0  0  0  0  0  0  0  0  0  0  0  # atno 10764 bound_to 10752
  153.0180  135.6416  154.1795 H   0  0  0  0  0  0  0  0  0  0  0  0  # atno 10765 bound_to 10752
  140.6930  133.9055  155.8631 H   0  0  0  0  0  0  0  0  0  0  0  0  # atno 11005 bound_to 11000
  145.8195  139.2037  143.1946 LP  0  0  0  0  0  0  0  0  0  0  0  0  # atno 17320 bound_to 7965
  146.0527  140.8053  142.9774 LP  0  0  0  0  0  0  0  0  0  0  0  0  # atno 17321 bound_to 7965
  139.4855  144.4626  151.9522 LP  0  0  0  0  0  0  0  0  0  0  0  0  # atno 17342 bound_to 10162
  140.3713  144.2851  150.5919 LP  0  0  0  0  0  0  0  0  0  0  0  0  # atno 17343 bound_to 10162
  156.2794  130.7062  151.1882 LP  0  0  0  0  0  0  0  0  0  0  0  0  # atno 17370 bound_to 10713
  157.7367  131.0559  150.5397 LP  0  0  0  0  0  0  0  0  0  0  0  0  # atno 17371 bound_to 10713
  141.0226  134.0868  157.4104 LP  0  0  0  0  0  0  0  0  0  0  0  0  # atno 17394 bound_to 11000
  139.8918  135.0121  156.6811 LP  0  0  0  0  0  0  0  0  0  0  0  0  # atno 17395 bound_to 11000

$$$$
