AV-unprocessed.smi:2728|AV-procd|sdf|10525|dock9
  -GOLD-   2272014573D 1   1.00000     0.00000
 Structure written by MMmdl.
 34 35  0  0  0  0  0  0  0  0  1 V2000
  142.5519  136.0336  153.1625 O   0  0  0  0  0  0  0  0  0  0  0  0
  142.8818  137.1843  152.8735 C   0  0  0  0  0  0  0  0  0  0  0  0
  144.1064  137.5142  152.4375 N   0  0  0  0  0  0  0  0  0  0  0  0
  145.2041  136.5753  152.2371 C   0  0  0  0  0  0  0  0  0  0  0  0
  144.9699  135.6877  151.0030 C   0  0  0  0  0  0  0  0  0  0  0  0
  145.1564  134.2134  151.3030 C   0  0  0  0  0  0  0  0  0  0  0  0
  146.2578  133.6335  151.7781 C   0  0  0  0  0  0  0  0  0  0  0  0
  146.0925  132.1523  151.9805 C   0  0  0  0  0  0  0  0  0  0  0  0
  144.6411  131.8727  151.5309 C   0  0  0  0  0  0  0  0  0  0  0  0
  144.0341  133.2276  151.1018 C   0  0  0  0  0  0  0  0  0  0  0  0
  142.0844  138.2648  152.9479 N   0  0  0  0  0  0  0  0  0  0  0  0
  140.7210  138.3249  153.3423 C   0  0  0  0  0  0  0  0  0  0  0  0
  140.0193  137.1007  153.2579 C   0  0  0  0  0  0  0  0  0  0  0  0
  138.6615  137.0528  153.6302 C   0  0  0  0  0  0  0  0  0  0  0  0
  138.0413  138.2330  154.0770 C   0  0  0  0  0  0  0  0  0  0  0  0
  136.7385  138.2358  154.4462 F   0  0  0  0  0  0  0  0  0  0  0  0
  138.8097  139.4106  154.1304 C   0  0  0  0  0  0  0  0  0  0  0  0
  140.1111  139.4577  153.7741 N   0  0  0  0  0  0  0  0  0  0  0  0
  144.2925  138.4830  152.2237 H   0  0  0  0  0  0  0  0  0  0  0  0
  146.1469  137.1184  152.1526 H   0  0  0  0  0  0  0  0  0  0  0  0
  145.2826  135.9543  153.1298 H   0  0  0  0  0  0  0  0  0  0  0  0
  143.9588  135.8440  150.6243 H   0  0  0  0  0  0  0  0  0  0  0  0
  145.6520  135.9648  150.1983 H   0  0  0  0  0  0  0  0  0  0  0  0
  147.1818  134.1435  152.0076 H   0  0  0  0  0  0  0  0  0  0  0  0
  146.8164  131.6050  151.3763 H   0  0  0  0  0  0  0  0  0  0  0  0
  146.2474  131.8964  153.0288 H   0  0  0  0  0  0  0  0  0  0  0  0
  144.6270  131.1662  150.7004 H   0  0  0  0  0  0  0  0  0  0  0  0
  144.0631  131.4291  152.3423 H   0  0  0  0  0  0  0  0  0  0  0  0
  143.1787  133.4995  151.7208 H   0  0  0  0  0  0  0  0  0  0  0  0
  143.7167  133.2095  150.0589 H   0  0  0  0  0  0  0  0  0  0  0  0
  142.4982  139.1459  152.6821 H   0  0  0  0  0  0  0  0  0  0  0  0
  140.5128  136.2035  152.9134 H   0  0  0  0  0  0  0  0  0  0  0  0
  138.1079  136.1272  153.5741 H   0  0  0  0  0  0  0  0  0  0  0  0
  138.3703  140.3376  154.4677 H   0  0  0  0  0  0  0  0  0  0  0  0
  1  2  2  0  0  0  0
  2  3  1  0  0  0  0
  2 11  1  0  0  0  0
  3  4  1  0  0  0  0
  3 19  1  0  0  0  0
  4  5  1  0  0  0  0
  4 20  1  0  0  0  0
  4 21  1  0  0  0  0
  5  6  1  0  0  0  0
  5 22  1  0  0  0  0
  5 23  1  0  0  0  0
  6 10  1  0  0  0  0
  6  7  2  0  0  0  0
  7  8  1  0  0  0  0
  7 24  1  0  0  0  0
  8  9  1  0  0  0  0
  8 25  1  0  0  0  0
  8 26  1  0  0  0  0
  9 10  1  0  0  0  0
  9 27  1  0  0  0  0
  9 28  1  0  0  0  0
 10 29  1  0  0  0  0
 10 30  1  0  0  0  0
 11 12  1  0  0  0  0
 11 31  1  0  0  0  0
 12 18  1  0  0  0  0
 12 13  2  0  0  0  0
 13 14  1  0  0  0  0
 13 32  1  0  0  0  0
 14 15  2  0  0  0  0
 14 33  1  0  0  0  0
 15 16  1  0  0  0  0
 15 17  1  0  0  0  0
 17 18  2  0  0  0  0
 17 34  1  0  0  0  0
M  END
> <s_m_source_file>
AV-unprocessed.smi

> <i_m_source_file_index>
2728

> <i_lp_mmshare_version>
43012

> <i_f3d_flags>
0

> <s_epik_input>
bjFbY0hdYyhGKVtjSF1bY0hdYzFbTkhdQyg9TylbTkhdW0NIMl1bQ0gyXUMyPVtDSF1bQ0gyXVtDSDJdW0NIMl0y

> <s_epik_cmdline>
J2VwaWtfcHl0aG9uJywgJy1waCcsICc3LjAnLCAnLXRuJywgJzgnLCAnLW1hJywgJzIwMCcsICctbWV0YWxfYmluZGluZycsICctaW1hZScsICc8aW5maWxlLm1hZT4nLCAnLW9tYWUnLCAnPG91dGZpbGUubWFlPic=

> <r_lp_tautomer_probability>
1

> <r_epik_Ionization_Penalty>
3.75783e-05

> <r_epik_Ionization_Penalty_Charging>
0

> <r_epik_Ionization_Penalty_Neutral>
3.75783e-05

> <r_epik_State_Penalty>
-0

> <r_epik_Charging_Adjusted_Penalty>
0

> <i_epik_Tot_Q>
0

> <i_epik_Tot_abs_Q>
0

> <r_epik_Metal_State_Penalty>
-0

> <b_epik_Metal_Only>
0

> <s_lp_Force_Field>
OPLS_2005

> <r_lp_Energy>
20.4042

> <b_lp_Chiralities_Consistent>
1

> <s_lp_Variant>
AV-unprocessed.smi:2728-1

> <Gold.Version>
5.8.1

> <Gold.Id.Protein>
6NUR|6NUR_protein|mol2

> <Gold.PLP.Fitness>
41.2531

> <Gold.PLP.PLP>
-36.5662

> <Gold.PLP.part.hbond>
-3.0000

> <Gold.PLP.part.metal>
0.0000

> <Gold.PLP.part.buried>
-5.6905

> <Gold.PLP.part.nonpolar>
-28.8225

> <Gold.PLP.part.repulsive>
0.4388

> <Gold.PLP.ligand.clash>
0.0035

> <Gold.PLP.ligand.torsion>
0.5128

> <Gold.PLP.Chemscore.Hbond>
1.9040

> <Gold.PLP.Chemscore.CHOScore>
0.0000

> <Gold.PLP.Chemscore.Metal>
0.0000

> <Gold.Chemscore.Hbonds>
donor molecule, donor type, donor heavy atom, donor atom, acceptor molecule, acceptor atom, score
      L1  H     3    19       P1 10175  0.83
      L1  H    11    31       P1 10175  1.00

> <Gold.PLP.Chemscore.Internal.Correction>
0.0039

> <Gold.Rescore>
     Score         DG    S(hbond)    S(metal)    S(lipo)     H(rot)  DE(clash)    DE(int)     intcor
     15.06     -17.07       1.92        0.00      76.65       1.48       0.07       1.94       ----

> <Gold.Chemscore.Fitness>
15.0607

> <Gold.Chemscore.DG>
-17.0684

> <Gold.Chemscore.ZeroCoef>
-5.4800

> <Gold.Chemscore.Hbond>
1.9203

> <Gold.Chemscore.Metal>
0.0000

> <Gold.Chemscore.Lipo>
76.6496

> <Gold.Chemscore.Internal_Hbond>
0.0000

> <Gold.Chemscore.DEClash>
0.0662

> <Gold.Chemscore.DEInternal>
1.9414

> <Gold.Chemscore.Rot>
1.4818

> <Gold.Chemscore.Internal.Correction>
   9.000000E+99

> <Gold.Chemscore.Hbonds>
donor molecule, donor type, donor heavy atom, donor atom, acceptor molecule, acceptor atom, score
      L1  H     3    19       P1 10175  0.78
      L1  H    11    31       P1 10175  0.98

> <Gold.Chemscore.Hbond.Weighted>
-6.4137

> <Gold.Chemscore.Metal.Weighted>
-0.0000

> <Gold.Chemscore.Lipo.Weighted>
-8.9680

> <Gold.Chemscore.Internal_Hbond.Weighted>
0.0000

> <Gold.Chemscore.DEClash.Weighted>
0.0662

> <Gold.Chemscore.DEInternal.Weighted>
1.9414

> <Gold.Chemscore.Rot.Weighted>
3.7933

> <Gold.Chemscore.Internal.Correction.Weighted>
   9.000000E+99

> <Gold.Protein.RotatedTorsions>
[ 6907 6896 6895 6894 ] final  110.23 input  -60.11 | X-H torsion
[ 7974 7965 7964 7962 ] final  -41.18 input  175.53 | X-H torsion
[ 8008 7997 7996 7995 ] final  129.94 input   59.86 | X-H torsion
[ 10167 10162 10161 10158 ] final  135.97 input  -65.29 | X-H torsion
[ 10718 10713 10712 10709 ] final -155.24 input   66.30 | X-H torsion
[ 10763 10752 10751 10750 ] final -125.26 input  -60.55 | X-H torsion
[ 11005 11000 10999 10996 ] final  151.44 input  -57.11 | X-H torsion

> <Gold.Protein.ActiveResidues>
 VAL166  LYS551  ARG553  GLY616  TRP617  ASP618  TYR619  PRO620  LYS621  CYS622 
 ASP623  PHE694  ASN695  SER759  ASP760  ASP761  ALA762  ILE779  LEU786  VAL792 
 PHE793  MET794  SER795  GLU796  ALA797  LYS798  CYS799  TRP800  GLU811  SER814 

> <Gold.Protein.RotatedAtoms>
  152.5029  133.8830  159.7355 H   0  0  0  0  0  0  0  0  0  0  0  0  # atno 6907 bound_to 6896
  150.9287  133.6783  159.2822 H   0  0  0  0  0  0  0  0  0  0  0  0  # atno 6908 bound_to 6896
  151.4135  135.0993  159.9645 H   0  0  0  0  0  0  0  0  0  0  0  0  # atno 6909 bound_to 6896
  146.0235  140.6820  142.9167 H   0  0  0  0  0  0  0  0  0  0  0  0  # atno 7974 bound_to 7965
  156.2945  140.2608  156.2681 H   0  0  0  0  0  0  0  0  0  0  0  0  # atno 8008 bound_to 7997
  154.9722  140.0391  157.2258 H   0  0  0  0  0  0  0  0  0  0  0  0  # atno 8009 bound_to 7997
  154.7848  140.2801  155.6040 H   0  0  0  0  0  0  0  0  0  0  0  0  # atno 8010 bound_to 7997
  139.5197  144.6489  151.5359 H   0  0  0  0  0  0  0  0  0  0  0  0  # atno 10167 bound_to 10162
  156.5101  130.8431  151.2643 H   0  0  0  0  0  0  0  0  0  0  0  0  # atno 10718 bound_to 10713
  154.8734  135.4035  154.3239 H   0  0  0  0  0  0  0  0  0  0  0  0  # atno 10763 bound_to 10752
  153.4063  135.7019  153.6396 H   0  0  0  0  0  0  0  0  0  0  0  0  # atno 10764 bound_to 10752
  153.5117  135.3706  155.2560 H   0  0  0  0  0  0  0  0  0  0  0  0  # atno 10765 bound_to 10752
  140.1219  134.8858  157.2084 H   0  0  0  0  0  0  0  0  0  0  0  0  # atno 11005 bound_to 11000
  144.7000  140.3608  143.7164 LP  0  0  0  0  0  0  0  0  0  0  0  0  # atno 17320 bound_to 7965
  145.7155  139.1696  143.2514 LP  0  0  0  0  0  0  0  0  0  0  0  0  # atno 17321 bound_to 7965
  140.6286  143.9121  150.6585 LP  0  0  0  0  0  0  0  0  0  0  0  0  # atno 17342 bound_to 10162
  140.2417  143.3658  152.1480 LP  0  0  0  0  0  0  0  0  0  0  0  0  # atno 17343 bound_to 10162
  157.7451  130.9952  150.2736 LP  0  0  0  0  0  0  0  0  0  0  0  0  # atno 17370 bound_to 10713
  156.3248  130.3791  149.7543 LP  0  0  0  0  0  0  0  0  0  0  0  0  # atno 17371 bound_to 10713
  140.2954  134.3193  155.7304 LP  0  0  0  0  0  0  0  0  0  0  0  0  # atno 17394 bound_to 11000
  141.2153  133.7559  156.9563 LP  0  0  0  0  0  0  0  0  0  0  0  0  # atno 17395 bound_to 11000

$$$$
