AV-unprocessed.smi:2128|AV-procd|sdf|8681|dock2
  -GOLD-   2272011433D 1   1.00000     0.00000
 Structure written by MMmdl.
 50 52  0  0  0  0  0  0  0  0  1 V2000
  153.6881  142.0837  160.4172 O   0  0  0  0  0  0  0  0  0  0  0  0
  152.8134  142.2371  159.5676 C   0  0  0  0  0  0  0  0  0  0  0  0
  152.2261  141.0049  158.8550 C   0  0  0  0  0  0  0  0  0  0  0  0
  151.3070  141.2867  157.7420 N   0  0  0  0  0  0  0  0  0  0  0  0
  150.9411  140.1918  156.9195 C   0  0  0  0  0  0  0  0  0  0  0  0
  151.2751  140.1655  155.5420 C   0  0  0  0  0  0  0  0  0  0  0  0
  150.8913  139.0625  154.7553 C   0  0  0  0  0  0  0  0  0  0  0  0
  150.1848  137.9996  155.3623 C   0  0  0  0  0  0  0  0  0  0  0  0
  149.7258  136.8448  154.6731 N   0  0  0  0  0  0  0  0  0  0  0  0
  149.2677  135.6919  155.1897 C   0  0  0  0  0  0  0  0  0  0  0  0
  149.1578  135.4458  156.3907 O   0  0  0  0  0  0  0  0  0  0  0  0
  148.9101  134.8366  154.2205 N   0  0  0  0  0  0  0  0  0  0  0  0
  148.3172  133.5174  154.4276 C   0  0  0  0  0  0  0  0  0  0  0  0
  148.4607  132.6170  153.1846 C   0  0  0  0  0  0  0  0  0  0  0  0
  147.2040  132.5352  152.3307 C   0  0  0  0  0  0  0  0  0  0  0  0
  146.7450  133.5957  151.6375 C   0  0  0  0  0  0  0  0  0  0  0  0
  145.5091  133.5696  150.7562 C   0  0  0  0  0  0  0  0  0  0  0  0
  145.0396  132.1381  150.4480 C   0  0  0  0  0  0  0  0  0  0  0  0
  145.0844  131.2580  151.7032 C   0  0  0  0  0  0  0  0  0  0  0  0
  146.5076  131.1795  152.2838 C   0  0  0  0  0  0  0  0  0  0  0  0
  149.8852  138.1169  156.7329 C   0  0  0  0  0  0  0  0  0  0  0  0
  150.2534  139.1711  157.4897 N   0  0  0  0  0  0  0  0  0  0  0  0
  151.2798  142.6354  157.1687 C   0  0  0  0  0  0  0  0  0  0  0  0
  151.3024  143.7036  158.2705 C   0  0  0  0  0  0  0  0  0  0  0  0
  152.3647  143.4574  159.2356 N   0  0  0  0  0  0  0  0  0  0  0  0
  153.0540  140.3898  158.4985 H   0  0  0  0  0  0  0  0  0  0  0  0
  151.6979  140.4310  159.6166 H   0  0  0  0  0  0  0  0  0  0  0  0
  151.8215  140.9679  155.0706 H   0  0  0  0  0  0  0  0  0  0  0  0
  151.1354  139.0624  153.7044 H   0  0  0  0  0  0  0  0  0  0  0  0
  149.6774  136.9313  153.6686 H   0  0  0  0  0  0  0  0  0  0  0  0
  149.0363  135.1289  153.2624 H   0  0  0  0  0  0  0  0  0  0  0  0
  148.8313  133.0513  155.2682 H   0  0  0  0  0  0  0  0  0  0  0  0
  147.2719  133.5996  154.7288 H   0  0  0  0  0  0  0  0  0  0  0  0
  149.2858  132.9854  152.5732 H   0  0  0  0  0  0  0  0  0  0  0  0
  148.7392  131.6076  153.4888 H   0  0  0  0  0  0  0  0  0  0  0  0
  147.2571  134.5444  151.7066 H   0  0  0  0  0  0  0  0  0  0  0  0
  144.7208  134.1222  151.2684 H   0  0  0  0  0  0  0  0  0  0  0  0
  145.7175  134.1000  149.8268 H   0  0  0  0  0  0  0  0  0  0  0  0
  144.0318  132.1572  150.0323 H   0  0  0  0  0  0  0  0  0  0  0  0
  145.6815  131.7009  149.6821 H   0  0  0  0  0  0  0  0  0  0  0  0
  144.4092  131.6711  152.4542 H   0  0  0  0  0  0  0  0  0  0  0  0
  144.7186  130.2561  151.4777 H   0  0  0  0  0  0  0  0  0  0  0  0
  147.1199  130.5086  151.6804 H   0  0  0  0  0  0  0  0  0  0  0  0
  146.4607  130.7460  153.2824 H   0  0  0  0  0  0  0  0  0  0  0  0
  149.3362  137.3389  157.2432 H   0  0  0  0  0  0  0  0  0  0  0  0
  152.1407  142.7572  156.5091 H   0  0  0  0  0  0  0  0  0  0  0  0
  150.3844  142.7905  156.5650 H   0  0  0  0  0  0  0  0  0  0  0  0
  151.4305  144.6954  157.8364 H   0  0  0  0  0  0  0  0  0  0  0  0
  150.3511  143.7103  158.8044 H   0  0  0  0  0  0  0  0  0  0  0  0
  152.7659  144.2591  159.7001 H   0  0  0  0  0  0  0  0  0  0  0  0
  1  2  2  0  0  0  0
  2 25  1  0  0  0  0
  2  3  1  0  0  0  0
  3  4  1  0  0  0  0
  3 26  1  0  0  0  0
  3 27  1  0  0  0  0
  4  5  1  0  0  0  0
  4 23  1  0  0  0  0
  5 22  1  0  0  0  0
  5  6  2  0  0  0  0
  6  7  1  0  0  0  0
  6 28  1  0  0  0  0
  7  8  2  0  0  0  0
  7 29  1  0  0  0  0
  8  9  1  0  0  0  0
  8 21  1  0  0  0  0
  9 10  1  0  0  0  0
  9 30  1  0  0  0  0
 10 11  2  0  0  0  0
 10 12  1  0  0  0  0
 12 13  1  0  0  0  0
 12 31  1  0  0  0  0
 13 14  1  0  0  0  0
 13 32  1  0  0  0  0
 13 33  1  0  0  0  0
 14 15  1  0  0  0  0
 14 34  1  0  0  0  0
 14 35  1  0  0  0  0
 15 20  1  0  0  0  0
 15 16  2  0  0  0  0
 16 17  1  0  0  0  0
 16 36  1  0  0  0  0
 17 18  1  0  0  0  0
 17 37  1  0  0  0  0
 17 38  1  0  0  0  0
 18 19  1  0  0  0  0
 18 39  1  0  0  0  0
 18 40  1  0  0  0  0
 19 20  1  0  0  0  0
 19 41  1  0  0  0  0
 19 42  1  0  0  0  0
 20 43  1  0  0  0  0
 20 44  1  0  0  0  0
 21 22  2  0  0  0  0
 21 45  1  0  0  0  0
 23 24  1  0  0  0  0
 23 46  1  0  0  0  0
 23 47  1  0  0  0  0
 24 25  1  0  0  0  0
 24 48  1  0  0  0  0
 24 49  1  0  0  0  0
 25 50  1  0  0  0  0
M  END
> <s_m_source_file>
AV-unprocessed.smi

> <i_m_source_file_index>
2128

> <i_lp_mmshare_version>
43012

> <i_f3d_flags>
0

> <s_epik_input>
Tz1DMVtDSDJdTihbQ0gyXVtDSDJdW05IXTEpYzJbY0hdW2NIXWMoW2NIXW4yKVtOSF1DKD1PKVtOSF1bQ0gyXVtDSDJdQzM9W0NIXVtDSDJdW0NIMl1bQ0gyXVtDSDJdMw==

> <s_epik_cmdline>
J2VwaWtfcHl0aG9uJywgJy1waCcsICc3LjAnLCAnLXRuJywgJzgnLCAnLW1hJywgJzIwMCcsICctbWV0YWxfYmluZGluZycsICctaW1hZScsICc8aW5maWxlLm1hZT4nLCAnLW9tYWUnLCAnPG91dGZpbGUubWFlPic=

> <r_lp_tautomer_probability>
1

> <r_epik_Ionization_Penalty>
0.0211825

> <r_epik_Ionization_Penalty_Charging>
0

> <r_epik_Ionization_Penalty_Neutral>
0.0211825

> <r_epik_State_Penalty>
0.0169697

> <r_epik_Charging_Adjusted_Penalty>
0.0169697

> <i_epik_Tot_Q>
0

> <i_epik_Tot_abs_Q>
0

> <r_epik_Metal_State_Penalty>
0.0163833

> <b_epik_Metal_Only>
0

> <s_lp_Force_Field>
OPLS_2005

> <r_lp_Energy>
24.085

> <b_lp_Chiralities_Consistent>
1

> <s_lp_Variant>
AV-unprocessed.smi:2128-1

> <Gold.Version>
5.8.1

> <Gold.Id.Protein>
6NUR|6NUR_protein|mol2

> <Gold.PLP.Fitness>
48.1056

> <Gold.PLP.PLP>
-44.7330

> <Gold.PLP.part.hbond>
-2.0000

> <Gold.PLP.part.metal>
0.0000

> <Gold.PLP.part.buried>
-6.1655

> <Gold.PLP.part.nonpolar>
-36.5232

> <Gold.PLP.part.repulsive>
0.0705

> <Gold.PLP.ligand.clash>
0.0000

> <Gold.PLP.ligand.torsion>
1.3742

> <Gold.PLP.Chemscore.Hbond>
1.9750

> <Gold.PLP.Chemscore.CHOScore>
0.0000

> <Gold.PLP.Chemscore.Metal>
0.0000

> <Gold.Chemscore.Hbonds>
donor molecule, donor type, donor heavy atom, donor atom, acceptor molecule, acceptor atom, score
      L1  H     9    30       P1  7948  0.98
      L1  H    12    31       P1  7948  1.00

> <Gold.PLP.Chemscore.Internal.Correction>
0.1958

> <Gold.Rescore>
     Score         DG    S(hbond)    S(metal)    S(lipo)     H(rot)  DE(clash)    DE(int)     intcor
     16.63     -19.49       1.81        0.00      98.86       1.41       0.02       2.84       ----

> <Gold.Chemscore.Fitness>
16.6330

> <Gold.Chemscore.DG>
-19.4934

> <Gold.Chemscore.ZeroCoef>
-5.4800

> <Gold.Chemscore.Hbond>
1.8123

> <Gold.Chemscore.Metal>
0.0000

> <Gold.Chemscore.Lipo>
98.8579

> <Gold.Chemscore.Internal_Hbond>
0.0000

> <Gold.Chemscore.DEClash>
0.0186

> <Gold.Chemscore.DEInternal>
2.8418

> <Gold.Chemscore.Rot>
1.4087

> <Gold.Chemscore.Internal.Correction>
   9.000000E+99

> <Gold.Chemscore.Hbonds>
donor molecule, donor type, donor heavy atom, donor atom, acceptor molecule, acceptor atom, score
      L1  H     9    30       P1  7948  0.61
      L1  H    12    31       P1  7948  0.25

> <Gold.Chemscore.Hbond.Weighted>
-6.0532

> <Gold.Chemscore.Metal.Weighted>
-0.0000

> <Gold.Chemscore.Lipo.Weighted>
-11.5664

> <Gold.Chemscore.Internal_Hbond.Weighted>
0.0000

> <Gold.Chemscore.DEClash.Weighted>
0.0186

> <Gold.Chemscore.DEInternal.Weighted>
2.8418

> <Gold.Chemscore.Rot.Weighted>
3.6061

> <Gold.Chemscore.Internal.Correction.Weighted>
   9.000000E+99

> <Gold.Protein.RotatedTorsions>
[ 6907 6896 6895 6894 ] final    0.50 input  -60.11 | X-H torsion
[ 7974 7965 7964 7962 ] final  -14.20 input  175.53 | X-H torsion
[ 8008 7997 7996 7995 ] final  108.05 input   59.86 | X-H torsion
[ 10167 10162 10161 10158 ] final  163.22 input  -65.29 | X-H torsion
[ 10718 10713 10712 10709 ] final   46.17 input   66.30 | X-H torsion
[ 10763 10752 10751 10750 ] final  133.02 input  -60.55 | X-H torsion
[ 11005 11000 10999 10996 ] final -109.67 input  -57.11 | X-H torsion

> <Gold.Protein.ActiveResidues>
 VAL166  LYS551  ARG553  GLY616  TRP617  ASP618  TYR619  PRO620  LYS621  CYS622 
 ASP623  PHE694  ASN695  SER759  ASP760  ASP761  ALA762  ILE779  LEU786  VAL792 
 PHE793  MET794  SER795  GLU796  ALA797  LYS798  CYS799  TRP800  GLU811  SER814 

> <Gold.Protein.RotatedAtoms>
  151.5774  135.1060  160.0009 H   0  0  0  0  0  0  0  0  0  0  0  0  # atno 6907 bound_to 6896
  152.4371  133.7376  159.6633 H   0  0  0  0  0  0  0  0  0  0  0  0  # atno 6908 bound_to 6896
  150.8270  133.8085  159.3137 H   0  0  0  0  0  0  0  0  0  0  0  0  # atno 6909 bound_to 6896
  146.2084  140.3314  142.8399 H   0  0  0  0  0  0  0  0  0  0  0  0  # atno 7974 bound_to 7965
  156.1872  140.3083  155.9262 H   0  0  0  0  0  0  0  0  0  0  0  0  # atno 8008 bound_to 7997
  155.3254  140.0458  157.3058 H   0  0  0  0  0  0  0  0  0  0  0  0  # atno 8009 bound_to 7997
  154.5410  140.2261  155.8651 H   0  0  0  0  0  0  0  0  0  0  0  0  # atno 8010 bound_to 7997
  139.4871  144.4359  151.9013 H   0  0  0  0  0  0  0  0  0  0  0  0  # atno 10167 bound_to 10162
  157.4453  130.8105  149.7734 H   0  0  0  0  0  0  0  0  0  0  0  0  # atno 10718 bound_to 10713
  153.8002  135.3143  155.3389 H   0  0  0  0  0  0  0  0  0  0  0  0  # atno 10763 bound_to 10752
  154.8092  135.4678  154.0474 H   0  0  0  0  0  0  0  0  0  0  0  0  # atno 10764 bound_to 10752
  153.1819  135.6895  153.8553 H   0  0  0  0  0  0  0  0  0  0  0  0  # atno 10765 bound_to 10752
  141.0834  133.9180  157.2238 H   0  0  0  0  0  0  0  0  0  0  0  0  # atno 11005 bound_to 11000
  144.8849  140.7449  143.5963 LP  0  0  0  0  0  0  0  0  0  0  0  0  # atno 17320 bound_to 7965
  145.3235  139.1781  143.4575 LP  0  0  0  0  0  0  0  0  0  0  0  0  # atno 17321 bound_to 7965
  140.3809  144.2738  150.5909 LP  0  0  0  0  0  0  0  0  0  0  0  0  # atno 17342 bound_to 10162
  140.5234  143.2260  151.8352 LP  0  0  0  0  0  0  0  0  0  0  0  0  # atno 17343 bound_to 10162
  155.9965  130.3905  150.2778 LP  0  0  0  0  0  0  0  0  0  0  0  0  # atno 17370 bound_to 10713
  157.0946  131.0179  151.3109 LP  0  0  0  0  0  0  0  0  0  0  0  0  # atno 17371 bound_to 10713
  139.9650  135.0144  156.9363 LP  0  0  0  0  0  0  0  0  0  0  0  0  # atno 17394 bound_to 11000
  140.5417  134.0714  155.7343 LP  0  0  0  0  0  0  0  0  0  0  0  0  # atno 17395 bound_to 11000

$$$$
