AV-unprocessed.smi:157|AV-procd|sdf|1303|dock2
  -GOLD-   2262018593D 1   1.00000     0.00000
 Structure written by MMmdl.
 35 37  0  0  0  0  0  0  0  0  1 V2000
  149.2073  138.8052  153.2737 O   0  0  0  0  0  0  0  0  0  0  0  0
  149.5182  138.8304  154.6516 C   0  0  0  0  0  0  0  0  0  0  0  0
  148.8038  140.0040  155.3536 C   0  0  1  0  0  0  0  0  0  0  0  0
  149.2532  140.0214  156.7104 O   0  0  0  0  0  0  0  0  0  0  0  0
  150.0237  141.1601  156.9613 C   0  0  1  0  0  0  0  0  0  0  0  0
  151.2719  140.7546  157.6804 N   0  0  0  0  0  0  0  0  0  0  0  0
  152.1642  139.8400  157.2775 C   0  0  0  0  0  0  0  0  0  0  0  0
  153.1876  139.6724  158.0981 N   0  0  0  0  0  0  0  0  0  0  0  0
  152.9414  140.5755  159.1312 C   0  0  0  0  0  0  0  0  0  0  0  0
  151.7614  141.2635  158.8863 C   0  0  0  0  0  0  0  0  0  0  0  0
  151.0307  142.2471  159.5252 N   0  0  0  0  0  0  0  0  0  0  0  0
  151.6306  142.9634  160.4229 C   0  0  0  0  0  0  0  0  0  0  0  0
  152.9110  142.8539  160.9462 N   0  0  0  0  0  0  0  0  0  0  0  0
  153.4734  141.6005  161.4196 C   0  0  0  0  0  0  0  0  0  0  0  0
  153.8936  140.6520  160.2900 C   0  0  2  0  0  0  0  0  0  0  0  0
  155.1417  141.0678  159.7741 O   0  0  0  0  0  0  0  0  0  0  0  0
  150.3692  141.7735  155.6093 C   0  0  0  0  0  0  0  0  0  0  0  0
  149.1322  141.4106  154.8200 C   0  0  1  0  0  0  0  0  0  0  0  0
  149.3648  141.4801  153.4277 O   0  0  0  0  0  0  0  0  0  0  0  0
  147.7267  139.8311  155.3471 H   0  0  0  0  0  0  0  0  0  0  0  0
  149.4884  141.8344  157.6309 H   0  0  0  0  0  0  0  0  0  0  0  0
  154.0427  139.6577  160.7121 H   0  0  0  0  0  0  0  0  0  0  0  0
  148.3236  142.0949  155.0801 H   0  0  0  0  0  0  0  0  0  0  0  0
  149.5038  137.9832  152.9134 H   0  0  0  0  0  0  0  0  0  0  0  0
  149.1804  137.8851  155.0771 H   0  0  0  0  0  0  0  0  0  0  0  0
  150.5983  138.8735  154.7933 H   0  0  0  0  0  0  0  0  0  0  0  0
  152.0617  139.2796  156.3599 H   0  0  0  0  0  0  0  0  0  0  0  0
  151.0835  143.7916  160.8755 H   0  0  0  0  0  0  0  0  0  0  0  0
  153.2919  143.6400  161.4529 H   0  0  0  0  0  0  0  0  0  0  0  0
  154.3087  141.7983  162.0920 H   0  0  0  0  0  0  0  0  0  0  0  0
  152.7073  141.1106  162.0223 H   0  0  0  0  0  0  0  0  0  0  0  0
  155.6568  141.4100  160.4890 H   0  0  0  0  0  0  0  0  0  0  0  0
  150.5477  142.8459  155.6925 H   0  0  0  0  0  0  0  0  0  0  0  0
  151.2573  141.2899  155.1984 H   0  0  0  0  0  0  0  0  0  0  0  0
  149.6481  140.6294  153.1286 H   0  0  0  0  0  0  0  0  0  0  0  0
  1  2  1  0  0  0  0
  1 24  1  0  0  0  0
  2  3  1  0  0  0  0
  2 25  1  0  0  0  0
  2 26  1  0  0  0  0
  3 20  1  0  0  0  0
  3 18  1  0  0  0  0
  3  4  1  0  0  0  0
  4  5  1  0  0  0  0
  5 21  1  0  0  0  0
  5  6  1  0  0  0  0
  5 17  1  0  0  0  0
  6 10  1  0  0  0  0
  6  7  1  0  0  0  0
  7  8  2  0  0  0  0
  7 27  1  0  0  0  0
  8  9  1  0  0  0  0
  9 15  1  0  0  0  0
  9 10  2  0  0  0  0
 10 11  1  0  0  0  0
 11 12  2  0  0  0  0
 12 13  1  0  0  0  0
 12 28  1  0  0  0  0
 13 14  1  0  0  0  0
 13 29  1  0  0  0  0
 14 15  1  0  0  0  0
 14 30  1  0  0  0  0
 14 31  1  0  0  0  0
 15 22  1  0  0  0  0
 15 16  1  0  0  0  0
 16 32  1  0  0  0  0
 17 18  1  0  0  0  0
 17 33  1  0  0  0  0
 17 34  1  0  0  0  0
 18 23  1  0  0  0  0
 18 19  1  0  0  0  0
 19 35  1  0  0  0  0
M  END
> <s_m_source_file>
AV-unprocessed.smi

> <i_m_source_file_index>
157

> <i_lp_mmshare_version>
43012

> <i_f3d_flags>
0

> <s_epik_input>
W09IXVtDSDJdW0NASF0xT1tDQEhdKFtDSDJdW0NAQEhdMVtPSF0pbihbY0hdbjIpYyhjMjMpTj1bQ0hdW05IXVtDSDJdW0NASF0zW09IXQ==

> <s_epik_cmdline>
J2VwaWtfcHl0aG9uJywgJy1waCcsICc3LjAnLCAnLXRuJywgJzgnLCAnLW1hJywgJzIwMCcsICctbWV0YWxfYmluZGluZycsICctaW1hZScsICc8aW5maWxlLm1hZT4nLCAnLW9tYWUnLCAnPG91dGZpbGUubWFlPic=

> <r_lp_tautomer_probability>
1

> <r_epik_Ionization_Penalty>
0.0357149

> <r_epik_Ionization_Penalty_Charging>
0.0355056

> <r_epik_Ionization_Penalty_Neutral>
0.000209255

> <r_epik_State_Penalty>
0.0296046

> <r_epik_Charging_Adjusted_Penalty>
0.0651102

> <i_epik_Tot_Q>
0

> <i_epik_Tot_abs_Q>
0

> <r_epik_Metal_State_Penalty>
3.03559e-05

> <b_epik_Metal_Only>
0

> <s_epik_Chemistry_Notes>
This compound has an imine and may undergo hydrolysis. This compound contains an acetal/aminal-like group ( X-CH(R)-Y where X, Y are N, S, or O) that may be acid/base labile, releasing an aldehyde.

> <s_lp_Force_Field>
OPLS_2005

> <r_lp_Energy>
46.7007

> <b_lp_Chiralities_Consistent>
1

> <s_lp_Variant>
AV-unprocessed.smi:157-13

> <Gold.Version>
5.8.1

> <Gold.Id.Protein>
6NUR|6NUR_protein|mol2

> <Gold.PLP.Fitness>
43.5147

> <Gold.PLP.PLP>
-33.8571

> <Gold.PLP.part.hbond>
-7.0035

> <Gold.PLP.part.metal>
0.0000

> <Gold.PLP.part.buried>
-4.1092

> <Gold.PLP.part.nonpolar>
-22.0219

> <Gold.PLP.part.repulsive>
0.0422

> <Gold.PLP.ligand.clash>
0.0000

> <Gold.PLP.ligand.torsion>
0.0510

> <Gold.PLP.Chemscore.Hbond>
3.2487

> <Gold.PLP.Chemscore.CHOScore>
0.0000

> <Gold.PLP.Chemscore.Metal>
0.0000

> <Gold.Chemscore.Hbonds>
donor molecule, donor type, donor heavy atom, donor atom, acceptor molecule, acceptor atom, score
      L1  H     1    24       P1  7948  0.84
      L1  H    19    35       P1  7957  0.44
      P1  H  7997  8010       L1     8  1.00
      P1  H  8011  8017       L1    19  0.84

> <Gold.PLP.Chemscore.Internal.Correction>
0.0135

> <Gold.Rescore>
     Score         DG    S(hbond)    S(metal)    S(lipo)     H(rot)  DE(clash)    DE(int)     intcor
     10.50     -11.08       2.72        0.00      49.64       3.64       0.54       0.04       ----

> <Gold.Chemscore.Fitness>
10.5040

> <Gold.Chemscore.DG>
-11.0803

> <Gold.Chemscore.ZeroCoef>
-5.4800

> <Gold.Chemscore.Hbond>
2.7250

> <Gold.Chemscore.Metal>
0.0000

> <Gold.Chemscore.Lipo>
49.6369

> <Gold.Chemscore.Internal_Hbond>
0.0000

> <Gold.Chemscore.DEClash>
0.5389

> <Gold.Chemscore.DEInternal>
0.0374

> <Gold.Chemscore.Rot>
3.6362

> <Gold.Chemscore.Internal.Correction>
   9.000000E+99

> <Gold.Chemscore.Hbonds>
donor molecule, donor type, donor heavy atom, donor atom, acceptor molecule, acceptor atom, score
      L1  H     1    24       P1  7948  0.66
      L1  H    19    35       P1  7957  0.41
      P1  H  7997  8010       L1     8  0.37
      P1  H  8011  8017       L1    19  0.35

> <Gold.Chemscore.Hbond.Weighted>
-9.1015

> <Gold.Chemscore.Metal.Weighted>
-0.0000

> <Gold.Chemscore.Lipo.Weighted>
-5.8075

> <Gold.Chemscore.Internal_Hbond.Weighted>
0.0000

> <Gold.Chemscore.DEClash.Weighted>
0.5389

> <Gold.Chemscore.DEInternal.Weighted>
0.0374

> <Gold.Chemscore.Rot.Weighted>
9.3087

> <Gold.Chemscore.Internal.Correction.Weighted>
   9.000000E+99

> <Gold.Protein.RotatedTorsions>
[ 6907 6896 6895 6894 ] final -142.25 input  -60.11 | X-H torsion
[ 7974 7965 7964 7962 ] final  149.11 input  175.53 | X-H torsion
[ 8008 7997 7996 7995 ] final   32.03 input   59.86 | X-H torsion
[ 10167 10162 10161 10158 ] final  172.05 input  -65.29 | X-H torsion
[ 10718 10713 10712 10709 ] final -130.97 input   66.30 | X-H torsion
[ 10763 10752 10751 10750 ] final -172.06 input  -60.55 | X-H torsion
[ 11005 11000 10999 10996 ] final  -54.04 input  -57.11 | X-H torsion

> <Gold.Protein.ActiveResidues>
 VAL166  LYS551  ARG553  GLY616  TRP617  ASP618  TYR619  PRO620  LYS621  CYS622 
 ASP623  PHE694  ASN695  SER759  ASP760  ASP761  ALA762  ILE779  LEU786  VAL792 
 PHE793  MET794  SER795  GLU796  ALA797  LYS798  CYS799  TRP800  GLU811  SER814 

> <Gold.Protein.RotatedAtoms>
  151.0846  133.5363  159.2618 H   0  0  0  0  0  0  0  0  0  0  0  0  # atno 6907 bound_to 6896
  151.2253  135.0533  159.8976 H   0  0  0  0  0  0  0  0  0  0  0  0  # atno 6908 bound_to 6896
  152.5427  134.0643  159.8219 H   0  0  0  0  0  0  0  0  0  0  0  0  # atno 6909 bound_to 6896
  144.8462  139.6239  143.5994 H   0  0  0  0  0  0  0  0  0  0  0  0  # atno 7974 bound_to 7965
  155.1159  140.3243  155.4510 H   0  0  0  0  0  0  0  0  0  0  0  0  # atno 8008 bound_to 7997
  156.2677  140.2036  156.6230 H   0  0  0  0  0  0  0  0  0  0  0  0  # atno 8009 bound_to 7997
  154.6721  140.0535  157.0163 H   0  0  0  0  0  0  0  0  0  0  0  0  # atno 8010 bound_to 7997
  139.5065  144.3417  152.0012 H   0  0  0  0  0  0  0  0  0  0  0  0  # atno 10167 bound_to 10162
  156.2197  130.6971  151.0742 H   0  0  0  0  0  0  0  0  0  0  0  0  # atno 10718 bound_to 10713
  154.6235  135.2878  155.0299 H   0  0  0  0  0  0  0  0  0  0  0  0  # atno 10763 bound_to 10752
  154.1485  135.6507  153.4962 H   0  0  0  0  0  0  0  0  0  0  0  0  # atno 10764 bound_to 10752
  153.0246  135.5350  154.7034 H   0  0  0  0  0  0  0  0  0  0  0  0  # atno 10765 bound_to 10752
  141.1006  133.6618  156.4262 H   0  0  0  0  0  0  0  0  0  0  0  0  # atno 11005 bound_to 11000
  146.2746  139.6721  142.9272 LP  0  0  0  0  0  0  0  0  0  0  0  0  # atno 17320 bound_to 7965
  145.4591  141.0432  143.2761 LP  0  0  0  0  0  0  0  0  0  0  0  0  # atno 17321 bound_to 7965
  140.2855  144.3812  150.6105 LP  0  0  0  0  0  0  0  0  0  0  0  0  # atno 17342 bound_to 10162
  140.5986  143.2167  151.7116 LP  0  0  0  0  0  0  0  0  0  0  0  0  # atno 17343 bound_to 10162
  157.7081  131.0747  150.6596 LP  0  0  0  0  0  0  0  0  0  0  0  0  # atno 17370 bound_to 10713
  156.6658  130.4525  149.5673 LP  0  0  0  0  0  0  0  0  0  0  0  0  # atno 17371 bound_to 10713
  140.5031  134.6466  157.5256 LP  0  0  0  0  0  0  0  0  0  0  0  0  # atno 17394 bound_to 11000
  139.9856  134.7066  155.9779 LP  0  0  0  0  0  0  0  0  0  0  0  0  # atno 17395 bound_to 11000

$$$$
