AV-unprocessed.smi:561|AV-procd|sdf|2942|dock2
  -GOLD-   2262023443D 1   1.00000     0.00000
 Structure written by MMmdl.
 35 36  0  0  0  0  0  0  0  0  2 V2000
  151.6270  141.0628  158.2929 C   0  0  0  0  0  0  0  0  0  0  0  0
  152.7429  140.6933  159.2800 C   0  0  2  0  0  0  0  0  0  0  0  0
  153.5947  141.9343  159.6520 C   0  0  0  0  0  0  0  0  0  0  0  0
  152.8196  143.1492  159.8814 N   0  0  0  0  0  0  0  0  0  0  0  0
  152.2018  143.9439  158.9211 C   0  0  0  0  0  0  0  0  0  0  0  0
  151.5804  144.9700  159.5956 C   0  0  0  0  0  0  0  0  0  0  0  0
  151.7848  144.8230  160.9651 N   0  0  0  0  0  0  0  0  0  0  0  0
  152.5236  143.7245  161.0579 C   0  0  0  0  0  0  0  0  0  0  0  0
  153.5904  139.6646  158.6649 N   0  5  0  0  0  0  0  0  0  0  0  0
  153.8520  138.4309  159.1955 C   0  0  0  0  0  0  0  0  0  0  0  0
  153.5340  137.3424  158.7010 O   0  0  0  0  0  0  0  0  0  0  0  0
  154.5686  138.3484  160.5026 C   0  0  0  0  0  0  0  0  0  0  0  0
  155.2740  139.3564  160.9123 N   0  0  0  0  0  0  0  0  0  0  0  0
  155.9328  139.3518  162.1241 N   0  0  0  0  0  0  0  0  0  0  0  0
  156.4500  140.6524  162.5443 C   0  0  0  0  0  0  0  0  0  0  0  0
  156.1316  138.2509  162.8898 C   0  0  0  0  0  0  0  0  0  0  0  0
  156.7003  138.2699  163.9818 O   0  0  0  0  0  0  0  0  0  0  0  0
  155.6349  136.9221  162.3156 C   0  0  0  0  0  0  0  0  0  0  0  0
  154.4343  137.1067  161.3666 C   0  0  0  0  0  0  0  0  0  0  0  0
  150.9598  141.8115  158.7208 H   0  0  0  0  0  0  0  0  0  0  0  0
  151.0213  140.1920  158.0393 H   0  0  0  0  0  0  0  0  0  0  0  0
  152.0316  141.4700  157.3655 H   0  0  0  0  0  0  0  0  0  0  0  0
  152.2566  140.3339  160.1882 H   0  0  0  0  0  0  0  0  0  0  0  0
  154.1928  141.7327  160.5419 H   0  0  0  0  0  0  0  0  0  0  0  0
  154.3039  142.1443  158.8504 H   0  0  0  0  0  0  0  0  0  0  0  0
  152.2662  143.7220  157.8661 H   0  0  0  0  0  0  0  0  0  0  0  0
  151.0029  145.7939  159.2032 H   0  0  0  0  0  0  0  0  0  0  0  0
  152.8607  143.3282  162.0046 H   0  0  0  0  0  0  0  0  0  0  0  0
  157.5316  140.6108  162.6797 H   0  0  0  0  0  0  0  0  0  0  0  0
  155.9982  140.9576  163.4891 H   0  0  0  0  0  0  0  0  0  0  0  0
  156.2403  141.4328  161.8107 H   0  0  0  0  0  0  0  0  0  0  0  0
  156.4654  136.4713  161.7711 H   0  0  0  0  0  0  0  0  0  0  0  0
  155.3784  136.2355  163.1229 H   0  0  0  0  0  0  0  0  0  0  0  0
  153.5100  137.1689  161.9418 H   0  0  0  0  0  0  0  0  0  0  0  0
  154.3534  136.2122  160.7485 H   0  0  0  0  0  0  0  0  0  0  0  0
  1  2  1  0  0  0  0
  1 20  1  0  0  0  0
  1 21  1  0  0  0  0
  1 22  1  0  0  0  0
  2  3  1  0  0  0  0
  2  9  1  0  0  0  0
  2 23  1  0  0  0  0
  3  4  1  0  0  0  0
  3 24  1  0  0  0  0
  3 25  1  0  0  0  0
  4  8  1  0  0  0  0
  4  5  1  0  0  0  0
  5  6  2  0  0  0  0
  5 26  1  0  0  0  0
  6  7  1  0  0  0  0
  6 27  1  0  0  0  0
  7  8  2  0  0  0  0
  8 28  1  0  0  0  0
  9 10  1  0  0  0  0
 10 11  2  0  0  0  0
 10 12  1  0  0  0  0
 12 19  1  0  0  0  0
 12 13  2  0  0  0  0
 13 14  1  0  0  0  0
 14 15  1  0  0  0  0
 14 16  1  0  0  0  0
 15 29  1  0  0  0  0
 15 30  1  0  0  0  0
 15 31  1  0  0  0  0
 16 17  2  0  0  0  0
 16 18  1  0  0  0  0
 18 19  1  0  0  0  0
 18 32  1  0  0  0  0
 18 33  1  0  0  0  0
 19 34  1  0  0  0  0
 19 35  1  0  0  0  0
M  CHG  1   9  -1
M  END
> <s_m_source_file>
AV-unprocessed.smi

> <i_m_source_file_index>
561

> <i_lp_mmshare_version>
43012

> <i_f3d_flags>
0

> <s_epik_input>
W2NIXTFuW2NIXVtjSF1uMVtDSDJdW0NAQEhdKFtDSDNdKVtOSF1DKD1PKUMyPU5OKFtDSDNdKUMoPU8pW0NIMl1bQ0gyXTI=

> <s_epik_cmdline>
J2VwaWtfcHl0aG9uJywgJy1waCcsICc3LjAnLCAnLXRuJywgJzgnLCAnLW1hJywgJzIwMCcsICctbWV0YWxfYmluZGluZycsICctaW1hZScsICc8aW5maWxlLm1hZT4nLCAnLW9tYWUnLCAnPG91dGZpbGUubWFlPic=

> <r_lp_tautomer_probability>
1

> <r_epik_Ionization_Penalty>
6.06239

> <r_epik_Ionization_Penalty_Charging>
6.06239

> <r_epik_Ionization_Penalty_Neutral>
3.91387e-09

> <r_epik_State_Penalty>
5.76729

> <r_epik_Charging_Adjusted_Penalty>
11.8297

> <i_epik_Tot_Q>
-1

> <i_epik_Tot_abs_Q>
1

> <r_epik_Metal_State_Penalty>
2.02369

> <b_epik_Metal_Only>
1

> <s_epik_Chemistry_Notes>
This compound has an imine and may undergo hydrolysis.

> <s_lp_Force_Field>
OPLS_2005

> <r_lp_Energy>
24.7282

> <b_lp_Chiralities_Consistent>
1

> <s_lp_Variant>
AV-unprocessed.smi:561-7

> <Gold.Version>
5.8.1

> <Gold.Id.Protein>
6NUR|6NUR_protein|mol2

> <Gold.PLP.Fitness>
43.1601

> <Gold.PLP.PLP>
-39.4325

> <Gold.PLP.part.hbond>
-1.0000

> <Gold.PLP.part.metal>
0.0000

> <Gold.PLP.part.buried>
-4.7329

> <Gold.PLP.part.nonpolar>
-33.7138

> <Gold.PLP.part.repulsive>
0.2347

> <Gold.PLP.ligand.clash>
0.0000

> <Gold.PLP.ligand.torsion>
1.1499

> <Gold.PLP.Chemscore.Hbond>
2.0000

> <Gold.PLP.Chemscore.CHOScore>
0.0000

> <Gold.PLP.Chemscore.Metal>
0.0000

> <Gold.Chemscore.Hbonds>
donor molecule, donor type, donor heavy atom, donor atom, acceptor molecule, acceptor atom, score
      P1  H  7997  8010       L1     9  2.00

> <Gold.PLP.Chemscore.Internal.Correction>
0.0274

> <Gold.Rescore>
     Score         DG    S(hbond)    S(metal)    S(lipo)     H(rot)  DE(clash)    DE(int)     intcor
     12.51     -13.76       0.89        0.00      82.21       1.68       0.15       1.10       ----

> <Gold.Chemscore.Fitness>
12.5085

> <Gold.Chemscore.DG>
-13.7579

> <Gold.Chemscore.ZeroCoef>
-5.4800

> <Gold.Chemscore.Hbond>
0.8860

> <Gold.Chemscore.Metal>
0.0000

> <Gold.Chemscore.Lipo>
82.2071

> <Gold.Chemscore.Internal_Hbond>
0.0000

> <Gold.Chemscore.DEClash>
0.1500

> <Gold.Chemscore.DEInternal>
1.0994

> <Gold.Chemscore.Rot>
1.6796

> <Gold.Chemscore.Internal.Correction>
   9.000000E+99

> <Gold.Chemscore.Hbonds>
donor molecule, donor type, donor heavy atom, donor atom, acceptor molecule, acceptor atom, score
      P1  H  7997  8010       L1     9  0.77

> <Gold.Chemscore.Hbond.Weighted>
-2.9594

> <Gold.Chemscore.Metal.Weighted>
-0.0000

> <Gold.Chemscore.Lipo.Weighted>
-9.6182

> <Gold.Chemscore.Internal_Hbond.Weighted>
0.0000

> <Gold.Chemscore.DEClash.Weighted>
0.1500

> <Gold.Chemscore.DEInternal.Weighted>
1.0994

> <Gold.Chemscore.Rot.Weighted>
4.2997

> <Gold.Chemscore.Internal.Correction.Weighted>
   9.000000E+99

> <Gold.Protein.RotatedTorsions>
[ 6907 6896 6895 6894 ] final  -54.12 input  -60.11 | X-H torsion
[ 7974 7965 7964 7962 ] final  -68.34 input  175.53 | X-H torsion
[ 8008 7997 7996 7995 ] final   21.42 input   59.86 | X-H torsion
[ 10167 10162 10161 10158 ] final  157.88 input  -65.29 | X-H torsion
[ 10718 10713 10712 10709 ] final   71.20 input   66.30 | X-H torsion
[ 10763 10752 10751 10750 ] final   67.86 input  -60.55 | X-H torsion
[ 11005 11000 10999 10996 ] final  -84.31 input  -57.11 | X-H torsion

> <Gold.Protein.ActiveResidues>
 VAL166  LYS551  ARG553  GLY616  TRP617  ASP618  TYR619  PRO620  LYS621  CYS622 
 ASP623  PHE694  ASN695  SER759  ASP760  ASP761  ALA762  ILE779  LEU786  VAL792 
 PHE793  MET794  SER795  GLU796  ALA797  LYS798  CYS799  TRP800  GLU811  SER814 

> <Gold.Protein.RotatedAtoms>
  150.8366  134.7642  159.6897 H   0  0  0  0  0  0  0  0  0  0  0  0  # atno 6907 bound_to 6896
  152.4462  134.5487  159.9870 H   0  0  0  0  0  0  0  0  0  0  0  0  # atno 6908 bound_to 6896
  151.5636  133.3362  159.3011 H   0  0  0  0  0  0  0  0  0  0  0  0  # atno 6909 bound_to 6896
  145.7177  140.9052  143.0647 H   0  0  0  0  0  0  0  0  0  0  0  0  # atno 7974 bound_to 7965
  154.9504  140.3065  155.5078 H   0  0  0  0  0  0  0  0  0  0  0  0  # atno 8008 bound_to 7997
  156.2987  140.2320  156.4519 H   0  0  0  0  0  0  0  0  0  0  0  0  # atno 8009 bound_to 7997
  154.8060  140.0431  157.1296 H   0  0  0  0  0  0  0  0  0  0  0  0  # atno 8010 bound_to 7997
  139.4824  144.4877  151.8354 H   0  0  0  0  0  0  0  0  0  0  0  0  # atno 10167 bound_to 10162
  157.6440  130.9516  150.0757 H   0  0  0  0  0  0  0  0  0  0  0  0  # atno 10718 bound_to 10713
  153.0207  135.5268  154.7045 H   0  0  0  0  0  0  0  0  0  0  0  0  # atno 10763 bound_to 10752
  154.6145  135.2882  155.0398 H   0  0  0  0  0  0  0  0  0  0  0  0  # atno 10764 bound_to 10752
  154.1407  135.6578  153.4994 H   0  0  0  0  0  0  0  0  0  0  0  0  # atno 10765 bound_to 10752
  141.1651  133.7339  156.8848 H   0  0  0  0  0  0  0  0  0  0  0  0  # atno 11005 bound_to 11000
  144.6925  139.9160  143.7465 LP  0  0  0  0  0  0  0  0  0  0  0  0  # atno 17320 bound_to 7965
  146.0655  139.3646  143.0555 LP  0  0  0  0  0  0  0  0  0  0  0  0  # atno 17321 bound_to 7965
  140.4358  144.2054  150.5889 LP  0  0  0  0  0  0  0  0  0  0  0  0  # atno 17342 bound_to 10162
  140.4733  143.2405  151.9058 LP  0  0  0  0  0  0  0  0  0  0  0  0  # atno 17343 bound_to 10162
  156.1748  130.3648  149.9115 LP  0  0  0  0  0  0  0  0  0  0  0  0  # atno 17370 bound_to 10713
  156.7082  130.8960  151.3606 LP  0  0  0  0  0  0  0  0  0  0  0  0  # atno 17371 bound_to 10713
  140.1689  134.9113  157.2809 LP  0  0  0  0  0  0  0  0  0  0  0  0  # atno 17394 bound_to 11000
  140.2524  134.3667  155.7437 LP  0  0  0  0  0  0  0  0  0  0  0  0  # atno 17395 bound_to 11000

$$$$
