AV-unprocessed.smi:1555|AV-procd|sdf|6265|dock10
  -GOLD-   22720 6453D 1   1.00000     0.00000
 Structure written by MMmdl.
 42 43  0  0  0  0  0  0  0  0  2 V2000
  144.7304  132.7620  150.5841 C   0  0  0  0  0  0  0  0  0  0  0  0
  145.9267  132.6914  151.5440 C   0  0  1  0  0  0  0  0  0  0  0  0
  145.6990  133.5530  152.8004 C   0  0  0  0  0  0  0  0  0  0  0  0
  144.8643  134.7283  152.5311 N   0  0  0  0  0  0  0  0  0  0  0  0
  143.5897  134.9649  152.9791 C   0  0  0  0  0  0  0  0  0  0  0  0
  143.2203  136.1866  152.4783 C   0  0  0  0  0  0  0  0  0  0  0  0
  144.2834  136.6431  151.7460 N   0  3  0  0  0  0  0  0  0  0  0  0
  145.2815  135.7541  151.7780 C   0  0  0  0  0  0  0  0  0  0  0  0
  146.1646  131.3021  151.9289 N   0  0  0  0  0  0  0  0  0  0  0  0
  147.0330  130.8789  152.8633 C   0  0  0  0  0  0  0  0  0  0  0  0
  147.7438  131.6592  153.4981 O   0  0  0  0  0  0  0  0  0  0  0  0
  147.0554  129.5343  153.0465 N   0  0  0  0  0  0  0  0  0  0  0  0
  146.2268  128.5415  152.3419 C   0  0  0  0  0  0  0  0  0  0  0  0
  147.1165  127.7729  151.3490 C   0  0  0  0  0  0  0  0  0  0  0  0
  148.3092  127.1011  152.0656 C   0  0  0  0  0  0  0  0  0  0  0  0
  149.2510  126.4221  151.0547 C   0  0  0  0  0  0  0  0  0  0  0  0
  150.3050  125.7576  151.7192 O   0  0  0  0  0  0  0  0  0  0  0  0
  149.0490  128.1206  152.9637 C   0  0  0  0  0  0  0  0  0  0  0  0
  148.0699  128.8778  153.8798 C   0  0  0  0  0  0  0  0  0  0  0  0
  144.5409  133.7880  150.2681 H   0  0  0  0  0  0  0  0  0  0  0  0
  143.8208  132.3847  151.0531 H   0  0  0  0  0  0  0  0  0  0  0  0
  144.9119  132.1710  149.6857 H   0  0  0  0  0  0  0  0  0  0  0  0
  146.7991  133.0860  151.0203 H   0  0  0  0  0  0  0  0  0  0  0  0
  145.2062  132.9704  153.5803 H   0  0  0  0  0  0  0  0  0  0  0  0
  146.6481  133.8976  153.2141 H   0  0  0  0  0  0  0  0  0  0  0  0
  143.0550  134.2665  153.6064 H   0  0  0  0  0  0  0  0  0  0  0  0
  142.3050  136.7504  152.5856 H   0  0  0  0  0  0  0  0  0  0  0  0
  146.2376  135.8485  151.2944 H   0  0  0  0  0  0  0  0  0  0  0  0
  145.6259  130.5992  151.4440 H   0  0  0  0  0  0  0  0  0  0  0  0
  145.8006  127.8503  153.0704 H   0  0  0  0  0  0  0  0  0  0  0  0
  145.3702  128.9670  151.8191 H   0  0  0  0  0  0  0  0  0  0  0  0
  146.5223  127.0205  150.8294 H   0  0  0  0  0  0  0  0  0  0  0  0
  147.4826  128.4599  150.5846 H   0  0  0  0  0  0  0  0  0  0  0  0
  147.8973  126.3257  152.7138 H   0  0  0  0  0  0  0  0  0  0  0  0
  148.7060  125.6861  150.4629 H   0  0  0  0  0  0  0  0  0  0  0  0
  149.6657  127.1516  150.3583 H   0  0  0  0  0  0  0  0  0  0  0  0
  151.0934  126.2690  151.6185 H   0  0  0  0  0  0  0  0  0  0  0  0
  149.7988  127.6136  153.5716 H   0  0  0  0  0  0  0  0  0  0  0  0
  149.5894  128.8369  152.3431 H   0  0  0  0  0  0  0  0  0  0  0  0
  148.6197  129.5789  154.5091 H   0  0  0  0  0  0  0  0  0  0  0  0
  147.5841  128.1832  154.5664 H   0  0  0  0  0  0  0  0  0  0  0  0
  144.3129  137.5261  151.2517 H   0  0  0  0  0  0  0  0  0  0  0  0
  1  2  1  0  0  0  0
  1 20  1  0  0  0  0
  1 21  1  0  0  0  0
  1 22  1  0  0  0  0
  2  3  1  0  0  0  0
  2  9  1  0  0  0  0
  2 23  1  0  0  0  0
  3  4  1  0  0  0  0
  3 24  1  0  0  0  0
  3 25  1  0  0  0  0
  4  8  1  0  0  0  0
  4  5  1  0  0  0  0
  5  6  2  0  0  0  0
  5 26  1  0  0  0  0
  6  7  1  0  0  0  0
  6 27  1  0  0  0  0
  7  8  2  0  0  0  0
  7 42  1  0  0  0  0
  8 28  1  0  0  0  0
  9 10  1  0  0  0  0
  9 29  1  0  0  0  0
 10 11  2  0  0  0  0
 10 12  1  0  0  0  0
 12 19  1  0  0  0  0
 12 13  1  0  0  0  0
 13 14  1  0  0  0  0
 13 30  1  0  0  0  0
 13 31  1  0  0  0  0
 14 15  1  0  0  0  0
 14 32  1  0  0  0  0
 14 33  1  0  0  0  0
 15 16  1  0  0  0  0
 15 18  1  0  0  0  0
 15 34  1  0  0  0  0
 16 17  1  0  0  0  0
 16 35  1  0  0  0  0
 16 36  1  0  0  0  0
 17 37  1  0  0  0  0
 18 19  1  0  0  0  0
 18 38  1  0  0  0  0
 18 39  1  0  0  0  0
 19 40  1  0  0  0  0
 19 41  1  0  0  0  0
M  CHG  1   7   1
M  END
> <s_m_source_file>
AV-unprocessed.smi

> <i_m_source_file_index>
1555

> <i_lp_mmshare_version>
43012

> <i_f3d_flags>
0

> <s_epik_input>
W2NIXTFuW2NIXVtjSF1uMVtDSDJdW0NAQEhdKFtDSDNdKVtOSF1DKD1PKU4yW0NIMl1bQ0gyXVtDSF0oW0NIMl1bT0hdKVtDSDJdW0NIMl0y

> <s_epik_cmdline>
J2VwaWtfcHl0aG9uJywgJy1waCcsICc3LjAnLCAnLXRuJywgJzgnLCAnLW1hJywgJzIwMCcsICctbWV0YWxfYmluZGluZycsICctaW1hZScsICc8aW5maWxlLm1hZT4nLCAnLW9tYWUnLCAnPG91dGZpbGUubWFlPic=

> <r_lp_tautomer_probability>
1

> <r_epik_Ionization_Penalty>
0.253261

> <r_epik_Ionization_Penalty_Charging>
0

> <r_epik_Ionization_Penalty_Neutral>
0.253261

> <r_epik_State_Penalty>
0.244619

> <r_epik_Charging_Adjusted_Penalty>
0.244619

> <i_epik_Tot_Q>
1

> <i_epik_Tot_abs_Q>
1

> <r_epik_Metal_State_Penalty>
0.535039

> <b_epik_Metal_Only>
0

> <s_lp_Force_Field>
OPLS_2005

> <r_lp_Energy>
35.1674

> <b_lp_Chiralities_Consistent>
1

> <s_lp_Variant>
AV-unprocessed.smi:1555-2

> <Gold.Version>
5.8.1

> <Gold.Id.Protein>
6NUR|6NUR_protein|mol2

> <Gold.PLP.Fitness>
43.4764

> <Gold.PLP.PLP>
-35.2658

> <Gold.PLP.part.hbond>
-2.2633

> <Gold.PLP.part.metal>
0.0000

> <Gold.PLP.part.buried>
-5.7596

> <Gold.PLP.part.nonpolar>
-28.1677

> <Gold.PLP.part.repulsive>
0.1177

> <Gold.PLP.ligand.clash>
0.0000

> <Gold.PLP.ligand.torsion>
0.5123

> <Gold.PLP.Chemscore.Hbond>
1.9120

> <Gold.PLP.Chemscore.CHOScore>
1.1561

> <Gold.PLP.Chemscore.Metal>
0.0000

> <Gold.Chemscore.Hbonds>
donor molecule, donor type, donor heavy atom, donor atom, acceptor molecule, acceptor atom, score
      L1  H     7    42       P1 10171  1.00
      L1  H    17    37       P1 10737  1.00
      L1  C     5    26       P1 10957  0.35
      L1  C     8    28       P1  7948  0.43

> <Gold.PLP.Chemscore.Internal.Correction>
0.0309

> <Gold.Rescore>
     Score         DG    S(hbond)    S(metal)    S(lipo)     H(rot)  DE(clash)    DE(int)     intcor
     12.77     -14.47       2.00        0.00      75.95       2.56       0.00       1.69       ----

> <Gold.Chemscore.Fitness>
12.7749

> <Gold.Chemscore.DG>
-14.4695

> <Gold.Chemscore.ZeroCoef>
-5.4800

> <Gold.Chemscore.Hbond>
1.9955

> <Gold.Chemscore.Metal>
0.0000

> <Gold.Chemscore.Lipo>
75.9469

> <Gold.Chemscore.Internal_Hbond>
0.0000

> <Gold.Chemscore.DEClash>
0.0004

> <Gold.Chemscore.DEInternal>
1.6942

> <Gold.Chemscore.Rot>
2.5630

> <Gold.Chemscore.Internal.Correction>
   9.000000E+99

> <Gold.Chemscore.Hbonds>
donor molecule, donor type, donor heavy atom, donor atom, acceptor molecule, acceptor atom, score
      L1  H     7    42       P1 10171  0.95
      L1  H    17    37       P1 10737  0.98

> <Gold.Chemscore.Hbond.Weighted>
-6.6649

> <Gold.Chemscore.Metal.Weighted>
-0.0000

> <Gold.Chemscore.Lipo.Weighted>
-8.8858

> <Gold.Chemscore.Internal_Hbond.Weighted>
0.0000

> <Gold.Chemscore.DEClash.Weighted>
0.0004

> <Gold.Chemscore.DEInternal.Weighted>
1.6942

> <Gold.Chemscore.Rot.Weighted>
6.5612

> <Gold.Chemscore.Internal.Correction.Weighted>
   9.000000E+99

> <Gold.Protein.RotatedTorsions>
[ 6907 6896 6895 6894 ] final  -25.51 input  -60.11 | X-H torsion
[ 7974 7965 7964 7962 ] final   51.66 input  175.53 | X-H torsion
[ 8008 7997 7996 7995 ] final   -4.29 input   59.86 | X-H torsion
[ 10167 10162 10161 10158 ] final   54.73 input  -65.29 | X-H torsion
[ 10718 10713 10712 10709 ] final   76.83 input   66.30 | X-H torsion
[ 10763 10752 10751 10750 ] final  155.46 input  -60.55 | X-H torsion
[ 11005 11000 10999 10996 ] final   71.69 input  -57.11 | X-H torsion

> <Gold.Protein.ActiveResidues>
 VAL166  LYS551  ARG553  GLY616  TRP617  ASP618  TYR619  PRO620  LYS621  CYS622 
 ASP623  PHE694  ASN695  SER759  ASP760  ASP761  ALA762  ILE779  LEU786  VAL792 
 PHE793  MET794  SER795  GLU796  ALA797  LYS798  CYS799  TRP800  GLU811  SER814 

> <Gold.Protein.RotatedAtoms>
  151.1742  135.0332  159.8764 H   0  0  0  0  0  0  0  0  0  0  0  0  # atno 6907 bound_to 6896
  152.5447  134.1136  159.8379 H   0  0  0  0  0  0  0  0  0  0  0  0  # atno 6908 bound_to 6896
  151.1245  133.5033  159.2633 H   0  0  0  0  0  0  0  0  0  0  0  0  # atno 6909 bound_to 6896
  145.9891  139.4321  143.0084 H   0  0  0  0  0  0  0  0  0  0  0  0  # atno 7974 bound_to 7965
  154.6158  140.2487  155.7611 H   0  0  0  0  0  0  0  0  0  0  0  0  # atno 8008 bound_to 7997
  156.2398  140.2937  156.0361 H   0  0  0  0  0  0  0  0  0  0  0  0  # atno 8009 bound_to 7997
  155.1977  140.0393  157.2902 H   0  0  0  0  0  0  0  0  0  0  0  0  # atno 8010 bound_to 7997
  140.2270  144.3728  150.6429 H   0  0  0  0  0  0  0  0  0  0  0  0  # atno 10167 bound_to 10162
  157.6688  130.9793  150.1554 H   0  0  0  0  0  0  0  0  0  0  0  0  # atno 10718 bound_to 10713
  154.1687  135.2805  155.3087 H   0  0  0  0  0  0  0  0  0  0  0  0  # atno 10763 bound_to 10752
  154.6091  135.5504  153.7458 H   0  0  0  0  0  0  0  0  0  0  0  0  # atno 10764 bound_to 10752
  153.0171  135.6411  154.1828 H   0  0  0  0  0  0  0  0  0  0  0  0  # atno 10765 bound_to 10752
  139.9530  134.7194  156.0819 H   0  0  0  0  0  0  0  0  0  0  0  0  # atno 11005 bound_to 11000
  145.7656  140.9917  143.1177 LP  0  0  0  0  0  0  0  0  0  0  0  0  # atno 17320 bound_to 7965
  144.6883  139.9384  143.7474 LP  0  0  0  0  0  0  0  0  0  0  0  0  # atno 17321 bound_to 7965
  140.6213  143.2176  151.6687 LP  0  0  0  0  0  0  0  0  0  0  0  0  # atno 17342 bound_to 10162
  139.5124  144.3478  152.0680 LP  0  0  0  0  0  0  0  0  0  0  0  0  # atno 17343 bound_to 10162
  156.2343  130.3685  149.8409 LP  0  0  0  0  0  0  0  0  0  0  0  0  # atno 17370 bound_to 10713
  156.6227  130.8633  151.3479 LP  0  0  0  0  0  0  0  0  0  0  0  0  # atno 17371 bound_to 10713
  141.1196  133.6617  156.3181 LP  0  0  0  0  0  0  0  0  0  0  0  0  # atno 17394 bound_to 11000
  140.5675  134.5873  157.5449 LP  0  0  0  0  0  0  0  0  0  0  0  0  # atno 17395 bound_to 11000

$$$$
