AV-unprocessed.smi:2445|AV-procd|sdf|9639|dock1
  -GOLD-   2272013273D 1   1.00000     0.00000
 Structure written by MMmdl.
 40 41  0  0  0  0  0  0  0  0  1 V2000
  143.8591  132.6878  148.9700 C   0  0  0  0  0  0  0  0  0  0  0  0
  144.4503  133.1236  150.2677 C   0  0  0  0  0  0  0  0  0  0  0  0
  143.9777  134.0852  151.1260 C   0  0  0  0  0  0  0  0  0  0  0  0
  144.7632  134.2579  152.2674 N   0  0  0  0  0  0  0  0  0  0  0  0
  145.8229  133.4448  152.2870 C   0  0  0  0  0  0  0  0  0  0  0  0
  146.8409  133.4305  153.3872 C   0  0  2  0  0  0  0  0  0  0  0  0
  146.8573  132.0921  154.1392 C   0  0  0  0  0  0  0  0  0  0  0  0
  146.7262  134.6481  154.3250 C   0  0  0  0  0  0  0  0  0  0  0  0
  147.8329  135.5797  154.1258 N   0  0  0  0  0  0  0  0  0  0  0  0
  148.2199  136.5178  154.9996 C   0  0  0  0  0  0  0  0  0  0  0  0
  147.7062  136.6908  156.1049 O   0  0  0  0  0  0  0  0  0  0  0  0
  149.2350  137.2494  154.5217 N   0  0  0  0  0  0  0  0  0  0  0  0
  149.8675  138.3554  155.2321 C   0  0  1  0  0  0  0  0  0  0  0  0
  151.3640  138.1711  155.3944 C   0  0  0  0  0  0  0  0  0  0  0  0
  151.8497  139.6086  155.5582 C   0  0  0  0  0  0  0  0  0  0  0  0
  150.9136  140.4293  154.8650 O   0  0  0  0  0  0  0  0  0  0  0  0
  149.8093  139.6498  154.4172 C   0  0  2  0  0  0  0  0  0  0  0  0
  148.5004  140.4315  154.5780 C   0  0  0  0  0  0  0  0  0  0  0  0
  145.9164  132.3994  150.8740 S   0  0  0  0  0  0  0  0  0  0  0  0
  142.9414  133.2352  148.7524 H   0  0  0  0  0  0  0  0  0  0  0  0
  143.6193  131.6247  148.9927 H   0  0  0  0  0  0  0  0  0  0  0  0
  144.5566  132.8600  148.1502 H   0  0  0  0  0  0  0  0  0  0  0  0
  143.0926  134.6923  151.0047 H   0  0  0  0  0  0  0  0  0  0  0  0
  147.8128  133.5121  152.8984 H   0  0  0  0  0  0  0  0  0  0  0  0
  147.0360  131.2612  153.4561 H   0  0  0  0  0  0  0  0  0  0  0  0
  145.9087  131.9094  154.6451 H   0  0  0  0  0  0  0  0  0  0  0  0
  147.6444  132.0746  154.8934 H   0  0  0  0  0  0  0  0  0  0  0  0
  145.7725  135.1481  154.1464 H   0  0  0  0  0  0  0  0  0  0  0  0
  146.7212  134.3258  155.3667 H   0  0  0  0  0  0  0  0  0  0  0  0
  148.3237  135.5200  153.2457 H   0  0  0  0  0  0  0  0  0  0  0  0
  149.5896  137.0346  153.6014 H   0  0  0  0  0  0  0  0  0  0  0  0
  149.4051  138.5079  156.2096 H   0  0  0  0  0  0  0  0  0  0  0  0
  151.6298  137.5338  156.2384 H   0  0  0  0  0  0  0  0  0  0  0  0
  151.7957  137.7370  154.4910 H   0  0  0  0  0  0  0  0  0  0  0  0
  151.8423  139.8942  156.6107 H   0  0  0  0  0  0  0  0  0  0  0  0
  152.8614  139.7496  155.1772 H   0  0  0  0  0  0  0  0  0  0  0  0
  149.9797  139.4290  153.3619 H   0  0  0  0  0  0  0  0  0  0  0  0
  147.6467  139.8385  154.2491 H   0  0  0  0  0  0  0  0  0  0  0  0
  148.5185  141.3464  153.9857 H   0  0  0  0  0  0  0  0  0  0  0  0
  148.3338  140.7110  155.6187 H   0  0  0  0  0  0  0  0  0  0  0  0
  1  2  1  0  0  0  0
  1 20  1  0  0  0  0
  1 21  1  0  0  0  0
  1 22  1  0  0  0  0
  2 19  1  0  0  0  0
  2  3  2  0  0  0  0
  3  4  1  0  0  0  0
  3 23  1  0  0  0  0
  4  5  2  0  0  0  0
  5  6  1  0  0  0  0
  5 19  1  0  0  0  0
  6  7  1  0  0  0  0
  6  8  1  0  0  0  0
  6 24  1  0  0  0  0
  7 25  1  0  0  0  0
  7 26  1  0  0  0  0
  7 27  1  0  0  0  0
  8  9  1  0  0  0  0
  8 28  1  0  0  0  0
  8 29  1  0  0  0  0
  9 10  1  0  0  0  0
  9 30  1  0  0  0  0
 10 11  2  0  0  0  0
 10 12  1  0  0  0  0
 12 13  1  0  0  0  0
 12 31  1  0  0  0  0
 13 17  1  0  0  0  0
 13 14  1  0  0  0  0
 13 32  1  0  0  0  0
 14 15  1  0  0  0  0
 14 33  1  0  0  0  0
 14 34  1  0  0  0  0
 15 16  1  0  0  0  0
 15 35  1  0  0  0  0
 15 36  1  0  0  0  0
 16 17  1  0  0  0  0
 17 18  1  0  0  0  0
 17 37  1  0  0  0  0
 18 38  1  0  0  0  0
 18 39  1  0  0  0  0
 18 40  1  0  0  0  0
M  END
> <s_m_source_file>
AV-unprocessed.smi

> <i_m_source_file_index>
2445

> <i_lp_mmshare_version>
43012

> <i_f3d_flags>
0

> <s_epik_input>
W0NIM11jMVtjSF1uYyhzMSlbQ0BIXShbQ0gzXSlbQ0gyXVtOSF1DKD1PKVtOSF1bQ0BASF0yW0NIMl1bQ0gyXU9bQ0BIXTJbQ0gzXQ==

> <s_epik_cmdline>
J2VwaWtfcHl0aG9uJywgJy1waCcsICc3LjAnLCAnLXRuJywgJzgnLCAnLW1hJywgJzIwMCcsICctbWV0YWxfYmluZGluZycsICctaW1hZScsICc8aW5maWxlLm1hZT4nLCAnLW9tYWUnLCAnPG91dGZpbGUubWFlPic=

> <r_epik_Ionization_Penalty>
0.000649483

> <r_epik_Ionization_Penalty_Charging>
0

> <r_epik_Ionization_Penalty_Neutral>
0.000649483

> <r_epik_State_Penalty>
0.000379895

> <r_epik_Charging_Adjusted_Penalty>
0.000379895

> <i_epik_Tot_Q>
0

> <i_epik_Tot_abs_Q>
0

> <r_epik_Metal_State_Penalty>
-0

> <b_epik_Metal_Only>
0

> <s_lp_Force_Field>
OPLS_2005

> <r_lp_Energy>
6.75485

> <b_lp_Chiralities_Consistent>
1

> <s_lp_Variant>
AV-unprocessed.smi:2445-7

> <Gold.Version>
5.8.1

> <Gold.Id.Protein>
6NUR|6NUR_protein|mol2

> <Gold.PLP.Fitness>
39.2932

> <Gold.PLP.PLP>
-29.9147

> <Gold.PLP.part.hbond>
-3.0000

> <Gold.PLP.part.metal>
0.0000

> <Gold.PLP.part.buried>
-3.5774

> <Gold.PLP.part.nonpolar>
-23.2963

> <Gold.PLP.part.repulsive>
0.1926

> <Gold.PLP.ligand.clash>
0.0000

> <Gold.PLP.ligand.torsion>
1.0294

> <Gold.PLP.Chemscore.Hbond>
2.7840

> <Gold.PLP.Chemscore.CHOScore>
0.9858

> <Gold.PLP.Chemscore.Metal>
0.0000

> <Gold.Chemscore.Hbonds>
donor molecule, donor type, donor heavy atom, donor atom, acceptor molecule, acceptor atom, score
      L1  H     9    30       P1  7948  1.00
      L1  H    12    31       P1  7948  0.82
      P1  H  7989  7998       L1    16  1.00
      L1  C     3    23       P1 10186  0.83

> <Gold.PLP.Chemscore.Internal.Correction>
0.1281

> <Gold.Rescore>
     Score         DG    S(hbond)    S(metal)    S(lipo)     H(rot)  DE(clash)    DE(int)     intcor
     17.78     -19.00       2.36        0.00      81.68       1.53       0.11       1.11       ----

> <Gold.Chemscore.Fitness>
17.7770

> <Gold.Chemscore.DG>
-19.0010

> <Gold.Chemscore.ZeroCoef>
-5.4800

> <Gold.Chemscore.Hbond>
2.3617

> <Gold.Chemscore.Metal>
0.0000

> <Gold.Chemscore.Lipo>
81.6776

> <Gold.Chemscore.Internal_Hbond>
0.0000

> <Gold.Chemscore.DEClash>
0.1129

> <Gold.Chemscore.DEInternal>
1.1111

> <Gold.Chemscore.Rot>
1.5325

> <Gold.Chemscore.Internal.Correction>
   9.000000E+99

> <Gold.Chemscore.Hbonds>
donor molecule, donor type, donor heavy atom, donor atom, acceptor molecule, acceptor atom, score
      L1  H     9    30       P1  7948  0.97
      L1  H    12    31       P1  7948  0.65
      P1  H  7989  7998       L1    16  0.24

> <Gold.Chemscore.Hbond.Weighted>
-7.8880

> <Gold.Chemscore.Metal.Weighted>
-0.0000

> <Gold.Chemscore.Lipo.Weighted>
-9.5563

> <Gold.Chemscore.Internal_Hbond.Weighted>
0.0000

> <Gold.Chemscore.DEClash.Weighted>
0.1129

> <Gold.Chemscore.DEInternal.Weighted>
1.1111

> <Gold.Chemscore.Rot.Weighted>
3.9233

> <Gold.Chemscore.Internal.Correction.Weighted>
   9.000000E+99

> <Gold.Protein.RotatedTorsions>
[ 6907 6896 6895 6894 ] final  134.48 input  -60.11 | X-H torsion
[ 7974 7965 7964 7962 ] final   -8.34 input  175.53 | X-H torsion
[ 8008 7997 7996 7995 ] final  143.35 input   59.86 | X-H torsion
[ 10167 10162 10161 10158 ] final  175.29 input  -65.29 | X-H torsion
[ 10718 10713 10712 10709 ] final  -47.87 input   66.30 | X-H torsion
[ 10763 10752 10751 10750 ] final -170.27 input  -60.55 | X-H torsion
[ 11005 11000 10999 10996 ] final   45.22 input  -57.11 | X-H torsion

> <Gold.Protein.ActiveResidues>
 VAL166  LYS551  ARG553  GLY616  TRP617  ASP618  TYR619  PRO620  LYS621  CYS622 
 ASP623  PHE694  ASN695  SER759  ASP760  ASP761  ALA762  ILE779  LEU786  VAL792 
 PHE793  MET794  SER795  GLU796  ALA797  LYS798  CYS799  TRP800  GLU811  SER814 

> <Gold.Protein.RotatedAtoms>
  152.3108  133.5751  159.5679 H   0  0  0  0  0  0  0  0  0  0  0  0  # atno 6907 bound_to 6896
  150.7322  134.0154  159.3692 H   0  0  0  0  0  0  0  0  0  0  0  0  # atno 6908 bound_to 6896
  151.8047  135.0699  160.0456 H   0  0  0  0  0  0  0  0  0  0  0  0  # atno 6909 bound_to 6896
  146.2283  140.2453  142.8345 H   0  0  0  0  0  0  0  0  0  0  0  0  # atno 7974 bound_to 7965
  156.2932  140.2264  156.4877 H   0  0  0  0  0  0  0  0  0  0  0  0  # atno 8008 bound_to 7997
  154.7798  140.0461  157.1139 H   0  0  0  0  0  0  0  0  0  0  0  0  # atno 8009 bound_to 7997
  154.9772  140.3074  155.4965 H   0  0  0  0  0  0  0  0  0  0  0  0  # atno 8010 bound_to 7997
  139.5172  144.3048  152.0346 H   0  0  0  0  0  0  0  0  0  0  0  0  # atno 10167 bound_to 10162
  156.2043  130.4157  149.9199 H   0  0  0  0  0  0  0  0  0  0  0  0  # atno 10718 bound_to 10713
  154.6434  135.2901  155.0076 H   0  0  0  0  0  0  0  0  0  0  0  0  # atno 10763 bound_to 10752
  154.1195  135.6550  153.4904 H   0  0  0  0  0  0  0  0  0  0  0  0  # atno 10764 bound_to 10752
  153.0338  135.5284  154.7310 H   0  0  0  0  0  0  0  0  0  0  0  0  # atno 10765 bound_to 10752
  140.1480  134.4498  155.8402 H   0  0  0  0  0  0  0  0  0  0  0  0  # atno 11005 bound_to 11000
  144.9453  140.8121  143.5605 LP  0  0  0  0  0  0  0  0  0  0  0  0  # atno 17320 bound_to 7965
  145.2409  139.2073  143.4993 LP  0  0  0  0  0  0  0  0  0  0  0  0  # atno 17321 bound_to 7965
  140.2494  144.4185  150.6228 LP  0  0  0  0  0  0  0  0  0  0  0  0  # atno 17342 bound_to 10162
  140.6235  143.2179  151.6645 LP  0  0  0  0  0  0  0  0  0  0  0  0  # atno 17343 bound_to 10162
  156.6898  130.8891  151.3587 LP  0  0  0  0  0  0  0  0  0  0  0  0  # atno 17370 bound_to 10713
  157.7003  130.9326  150.0766 LP  0  0  0  0  0  0  0  0  0  0  0  0  # atno 17371 bound_to 10713
  141.2195  133.6860  156.7369 LP  0  0  0  0  0  0  0  0  0  0  0  0  # atno 17394 bound_to 11000
  140.2640  134.8444  157.3785 LP  0  0  0  0  0  0  0  0  0  0  0  0  # atno 17395 bound_to 11000

$$$$
