AV-unprocessed.smi:798|AV-procd|sdf|3770|dock2
  -GOLD-   22720 1203D 1   1.00000     0.00000
 Structure written by MMmdl.
 34 36  0  0  0  0  0  0  0  0  1 V2000
  145.2931  137.9068  153.8760 O   0  0  0  0  0  0  0  0  0  0  0  0
  146.3442  137.4140  153.4661 C   0  0  0  0  0  0  0  0  0  0  0  0
  147.5222  138.0553  153.3749 N   0  0  0  0  0  0  0  0  0  0  0  0
  147.8332  139.3870  153.7558 C   0  0  0  0  0  0  0  0  0  0  0  0
  146.9577  140.4027  153.6970 N   0  0  0  0  0  0  0  0  0  0  0  0
  147.5175  141.5967  154.1336 N   0  0  0  0  0  0  0  0  0  0  0  0
  148.7909  141.4344  154.5041 C   0  0  0  0  0  0  0  0  0  0  0  0
  149.4305  139.8066  154.3579 S   0  0  0  0  0  0  0  0  0  0  0  0
  146.4545  136.1426  153.0549 N   0  0  0  0  0  0  0  0  0  0  0  0
  145.3659  135.1650  153.0115 C   0  0  1  0  0  0  0  0  0  0  0  0
  144.2851  135.6235  152.0090 C   0  0  2  0  0  0  0  0  0  0  0  0
  142.9981  134.8127  152.2469 C   0  0  0  0  0  0  0  0  0  0  0  0
  143.3766  133.4197  151.7090 C   0  0  0  0  0  0  0  0  0  0  0  0
  144.8318  133.6168  151.2389 C   0  0  1  0  0  0  0  0  0  0  0  0
  144.7822  135.0377  150.6926 C   0  0  0  0  0  0  0  0  0  0  0  0
  145.7570  133.7540  152.4736 C   0  0  1  0  0  0  0  0  0  0  0  0
  147.2518  133.5360  152.1459 C   0  0  0  0  0  0  0  0  0  0  0  0
  147.5845  132.1671  152.2406 O   0  0  0  0  0  0  0  0  0  0  0  0
  148.2936  137.5224  153.0014 H   0  0  0  0  0  0  0  0  0  0  0  0
  149.3574  142.2790  154.8674 H   0  0  0  0  0  0  0  0  0  0  0  0
  147.3581  135.8243  152.7362 H   0  0  0  0  0  0  0  0  0  0  0  0
  144.9290  135.0842  154.0088 H   0  0  0  0  0  0  0  0  0  0  0  0
  144.1164  136.7013  151.9999 H   0  0  0  0  0  0  0  0  0  0  0  0
  142.7065  134.7901  153.2976 H   0  0  0  0  0  0  0  0  0  0  0  0
  142.1658  135.2290  151.6780 H   0  0  0  0  0  0  0  0  0  0  0  0
  143.2848  132.6399  152.4660 H   0  0  0  0  0  0  0  0  0  0  0  0
  142.7327  133.1471  150.8718 H   0  0  0  0  0  0  0  0  0  0  0  0
  145.1526  132.8625  150.5200 H   0  0  0  0  0  0  0  0  0  0  0  0
  144.0751  135.1609  149.8702 H   0  0  0  0  0  0  0  0  0  0  0  0
  145.7555  135.4220  150.3839 H   0  0  0  0  0  0  0  0  0  0  0  0
  145.4794  133.0066  153.2193 H   0  0  0  0  0  0  0  0  0  0  0  0
  147.5011  133.8962  151.1476 H   0  0  0  0  0  0  0  0  0  0  0  0
  147.8808  134.0746  152.8547 H   0  0  0  0  0  0  0  0  0  0  0  0
  147.8107  131.8528  151.3785 H   0  0  0  0  0  0  0  0  0  0  0  0
  1  2  2  0  0  0  0
  2  3  1  0  0  0  0
  2  9  1  0  0  0  0
  3  4  1  0  0  0  0
  3 19  1  0  0  0  0
  4  8  1  0  0  0  0
  4  5  2  0  0  0  0
  5  6  1  0  0  0  0
  6  7  2  0  0  0  0
  7  8  1  0  0  0  0
  7 20  1  0  0  0  0
  9 10  1  0  0  0  0
  9 21  1  0  0  0  0
 10 16  1  0  0  0  0
 10 11  1  0  0  0  0
 10 22  1  0  0  0  0
 11 15  1  0  0  0  0
 11 12  1  0  0  0  0
 11 23  1  0  0  0  0
 12 13  1  0  0  0  0
 12 24  1  0  0  0  0
 12 25  1  0  0  0  0
 13 14  1  0  0  0  0
 13 26  1  0  0  0  0
 13 27  1  0  0  0  0
 14 15  1  0  0  0  0
 14 16  1  0  0  0  0
 14 28  1  0  0  0  0
 15 29  1  0  0  0  0
 15 30  1  0  0  0  0
 16 17  1  0  0  0  0
 16 31  1  0  0  0  0
 17 18  1  0  0  0  0
 17 32  1  0  0  0  0
 17 33  1  0  0  0  0
 18 34  1  0  0  0  0
M  END
> <s_m_source_file>
AV-unprocessed.smi

> <i_m_source_file_index>
798

> <i_lp_mmshare_version>
43012

> <i_f3d_flags>
0

> <s_epik_input>
W0NIMl0xW0NIMl1bQ0BASF0oW0NIMl0yKVtDQEBIXShbQ0gyXVtPSF0pW0NAQEhdKFtDQEhdMTIpW05IXUMoPU8pW05IXWMzbm5bY0hdczM=

> <s_epik_cmdline>
J2VwaWtfcHl0aG9uJywgJy1waCcsICc3LjAnLCAnLXRuJywgJzgnLCAnLW1hJywgJzIwMCcsICctbWV0YWxfYmluZGluZycsICctaW1hZScsICc8aW5maWxlLm1hZT4nLCAnLW9tYWUnLCAnPG91dGZpbGUubWFlPic=

> <r_lp_tautomer_probability>
1

> <r_epik_Ionization_Penalty>
0.000329046

> <r_epik_Ionization_Penalty_Charging>
0

> <r_epik_Ionization_Penalty_Neutral>
0.000329046

> <r_epik_State_Penalty>
-0

> <r_epik_Charging_Adjusted_Penalty>
0

> <i_epik_Tot_Q>
0

> <i_epik_Tot_abs_Q>
0

> <r_epik_Metal_State_Penalty>
0.173433

> <b_epik_Metal_Only>
0

> <s_lp_Force_Field>
OPLS_2005

> <r_lp_Energy>
49.2939

> <b_lp_Chiralities_Consistent>
1

> <s_lp_Variant>
AV-unprocessed.smi:798-2

> <Gold.Version>
5.8.1

> <Gold.Id.Protein>
6NUR|6NUR_protein|mol2

> <Gold.PLP.Fitness>
38.0871

> <Gold.PLP.PLP>
-27.1886

> <Gold.PLP.part.hbond>
-3.0000

> <Gold.PLP.part.metal>
0.0000

> <Gold.PLP.part.buried>
-4.1217

> <Gold.PLP.part.nonpolar>
-20.6831

> <Gold.PLP.part.repulsive>
0.4697

> <Gold.PLP.ligand.clash>
0.0000

> <Gold.PLP.ligand.torsion>
0.5336

> <Gold.PLP.Chemscore.Hbond>
2.9840

> <Gold.PLP.Chemscore.CHOScore>
1.0000

> <Gold.PLP.Chemscore.Metal>
0.0000

> <Gold.Chemscore.Hbonds>
donor molecule, donor type, donor heavy atom, donor atom, acceptor molecule, acceptor atom, score
      L1  H     3    19       P1  7948  1.00
      L1  H     9    21       P1  7948  0.96
      L1  H    18    34       P1 10747  0.98
      L1  C     7    20       P1  8028  0.83

> <Gold.PLP.Chemscore.Internal.Correction>
0.0136

> <Gold.Rescore>
     Score         DG    S(hbond)    S(metal)    S(lipo)     H(rot)  DE(clash)    DE(int)     intcor
     15.05     -16.79       2.93        0.00      55.57       1.94       0.08       1.66       ----

> <Gold.Chemscore.Fitness>
15.0540

> <Gold.Chemscore.DG>
-16.7896

> <Gold.Chemscore.ZeroCoef>
-5.4800

> <Gold.Chemscore.Hbond>
2.9298

> <Gold.Chemscore.Metal>
0.0000

> <Gold.Chemscore.Lipo>
55.5666

> <Gold.Chemscore.Internal_Hbond>
0.0000

> <Gold.Chemscore.DEClash>
0.0775

> <Gold.Chemscore.DEInternal>
1.6581

> <Gold.Chemscore.Rot>
1.9442

> <Gold.Chemscore.Internal.Correction>
   9.000000E+99

> <Gold.Chemscore.Hbonds>
donor molecule, donor type, donor heavy atom, donor atom, acceptor molecule, acceptor atom, score
      L1  H     3    19       P1  7948  0.95
      L1  H     9    21       P1  7948  0.92
      L1  H    18    34       P1 10747  0.93

> <Gold.Chemscore.Hbond.Weighted>
-9.7854

> <Gold.Chemscore.Metal.Weighted>
-0.0000

> <Gold.Chemscore.Lipo.Weighted>
-6.5013

> <Gold.Chemscore.Internal_Hbond.Weighted>
0.0000

> <Gold.Chemscore.DEClash.Weighted>
0.0775

> <Gold.Chemscore.DEInternal.Weighted>
1.6581

> <Gold.Chemscore.Rot.Weighted>
4.9771

> <Gold.Chemscore.Internal.Correction.Weighted>
   9.000000E+99

> <Gold.Protein.RotatedTorsions>
[ 6907 6896 6895 6894 ] final  -17.82 input  -60.11 | X-H torsion
[ 7974 7965 7964 7962 ] final   63.49 input  175.53 | X-H torsion
[ 8008 7997 7996 7995 ] final  -95.44 input   59.86 | X-H torsion
[ 10167 10162 10161 10158 ] final  -52.59 input  -65.29 | X-H torsion
[ 10718 10713 10712 10709 ] final   44.85 input   66.30 | X-H torsion
[ 10763 10752 10751 10750 ] final -167.47 input  -60.55 | X-H torsion
[ 11005 11000 10999 10996 ] final  -25.98 input  -57.11 | X-H torsion

> <Gold.Protein.ActiveResidues>
 VAL166  LYS551  ARG553  GLY616  TRP617  ASP618  TYR619  PRO620  LYS621  CYS622 
 ASP623  PHE694  ASN695  SER759  ASP760  ASP761  ALA762  ILE779  LEU786  VAL792 
 PHE793  MET794  SER795  GLU796  ALA797  LYS798  CYS799  TRP800  GLU811  SER814 

> <Gold.Protein.RotatedAtoms>
  151.2875  135.0732  159.9191 H   0  0  0  0  0  0  0  0  0  0  0  0  # atno 6907 bound_to 6896
  152.5323  133.9966  159.7886 H   0  0  0  0  0  0  0  0  0  0  0  0  # atno 6908 bound_to 6896
  151.0231  133.5808  159.2699 H   0  0  0  0  0  0  0  0  0  0  0  0  # atno 6909 bound_to 6896
  145.8613  139.3316  143.0817 H   0  0  0  0  0  0  0  0  0  0  0  0  # atno 7974 bound_to 7965
  154.7614  140.0480  157.0977 H   0  0  0  0  0  0  0  0  0  0  0  0  # atno 8008 bound_to 7997
  154.9933  140.3116  155.4878 H   0  0  0  0  0  0  0  0  0  0  0  0  # atno 8009 bound_to 7997
  156.2905  140.2215  156.5039 H   0  0  0  0  0  0  0  0  0  0  0  0  # atno 8010 bound_to 7997
  140.6529  143.2579  151.4669 H   0  0  0  0  0  0  0  0  0  0  0  0  # atno 10167 bound_to 10162
  157.4312  130.8026  149.7605 H   0  0  0  0  0  0  0  0  0  0  0  0  # atno 10718 bound_to 10713
  154.6728  135.2942  154.9719 H   0  0  0  0  0  0  0  0  0  0  0  0  # atno 10763 bound_to 10752
  154.0740  135.6614  153.4832 H   0  0  0  0  0  0  0  0  0  0  0  0  # atno 10764 bound_to 10752
  153.0497  135.5181  154.7732 H   0  0  0  0  0  0  0  0  0  0  0  0  # atno 10765 bound_to 10752
  140.8988  133.7538  156.0516 H   0  0  0  0  0  0  0  0  0  0  0  0  # atno 11005 bound_to 11000
  145.9245  140.9092  143.0388 LP  0  0  0  0  0  0  0  0  0  0  0  0  # atno 17320 bound_to 7965
  144.6726  140.1334  143.7442 LP  0  0  0  0  0  0  0  0  0  0  0  0  # atno 17321 bound_to 7965
  139.5747  144.1846  152.1887 LP  0  0  0  0  0  0  0  0  0  0  0  0  # atno 17342 bound_to 10162
  140.1153  144.5421  150.6898 LP  0  0  0  0  0  0  0  0  0  0  0  0  # atno 17343 bound_to 10162
  155.9914  130.3938  150.2986 LP  0  0  0  0  0  0  0  0  0  0  0  0  # atno 17370 bound_to 10713
  157.1143  131.0230  151.3035 LP  0  0  0  0  0  0  0  0  0  0  0  0  # atno 17371 bound_to 10713
  140.8256  134.3238  157.5367 LP  0  0  0  0  0  0  0  0  0  0  0  0  # atno 17394 bound_to 11000
  139.8739  134.9334  156.3580 LP  0  0  0  0  0  0  0  0  0  0  0  0  # atno 17395 bound_to 11000

$$$$
