AV-unprocessed.smi:2074|AV-procd|sdf|8454|dock8
  -GOLD-   2272011153D 1   1.00000     0.00000
 Structure written by MMmdl.
 44 45  0  0  0  0  0  0  0  0  2 V2000
  146.0618  131.8032  149.0535 C   0  0  0  0  0  0  0  0  0  0  0  0
  144.9724  132.3847  149.9086 C   0  0  0  0  0  0  0  0  0  0  0  0
  143.7384  131.9279  149.7794 N   0  0  0  0  0  0  0  0  0  0  0  0
  142.9639  132.6511  150.6913 O   0  0  0  0  0  0  0  0  0  0  0  0
  143.7719  133.5251  151.3428 C   0  0  0  0  0  0  0  0  0  0  0  0
  143.1243  134.3934  152.3677 C   0  0  0  0  0  0  0  0  0  0  0  0
  145.0598  133.4096  150.8953 C   0  0  0  0  0  0  0  0  0  0  0  0
  146.2792  134.1774  151.3390 C   0  0  0  0  0  0  0  0  0  0  0  0
  146.5984  133.8383  152.7951 C   0  0  0  0  0  0  0  0  0  0  0  0
  145.7658  133.2592  153.4920 O   0  0  0  0  0  0  0  0  0  0  0  0
  147.8113  134.1968  153.2400 N   0  0  0  0  0  0  0  0  0  0  0  0
  148.3178  133.9226  154.5792 C   0  0  0  0  0  0  0  0  0  0  0  0
  149.6519  134.6631  154.8637 C   0  0  2  0  0  0  0  0  0  0  0  0
  150.0344  134.5196  156.3566 C   0  0  0  0  0  0  0  0  0  0  0  0
  149.6253  136.1102  154.4654 N   0  3  0  0  0  0  0  0  0  0  0  0
  148.5459  136.8764  155.1483 C   0  0  0  0  0  0  0  0  0  0  0  0
  148.5046  138.3357  154.6661 C   0  0  0  0  0  0  0  0  0  0  0  0
  149.7638  138.9466  154.9004 O   0  0  0  0  0  0  0  0  0  0  0  0
  150.7947  138.3023  154.1683 C   0  0  0  0  0  0  0  0  0  0  0  0
  150.9187  136.8349  154.6148 C   0  0  0  0  0  0  0  0  0  0  0  0
  147.0477  132.0042  149.4717 H   0  0  0  0  0  0  0  0  0  0  0  0
  146.0360  132.2257  148.0489 H   0  0  0  0  0  0  0  0  0  0  0  0
  145.9594  130.7212  148.9637 H   0  0  0  0  0  0  0  0  0  0  0  0
  143.8653  134.8213  153.0432 H   0  0  0  0  0  0  0  0  0  0  0  0
  142.4140  133.8233  152.9666 H   0  0  0  0  0  0  0  0  0  0  0  0
  142.5865  135.2140  151.8929 H   0  0  0  0  0  0  0  0  0  0  0  0
  147.1471  133.9486  150.7200 H   0  0  0  0  0  0  0  0  0  0  0  0
  146.1226  135.2531  151.2491 H   0  0  0  0  0  0  0  0  0  0  0  0
  148.4319  134.6704  152.5996 H   0  0  0  0  0  0  0  0  0  0  0  0
  147.5351  134.2407  155.2682 H   0  0  0  0  0  0  0  0  0  0  0  0
  148.4539  132.8471  154.7089 H   0  0  0  0  0  0  0  0  0  0  0  0
  150.4212  134.1718  154.2653 H   0  0  0  0  0  0  0  0  0  0  0  0
  150.0533  133.4786  156.6779 H   0  0  0  0  0  0  0  0  0  0  0  0
  149.3235  135.0444  156.9954 H   0  0  0  0  0  0  0  0  0  0  0  0
  151.0275  134.9075  156.5753 H   0  0  0  0  0  0  0  0  0  0  0  0
  147.5691  136.4345  154.9631 H   0  0  0  0  0  0  0  0  0  0  0  0
  148.7067  136.8500  156.2274 H   0  0  0  0  0  0  0  0  0  0  0  0
  148.2457  138.3918  153.6073 H   0  0  0  0  0  0  0  0  0  0  0  0
  147.7391  138.8889  155.2104 H   0  0  0  0  0  0  0  0  0  0  0  0
  150.5931  138.3678  153.0978 H   0  0  0  0  0  0  0  0  0  0  0  0
  151.7329  138.8284  154.3458 H   0  0  0  0  0  0  0  0  0  0  0  0
  151.2487  136.7855  155.6537 H   0  0  0  0  0  0  0  0  0  0  0  0
  151.6943  136.3781  154.0011 H   0  0  0  0  0  0  0  0  0  0  0  0
  149.4150  136.1269  153.4776 H   0  0  0  0  0  0  0  0  0  0  0  0
  1  2  1  0  0  0  0
  1 21  1  0  0  0  0
  1 22  1  0  0  0  0
  1 23  1  0  0  0  0
  2  7  1  0  0  0  0
  2  3  2  0  0  0  0
  3  4  1  0  0  0  0
  4  5  1  0  0  0  0
  5  6  1  0  0  0  0
  5  7  2  0  0  0  0
  6 24  1  0  0  0  0
  6 25  1  0  0  0  0
  6 26  1  0  0  0  0
  7  8  1  0  0  0  0
  8  9  1  0  0  0  0
  8 27  1  0  0  0  0
  8 28  1  0  0  0  0
  9 10  2  0  0  0  0
  9 11  1  0  0  0  0
 11 12  1  0  0  0  0
 11 29  1  0  0  0  0
 12 13  1  0  0  0  0
 12 30  1  0  0  0  0
 12 31  1  0  0  0  0
 13 14  1  0  0  0  0
 13 15  1  0  0  0  0
 13 32  1  0  0  0  0
 14 33  1  0  0  0  0
 14 34  1  0  0  0  0
 14 35  1  0  0  0  0
 15 20  1  0  0  0  0
 15 16  1  0  0  0  0
 15 44  1  0  0  0  0
 16 17  1  0  0  0  0
 16 36  1  0  0  0  0
 16 37  1  0  0  0  0
 17 18  1  0  0  0  0
 17 38  1  0  0  0  0
 17 39  1  0  0  0  0
 18 19  1  0  0  0  0
 19 20  1  0  0  0  0
 19 40  1  0  0  0  0
 19 41  1  0  0  0  0
 20 42  1  0  0  0  0
 20 43  1  0  0  0  0
M  CHG  1  15   1
M  END
> <s_m_source_file>
AV-unprocessed.smi

> <i_m_source_file_index>
2074

> <i_lp_mmshare_version>
43012

> <i_f3d_flags>
0

> <s_epik_input>
W0NIM11jMW5vYyhbQ0gzXSljMVtDSDJdQyg9TylbTkhdW0NIMl1bQ0BIXShbQ0gzXSlOMltDSDJdW0NIMl1PW0NIMl1bQ0gyXTI=

> <s_epik_cmdline>
J2VwaWtfcHl0aG9uJywgJy1waCcsICc3LjAnLCAnLXRuJywgJzgnLCAnLW1hJywgJzIwMCcsICctbWV0YWxfYmluZGluZycsICctaW1hZScsICc8aW5maWxlLm1hZT4nLCAnLW9tYWUnLCAnPG91dGZpbGUubWFlPic=

> <r_epik_Ionization_Penalty>
0.663207

> <r_epik_Ionization_Penalty_Charging>
0.663207

> <r_epik_Ionization_Penalty_Neutral>
1.0751e-07

> <r_epik_State_Penalty>
0.682743

> <r_epik_Charging_Adjusted_Penalty>
1.34595

> <i_epik_Tot_Q>
1

> <i_epik_Tot_abs_Q>
1

> <r_epik_Metal_State_Penalty>
0.682743

> <b_epik_Metal_Only>
0

> <s_lp_Force_Field>
OPLS_2005

> <r_lp_Energy>
15.5823

> <b_lp_Chiralities_Consistent>
1

> <s_lp_Variant>
AV-unprocessed.smi:2074-3

> <Gold.Version>
5.8.1

> <Gold.Id.Protein>
6NUR|6NUR_protein|mol2

> <Gold.PLP.Fitness>
43.0969

> <Gold.PLP.PLP>
-32.2638

> <Gold.PLP.part.hbond>
-3.0000

> <Gold.PLP.part.metal>
0.0000

> <Gold.PLP.part.buried>
-6.1969

> <Gold.PLP.part.nonpolar>
-24.4973

> <Gold.PLP.part.repulsive>
1.3562

> <Gold.PLP.ligand.clash>
0.0000

> <Gold.PLP.ligand.torsion>
0.3285

> <Gold.PLP.Chemscore.Hbond>
3.8160

> <Gold.PLP.Chemscore.CHOScore>
0.0000

> <Gold.PLP.Chemscore.Metal>
0.0000

> <Gold.Chemscore.Hbonds>
donor molecule, donor type, donor heavy atom, donor atom, acceptor molecule, acceptor atom, score
      L1  H    11    29       P1  7948  0.94
      L1  H    15    44       P1  7948  2.00
      P1  H 10785 10796       L1     3  0.68

> <Gold.PLP.Chemscore.Internal.Correction>
0.0421

> <Gold.Rescore>
     Score         DG    S(hbond)    S(metal)    S(lipo)     H(rot)  DE(clash)    DE(int)     intcor
     16.65     -18.25       2.41        0.00      79.49       1.80       0.14       1.46       ----

> <Gold.Chemscore.Fitness>
16.6454

> <Gold.Chemscore.DG>
-18.2454

> <Gold.Chemscore.ZeroCoef>
-5.4800

> <Gold.Chemscore.Hbond>
2.4142

> <Gold.Chemscore.Metal>
0.0000

> <Gold.Chemscore.Lipo>
79.4856

> <Gold.Chemscore.Internal_Hbond>
0.0000

> <Gold.Chemscore.DEClash>
0.1414

> <Gold.Chemscore.DEInternal>
1.4586

> <Gold.Chemscore.Rot>
1.7961

> <Gold.Chemscore.Internal.Correction>
   9.000000E+99

> <Gold.Chemscore.Hbonds>
donor molecule, donor type, donor heavy atom, donor atom, acceptor molecule, acceptor atom, score
      L1  H    11    29       P1  7948  0.20
      L1  H    15    44       P1  7948  0.60
      P1  H 10785 10796       L1     3  0.66

> <Gold.Chemscore.Hbond.Weighted>
-8.0636

> <Gold.Chemscore.Metal.Weighted>
-0.0000

> <Gold.Chemscore.Lipo.Weighted>
-9.2998

> <Gold.Chemscore.Internal_Hbond.Weighted>
0.0000

> <Gold.Chemscore.DEClash.Weighted>
0.1414

> <Gold.Chemscore.DEInternal.Weighted>
1.4586

> <Gold.Chemscore.Rot.Weighted>
4.5980

> <Gold.Chemscore.Internal.Correction.Weighted>
   9.000000E+99

> <Gold.Protein.RotatedTorsions>
[ 6907 6896 6895 6894 ] final   19.58 input  -60.11 | X-H torsion
[ 7974 7965 7964 7962 ] final   97.10 input  175.53 | X-H torsion
[ 8008 7997 7996 7995 ] final   83.74 input   59.86 | X-H torsion
[ 10167 10162 10161 10158 ] final  -99.23 input  -65.29 | X-H torsion
[ 10718 10713 10712 10709 ] final -127.00 input   66.30 | X-H torsion
[ 10763 10752 10751 10750 ] final  -74.62 input  -60.55 | X-H torsion
[ 11005 11000 10999 10996 ] final  -31.33 input  -57.11 | X-H torsion

> <Gold.Protein.ActiveResidues>
 VAL166  LYS551  ARG553  GLY616  TRP617  ASP618  TYR619  PRO620  LYS621  CYS622 
 ASP623  PHE694  ASN695  SER759  ASP760  ASP761  ALA762  ILE779  LEU786  VAL792 
 PHE793  MET794  SER795  GLU796  ALA797  LYS798  CYS799  TRP800  GLU811  SER814 

> <Gold.Protein.RotatedAtoms>
  151.8831  135.0446  160.0490 H   0  0  0  0  0  0  0  0  0  0  0  0  # atno 6907 bound_to 6896
  152.2497  133.5200  159.5326 H   0  0  0  0  0  0  0  0  0  0  0  0  # atno 6908 bound_to 6896
  150.7080  134.0893  159.3968 H   0  0  0  0  0  0  0  0  0  0  0  0  # atno 6909 bound_to 6896
  145.4300  139.2311  143.3149 H   0  0  0  0  0  0  0  0  0  0  0  0  # atno 7974 bound_to 7965
  155.9279  140.3417  155.6225 H   0  0  0  0  0  0  0  0  0  0  0  0  # atno 8008 bound_to 7997
  155.7193  140.0781  157.2356 H   0  0  0  0  0  0  0  0  0  0  0  0  # atno 8009 bound_to 7997
  154.4080  140.1608  156.2371 H   0  0  0  0  0  0  0  0  0  0  0  0  # atno 8010 bound_to 7997
  140.2646  143.3384  152.0593 H   0  0  0  0  0  0  0  0  0  0  0  0  # atno 10167 bound_to 10162
  156.1817  130.6736  151.0313 H   0  0  0  0  0  0  0  0  0  0  0  0  # atno 10718 bound_to 10713
  154.4755  135.5858  153.6352 H   0  0  0  0  0  0  0  0  0  0  0  0  # atno 10763 bound_to 10752
  152.9840  135.6077  154.3312 H   0  0  0  0  0  0  0  0  0  0  0  0  # atno 10764 bound_to 10752
  154.3198  135.2844  155.2504 H   0  0  0  0  0  0  0  0  0  0  0  0  # atno 10765 bound_to 10752
  140.9458  133.7250  156.1145 H   0  0  0  0  0  0  0  0  0  0  0  0  # atno 11005 bound_to 11000
  146.2612  140.5036  142.8853 LP  0  0  0  0  0  0  0  0  0  0  0  0  # atno 17320 bound_to 7965
  144.8189  140.6515  143.6366 LP  0  0  0  0  0  0  0  0  0  0  0  0  # atno 17321 bound_to 7965
  139.5006  144.6696  151.6274 LP  0  0  0  0  0  0  0  0  0  0  0  0  # atno 17342 bound_to 10162
  140.5938  143.9732  150.6341 LP  0  0  0  0  0  0  0  0  0  0  0  0  # atno 17343 bound_to 10162
  157.6872  131.0821  150.7209 LP  0  0  0  0  0  0  0  0  0  0  0  0  # atno 17370 bound_to 10713
  156.7266  130.4697  149.5510 LP  0  0  0  0  0  0  0  0  0  0  0  0  # atno 17371 bound_to 10713
  140.7671  134.3875  157.5515 LP  0  0  0  0  0  0  0  0  0  0  0  0  # atno 17394 bound_to 11000
  139.8833  134.8998  156.2775 LP  0  0  0  0  0  0  0  0  0  0  0  0  # atno 17395 bound_to 11000

$$$$
