AV-unprocessed.smi:2687|AV-procd|sdf|10385|dock3
  -GOLD-   2272014413D 1   1.00000     0.00000
 Structure written by MMmdl.
 38 39  0  0  0  0  0  0  0  0  1 V2000
  146.7136  136.8598  158.5555 O   0  0  0  0  0  0  0  0  0  0  0  0
  147.8830  137.2375  158.4924 C   0  0  0  0  0  0  0  0  0  0  0  0
  148.8970  136.7029  159.5017 C   0  0  0  0  0  0  0  0  0  0  0  0
  148.3185  136.7685  160.7945 O   0  0  0  0  0  0  0  0  0  0  0  0
  147.6587  135.5682  161.1644 C   0  0  0  0  0  0  0  0  0  0  0  0
  146.8115  135.8148  162.4189 C   0  0  0  0  0  0  0  0  0  0  0  0
  145.8810  136.7292  162.1479 F   0  0  0  0  0  0  0  0  0  0  0  0
  146.2067  134.6888  162.7963 F   0  0  0  0  0  0  0  0  0  0  0  0
  147.5782  136.2657  163.4114 F   0  0  0  0  0  0  0  0  0  0  0  0
  148.3538  138.1203  157.5934 N   0  0  0  0  0  0  0  0  0  0  0  0
  147.6474  138.7661  156.5392 C   0  0  0  0  0  0  0  0  0  0  0  0
  146.2333  138.7978  156.4733 C   0  0  0  0  0  0  0  0  0  0  0  0
  145.6116  139.4327  155.3828 C   0  0  0  0  0  0  0  0  0  0  0  0
  146.4257  140.0064  154.3895 C   0  0  0  0  0  0  0  0  0  0  0  0
  147.7734  139.9720  154.4292 N   0  0  0  0  0  0  0  0  0  0  0  0
  148.3763  139.3618  155.4782 C   0  0  0  0  0  0  0  0  0  0  0  0
  149.7811  139.3431  155.4927 N   0  0  0  0  0  0  0  0  0  0  0  0
  150.3699  138.6863  154.3329 C   0  0  0  0  0  0  0  0  0  0  0  0
  151.8963  138.5931  154.5018 C   0  0  0  0  0  0  0  0  0  0  0  0
  152.4341  139.8940  154.7238 O   0  0  0  0  0  0  0  0  0  0  0  0
  151.9061  140.4991  155.9009 C   0  0  0  0  0  0  0  0  0  0  0  0
  150.3808  140.6431  155.7661 C   0  0  0  0  0  0  0  0  0  0  0  0
  149.1764  135.6756  159.2603 H   0  0  0  0  0  0  0  0  0  0  0  0
  149.8006  137.3128  159.4548 H   0  0  0  0  0  0  0  0  0  0  0  0
  147.0230  135.2234  160.3474 H   0  0  0  0  0  0  0  0  0  0  0  0
  148.3926  134.7851  161.3610 H   0  0  0  0  0  0  0  0  0  0  0  0
  149.3089  138.4212  157.7230 H   0  0  0  0  0  0  0  0  0  0  0  0
  145.6180  138.3339  157.2288 H   0  0  0  0  0  0  0  0  0  0  0  0
  144.5354  139.4733  155.3065 H   0  0  0  0  0  0  0  0  0  0  0  0
  145.9834  140.5006  153.5374 H   0  0  0  0  0  0  0  0  0  0  0  0
  149.9432  137.6893  154.2172 H   0  0  0  0  0  0  0  0  0  0  0  0
  150.1315  139.2480  153.4288 H   0  0  0  0  0  0  0  0  0  0  0  0
  152.1566  137.9345  155.3322 H   0  0  0  0  0  0  0  0  0  0  0  0
  152.3487  138.1697  153.6050 H   0  0  0  0  0  0  0  0  0  0  0  0
  152.1648  139.9027  156.7773 H   0  0  0  0  0  0  0  0  0  0  0  0
  152.3655  141.4786  156.0345 H   0  0  0  0  0  0  0  0  0  0  0  0
  150.1460  141.3368  154.9576 H   0  0  0  0  0  0  0  0  0  0  0  0
  149.9595  141.0587  156.6823 H   0  0  0  0  0  0  0  0  0  0  0  0
  1  2  2  0  0  0  0
  2  3  1  0  0  0  0
  2 10  1  0  0  0  0
  3  4  1  0  0  0  0
  3 23  1  0  0  0  0
  3 24  1  0  0  0  0
  4  5  1  0  0  0  0
  5  6  1  0  0  0  0
  5 25  1  0  0  0  0
  5 26  1  0  0  0  0
  6  7  1  0  0  0  0
  6  8  1  0  0  0  0
  6  9  1  0  0  0  0
 10 11  1  0  0  0  0
 10 27  1  0  0  0  0
 11 16  1  0  0  0  0
 11 12  2  0  0  0  0
 12 13  1  0  0  0  0
 12 28  1  0  0  0  0
 13 14  2  0  0  0  0
 13 29  1  0  0  0  0
 14 15  1  0  0  0  0
 14 30  1  0  0  0  0
 15 16  2  0  0  0  0
 16 17  1  0  0  0  0
 17 22  1  0  0  0  0
 17 18  1  0  0  0  0
 18 19  1  0  0  0  0
 18 31  1  0  0  0  0
 18 32  1  0  0  0  0
 19 20  1  0  0  0  0
 19 33  1  0  0  0  0
 19 34  1  0  0  0  0
 20 21  1  0  0  0  0
 21 22  1  0  0  0  0
 21 35  1  0  0  0  0
 21 36  1  0  0  0  0
 22 37  1  0  0  0  0
 22 38  1  0  0  0  0
M  END
> <s_m_source_file>
AV-unprocessed.smi

> <i_m_source_file_index>
2687

> <i_lp_mmshare_version>
43012

> <i_f3d_flags>
0

> <s_epik_input>
RkMoRikoRilbQ0gyXU9bQ0gyXUMoPU8pW05IXWMxW2NIXVtjSF1bY0hdbmMxTjJbQ0gyXVtDSDJdT1tDSDJdW0NIMl0y

> <s_epik_cmdline>
J2VwaWtfcHl0aG9uJywgJy1waCcsICc3LjAnLCAnLXRuJywgJzgnLCAnLW1hJywgJzIwMCcsICctbWV0YWxfYmluZGluZycsICctaW1hZScsICc8aW5maWxlLm1hZT4nLCAnLW9tYWUnLCAnPG91dGZpbGUubWFlPic=

> <r_lp_tautomer_probability>
1

> <r_epik_Ionization_Penalty>
0.00040187

> <r_epik_Ionization_Penalty_Charging>
0

> <r_epik_Ionization_Penalty_Neutral>
0.00040187

> <r_epik_State_Penalty>
0.000245652

> <r_epik_Charging_Adjusted_Penalty>
0.000245652

> <i_epik_Tot_Q>
0

> <i_epik_Tot_abs_Q>
0

> <r_epik_Metal_State_Penalty>
-0

> <b_epik_Metal_Only>
0

> <s_lp_Force_Field>
OPLS_2005

> <r_lp_Energy>
25.827

> <b_lp_Chiralities_Consistent>
1

> <s_lp_Variant>
AV-unprocessed.smi:2687-1

> <Gold.Version>
5.8.1

> <Gold.Id.Protein>
6NUR|6NUR_protein|mol2

> <Gold.PLP.Fitness>
39.3163

> <Gold.PLP.PLP>
-32.3807

> <Gold.PLP.part.hbond>
-1.9750

> <Gold.PLP.part.metal>
0.0000

> <Gold.PLP.part.buried>
-4.8329

> <Gold.PLP.part.nonpolar>
-25.4548

> <Gold.PLP.part.repulsive>
0.2599

> <Gold.PLP.ligand.clash>
0.0000

> <Gold.PLP.ligand.torsion>
0.5961

> <Gold.PLP.Chemscore.Hbond>
1.6397

> <Gold.PLP.Chemscore.CHOScore>
1.0000

> <Gold.PLP.Chemscore.Metal>
0.0000

> <Gold.Chemscore.Hbonds>
donor molecule, donor type, donor heavy atom, donor atom, acceptor molecule, acceptor atom, score
      P1  H  6931  6943       L1     4  1.00
      P1  H  7989  7998       L1    20  0.61
      P1  H  7997  8009       L1    20  0.03
      L1  C    14    30       P1 10175  1.00

> <Gold.PLP.Chemscore.Internal.Correction>
0.2087

> <Gold.Rescore>
     Score         DG    S(hbond)    S(metal)    S(lipo)     H(rot)  DE(clash)    DE(int)     intcor
      9.11     -11.52       1.35        0.00      57.10       2.01       0.32       2.09       ----

> <Gold.Chemscore.Fitness>
9.1058

> <Gold.Chemscore.DG>
-11.5171

> <Gold.Chemscore.ZeroCoef>
-5.4800

> <Gold.Chemscore.Hbond>
1.3512

> <Gold.Chemscore.Metal>
0.0000

> <Gold.Chemscore.Lipo>
57.1029

> <Gold.Chemscore.Internal_Hbond>
0.0000

> <Gold.Chemscore.DEClash>
0.3239

> <Gold.Chemscore.DEInternal>
2.0875

> <Gold.Chemscore.Rot>
2.0144

> <Gold.Chemscore.Internal.Correction>
   9.000000E+99

> <Gold.Chemscore.Hbonds>
donor molecule, donor type, donor heavy atom, donor atom, acceptor molecule, acceptor atom, score
      P1  H  6931  6943       L1     4  0.80
      P1  H  7989  7998       L1    20  0.08

> <Gold.Chemscore.Hbond.Weighted>
-4.5129

> <Gold.Chemscore.Metal.Weighted>
-0.0000

> <Gold.Chemscore.Lipo.Weighted>
-6.6810

> <Gold.Chemscore.Internal_Hbond.Weighted>
0.0000

> <Gold.Chemscore.DEClash.Weighted>
0.3239

> <Gold.Chemscore.DEInternal.Weighted>
2.0875

> <Gold.Chemscore.Rot.Weighted>
5.1568

> <Gold.Chemscore.Internal.Correction.Weighted>
   9.000000E+99

> <Gold.Protein.RotatedTorsions>
[ 6907 6896 6895 6894 ] final   -1.24 input  -60.11 | X-H torsion
[ 7974 7965 7964 7962 ] final -107.14 input  175.53 | X-H torsion
[ 8008 7997 7996 7995 ] final -132.12 input   59.86 | X-H torsion
[ 10167 10162 10161 10158 ] final   55.51 input  -65.29 | X-H torsion
[ 10718 10713 10712 10709 ] final  -67.57 input   66.30 | X-H torsion
[ 10763 10752 10751 10750 ] final  -19.57 input  -60.55 | X-H torsion
[ 11005 11000 10999 10996 ] final  -95.79 input  -57.11 | X-H torsion

> <Gold.Protein.ActiveResidues>
 VAL166  LYS551  ARG553  GLY616  TRP617  ASP618  TYR619  PRO620  LYS621  CYS622 
 ASP623  PHE694  ASN695  SER759  ASP760  ASP761  ALA762  ILE779  LEU786  VAL792 
 PHE793  MET794  SER795  GLU796  ALA797  LYS798  CYS799  TRP800  GLU811  SER814 

> <Gold.Protein.RotatedAtoms>
  151.5492  135.1067  159.9945 H   0  0  0  0  0  0  0  0  0  0  0  0  # atno 6907 bound_to 6896
  152.4499  133.7605  159.6755 H   0  0  0  0  0  0  0  0  0  0  0  0  # atno 6908 bound_to 6896
  150.8425  133.7846  159.3080 H   0  0  0  0  0  0  0  0  0  0  0  0  # atno 6909 bound_to 6896
  145.2090  140.9088  143.3325 H   0  0  0  0  0  0  0  0  0  0  0  0  # atno 7974 bound_to 7965
  155.3236  140.0463  157.3040 H   0  0  0  0  0  0  0  0  0  0  0  0  # atno 8008 bound_to 7997
  154.5366  140.2274  155.8677 H   0  0  0  0  0  0  0  0  0  0  0  0  # atno 8009 bound_to 7997
  156.1841  140.3067  155.9211 H   0  0  0  0  0  0  0  0  0  0  0  0  # atno 8010 bound_to 7997
  140.2187  144.3812  150.6459 H   0  0  0  0  0  0  0  0  0  0  0  0  # atno 10167 bound_to 10162
  156.0550  130.4280  150.1874 H   0  0  0  0  0  0  0  0  0  0  0  0  # atno 10718 bound_to 10713
  153.6068  135.6997  153.5362 H   0  0  0  0  0  0  0  0  0  0  0  0  # atno 10763 bound_to 10752
  153.3050  135.4118  155.1286 H   0  0  0  0  0  0  0  0  0  0  0  0  # atno 10764 bound_to 10752
  154.8571  135.3658  154.5605 H   0  0  0  0  0  0  0  0  0  0  0  0  # atno 10765 bound_to 10752
  141.1431  133.8051  157.0483 H   0  0  0  0  0  0  0  0  0  0  0  0  # atno 11005 bound_to 11000
  144.9874  139.3723  143.6232 LP  0  0  0  0  0  0  0  0  0  0  0  0  # atno 17320 bound_to 7965
  146.3401  139.9041  142.8790 LP  0  0  0  0  0  0  0  0  0  0  0  0  # atno 17321 bound_to 7965
  140.6271  143.2182  151.6574 LP  0  0  0  0  0  0  0  0  0  0  0  0  # atno 17342 bound_to 10162
  139.5152  144.3385  152.0762 LP  0  0  0  0  0  0  0  0  0  0  0  0  # atno 17343 bound_to 10162
  156.9952  130.9905  151.3405 LP  0  0  0  0  0  0  0  0  0  0  0  0  # atno 17370 bound_to 10713
  157.5512  130.8184  149.8148 LP  0  0  0  0  0  0  0  0  0  0  0  0  # atno 17371 bound_to 10713
  140.0648  134.9735  157.1367 LP  0  0  0  0  0  0  0  0  0  0  0  0  # atno 17394 bound_to 11000
  140.3795  134.2302  155.7172 LP  0  0  0  0  0  0  0  0  0  0  0  0  # atno 17395 bound_to 11000

$$$$
