AV-unprocessed.smi:1577|AV-procd|sdf|6349|dock3
  -GOLD-   22720 6563D 1   1.00000     0.00000
 Structure written by MMmdl.
 39 40  0  0  0  0  0  0  0  0  1 V2000
  152.2195  144.1539  159.7227 C   0  0  0  0  0  0  0  0  0  0  0  0
  150.6984  144.2009  159.5278 C   0  0  0  0  0  0  0  0  0  0  0  0
  150.3104  143.7348  158.2020 N   0  0  0  0  0  0  0  0  0  0  0  0
  150.5854  142.5221  157.7020 C   0  0  0  0  0  0  0  0  0  0  0  0
  151.1942  141.6437  158.3132 O   0  0  0  0  0  0  0  0  0  0  0  0
  150.1242  142.3860  156.4515 N   0  0  0  0  0  0  0  0  0  0  0  0
  150.2963  141.2015  155.6169 C   0  0  0  0  0  0  0  0  0  0  0  0
  149.0348  140.7770  154.8705 C   0  0  0  0  0  0  0  0  0  0  0  0
  148.1906  141.7664  154.3229 C   0  0  0  0  0  0  0  0  0  0  0  0
  147.0311  141.3751  153.6297 C   0  0  0  0  0  0  0  0  0  0  0  0
  146.7587  140.0003  153.5088 C   0  0  0  0  0  0  0  0  0  0  0  0
  147.5548  139.0413  154.0250 N   0  0  0  0  0  0  0  0  0  0  0  0
  148.6726  139.4156  154.6937 C   0  0  0  0  0  0  0  0  0  0  0  0
  149.4758  138.3933  155.2234 N   0  0  0  0  0  0  0  0  0  0  0  0
  148.8529  137.0773  155.1622 C   0  0  0  0  0  0  0  0  0  0  0  0
  149.7184  136.0566  155.9198 C   0  0  0  0  0  0  0  0  0  0  0  0
  151.0377  136.0569  155.3807 O   0  0  0  0  0  0  0  0  0  0  0  0
  151.6670  137.3305  155.4977 C   0  0  0  0  0  0  0  0  0  0  0  0
  150.8481  138.3855  154.7336 C   0  0  0  0  0  0  0  0  0  0  0  0
  152.4896  144.4689  160.7307 H   0  0  0  0  0  0  0  0  0  0  0  0
  152.7302  144.8159  159.0226 H   0  0  0  0  0  0  0  0  0  0  0  0
  152.6056  143.1450  159.5741 H   0  0  0  0  0  0  0  0  0  0  0  0
  150.2133  143.5635  160.2673 H   0  0  0  0  0  0  0  0  0  0  0  0
  150.3245  145.2120  159.6967 H   0  0  0  0  0  0  0  0  0  0  0  0
  149.8048  144.3862  157.6198 H   0  0  0  0  0  0  0  0  0  0  0  0
  149.6347  143.1654  156.0370 H   0  0  0  0  0  0  0  0  0  0  0  0
  151.1134  141.3720  154.9137 H   0  0  0  0  0  0  0  0  0  0  0  0
  150.6129  140.3769  156.2557 H   0  0  0  0  0  0  0  0  0  0  0  0
  148.4250  142.8151  154.4332 H   0  0  0  0  0  0  0  0  0  0  0  0
  146.3665  142.1111  153.2019 H   0  0  0  0  0  0  0  0  0  0  0  0
  145.8780  139.6615  152.9836 H   0  0  0  0  0  0  0  0  0  0  0  0
  147.8524  137.1167  155.5944 H   0  0  0  0  0  0  0  0  0  0  0  0
  148.7426  136.7705  154.1212 H   0  0  0  0  0  0  0  0  0  0  0  0
  149.7487  136.2893  156.9856 H   0  0  0  0  0  0  0  0  0  0  0  0
  149.2937  135.0574  155.8235 H   0  0  0  0  0  0  0  0  0  0  0  0
  151.7661  137.6024  156.5499 H   0  0  0  0  0  0  0  0  0  0  0  0
  152.6753  137.2678  155.0883 H   0  0  0  0  0  0  0  0  0  0  0  0
  150.8593  138.1607  153.6660 H   0  0  0  0  0  0  0  0  0  0  0  0
  151.2924  139.3731  154.8623 H   0  0  0  0  0  0  0  0  0  0  0  0
  1  2  1  0  0  0  0
  1 20  1  0  0  0  0
  1 21  1  0  0  0  0
  1 22  1  0  0  0  0
  2  3  1  0  0  0  0
  2 23  1  0  0  0  0
  2 24  1  0  0  0  0
  3  4  1  0  0  0  0
  3 25  1  0  0  0  0
  4  5  2  0  0  0  0
  4  6  1  0  0  0  0
  6  7  1  0  0  0  0
  6 26  1  0  0  0  0
  7  8  1  0  0  0  0
  7 27  1  0  0  0  0
  7 28  1  0  0  0  0
  8 13  1  0  0  0  0
  8  9  2  0  0  0  0
  9 10  1  0  0  0  0
  9 29  1  0  0  0  0
 10 11  2  0  0  0  0
 10 30  1  0  0  0  0
 11 12  1  0  0  0  0
 11 31  1  0  0  0  0
 12 13  2  0  0  0  0
 13 14  1  0  0  0  0
 14 19  1  0  0  0  0
 14 15  1  0  0  0  0
 15 16  1  0  0  0  0
 15 32  1  0  0  0  0
 15 33  1  0  0  0  0
 16 17  1  0  0  0  0
 16 34  1  0  0  0  0
 16 35  1  0  0  0  0
 17 18  1  0  0  0  0
 18 19  1  0  0  0  0
 18 36  1  0  0  0  0
 18 37  1  0  0  0  0
 19 38  1  0  0  0  0
 19 39  1  0  0  0  0
M  END
> <s_m_source_file>
AV-unprocessed.smi

> <i_m_source_file_index>
1577

> <i_lp_mmshare_version>
43012

> <i_f3d_flags>
0

> <s_epik_input>
W0NIM11bQ0gyXVtOSF1DKD1PKVtOSF1bQ0gyXWMxW2NIXVtjSF1bY0hdbmMxTjJbQ0gyXVtDSDJdT1tDSDJdW0NIMl0y

> <s_epik_cmdline>
J2VwaWtfcHl0aG9uJywgJy1waCcsICc3LjAnLCAnLXRuJywgJzgnLCAnLW1hJywgJzIwMCcsICctbWV0YWxfYmluZGluZycsICctaW1hZScsICc8aW5maWxlLm1hZT4nLCAnLW9tYWUnLCAnPG91dGZpbGUubWFlPic=

> <r_lp_tautomer_probability>
1

> <r_epik_Ionization_Penalty>
0.00610239

> <r_epik_Ionization_Penalty_Charging>
0

> <r_epik_Ionization_Penalty_Neutral>
0.00610239

> <r_epik_State_Penalty>
0.00445678

> <r_epik_Charging_Adjusted_Penalty>
0.00445678

> <i_epik_Tot_Q>
0

> <i_epik_Tot_abs_Q>
0

> <r_epik_Metal_State_Penalty>
-0

> <b_epik_Metal_Only>
0

> <s_lp_Force_Field>
OPLS_2005

> <r_lp_Energy>
16.2097

> <b_lp_Chiralities_Consistent>
1

> <s_lp_Variant>
AV-unprocessed.smi:1577-1

> <Gold.Version>
5.8.1

> <Gold.Id.Protein>
6NUR|6NUR_protein|mol2

> <Gold.PLP.Fitness>
43.7877

> <Gold.PLP.PLP>
-33.5375

> <Gold.PLP.part.hbond>
-3.2618

> <Gold.PLP.part.metal>
0.0000

> <Gold.PLP.part.buried>
-3.0279

> <Gold.PLP.part.nonpolar>
-27.9030

> <Gold.PLP.part.repulsive>
0.5772

> <Gold.PLP.ligand.clash>
0.0000

> <Gold.PLP.ligand.torsion>
0.4963

> <Gold.PLP.Chemscore.Hbond>
2.7040

> <Gold.PLP.Chemscore.CHOScore>
1.0000

> <Gold.PLP.Chemscore.Metal>
0.0000

> <Gold.Chemscore.Hbonds>
donor molecule, donor type, donor heavy atom, donor atom, acceptor molecule, acceptor atom, score
      L1  H     3    25       P1  8028  0.55
      L1  H     6    26       P1  8028  1.00
      P1  H 10752 10763       L1    17  0.04
      L1  C    11    31       P1 10175  1.00

> <Gold.PLP.Chemscore.Internal.Correction>
0.1307

> <Gold.Rescore>
     Score         DG    S(hbond)    S(metal)    S(lipo)     H(rot)  DE(clash)    DE(int)     intcor
     14.21     -16.91       1.92        0.00      80.69       1.73       0.01       2.68       ----

> <Gold.Chemscore.Fitness>
14.2139

> <Gold.Chemscore.DG>
-16.9079

> <Gold.Chemscore.ZeroCoef>
-5.4800

> <Gold.Chemscore.Hbond>
1.9190

> <Gold.Chemscore.Metal>
0.0000

> <Gold.Chemscore.Lipo>
80.6875

> <Gold.Chemscore.Internal_Hbond>
0.0000

> <Gold.Chemscore.DEClash>
0.0093

> <Gold.Chemscore.DEInternal>
2.6847

> <Gold.Chemscore.Rot>
1.7274

> <Gold.Chemscore.Internal.Correction>
   9.000000E+99

> <Gold.Chemscore.Hbonds>
donor molecule, donor type, donor heavy atom, donor atom, acceptor molecule, acceptor atom, score
      L1  H     3    25       P1  8028  0.09
      L1  H     6    26       P1  8028  1.00

> <Gold.Chemscore.Hbond.Weighted>
-6.4095

> <Gold.Chemscore.Metal.Weighted>
-0.0000

> <Gold.Chemscore.Lipo.Weighted>
-9.4404

> <Gold.Chemscore.Internal_Hbond.Weighted>
0.0000

> <Gold.Chemscore.DEClash.Weighted>
0.0093

> <Gold.Chemscore.DEInternal.Weighted>
2.6847

> <Gold.Chemscore.Rot.Weighted>
4.4221

> <Gold.Chemscore.Internal.Correction.Weighted>
   9.000000E+99

> <Gold.Protein.RotatedTorsions>
[ 6907 6896 6895 6894 ] final  -51.08 input  -60.11 | X-H torsion
[ 7974 7965 7964 7962 ] final   74.62 input  175.53 | X-H torsion
[ 8008 7997 7996 7995 ] final  146.17 input   59.86 | X-H torsion
[ 10167 10162 10161 10158 ] final  -77.56 input  -65.29 | X-H torsion
[ 10718 10713 10712 10709 ] final   25.73 input   66.30 | X-H torsion
[ 10763 10752 10751 10750 ] final   73.84 input  -60.55 | X-H torsion
[ 11005 11000 10999 10996 ] final   21.59 input  -57.11 | X-H torsion

> <Gold.Protein.ActiveResidues>
 VAL166  LYS551  ARG553  GLY616  TRP617  ASP618  TYR619  PRO620  LYS621  CYS622 
 ASP623  PHE694  ASN695  SER759  ASP760  ASP761  ALA762  ILE779  LEU786  VAL792 
 PHE793  MET794  SER795  GLU796  ALA797  LYS798  CYS799  TRP800  GLU811  SER814 

> <Gold.Protein.RotatedAtoms>
  150.8645  134.8005  159.7107 H   0  0  0  0  0  0  0  0  0  0  0  0  # atno 6907 bound_to 6896
  152.4671  134.5046  159.9745 H   0  0  0  0  0  0  0  0  0  0  0  0  # atno 6908 bound_to 6896
  151.5145  133.3440  159.2926 H   0  0  0  0  0  0  0  0  0  0  0  0  # atno 6909 bound_to 6896
  145.7260  139.2666  143.1569 H   0  0  0  0  0  0  0  0  0  0  0  0  # atno 7974 bound_to 7965
  156.2863  140.2189  156.5333 H   0  0  0  0  0  0  0  0  0  0  0  0  # atno 8008 bound_to 7997
  154.7430  140.0486  157.0850 H   0  0  0  0  0  0  0  0  0  0  0  0  # atno 8009 bound_to 7997
  155.0206  140.3123  155.4798 H   0  0  0  0  0  0  0  0  0  0  0  0  # atno 8010 bound_to 7997
  140.4760  143.2414  151.8132 H   0  0  0  0  0  0  0  0  0  0  0  0  # atno 10167 bound_to 10162
  157.1973  130.6874  149.6174 H   0  0  0  0  0  0  0  0  0  0  0  0  # atno 10718 bound_to 10713
  153.0547  135.5048  154.7953 H   0  0  0  0  0  0  0  0  0  0  0  0  # atno 10763 bound_to 10752
  154.6788  135.2965  154.9644 H   0  0  0  0  0  0  0  0  0  0  0  0  # atno 10764 bound_to 10752
  154.0438  135.6713  153.4845 H   0  0  0  0  0  0  0  0  0  0  0  0  # atno 10765 bound_to 10752
  140.3899  134.1830  155.7662 H   0  0  0  0  0  0  0  0  0  0  0  0  # atno 11005 bound_to 11000
  146.0582  140.7999  142.9748 LP  0  0  0  0  0  0  0  0  0  0  0  0  # atno 17320 bound_to 7965
  144.6905  140.3156  143.7241 LP  0  0  0  0  0  0  0  0  0  0  0  0  # atno 17321 bound_to 7965
  139.4825  144.4833  151.9279 LP  0  0  0  0  0  0  0  0  0  0  0  0  # atno 17342 bound_to 10162
  140.3918  144.2605  150.5899 LP  0  0  0  0  0  0  0  0  0  0  0  0  # atno 17343 bound_to 10162
  155.9704  130.4594  150.6036 LP  0  0  0  0  0  0  0  0  0  0  0  0  # atno 17370 bound_to 10713
  157.3801  131.0779  151.1484 LP  0  0  0  0  0  0  0  0  0  0  0  0  # atno 17371 bound_to 10713
  141.1894  133.8238  157.0957 LP  0  0  0  0  0  0  0  0  0  0  0  0  # atno 17394 bound_to 11000
  140.0415  134.9852  157.0970 LP  0  0  0  0  0  0  0  0  0  0  0  0  # atno 17395 bound_to 11000

$$$$
