AV-unprocessed.smi:71|AV-procd|sdf|661|dock2
  -GOLD-   2262016563D 1   1.00000     0.00000
 Structure written by MMmdl.
 31 32  0  0  0  0  0  0  0  0  1 V2000
  150.9526  144.9945  157.8665 N   0  0  0  0  0  0  0  0  0  0  0  0
  151.5846  143.8688  158.3876 C   0  0  0  0  0  0  0  0  0  0  0  0
  152.2773  143.9494  159.6123 C   0  0  0  0  0  0  0  0  0  0  0  0
  152.8975  142.7870  160.1080 C   0  0  0  0  0  0  0  0  0  0  0  0
  152.8049  141.5971  159.3612 C   0  0  0  0  0  0  0  0  0  0  0  0
  152.0994  141.6184  158.1364 C   0  0  0  0  0  0  0  0  0  0  0  0
  151.9557  140.3699  157.3166 C   0  0  0  0  0  0  0  0  0  0  0  0
  152.9151  139.6047  157.2151 O   0  0  0  0  0  0  0  0  0  0  0  0
  150.7602  140.1366  156.7254 N   0  0  0  0  0  0  0  0  0  0  0  0
  149.5261  140.8876  156.9752 C   0  0  0  0  0  0  0  0  0  0  0  0
  148.4436  140.2245  156.1253 C   0  0  0  0  0  0  0  0  0  0  0  0
  148.9608  138.8130  155.8964 C   0  0  0  0  0  0  0  0  0  0  0  0
  150.4883  138.9572  155.8943 C   0  0  1  0  0  0  0  0  0  0  0  0
  151.0747  139.1398  154.4783 C   0  0  0  0  0  0  0  0  0  0  0  0
  150.5124  140.2759  153.8566 O   0  0  0  0  0  0  0  0  0  0  0  0
  151.4920  142.7319  157.6659 N   0  0  0  0  0  0  0  0  0  0  0  0
  150.4497  144.9618  156.9914 H   0  0  0  0  0  0  0  0  0  0  0  0
  151.0062  145.8888  158.3323 H   0  0  0  0  0  0  0  0  0  0  0  0
  152.3303  144.8770  160.1635 H   0  0  0  0  0  0  0  0  0  0  0  0
  153.4319  142.8070  161.0462 H   0  0  0  0  0  0  0  0  0  0  0  0
  153.2635  140.6886  159.7241 H   0  0  0  0  0  0  0  0  0  0  0  0
  149.2729  140.8190  158.0346 H   0  0  0  0  0  0  0  0  0  0  0  0
  149.6167  141.9418  156.7149 H   0  0  0  0  0  0  0  0  0  0  0  0
  147.4621  140.2439  156.5998 H   0  0  0  0  0  0  0  0  0  0  0  0
  148.3611  140.7418  155.1684 H   0  0  0  0  0  0  0  0  0  0  0  0
  148.6590  138.1806  156.7324 H   0  0  0  0  0  0  0  0  0  0  0  0
  148.5631  138.3618  154.9869 H   0  0  0  0  0  0  0  0  0  0  0  0
  150.9311  138.0710  156.3539 H   0  0  0  0  0  0  0  0  0  0  0  0
  152.1601  139.2394  154.5112 H   0  0  0  0  0  0  0  0  0  0  0  0
  150.8511  138.2764  153.8513 H   0  0  0  0  0  0  0  0  0  0  0  0
  150.2458  140.0389  152.9814 H   0  0  0  0  0  0  0  0  0  0  0  0
  1  2  1  0  0  0  0
  1 17  1  0  0  0  0
  1 18  1  0  0  0  0
  2 16  1  0  0  0  0
  2  3  2  0  0  0  0
  3  4  1  0  0  0  0
  3 19  1  0  0  0  0
  4  5  2  0  0  0  0
  4 20  1  0  0  0  0
  5  6  1  0  0  0  0
  5 21  1  0  0  0  0
  6  7  1  0  0  0  0
  6 16  2  0  0  0  0
  7  8  2  0  0  0  0
  7  9  1  0  0  0  0
  9 13  1  0  0  0  0
  9 10  1  0  0  0  0
 10 11  1  0  0  0  0
 10 22  1  0  0  0  0
 10 23  1  0  0  0  0
 11 12  1  0  0  0  0
 11 24  1  0  0  0  0
 11 25  1  0  0  0  0
 12 13  1  0  0  0  0
 12 26  1  0  0  0  0
 12 27  1  0  0  0  0
 13 14  1  0  0  0  0
 13 28  1  0  0  0  0
 14 15  1  0  0  0  0
 14 29  1  0  0  0  0
 14 30  1  0  0  0  0
 15 31  1  0  0  0  0
M  END
> <s_m_source_file>
AV-unprocessed.smi

> <i_m_source_file_index>
71

> <i_lp_mmshare_version>
43012

> <i_f3d_flags>
0

> <s_epik_input>
W05IMl1jMVtjSF1bY0hdW2NIXWMobjEpQyg9TylOMltDSDJdW0NIMl1bQ0gyXVtDQEhdMltDSDJdW09IXQ==

> <s_epik_cmdline>
J2VwaWtfcHl0aG9uJywgJy1waCcsICc3LjAnLCAnLXRuJywgJzgnLCAnLW1hJywgJzIwMCcsICctbWV0YWxfYmluZGluZycsICctaW1hZScsICc8aW5maWxlLm1hZT4nLCAnLW9tYWUnLCAnPG91dGZpbGUubWFlPic=

> <r_lp_tautomer_probability>
1

> <r_epik_Ionization_Penalty>
2.21614e-05

> <r_epik_Ionization_Penalty_Charging>
0

> <r_epik_Ionization_Penalty_Neutral>
2.21614e-05

> <r_epik_State_Penalty>
-0

> <r_epik_Charging_Adjusted_Penalty>
0

> <i_epik_Tot_Q>
0

> <i_epik_Tot_abs_Q>
0

> <r_epik_Metal_State_Penalty>
-0

> <b_epik_Metal_Only>
0

> <s_lp_Force_Field>
OPLS_2005

> <r_lp_Energy>
36.7339

> <b_lp_Chiralities_Consistent>
1

> <s_lp_Variant>
AV-unprocessed.smi:71-1

> <Gold.Version>
5.8.1

> <Gold.Id.Protein>
6NUR|6NUR_protein|mol2

> <Gold.PLP.Fitness>
39.5884

> <Gold.PLP.PLP>
-28.8842

> <Gold.PLP.part.hbond>
-4.9293

> <Gold.PLP.part.metal>
0.0000

> <Gold.PLP.part.buried>
-3.9350

> <Gold.PLP.part.nonpolar>
-20.4665

> <Gold.PLP.part.repulsive>
0.2149

> <Gold.PLP.ligand.clash>
0.0000

> <Gold.PLP.ligand.torsion>
0.6242

> <Gold.PLP.Chemscore.Hbond>
3.6084

> <Gold.PLP.Chemscore.CHOScore>
0.0000

> <Gold.PLP.Chemscore.Metal>
0.0000

> <Gold.Chemscore.Hbonds>
donor molecule, donor type, donor heavy atom, donor atom, acceptor molecule, acceptor atom, score
      L1  H     1    17       P1  8028  1.00
      L1  H    15    31       P1  7957  1.00
      P1  H  7989  7998       L1    15  0.29
      P1  H  7997  8008       L1     8  1.00

> <Gold.PLP.Chemscore.Internal.Correction>
1.1274

> <Gold.Rescore>
     Score         DG    S(hbond)    S(metal)    S(lipo)     H(rot)  DE(clash)    DE(int)     intcor
     15.56     -17.69       2.75        0.00      58.53       1.50       0.03       2.10       ----

> <Gold.Chemscore.Fitness>
15.5552

> <Gold.Chemscore.DG>
-17.6861

> <Gold.Chemscore.ZeroCoef>
-5.4800

> <Gold.Chemscore.Hbond>
2.7507

> <Gold.Chemscore.Metal>
0.0000

> <Gold.Chemscore.Lipo>
58.5329

> <Gold.Chemscore.Internal_Hbond>
0.0000

> <Gold.Chemscore.DEClash>
0.0310

> <Gold.Chemscore.DEInternal>
2.0999

> <Gold.Chemscore.Rot>
1.4959

> <Gold.Chemscore.Internal.Correction>
   9.000000E+99

> <Gold.Chemscore.Hbonds>
donor molecule, donor type, donor heavy atom, donor atom, acceptor molecule, acceptor atom, score
      L1  H     1    17       P1  8028  0.37
      L1  H    15    31       P1  7957  0.99
      P1  H  7989  7998       L1    15  0.01
      P1  H  7997  8008       L1     8  0.99

> <Gold.Chemscore.Hbond.Weighted>
-9.1873

> <Gold.Chemscore.Metal.Weighted>
-0.0000

> <Gold.Chemscore.Lipo.Weighted>
-6.8484

> <Gold.Chemscore.Internal_Hbond.Weighted>
0.0000

> <Gold.Chemscore.DEClash.Weighted>
0.0310

> <Gold.Chemscore.DEInternal.Weighted>
2.0999

> <Gold.Chemscore.Rot.Weighted>
3.8295

> <Gold.Chemscore.Internal.Correction.Weighted>
   9.000000E+99

> <Gold.Protein.RotatedTorsions>
[ 6907 6896 6895 6894 ] final  -20.94 input  -60.11 | X-H torsion
[ 7974 7965 7964 7962 ] final  -50.52 input  175.53 | X-H torsion
[ 8008 7997 7996 7995 ] final  -63.21 input   59.86 | X-H torsion
[ 10167 10162 10161 10158 ] final   30.43 input  -65.29 | X-H torsion
[ 10718 10713 10712 10709 ] final  106.73 input   66.30 | X-H torsion
[ 10763 10752 10751 10750 ] final    4.70 input  -60.55 | X-H torsion
[ 11005 11000 10999 10996 ] final  117.17 input  -57.11 | X-H torsion

> <Gold.Protein.ActiveResidues>
 VAL166  LYS551  ARG553  GLY616  TRP617  ASP618  TYR619  PRO620  LYS621  CYS622 
 ASP623  PHE694  ASN695  SER759  ASP760  ASP761  ALA762  ILE779  LEU786  VAL792 
 PHE793  MET794  SER795  GLU796  ALA797  LYS798  CYS799  TRP800  GLU811  SER814 

> <Gold.Protein.RotatedAtoms>
  151.2407  135.0588  159.9023 H   0  0  0  0  0  0  0  0  0  0  0  0  # atno 6907 bound_to 6896
  152.5393  134.0437  159.8089 H   0  0  0  0  0  0  0  0  0  0  0  0  # atno 6908 bound_to 6896
  151.0631  133.5479  159.2664 H   0  0  0  0  0  0  0  0  0  0  0  0  # atno 6909 bound_to 6896
  145.9289  140.7767  142.9609 H   0  0  0  0  0  0  0  0  0  0  0  0  # atno 7974 bound_to 7965
  154.4542  140.0979  156.6708 H   0  0  0  0  0  0  0  0  0  0  0  0  # atno 8008 bound_to 7997
  155.5190  140.3478  155.4384 H   0  0  0  0  0  0  0  0  0  0  0  0  # atno 8009 bound_to 7997
  156.0743  140.1357  156.9779 H   0  0  0  0  0  0  0  0  0  0  0  0  # atno 8010 bound_to 7997
  140.4678  144.0808  150.6229 H   0  0  0  0  0  0  0  0  0  0  0  0  # atno 10167 bound_to 10162
  157.6657  131.0857  150.6050 H   0  0  0  0  0  0  0  0  0  0  0  0  # atno 10718 bound_to 10713
  153.2681  135.6929  153.7509 H   0  0  0  0  0  0  0  0  0  0  0  0  # atno 10763 bound_to 10752
  153.6542  135.3371  155.3109 H   0  0  0  0  0  0  0  0  0  0  0  0  # atno 10764 bound_to 10752
  154.8454  135.4462  154.1694 H   0  0  0  0  0  0  0  0  0  0  0  0  # atno 10765 bound_to 10752
  139.9065  134.9607  156.7310 H   0  0  0  0  0  0  0  0  0  0  0  0  # atno 11005 bound_to 11000
  144.6762  140.2096  143.7378 LP  0  0  0  0  0  0  0  0  0  0  0  0  # atno 17320 bound_to 7965
  145.8452  139.2148  143.1804 LP  0  0  0  0  0  0  0  0  0  0  0  0  # atno 17321 bound_to 7965
  140.4014  143.2702  151.9943 LP  0  0  0  0  0  0  0  0  0  0  0  0  # atno 17342 bound_to 10162
  139.4814  144.5994  151.7632 LP  0  0  0  0  0  0  0  0  0  0  0  0  # atno 17343 bound_to 10162
  156.6351  130.4442  149.5772 LP  0  0  0  0  0  0  0  0  0  0  0  0  # atno 17370 bound_to 10713
  156.2252  130.6761  151.1409 LP  0  0  0  0  0  0  0  0  0  0  0  0  # atno 17371 bound_to 10713
  140.6925  133.9377  155.7975 LP  0  0  0  0  0  0  0  0  0  0  0  0  # atno 17394 bound_to 11000
  141.0431  134.0593  157.3878 LP  0  0  0  0  0  0  0  0  0  0  0  0  # atno 17395 bound_to 11000

$$$$
