AV-unprocessed.smi:3325|AV-procd|sdf|12784|dock6
  -GOLD-   2272019133D 1   1.00000     0.00000
 Structure written by MMmdl.
 44 45  0  0  0  0  0  0  0  0  2 V2000
  150.3600  139.2482  155.7834 C   0  0  0  0  0  0  0  0  0  0  0  0
  150.9963  137.8607  155.6122 C   0  0  0  0  0  0  0  0  0  0  0  0
  149.9577  136.7353  155.4967 C   0  0  0  0  0  0  0  0  0  0  0  0
  152.0043  137.5744  156.6828 C   0  0  0  0  0  0  0  0  0  0  0  0
  152.3016  136.3286  157.0341 N   0  0  0  0  0  0  0  0  0  0  0  0
  153.2460  136.4941  158.0570 O   0  0  0  0  0  0  0  0  0  0  0  0
  153.4172  137.8307  158.1879 C   0  0  0  0  0  0  0  0  0  0  0  0
  154.3279  138.3411  159.2556 C   0  0  0  0  0  0  0  0  0  0  0  0
  153.6313  139.3042  160.2284 C   0  0  0  0  0  0  0  0  0  0  0  0
  153.7196  140.7046  159.7660 N   0  3  0  0  0  0  0  0  0  0  0  0
  153.0969  141.6828  160.6796 C   0  0  0  0  0  0  0  0  0  0  0  0
  152.8252  143.0243  159.9742 C   0  0  0  0  0  0  0  0  0  0  0  0
  152.1180  144.0357  160.9035 C   0  0  0  0  0  0  0  0  0  0  0  0
  151.8352  145.3658  160.1864 C   0  0  0  0  0  0  0  0  0  0  0  0
  151.0156  145.1460  158.9063 C   0  0  0  0  0  0  0  0  0  0  0  0
  151.7084  144.1423  157.9730 C   0  0  0  0  0  0  0  0  0  0  0  0
  151.9899  142.8140  158.6945 C   0  0  0  0  0  0  0  0  0  0  0  0
  152.6511  138.5540  157.3757 N   0  0  0  0  0  0  0  0  0  0  0  0
  151.1197  140.0305  155.7900 H   0  0  0  0  0  0  0  0  0  0  0  0
  149.8016  139.3174  156.7173 H   0  0  0  0  0  0  0  0  0  0  0  0
  149.6698  139.4658  154.9682 H   0  0  0  0  0  0  0  0  0  0  0  0
  151.5312  137.8847  154.6610 H   0  0  0  0  0  0  0  0  0  0  0  0
  150.4389  135.7770  155.2984 H   0  0  0  0  0  0  0  0  0  0  0  0
  149.2592  136.9280  154.6820 H   0  0  0  0  0  0  0  0  0  0  0  0
  149.3772  136.6338  156.4142 H   0  0  0  0  0  0  0  0  0  0  0  0
  154.7262  137.4875  159.8052 H   0  0  0  0  0  0  0  0  0  0  0  0
  155.1817  138.8309  158.7856 H   0  0  0  0  0  0  0  0  0  0  0  0
  152.5834  139.0235  160.3433 H   0  0  0  0  0  0  0  0  0  0  0  0
  154.0938  139.2277  161.2131 H   0  0  0  0  0  0  0  0  0  0  0  0
  154.6943  140.9460  159.6548 H   0  0  0  0  0  0  0  0  0  0  0  0
  152.1595  141.2607  161.0448 H   0  0  0  0  0  0  0  0  0  0  0  0
  153.7379  141.8347  161.5492 H   0  0  0  0  0  0  0  0  0  0  0  0
  153.7852  143.4484  159.6741 H   0  0  0  0  0  0  0  0  0  0  0  0
  151.1789  143.6124  161.2633 H   0  0  0  0  0  0  0  0  0  0  0  0
  152.7260  144.2297  161.7875 H   0  0  0  0  0  0  0  0  0  0  0  0
  151.3028  146.0426  160.8555 H   0  0  0  0  0  0  0  0  0  0  0  0
  152.7777  145.8555  159.9380 H   0  0  0  0  0  0  0  0  0  0  0  0
  150.0221  144.7780  159.1661 H   0  0  0  0  0  0  0  0  0  0  0  0
  150.8692  146.0951  158.3898 H   0  0  0  0  0  0  0  0  0  0  0  0
  151.0884  143.9643  157.0937 H   0  0  0  0  0  0  0  0  0  0  0  0
  152.6447  144.5673  157.6092 H   0  0  0  0  0  0  0  0  0  0  0  0
  152.5097  142.1376  158.0153 H   0  0  0  0  0  0  0  0  0  0  0  0
  151.0447  142.3308  158.9458 H   0  0  0  0  0  0  0  0  0  0  0  0
  153.2668  140.7752  158.8654 H   0  0  0  0  0  0  0  0  0  0  0  0
  1  2  1  0  0  0  0
  1 19  1  0  0  0  0
  1 20  1  0  0  0  0
  1 21  1  0  0  0  0
  2  3  1  0  0  0  0
  2  4  1  0  0  0  0
  2 22  1  0  0  0  0
  3 23  1  0  0  0  0
  3 24  1  0  0  0  0
  3 25  1  0  0  0  0
  4 18  1  0  0  0  0
  4  5  2  0  0  0  0
  5  6  1  0  0  0  0
  6  7  1  0  0  0  0
  7  8  1  0  0  0  0
  7 18  2  0  0  0  0
  8  9  1  0  0  0  0
  8 26  1  0  0  0  0
  8 27  1  0  0  0  0
  9 10  1  0  0  0  0
  9 28  1  0  0  0  0
  9 29  1  0  0  0  0
 10 11  1  0  0  0  0
 10 30  1  0  0  0  0
 10 44  1  0  0  0  0
 11 12  1  0  0  0  0
 11 31  1  0  0  0  0
 11 32  1  0  0  0  0
 12 17  1  0  0  0  0
 12 13  1  0  0  0  0
 12 33  1  0  0  0  0
 13 14  1  0  0  0  0
 13 34  1  0  0  0  0
 13 35  1  0  0  0  0
 14 15  1  0  0  0  0
 14 36  1  0  0  0  0
 14 37  1  0  0  0  0
 15 16  1  0  0  0  0
 15 38  1  0  0  0  0
 15 39  1  0  0  0  0
 16 17  1  0  0  0  0
 16 40  1  0  0  0  0
 16 41  1  0  0  0  0
 17 42  1  0  0  0  0
 17 43  1  0  0  0  0
M  CHG  1  10   1
M  END
> <s_m_source_file>
AV-unprocessed.smi

> <i_m_source_file_index>
3325

> <i_lp_mmshare_version>
43012

> <i_f3d_flags>
0

> <s_epik_input>
W0NIM11bQ0hdKFtDSDNdKWMxbm9jKG4xKVtDSDJdW0NIMl1bTkhdW0NIMl1bQ0hdMltDSDJdW0NIMl1bQ0gyXVtDSDJdW0NIMl0y

> <s_epik_cmdline>
J2VwaWtfcHl0aG9uJywgJy1waCcsICc3LjAnLCAnLXRuJywgJzgnLCAnLW1hJywgJzIwMCcsICctbWV0YWxfYmluZGluZycsICctaW1hZScsICc8aW5maWxlLm1hZT4nLCAnLW9tYWUnLCAnPG91dGZpbGUubWFlPic=

> <r_lp_tautomer_probability>
1

> <r_epik_Ionization_Penalty>
0.00142412

> <r_epik_Ionization_Penalty_Charging>
0.00142412

> <r_epik_Ionization_Penalty_Neutral>
2.66011e-13

> <r_epik_State_Penalty>
0.000950746

> <r_epik_Charging_Adjusted_Penalty>
0.00237487

> <i_epik_Tot_Q>
1

> <i_epik_Tot_abs_Q>
1

> <r_epik_Metal_State_Penalty>
-0

> <b_epik_Metal_Only>
0

> <s_lp_Force_Field>
OPLS_2005

> <r_lp_Energy>
7.21373

> <b_lp_Chiralities_Consistent>
1

> <s_lp_Variant>
AV-unprocessed.smi:3325-1

> <Gold.Version>
5.8.1

> <Gold.Id.Protein>
6NUR|6NUR_protein|mol2

> <Gold.PLP.Fitness>
47.4855

> <Gold.PLP.PLP>
-43.4810

> <Gold.PLP.part.hbond>
-2.0000

> <Gold.PLP.part.metal>
0.0000

> <Gold.PLP.part.buried>
-3.0554

> <Gold.PLP.part.nonpolar>
-37.6433

> <Gold.PLP.part.repulsive>
0.0712

> <Gold.PLP.ligand.clash>
0.0000

> <Gold.PLP.ligand.torsion>
1.0132

> <Gold.PLP.Chemscore.Hbond>
1.9600

> <Gold.PLP.Chemscore.CHOScore>
0.0000

> <Gold.PLP.Chemscore.Metal>
0.0000

> <Gold.Chemscore.Hbonds>
donor molecule, donor type, donor heavy atom, donor atom, acceptor molecule, acceptor atom, score
      P1  H  7997  8010       L1    18  0.04
      P1  H 10752 10764       L1     5  0.37

> <Gold.PLP.Chemscore.Internal.Correction>
0.1509

> <Gold.Rescore>
     Score         DG    S(hbond)    S(metal)    S(lipo)     H(rot)  DE(clash)    DE(int)     intcor
     18.84     -19.86       1.66        0.00     116.28       1.86       0.05       0.96       ----

> <Gold.Chemscore.Fitness>
18.8430

> <Gold.Chemscore.DG>
-19.8587

> <Gold.Chemscore.ZeroCoef>
-5.4800

> <Gold.Chemscore.Hbond>
1.6571

> <Gold.Chemscore.Metal>
0.0000

> <Gold.Chemscore.Lipo>
116.2827

> <Gold.Chemscore.Internal_Hbond>
0.0000

> <Gold.Chemscore.DEClash>
0.0548

> <Gold.Chemscore.DEInternal>
0.9609

> <Gold.Chemscore.Rot>
1.8597

> <Gold.Chemscore.Internal.Correction>
   9.000000E+99

> <Gold.Chemscore.Hbonds>
donor molecule, donor type, donor heavy atom, donor atom, acceptor molecule, acceptor atom, score
      P1  H  7997  8010       L1    18  0.01
      P1  H 10752 10764       L1     5  0.11

> <Gold.Chemscore.Hbond.Weighted>
-5.5346

> <Gold.Chemscore.Metal.Weighted>
-0.0000

> <Gold.Chemscore.Lipo.Weighted>
-13.6051

> <Gold.Chemscore.Internal_Hbond.Weighted>
0.0000

> <Gold.Chemscore.DEClash.Weighted>
0.0548

> <Gold.Chemscore.DEInternal.Weighted>
0.9609

> <Gold.Chemscore.Rot.Weighted>
4.7610

> <Gold.Chemscore.Internal.Correction.Weighted>
   9.000000E+99

> <Gold.Protein.RotatedTorsions>
[ 6907 6896 6895 6894 ] final  -75.36 input  -60.11 | X-H torsion
[ 7974 7965 7964 7962 ] final  -68.49 input  175.53 | X-H torsion
[ 8008 7997 7996 7995 ] final   60.37 input   59.86 | X-H torsion
[ 10167 10162 10161 10158 ] final -125.63 input  -65.29 | X-H torsion
[ 10718 10713 10712 10709 ] final  161.43 input   66.30 | X-H torsion
[ 10763 10752 10751 10750 ] final   -6.72 input  -60.55 | X-H torsion
[ 11005 11000 10999 10996 ] final  153.99 input  -57.11 | X-H torsion

> <Gold.Protein.ActiveResidues>
 VAL166  LYS551  ARG553  GLY616  TRP617  ASP618  TYR619  PRO620  LYS621  CYS622 
 ASP623  PHE694  ASN695  SER759  ASP760  ASP761  ALA762  ILE779  LEU786  VAL792 
 PHE793  MET794  SER795  GLU796  ALA797  LYS798  CYS799  TRP800  GLU811  SER814 

> <Gold.Protein.RotatedAtoms>
  150.7061  134.4733  159.5435 H   0  0  0  0  0  0  0  0  0  0  0  0  # atno 6907 bound_to 6896
  152.2384  134.8250  160.0473 H   0  0  0  0  0  0  0  0  0  0  0  0  # atno 6908 bound_to 6896
  151.9040  133.3510  159.3877 H   0  0  0  0  0  0  0  0  0  0  0  0  # atno 6909 bound_to 6896
  145.7158  140.9059  143.0656 H   0  0  0  0  0  0  0  0  0  0  0  0  # atno 7974 bound_to 7965
  155.5811  140.3491  155.4541 H   0  0  0  0  0  0  0  0  0  0  0  0  # atno 8008 bound_to 7997
  156.0372  140.1288  157.0220 H   0  0  0  0  0  0  0  0  0  0  0  0  # atno 8009 bound_to 7997
  154.4376  140.1031  156.6170 H   0  0  0  0  0  0  0  0  0  0  0  0  # atno 8010 bound_to 7997
  139.9801  143.5752  152.2381 H   0  0  0  0  0  0  0  0  0  0  0  0  # atno 10167 bound_to 10162
  157.1366  131.0530  151.2347 H   0  0  0  0  0  0  0  0  0  0  0  0  # atno 10718 bound_to 10713
  153.4163  135.7009  153.6325 H   0  0  0  0  0  0  0  0  0  0  0  0  # atno 10763 bound_to 10752
  153.4798  135.3696  155.2436 H   0  0  0  0  0  0  0  0  0  0  0  0  # atno 10764 bound_to 10752
  154.8720  135.4063  154.3523 H   0  0  0  0  0  0  0  0  0  0  0  0  # atno 10765 bound_to 10752
  140.1448  134.8715  157.2378 H   0  0  0  0  0  0  0  0  0  0  0  0  # atno 11005 bound_to 11000
  144.6929  139.9136  143.7464 LP  0  0  0  0  0  0  0  0  0  0  0  0  # atno 17320 bound_to 7965
  146.0671  139.3661  143.0546 LP  0  0  0  0  0  0  0  0  0  0  0  0  # atno 17321 bound_to 7965
  139.6416  144.7655  151.2327 LP  0  0  0  0  0  0  0  0  0  0  0  0  # atno 17342 bound_to 10162
  140.7492  143.6307  150.8425 LP  0  0  0  0  0  0  0  0  0  0  0  0  # atno 17343 bound_to 10162
  157.4345  130.7509  149.7017 LP  0  0  0  0  0  0  0  0  0  0  0  0  # atno 17370 bound_to 10713
  155.9797  130.4037  150.3572 LP  0  0  0  0  0  0  0  0  0  0  0  0  # atno 17371 bound_to 10713
  140.2678  134.3496  155.7384 LP  0  0  0  0  0  0  0  0  0  0  0  0  # atno 17394 bound_to 11000
  141.2191  133.7406  156.9176 LP  0  0  0  0  0  0  0  0  0  0  0  0  # atno 17395 bound_to 11000

$$$$
