AV-unprocessed.smi:527|AV-procd|sdf|2826|dock8
  -GOLD-   2262023313D 1   1.00000     0.00000
 Structure written by MMmdl.
 43 44  0  0  0  0  0  0  0  0  2 V2000
  149.5425  141.3349  156.8546 C   0  0  0  0  0  0  0  0  0  0  0  0
  150.2520  141.1287  155.5005 C   0  0  1  0  0  0  0  0  0  0  0  0
  151.5977  140.3950  155.6704 C   0  0  0  0  0  0  0  0  0  0  0  0
  151.4091  138.9057  155.9989 C   0  0  0  0  0  0  0  0  0  0  0  0
  150.5455  138.2085  154.9385 C   0  0  0  0  0  0  0  0  0  0  0  0
  149.1872  138.9154  154.7442 C   0  0  2  0  0  0  0  0  0  0  0  0
  148.4413  138.2613  153.6701 N   0  0  0  0  0  0  0  0  0  0  0  0
  147.1233  138.0126  153.6796 C   0  0  0  0  0  0  0  0  0  0  0  0
  146.3527  138.4757  154.5234 O   0  0  0  0  0  0  0  0  0  0  0  0
  146.7762  137.2039  152.6593 N   0  0  0  0  0  0  0  0  0  0  0  0
  145.5315  136.9105  152.2306 C   0  0  0  0  0  0  0  0  0  0  0  0
  144.4917  137.3546  152.7245 O   0  0  0  0  0  0  0  0  0  0  0  0
  145.4708  135.9466  151.0385 C   0  0  0  0  0  0  0  0  0  0  0  0
  144.8498  134.6577  151.3714 N   0  0  0  0  0  0  0  0  0  0  0  0
  144.8165  133.5257  150.5973 C   0  0  0  0  0  0  0  0  0  0  0  0
  144.1214  132.5839  151.3113 C   0  0  0  0  0  0  0  0  0  0  0  0
  143.7606  133.1795  152.4903 N   0  3  0  0  0  0  0  0  0  0  0  0
  144.2040  134.4403  152.5251 C   0  0  0  0  0  0  0  0  0  0  0  0
  149.3819  140.4211  154.4272 C   0  0  1  0  0  0  0  0  0  0  0  0
  148.0532  141.1590  154.1688 C   0  0  0  0  0  0  0  0  0  0  0  0
  149.2187  140.3943  157.2988 H   0  0  0  0  0  0  0  0  0  0  0  0
  148.6646  141.9726  156.7545 H   0  0  0  0  0  0  0  0  0  0  0  0
  150.2061  141.8221  157.5694 H   0  0  0  0  0  0  0  0  0  0  0  0
  150.4844  142.1261  155.1248 H   0  0  0  0  0  0  0  0  0  0  0  0
  152.1736  140.4845  154.7482 H   0  0  0  0  0  0  0  0  0  0  0  0
  152.1956  140.8751  156.4457 H   0  0  0  0  0  0  0  0  0  0  0  0
  152.3810  138.4159  156.0625 H   0  0  0  0  0  0  0  0  0  0  0  0
  150.9479  138.7941  156.9805 H   0  0  0  0  0  0  0  0  0  0  0  0
  151.0883  138.1884  153.9922 H   0  0  0  0  0  0  0  0  0  0  0  0
  150.3914  137.1675  155.2253 H   0  0  0  0  0  0  0  0  0  0  0  0
  148.6126  138.8313  155.6681 H   0  0  0  0  0  0  0  0  0  0  0  0
  148.9715  137.9904  152.8551 H   0  0  0  0  0  0  0  0  0  0  0  0
  147.5360  136.7672  152.1584 H   0  0  0  0  0  0  0  0  0  0  0  0
  144.8960  136.3981  150.2286 H   0  0  0  0  0  0  0  0  0  0  0  0
  146.4770  135.7571  150.6615 H   0  0  0  0  0  0  0  0  0  0  0  0
  145.2744  133.4768  149.6196 H   0  0  0  0  0  0  0  0  0  0  0  0
  143.8620  131.5621  151.0745 H   0  0  0  0  0  0  0  0  0  0  0  0
  144.0629  135.1447  153.3255 H   0  0  0  0  0  0  0  0  0  0  0  0
  149.9445  140.4785  153.4935 H   0  0  0  0  0  0  0  0  0  0  0  0
  147.3629  141.0479  155.0051 H   0  0  0  0  0  0  0  0  0  0  0  0
  147.5508  140.7789  153.2793 H   0  0  0  0  0  0  0  0  0  0  0  0
  148.2205  142.2249  154.0116 H   0  0  0  0  0  0  0  0  0  0  0  0
  143.2313  132.7337  153.2291 H   0  0  0  0  0  0  0  0  0  0  0  0
  1  2  1  0  0  0  0
  1 21  1  0  0  0  0
  1 22  1  0  0  0  0
  1 23  1  0  0  0  0
  2 19  1  0  0  0  0
  2  3  1  0  0  0  0
  2 24  1  0  0  0  0
  3  4  1  0  0  0  0
  3 25  1  0  0  0  0
  3 26  1  0  0  0  0
  4  5  1  0  0  0  0
  4 27  1  0  0  0  0
  4 28  1  0  0  0  0
  5  6  1  0  0  0  0
  5 29  1  0  0  0  0
  5 30  1  0  0  0  0
  6  7  1  0  0  0  0
  6 19  1  0  0  0  0
  6 31  1  0  0  0  0
  7  8  1  0  0  0  0
  7 32  1  0  0  0  0
  8  9  2  0  0  0  0
  8 10  1  0  0  0  0
 10 11  1  0  0  0  0
 10 33  1  0  0  0  0
 11 12  2  0  0  0  0
 11 13  1  0  0  0  0
 13 14  1  0  0  0  0
 13 34  1  0  0  0  0
 13 35  1  0  0  0  0
 14 18  1  0  0  0  0
 14 15  1  0  0  0  0
 15 16  2  0  0  0  0
 15 36  1  0  0  0  0
 16 17  1  0  0  0  0
 16 37  1  0  0  0  0
 17 18  2  0  0  0  0
 17 43  1  0  0  0  0
 18 38  1  0  0  0  0
 19 20  1  0  0  0  0
 19 39  1  0  0  0  0
 20 40  1  0  0  0  0
 20 41  1  0  0  0  0
 20 42  1  0  0  0  0
M  CHG  1  17   1
M  END
> <s_m_source_file>
AV-unprocessed.smi

> <i_m_source_file_index>
527

> <i_lp_mmshare_version>
43012

> <i_f3d_flags>
0

> <s_epik_input>
W0NIM11bQ0BASF0xW0NIMl1bQ0gyXVtDSDJdW0NASF0oW0NASF0xW0NIM10pW05IXUMoPU8pW05IXUMoPU8pW0NIMl1uMltjSF1bY0hdbltjSF0y

> <s_epik_cmdline>
J2VwaWtfcHl0aG9uJywgJy1waCcsICc3LjAnLCAnLXRuJywgJzgnLCAnLW1hJywgJzIwMCcsICctbWV0YWxfYmluZGluZycsICctaW1hZScsICc8aW5maWxlLm1hZT4nLCAnLW9tYWUnLCAnPG91dGZpbGUubWFlPic=

> <r_lp_tautomer_probability>
1

> <r_epik_Ionization_Penalty>
0.816441

> <r_epik_Ionization_Penalty_Charging>
0

> <r_epik_Ionization_Penalty_Neutral>
0.816441

> <r_epik_State_Penalty>
0.849034

> <r_epik_Charging_Adjusted_Penalty>
0.849034

> <i_epik_Tot_Q>
1

> <i_epik_Tot_abs_Q>
1

> <r_epik_Metal_State_Penalty>
0.984327

> <b_epik_Metal_Only>
0

> <s_lp_Force_Field>
OPLS_2005

> <r_lp_Energy>
18.63

> <b_lp_Chiralities_Consistent>
1

> <s_lp_Variant>
AV-unprocessed.smi:527-12

> <Gold.Version>
5.8.1

> <Gold.Id.Protein>
6NUR|6NUR_protein|mol2

> <Gold.PLP.Fitness>
48.0967

> <Gold.PLP.PLP>
-35.1700

> <Gold.PLP.part.hbond>
-3.1863

> <Gold.PLP.part.metal>
0.0000

> <Gold.PLP.part.buried>
-2.9675

> <Gold.PLP.part.nonpolar>
-29.7736

> <Gold.PLP.part.repulsive>
0.9052

> <Gold.PLP.ligand.clash>
0.0000

> <Gold.PLP.ligand.torsion>
0.4805

> <Gold.PLP.Chemscore.Hbond>
3.6240

> <Gold.PLP.Chemscore.CHOScore>
1.0000

> <Gold.PLP.Chemscore.Metal>
0.0000

> <Gold.Chemscore.Hbonds>
donor molecule, donor type, donor heavy atom, donor atom, acceptor molecule, acceptor atom, score
      L1  H     7    32       P1  7948  0.61
      L1  H    10    33       P1  7948  0.99
      L1  H    17    43       P1 10957  2.00
      L1  C    15    36       P1  7921  0.98

> <Gold.PLP.Chemscore.Internal.Correction>
0.0156

> <Gold.Rescore>
     Score         DG    S(hbond)    S(metal)    S(lipo)     H(rot)  DE(clash)    DE(int)     intcor
     15.16     -18.25       2.68        0.00      70.10       1.71       0.09       3.00       ----

> <Gold.Chemscore.Fitness>
15.1564

> <Gold.Chemscore.DG>
-18.2530

> <Gold.Chemscore.ZeroCoef>
-5.4800

> <Gold.Chemscore.Hbond>
2.6756

> <Gold.Chemscore.Metal>
0.0000

> <Gold.Chemscore.Lipo>
70.0999

> <Gold.Chemscore.Internal_Hbond>
0.0000

> <Gold.Chemscore.DEClash>
0.0925

> <Gold.Chemscore.DEInternal>
3.0041

> <Gold.Chemscore.Rot>
1.7052

> <Gold.Chemscore.Internal.Correction>
   9.000000E+99

> <Gold.Chemscore.Hbonds>
donor molecule, donor type, donor heavy atom, donor atom, acceptor molecule, acceptor atom, score
      L1  H     7    32       P1  7948  0.58
      L1  H    10    33       P1  7948  0.92
      L1  H    17    43       P1 10957  0.40

> <Gold.Chemscore.Hbond.Weighted>
-8.9367

> <Gold.Chemscore.Metal.Weighted>
-0.0000

> <Gold.Chemscore.Lipo.Weighted>
-8.2017

> <Gold.Chemscore.Internal_Hbond.Weighted>
0.0000

> <Gold.Chemscore.DEClash.Weighted>
0.0925

> <Gold.Chemscore.DEInternal.Weighted>
3.0041

> <Gold.Chemscore.Rot.Weighted>
4.3653

> <Gold.Chemscore.Internal.Correction.Weighted>
   9.000000E+99

> <Gold.Protein.RotatedTorsions>
[ 6907 6896 6895 6894 ] final -122.61 input  -60.11 | X-H torsion
[ 7974 7965 7964 7962 ] final   97.76 input  175.53 | X-H torsion
[ 8008 7997 7996 7995 ] final   -2.04 input   59.86 | X-H torsion
[ 10167 10162 10161 10158 ] final   57.65 input  -65.29 | X-H torsion
[ 10718 10713 10712 10709 ] final  -40.34 input   66.30 | X-H torsion
[ 10763 10752 10751 10750 ] final    0.46 input  -60.55 | X-H torsion
[ 11005 11000 10999 10996 ] final  -62.73 input  -57.11 | X-H torsion

> <Gold.Protein.ActiveResidues>
 VAL166  LYS551  ARG553  GLY616  TRP617  ASP618  TYR619  PRO620  LYS621  CYS622 
 ASP623  PHE694  ASN695  SER759  ASP760  ASP761  ALA762  ILE779  LEU786  VAL792 
 PHE793  MET794  SER795  GLU796  ALA797  LYS798  CYS799  TRP800  GLU811  SER814 

> <Gold.Protein.RotatedAtoms>
  150.8592  133.7669  159.2997 H   0  0  0  0  0  0  0  0  0  0  0  0  # atno 6907 bound_to 6896
  151.5316  135.1067  159.9914 H   0  0  0  0  0  0  0  0  0  0  0  0  # atno 6908 bound_to 6896
  152.4613  133.7785  159.6893 H   0  0  0  0  0  0  0  0  0  0  0  0  # atno 6909 bound_to 6896
  145.4212  139.2321  143.3195 H   0  0  0  0  0  0  0  0  0  0  0  0  # atno 7974 bound_to 7965
  154.6401  140.2544  155.7332 H   0  0  0  0  0  0  0  0  0  0  0  0  # atno 8008 bound_to 7997
  156.2524  140.2889  156.0711 H   0  0  0  0  0  0  0  0  0  0  0  0  # atno 8009 bound_to 7997
  155.1610  140.0384  157.2833 H   0  0  0  0  0  0  0  0  0  0  0  0  # atno 8010 bound_to 7997
  140.1957  144.4040  150.6551 H   0  0  0  0  0  0  0  0  0  0  0  0  # atno 10167 bound_to 10162
  156.2825  130.4219  149.8322 H   0  0  0  0  0  0  0  0  0  0  0  0  # atno 10718 bound_to 10713
  153.3204  135.6969  153.7036 H   0  0  0  0  0  0  0  0  0  0  0  0  # atno 10763 bound_to 10752
  153.5878  135.3485  155.2900 H   0  0  0  0  0  0  0  0  0  0  0  0  # atno 10764 bound_to 10752
  154.8596  135.4310  154.2366 H   0  0  0  0  0  0  0  0  0  0  0  0  # atno 10765 bound_to 10752
  141.1369  133.6643  156.5572 H   0  0  0  0  0  0  0  0  0  0  0  0  # atno 11005 bound_to 11000
  146.2656  140.4936  142.8835 LP  0  0  0  0  0  0  0  0  0  0  0  0  # atno 17320 bound_to 7965
  144.8244  140.6604  143.6332 LP  0  0  0  0  0  0  0  0  0  0  0  0  # atno 17321 bound_to 7965
  140.6425  143.2206  151.6258 LP  0  0  0  0  0  0  0  0  0  0  0  0  # atno 17342 bound_to 10162
  139.5238  144.3124  152.0982 LP  0  0  0  0  0  0  0  0  0  0  0  0  # atno 17343 bound_to 10162
  156.5765  130.8447  151.3371 LP  0  0  0  0  0  0  0  0  0  0  0  0  # atno 17370 bound_to 10713
  157.7318  130.9706  150.1900 LP  0  0  0  0  0  0  0  0  0  0  0  0  # atno 17371 bound_to 10713
  140.4017  134.7351  157.4783 LP  0  0  0  0  0  0  0  0  0  0  0  0  # atno 17394 bound_to 11000
  140.0491  134.6156  155.8883 LP  0  0  0  0  0  0  0  0  0  0  0  0  # atno 17395 bound_to 11000

$$$$
