AV-unprocessed.smi:1940|AV-procd|sdf|7839|dock6
  -GOLD-   22720 9583D 1   1.00000     0.00000
 Structure written by MMmdl.
 49 51  0  0  0  0  0  0  0  0  1 V2000
  144.3006  137.1314  152.4567 C   0  0  0  0  0  0  0  0  0  0  0  0
  145.3265  136.0007  152.6226 C   0  0  2  0  0  0  0  0  0  0  0  0
  146.6212  136.5813  152.9761 N   0  0  0  0  0  0  0  0  0  0  0  0
  146.8461  137.4710  153.9540 C   0  0  0  0  0  0  0  0  0  0  0  0
  145.9614  137.9217  154.6801 O   0  0  0  0  0  0  0  0  0  0  0  0
  148.1501  137.7907  154.0183 N   0  0  0  0  0  0  0  0  0  0  0  0
  148.8212  138.6869  154.8958 C   0  0  0  0  0  0  0  0  0  0  0  0
  148.4230  138.9792  156.2219 C   0  0  0  0  0  0  0  0  0  0  0  0
  149.1898  139.8847  156.9803 C   0  0  0  0  0  0  0  0  0  0  0  0
  150.3370  140.4763  156.4025 C   0  0  0  0  0  0  0  0  0  0  0  0
  151.1140  141.3891  157.1478 N   0  0  0  0  0  0  0  0  0  0  0  0
  150.6382  142.7721  157.2357 C   0  0  0  0  0  0  0  0  0  0  0  0
  151.7465  143.7102  157.7430 C   0  0  0  0  0  0  0  0  0  0  0  0
  152.3324  143.2044  159.0691 C   0  0  0  0  0  0  0  0  0  0  0  0
  152.8173  141.7556  158.9107 C   0  0  0  0  0  0  0  0  0  0  0  0
  151.6932  140.8494  158.3798 C   0  0  0  0  0  0  0  0  0  0  0  0
  150.7218  140.1863  155.1359 N   0  0  0  0  0  0  0  0  0  0  0  0
  149.9836  139.3196  154.4122 C   0  0  0  0  0  0  0  0  0  0  0  0
  145.4602  135.1502  151.3441 C   0  0  1  0  0  0  0  0  0  0  0  0
  146.3852  133.9387  151.4733 C   0  0  0  0  0  0  0  0  0  0  0  0
  145.8783  133.0507  150.3606 C   0  0  0  0  0  0  0  0  0  0  0  0
  144.3723  133.2876  150.4306 C   0  0  0  0  0  0  0  0  0  0  0  0
  144.2004  134.5938  150.9761 O   0  0  0  0  0  0  0  0  0  0  0  0
  143.3123  136.7344  152.2230 H   0  0  0  0  0  0  0  0  0  0  0  0
  144.5837  137.8120  151.6529 H   0  0  0  0  0  0  0  0  0  0  0  0
  144.2092  137.7160  153.3726 H   0  0  0  0  0  0  0  0  0  0  0  0
  144.9735  135.3506  153.4252 H   0  0  0  0  0  0  0  0  0  0  0  0
  147.4136  136.2705  152.4334 H   0  0  0  0  0  0  0  0  0  0  0  0
  148.7412  137.3492  153.3294 H   0  0  0  0  0  0  0  0  0  0  0  0
  147.5584  138.5299  156.6826 H   0  0  0  0  0  0  0  0  0  0  0  0
  148.9004  140.1036  157.9974 H   0  0  0  0  0  0  0  0  0  0  0  0
  150.3007  143.1163  156.2573 H   0  0  0  0  0  0  0  0  0  0  0  0
  149.7791  142.8129  157.9068 H   0  0  0  0  0  0  0  0  0  0  0  0
  152.5384  143.7760  156.9955 H   0  0  0  0  0  0  0  0  0  0  0  0
  151.3534  144.7194  157.8671 H   0  0  0  0  0  0  0  0  0  0  0  0
  153.1545  143.8460  159.3874 H   0  0  0  0  0  0  0  0  0  0  0  0
  151.5732  143.2555  159.8506 H   0  0  0  0  0  0  0  0  0  0  0  0
  153.6636  141.7270  158.2230 H   0  0  0  0  0  0  0  0  0  0  0  0
  153.1815  141.3763  159.8658 H   0  0  0  0  0  0  0  0  0  0  0  0
  150.9018  140.7654  159.1257 H   0  0  0  0  0  0  0  0  0  0  0  0
  152.0893  139.8456  158.2321 H   0  0  0  0  0  0  0  0  0  0  0  0
  150.3354  139.1267  153.4091 H   0  0  0  0  0  0  0  0  0  0  0  0
  145.8039  135.7702  150.5138 H   0  0  0  0  0  0  0  0  0  0  0  0
  147.4404  134.1930  151.3691 H   0  0  0  0  0  0  0  0  0  0  0  0
  146.2447  133.4478  152.4375 H   0  0  0  0  0  0  0  0  0  0  0  0
  146.2688  133.3947  149.4020 H   0  0  0  0  0  0  0  0  0  0  0  0
  146.1525  132.0031  150.4862 H   0  0  0  0  0  0  0  0  0  0  0  0
  143.8953  133.1996  149.4543 H   0  0  0  0  0  0  0  0  0  0  0  0
  143.9025  132.5689  151.1028 H   0  0  0  0  0  0  0  0  0  0  0  0
  1  2  1  0  0  0  0
  1 24  1  0  0  0  0
  1 25  1  0  0  0  0
  1 26  1  0  0  0  0
  2  3  1  0  0  0  0
  2 19  1  0  0  0  0
  2 27  1  0  0  0  0
  3  4  1  0  0  0  0
  3 28  1  0  0  0  0
  4  5  2  0  0  0  0
  4  6  1  0  0  0  0
  6  7  1  0  0  0  0
  6 29  1  0  0  0  0
  7 18  1  0  0  0  0
  7  8  2  0  0  0  0
  8  9  1  0  0  0  0
  8 30  1  0  0  0  0
  9 10  2  0  0  0  0
  9 31  1  0  0  0  0
 10 11  1  0  0  0  0
 10 17  1  0  0  0  0
 11 16  1  0  0  0  0
 11 12  1  0  0  0  0
 12 13  1  0  0  0  0
 12 32  1  0  0  0  0
 12 33  1  0  0  0  0
 13 14  1  0  0  0  0
 13 34  1  0  0  0  0
 13 35  1  0  0  0  0
 14 15  1  0  0  0  0
 14 36  1  0  0  0  0
 14 37  1  0  0  0  0
 15 16  1  0  0  0  0
 15 38  1  0  0  0  0
 15 39  1  0  0  0  0
 16 40  1  0  0  0  0
 16 41  1  0  0  0  0
 17 18  2  0  0  0  0
 18 42  1  0  0  0  0
 19 23  1  0  0  0  0
 19 20  1  0  0  0  0
 19 43  1  0  0  0  0
 20 21  1  0  0  0  0
 20 44  1  0  0  0  0
 20 45  1  0  0  0  0
 21 22  1  0  0  0  0
 21 46  1  0  0  0  0
 21 47  1  0  0  0  0
 22 23  1  0  0  0  0
 22 48  1  0  0  0  0
 22 49  1  0  0  0  0
M  END
> <s_m_source_file>
AV-unprocessed.smi

> <i_m_source_file_index>
1940

> <i_lp_mmshare_version>
43012

> <i_f3d_flags>
0

> <s_epik_input>
TzFbQ0gyXVtDSDJdW0NIMl1bQ0BIXTFbQ0BIXShbQ0gzXSlbTkhdQyg9TylbTkhdYzJbY0hdW2NIXWMobltjSF0yKU4zW0NIMl1bQ0gyXVtDSDJdW0NIMl1bQ0gyXTM=

> <s_epik_cmdline>
J2VwaWtfcHl0aG9uJywgJy1waCcsICc3LjAnLCAnLXRuJywgJzgnLCAnLW1hJywgJzIwMCcsICctbWV0YWxfYmluZGluZycsICctaW1hZScsICc8aW5maWxlLm1hZT4nLCAnLW9tYWUnLCAnPG91dGZpbGUubWFlPic=

> <r_lp_tautomer_probability>
1

> <r_epik_Ionization_Penalty>
0.105688

> <r_epik_Ionization_Penalty_Charging>
0

> <r_epik_Ionization_Penalty_Neutral>
0.105688

> <r_epik_State_Penalty>
0.0895745

> <r_epik_Charging_Adjusted_Penalty>
0.0895745

> <i_epik_Tot_Q>
0

> <i_epik_Tot_abs_Q>
0

> <r_epik_Metal_State_Penalty>
0.0765749

> <b_epik_Metal_Only>
0

> <s_lp_Force_Field>
OPLS_2005

> <r_lp_Energy>
32.8596

> <b_lp_Chiralities_Consistent>
1

> <s_lp_Variant>
AV-unprocessed.smi:1940-3

> <Gold.Version>
5.8.1

> <Gold.Id.Protein>
6NUR|6NUR_protein|mol2

> <Gold.PLP.Fitness>
45.2289

> <Gold.PLP.PLP>
-34.9570

> <Gold.PLP.part.hbond>
-3.0000

> <Gold.PLP.part.metal>
0.0000

> <Gold.PLP.part.buried>
-4.4460

> <Gold.PLP.part.nonpolar>
-28.0845

> <Gold.PLP.part.repulsive>
0.3348

> <Gold.PLP.ligand.clash>
0.0000

> <Gold.PLP.ligand.torsion>
0.5477

> <Gold.PLP.Chemscore.Hbond>
2.6500

> <Gold.PLP.Chemscore.CHOScore>
1.0000

> <Gold.PLP.Chemscore.Metal>
0.0000

> <Gold.Chemscore.Hbonds>
donor molecule, donor type, donor heavy atom, donor atom, acceptor molecule, acceptor atom, score
      L1  H     3    28       P1  7948  1.00
      L1  H     6    29       P1  7948  1.00
      P1  H  7989  7998       L1    17  0.60
      L1  C    18    42       P1  7957  1.00

> <Gold.PLP.Chemscore.Internal.Correction>
0.4173

> <Gold.Rescore>
     Score         DG    S(hbond)    S(metal)    S(lipo)     H(rot)  DE(clash)    DE(int)     intcor
     18.34     -20.50       2.14        0.00      96.62       1.34       0.19       1.97       ----

> <Gold.Chemscore.Fitness>
18.3424

> <Gold.Chemscore.DG>
-20.5040

> <Gold.Chemscore.ZeroCoef>
-5.4800

> <Gold.Chemscore.Hbond>
2.1376

> <Gold.Chemscore.Metal>
0.0000

> <Gold.Chemscore.Lipo>
96.6162

> <Gold.Chemscore.Internal_Hbond>
0.0000

> <Gold.Chemscore.DEClash>
0.1887

> <Gold.Chemscore.DEInternal>
1.9728

> <Gold.Chemscore.Rot>
1.3359

> <Gold.Chemscore.Internal.Correction>
   9.000000E+99

> <Gold.Chemscore.Hbonds>
donor molecule, donor type, donor heavy atom, donor atom, acceptor molecule, acceptor atom, score
      L1  H     3    28       P1  7948  0.99
      L1  H     6    29       P1  7948  0.96
      P1  H  7989  7998       L1    17  0.04

> <Gold.Chemscore.Hbond.Weighted>
-7.1397

> <Gold.Chemscore.Metal.Weighted>
-0.0000

> <Gold.Chemscore.Lipo.Weighted>
-11.3041

> <Gold.Chemscore.Internal_Hbond.Weighted>
0.0000

> <Gold.Chemscore.DEClash.Weighted>
0.1887

> <Gold.Chemscore.DEInternal.Weighted>
1.9728

> <Gold.Chemscore.Rot.Weighted>
3.4199

> <Gold.Chemscore.Internal.Correction.Weighted>
   9.000000E+99

> <Gold.Protein.RotatedTorsions>
[ 6907 6896 6895 6894 ] final  -38.44 input  -60.11 | X-H torsion
[ 7974 7965 7964 7962 ] final -170.18 input  175.53 | X-H torsion
[ 8008 7997 7996 7995 ] final  101.24 input   59.86 | X-H torsion
[ 10167 10162 10161 10158 ] final  169.69 input  -65.29 | X-H torsion
[ 10718 10713 10712 10709 ] final   21.74 input   66.30 | X-H torsion
[ 10763 10752 10751 10750 ] final   81.54 input  -60.55 | X-H torsion
[ 11005 11000 10999 10996 ] final   -0.77 input  -57.11 | X-H torsion

> <Gold.Protein.ActiveResidues>
 VAL166  LYS551  ARG553  GLY616  TRP617  ASP618  TYR619  PRO620  LYS621  CYS622 
 ASP623  PHE694  ASN695  SER759  ASP760  ASP761  ALA762  ILE779  LEU786  VAL792 
 PHE793  MET794  SER795  GLU796  ALA797  LYS798  CYS799  TRP800  GLU811  SER814 

> <Gold.Protein.RotatedAtoms>
  151.0024  134.9333  159.7961 H   0  0  0  0  0  0  0  0  0  0  0  0  # atno 6907 bound_to 6896
  152.5281  134.3136  159.9132 H   0  0  0  0  0  0  0  0  0  0  0  0  # atno 6908 bound_to 6896
  151.3142  133.4026  159.2683 H   0  0  0  0  0  0  0  0  0  0  0  0  # atno 6909 bound_to 6896
  144.7174  140.2110  143.6327 H   0  0  0  0  0  0  0  0  0  0  0  0  # atno 7974 bound_to 7965
  156.1281  140.3200  155.8307 H   0  0  0  0  0  0  0  0  0  0  0  0  # atno 8008 bound_to 7997
  155.4383  140.0523  157.3030 H   0  0  0  0  0  0  0  0  0  0  0  0  # atno 8009 bound_to 7997
  154.4878  140.2080  155.9630 H   0  0  0  0  0  0  0  0  0  0  0  0  # atno 8010 bound_to 7997
  139.4999  144.3678  151.9757 H   0  0  0  0  0  0  0  0  0  0  0  0  # atno 10167 bound_to 10162
  157.1427  130.6639  149.5986 H   0  0  0  0  0  0  0  0  0  0  0  0  # atno 10718 bound_to 10713
  153.1126  135.4761  154.9060 H   0  0  0  0  0  0  0  0  0  0  0  0  # atno 10763 bound_to 10752
  154.7496  135.3102  154.8585 H   0  0  0  0  0  0  0  0  0  0  0  0  # atno 10764 bound_to 10752
  153.9170  135.6859  153.4802 H   0  0  0  0  0  0  0  0  0  0  0  0  # atno 10765 bound_to 10752
  140.6399  133.9499  155.8320 H   0  0  0  0  0  0  0  0  0  0  0  0  # atno 11005 bound_to 11000
  145.8591  139.2213  143.1727 LP  0  0  0  0  0  0  0  0  0  0  0  0  # atno 17320 bound_to 7965
  146.0190  140.8365  142.9933 LP  0  0  0  0  0  0  0  0  0  0  0  0  # atno 17321 bound_to 7965
  140.3114  144.3533  150.6033 LP  0  0  0  0  0  0  0  0  0  0  0  0  # atno 17342 bound_to 10162
  140.5795  143.2174  151.7453 LP  0  0  0  0  0  0  0  0  0  0  0  0  # atno 17343 bound_to 10162
  155.9785  130.4772  150.6662 LP  0  0  0  0  0  0  0  0  0  0  0  0  # atno 17370 bound_to 10713
  157.4292  131.0847  151.1055 LP  0  0  0  0  0  0  0  0  0  0  0  0  # atno 17371 bound_to 10713
  141.0614  134.0340  157.3653 LP  0  0  0  0  0  0  0  0  0  0  0  0  # atno 17394 bound_to 11000
  139.9084  135.0185  156.7586 LP  0  0  0  0  0  0  0  0  0  0  0  0  # atno 17395 bound_to 11000

$$$$
