AV-unprocessed.smi:213|AV-procd|sdf|1640|dock4
  -GOLD-   2262020 03D 1   1.00000     0.00000
 Structure written by MMmdl.
 59 62  0  0  0  0  0  0  0  0  2 V2000
  144.4373  137.4895  153.1552 C   0  0  0  0  0  0  0  0  0  0  0  0
  145.8836  137.1796  152.7256 C   0  0  1  0  0  0  0  0  0  0  0  0
  145.9552  136.5866  151.2988 C   0  0  0  0  0  0  0  0  0  0  0  0
  145.5011  135.1748  151.2409 N   0  3  0  0  0  0  0  0  0  0  0  0
  144.7888  134.8613  149.9794 C   0  0  0  0  0  0  0  0  0  0  0  0
  144.2996  133.4032  149.9836 C   0  0  0  0  0  0  0  0  0  0  0  0
  145.4040  132.5299  150.1825 O   0  0  0  0  0  0  0  0  0  0  0  0
  146.0444  132.7589  151.4314 C   0  0  0  0  0  0  0  0  0  0  0  0
  146.5919  134.1954  151.4754 C   0  0  0  0  0  0  0  0  0  0  0  0
  146.7403  138.3669  152.8550 N   0  0  0  0  0  0  0  0  0  0  0  0
  146.9185  139.2624  151.7136 C   0  0  0  0  0  0  0  0  0  0  0  0
  147.7069  138.4021  153.8169 C   0  0  0  0  0  0  0  0  0  0  0  0
  148.0307  137.2582  154.4805 N   0  0  0  0  0  0  0  0  0  0  0  0
  148.9783  137.2572  155.4216 C   0  0  0  0  0  0  0  0  0  0  0  0
  149.7203  138.2751  155.8573 N   0  0  0  0  0  0  0  0  0  0  0  0
  149.4015  139.4296  155.2065 C   0  0  0  0  0  0  0  0  0  0  0  0
  148.4196  139.5833  154.1851 C   0  0  0  0  0  0  0  0  0  0  0  0
  148.3784  140.9133  153.7778 N   0  0  0  0  0  0  0  0  0  0  0  0
  149.2874  141.5043  154.5042 C   0  0  0  0  0  0  0  0  0  0  0  0
  149.9498  140.6858  155.3888 N   0  0  0  0  0  0  0  0  0  0  0  0
  150.9995  141.0713  156.3150 C   0  0  0  0  0  0  0  0  0  0  0  0
  150.7436  142.4518  156.9494 C   0  0  1  0  0  0  0  0  0  0  0  0
  149.4199  142.5347  157.4443 O   0  0  0  0  0  0  0  0  0  0  0  0
  151.7611  142.7981  158.0548 C   0  0  1  0  0  0  0  0  0  0  0  0
  151.8059  144.2661  158.5099 C   0  0  0  0  0  0  0  0  0  0  0  0
  151.8934  144.1778  160.0271 C   0  0  0  0  0  0  0  0  0  0  0  0
  152.2051  142.7076  160.2907 C   0  0  0  0  0  0  0  0  0  0  0  0
  151.5355  142.0391  159.2352 O   0  0  0  0  0  0  0  0  0  0  0  0
  143.8327  136.5828  153.1816 H   0  0  0  0  0  0  0  0  0  0  0  0
  143.9473  138.1880  152.4771 H   0  0  0  0  0  0  0  0  0  0  0  0
  144.4118  137.9233  154.1556 H   0  0  0  0  0  0  0  0  0  0  0  0
  146.2402  136.4385  153.4397 H   0  0  0  0  0  0  0  0  0  0  0  0
  145.3351  137.1925  150.6369 H   0  0  0  0  0  0  0  0  0  0  0  0
  146.9684  136.6478  150.8985 H   0  0  0  0  0  0  0  0  0  0  0  0
  143.9371  135.5318  149.8570 H   0  0  0  0  0  0  0  0  0  0  0  0
  145.4549  135.0302  149.1315 H   0  0  0  0  0  0  0  0  0  0  0  0
  143.5503  133.2449  150.7611 H   0  0  0  0  0  0  0  0  0  0  0  0
  143.8263  133.1631  149.0314 H   0  0  0  0  0  0  0  0  0  0  0  0
  145.3461  132.5823  152.2510 H   0  0  0  0  0  0  0  0  0  0  0  0
  146.8585  132.0431  151.5472 H   0  0  0  0  0  0  0  0  0  0  0  0
  147.3654  134.3200  150.7159 H   0  0  0  0  0  0  0  0  0  0  0  0
  147.0649  134.3696  152.4411 H   0  0  0  0  0  0  0  0  0  0  0  0
  147.9750  139.4218  151.4947 H   0  0  0  0  0  0  0  0  0  0  0  0
  146.4576  140.2290  151.9186 H   0  0  0  0  0  0  0  0  0  0  0  0
  146.4599  138.8621  150.8103 H   0  0  0  0  0  0  0  0  0  0  0  0
  149.1693  136.3044  155.8929 H   0  0  0  0  0  0  0  0  0  0  0  0
  149.5021  142.5592  154.4135 H   0  0  0  0  0  0  0  0  0  0  0  0
  151.0824  140.3036  157.0855 H   0  0  0  0  0  0  0  0  0  0  0  0
  151.9464  141.0740  155.7742 H   0  0  0  0  0  0  0  0  0  0  0  0
  150.8304  143.2108  156.1712 H   0  0  0  0  0  0  0  0  0  0  0  0
  148.9278  143.1165  156.8857 H   0  0  0  0  0  0  0  0  0  0  0  0
  152.7571  142.5260  157.7006 H   0  0  0  0  0  0  0  0  0  0  0  0
  152.6770  144.7687  158.0883 H   0  0  0  0  0  0  0  0  0  0  0  0
  150.9248  144.8354  158.2133 H   0  0  0  0  0  0  0  0  0  0  0  0
  152.6425  144.8476  160.4506 H   0  0  0  0  0  0  0  0  0  0  0  0
  150.9277  144.4327  160.4658 H   0  0  0  0  0  0  0  0  0  0  0  0
  153.2775  142.5179  160.2216 H   0  0  0  0  0  0  0  0  0  0  0  0
  151.8571  142.3709  161.2673 H   0  0  0  0  0  0  0  0  0  0  0  0
  144.8276  135.0567  151.9844 H   0  0  0  0  0  0  0  0  0  0  0  0
  1  2  1  0  0  0  0
  1 29  1  0  0  0  0
  1 30  1  0  0  0  0
  1 31  1  0  0  0  0
  2  3  1  0  0  0  0
  2 10  1  0  0  0  0
  2 32  1  0  0  0  0
  3  4  1  0  0  0  0
  3 33  1  0  0  0  0
  3 34  1  0  0  0  0
  4  9  1  0  0  0  0
  4  5  1  0  0  0  0
  4 59  1  0  0  0  0
  5  6  1  0  0  0  0
  5 35  1  0  0  0  0
  5 36  1  0  0  0  0
  6  7  1  0  0  0  0
  6 37  1  0  0  0  0
  6 38  1  0  0  0  0
  7  8  1  0  0  0  0
  8  9  1  0  0  0  0
  8 39  1  0  0  0  0
  8 40  1  0  0  0  0
  9 41  1  0  0  0  0
  9 42  1  0  0  0  0
 10 11  1  0  0  0  0
 10 12  1  0  0  0  0
 11 43  1  0  0  0  0
 11 44  1  0  0  0  0
 11 45  1  0  0  0  0
 12 17  1  0  0  0  0
 12 13  2  0  0  0  0
 13 14  1  0  0  0  0
 14 15  2  0  0  0  0
 14 46  1  0  0  0  0
 15 16  1  0  0  0  0
 16 20  1  0  0  0  0
 16 17  2  0  0  0  0
 17 18  1  0  0  0  0
 18 19  2  0  0  0  0
 19 20  1  0  0  0  0
 19 47  1  0  0  0  0
 20 21  1  0  0  0  0
 21 22  1  0  0  0  0
 21 48  1  0  0  0  0
 21 49  1  0  0  0  0
 22 23  1  0  0  0  0
 22 24  1  0  0  0  0
 22 50  1  0  0  0  0
 23 51  1  0  0  0  0
 24 28  1  0  0  0  0
 24 25  1  0  0  0  0
 24 52  1  0  0  0  0
 25 26  1  0  0  0  0
 25 53  1  0  0  0  0
 25 54  1  0  0  0  0
 26 27  1  0  0  0  0
 26 55  1  0  0  0  0
 26 56  1  0  0  0  0
 27 28  1  0  0  0  0
 27 57  1  0  0  0  0
 27 58  1  0  0  0  0
M  CHG  1   4   1
M  END
> <s_m_source_file>
AV-unprocessed.smi

> <i_m_source_file_index>
213

> <i_lp_mmshare_version>
43012

> <i_f3d_flags>
0

> <s_epik_input>
W0NIMl0xW0NIMl1PW0NIMl1bQ0gyXU4xW0NIMl1bQ0BASF0oW0NIM10pTihbQ0gzXSljKG5bY0hdbjIpYyhjMjMpbltjSF1uM1tDSDJdW0NASF0oW09IXSlbQ0BASF00W0NIMl1bQ0gyXVtDSDJdTzQ=

> <s_epik_cmdline>
J2VwaWtfcHl0aG9uJywgJy1waCcsICc3LjAnLCAnLXRuJywgJzgnLCAnLW1hJywgJzIwMCcsICctbWV0YWxfYmluZGluZycsICctaW1hZScsICc8aW5maWxlLm1hZT4nLCAnLW9tYWUnLCAnPG91dGZpbGUubWFlPic=

> <r_lp_tautomer_probability>
1

> <r_epik_Ionization_Penalty>
0.399679

> <r_epik_Ionization_Penalty_Charging>
0.399433

> <r_epik_Ionization_Penalty_Neutral>
0.000246213

> <r_epik_State_Penalty>
0.286032

> <r_epik_Charging_Adjusted_Penalty>
0.685465

> <i_epik_Tot_Q>
1

> <i_epik_Tot_abs_Q>
1

> <r_epik_Metal_State_Penalty>
0.286072

> <b_epik_Metal_Only>
0

> <s_lp_Force_Field>
OPLS_2005

> <r_lp_Energy>
46.5476

> <b_lp_Chiralities_Consistent>
1

> <s_lp_Variant>
AV-unprocessed.smi:213-8

> <Gold.Version>
5.8.1

> <Gold.Id.Protein>
6NUR|6NUR_protein|mol2

> <Gold.PLP.Fitness>
51.4241

> <Gold.PLP.PLP>
-48.1113

> <Gold.PLP.part.hbond>
-1.0000

> <Gold.PLP.part.metal>
0.0000

> <Gold.PLP.part.buried>
-2.7215

> <Gold.PLP.part.nonpolar>
-45.2131

> <Gold.PLP.part.repulsive>
0.4687

> <Gold.PLP.ligand.clash>
0.0000

> <Gold.PLP.ligand.torsion>
1.7182

> <Gold.PLP.Chemscore.Hbond>
0.9920

> <Gold.PLP.Chemscore.CHOScore>
1.0000

> <Gold.PLP.Chemscore.Metal>
0.0000

> <Gold.Chemscore.Hbonds>
donor molecule, donor type, donor heavy atom, donor atom, acceptor molecule, acceptor atom, score
      L1  H    23    51       P1  8028  0.99
      L1  C    19    47       P1  8028  0.95

> <Gold.PLP.Chemscore.Internal.Correction>
0.7734

> <Gold.Rescore>
     Score         DG    S(hbond)    S(metal)    S(lipo)     H(rot)  DE(clash)    DE(int)     intcor
     12.05     -14.76       0.90        0.00     115.40       2.83       0.28       2.44       ----

> <Gold.Chemscore.Fitness>
12.0463

> <Gold.Chemscore.DG>
-14.7649

> <Gold.Chemscore.ZeroCoef>
-5.4800

> <Gold.Chemscore.Hbond>
0.9030

> <Gold.Chemscore.Metal>
0.0000

> <Gold.Chemscore.Lipo>
115.4000

> <Gold.Chemscore.Internal_Hbond>
0.0000

> <Gold.Chemscore.DEClash>
0.2784

> <Gold.Chemscore.DEInternal>
2.4402

> <Gold.Chemscore.Rot>
2.8254

> <Gold.Chemscore.Internal.Correction>
   9.000000E+99

> <Gold.Chemscore.Hbonds>
donor molecule, donor type, donor heavy atom, donor atom, acceptor molecule, acceptor atom, score
      L1  H    23    51       P1  8028  0.77

> <Gold.Chemscore.Hbond.Weighted>
-3.0160

> <Gold.Chemscore.Metal.Weighted>
-0.0000

> <Gold.Chemscore.Lipo.Weighted>
-13.5018

> <Gold.Chemscore.Internal_Hbond.Weighted>
0.0000

> <Gold.Chemscore.DEClash.Weighted>
0.2784

> <Gold.Chemscore.DEInternal.Weighted>
2.4402

> <Gold.Chemscore.Rot.Weighted>
7.2330

> <Gold.Chemscore.Internal.Correction.Weighted>
   9.000000E+99

> <Gold.Protein.RotatedTorsions>
[ 6907 6896 6895 6894 ] final  114.43 input  -60.11 | X-H torsion
[ 7974 7965 7964 7962 ] final  -14.42 input  175.53 | X-H torsion
[ 8008 7997 7996 7995 ] final -150.82 input   59.86 | X-H torsion
[ 10167 10162 10161 10158 ] final -137.78 input  -65.29 | X-H torsion
[ 10718 10713 10712 10709 ] final -165.96 input   66.30 | X-H torsion
[ 10763 10752 10751 10750 ] final   96.44 input  -60.55 | X-H torsion
[ 11005 11000 10999 10996 ] final   38.86 input  -57.11 | X-H torsion

> <Gold.Protein.ActiveResidues>
 VAL166  LYS551  ARG553  GLY616  TRP617  ASP618  TYR619  PRO620  LYS621  CYS622 
 ASP623  PHE694  ASN695  SER759  ASP760  ASP761  ALA762  ILE779  LEU786  VAL792 
 PHE793  MET794  SER795  GLU796  ALA797  LYS798  CYS799  TRP800  GLU811  SER814 

> <Gold.Protein.RotatedAtoms>
  152.4803  133.8237  159.7066 H   0  0  0  0  0  0  0  0  0  0  0  0  # atno 6907 bound_to 6896
  150.8848  133.7313  159.2928 H   0  0  0  0  0  0  0  0  0  0  0  0  # atno 6908 bound_to 6896
  151.4806  135.1055  159.9829 H   0  0  0  0  0  0  0  0  0  0  0  0  # atno 6909 bound_to 6896
  146.2075  140.3345  142.8402 H   0  0  0  0  0  0  0  0  0  0  0  0  # atno 7974 bound_to 7965
  155.6297  140.0690  157.2653 H   0  0  0  0  0  0  0  0  0  0  0  0  # atno 8008 bound_to 7997
  154.4209  140.1770  156.1507 H   0  0  0  0  0  0  0  0  0  0  0  0  # atno 8009 bound_to 7997
  155.9943  140.3342  155.6787 H   0  0  0  0  0  0  0  0  0  0  0  0  # atno 8010 bound_to 7997
  139.8543  143.7158  152.2655 H   0  0  0  0  0  0  0  0  0  0  0  0  # atno 10167 bound_to 10162
  156.6609  130.9045  151.3029 H   0  0  0  0  0  0  0  0  0  0  0  0  # atno 10718 bound_to 10713
  153.2649  135.4218  155.0931 H   0  0  0  0  0  0  0  0  0  0  0  0  # atno 10763 bound_to 10752
  154.8434  135.3458  154.6325 H   0  0  0  0  0  0  0  0  0  0  0  0  # atno 10764 bound_to 10752
  153.6745  135.7042  153.5194 H   0  0  0  0  0  0  0  0  0  0  0  0  # atno 10765 bound_to 10752
  140.2085  134.3784  155.8061 H   0  0  0  0  0  0  0  0  0  0  0  0  # atno 11005 bound_to 11000
  144.8829  140.7424  143.5975 LP  0  0  0  0  0  0  0  0  0  0  0  0  # atno 17320 bound_to 7965
  145.3266  139.1772  143.4559 LP  0  0  0  0  0  0  0  0  0  0  0  0  # atno 17321 bound_to 7965
  139.7435  144.7553  151.0616 LP  0  0  0  0  0  0  0  0  0  0  0  0  # atno 17342 bound_to 10162
  140.7783  143.4944  150.9851 LP  0  0  0  0  0  0  0  0  0  0  0  0  # atno 17343 bound_to 10162
  157.7110  130.9440  150.1088 LP  0  0  0  0  0  0  0  0  0  0  0  0  # atno 17370 bound_to 10713
  156.2011  130.3660  149.8787 LP  0  0  0  0  0  0  0  0  0  0  0  0  # atno 17371 bound_to 10713
  141.2226  133.7130  156.8377 LP  0  0  0  0  0  0  0  0  0  0  0  0  # atno 17394 bound_to 11000
  140.1977  134.8920  157.3133 LP  0  0  0  0  0  0  0  0  0  0  0  0  # atno 17395 bound_to 11000

$$$$
