AV-unprocessed.smi:481|AV-procd|sdf|2681|dock2
  -GOLD-   2262023103D 1   1.00000     0.00000
 Structure written by MMmdl.
 43 45  0  0  0  0  0  0  0  0  1 V2000
  149.8492  132.1010  154.5604 C   0  0  0  0  0  0  0  0  0  0  0  0
  149.2636  133.2879  155.0721 O   0  0  0  0  0  0  0  0  0  0  0  0
  148.5853  134.0666  154.0964 C   0  0  0  0  0  0  0  0  0  0  0  0
  147.9372  135.3178  154.7126 C   0  0  0  0  0  0  0  0  0  0  0  0
  148.7824  135.8988  155.7498 N   0  0  0  0  0  0  0  0  0  0  0  0
  150.0336  136.4070  155.6147 C   0  0  0  0  0  0  0  0  0  0  0  0
  150.6457  136.4030  154.3534 N   0  0  0  0  0  0  0  0  0  0  0  0
  151.8716  136.8842  154.1421 N   0  0  0  0  0  0  0  0  0  0  0  0
  152.1310  138.1511  154.1943 C   0  0  0  0  0  0  0  0  0  0  0  0
  151.2196  139.2410  154.6057 C   0  0  0  0  0  0  0  0  0  0  0  0
  151.5919  140.2347  155.5426 C   0  0  0  0  0  0  0  0  0  0  0  0
  150.6870  141.2518  155.9030 C   0  0  0  0  0  0  0  0  0  0  0  0
  149.4059  141.2940  155.3219 C   0  0  0  0  0  0  0  0  0  0  0  0
  149.0336  140.3215  154.3750 C   0  0  0  0  0  0  0  0  0  0  0  0
  149.9385  139.3035  154.0156 C   0  0  0  0  0  0  0  0  0  0  0  0
  150.5661  136.8736  156.7514 N   0  0  0  0  0  0  0  0  0  0  0  0
  149.5687  136.6395  157.6859 C   0  0  0  0  0  0  0  0  0  0  0  0
  148.4883  136.0613  157.1029 C   0  0  0  0  0  0  0  0  0  0  0  0
  147.2770  135.7129  157.8553 C   0  0  0  0  0  0  0  0  0  0  0  0
  146.2838  135.2027  157.3415 O   0  0  0  0  0  0  0  0  0  0  0  0
  147.3663  136.0155  159.1736 N   0  0  0  0  0  0  0  0  0  0  0  0
  148.4229  136.5916  159.8248 C   0  0  0  0  0  0  0  0  0  0  0  0
  148.3564  136.8069  161.0349 O   0  0  0  0  0  0  0  0  0  0  0  0
  149.5319  136.9107  159.0831 N   0  0  0  0  0  0  0  0  0  0  0  0
  150.6900  137.5329  159.7277 C   0  0  0  0  0  0  0  0  0  0  0  0
  146.5603  135.7930  159.7393 H   0  0  0  0  0  0  0  0  0  0  0  0
  150.2992  131.5382  155.3781 H   0  0  0  0  0  0  0  0  0  0  0  0
  150.6348  132.3144  153.8359 H   0  0  0  0  0  0  0  0  0  0  0  0
  149.1011  131.4629  154.0885 H   0  0  0  0  0  0  0  0  0  0  0  0
  149.2550  134.3311  153.2766 H   0  0  0  0  0  0  0  0  0  0  0  0
  147.8064  133.4368  153.6657 H   0  0  0  0  0  0  0  0  0  0  0  0
  147.7484  136.0680  153.9457 H   0  0  0  0  0  0  0  0  0  0  0  0
  146.9617  135.0854  155.1379 H   0  0  0  0  0  0  0  0  0  0  0  0
  149.9982  136.3669  153.5793 H   0  0  0  0  0  0  0  0  0  0  0  0
  153.1323  138.4580  153.8917 H   0  0  0  0  0  0  0  0  0  0  0  0
  152.5744  140.2287  155.9910 H   0  0  0  0  0  0  0  0  0  0  0  0
  150.9777  142.0017  156.6238 H   0  0  0  0  0  0  0  0  0  0  0  0
  148.7119  142.0742  155.5979 H   0  0  0  0  0  0  0  0  0  0  0  0
  148.0529  140.3554  153.9238 H   0  0  0  0  0  0  0  0  0  0  0  0
  149.6358  138.5629  153.2889 H   0  0  0  0  0  0  0  0  0  0  0  0
  150.4106  138.4877  160.1753 H   0  0  0  0  0  0  0  0  0  0  0  0
  151.5051  137.7263  159.0306 H   0  0  0  0  0  0  0  0  0  0  0  0
  151.0818  136.8886  160.5158 H   0  0  0  0  0  0  0  0  0  0  0  0
  1  2  1  0  0  0  0
  1 27  1  0  0  0  0
  1 28  1  0  0  0  0
  1 29  1  0  0  0  0
  2  3  1  0  0  0  0
  3  4  1  0  0  0  0
  3 30  1  0  0  0  0
  3 31  1  0  0  0  0
  4  5  1  0  0  0  0
  4 32  1  0  0  0  0
  4 33  1  0  0  0  0
  5 18  1  0  0  0  0
  5  6  1  0  0  0  0
  6  7  1  0  0  0  0
  6 16  2  0  0  0  0
  7  8  1  0  0  0  0
  7 34  1  0  0  0  0
  8  9  2  0  0  0  0
  9 10  1  0  0  0  0
  9 35  1  0  0  0  0
 10 15  1  0  0  0  0
 10 11  2  0  0  0  0
 11 12  1  0  0  0  0
 11 36  1  0  0  0  0
 12 13  2  0  0  0  0
 12 37  1  0  0  0  0
 13 14  1  0  0  0  0
 13 38  1  0  0  0  0
 14 15  2  0  0  0  0
 14 39  1  0  0  0  0
 15 40  1  0  0  0  0
 16 17  1  0  0  0  0
 17 24  1  0  0  0  0
 17 18  2  0  0  0  0
 18 19  1  0  0  0  0
 19 20  2  0  0  0  0
 19 21  1  0  0  0  0
 21 26  1  0  0  0  0
 21 22  1  0  0  0  0
 22 23  2  0  0  0  0
 22 24  1  0  0  0  0
 24 25  1  0  0  0  0
 25 41  1  0  0  0  0
 25 42  1  0  0  0  0
 25 43  1  0  0  0  0
M  END
> <s_m_source_file>
AV-unprocessed.smi

> <i_m_source_file_index>
481

> <i_lp_mmshare_version>
43012

> <i_f3d_flags>
0

> <s_epik_input>
W0NIM11uMWMoPU8pW25IXWMoPU8pYyhjMTIpbihbQ0gyXVtDSDJdT1tDSDNdKWMobjIpW05IXS9OPVtDSF0vYzNbY0hdW2NIXVtjSF1bY0hdW2NIXTM=

> <s_epik_cmdline>
J2VwaWtfcHl0aG9uJywgJy1waCcsICc3LjAnLCAnLXRuJywgJzgnLCAnLW1hJywgJzIwMCcsICctbWV0YWxfYmluZGluZycsICctaW1hZScsICc8aW5maWxlLm1hZT4nLCAnLW9tYWUnLCAnPG91dGZpbGUubWFlPic=

> <r_epik_Ionization_Penalty>
0.000595515

> <r_epik_Ionization_Penalty_Charging>
0.000305988

> <r_epik_Ionization_Penalty_Neutral>
0.000289528

> <r_epik_State_Penalty>
0.000184189

> <r_epik_Charging_Adjusted_Penalty>
0.000490177

> <i_epik_Tot_Q>
0

> <i_epik_Tot_abs_Q>
0

> <r_epik_Metal_State_Penalty>
0.173754

> <b_epik_Metal_Only>
0

> <s_epik_Chemistry_Notes>
This compound has an imine and may undergo hydrolysis.

> <s_lp_Force_Field>
OPLS_2005

> <r_lp_Energy>
46.456

> <b_lp_Chiralities_Consistent>
1

> <s_lp_Variant>
AV-unprocessed.smi:481-2

> <Gold.Version>
5.8.1

> <Gold.Id.Protein>
6NUR|6NUR_protein|mol2

> <Gold.PLP.Fitness>
40.4867

> <Gold.PLP.PLP>
-33.1533

> <Gold.PLP.part.hbond>
-4.2321

> <Gold.PLP.part.metal>
0.0000

> <Gold.PLP.part.buried>
1.3119

> <Gold.PLP.part.nonpolar>
-30.2123

> <Gold.PLP.part.repulsive>
1.4714

> <Gold.PLP.ligand.clash>
0.0000

> <Gold.PLP.ligand.torsion>
0.8855

> <Gold.PLP.Chemscore.Hbond>
2.8500

> <Gold.PLP.Chemscore.CHOScore>
0.0000

> <Gold.PLP.Chemscore.Metal>
0.0000

> <Gold.Chemscore.Hbonds>
donor molecule, donor type, donor heavy atom, donor atom, acceptor molecule, acceptor atom, score
      L1  H     7    34       P1  7948  0.80
      P1  H  6931  6943       L1    23  1.00
      P1  H 10752 10764       L1     8  1.00

> <Gold.PLP.Chemscore.Internal.Correction>
0.5544

> <Gold.Rescore>
     Score         DG    S(hbond)    S(metal)    S(lipo)     H(rot)  DE(clash)    DE(int)     intcor
     14.63     -17.74       2.48        0.00      67.74       1.54       1.13       1.98       ----

> <Gold.Chemscore.Fitness>
14.6310

> <Gold.Chemscore.DG>
-17.7434

> <Gold.Chemscore.ZeroCoef>
-5.4800

> <Gold.Chemscore.Hbond>
2.4796

> <Gold.Chemscore.Metal>
0.0000

> <Gold.Chemscore.Lipo>
67.7403

> <Gold.Chemscore.Internal_Hbond>
0.0000

> <Gold.Chemscore.DEClash>
1.1308

> <Gold.Chemscore.DEInternal>
1.9817

> <Gold.Chemscore.Rot>
1.5406

> <Gold.Chemscore.Internal.Correction>
   9.000000E+99

> <Gold.Chemscore.Hbonds>
donor molecule, donor type, donor heavy atom, donor atom, acceptor molecule, acceptor atom, score
      L1  H     7    34       P1  7948  0.12
      P1  H  6931  6943       L1    23  0.99
      P1  H 10752 10764       L1     8  0.77

> <Gold.Chemscore.Hbond.Weighted>
-8.2818

> <Gold.Chemscore.Metal.Weighted>
-0.0000

> <Gold.Chemscore.Lipo.Weighted>
-7.9256

> <Gold.Chemscore.Internal_Hbond.Weighted>
0.0000

> <Gold.Chemscore.DEClash.Weighted>
1.1308

> <Gold.Chemscore.DEInternal.Weighted>
1.9817

> <Gold.Chemscore.Rot.Weighted>
3.9440

> <Gold.Chemscore.Internal.Correction.Weighted>
   9.000000E+99

> <Gold.Protein.RotatedTorsions>
[ 6907 6896 6895 6894 ] final  113.70 input  -60.11 | X-H torsion
[ 7974 7965 7964 7962 ] final  -15.97 input  175.53 | X-H torsion
[ 8008 7997 7996 7995 ] final -146.65 input   59.86 | X-H torsion
[ 10167 10162 10161 10158 ] final  144.77 input  -65.29 | X-H torsion
[ 10718 10713 10712 10709 ] final  108.06 input   66.30 | X-H torsion
[ 10763 10752 10751 10750 ] final  -86.39 input  -60.55 | X-H torsion
[ 11005 11000 10999 10996 ] final   49.13 input  -57.11 | X-H torsion

> <Gold.Protein.ActiveResidues>
 VAL166  LYS551  ARG553  GLY616  TRP617  ASP618  TYR619  PRO620  LYS621  CYS622 
 ASP623  PHE694  ASN695  SER759  ASP760  ASP761  ALA762  ILE779  LEU786  VAL792 
 PHE793  MET794  SER795  GLU796  ALA797  LYS798  CYS799  TRP800  GLU811  SER814 

> <Gold.Protein.RotatedAtoms>
  152.4846  133.8339  159.7117 H   0  0  0  0  0  0  0  0  0  0  0  0  # atno 6907 bound_to 6896
  150.8922  133.7219  159.2908 H   0  0  0  0  0  0  0  0  0  0  0  0  # atno 6908 bound_to 6896
  151.4688  135.1048  159.9798 H   0  0  0  0  0  0  0  0  0  0  0  0  # atno 6909 bound_to 6896
  146.2008  140.3569  142.8424 H   0  0  0  0  0  0  0  0  0  0  0  0  # atno 7974 bound_to 7965
  155.5628  140.0627  157.2825 H   0  0  0  0  0  0  0  0  0  0  0  0  # atno 8008 bound_to 7997
  154.4385  140.1882  156.0845 H   0  0  0  0  0  0  0  0  0  0  0  0  # atno 8009 bound_to 7997
  156.0434  140.3293  155.7273 H   0  0  0  0  0  0  0  0  0  0  0  0  # atno 8010 bound_to 7997
  139.4940  144.5949  151.6604 H   0  0  0  0  0  0  0  0  0  0  0  0  # atno 10167 bound_to 10162
  157.6602  131.0886  150.6250 H   0  0  0  0  0  0  0  0  0  0  0  0  # atno 10718 bound_to 10713
  154.6219  135.5451  153.7585 H   0  0  0  0  0  0  0  0  0  0  0  0  # atno 10763 bound_to 10752
  153.0242  135.6415  154.1428 H   0  0  0  0  0  0  0  0  0  0  0  0  # atno 10764 bound_to 10752
  154.1362  135.2911  155.3152 H   0  0  0  0  0  0  0  0  0  0  0  0  # atno 10765 bound_to 10752
  140.1130  134.4930  155.8661 H   0  0  0  0  0  0  0  0  0  0  0  0  # atno 11005 bound_to 11000
  144.8680  140.7233  143.6065 LP  0  0  0  0  0  0  0  0  0  0  0  0  # atno 17320 bound_to 7965
  145.3488  139.1712  143.4445 LP  0  0  0  0  0  0  0  0  0  0  0  0  # atno 17321 bound_to 7965
  140.5584  144.0309  150.6158 LP  0  0  0  0  0  0  0  0  0  0  0  0  # atno 17342 bound_to 10162
  140.3386  143.3033  152.0611 LP  0  0  0  0  0  0  0  0  0  0  0  0  # atno 17343 bound_to 10162
  156.6553  130.4497  149.5705 LP  0  0  0  0  0  0  0  0  0  0  0  0  # atno 17370 bound_to 10713
  156.2107  130.6677  151.1266 LP  0  0  0  0  0  0  0  0  0  0  0  0  # atno 17371 bound_to 10713
  141.2134  133.6734  156.6741 LP  0  0  0  0  0  0  0  0  0  0  0  0  # atno 17394 bound_to 11000
  140.3066  134.8120  157.4142 LP  0  0  0  0  0  0  0  0  0  0  0  0  # atno 17395 bound_to 11000

$$$$
