AV-unprocessed.smi:72|AV-procd|sdf|730|dock2
  -GOLD-   2262017 53D 1   1.00000     0.00000
 Structure written by MMmdl.
 28 29  0  0  0  0  0  0  0  0  2 V2000
  151.4753  134.7611  156.8122 N   0  0  0  0  0  0  0  0  0  0  0  0
  151.3992  136.0001  156.5892 C   0  0  0  0  0  0  0  0  0  0  0  0
  150.1226  136.6744  156.6815 N   0  0  0  0  0  0  0  0  0  0  0  0
  150.0933  137.9486  156.4380 C   0  0  0  0  0  0  0  0  0  0  0  0
  151.2936  138.6914  156.0793 N   0  0  0  0  0  0  0  0  0  0  0  0
  151.2369  140.1831  155.8077 C   0  0  1  0  0  0  0  0  0  0  0  0
  150.3951  140.4160  154.7166 O   0  0  0  0  0  0  0  0  0  0  0  0
  149.5842  141.5584  154.9708 C   0  0  1  0  0  0  0  0  0  0  0  0
  148.3164  141.5474  154.0985 C   0  0  0  0  0  0  0  0  0  0  0  0
  147.6592  142.7944  154.1798 O   0  0  0  0  0  0  0  0  0  0  0  0
  149.3455  141.4940  156.4854 C   0  0  1  0  0  0  0  0  0  0  0  0
  148.2825  140.6076  156.7960 O   0  0  0  0  0  0  0  0  0  0  0  0
  150.6920  140.9972  157.0017 C   0  0  1  0  0  0  0  0  0  0  0  0
  150.5952  140.3047  158.2348 O   0  0  0  0  0  0  0  0  0  0  0  0
  152.5368  138.0070  156.0117 C   0  0  0  0  0  0  0  0  0  0  0  0
  153.5462  138.6567  155.7385 O   0  0  0  0  0  0  0  0  0  0  0  0
  152.5593  136.6679  156.2633 N   0  5  0  0  0  0  0  0  0  0  0  0
  152.2443  140.4847  155.5179 H   0  0  0  0  0  0  0  0  0  0  0  0
  150.1760  142.4520  154.7618 H   0  0  0  0  0  0  0  0  0  0  0  0
  149.0967  142.4736  156.8945 H   0  0  0  0  0  0  0  0  0  0  0  0
  151.3564  141.8517  157.1367 H   0  0  0  0  0  0  0  0  0  0  0  0
  150.5823  134.3507  157.0433 H   0  0  0  0  0  0  0  0  0  0  0  0
  149.1779  138.5391  156.4892 H   0  0  0  0  0  0  0  0  0  0  0  0
  148.5504  141.3093  153.0603 H   0  0  0  0  0  0  0  0  0  0  0  0
  147.6200  140.7896  154.4583 H   0  0  0  0  0  0  0  0  0  0  0  0
  148.2867  143.4475  154.4494 H   0  0  0  0  0  0  0  0  0  0  0  0
  148.6131  139.7230  156.7544 H   0  0  0  0  0  0  0  0  0  0  0  0
  149.6841  140.2710  158.4850 H   0  0  0  0  0  0  0  0  0  0  0  0
  1  2  2  0  0  0  0
  1 22  1  0  0  0  0
  2 17  1  0  0  0  0
  2  3  1  0  0  0  0
  3  4  2  0  0  0  0
  4  5  1  0  0  0  0
  4 23  1  0  0  0  0
  5  6  1  0  0  0  0
  5 15  1  0  0  0  0
  6 18  1  0  0  0  0
  6 13  1  0  0  0  0
  6  7  1  0  0  0  0
  7  8  1  0  0  0  0
  8 19  1  0  0  0  0
  8  9  1  0  0  0  0
  8 11  1  0  0  0  0
  9 10  1  0  0  0  0
  9 24  1  0  0  0  0
  9 25  1  0  0  0  0
 10 26  1  0  0  0  0
 11 20  1  0  0  0  0
 11 12  1  0  0  0  0
 11 13  1  0  0  0  0
 12 27  1  0  0  0  0
 13 21  1  0  0  0  0
 13 14  1  0  0  0  0
 14 28  1  0  0  0  0
 15 16  2  0  0  0  0
 15 17  1  0  0  0  0
M  CHG  1  17  -1
M  END
> <s_m_source_file>
AV-unprocessed.smi

> <i_m_source_file_index>
72

> <i_lp_mmshare_version>
43012

> <i_f3d_flags>
0

> <s_epik_input>
W05IMl1jMW5bY0hdbihjKD1PKW4xKVtDQEBIXTJPW0NASF0oW0NIMl1bT0hdKVtDQEBIXShbT0hdKVtDQEhdMltPSF0=

> <s_epik_cmdline>
J2VwaWtfcHl0aG9uJywgJy1waCcsICc3LjAnLCAnLXRuJywgJzgnLCAnLW1hJywgJzIwMCcsICctbWV0YWxfYmluZGluZycsICctaW1hZScsICc8aW5maWxlLm1hZT4nLCAnLW9tYWUnLCAnPG91dGZpbGUubWFlPic=

> <r_lp_tautomer_probability>
7.17554e-07

> <r_epik_Ionization_Penalty>
12.8705

> <r_epik_Ionization_Penalty_Charging>
5.64144

> <r_epik_Ionization_Penalty_Neutral>
7.22905

> <r_epik_State_Penalty>
3.30104

> <r_epik_Charging_Adjusted_Penalty>
8.94249

> <i_epik_Tot_Q>
-1

> <i_epik_Tot_abs_Q>
1

> <r_epik_Metal_State_Penalty>
0.529074

> <b_epik_Metal_Only>
1

> <s_epik_Chemistry_Notes>
This compound contains an acetal/aminal-like group ( X-CH(R)-Y where X, Y are N, S, or O) that may be acid/base labile, releasing an aldehyde.

> <s_lp_Force_Field>
OPLS_2005

> <r_lp_Energy>
43.5676

> <b_lp_Chiralities_Consistent>
1

> <s_lp_Variant>
AV-unprocessed.smi:72-68

> <Gold.Version>
5.8.1

> <Gold.Id.Protein>
6NUR|6NUR_protein|mol2

> <Gold.PLP.Fitness>
37.1789

> <Gold.PLP.PLP>
-23.1181

> <Gold.PLP.part.hbond>
-5.9033

> <Gold.PLP.part.metal>
0.0000

> <Gold.PLP.part.buried>
-3.3709

> <Gold.PLP.part.nonpolar>
-15.0543

> <Gold.PLP.part.repulsive>
0.0895

> <Gold.PLP.ligand.clash>
0.0000

> <Gold.PLP.ligand.torsion>
0.0763

> <Gold.PLP.Chemscore.Hbond>
4.7360

> <Gold.PLP.Chemscore.CHOScore>
0.0000

> <Gold.PLP.Chemscore.Metal>
0.0000

> <Gold.Chemscore.Hbonds>
donor molecule, donor type, donor heavy atom, donor atom, acceptor molecule, acceptor atom, score
      L1  H    10    26       P1  8028  1.00
      P1  H  7989  7998       L1     7  1.00
      P1  H  7997  8008       L1    16  0.74
      P1  H 10752 10765       L1    17  2.00

> <Gold.PLP.Chemscore.Internal.Correction>
0.0055

> <Gold.Rescore>
     Score         DG    S(hbond)    S(metal)    S(lipo)     H(rot)  DE(clash)    DE(int)     intcor
      6.78      -8.00       2.98        0.00      24.80       4.04       0.01       1.21       ----

> <Gold.Chemscore.Fitness>
6.7816

> <Gold.Chemscore.DG>
-8.0005

> <Gold.Chemscore.ZeroCoef>
-5.4800

> <Gold.Chemscore.Hbond>
2.9827

> <Gold.Chemscore.Metal>
0.0000

> <Gold.Chemscore.Lipo>
24.7968

> <Gold.Chemscore.Internal_Hbond>
0.0000

> <Gold.Chemscore.DEClash>
0.0106

> <Gold.Chemscore.DEInternal>
1.2083

> <Gold.Chemscore.Rot>
4.0403

> <Gold.Chemscore.Internal.Correction>
   9.000000E+99

> <Gold.Chemscore.Hbonds>
donor molecule, donor type, donor heavy atom, donor atom, acceptor molecule, acceptor atom, score
      L1  H    10    26       P1  8028  0.93
      P1  H  7989  7998       L1     7  0.15
      P1  H  7997  8008       L1    16  0.74
      P1  H 10752 10765       L1    17  0.24

> <Gold.Chemscore.Hbond.Weighted>
-9.9624

> <Gold.Chemscore.Metal.Weighted>
-0.0000

> <Gold.Chemscore.Lipo.Weighted>
-2.9012

> <Gold.Chemscore.Internal_Hbond.Weighted>
0.0000

> <Gold.Chemscore.DEClash.Weighted>
0.0106

> <Gold.Chemscore.DEInternal.Weighted>
1.2083

> <Gold.Chemscore.Rot.Weighted>
10.3431

> <Gold.Chemscore.Internal.Correction.Weighted>
   9.000000E+99

> <Gold.Protein.RotatedTorsions>
[ 6907 6896 6895 6894 ] final  -16.93 input  -60.11 | X-H torsion
[ 7974 7965 7964 7962 ] final   54.01 input  175.53 | X-H torsion
[ 8008 7997 7996 7995 ] final  -49.52 input   59.86 | X-H torsion
[ 10167 10162 10161 10158 ] final -151.19 input  -65.29 | X-H torsion
[ 10718 10713 10712 10709 ] final   -2.23 input   66.30 | X-H torsion
[ 10763 10752 10751 10750 ] final -136.81 input  -60.55 | X-H torsion
[ 11005 11000 10999 10996 ] final  -60.78 input  -57.11 | X-H torsion

> <Gold.Protein.ActiveResidues>
 VAL166  LYS551  ARG553  GLY616  TRP617  ASP618  TYR619  PRO620  LYS621  CYS622 
 ASP623  PHE694  ASN695  SER759  ASP760  ASP761  ALA762  ILE779  LEU786  VAL792 
 PHE793  MET794  SER795  GLU796  ALA797  LYS798  CYS799  TRP800  GLU811  SER814 

> <Gold.Protein.RotatedAtoms>
  151.3011  135.0769  159.9238 H   0  0  0  0  0  0  0  0  0  0  0  0  # atno 6907 bound_to 6896
  152.5297  133.9832  159.7827 H   0  0  0  0  0  0  0  0  0  0  0  0  # atno 6908 bound_to 6896
  151.0119  133.5906  159.2712 H   0  0  0  0  0  0  0  0  0  0  0  0  # atno 6909 bound_to 6896
  145.9652  139.4097  143.0223 H   0  0  0  0  0  0  0  0  0  0  0  0  # atno 7974 bound_to 7965
  154.4045  140.1295  156.4516 H   0  0  0  0  0  0  0  0  0  0  0  0  # atno 8008 bound_to 7997
  155.7361  140.3490  155.5062 H   0  0  0  0  0  0  0  0  0  0  0  0  # atno 8009 bound_to 7997
  155.9083  140.1031  157.1289 H   0  0  0  0  0  0  0  0  0  0  0  0  # atno 8010 bound_to 7997
  139.7289  143.8840  152.2528 H   0  0  0  0  0  0  0  0  0  0  0  0  # atno 10167 bound_to 10162
  156.7939  130.5371  149.5731 H   0  0  0  0  0  0  0  0  0  0  0  0  # atno 10718 bound_to 10713
  154.8676  135.3661  154.5121 H   0  0  0  0  0  0  0  0  0  0  0  0  # atno 10763 bound_to 10752
  153.5756  135.7019  153.5490 H   0  0  0  0  0  0  0  0  0  0  0  0  # atno 10764 bound_to 10752
  153.3503  135.4074  155.1603 H   0  0  0  0  0  0  0  0  0  0  0  0  # atno 10765 bound_to 10752
  141.1300  133.6625  156.5275 H   0  0  0  0  0  0  0  0  0  0  0  0  # atno 11005 bound_to 11000
  145.7983  140.9782  143.1012 LP  0  0  0  0  0  0  0  0  0  0  0  0  # atno 17320 bound_to 7965
  144.6824  139.9770  143.7483 LP  0  0  0  0  0  0  0  0  0  0  0  0  # atno 17321 bound_to 7965
  139.8757  144.7044  150.8935 LP  0  0  0  0  0  0  0  0  0  0  0  0  # atno 17342 bound_to 10162
  140.7767  143.3701  151.1664 LP  0  0  0  0  0  0  0  0  0  0  0  0  # atno 17343 bound_to 10162
  156.1142  130.6062  151.0094 LP  0  0  0  0  0  0  0  0  0  0  0  0  # atno 17370 bound_to 10713
  157.6587  131.0885  150.7889 LP  0  0  0  0  0  0  0  0  0  0  0  0  # atno 17371 bound_to 10713
  140.4242  134.7159  157.4907 LP  0  0  0  0  0  0  0  0  0  0  0  0  # atno 17394 bound_to 11000
  140.0338  134.6367  155.9070 LP  0  0  0  0  0  0  0  0  0  0  0  0  # atno 17395 bound_to 11000

$$$$
