AV-unprocessed.smi:248|AV-procd|sdf|1896|dock1
  -GOLD-   2262020563D 1   1.00000     0.00000
 Structure written by MMmdl.
 62 65  0  0  0  0  0  0  0  0  1 V2000
  152.1714  144.5795  159.5767 C   0  0  0  0  0  0  0  0  0  0  0  0
  151.9644  143.0704  159.7742 C   0  0  0  0  0  0  0  0  0  0  0  0
  152.5222  142.6300  161.1385 C   0  0  0  0  0  0  0  0  0  0  0  0
  152.5536  142.2836  158.5788 C   0  0  0  0  0  0  0  0  0  0  0  0
  151.8025  141.0604  158.2587 N   0  0  0  0  0  0  0  0  0  0  0  0
  150.4386  141.2985  157.7714 C   0  0  0  0  0  0  0  0  0  0  0  0
  149.5289  140.0799  157.9497 C   0  0  0  0  0  0  0  0  0  0  0  0
  150.1898  138.9038  157.4059 N   0  0  0  0  0  0  0  0  0  0  0  0
  149.3407  137.8612  157.2601 C   0  0  0  0  0  0  0  0  0  0  0  0
  149.1189  137.3323  156.0284 N   0  0  0  0  0  0  0  0  0  0  0  0
  148.2885  136.2944  155.8907 C   0  0  0  0  0  0  0  0  0  0  0  0
  147.5940  135.6501  156.8314 N   0  0  0  0  0  0  0  0  0  0  0  0
  147.8125  136.1848  158.0672 C   0  0  0  0  0  0  0  0  0  0  0  0
  148.6701  137.2794  158.3669 C   0  0  0  0  0  0  0  0  0  0  0  0
  148.6564  137.5398  159.7301 N   0  0  0  0  0  0  0  0  0  0  0  0
  147.8372  136.6453  160.2119 C   0  0  0  0  0  0  0  0  0  0  0  0
  147.2698  135.8005  159.2824 N   0  0  0  0  0  0  0  0  0  0  0  0
  146.3345  134.7149  159.5489 C   0  0  0  0  0  0  0  0  0  0  0  0
  146.8043  133.6728  160.6139 C   0  0  0  0  0  0  0  0  0  0  0  0
  148.0850  132.9636  160.0900 C   0  0  0  0  0  0  0  0  0  0  0  0
  147.8902  132.2736  158.8709 O   0  0  0  0  0  0  0  0  0  0  0  0
  147.0970  134.3407  161.9826 C   0  0  0  0  0  0  0  0  0  0  0  0
  145.8184  134.8380  162.6828 C   0  0  0  0  0  0  0  0  0  0  0  0
  144.9009  133.7630  162.8401 O   0  0  0  0  0  0  0  0  0  0  0  0
  144.4700  133.2181  161.5993 C   0  0  0  0  0  0  0  0  0  0  0  0
  145.6728  132.6345  160.8349 C   0  0  0  0  0  0  0  0  0  0  0  0
  151.5069  138.5805  157.9715 C   0  0  1  0  0  0  0  0  0  0  0  0
  152.2696  137.6163  157.0350 C   0  0  0  0  0  0  0  0  0  0  0  0
  152.3628  139.8253  158.3145 C   0  0  0  0  0  0  0  0  0  0  0  0
  153.5310  139.6517  158.6652 O   0  0  0  0  0  0  0  0  0  0  0  0
  153.2313  144.8334  159.5503 H   0  0  0  0  0  0  0  0  0  0  0  0
  151.7129  145.1499  160.3851 H   0  0  0  0  0  0  0  0  0  0  0  0
  151.7243  144.9197  158.6423 H   0  0  0  0  0  0  0  0  0  0  0  0
  150.8879  142.8960  159.7930 H   0  0  0  0  0  0  0  0  0  0  0  0
  153.6083  142.7212  161.1702 H   0  0  0  0  0  0  0  0  0  0  0  0
  152.2649  141.5951  161.3626 H   0  0  0  0  0  0  0  0  0  0  0  0
  152.1143  143.2409  161.9442 H   0  0  0  0  0  0  0  0  0  0  0  0
  152.5631  142.9244  157.6956 H   0  0  0  0  0  0  0  0  0  0  0  0
  153.6042  142.0562  158.7675 H   0  0  0  0  0  0  0  0  0  0  0  0
  149.9959  142.1567  158.2784 H   0  0  0  0  0  0  0  0  0  0  0  0
  150.4990  141.5582  156.7136 H   0  0  0  0  0  0  0  0  0  0  0  0
  149.3152  139.9254  159.0090 H   0  0  0  0  0  0  0  0  0  0  0  0
  148.5743  140.2553  157.4504 H   0  0  0  0  0  0  0  0  0  0  0  0
  148.1629  135.9263  154.8829 H   0  0  0  0  0  0  0  0  0  0  0  0
  147.6172  136.5810  161.2676 H   0  0  0  0  0  0  0  0  0  0  0  0
  145.3816  135.1647  159.8237 H   0  0  0  0  0  0  0  0  0  0  0  0
  146.1485  134.2069  158.6015 H   0  0  0  0  0  0  0  0  0  0  0  0
  148.8865  133.6884  159.9421 H   0  0  0  0  0  0  0  0  0  0  0  0
  148.4470  132.2330  160.8132 H   0  0  0  0  0  0  0  0  0  0  0  0
  147.8693  131.3460  159.0500 H   0  0  0  0  0  0  0  0  0  0  0  0
  147.5738  133.6218  162.6498 H   0  0  0  0  0  0  0  0  0  0  0  0
  147.8117  135.1560  161.8763 H   0  0  0  0  0  0  0  0  0  0  0  0
  146.0658  135.2296  163.6694 H   0  0  0  0  0  0  0  0  0  0  0  0
  145.3468  135.6537  162.1351 H   0  0  0  0  0  0  0  0  0  0  0  0
  143.7449  132.4296  161.8014 H   0  0  0  0  0  0  0  0  0  0  0  0
  143.9465  133.9755  161.0155 H   0  0  0  0  0  0  0  0  0  0  0  0
  145.3433  132.2201  159.8816 H   0  0  0  0  0  0  0  0  0  0  0  0
  146.0423  131.7892  161.4156 H   0  0  0  0  0  0  0  0  0  0  0  0
  151.3530  138.0714  158.9244 H   0  0  0  0  0  0  0  0  0  0  0  0
  153.2569  137.3676  157.4256 H   0  0  0  0  0  0  0  0  0  0  0  0
  152.4050  138.0537  156.0451 H   0  0  0  0  0  0  0  0  0  0  0  0
  151.7398  136.6718  156.9096 H   0  0  0  0  0  0  0  0  0  0  0  0
  1  2  1  0  0  0  0
  1 31  1  0  0  0  0
  1 32  1  0  0  0  0
  1 33  1  0  0  0  0
  2  3  1  0  0  0  0
  2  4  1  0  0  0  0
  2 34  1  0  0  0  0
  3 35  1  0  0  0  0
  3 36  1  0  0  0  0
  3 37  1  0  0  0  0
  4  5  1  0  0  0  0
  4 38  1  0  0  0  0
  4 39  1  0  0  0  0
  5 29  1  0  0  0  0
  5  6  1  0  0  0  0
  6  7  1  0  0  0  0
  6 40  1  0  0  0  0
  6 41  1  0  0  0  0
  7  8  1  0  0  0  0
  7 42  1  0  0  0  0
  7 43  1  0  0  0  0
  8  9  1  0  0  0  0
  8 27  1  0  0  0  0
  9 14  1  0  0  0  0
  9 10  2  0  0  0  0
 10 11  1  0  0  0  0
 11 12  2  0  0  0  0
 11 44  1  0  0  0  0
 12 13  1  0  0  0  0
 13 17  1  0  0  0  0
 13 14  2  0  0  0  0
 14 15  1  0  0  0  0
 15 16  2  0  0  0  0
 16 17  1  0  0  0  0
 16 45  1  0  0  0  0
 17 18  1  0  0  0  0
 18 19  1  0  0  0  0
 18 46  1  0  0  0  0
 18 47  1  0  0  0  0
 19 26  1  0  0  0  0
 19 20  1  0  0  0  0
 19 22  1  0  0  0  0
 20 21  1  0  0  0  0
 20 48  1  0  0  0  0
 20 49  1  0  0  0  0
 21 50  1  0  0  0  0
 22 23  1  0  0  0  0
 22 51  1  0  0  0  0
 22 52  1  0  0  0  0
 23 24  1  0  0  0  0
 23 53  1  0  0  0  0
 23 54  1  0  0  0  0
 24 25  1  0  0  0  0
 25 26  1  0  0  0  0
 25 55  1  0  0  0  0
 25 56  1  0  0  0  0
 26 57  1  0  0  0  0
 26 58  1  0  0  0  0
 27 28  1  0  0  0  0
 27 29  1  0  0  0  0
 27 59  1  0  0  0  0
 28 60  1  0  0  0  0
 28 61  1  0  0  0  0
 28 62  1  0  0  0  0
 29 30  2  0  0  0  0
M  END
> <s_m_source_file>
AV-unprocessed.smi

> <i_m_source_file_index>
248

> <i_lp_mmshare_version>
43012

> <i_f3d_flags>
0

> <s_epik_input>
W0NIM11bQ0hdKFtDSDNdKVtDSDJdTjFbQ0gyXVtDSDJdTihbQ0BASF0oW0NIM10pQzE9TyljKG5bY0hdbjIpYyhjMjMpbltjSF1uM1tDSDJdQzQoW0NIMl1bT0hdKVtDSDJdW0NIMl1PW0NIMl1bQ0gyXTQ=

> <s_epik_cmdline>
J2VwaWtfcHl0aG9uJywgJy1waCcsICc3LjAnLCAnLXRuJywgJzgnLCAnLW1hJywgJzIwMCcsICctbWV0YWxfYmluZGluZycsICctaW1hZScsICc8aW5maWxlLm1hZT4nLCAnLW9tYWUnLCAnPG91dGZpbGUubWFlPic=

> <r_lp_tautomer_probability>
1

> <r_epik_Ionization_Penalty>
0.000593973

> <r_epik_Ionization_Penalty_Charging>
0

> <r_epik_Ionization_Penalty_Neutral>
0.000593973

> <r_epik_State_Penalty>
0.000283267

> <r_epik_Charging_Adjusted_Penalty>
0.000283267

> <i_epik_Tot_Q>
0

> <i_epik_Tot_abs_Q>
0

> <r_epik_Metal_State_Penalty>
-0

> <b_epik_Metal_Only>
0

> <s_lp_Force_Field>
OPLS_2005

> <r_lp_Energy>
46.1111

> <b_lp_Chiralities_Consistent>
1

> <s_lp_Variant>
AV-unprocessed.smi:248-1

> <Gold.Version>
5.8.1

> <Gold.Id.Protein>
6NUR|6NUR_protein|mol2

> <Gold.PLP.Fitness>
44.8361

> <Gold.PLP.PLP>
-42.4869

> <Gold.PLP.part.hbond>
-3.6744

> <Gold.PLP.part.metal>
0.0000

> <Gold.PLP.part.buried>
-6.6299

> <Gold.PLP.part.nonpolar>
-31.6377

> <Gold.PLP.part.repulsive>
0.1042

> <Gold.PLP.ligand.clash>
0.0310

> <Gold.PLP.ligand.torsion>
0.6480

> <Gold.PLP.Chemscore.Hbond>
1.0801

> <Gold.PLP.Chemscore.CHOScore>
0.0000

> <Gold.PLP.Chemscore.Metal>
0.0000

> <Gold.Chemscore.Hbonds>
donor molecule, donor type, donor heavy atom, donor atom, acceptor molecule, acceptor atom, score
      P1  H  6931  6943       L1    15  0.05
      P1  H  6934  6947       L1    15  0.01
      P1  H  7997  8008       L1    30  1.00

> <Gold.PLP.Chemscore.Internal.Correction>
0.4359

> <Gold.Rescore>
     Score         DG    S(hbond)    S(metal)    S(lipo)     H(rot)  DE(clash)    DE(int)     intcor
     11.71     -13.93       0.94        0.00     105.57       2.75       0.58       1.64       ----

> <Gold.Chemscore.Fitness>
11.7135

> <Gold.Chemscore.DG>
-13.9319

> <Gold.Chemscore.ZeroCoef>
-5.4800

> <Gold.Chemscore.Hbond>
0.9420

> <Gold.Chemscore.Metal>
0.0000

> <Gold.Chemscore.Lipo>
105.5705

> <Gold.Chemscore.Internal_Hbond>
0.0000

> <Gold.Chemscore.DEClash>
0.5834

> <Gold.Chemscore.DEInternal>
1.6350

> <Gold.Chemscore.Rot>
2.7523

> <Gold.Chemscore.Internal.Correction>
   9.000000E+99

> <Gold.Chemscore.Hbonds>
donor molecule, donor type, donor heavy atom, donor atom, acceptor molecule, acceptor atom, score
      P1  H  7997  8008       L1    30  0.69

> <Gold.Chemscore.Hbond.Weighted>
-3.1461

> <Gold.Chemscore.Metal.Weighted>
-0.0000

> <Gold.Chemscore.Lipo.Weighted>
-12.3517

> <Gold.Chemscore.Internal_Hbond.Weighted>
0.0000

> <Gold.Chemscore.DEClash.Weighted>
0.5834

> <Gold.Chemscore.DEInternal.Weighted>
1.6350

> <Gold.Chemscore.Rot.Weighted>
7.0459

> <Gold.Chemscore.Internal.Correction.Weighted>
   9.000000E+99

> <Gold.Protein.RotatedTorsions>
[ 6907 6896 6895 6894 ] final  -16.33 input  -60.11 | X-H torsion
[ 7974 7965 7964 7962 ] final  -73.76 input  175.53 | X-H torsion
[ 8008 7997 7996 7995 ] final  -95.39 input   59.86 | X-H torsion
[ 10167 10162 10161 10158 ] final   27.45 input  -65.29 | X-H torsion
[ 10718 10713 10712 10709 ] final  -66.64 input   66.30 | X-H torsion
[ 10763 10752 10751 10750 ] final -111.37 input  -60.55 | X-H torsion
[ 11005 11000 10999 10996 ] final    9.37 input  -57.11 | X-H torsion

> <Gold.Protein.ActiveResidues>
 VAL166  LYS551  ARG553  GLY616  TRP617  ASP618  TYR619  PRO620  LYS621  CYS622 
 ASP623  PHE694  ASN695  SER759  ASP760  ASP761  ALA762  ILE779  LEU786  VAL792 
 PHE793  MET794  SER795  GLU796  ALA797  LYS798  CYS799  TRP800  GLU811  SER814 

> <Gold.Protein.RotatedAtoms>
  151.3102  135.0792  159.9269 H   0  0  0  0  0  0  0  0  0  0  0  0  # atno 6907 bound_to 6896
  152.5279  133.9744  159.7787 H   0  0  0  0  0  0  0  0  0  0  0  0  # atno 6908 bound_to 6896
  151.0046  133.5971  159.2721 H   0  0  0  0  0  0  0  0  0  0  0  0  # atno 6909 bound_to 6896
  145.6480  140.9291  143.1000 H   0  0  0  0  0  0  0  0  0  0  0  0  # atno 7974 bound_to 7965
  154.7607  140.0480  157.0971 H   0  0  0  0  0  0  0  0  0  0  0  0  # atno 8008 bound_to 7997
  154.9941  140.3117  155.4874 H   0  0  0  0  0  0  0  0  0  0  0  0  # atno 8009 bound_to 7997
  156.2903  140.2213  156.5048 H   0  0  0  0  0  0  0  0  0  0  0  0  # atno 8010 bound_to 7997
  140.4937  144.0426  150.6306 H   0  0  0  0  0  0  0  0  0  0  0  0  # atno 10167 bound_to 10162
  156.0601  130.4265  150.1738 H   0  0  0  0  0  0  0  0  0  0  0  0  # atno 10718 bound_to 10713
  154.8296  135.4530  154.1028 H   0  0  0  0  0  0  0  0  0  0  0  0  # atno 10763 bound_to 10752
  153.2312  135.6906  153.7894 H   0  0  0  0  0  0  0  0  0  0  0  0  # atno 10764 bound_to 10752
  153.7275  135.3332  155.3255 H   0  0  0  0  0  0  0  0  0  0  0  0  # atno 10765 bound_to 10752
  140.5265  134.0508  155.7860 H   0  0  0  0  0  0  0  0  0  0  0  0  # atno 11005 bound_to 11000
  144.7133  139.8289  143.7407 LP  0  0  0  0  0  0  0  0  0  0  0  0  # atno 17320 bound_to 7965
  146.1227  139.4248  143.0218 LP  0  0  0  0  0  0  0  0  0  0  0  0  # atno 17321 bound_to 7965
  140.3702  143.2858  152.0286 LP  0  0  0  0  0  0  0  0  0  0  0  0  # atno 17342 bound_to 10162
  139.4856  144.6235  151.7209 LP  0  0  0  0  0  0  0  0  0  0  0  0  # atno 17343 bound_to 10162
  156.9808  130.9863  151.3438 LP  0  0  0  0  0  0  0  0  0  0  0  0  # atno 17370 bound_to 10713
  157.5603  130.8241  149.8257 LP  0  0  0  0  0  0  0  0  0  0  0  0  # atno 17371 bound_to 10713
  141.1305  133.9310  157.2545 LP  0  0  0  0  0  0  0  0  0  0  0  0  # atno 17394 bound_to 11000
  139.9577  135.0161  156.9175 LP  0  0  0  0  0  0  0  0  0  0  0  0  # atno 17395 bound_to 11000

$$$$
