AV-unprocessed.smi:2385|AV-procd|sdf|9465|dock10
  -GOLD-   2272013 93D 1   1.00000     0.00000
 Structure written by MMmdl.
 50 52  0  0  0  0  0  0  0  0  2 V2000
  152.1811  145.4916  159.5153 C   0  0  0  0  0  0  0  0  0  0  0  0
  151.9655  144.0825  159.0044 C   0  0  0  0  0  0  0  0  0  0  0  0
  151.2472  143.8426  157.8179 C   0  0  0  0  0  0  0  0  0  0  0  0
  151.0765  142.5136  157.3851 C   0  0  0  0  0  0  0  0  0  0  0  0
  151.6272  141.4579  158.1458 C   0  0  0  0  0  0  0  0  0  0  0  0
  151.3957  140.1574  157.6238 N   0  0  0  0  0  0  0  0  0  0  0  0
  151.3909  139.7662  156.3376 C   0  0  0  0  0  0  0  0  0  0  0  0
  151.5845  140.4983  155.3670 O   0  0  0  0  0  0  0  0  0  0  0  0
  151.1395  138.4531  156.2321 N   0  0  0  0  0  0  0  0  0  0  0  0
  151.0717  137.7006  154.9795 C   0  0  2  0  0  0  0  0  0  0  0  0
  150.4043  138.5126  153.8536 C   0  0  0  0  0  0  0  0  0  0  0  0
  148.8997  138.7157  154.1046 C   0  0  0  0  0  0  0  0  0  0  0  0
  148.1953  137.4193  154.2938 N   0  3  2  0  0  0  0  0  0  0  0  0
  146.7248  137.6050  154.4220 C   0  0  0  0  0  0  0  0  0  0  0  0
  145.9921  137.7078  153.0662 C   0  0  2  0  0  0  0  0  0  0  0  0
  145.8975  136.3720  152.3489 C   0  0  0  0  0  0  0  0  0  0  0  0
  145.6656  136.7987  150.9075 C   0  0  0  0  0  0  0  0  0  0  0  0
  146.5265  137.9147  150.7499 O   0  0  0  0  0  0  0  0  0  0  0  0
  146.6732  138.5824  152.0000 C   0  0  0  0  0  0  0  0  0  0  0  0
  148.7936  136.6338  155.4068 C   0  0  0  0  0  0  0  0  0  0  0  0
  150.2977  136.3889  155.1845 C   0  0  0  0  0  0  0  0  0  0  0  0
  152.3203  141.6990  159.2863 N   0  0  0  0  0  0  0  0  0  0  0  0
  152.4831  142.9733  159.7011 C   0  0  0  0  0  0  0  0  0  0  0  0
  151.4113  146.1656  159.1380 H   0  0  0  0  0  0  0  0  0  0  0  0
  153.1528  145.8639  159.1910 H   0  0  0  0  0  0  0  0  0  0  0  0
  152.1487  145.5162  160.6048 H   0  0  0  0  0  0  0  0  0  0  0  0
  150.8326  144.6603  157.2467 H   0  0  0  0  0  0  0  0  0  0  0  0
  150.5267  142.3125  156.4770 H   0  0  0  0  0  0  0  0  0  0  0  0
  151.2168  139.4416  158.3123 H   0  0  0  0  0  0  0  0  0  0  0  0
  151.0007  137.9309  157.0848 H   0  0  0  0  0  0  0  0  0  0  0  0
  152.0914  137.4516  154.6801 H   0  0  0  0  0  0  0  0  0  0  0  0
  150.8966  139.4780  153.7307 H   0  0  0  0  0  0  0  0  0  0  0  0
  150.5383  137.9866  152.9074 H   0  0  0  0  0  0  0  0  0  0  0  0
  148.7435  139.3479  154.9801 H   0  0  0  0  0  0  0  0  0  0  0  0
  148.4726  139.2467  153.2529 H   0  0  0  0  0  0  0  0  0  0  0  0
  146.2914  136.8287  155.0545 H   0  0  0  0  0  0  0  0  0  0  0  0
  146.5495  138.5452  154.9472 H   0  0  0  0  0  0  0  0  0  0  0  0
  144.9743  138.0681  153.2248 H   0  0  0  0  0  0  0  0  0  0  0  0
  146.8390  135.8259  152.4260 H   0  0  0  0  0  0  0  0  0  0  0  0
  145.1009  135.7352  152.7344 H   0  0  0  0  0  0  0  0  0  0  0  0
  145.8929  136.0108  150.1891 H   0  0  0  0  0  0  0  0  0  0  0  0
  144.6322  137.1150  150.7583 H   0  0  0  0  0  0  0  0  0  0  0  0
  146.2194  139.5723  151.9483 H   0  0  0  0  0  0  0  0  0  0  0  0
  147.7381  138.7084  152.1975 H   0  0  0  0  0  0  0  0  0  0  0  0
  148.6298  137.1549  156.3514 H   0  0  0  0  0  0  0  0  0  0  0  0
  148.3052  135.6668  155.4945 H   0  0  0  0  0  0  0  0  0  0  0  0
  150.4288  135.7549  154.3066 H   0  0  0  0  0  0  0  0  0  0  0  0
  150.7150  135.8313  156.0239 H   0  0  0  0  0  0  0  0  0  0  0  0
  153.0431  143.1090  160.6146 H   0  0  0  0  0  0  0  0  0  0  0  0
  148.3461  136.8937  153.4444 H   0  0  0  0  0  0  0  0  0  0  0  0
  1  2  1  0  0  0  0
  1 24  1  0  0  0  0
  1 25  1  0  0  0  0
  1 26  1  0  0  0  0
  2 23  1  0  0  0  0
  2  3  2  0  0  0  0
  3  4  1  0  0  0  0
  3 27  1  0  0  0  0
  4  5  2  0  0  0  0
  4 28  1  0  0  0  0
  5  6  1  0  0  0  0
  5 22  1  0  0  0  0
  6  7  1  0  0  0  0
  6 29  1  0  0  0  0
  7  8  2  0  0  0  0
  7  9  1  0  0  0  0
  9 10  1  0  0  0  0
  9 30  1  0  0  0  0
 10 21  1  0  0  0  0
 10 11  1  0  0  0  0
 10 31  1  0  0  0  0
 11 12  1  0  0  0  0
 11 32  1  0  0  0  0
 11 33  1  0  0  0  0
 12 13  1  0  0  0  0
 12 34  1  0  0  0  0
 12 35  1  0  0  0  0
 13 14  1  0  0  0  0
 13 20  1  0  0  0  0
 13 50  1  0  0  0  0
 14 15  1  0  0  0  0
 14 36  1  0  0  0  0
 14 37  1  0  0  0  0
 15 19  1  0  0  0  0
 15 16  1  0  0  0  0
 15 38  1  0  0  0  0
 16 17  1  0  0  0  0
 16 39  1  0  0  0  0
 16 40  1  0  0  0  0
 17 18  1  0  0  0  0
 17 41  1  0  0  0  0
 17 42  1  0  0  0  0
 18 19  1  0  0  0  0
 19 43  1  0  0  0  0
 19 44  1  0  0  0  0
 20 21  1  0  0  0  0
 20 45  1  0  0  0  0
 20 46  1  0  0  0  0
 21 47  1  0  0  0  0
 21 48  1  0  0  0  0
 22 23  2  0  0  0  0
 23 49  1  0  0  0  0
M  CHG  1  13   1
M  END
> <s_m_source_file>
AV-unprocessed.smi

> <i_m_source_file_index>
2385

> <i_lp_mmshare_version>
43012

> <i_f3d_flags>
0

> <s_epik_input>
W0NIM11jMVtjSF1bY0hdYyhuW2NIXTEpW05IXUMoPU8pW05IXVtDSF0yW0NIMl1bQ0gyXU4oW0NIMl1bQ0gyXTIpW0NIMl1bQ0BASF0zW0NIMl1bQ0gyXU9bQ0gyXTM=

> <s_epik_cmdline>
J2VwaWtfcHl0aG9uJywgJy1waCcsICc3LjAnLCAnLXRuJywgJzgnLCAnLW1hJywgJzIwMCcsICctbWV0YWxfYmluZGluZycsICctaW1hZScsICc8aW5maWxlLm1hZT4nLCAnLW9tYWUnLCAnPG91dGZpbGUubWFlPic=

> <r_epik_Ionization_Penalty>
0.00752367

> <r_epik_Ionization_Penalty_Charging>
0.00747775

> <r_epik_Ionization_Penalty_Neutral>
4.59207e-05

> <r_epik_State_Penalty>
0.00558817

> <r_epik_Charging_Adjusted_Penalty>
0.0130659

> <i_epik_Tot_Q>
1

> <i_epik_Tot_abs_Q>
1

> <r_epik_Metal_State_Penalty>
-0

> <b_epik_Metal_Only>
0

> <s_lp_Force_Field>
OPLS_2005

> <r_lp_Energy>
35.6171

> <b_lp_Chiralities_Consistent>
1

> <s_lp_Variant>
AV-unprocessed.smi:2385-3

> <Gold.Version>
5.8.1

> <Gold.Id.Protein>
6NUR|6NUR_protein|mol2

> <Gold.PLP.Fitness>
49.2434

> <Gold.PLP.PLP>
-39.7976

> <Gold.PLP.part.hbond>
-3.0000

> <Gold.PLP.part.metal>
0.0000

> <Gold.PLP.part.buried>
-1.3838

> <Gold.PLP.part.nonpolar>
-37.9213

> <Gold.PLP.part.repulsive>
2.1444

> <Gold.PLP.ligand.clash>
0.0000

> <Gold.PLP.ligand.torsion>
1.0151

> <Gold.PLP.Chemscore.Hbond>
3.8160

> <Gold.PLP.Chemscore.CHOScore>
0.0000

> <Gold.PLP.Chemscore.Metal>
0.0000

> <Gold.Chemscore.Hbonds>
donor molecule, donor type, donor heavy atom, donor atom, acceptor molecule, acceptor atom, score
      L1  H    13    50       P1  7948  2.00
      P1  H  7954  7966       L1    18  1.00
      P1  H  7989  7998       L1     8  0.82

> <Gold.PLP.Chemscore.Internal.Correction>
0.0281

> <Gold.Rescore>
     Score         DG    S(hbond)    S(metal)    S(lipo)     H(rot)  DE(clash)    DE(int)     intcor
     17.11     -23.63       2.52        0.00     113.82       1.41       2.78       3.74       ----

> <Gold.Chemscore.Fitness>
17.1064

> <Gold.Chemscore.DG>
-23.6263

> <Gold.Chemscore.ZeroCoef>
-5.4800

> <Gold.Chemscore.Hbond>
2.5233

> <Gold.Chemscore.Metal>
0.0000

> <Gold.Chemscore.Lipo>
113.8185

> <Gold.Chemscore.Internal_Hbond>
0.0000

> <Gold.Chemscore.DEClash>
2.7845

> <Gold.Chemscore.DEInternal>
3.7353

> <Gold.Chemscore.Rot>
1.4056

> <Gold.Chemscore.Internal.Correction>
   9.000000E+99

> <Gold.Chemscore.Hbonds>
donor molecule, donor type, donor heavy atom, donor atom, acceptor molecule, acceptor atom, score
      L1  H    13    50       P1  7948  1.00
      P1  H  7954  7966       L1    18  0.72
      P1  H  7989  7998       L1     8  0.79

> <Gold.Chemscore.Hbond.Weighted>
-8.4277

> <Gold.Chemscore.Metal.Weighted>
-0.0000

> <Gold.Chemscore.Lipo.Weighted>
-13.3168

> <Gold.Chemscore.Internal_Hbond.Weighted>
0.0000

> <Gold.Chemscore.DEClash.Weighted>
2.7845

> <Gold.Chemscore.DEInternal.Weighted>
3.7353

> <Gold.Chemscore.Rot.Weighted>
3.5982

> <Gold.Chemscore.Internal.Correction.Weighted>
   9.000000E+99

> <Gold.Protein.RotatedTorsions>
[ 6907 6896 6895 6894 ] final  -93.66 input  -60.11 | X-H torsion
[ 7974 7965 7964 7962 ] final   -5.01 input  175.53 | X-H torsion
[ 8008 7997 7996 7995 ] final  175.16 input   59.86 | X-H torsion
[ 10167 10162 10161 10158 ] final  173.81 input  -65.29 | X-H torsion
[ 10718 10713 10712 10709 ] final   38.99 input   66.30 | X-H torsion
[ 10763 10752 10751 10750 ] final   62.32 input  -60.55 | X-H torsion
[ 11005 11000 10999 10996 ] final  112.59 input  -57.11 | X-H torsion

> <Gold.Protein.ActiveResidues>
 VAL166  LYS551  ARG553  GLY616  TRP617  ASP618  TYR619  PRO620  LYS621  CYS622 
 ASP623  PHE694  ASN695  SER759  ASP760  ASP761  ALA762  ILE779  LEU786  VAL792 
 PHE793  MET794  SER795  GLU796  ALA797  LYS798  CYS799  TRP800  GLU811  SER814 

> <Gold.Protein.RotatedAtoms>
  150.6927  134.1933  159.4293 H   0  0  0  0  0  0  0  0  0  0  0  0  # atno 6907 bound_to 6896
  151.9902  134.9980  160.0570 H   0  0  0  0  0  0  0  0  0  0  0  0  # atno 6908 bound_to 6896
  152.1674  133.4586  159.4928 H   0  0  0  0  0  0  0  0  0  0  0  0  # atno 6909 bound_to 6896
  146.2361  140.1957  142.8333 H   0  0  0  0  0  0  0  0  0  0  0  0  # atno 7974 bound_to 7965
  156.0900  140.1416  156.9604 H   0  0  0  0  0  0  0  0  0  0  0  0  # atno 8008 bound_to 7997
  154.4636  140.0934  156.7007 H   0  0  0  0  0  0  0  0  0  0  0  0  # atno 8009 bound_to 7997
  155.4936  140.3449  155.4361 H   0  0  0  0  0  0  0  0  0  0  0  0  # atno 8010 bound_to 7997
  139.5121  144.3218  152.0195 H   0  0  0  0  0  0  0  0  0  0  0  0  # atno 10167 bound_to 10162
  157.3653  130.7672  149.7078 H   0  0  0  0  0  0  0  0  0  0  0  0  # atno 10718 bound_to 10713
  152.9979  135.5469  154.6174 H   0  0  0  0  0  0  0  0  0  0  0  0  # atno 10763 bound_to 10752
  154.5481  135.2824  155.1036 H   0  0  0  0  0  0  0  0  0  0  0  0  # atno 10764 bound_to 10752
  154.2287  135.6437  153.5221 H   0  0  0  0  0  0  0  0  0  0  0  0  # atno 10765 bound_to 10752
  139.8931  134.9533  156.6609 H   0  0  0  0  0  0  0  0  0  0  0  0  # atno 11005 bound_to 11000
  144.9822  140.8470  143.5390 LP  0  0  0  0  0  0  0  0  0  0  0  0  # atno 17320 bound_to 7965
  145.1952  139.2280  143.5222 LP  0  0  0  0  0  0  0  0  0  0  0  0  # atno 17321 bound_to 7965
  140.2660  144.4016  150.6168 LP  0  0  0  0  0  0  0  0  0  0  0  0  # atno 17342 bound_to 10162
  140.6123  143.2170  151.6861 LP  0  0  0  0  0  0  0  0  0  0  0  0  # atno 17343 bound_to 10162
  155.9745  130.4102  150.3919 LP  0  0  0  0  0  0  0  0  0  0  0  0  # atno 17370 bound_to 10713
  157.2002  131.0436  151.2654 LP  0  0  0  0  0  0  0  0  0  0  0  0  # atno 17371 bound_to 10713
  140.7448  133.8947  155.8304 LP  0  0  0  0  0  0  0  0  0  0  0  0  # atno 17394 bound_to 11000
  141.0049  134.1100  157.4281 LP  0  0  0  0  0  0  0  0  0  0  0  0  # atno 17395 bound_to 11000

$$$$
