AV-unprocessed.smi:3179|AV-procd|sdf|12133|dock7
  -GOLD-   2272017573D 1   1.00000     0.00000
 Structure written by MMmdl.
 34 34  0  0  0  0  0  0  0  0  2 V2000
  150.9516  139.3149  154.8281 C   0  0  0  0  0  0  0  0  0  0  0  0
  149.8069  138.7660  153.9724 C   0  0  0  0  0  0  0  0  0  0  0  0
  148.5648  139.5158  154.2018 N   0  3  0  0  0  0  0  0  0  0  0  0
  147.3882  139.2949  153.5835 C   0  0  0  0  0  0  0  0  0  0  0  0
  146.3168  140.0554  153.8819 N   0  0  0  0  0  0  0  0  0  0  0  0
  146.2910  141.1544  154.8559 C   0  0  0  0  0  0  0  0  0  0  0  0
  147.1303  142.3410  154.3742 C   0  0  0  0  0  0  0  0  0  0  0  0
  147.2829  138.3131  152.6668 N   0  0  0  0  0  0  0  0  0  0  0  0
  146.0663  137.9644  151.9210 C   0  0  0  0  0  0  0  0  0  0  0  0
  146.3131  136.7825  150.9761 C   0  0  0  0  0  0  0  0  0  0  0  0
  145.4827  135.5936  151.3260 C   0  0  0  0  0  0  0  0  0  0  0  0
  144.5429  135.0891  150.5218 N   0  0  0  0  0  0  0  0  0  0  0  0
  143.9257  133.9592  151.0645 C   0  0  0  0  0  0  0  0  0  0  0  0
  144.4232  133.6001  152.2912 C   0  0  0  0  0  0  0  0  0  0  0  0
  145.6924  134.6740  152.8125 S   0  0  0  0  0  0  0  0  0  0  0  0
  151.8550  138.7195  154.6939 H   0  0  0  0  0  0  0  0  0  0  0  0
  150.6964  139.2962  155.8880 H   0  0  0  0  0  0  0  0  0  0  0  0
  151.1885  140.3439  154.5563 H   0  0  0  0  0  0  0  0  0  0  0  0
  150.0677  138.8172  152.9152 H   0  0  0  0  0  0  0  0  0  0  0  0
  149.6349  137.7169  154.2138 H   0  0  0  0  0  0  0  0  0  0  0  0
  145.4501  139.8645  153.3996 H   0  0  0  0  0  0  0  0  0  0  0  0
  145.2579  141.4673  155.0091 H   0  0  0  0  0  0  0  0  0  0  0  0
  146.6660  140.7929  155.8135 H   0  0  0  0  0  0  0  0  0  0  0  0
  147.0803  143.1644  155.0869 H   0  0  0  0  0  0  0  0  0  0  0  0
  146.7738  142.7120  153.4127 H   0  0  0  0  0  0  0  0  0  0  0  0
  148.1785  142.0629  154.2607 H   0  0  0  0  0  0  0  0  0  0  0  0
  148.1053  137.7627  152.4649 H   0  0  0  0  0  0  0  0  0  0  0  0
  145.2749  137.7188  152.6300 H   0  0  0  0  0  0  0  0  0  0  0  0
  145.7366  138.8362  151.3552 H   0  0  0  0  0  0  0  0  0  0  0  0
  146.0904  137.0702  149.9480 H   0  0  0  0  0  0  0  0  0  0  0  0
  147.3650  136.4948  150.9997 H   0  0  0  0  0  0  0  0  0  0  0  0
  143.1410  133.4698  150.5067 H   0  0  0  0  0  0  0  0  0  0  0  0
  144.1229  132.7716  152.9157 H   0  0  0  0  0  0  0  0  0  0  0  0
  148.6129  140.2656  154.8768 H   0  0  0  0  0  0  0  0  0  0  0  0
  1  2  1  0  0  0  0
  1 16  1  0  0  0  0
  1 17  1  0  0  0  0
  1 18  1  0  0  0  0
  2  3  1  0  0  0  0
  2 19  1  0  0  0  0
  2 20  1  0  0  0  0
  3  4  2  0  0  0  0
  3 34  1  0  0  0  0
  4  5  1  0  0  0  0
  4  8  1  0  0  0  0
  5  6  1  0  0  0  0
  5 21  1  0  0  0  0
  6  7  1  0  0  0  0
  6 22  1  0  0  0  0
  6 23  1  0  0  0  0
  7 24  1  0  0  0  0
  7 25  1  0  0  0  0
  7 26  1  0  0  0  0
  8  9  1  0  0  0  0
  8 27  1  0  0  0  0
  9 10  1  0  0  0  0
  9 28  1  0  0  0  0
  9 29  1  0  0  0  0
 10 11  1  0  0  0  0
 10 30  1  0  0  0  0
 10 31  1  0  0  0  0
 11 15  1  0  0  0  0
 11 12  2  0  0  0  0
 12 13  1  0  0  0  0
 13 14  2  0  0  0  0
 13 32  1  0  0  0  0
 14 15  1  0  0  0  0
 14 33  1  0  0  0  0
M  CHG  1   3   1
M  END
> <s_m_source_file>
AV-unprocessed.smi

> <i_m_source_file_index>
3179

> <i_lp_mmshare_version>
43012

> <i_f3d_flags>
0

> <s_epik_input>
W0NIM11bQ0gyXS9OPUMoXFtOSF1bQ0gyXVtDSDNdKVtOSF1bQ0gyXVtDSDJdYzFuW2NIXVtjSF1zMQ==

> <s_epik_cmdline>
J2VwaWtfcHl0aG9uJywgJy1waCcsICc3LjAnLCAnLXRuJywgJzgnLCAnLW1hJywgJzIwMCcsICctbWV0YWxfYmluZGluZycsICctaW1hZScsICc8aW5maWxlLm1hZT4nLCAnLW9tYWUnLCAnPG91dGZpbGUubWFlPic=

> <r_lp_tautomer_probability>
1

> <r_epik_Ionization_Penalty>
3.28801e-05

> <r_epik_Ionization_Penalty_Charging>
8.99277e-08

> <r_epik_Ionization_Penalty_Neutral>
3.27902e-05

> <r_epik_State_Penalty>
-0

> <r_epik_Charging_Adjusted_Penalty>
8.99277e-08

> <i_epik_Tot_Q>
1

> <i_epik_Tot_abs_Q>
1

> <r_epik_Metal_State_Penalty>
-0

> <b_epik_Metal_Only>
0

> <s_epik_Chemistry_Notes>
This compound has an imine and may undergo hydrolysis.

> <s_lp_Force_Field>
OPLS_2005

> <r_lp_Energy>
0.365327

> <b_lp_Chiralities_Consistent>
1

> <s_lp_Variant>
AV-unprocessed.smi:3179-2

> <Gold.Version>
5.8.1

> <Gold.Id.Protein>
6NUR|6NUR_protein|mol2

> <Gold.PLP.Fitness>
40.6102

> <Gold.PLP.PLP>
-23.5248

> <Gold.PLP.part.hbond>
-2.1811

> <Gold.PLP.part.metal>
0.0000

> <Gold.PLP.part.buried>
0.7581

> <Gold.PLP.part.nonpolar>
-23.9498

> <Gold.PLP.part.repulsive>
0.3488

> <Gold.PLP.ligand.clash>
0.0000

> <Gold.PLP.ligand.torsion>
0.4371

> <Gold.PLP.Chemscore.Hbond>
4.0000

> <Gold.PLP.Chemscore.CHOScore>
1.9819

> <Gold.PLP.Chemscore.Metal>
0.0000

> <Gold.Chemscore.Hbonds>
donor molecule, donor type, donor heavy atom, donor atom, acceptor molecule, acceptor atom, score
      L1  H     5    21       P1 10175  1.72
      L1  H     8    27       P1  7948  2.00
      L1  C    13    32       P1 10186  0.99
      L1  C    14    33       P1 10957  0.91

> <Gold.PLP.Chemscore.Internal.Correction>
0.0139

> <Gold.Rescore>
     Score         DG    S(hbond)    S(metal)    S(lipo)     H(rot)  DE(clash)    DE(int)     intcor
     12.98     -14.72       1.94        0.00      61.07       1.72       1.32       0.42       ----

> <Gold.Chemscore.Fitness>
12.9759

> <Gold.Chemscore.DG>
-14.7177

> <Gold.Chemscore.ZeroCoef>
-5.4800

> <Gold.Chemscore.Hbond>
1.9437

> <Gold.Chemscore.Metal>
0.0000

> <Gold.Chemscore.Lipo>
61.0742

> <Gold.Chemscore.Internal_Hbond>
0.0000

> <Gold.Chemscore.DEClash>
1.3239

> <Gold.Chemscore.DEInternal>
0.4180

> <Gold.Chemscore.Rot>
1.7187

> <Gold.Chemscore.Internal.Correction>
   9.000000E+99

> <Gold.Chemscore.Hbonds>
donor molecule, donor type, donor heavy atom, donor atom, acceptor molecule, acceptor atom, score
      L1  H     5    21       P1 10175  0.81
      L1  H     8    27       P1  7948  0.97

> <Gold.Chemscore.Hbond.Weighted>
-6.4918

> <Gold.Chemscore.Metal.Weighted>
-0.0000

> <Gold.Chemscore.Lipo.Weighted>
-7.1457

> <Gold.Chemscore.Internal_Hbond.Weighted>
0.0000

> <Gold.Chemscore.DEClash.Weighted>
1.3239

> <Gold.Chemscore.DEInternal.Weighted>
0.4180

> <Gold.Chemscore.Rot.Weighted>
4.3998

> <Gold.Chemscore.Internal.Correction.Weighted>
   9.000000E+99

> <Gold.Protein.RotatedTorsions>
[ 6907 6896 6895 6894 ] final  114.07 input  -60.11 | X-H torsion
[ 7974 7965 7964 7962 ] final  -35.49 input  175.53 | X-H torsion
[ 8008 7997 7996 7995 ] final  -14.15 input   59.86 | X-H torsion
[ 10167 10162 10161 10158 ] final  137.85 input  -65.29 | X-H torsion
[ 10718 10713 10712 10709 ] final   61.30 input   66.30 | X-H torsion
[ 10763 10752 10751 10750 ] final  -79.74 input  -60.55 | X-H torsion
[ 11005 11000 10999 10996 ] final    5.18 input  -57.11 | X-H torsion

> <Gold.Protein.ActiveResidues>
 VAL166  LYS551  ARG553  GLY616  TRP617  ASP618  TYR619  PRO620  LYS621  CYS622 
 ASP623  PHE694  ASN695  SER759  ASP760  ASP761  ALA762  ILE779  LEU786  VAL792 
 PHE793  MET794  SER795  GLU796  ALA797  LYS798  CYS799  TRP800  GLU811  SER814 

> <Gold.Protein.RotatedAtoms>
  152.4824  133.8287  159.7091 H   0  0  0  0  0  0  0  0  0  0  0  0  # atno 6907 bound_to 6896
  150.8884  133.7267  159.2918 H   0  0  0  0  0  0  0  0  0  0  0  0  # atno 6908 bound_to 6896
  151.4749  135.1052  159.9814 H   0  0  0  0  0  0  0  0  0  0  0  0  # atno 6909 bound_to 6896
  146.0742  140.6165  142.8938 H   0  0  0  0  0  0  0  0  0  0  0  0  # atno 7974 bound_to 7965
  154.5234  140.2231  155.8934 H   0  0  0  0  0  0  0  0  0  0  0  0  # atno 8008 bound_to 7997
  156.1687  140.3126  155.8899 H   0  0  0  0  0  0  0  0  0  0  0  0  # atno 8009 bound_to 7997
  155.3604  140.0461  157.3037 H   0  0  0  0  0  0  0  0  0  0  0  0  # atno 8010 bound_to 7997
  139.5130  144.6386  151.5629 H   0  0  0  0  0  0  0  0  0  0  0  0  # atno 10167 bound_to 10162
  157.5817  130.8987  149.9443 H   0  0  0  0  0  0  0  0  0  0  0  0  # atno 10718 bound_to 10713
  154.5425  135.5685  153.6851 H   0  0  0  0  0  0  0  0  0  0  0  0  # atno 10763 bound_to 10752
  152.9967  135.6231  154.2483 H   0  0  0  0  0  0  0  0  0  0  0  0  # atno 10764 bound_to 10752
  154.2415  135.2862  155.2832 H   0  0  0  0  0  0  0  0  0  0  0  0  # atno 10765 bound_to 10752
  140.5736  134.0079  155.8018 H   0  0  0  0  0  0  0  0  0  0  0  0  # atno 11005 bound_to 11000
  144.7251  140.4498  143.6979 LP  0  0  0  0  0  0  0  0  0  0  0  0  # atno 17320 bound_to 7965
  145.6336  139.1540  143.2955 LP  0  0  0  0  0  0  0  0  0  0  0  0  # atno 17321 bound_to 7965
  140.6145  143.9375  150.6478 LP  0  0  0  0  0  0  0  0  0  0  0  0  # atno 17342 bound_to 10162
  140.2628  143.3511  152.1307 LP  0  0  0  0  0  0  0  0  0  0  0  0  # atno 17343 bound_to 10162
  156.0864  130.3667  150.0480 LP  0  0  0  0  0  0  0  0  0  0  0  0  # atno 17370 bound_to 10713
  156.8618  130.9494  151.3617 LP  0  0  0  0  0  0  0  0  0  0  0  0  # atno 17371 bound_to 10713
  141.1041  133.9722  157.3028 LP  0  0  0  0  0  0  0  0  0  0  0  0  # atno 17394 bound_to 11000
  139.9350  135.0197  156.8526 LP  0  0  0  0  0  0  0  0  0  0  0  0  # atno 17395 bound_to 11000

$$$$
