AV-unprocessed.smi:2844|AV-procd|sdf|10942|dock4
  -GOLD-   2272015393D 1   1.00000     0.00000
 Structure written by MMmdl.
 39 41  0  0  0  0  0  0  0  0  2 V2000
  152.1879  143.8745  160.2582 C   0  0  0  0  0  0  0  0  0  0  0  0
  151.9534  142.8922  159.1228 C   0  0  0  0  0  0  0  0  0  0  0  0
  150.9889  143.2137  158.1409 C   0  0  0  0  0  0  0  0  0  0  0  0
  150.7945  142.2935  157.1176 C   0  0  0  0  0  0  0  0  0  0  0  0
  149.9303  142.3122  156.0205 N   0  3  0  0  0  0  0  0  0  0  0  0
  150.1001  141.1764  155.2883 C   0  0  0  0  0  0  0  0  0  0  0  0
  151.0603  140.4331  155.9023 N   0  0  0  0  0  0  0  0  0  0  0  0
  151.6210  139.1246  155.5410 C   0  0  0  0  0  0  0  0  0  0  0  0
  150.5409  138.1175  155.1021 C   0  0  1  0  0  0  0  0  0  0  0  0
  150.7294  137.7885  153.7381 O   0  0  0  0  0  0  0  0  0  0  0  0
  150.5599  136.8372  155.9589 C   0  0  0  0  0  0  0  0  0  0  0  0
  149.7742  135.7639  155.3763 N   0  0  0  0  0  0  0  0  0  0  0  0
  150.2146  134.5481  154.8893 C   0  0  0  0  0  0  0  0  0  0  0  0
  149.0955  133.9048  154.4565 C   0  0  0  0  0  0  0  0  0  0  0  0
  149.0167  132.3371  153.7420 Cl  0  0  0  0  0  0  0  0  0  0  0  0
  148.0076  134.7782  154.7102 C   0  0  0  0  0  0  0  0  0  0  0  0
  148.4275  135.9028  155.2716 N   0  0  0  0  0  0  0  0  0  0  0  0
  151.5218  141.0897  157.0478 C   0  0  0  0  0  0  0  0  0  0  0  0
  152.4767  140.7575  158.0056 C   0  0  0  0  0  0  0  0  0  0  0  0
  152.6875  141.6795  159.0559 C   0  0  0  0  0  0  0  0  0  0  0  0
  153.7212  141.3440  160.1174 C   0  0  0  0  0  0  0  0  0  0  0  0
  151.5608  144.7607  160.1550 H   0  0  0  0  0  0  0  0  0  0  0  0
  153.2273  144.2030  160.2732 H   0  0  0  0  0  0  0  0  0  0  0  0
  151.9561  143.4123  161.2180 H   0  0  0  0  0  0  0  0  0  0  0  0
  150.4262  144.1347  158.1853 H   0  0  0  0  0  0  0  0  0  0  0  0
  149.5659  140.9113  154.3874 H   0  0  0  0  0  0  0  0  0  0  0  0
  152.3422  139.2849  154.7382 H   0  0  0  0  0  0  0  0  0  0  0  0
  152.1859  138.7460  156.3938 H   0  0  0  0  0  0  0  0  0  0  0  0
  149.5605  138.5867  155.1931 H   0  0  0  0  0  0  0  0  0  0  0  0
  149.9950  137.2683  153.4496 H   0  0  0  0  0  0  0  0  0  0  0  0
  151.5832  136.4847  156.0962 H   0  0  0  0  0  0  0  0  0  0  0  0
  150.1663  137.0450  156.9549 H   0  0  0  0  0  0  0  0  0  0  0  0
  151.2546  134.2576  154.8915 H   0  0  0  0  0  0  0  0  0  0  0  0
  146.9552  134.6378  154.5123 H   0  0  0  0  0  0  0  0  0  0  0  0
  153.0336  139.8334  157.9549 H   0  0  0  0  0  0  0  0  0  0  0  0
  154.1975  140.3829  159.9216 H   0  0  0  0  0  0  0  0  0  0  0  0
  153.2556  141.2901  161.1019 H   0  0  0  0  0  0  0  0  0  0  0  0
  154.5030  142.1033  160.1439 H   0  0  0  0  0  0  0  0  0  0  0  0
  149.2702  143.0432  155.7880 H   0  0  0  0  0  0  0  0  0  0  0  0
  1  2  1  0  0  0  0
  1 22  1  0  0  0  0
  1 23  1  0  0  0  0
  1 24  1  0  0  0  0
  2 20  1  0  0  0  0
  2  3  2  0  0  0  0
  3  4  1  0  0  0  0
  3 25  1  0  0  0  0
  4 18  2  0  0  0  0
  4  5  1  0  0  0  0
  5  6  2  0  0  0  0
  5 39  1  0  0  0  0
  6  7  1  0  0  0  0
  6 26  1  0  0  0  0
  7  8  1  0  0  0  0
  7 18  1  0  0  0  0
  8  9  1  0  0  0  0
  8 27  1  0  0  0  0
  8 28  1  0  0  0  0
  9 10  1  0  0  0  0
  9 11  1  0  0  0  0
  9 29  1  0  0  0  0
 10 30  1  0  0  0  0
 11 12  1  0  0  0  0
 11 31  1  0  0  0  0
 11 32  1  0  0  0  0
 12 17  1  0  0  0  0
 12 13  1  0  0  0  0
 13 14  2  0  0  0  0
 13 33  1  0  0  0  0
 14 15  1  0  0  0  0
 14 16  1  0  0  0  0
 16 17  2  0  0  0  0
 16 34  1  0  0  0  0
 18 19  1  0  0  0  0
 19 20  2  0  0  0  0
 19 35  1  0  0  0  0
 20 21  1  0  0  0  0
 21 36  1  0  0  0  0
 21 37  1  0  0  0  0
 21 38  1  0  0  0  0
M  CHG  1   5   1
M  END
> <s_m_source_file>
AV-unprocessed.smi

> <i_m_source_file_index>
2844

> <i_lp_mmshare_version>
43012

> <i_f3d_flags>
0

> <s_epik_input>
W0NIM11jKFtjSF0xKWMoW0NIM10pW2NIXWMoYzEyKW4oW2NIXW4yKVtDSDJdW0NASF0oW09IXSlbQ0gyXW4zW2NIXWMoQ2wpW2NIXW4z

> <s_epik_cmdline>
J2VwaWtfcHl0aG9uJywgJy1waCcsICc3LjAnLCAnLXRuJywgJzgnLCAnLW1hJywgJzIwMCcsICctbWV0YWxfYmluZGluZycsICctaW1hZScsICc8aW5maWxlLm1hZT4nLCAnLW9tYWUnLCAnPG91dGZpbGUubWFlPic=

> <r_lp_tautomer_probability>
1

> <r_epik_Ionization_Penalty>
1.09214

> <r_epik_Ionization_Penalty_Charging>
1.09214

> <r_epik_Ionization_Penalty_Neutral>
2.93683e-06

> <r_epik_State_Penalty>
1.14852

> <r_epik_Charging_Adjusted_Penalty>
2.24066

> <i_epik_Tot_Q>
1

> <i_epik_Tot_abs_Q>
1

> <r_epik_Metal_State_Penalty>
1.23687

> <b_epik_Metal_Only>
0

> <s_lp_Force_Field>
OPLS_2005

> <r_lp_Energy>
15.1146

> <b_lp_Chiralities_Consistent>
1

> <s_lp_Variant>
AV-unprocessed.smi:2844-4

> <Gold.Version>
5.8.1

> <Gold.Id.Protein>
6NUR|6NUR_protein|mol2

> <Gold.PLP.Fitness>
50.3136

> <Gold.PLP.PLP>
-44.1817

> <Gold.PLP.part.hbond>
-3.0000

> <Gold.PLP.part.metal>
0.0000

> <Gold.PLP.part.buried>
-4.2641

> <Gold.PLP.part.nonpolar>
-36.3768

> <Gold.PLP.part.repulsive>
0.2199

> <Gold.PLP.ligand.clash>
0.0000

> <Gold.PLP.ligand.torsion>
1.0922

> <Gold.PLP.Chemscore.Hbond>
2.7644

> <Gold.PLP.Chemscore.CHOScore>
0.0000

> <Gold.PLP.Chemscore.Metal>
0.0000

> <Gold.Chemscore.Hbonds>
donor molecule, donor type, donor heavy atom, donor atom, acceptor molecule, acceptor atom, score
      L1  H     5    39       P1  8028  2.00
      L1  H    10    30       P1  7948  0.75

> <Gold.PLP.Chemscore.Internal.Correction>
0.0231

> <Gold.Rescore>
     Score         DG    S(hbond)    S(metal)    S(lipo)     H(rot)  DE(clash)    DE(int)     intcor
     16.33     -17.75       1.50        0.00     110.39       2.21       0.14       1.27       ----

> <Gold.Chemscore.Fitness>
16.3326

> <Gold.Chemscore.DG>
-17.7463

> <Gold.Chemscore.ZeroCoef>
-5.4800

> <Gold.Chemscore.Hbond>
1.5017

> <Gold.Chemscore.Metal>
0.0000

> <Gold.Chemscore.Lipo>
110.3893

> <Gold.Chemscore.Internal_Hbond>
0.0000

> <Gold.Chemscore.DEClash>
0.1405

> <Gold.Chemscore.DEInternal>
1.2731

> <Gold.Chemscore.Rot>
2.2129

> <Gold.Chemscore.Internal.Correction>
   9.000000E+99

> <Gold.Chemscore.Hbonds>
donor molecule, donor type, donor heavy atom, donor atom, acceptor molecule, acceptor atom, score
      L1  H     5    39       P1  8028  0.94
      L1  H    10    30       P1  7948  0.25

> <Gold.Chemscore.Hbond.Weighted>
-5.0156

> <Gold.Chemscore.Metal.Weighted>
-0.0000

> <Gold.Chemscore.Lipo.Weighted>
-12.9156

> <Gold.Chemscore.Internal_Hbond.Weighted>
0.0000

> <Gold.Chemscore.DEClash.Weighted>
0.1405

> <Gold.Chemscore.DEInternal.Weighted>
1.2731

> <Gold.Chemscore.Rot.Weighted>
5.6649

> <Gold.Chemscore.Internal.Correction.Weighted>
   9.000000E+99

> <Gold.Protein.RotatedTorsions>
[ 6907 6896 6895 6894 ] final   66.29 input  -60.11 | X-H torsion
[ 7974 7965 7964 7962 ] final -115.71 input  175.53 | X-H torsion
[ 8008 7997 7996 7995 ] final  120.70 input   59.86 | X-H torsion
[ 10167 10162 10161 10158 ] final   48.54 input  -65.29 | X-H torsion
[ 10718 10713 10712 10709 ] final -166.56 input   66.30 | X-H torsion
[ 10763 10752 10751 10750 ] final  -24.84 input  -60.55 | X-H torsion
[ 11005 11000 10999 10996 ] final   14.05 input  -57.11 | X-H torsion

> <Gold.Protein.ActiveResidues>
 VAL166  LYS551  ARG553  GLY616  TRP617  ASP618  TYR619  PRO620  LYS621  CYS622 
 ASP623  PHE694  ASN695  SER759  ASP760  ASP761  ALA762  ILE779  LEU786  VAL792 
 PHE793  MET794  SER795  GLU796  ALA797  LYS798  CYS799  TRP800  GLU811  SER814 

> <Gold.Protein.RotatedAtoms>
  152.4470  134.5474  159.9856 H   0  0  0  0  0  0  0  0  0  0  0  0  # atno 6907 bound_to 6896
  151.5556  133.3405  159.2969 H   0  0  0  0  0  0  0  0  0  0  0  0  # atno 6908 bound_to 6896
  150.8388  134.7705  159.6979 H   0  0  0  0  0  0  0  0  0  0  0  0  # atno 6909 bound_to 6896
  145.1053  140.8577  143.3902 H   0  0  0  0  0  0  0  0  0  0  0  0  # atno 7974 bound_to 7965
  156.2654  140.2825  156.1191 H   0  0  0  0  0  0  0  0  0  0  0  0  # atno 8008 bound_to 7997
  155.1175  140.0392  157.2758 H   0  0  0  0  0  0  0  0  0  0  0  0  # atno 8009 bound_to 7997
  154.6695  140.2585  155.7028 H   0  0  0  0  0  0  0  0  0  0  0  0  # atno 8010 bound_to 7997
  140.2923  144.3032  150.6238 H   0  0  0  0  0  0  0  0  0  0  0  0  # atno 10167 bound_to 10162
  156.6697  130.9079  151.3042 H   0  0  0  0  0  0  0  0  0  0  0  0  # atno 10718 bound_to 10713
  153.6902  135.6962  153.5092 H   0  0  0  0  0  0  0  0  0  0  0  0  # atno 10763 bound_to 10752
  153.2418  135.4303  155.0705 H   0  0  0  0  0  0  0  0  0  0  0  0  # atno 10764 bound_to 10752
  154.8375  135.3510  154.6444 H   0  0  0  0  0  0  0  0  0  0  0  0  # atno 10765 bound_to 10752
  140.4738  134.1004  155.7737 H   0  0  0  0  0  0  0  0  0  0  0  0  # atno 11005 bound_to 11000
  145.0909  139.2891  143.5735 LP  0  0  0  0  0  0  0  0  0  0  0  0  # atno 17320 bound_to 7965
  146.3528  140.0446  142.8640 LP  0  0  0  0  0  0  0  0  0  0  0  0  # atno 17321 bound_to 7965
  140.5722  143.2180  151.7579 LP  0  0  0  0  0  0  0  0  0  0  0  0  # atno 17342 bound_to 10162
  139.4935  144.4200  151.9987 LP  0  0  0  0  0  0  0  0  0  0  0  0  # atno 17343 bound_to 10162
  157.7081  130.9409  150.0998 LP  0  0  0  0  0  0  0  0  0  0  0  0  # atno 17370 bound_to 10713
  156.1948  130.3656  149.8863 LP  0  0  0  0  0  0  0  0  0  0  0  0  # atno 17371 bound_to 10713
  141.1564  133.8874  157.1965 LP  0  0  0  0  0  0  0  0  0  0  0  0  # atno 17394 bound_to 11000
  139.9868  135.0079  156.9882 LP  0  0  0  0  0  0  0  0  0  0  0  0  # atno 17395 bound_to 11000

$$$$
