AV-unprocessed.smi:211|AV-procd|sdf|1616|dock6
  -GOLD-   2262019543D 1   1.00000     0.00000
 Structure written by MMmdl.
 59 62  0  0  0  0  0  0  0  0  1 V2000
  154.9951  141.5586  167.2308 C   0  0  0  0  0  0  0  0  0  0  0  0
  155.9481  140.4429  166.8163 C   0  0  0  0  0  0  0  0  0  0  0  0
  156.7988  140.0330  167.6051 O   0  0  0  0  0  0  0  0  0  0  0  0
  155.7926  139.9644  165.5724 N   0  0  0  0  0  0  0  0  0  0  0  0
  156.6054  138.9179  164.9528 C   0  0  1  0  0  0  0  0  0  0  0  0
  156.6022  137.6811  165.8711 C   0  0  0  0  0  0  0  0  0  0  0  0
  156.0896  138.6223  163.5194 C   0  0  0  0  0  0  0  0  0  0  0  0
  155.7631  139.9083  162.7268 C   0  0  0  0  0  0  0  0  0  0  0  0
  155.2324  139.5921  161.3190 C   0  0  0  0  0  0  0  0  0  0  0  0
  154.0805  138.6925  161.3794 N   0  0  0  0  0  0  0  0  0  0  0  0
  153.3347  138.5523  160.2535 C   0  0  0  0  0  0  0  0  0  0  0  0
  153.1246  137.3152  159.7279 N   0  0  0  0  0  0  0  0  0  0  0  0
  152.3760  137.1648  158.6313 C   0  0  0  0  0  0  0  0  0  0  0  0
  151.7565  138.1001  157.9097 N   0  0  0  0  0  0  0  0  0  0  0  0
  151.9726  139.3449  158.4234 C   0  0  0  0  0  0  0  0  0  0  0  0
  152.7379  139.6573  159.5826 C   0  0  0  0  0  0  0  0  0  0  0  0
  152.7268  141.0305  159.7988 N   0  0  0  0  0  0  0  0  0  0  0  0
  151.9831  141.4997  158.8345 C   0  0  0  0  0  0  0  0  0  0  0  0
  151.5110  140.5593  157.9469 N   0  0  0  0  0  0  0  0  0  0  0  0
  150.6433  140.7890  156.8295 C   0  0  0  0  0  0  0  0  0  0  0  0
  149.2744  140.1108  156.7374 C   0  0  0  0  0  0  0  0  0  0  0  0
  149.4014  140.0837  155.1983 C   0  0  0  0  0  0  0  0  0  0  0  0
  148.9139  138.7914  154.5224 C   0  0  0  0  0  0  0  0  0  0  0  0
  149.3367  138.7253  153.1754 O   0  0  0  0  0  0  0  0  0  0  0  0
  148.7904  141.2983  154.4699 C   0  0  0  0  0  0  0  0  0  0  0  0
  149.3146  141.4345  153.1647 O   0  0  0  0  0  0  0  0  0  0  0  0
  150.9229  140.1670  155.4592 C   0  0  0  0  0  0  0  0  0  0  0  0
  154.3228  137.4447  162.0993 C   0  0  0  0  0  0  0  0  0  0  0  0
  154.8324  137.7201  163.5224 C   0  0  0  0  0  0  0  0  0  0  0  0
  153.9588  141.2407  167.1128 H   0  0  0  0  0  0  0  0  0  0  0  0
  155.1581  142.4443  166.6160 H   0  0  0  0  0  0  0  0  0  0  0  0
  155.1506  141.8343  168.2745 H   0  0  0  0  0  0  0  0  0  0  0  0
  155.0605  140.3645  165.0036 H   0  0  0  0  0  0  0  0  0  0  0  0
  157.6336  139.2750  164.8686 H   0  0  0  0  0  0  0  0  0  0  0  0
  157.3073  136.9231  165.5316 H   0  0  0  0  0  0  0  0  0  0  0  0
  155.6133  137.2234  165.9182 H   0  0  0  0  0  0  0  0  0  0  0  0
  156.8935  137.9447  166.8885 H   0  0  0  0  0  0  0  0  0  0  0  0
  156.8778  138.0917  162.9827 H   0  0  0  0  0  0  0  0  0  0  0  0
  155.0237  140.4983  163.2700 H   0  0  0  0  0  0  0  0  0  0  0  0
  156.6476  140.5361  162.6249 H   0  0  0  0  0  0  0  0  0  0  0  0
  154.9535  140.5221  160.8212 H   0  0  0  0  0  0  0  0  0  0  0  0
  156.0201  139.1302  160.7219 H   0  0  0  0  0  0  0  0  0  0  0  0
  152.2561  136.1495  158.2826 H   0  0  0  0  0  0  0  0  0  0  0  0
  151.7621  142.5533  158.7424 H   0  0  0  0  0  0  0  0  0  0  0  0
  150.5434  141.8726  156.7475 H   0  0  0  0  0  0  0  0  0  0  0  0
  149.2725  139.1140  157.1833 H   0  0  0  0  0  0  0  0  0  0  0  0
  148.4468  140.7095  157.1189 H   0  0  0  0  0  0  0  0  0  0  0  0
  149.2670  137.9045  155.0487 H   0  0  0  0  0  0  0  0  0  0  0  0
  147.8248  138.7374  154.5315 H   0  0  0  0  0  0  0  0  0  0  0  0
  149.5105  137.8219  152.9592 H   0  0  0  0  0  0  0  0  0  0  0  0
  147.7048  141.2212  154.4063 H   0  0  0  0  0  0  0  0  0  0  0  0
  148.9939  142.2246  155.0070 H   0  0  0  0  0  0  0  0  0  0  0  0
  149.3888  140.5743  152.7802 H   0  0  0  0  0  0  0  0  0  0  0  0
  151.4761  140.8130  154.7769 H   0  0  0  0  0  0  0  0  0  0  0  0
  151.3958  139.1858  155.5345 H   0  0  0  0  0  0  0  0  0  0  0  0
  153.4218  136.8346  162.1546 H   0  0  0  0  0  0  0  0  0  0  0  0
  155.0607  136.8601  161.5480 H   0  0  0  0  0  0  0  0  0  0  0  0
  155.0387  136.7652  164.0056 H   0  0  0  0  0  0  0  0  0  0  0  0
  154.0410  138.1947  164.1045 H   0  0  0  0  0  0  0  0  0  0  0  0
  1  2  1  0  0  0  0
  1 30  1  0  0  0  0
  1 31  1  0  0  0  0
  1 32  1  0  0  0  0
  2  3  2  0  0  0  0
  2  4  1  0  0  0  0
  4  5  1  0  0  0  0
  4 33  1  0  0  0  0
  5  6  1  0  0  0  0
  5  7  1  0  0  0  0
  5 34  1  0  0  0  0
  6 35  1  0  0  0  0
  6 36  1  0  0  0  0
  6 37  1  0  0  0  0
  7 29  1  0  0  0  0
  7  8  1  0  0  0  0
  7 38  1  0  0  0  0
  8  9  1  0  0  0  0
  8 39  1  0  0  0  0
  8 40  1  0  0  0  0
  9 10  1  0  0  0  0
  9 41  1  0  0  0  0
  9 42  1  0  0  0  0
 10 11  1  0  0  0  0
 10 28  1  0  0  0  0
 11 16  1  0  0  0  0
 11 12  2  0  0  0  0
 12 13  1  0  0  0  0
 13 14  2  0  0  0  0
 13 43  1  0  0  0  0
 14 15  1  0  0  0  0
 15 19  1  0  0  0  0
 15 16  2  0  0  0  0
 16 17  1  0  0  0  0
 17 18  2  0  0  0  0
 18 19  1  0  0  0  0
 18 44  1  0  0  0  0
 19 20  1  0  0  0  0
 20 27  1  0  0  0  0
 20 21  1  0  0  0  0
 20 45  1  0  0  0  0
 21 22  1  0  0  0  0
 21 46  1  0  0  0  0
 21 47  1  0  0  0  0
 22 23  1  0  0  0  0
 22 25  1  0  0  0  0
 22 27  1  0  0  0  0
 23 24  1  0  0  0  0
 23 48  1  0  0  0  0
 23 49  1  0  0  0  0
 24 50  1  0  0  0  0
 25 26  1  0  0  0  0
 25 51  1  0  0  0  0
 25 52  1  0  0  0  0
 26 53  1  0  0  0  0
 27 54  1  0  0  0  0
 27 55  1  0  0  0  0
 28 29  1  0  0  0  0
 28 56  1  0  0  0  0
 28 57  1  0  0  0  0
 29 58  1  0  0  0  0
 29 59  1  0  0  0  0
M  END
> <s_m_source_file>
AV-unprocessed.smi

> <i_m_source_file_index>
211

> <i_lp_mmshare_version>
43012

> <i_f3d_flags>
0

> <s_epik_input>
W0NIM11DKD1PKVtOSF1bQ0BIXShbQ0gzXSlbQ0hdMVtDSDJdW0NIMl1OKFtDSDJdW0NIMl0xKWMobltjSF1uMiljKGMyMyluW2NIXW4zW0NIXShbQ0gyXTQpW0NIMl1DNChbQ0gyXVtPSF0pW0NIMl1bT0hd

> <s_epik_cmdline>
J2VwaWtfcHl0aG9uJywgJy1waCcsICc3LjAnLCAnLXRuJywgJzgnLCAnLW1hJywgJzIwMCcsICctbWV0YWxfYmluZGluZycsICctaW1hZScsICc8aW5maWxlLm1hZT4nLCAnLW9tYWUnLCAnPG91dGZpbGUubWFlPic=

> <r_lp_tautomer_probability>
1

> <r_epik_Ionization_Penalty>
0.00335435

> <r_epik_Ionization_Penalty_Charging>
0

> <r_epik_Ionization_Penalty_Neutral>
0.00335435

> <r_epik_State_Penalty>
0.00231338

> <r_epik_Charging_Adjusted_Penalty>
0.00231338

> <i_epik_Tot_Q>
0

> <i_epik_Tot_abs_Q>
0

> <r_epik_Metal_State_Penalty>
-0

> <b_epik_Metal_Only>
0

> <s_lp_Force_Field>
OPLS_2005

> <r_lp_Energy>
40.8238

> <b_lp_Chiralities_Consistent>
1

> <s_lp_Variant>
AV-unprocessed.smi:211-2

> <Gold.Version>
5.8.1

> <Gold.Id.Protein>
6NUR|6NUR_protein|mol2

> <Gold.PLP.Fitness>
48.2067

> <Gold.PLP.PLP>
-41.8210

> <Gold.PLP.part.hbond>
-4.3664

> <Gold.PLP.part.metal>
0.0000

> <Gold.PLP.part.buried>
-5.5860

> <Gold.PLP.part.nonpolar>
-30.9065

> <Gold.PLP.part.repulsive>
0.0551

> <Gold.PLP.ligand.clash>
0.0000

> <Gold.PLP.ligand.torsion>
0.8019

> <Gold.PLP.Chemscore.Hbond>
2.3648

> <Gold.PLP.Chemscore.CHOScore>
0.0000

> <Gold.PLP.Chemscore.Metal>
0.0000

> <Gold.Chemscore.Hbonds>
donor molecule, donor type, donor heavy atom, donor atom, acceptor molecule, acceptor atom, score
      L1  H    24    50       P1  7948  0.93
      L1  H    26    53       P1  7957  0.64
      P1  H  8011  8017       L1    26  0.60

> <Gold.PLP.Chemscore.Internal.Correction>
0.8951

> <Gold.Rescore>
     Score         DG    S(hbond)    S(metal)    S(lipo)     H(rot)  DE(clash)    DE(int)     intcor
     10.39     -13.08       2.36        0.00      83.30       3.92       0.67       2.03       ----

> <Gold.Chemscore.Fitness>
10.3887

> <Gold.Chemscore.DG>
-13.0844

> <Gold.Chemscore.ZeroCoef>
-5.4800

> <Gold.Chemscore.Hbond>
2.3600

> <Gold.Chemscore.Metal>
0.0000

> <Gold.Chemscore.Lipo>
83.2953

> <Gold.Chemscore.Internal_Hbond>
0.0000

> <Gold.Chemscore.DEClash>
0.6654

> <Gold.Chemscore.DEInternal>
2.0303

> <Gold.Chemscore.Rot>
3.9155

> <Gold.Chemscore.Internal.Correction>
   9.000000E+99

> <Gold.Chemscore.Hbonds>
donor molecule, donor type, donor heavy atom, donor atom, acceptor molecule, acceptor atom, score
      L1  H    24    50       P1  7948  0.76
      L1  H    26    53       P1  7957  0.64
      P1  H  8011  8017       L1    26  0.48

> <Gold.Chemscore.Hbond.Weighted>
-7.8824

> <Gold.Chemscore.Metal.Weighted>
-0.0000

> <Gold.Chemscore.Lipo.Weighted>
-9.7455

> <Gold.Chemscore.Internal_Hbond.Weighted>
0.0000

> <Gold.Chemscore.DEClash.Weighted>
0.6654

> <Gold.Chemscore.DEInternal.Weighted>
2.0303

> <Gold.Chemscore.Rot.Weighted>
10.0236

> <Gold.Chemscore.Internal.Correction.Weighted>
   9.000000E+99

> <Gold.Protein.RotatedTorsions>
[ 6907 6896 6895 6894 ] final   38.52 input  -60.11 | X-H torsion
[ 7974 7965 7964 7962 ] final   -1.24 input  175.53 | X-H torsion
[ 8008 7997 7996 7995 ] final   60.83 input   59.86 | X-H torsion
[ 10167 10162 10161 10158 ] final   -6.90 input  -65.29 | X-H torsion
[ 10718 10713 10712 10709 ] final   -3.71 input   66.30 | X-H torsion
[ 10763 10752 10751 10750 ] final   19.85 input  -60.55 | X-H torsion
[ 11005 11000 10999 10996 ] final -157.15 input  -57.11 | X-H torsion

> <Gold.Protein.ActiveResidues>
 VAL166  LYS551  ARG553  GLY616  TRP617  ASP618  TYR619  PRO620  LYS621  CYS622 
 ASP623  PHE694  ASN695  SER759  ASP760  ASP761  ALA762  ILE779  LEU786  VAL792 
 PHE793  MET794  SER795  GLU796  ALA797  LYS798  CYS799  TRP800  GLU811  SER814 

> <Gold.Protein.RotatedAtoms>
  152.1576  134.8938  160.0543 H   0  0  0  0  0  0  0  0  0  0  0  0  # atno 6907 bound_to 6896
  151.9947  133.3798  159.4166 H   0  0  0  0  0  0  0  0  0  0  0  0  # atno 6908 bound_to 6896
  150.6883  134.3821  159.5083 H   0  0  0  0  0  0  0  0  0  0  0  0  # atno 6909 bound_to 6896
  146.2419  140.1390  142.8336 H   0  0  0  0  0  0  0  0  0  0  0  0  # atno 7974 bound_to 7965
  155.5886  140.3492  155.4560 H   0  0  0  0  0  0  0  0  0  0  0  0  # atno 8008 bound_to 7997
  156.0318  140.1276  157.0274 H   0  0  0  0  0  0  0  0  0  0  0  0  # atno 8009 bound_to 7997
  154.4355  140.1042  156.6096 H   0  0  0  0  0  0  0  0  0  0  0  0  # atno 8010 bound_to 7997
  140.7012  143.6141  150.8675 H   0  0  0  0  0  0  0  0  0  0  0  0  # atno 10167 bound_to 10162
  156.7720  130.5303  149.5766 H   0  0  0  0  0  0  0  0  0  0  0  0  # atno 10718 bound_to 10713
  153.1127  135.6700  153.9472 H   0  0  0  0  0  0  0  0  0  0  0  0  # atno 10763 bound_to 10752
  153.9011  135.3036  155.3450 H   0  0  0  0  0  0  0  0  0  0  0  0  # atno 10764 bound_to 10752
  154.7545  135.5018  153.9427 H   0  0  0  0  0  0  0  0  0  0  0  0  # atno 10765 bound_to 10752
  140.6677  134.4280  157.5232 H   0  0  0  0  0  0  0  0  0  0  0  0  # atno 11005 bound_to 11000
  145.0263  140.8834  143.5137 LP  0  0  0  0  0  0  0  0  0  0  0  0  # atno 17320 bound_to 7965
  145.1447  139.2551  143.5472 LP  0  0  0  0  0  0  0  0  0  0  0  0  # atno 17321 bound_to 7965
  139.9863  143.5895  152.2925 LP  0  0  0  0  0  0  0  0  0  0  0  0  # atno 17342 bound_to 10162
  139.6534  144.7661  151.2102 LP  0  0  0  0  0  0  0  0  0  0  0  0  # atno 17343 bound_to 10162
  156.1272  130.6152  151.0280 LP  0  0  0  0  0  0  0  0  0  0  0  0  # atno 17370 bound_to 10713
  157.6686  131.0866  150.7667 LP  0  0  0  0  0  0  0  0  0  0  0  0  # atno 17371 bound_to 10713
  139.8992  134.8597  156.1971 LP  0  0  0  0  0  0  0  0  0  0  0  0  # atno 17394 bound_to 11000
  141.0416  133.6935  156.1608 LP  0  0  0  0  0  0  0  0  0  0  0  0  # atno 17395 bound_to 11000

$$$$
