AV-unprocessed.smi:479|AV-procd|sdf|2672|dock8
  -GOLD-   2262023 93D 1   1.00000     0.00000
 Structure written by MMmdl.
 45 47  0  0  0  0  0  0  0  0  1 V2000
  151.8762  145.2850  159.6007 C   0  0  0  0  0  0  0  0  0  0  0  0
  151.5638  144.1580  158.7961 O   0  0  0  0  0  0  0  0  0  0  0  0
  152.0465  142.9223  159.1758 C   0  0  0  0  0  0  0  0  0  0  0  0
  152.8453  142.7115  160.3283 C   0  0  0  0  0  0  0  0  0  0  0  0
  153.3148  141.4204  160.6629 C   0  0  0  0  0  0  0  0  0  0  0  0
  154.1551  141.1757  161.8706 C   0  0  0  0  0  0  0  0  0  0  0  0
  154.8924  139.8411  161.9710 C   0  0  0  0  0  0  0  0  0  0  0  0
  154.2860  141.9914  162.7829 O   0  0  0  0  0  0  0  0  0  0  0  0
  152.9807  140.3372  159.8229 C   0  0  0  0  0  0  0  0  0  0  0  0
  152.1875  140.5359  158.6794 C   0  0  0  0  0  0  0  0  0  0  0  0
  151.7086  141.8270  158.3501 C   0  0  0  0  0  0  0  0  0  0  0  0
  150.9127  142.0922  157.2549 O   0  0  0  0  0  0  0  0  0  0  0  0
  150.4509  141.0017  156.4676 C   0  0  0  0  0  0  0  0  0  0  0  0
  149.1049  141.3633  155.8115 C   0  0  2  0  0  0  0  0  0  0  0  0
  149.2925  142.4201  154.8939 O   0  0  0  0  0  0  0  0  0  0  0  0
  147.9674  141.7064  156.7963 C   0  0  0  0  0  0  0  0  0  0  0  0
  146.7633  142.1578  156.1208 N   0  0  0  0  0  0  0  0  0  0  0  0
  146.3540  141.8155  154.8842 C   0  0  0  0  0  0  0  0  0  0  0  0
  145.2039  142.3294  154.4578 N   0  0  0  0  0  0  0  0  0  0  0  0
  144.8259  143.1041  155.5409 C   0  0  0  0  0  0  0  0  0  0  0  0
  143.6838  143.9137  155.7348 C   0  0  0  0  0  0  0  0  0  0  0  0
  143.5073  144.6236  156.9409 C   0  0  0  0  0  0  0  0  0  0  0  0
  144.4704  144.5400  157.9672 C   0  0  0  0  0  0  0  0  0  0  0  0
  145.6175  143.7425  157.7947 C   0  0  0  0  0  0  0  0  0  0  0  0
  145.7861  143.0277  156.5947 C   0  0  0  0  0  0  0  0  0  0  0  0
  151.3948  146.1684  159.1814 H   0  0  0  0  0  0  0  0  0  0  0  0
  152.9503  145.4745  159.6225 H   0  0  0  0  0  0  0  0  0  0  0  0
  151.5072  145.1621  160.6200 H   0  0  0  0  0  0  0  0  0  0  0  0
  153.1035  143.5459  160.9607 H   0  0  0  0  0  0  0  0  0  0  0  0
  154.1828  139.0142  162.0028 H   0  0  0  0  0  0  0  0  0  0  0  0
  155.4971  139.8064  162.8777 H   0  0  0  0  0  0  0  0  0  0  0  0
  155.5545  139.7047  161.1158 H   0  0  0  0  0  0  0  0  0  0  0  0
  153.3276  139.3387  160.0471 H   0  0  0  0  0  0  0  0  0  0  0  0
  151.9604  139.6755  158.0689 H   0  0  0  0  0  0  0  0  0  0  0  0
  151.1893  140.7293  155.7116 H   0  0  0  0  0  0  0  0  0  0  0  0
  150.2981  140.1303  157.1064 H   0  0  0  0  0  0  0  0  0  0  0  0
  148.7915  140.5049  155.2161 H   0  0  0  0  0  0  0  0  0  0  0  0
  148.8990  143.2017  155.2508 H   0  0  0  0  0  0  0  0  0  0  0  0
  147.7193  140.8363  157.4052 H   0  0  0  0  0  0  0  0  0  0  0  0
  148.2870  142.4871  157.4875 H   0  0  0  0  0  0  0  0  0  0  0  0
  146.9293  141.1418  154.2661 H   0  0  0  0  0  0  0  0  0  0  0  0
  142.9409  143.9875  154.9547 H   0  0  0  0  0  0  0  0  0  0  0  0
  142.6290  145.2373  157.0781 H   0  0  0  0  0  0  0  0  0  0  0  0
  144.3285  145.0869  158.8879 H   0  0  0  0  0  0  0  0  0  0  0  0
  146.3569  143.6762  158.5782 H   0  0  0  0  0  0  0  0  0  0  0  0
  1  2  1  0  0  0  0
  1 26  1  0  0  0  0
  1 27  1  0  0  0  0
  1 28  1  0  0  0  0
  2  3  1  0  0  0  0
  3 11  1  0  0  0  0
  3  4  2  0  0  0  0
  4  5  1  0  0  0  0
  4 29  1  0  0  0  0
  5  6  1  0  0  0  0
  5  9  2  0  0  0  0
  6  7  1  0  0  0  0
  6  8  2  0  0  0  0
  7 30  1  0  0  0  0
  7 31  1  0  0  0  0
  7 32  1  0  0  0  0
  9 10  1  0  0  0  0
  9 33  1  0  0  0  0
 10 11  2  0  0  0  0
 10 34  1  0  0  0  0
 11 12  1  0  0  0  0
 12 13  1  0  0  0  0
 13 14  1  0  0  0  0
 13 35  1  0  0  0  0
 13 36  1  0  0  0  0
 14 15  1  0  0  0  0
 14 16  1  0  0  0  0
 14 37  1  0  0  0  0
 15 38  1  0  0  0  0
 16 17  1  0  0  0  0
 16 39  1  0  0  0  0
 16 40  1  0  0  0  0
 17 25  1  0  0  0  0
 17 18  1  0  0  0  0
 18 19  2  0  0  0  0
 18 41  1  0  0  0  0
 19 20  1  0  0  0  0
 20 25  2  0  0  0  0
 20 21  1  0  0  0  0
 21 22  2  0  0  0  0
 21 42  1  0  0  0  0
 22 23  1  0  0  0  0
 22 43  1  0  0  0  0
 23 24  2  0  0  0  0
 23 44  1  0  0  0  0
 24 25  1  0  0  0  0
 24 45  1  0  0  0  0
M  END
> <s_m_source_file>
AV-unprocessed.smi

> <i_m_source_file_index>
479

> <i_lp_mmshare_version>
43012

> <i_f3d_flags>
0

> <s_epik_input>
W0NIM11PYzFbY0hdYyhDKD1PKVtDSDNdKVtjSF1bY0hdYzFPW0NIMl1bQ0BIXShbT0hdKVtDSDJdbihbY0hdbjIpYyhjMjMpW2NIXVtjSF1bY0hdW2NIXTM=

> <s_epik_cmdline>
J2VwaWtfcHl0aG9uJywgJy1waCcsICc3LjAnLCAnLXRuJywgJzgnLCAnLW1hJywgJzIwMCcsICctbWV0YWxfYmluZGluZycsICctaW1hZScsICc8aW5maWxlLm1hZT4nLCAnLW9tYWUnLCAnPG91dGZpbGUubWFlPic=

> <r_lp_tautomer_probability>
0.99995

> <r_epik_Ionization_Penalty>
0.061028

> <r_epik_Ionization_Penalty_Charging>
0

> <r_epik_Ionization_Penalty_Neutral>
0.061028

> <r_epik_State_Penalty>
0.052945

> <r_epik_Charging_Adjusted_Penalty>
0.052945

> <i_epik_Tot_Q>
0

> <i_epik_Tot_abs_Q>
0

> <r_epik_Metal_State_Penalty>
5.53801e-05

> <b_epik_Metal_Only>
0

> <s_lp_Force_Field>
OPLS_2005

> <r_lp_Energy>
25.674

> <b_lp_Chiralities_Consistent>
1

> <s_lp_Variant>
AV-unprocessed.smi:479-1

> <Gold.Version>
5.8.1

> <Gold.Id.Protein>
6NUR|6NUR_protein|mol2

> <Gold.PLP.Fitness>
46.3799

> <Gold.PLP.PLP>
-44.6267

> <Gold.PLP.part.hbond>
-2.6919

> <Gold.PLP.part.metal>
0.0000

> <Gold.PLP.part.buried>
-5.1223

> <Gold.PLP.part.nonpolar>
-37.3300

> <Gold.PLP.part.repulsive>
0.6440

> <Gold.PLP.ligand.clash>
0.0000

> <Gold.PLP.ligand.torsion>
0.7090

> <Gold.PLP.Chemscore.Hbond>
1.0000

> <Gold.PLP.Chemscore.CHOScore>
0.0000

> <Gold.PLP.Chemscore.Metal>
0.0000

> <Gold.Chemscore.Hbonds>
donor molecule, donor type, donor heavy atom, donor atom, acceptor molecule, acceptor atom, score
      L1  H    15    38       P1  8028  1.00

> <Gold.PLP.Chemscore.Internal.Correction>
0.1712

> <Gold.Rescore>
     Score         DG    S(hbond)    S(metal)    S(lipo)     H(rot)  DE(clash)    DE(int)     intcor
     12.00     -14.04       1.00        0.00     102.67       2.66       0.16       1.87       ----

> <Gold.Chemscore.Fitness>
11.9999

> <Gold.Chemscore.DG>
-14.0394

> <Gold.Chemscore.ZeroCoef>
-5.4800

> <Gold.Chemscore.Hbond>
1.0014

> <Gold.Chemscore.Metal>
0.0000

> <Gold.Chemscore.Lipo>
102.6741

> <Gold.Chemscore.Internal_Hbond>
0.0000

> <Gold.Chemscore.DEClash>
0.1648

> <Gold.Chemscore.DEInternal>
1.8747

> <Gold.Chemscore.Rot>
2.6555

> <Gold.Chemscore.Internal.Correction>
   9.000000E+99

> <Gold.Chemscore.Hbonds>
donor molecule, donor type, donor heavy atom, donor atom, acceptor molecule, acceptor atom, score
      L1  H    15    38       P1  8028  0.94

> <Gold.Chemscore.Hbond.Weighted>
-3.3446

> <Gold.Chemscore.Metal.Weighted>
-0.0000

> <Gold.Chemscore.Lipo.Weighted>
-12.0129

> <Gold.Chemscore.Internal_Hbond.Weighted>
0.0000

> <Gold.Chemscore.DEClash.Weighted>
0.1648

> <Gold.Chemscore.DEInternal.Weighted>
1.8747

> <Gold.Chemscore.Rot.Weighted>
6.7980

> <Gold.Chemscore.Internal.Correction.Weighted>
   9.000000E+99

> <Gold.Protein.RotatedTorsions>
[ 6907 6896 6895 6894 ] final  107.57 input  -60.11 | X-H torsion
[ 7974 7965 7964 7962 ] final -142.01 input  175.53 | X-H torsion
[ 8008 7997 7996 7995 ] final   45.68 input   59.86 | X-H torsion
[ 10167 10162 10161 10158 ] final -101.23 input  -65.29 | X-H torsion
[ 10718 10713 10712 10709 ] final  -84.16 input   66.30 | X-H torsion
[ 10763 10752 10751 10750 ] final   79.54 input  -60.55 | X-H torsion
[ 11005 11000 10999 10996 ] final   96.70 input  -57.11 | X-H torsion

> <Gold.Protein.ActiveResidues>
 VAL166  LYS551  ARG553  GLY616  TRP617  ASP618  TYR619  PRO620  LYS621  CYS622 
 ASP623  PHE694  ASN695  SER759  ASP760  ASP761  ALA762  ILE779  LEU786  VAL792 
 PHE793  MET794  SER795  GLU796  ALA797  LYS798  CYS799  TRP800  GLU811  SER814 

> <Gold.Protein.RotatedAtoms>
  152.5149  133.9216  159.7536 H   0  0  0  0  0  0  0  0  0  0  0  0  # atno 6907 bound_to 6896
  150.9586  133.6461  159.2765 H   0  0  0  0  0  0  0  0  0  0  0  0  # atno 6908 bound_to 6896
  151.3714  135.0928  159.9519 H   0  0  0  0  0  0  0  0  0  0  0  0  # atno 6909 bound_to 6896
  144.8476  140.6011  143.5411 H   0  0  0  0  0  0  0  0  0  0  0  0  # atno 7974 bound_to 7965
  155.3398  140.3407  155.4239 H   0  0  0  0  0  0  0  0  0  0  0  0  # atno 8008 bound_to 7997
  156.1819  140.1667  156.8294 H   0  0  0  0  0  0  0  0  0  0  0  0  # atno 8009 bound_to 7997
  154.5343  140.0738  156.8383 H   0  0  0  0  0  0  0  0  0  0  0  0  # atno 8010 bound_to 7997
  140.2436  143.3522  152.0780 H   0  0  0  0  0  0  0  0  0  0  0  0  # atno 10167 bound_to 10162
  156.0009  130.4689  150.4368 H   0  0  0  0  0  0  0  0  0  0  0  0  # atno 10718 bound_to 10713
  153.0961  135.4836  154.8780 H   0  0  0  0  0  0  0  0  0  0  0  0  # atno 10763 bound_to 10752
  154.7325  135.3063  154.8869 H   0  0  0  0  0  0  0  0  0  0  0  0  # atno 10764 bound_to 10752
  153.9500  135.6824  153.4797 H   0  0  0  0  0  0  0  0  0  0  0  0  # atno 10765 bound_to 10752
  139.8780  134.8964  156.4197 H   0  0  0  0  0  0  0  0  0  0  0  0  # atno 11005 bound_to 11000
  145.4565  139.1517  143.3889 LP  0  0  0  0  0  0  0  0  0  0  0  0  # atno 17320 bound_to 7965
  146.2757  140.4693  142.8796 LP  0  0  0  0  0  0  0  0  0  0  0  0  # atno 17321 bound_to 7965
  139.5069  144.6822  151.5978 LP  0  0  0  0  0  0  0  0  0  0  0  0  # atno 17342 bound_to 10162
  140.6095  143.9462  150.6443 LP  0  0  0  0  0  0  0  0  0  0  0  0  # atno 17343 bound_to 10162
  157.2412  131.0526  151.2435 LP  0  0  0  0  0  0  0  0  0  0  0  0  # atno 17370 bound_to 10713
  157.3618  130.7135  149.6507 LP  0  0  0  0  0  0  0  0  0  0  0  0  # atno 17371 bound_to 10713
  140.9142  133.7690  155.9828 LP  0  0  0  0  0  0  0  0  0  0  0  0  # atno 17394 bound_to 11000
  140.8512  134.2952  157.5274 LP  0  0  0  0  0  0  0  0  0  0  0  0  # atno 17395 bound_to 11000

$$$$
