AV-unprocessed.smi:2467|AV-procd|sdf|9725|dock1
  -GOLD-   2272013363D 1   1.00000     0.00000
 Structure written by MMmdl.
 46 47  0  0  0  0  0  0  0  0  1 V2000
  151.6784  144.3779  158.8656 C   0  0  0  0  0  0  0  0  0  0  0  0
  151.2297  143.1294  158.0898 C   0  0  0  0  0  0  0  0  0  0  0  0
  151.4672  141.7862  158.8249 C   0  0  0  0  0  0  0  0  0  0  0  0
  152.9305  141.6702  159.3223 C   0  0  0  0  0  0  0  0  0  0  0  0
  153.2204  142.4223  160.6303 C   0  0  0  0  0  0  0  0  0  0  0  0
  151.0483  140.5774  157.9475 C   0  0  2  0  0  0  0  0  0  0  0  0
  151.9560  139.3327  158.0912 C   0  0  0  0  0  0  0  0  0  0  0  0
  151.4661  138.1838  157.1952 C   0  0  1  0  0  0  0  0  0  0  0  0
  150.2208  137.6347  157.7250 N   0  0  0  0  0  0  0  0  0  0  0  0
  150.0200  137.1628  158.9650 C   0  0  0  0  0  0  0  0  0  0  0  0
  150.8980  137.1602  159.8262 O   0  0  0  0  0  0  0  0  0  0  0  0
  148.7862  136.6769  159.2220 N   0  0  0  0  0  0  0  0  0  0  0  0
  148.2207  136.1060  160.4018 C   0  0  0  0  0  0  0  0  0  0  0  0
  147.3761  134.9974  160.1669 C   0  0  0  0  0  0  0  0  0  0  0  0
  146.7596  134.3477  161.2538 C   0  0  0  0  0  0  0  0  0  0  0  0
  147.0039  134.8226  162.5545 C   0  0  0  0  0  0  0  0  0  0  0  0
  147.8567  135.9309  162.7053 C   0  0  0  0  0  0  0  0  0  0  0  0
  148.4472  136.5544  161.6639 N   0  0  0  0  0  0  0  0  0  0  0  0
  151.2880  138.7038  155.7570 C   0  0  0  0  0  0  0  0  0  0  0  0
  150.4323  139.9824  155.7246 C   0  0  0  0  0  0  0  0  0  0  0  0
  150.9940  140.9741  156.5787 O   0  0  0  0  0  0  0  0  0  0  0  0
  151.6150  145.2630  158.2325 H   0  0  0  0  0  0  0  0  0  0  0  0
  152.7117  144.2859  159.2009 H   0  0  0  0  0  0  0  0  0  0  0  0
  151.0538  144.5662  159.7379 H   0  0  0  0  0  0  0  0  0  0  0  0
  150.1773  143.2263  157.8208 H   0  0  0  0  0  0  0  0  0  0  0  0
  151.7766  143.1325  157.1483 H   0  0  0  0  0  0  0  0  0  0  0  0
  150.8225  141.7811  159.7052 H   0  0  0  0  0  0  0  0  0  0  0  0
  153.1852  140.6272  159.4990 H   0  0  0  0  0  0  0  0  0  0  0  0
  153.6154  142.0133  158.5461 H   0  0  0  0  0  0  0  0  0  0  0  0
  154.2336  142.2135  160.9744 H   0  0  0  0  0  0  0  0  0  0  0  0
  152.5351  142.1162  161.4211 H   0  0  0  0  0  0  0  0  0  0  0  0
  153.1392  143.5020  160.5113 H   0  0  0  0  0  0  0  0  0  0  0  0
  150.0477  140.2737  158.2515 H   0  0  0  0  0  0  0  0  0  0  0  0
  152.9796  139.5707  157.8060 H   0  0  0  0  0  0  0  0  0  0  0  0
  151.9953  139.0090  159.1322 H   0  0  0  0  0  0  0  0  0  0  0  0
  152.2185  137.3932  157.2016 H   0  0  0  0  0  0  0  0  0  0  0  0
  149.4390  137.5963  157.0859 H   0  0  0  0  0  0  0  0  0  0  0  0
  148.1455  136.7402  158.4444 H   0  0  0  0  0  0  0  0  0  0  0  0
  147.1981  134.6430  159.1617 H   0  0  0  0  0  0  0  0  0  0  0  0
  146.1115  133.4993  161.0906 H   0  0  0  0  0  0  0  0  0  0  0  0
  146.5503  134.3502  163.4133 H   0  0  0  0  0  0  0  0  0  0  0  0
  148.0719  136.3269  163.6867 H   0  0  0  0  0  0  0  0  0  0  0  0
  152.2687  138.9257  155.3342 H   0  0  0  0  0  0  0  0  0  0  0  0
  150.8483  137.9372  155.1181 H   0  0  0  0  0  0  0  0  0  0  0  0
  150.3913  140.3776  154.7095 H   0  0  0  0  0  0  0  0  0  0  0  0
  149.4037  139.7722  156.0219 H   0  0  0  0  0  0  0  0  0  0  0  0
  1  2  1  0  0  0  0
  1 22  1  0  0  0  0
  1 23  1  0  0  0  0
  1 24  1  0  0  0  0
  2  3  1  0  0  0  0
  2 25  1  0  0  0  0
  2 26  1  0  0  0  0
  3  4  1  0  0  0  0
  3  6  1  0  0  0  0
  3 27  1  0  0  0  0
  4  5  1  0  0  0  0
  4 28  1  0  0  0  0
  4 29  1  0  0  0  0
  5 30  1  0  0  0  0
  5 31  1  0  0  0  0
  5 32  1  0  0  0  0
  6 21  1  0  0  0  0
  6  7  1  0  0  0  0
  6 33  1  0  0  0  0
  7  8  1  0  0  0  0
  7 34  1  0  0  0  0
  7 35  1  0  0  0  0
  8  9  1  0  0  0  0
  8 19  1  0  0  0  0
  8 36  1  0  0  0  0
  9 10  1  0  0  0  0
  9 37  1  0  0  0  0
 10 11  2  0  0  0  0
 10 12  1  0  0  0  0
 12 13  1  0  0  0  0
 12 38  1  0  0  0  0
 13 18  1  0  0  0  0
 13 14  2  0  0  0  0
 14 15  1  0  0  0  0
 14 39  1  0  0  0  0
 15 16  2  0  0  0  0
 15 40  1  0  0  0  0
 16 17  1  0  0  0  0
 16 41  1  0  0  0  0
 17 18  2  0  0  0  0
 17 42  1  0  0  0  0
 19 20  1  0  0  0  0
 19 43  1  0  0  0  0
 19 44  1  0  0  0  0
 20 21  1  0  0  0  0
 20 45  1  0  0  0  0
 20 46  1  0  0  0  0
M  END
> <s_m_source_file>
AV-unprocessed.smi

> <i_m_source_file_index>
2467

> <i_lp_mmshare_version>
43012

> <i_f3d_flags>
0

> <s_epik_input>
W0NIM11bQ0gyXVtDSF0oW0NIMl1bQ0gzXSlbQ0BASF0xW0NIMl1bQ0BIXShbQ0gyXVtDSDJdTzEpW05IXUMoPU8pW05IXWMyW2NIXVtjSF1bY0hdW2NIXW4y

> <s_epik_cmdline>
J2VwaWtfcHl0aG9uJywgJy1waCcsICc3LjAnLCAnLXRuJywgJzgnLCAnLW1hJywgJzIwMCcsICctbWV0YWxfYmluZGluZycsICctaW1hZScsICc8aW5maWxlLm1hZT4nLCAnLW9tYWUnLCAnPG91dGZpbGUubWFlPic=

> <r_lp_tautomer_probability>
1

> <r_epik_Ionization_Penalty>
4.80427e-05

> <r_epik_Ionization_Penalty_Charging>
0

> <r_epik_Ionization_Penalty_Neutral>
4.80427e-05

> <r_epik_State_Penalty>
-0

> <r_epik_Charging_Adjusted_Penalty>
0

> <i_epik_Tot_Q>
0

> <i_epik_Tot_abs_Q>
0

> <r_epik_Metal_State_Penalty>
-0

> <b_epik_Metal_Only>
0

> <s_lp_Force_Field>
OPLS_2005

> <r_lp_Energy>
18.1019

> <b_lp_Chiralities_Consistent>
1

> <s_lp_Variant>
AV-unprocessed.smi:2467-1

> <Gold.Version>
5.8.1

> <Gold.Id.Protein>
6NUR|6NUR_protein|mol2

> <Gold.PLP.Fitness>
44.9560

> <Gold.PLP.PLP>
-42.7435

> <Gold.PLP.part.hbond>
-2.0491

> <Gold.PLP.part.metal>
0.0000

> <Gold.PLP.part.buried>
-7.2700

> <Gold.PLP.part.nonpolar>
-34.7816

> <Gold.PLP.part.repulsive>
0.2672

> <Gold.PLP.ligand.clash>
0.0000

> <Gold.PLP.ligand.torsion>
1.7504

> <Gold.PLP.Chemscore.Hbond>
1.8125

> <Gold.PLP.Chemscore.CHOScore>
0.0000

> <Gold.PLP.Chemscore.Metal>
0.0000

> <Gold.Chemscore.Hbonds>
donor molecule, donor type, donor heavy atom, donor atom, acceptor molecule, acceptor atom, score
      P1  H  6896  6909       L1    11  0.94
      P1  H  6931  6943       L1    18  1.00

> <Gold.PLP.Chemscore.Internal.Correction>
0.2758

> <Gold.Rescore>
     Score         DG    S(hbond)    S(metal)    S(lipo)     H(rot)  DE(clash)    DE(int)     intcor
     17.83     -20.05       1.90        0.00     102.72       1.49       0.00       2.23       ----

> <Gold.Chemscore.Fitness>
17.8269

> <Gold.Chemscore.DG>
-20.0520

> <Gold.Chemscore.ZeroCoef>
-5.4800

> <Gold.Chemscore.Hbond>
1.9032

> <Gold.Chemscore.Metal>
0.0000

> <Gold.Chemscore.Lipo>
102.7224

> <Gold.Chemscore.Internal_Hbond>
0.0000

> <Gold.Chemscore.DEClash>
0.0000

> <Gold.Chemscore.DEInternal>
2.2251

> <Gold.Chemscore.Rot>
1.4856

> <Gold.Chemscore.Internal.Correction>
   9.000000E+99

> <Gold.Chemscore.Hbonds>
donor molecule, donor type, donor heavy atom, donor atom, acceptor molecule, acceptor atom, score
      P1  H  6896  6909       L1    11  0.23
      P1  H  6931  6943       L1    18  0.94

> <Gold.Chemscore.Hbond.Weighted>
-6.3566

> <Gold.Chemscore.Metal.Weighted>
-0.0000

> <Gold.Chemscore.Lipo.Weighted>
-12.0185

> <Gold.Chemscore.Internal_Hbond.Weighted>
0.0000

> <Gold.Chemscore.DEClash.Weighted>
0.0000

> <Gold.Chemscore.DEInternal.Weighted>
2.2251

> <Gold.Chemscore.Rot.Weighted>
3.8031

> <Gold.Chemscore.Internal.Correction.Weighted>
   9.000000E+99

> <Gold.Protein.RotatedTorsions>
[ 6907 6896 6895 6894 ] final  103.12 input  -60.11 | X-H torsion
[ 7974 7965 7964 7962 ] final  -11.24 input  175.53 | X-H torsion
[ 8008 7997 7996 7995 ] final  152.69 input   59.86 | X-H torsion
[ 10167 10162 10161 10158 ] final   24.18 input  -65.29 | X-H torsion
[ 10718 10713 10712 10709 ] final  172.83 input   66.30 | X-H torsion
[ 10763 10752 10751 10750 ] final  -97.62 input  -60.55 | X-H torsion
[ 11005 11000 10999 10996 ] final  156.12 input  -57.11 | X-H torsion

> <Gold.Protein.ActiveResidues>
 VAL166  LYS551  ARG553  GLY616  TRP617  ASP618  TYR619  PRO620  LYS621  CYS622 
 ASP623  PHE694  ASN695  SER759  ASP760  ASP761  ALA762  ILE779  LEU786  VAL792 
 PHE793  MET794  SER795  GLU796  ALA797  LYS798  CYS799  TRP800  GLU811  SER814 

> <Gold.Protein.RotatedAtoms>
  152.5304  133.9873  159.7834 H   0  0  0  0  0  0  0  0  0  0  0  0  # atno 6907 bound_to 6896
  151.0115  133.5953  159.2689 H   0  0  0  0  0  0  0  0  0  0  0  0  # atno 6908 bound_to 6896
  151.3025  135.0779  159.9297 H   0  0  0  0  0  0  0  0  0  0  0  0  # atno 6909 bound_to 6896
  146.2194  140.2882  142.8366 H   0  0  0  0  0  0  0  0  0  0  0  0  # atno 7974 bound_to 7965
  156.2617  140.2014  156.6373 H   0  0  0  0  0  0  0  0  0  0  0  0  # atno 8008 bound_to 7997
  154.6636  140.0558  157.0114 H   0  0  0  0  0  0  0  0  0  0  0  0  # atno 8009 bound_to 7997
  155.1239  140.3227  155.4493 H   0  0  0  0  0  0  0  0  0  0  0  0  # atno 8010 bound_to 7997
  140.5209  144.0003  150.6416 H   0  0  0  0  0  0  0  0  0  0  0  0  # atno 10167 bound_to 10162
  156.9732  131.0096  151.2900 H   0  0  0  0  0  0  0  0  0  0  0  0  # atno 10718 bound_to 10713
  154.7344  135.5040  153.9017 H   0  0  0  0  0  0  0  0  0  0  0  0  # atno 10763 bound_to 10752
  153.0980  135.6677  153.9734 H   0  0  0  0  0  0  0  0  0  0  0  0  # atno 10764 bound_to 10752
  153.9527  135.3056  155.3417 H   0  0  0  0  0  0  0  0  0  0  0  0  # atno 10765 bound_to 10752
  140.1645  134.8586  157.2615 H   0  0  0  0  0  0  0  0  0  0  0  0  # atno 11005 bound_to 11000
  144.9146  140.7798  143.5786 LP  0  0  0  0  0  0  0  0  0  0  0  0  # atno 17320 bound_to 7965
  145.2815  139.1917  143.4788 LP  0  0  0  0  0  0  0  0  0  0  0  0  # atno 17321 bound_to 7965
  140.3352  143.3053  152.0646 LP  0  0  0  0  0  0  0  0  0  0  0  0  # atno 17342 bound_to 10162
  139.4923  144.6481  151.6735 LP  0  0  0  0  0  0  0  0  0  0  0  0  # atno 17343 bound_to 10162
  157.5578  130.8225  149.8227 LP  0  0  0  0  0  0  0  0  0  0  0  0  # atno 17370 bound_to 10713
  156.0274  130.3775  150.1783 LP  0  0  0  0  0  0  0  0  0  0  0  0  # atno 17371 bound_to 10713
  140.2450  134.3750  155.7465 LP  0  0  0  0  0  0  0  0  0  0  0  0  # atno 17394 bound_to 11000
  141.2212  133.7286  156.8848 LP  0  0  0  0  0  0  0  0  0  0  0  0  # atno 17395 bound_to 11000

$$$$
