AV-unprocessed.smi:679|AV-procd|sdf|3319|dock5
  -GOLD-   22720 0283D 1   1.00000     0.00000
 Structure written by MMmdl.
 41 43  0  0  0  0  0  0  0  0  1 V2000
  145.3597  143.7800  153.7705 C   0  0  0  0  0  0  0  0  0  0  0  0
  145.6906  142.6846  154.7865 C   0  0  0  0  0  0  0  0  0  0  0  0
  146.2386  141.5736  154.0980 O   0  0  0  0  0  0  0  0  0  0  0  0
  147.3851  141.0360  154.7385 C   0  0  2  0  0  0  0  0  0  0  0  0
  148.6790  141.8202  154.4985 C   0  0  0  0  0  0  0  0  0  0  0  0
  149.3884  140.4701  154.3429 C   0  0  1  0  0  0  0  0  0  0  0  0
  149.9212  140.0037  155.6229 N   0  0  0  0  0  0  0  0  0  0  0  0
  151.2185  139.7666  155.8713 C   0  0  0  0  0  0  0  0  0  0  0  0
  152.1050  139.9114  155.0305 O   0  0  0  0  0  0  0  0  0  0  0  0
  151.5717  139.2702  157.2749 C   0  0  0  0  0  0  0  0  0  0  0  0
  152.4580  138.1214  157.2308 N   0  0  0  0  0  0  0  0  0  0  0  0
  152.2058  136.8273  157.0242 C   0  0  0  0  0  0  0  0  0  0  0  0
  153.3106  136.0995  157.0759 N   0  0  0  0  0  0  0  0  0  0  0  0
  154.2948  137.0395  157.3321 N   0  0  0  0  0  0  0  0  0  0  0  0
  153.7949  138.2411  157.4251 N   0  0  0  0  0  0  0  0  0  0  0  0
  148.0164  139.8426  153.9809 C   0  0  0  0  0  0  0  0  0  0  0  0
  147.6978  139.7211  152.4883 C   0  0  0  0  0  0  0  0  0  0  0  0
  146.5030  138.7710  152.3533 C   0  0  0  0  0  0  0  0  0  0  0  0
  146.4445  137.9847  153.6666 C   0  0  0  0  0  0  0  0  0  0  0  0
  147.6624  138.4404  154.4726 C   0  0  0  0  0  0  0  0  0  0  0  0
  144.9294  144.6518  154.2637 H   0  0  0  0  0  0  0  0  0  0  0  0
  144.6414  143.4249  153.0311 H   0  0  0  0  0  0  0  0  0  0  0  0
  146.2548  144.1042  153.2396 H   0  0  0  0  0  0  0  0  0  0  0  0
  146.4006  143.0644  155.5225 H   0  0  0  0  0  0  0  0  0  0  0  0
  144.7875  142.3861  155.3207 H   0  0  0  0  0  0  0  0  0  0  0  0
  147.2190  140.8120  155.7946 H   0  0  0  0  0  0  0  0  0  0  0  0
  148.6612  142.3961  153.5717 H   0  0  0  0  0  0  0  0  0  0  0  0
  149.0080  142.4289  155.3417 H   0  0  0  0  0  0  0  0  0  0  0  0
  150.1116  140.4647  153.5253 H   0  0  0  0  0  0  0  0  0  0  0  0
  149.2562  139.8524  156.3672 H   0  0  0  0  0  0  0  0  0  0  0  0
  152.0570  140.0706  157.8345 H   0  0  0  0  0  0  0  0  0  0  0  0
  150.6654  138.9994  157.8190 H   0  0  0  0  0  0  0  0  0  0  0  0
  151.2213  136.4222  156.8422 H   0  0  0  0  0  0  0  0  0  0  0  0
  147.4967  140.6836  152.0163 H   0  0  0  0  0  0  0  0  0  0  0  0
  148.5534  139.2939  151.9636 H   0  0  0  0  0  0  0  0  0  0  0  0
  145.5797  139.3348  152.2150 H   0  0  0  0  0  0  0  0  0  0  0  0
  146.6190  138.1134  151.4912 H   0  0  0  0  0  0  0  0  0  0  0  0
  145.5286  138.2349  154.2034 H   0  0  0  0  0  0  0  0  0  0  0  0
  146.4468  136.9065  153.5045 H   0  0  0  0  0  0  0  0  0  0  0  0
  148.4929  137.7588  154.2836 H   0  0  0  0  0  0  0  0  0  0  0  0
  147.4638  138.4080  155.5443 H   0  0  0  0  0  0  0  0  0  0  0  0
  1  2  1  0  0  0  0
  1 21  1  0  0  0  0
  1 22  1  0  0  0  0
  1 23  1  0  0  0  0
  2  3  1  0  0  0  0
  2 24  1  0  0  0  0
  2 25  1  0  0  0  0
  3  4  1  0  0  0  0
  4 16  1  0  0  0  0
  4  5  1  0  0  0  0
  4 26  1  0  0  0  0
  5  6  1  0  0  0  0
  5 27  1  0  0  0  0
  5 28  1  0  0  0  0
  6  7  1  0  0  0  0
  6 16  1  0  0  0  0
  6 29  1  0  0  0  0
  7  8  1  0  0  0  0
  7 30  1  0  0  0  0
  8  9  2  0  0  0  0
  8 10  1  0  0  0  0
 10 11  1  0  0  0  0
 10 31  1  0  0  0  0
 10 32  1  0  0  0  0
 11 15  1  0  0  0  0
 11 12  1  0  0  0  0
 12 13  2  0  0  0  0
 12 33  1  0  0  0  0
 13 14  1  0  0  0  0
 14 15  2  0  0  0  0
 16 20  1  0  0  0  0
 16 17  1  0  0  0  0
 17 18  1  0  0  0  0
 17 34  1  0  0  0  0
 17 35  1  0  0  0  0
 18 19  1  0  0  0  0
 18 36  1  0  0  0  0
 18 37  1  0  0  0  0
 19 20  1  0  0  0  0
 19 38  1  0  0  0  0
 19 39  1  0  0  0  0
 20 40  1  0  0  0  0
 20 41  1  0  0  0  0
M  END
> <s_m_source_file>
AV-unprocessed.smi

> <i_m_source_file_index>
679

> <i_lp_mmshare_version>
43012

> <i_f3d_flags>
0

> <s_epik_input>
W0NIMl0xW0NIMl1bQ0gyXVtDSDJdQzEyW0NASF0oT1tDSDJdW0NIM10pW0NIMl1bQ0BIXTJbTkhdQyg9TylbQ0gyXW4zW2NIXW5ubjM=

> <s_epik_cmdline>
J2VwaWtfcHl0aG9uJywgJy1waCcsICc3LjAnLCAnLXRuJywgJzgnLCAnLW1hJywgJzIwMCcsICctbWV0YWxfYmluZGluZycsICctaW1hZScsICc8aW5maWxlLm1hZT4nLCAnLW9tYWUnLCAnPG91dGZpbGUubWFlPic=

> <r_lp_tautomer_probability>
1

> <r_epik_Ionization_Penalty>
7.96741e-07

> <r_epik_Ionization_Penalty_Charging>
0

> <r_epik_Ionization_Penalty_Neutral>
7.96741e-07

> <r_epik_State_Penalty>
-0

> <r_epik_Charging_Adjusted_Penalty>
0

> <i_epik_Tot_Q>
0

> <i_epik_Tot_abs_Q>
0

> <r_epik_Metal_State_Penalty>
-0

> <b_epik_Metal_Only>
0

> <s_lp_Force_Field>
OPLS_2005

> <r_lp_Energy>
39.8699

> <b_lp_Chiralities_Consistent>
1

> <s_lp_Variant>
AV-unprocessed.smi:679-1

> <Gold.Version>
5.8.1

> <Gold.Id.Protein>
6NUR|6NUR_protein|mol2

> <Gold.PLP.Fitness>
32.7869

> <Gold.PLP.PLP>
-26.3349

> <Gold.PLP.part.hbond>
-3.0000

> <Gold.PLP.part.metal>
0.0000

> <Gold.PLP.part.buried>
2.8461

> <Gold.PLP.part.nonpolar>
-26.8772

> <Gold.PLP.part.repulsive>
0.2807

> <Gold.PLP.ligand.clash>
0.0000

> <Gold.PLP.ligand.torsion>
0.9937

> <Gold.PLP.Chemscore.Hbond>
2.6960

> <Gold.PLP.Chemscore.CHOScore>
0.0000

> <Gold.PLP.Chemscore.Metal>
0.0000

> <Gold.Chemscore.Hbonds>
donor molecule, donor type, donor heavy atom, donor atom, acceptor molecule, acceptor atom, score
      P1  H  7989  7998       L1     9  0.80
      P1  H  7997  8010       L1    15  0.88
      P1  H 10752 10764       L1    13  1.00

> <Gold.PLP.Chemscore.Internal.Correction>
0.3514

> <Gold.Rescore>
     Score         DG    S(hbond)    S(metal)    S(lipo)     H(rot)  DE(clash)    DE(int)     intcor
     11.84     -14.43       2.37        0.00      61.49       2.41       1.57       1.02       ----

> <Gold.Chemscore.Fitness>
11.8381

> <Gold.Chemscore.DG>
-14.4251

> <Gold.Chemscore.ZeroCoef>
-5.4800

> <Gold.Chemscore.Hbond>
2.3704

> <Gold.Chemscore.Metal>
0.0000

> <Gold.Chemscore.Lipo>
61.4941

> <Gold.Chemscore.Internal_Hbond>
0.0000

> <Gold.Chemscore.DEClash>
1.5689

> <Gold.Chemscore.DEInternal>
1.0181

> <Gold.Chemscore.Rot>
2.4089

> <Gold.Chemscore.Internal.Correction>
   9.000000E+99

> <Gold.Chemscore.Hbonds>
donor molecule, donor type, donor heavy atom, donor atom, acceptor molecule, acceptor atom, score
      P1  H  7989  7998       L1     9  0.75
      P1  H  7997  8010       L1    15  0.76
      P1  H 10752 10764       L1    13  0.20

> <Gold.Chemscore.Hbond.Weighted>
-7.9171

> <Gold.Chemscore.Metal.Weighted>
-0.0000

> <Gold.Chemscore.Lipo.Weighted>
-7.1948

> <Gold.Chemscore.Internal_Hbond.Weighted>
0.0000

> <Gold.Chemscore.DEClash.Weighted>
1.5689

> <Gold.Chemscore.DEInternal.Weighted>
1.0181

> <Gold.Chemscore.Rot.Weighted>
6.1668

> <Gold.Chemscore.Internal.Correction.Weighted>
   9.000000E+99

> <Gold.Protein.RotatedTorsions>
[ 6907 6896 6895 6894 ] final   87.82 input  -60.11 | X-H torsion
[ 7974 7965 7964 7962 ] final  145.47 input  175.53 | X-H torsion
[ 8008 7997 7996 7995 ] final   41.28 input   59.86 | X-H torsion
[ 10167 10162 10161 10158 ] final   81.91 input  -65.29 | X-H torsion
[ 10718 10713 10712 10709 ] final  120.52 input   66.30 | X-H torsion
[ 10763 10752 10751 10750 ] final  -14.70 input  -60.55 | X-H torsion
[ 11005 11000 10999 10996 ] final -168.65 input  -57.11 | X-H torsion

> <Gold.Protein.ActiveResidues>
 VAL166  LYS551  ARG553  GLY616  TRP617  ASP618  TYR619  PRO620  LYS621  CYS622 
 ASP623  PHE694  ASN695  SER759  ASP760  ASP761  ALA762  ILE779  LEU786  VAL792 
 PHE793  MET794  SER795  GLU796  ALA797  LYS798  CYS799  TRP800  GLU811  SER814 

> <Gold.Protein.RotatedAtoms>
  152.5416  134.2217  159.8789 H   0  0  0  0  0  0  0  0  0  0  0  0  # atno 6907 bound_to 6896
  151.2194  133.4504  159.2608 H   0  0  0  0  0  0  0  0  0  0  0  0  # atno 6908 bound_to 6896
  151.0820  134.9877  159.8416 H   0  0  0  0  0  0  0  0  0  0  0  0  # atno 6909 bound_to 6896
  144.8750  139.5787  143.5869 H   0  0  0  0  0  0  0  0  0  0  0  0  # atno 7974 bound_to 7965
  155.2670  140.3363  155.4268 H   0  0  0  0  0  0  0  0  0  0  0  0  # atno 8008 bound_to 7997
  156.2150  140.1785  156.7652 H   0  0  0  0  0  0  0  0  0  0  0  0  # atno 8009 bound_to 7997
  154.5740  140.0665  156.8991 H   0  0  0  0  0  0  0  0  0  0  0  0  # atno 8010 bound_to 7997
  139.9343  144.6131  150.8314 H   0  0  0  0  0  0  0  0  0  0  0  0  # atno 10167 bound_to 10162
  157.5885  131.1067  150.8046 H   0  0  0  0  0  0  0  0  0  0  0  0  # atno 10718 bound_to 10713
  153.5322  135.7014  153.5677 H   0  0  0  0  0  0  0  0  0  0  0  0  # atno 10763 bound_to 10752
  153.3680  135.3952  155.1767 H   0  0  0  0  0  0  0  0  0  0  0  0  # atno 10764 bound_to 10752
  154.8683  135.3805  154.4820 H   0  0  0  0  0  0  0  0  0  0  0  0  # atno 10765 bound_to 10752
  140.5396  134.5535  157.5096 H   0  0  0  0  0  0  0  0  0  0  0  0  # atno 11005 bound_to 11000
  146.2956  139.7269  142.9129 LP  0  0  0  0  0  0  0  0  0  0  0  0  # atno 17320 bound_to 7965
  145.4059  141.0391  143.3044 LP  0  0  0  0  0  0  0  0  0  0  0  0  # atno 17321 bound_to 7965
  140.7629  143.3209  151.2625 LP  0  0  0  0  0  0  0  0  0  0  0  0  # atno 17342 bound_to 10162
  139.6756  143.9943  152.2779 LP  0  0  0  0  0  0  0  0  0  0  0  0  # atno 17343 bound_to 10162
  156.8474  130.5069  149.5315 LP  0  0  0  0  0  0  0  0  0  0  0  0  # atno 17370 bound_to 10713
  156.0937  130.5915  150.9776 LP  0  0  0  0  0  0  0  0  0  0  0  0  # atno 17371 bound_to 10713
  139.9511  134.7616  156.0447 LP  0  0  0  0  0  0  0  0  0  0  0  0  # atno 17394 bound_to 11000
  141.1234  133.6606  156.3275 LP  0  0  0  0  0  0  0  0  0  0  0  0  # atno 17395 bound_to 11000

$$$$
