AV-unprocessed.smi:3146|AV-procd|sdf|11986|dock3
  -GOLD-   2272017393D 1   1.00000     0.00000
 Structure written by MMmdl.
 34 35  0  0  0  0  0  0  0  0  1 V2000
  151.1610  145.3329  159.1697 O   0  0  0  0  0  0  0  0  0  0  0  0
  151.7582  144.2635  159.0320 C   0  0  0  0  0  0  0  0  0  0  0  0
  151.9509  143.6662  157.6282 C   0  0  0  0  0  0  0  0  0  0  0  0
  150.6916  143.2450  157.0007 N   0  0  0  0  0  0  0  0  0  0  0  0
  150.4400  141.8338  157.2494 C   0  0  0  0  0  0  0  0  0  0  0  0
  151.5018  140.9895  156.5298 C   0  0  0  0  0  0  0  0  0  0  0  0
  150.8981  140.0164  155.6401 N   0  0  0  0  0  0  0  0  0  0  0  0
  149.6065  139.5329  155.6481 C   0  0  0  0  0  0  0  0  0  0  0  0
  149.5032  138.6340  154.6254 C   0  0  0  0  0  0  0  0  0  0  0  0
  150.8010  138.6362  154.0410 C   0  0  0  0  0  0  0  0  0  0  0  0
  151.6338  139.4641  154.6511 N   0  0  0  0  0  0  0  0  0  0  0  0
  152.2559  143.5825  160.0853 N   0  0  0  0  0  0  0  0  0  0  0  0
  152.9797  142.3186  159.9614 C   0  0  0  0  0  0  0  0  0  0  0  0
  153.5905  142.0548  161.3378 C   0  0  0  0  0  0  0  0  0  0  0  0
  152.6759  142.8005  162.2994 C   0  0  0  0  0  0  0  0  0  0  0  0
  152.1668  143.9917  161.4869 C   0  0  0  0  0  0  0  0  0  0  0  0
  152.4332  144.4133  156.9962 H   0  0  0  0  0  0  0  0  0  0  0  0
  152.6221  142.8089  157.6980 H   0  0  0  0  0  0  0  0  0  0  0  0
  149.9117  143.7902  157.3398 H   0  0  0  0  0  0  0  0  0  0  0  0
  150.4662  141.6368  158.3222 H   0  0  0  0  0  0  0  0  0  0  0  0
  149.4450  141.5667  156.8901 H   0  0  0  0  0  0  0  0  0  0  0  0
  152.1646  141.6280  155.9440 H   0  0  0  0  0  0  0  0  0  0  0  0
  152.1272  140.4610  157.2513 H   0  0  0  0  0  0  0  0  0  0  0  0
  148.8772  139.8642  156.3730 H   0  0  0  0  0  0  0  0  0  0  0  0
  148.6335  138.0621  154.3378 H   0  0  0  0  0  0  0  0  0  0  0  0
  151.1600  138.0644  153.1978 H   0  0  0  0  0  0  0  0  0  0  0  0
  152.2732  141.5302  159.6978 H   0  0  0  0  0  0  0  0  0  0  0  0
  153.7489  142.3575  159.1882 H   0  0  0  0  0  0  0  0  0  0  0  0
  153.6716  140.9921  161.5682 H   0  0  0  0  0  0  0  0  0  0  0  0
  154.5926  142.4838  161.3812 H   0  0  0  0  0  0  0  0  0  0  0  0
  151.8367  142.1601  162.5738 H   0  0  0  0  0  0  0  0  0  0  0  0
  153.1814  143.1003  163.2179 H   0  0  0  0  0  0  0  0  0  0  0  0
  152.8056  144.8617  161.6460 H   0  0  0  0  0  0  0  0  0  0  0  0
  151.1499  144.2560  161.7795 H   0  0  0  0  0  0  0  0  0  0  0  0
  1  2  2  0  0  0  0
  2  3  1  0  0  0  0
  2 12  1  0  0  0  0
  3  4  1  0  0  0  0
  3 17  1  0  0  0  0
  3 18  1  0  0  0  0
  4  5  1  0  0  0  0
  4 19  1  0  0  0  0
  5  6  1  0  0  0  0
  5 20  1  0  0  0  0
  5 21  1  0  0  0  0
  6  7  1  0  0  0  0
  6 22  1  0  0  0  0
  6 23  1  0  0  0  0
  7 11  1  0  0  0  0
  7  8  1  0  0  0  0
  8  9  2  0  0  0  0
  8 24  1  0  0  0  0
  9 10  1  0  0  0  0
  9 25  1  0  0  0  0
 10 11  2  0  0  0  0
 10 26  1  0  0  0  0
 12 16  1  0  0  0  0
 12 13  1  0  0  0  0
 13 14  1  0  0  0  0
 13 27  1  0  0  0  0
 13 28  1  0  0  0  0
 14 15  1  0  0  0  0
 14 29  1  0  0  0  0
 14 30  1  0  0  0  0
 15 16  1  0  0  0  0
 15 31  1  0  0  0  0
 15 32  1  0  0  0  0
 16 33  1  0  0  0  0
 16 34  1  0  0  0  0
M  END
> <s_m_source_file>
AV-unprocessed.smi

> <i_m_source_file_index>
3146

> <i_lp_mmshare_version>
43012

> <i_f3d_flags>
0

> <s_epik_input>
W0NIMl0xW0NIMl1bQ0gyXVtDSDJdTjFDKD1PKVtDSDJdW05IXVtDSDJdW0NIMl1uMltjSF1bY0hdW2NIXW4y

> <s_epik_cmdline>
J2VwaWtfcHl0aG9uJywgJy1waCcsICc3LjAnLCAnLXRuJywgJzgnLCAnLW1hJywgJzIwMCcsICctbWV0YWxfYmluZGluZycsICctaW1hZScsICc8aW5maWxlLm1hZT4nLCAnLW9tYWUnLCAnPG91dGZpbGUubWFlPic=

> <r_lp_tautomer_probability>
1

> <r_epik_Ionization_Penalty>
0.734549

> <r_epik_Ionization_Penalty_Charging>
0

> <r_epik_Ionization_Penalty_Neutral>
0.734549

> <r_epik_State_Penalty>
0.75825

> <r_epik_Charging_Adjusted_Penalty>
0.75825

> <i_epik_Tot_Q>
0

> <i_epik_Tot_abs_Q>
0

> <r_epik_Metal_State_Penalty>
0.757003

> <b_epik_Metal_Only>
0

> <s_lp_Force_Field>
OPLS_2005

> <r_lp_Energy>
29.6194

> <b_lp_Chiralities_Consistent>
1

> <s_lp_Variant>
AV-unprocessed.smi:3146-2

> <Gold.Version>
5.8.1

> <Gold.Id.Protein>
6NUR|6NUR_protein|mol2

> <Gold.PLP.Fitness>
46.2452

> <Gold.PLP.PLP>
-42.7787

> <Gold.PLP.part.hbond>
-2.2491

> <Gold.PLP.part.metal>
0.0000

> <Gold.PLP.part.buried>
-7.0633

> <Gold.PLP.part.nonpolar>
-34.2252

> <Gold.PLP.part.repulsive>
0.2166

> <Gold.PLP.ligand.clash>
0.0000

> <Gold.PLP.ligand.torsion>
0.9231

> <Gold.PLP.Chemscore.Hbond>
1.1318

> <Gold.PLP.Chemscore.CHOScore>
0.6364

> <Gold.PLP.Chemscore.Metal>
0.0000

> <Gold.Chemscore.Hbonds>
donor molecule, donor type, donor heavy atom, donor atom, acceptor molecule, acceptor atom, score
      L1  H     4    19       P1  8028  0.14
      P1  H  7989  7998       L1    11  0.95
      L1  C    10    26       P1  7949  0.62

> <Gold.PLP.Chemscore.Internal.Correction>
0.0082

> <Gold.Rescore>
     Score         DG    S(hbond)    S(metal)    S(lipo)     H(rot)  DE(clash)    DE(int)     intcor
     11.68     -12.99       0.48        0.00      90.36       1.82       0.60       0.71       ----

> <Gold.Chemscore.Fitness>
11.6781

> <Gold.Chemscore.DG>
-12.9915

> <Gold.Chemscore.ZeroCoef>
-5.4800

> <Gold.Chemscore.Hbond>
0.4820

> <Gold.Chemscore.Metal>
0.0000

> <Gold.Chemscore.Lipo>
90.3632

> <Gold.Chemscore.Internal_Hbond>
0.0000

> <Gold.Chemscore.DEClash>
0.5985

> <Gold.Chemscore.DEInternal>
0.7148

> <Gold.Chemscore.Rot>
1.8246

> <Gold.Chemscore.Internal.Correction>
   9.000000E+99

> <Gold.Chemscore.Hbonds>
donor molecule, donor type, donor heavy atom, donor atom, acceptor molecule, acceptor atom, score
      L1  H     4    19       P1  8028  0.11
      P1  H  7989  7998       L1    11  0.06

> <Gold.Chemscore.Hbond.Weighted>
-1.6100

> <Gold.Chemscore.Metal.Weighted>
-0.0000

> <Gold.Chemscore.Lipo.Weighted>
-10.5725

> <Gold.Chemscore.Internal_Hbond.Weighted>
0.0000

> <Gold.Chemscore.DEClash.Weighted>
0.5985

> <Gold.Chemscore.DEInternal.Weighted>
0.7148

> <Gold.Chemscore.Rot.Weighted>
4.6710

> <Gold.Chemscore.Internal.Correction.Weighted>
   9.000000E+99

> <Gold.Protein.RotatedTorsions>
[ 6907 6896 6895 6894 ] final   -0.34 input  -60.11 | X-H torsion
[ 7974 7965 7964 7962 ] final -151.62 input  175.53 | X-H torsion
[ 8008 7997 7996 7995 ] final  101.08 input   59.86 | X-H torsion
[ 10167 10162 10161 10158 ] final    7.99 input  -65.29 | X-H torsion
[ 10718 10713 10712 10709 ] final  100.13 input   66.30 | X-H torsion
[ 10763 10752 10751 10750 ] final  -17.10 input  -60.55 | X-H torsion
[ 11005 11000 10999 10996 ] final -102.05 input  -57.11 | X-H torsion

> <Gold.Protein.ActiveResidues>
 VAL166  LYS551  ARG553  GLY616  TRP617  ASP618  TYR619  PRO620  LYS621  CYS622 
 ASP623  PHE694  ASN695  SER759  ASP760  ASP761  ALA762  ILE779  LEU786  VAL792 
 PHE793  MET794  SER795  GLU796  ALA797  LYS798  CYS799  TRP800  GLU811  SER814 

> <Gold.Protein.RotatedAtoms>
  151.5638  135.1064  159.9978 H   0  0  0  0  0  0  0  0  0  0  0  0  # atno 6907 bound_to 6896
  152.4434  133.7486  159.6692 H   0  0  0  0  0  0  0  0  0  0  0  0  # atno 6908 bound_to 6896
  150.8344  133.7970  159.3109 H   0  0  0  0  0  0  0  0  0  0  0  0  # atno 6909 bound_to 6896
  144.7840  140.4773  143.5819 H   0  0  0  0  0  0  0  0  0  0  0  0  # atno 7974 bound_to 7965
  156.1265  140.3203  155.8284 H   0  0  0  0  0  0  0  0  0  0  0  0  # atno 8008 bound_to 7997
  155.4411  140.0525  157.3027 H   0  0  0  0  0  0  0  0  0  0  0  0  # atno 8009 bound_to 7997
  154.4866  140.2075  155.9655 H   0  0  0  0  0  0  0  0  0  0  0  0  # atno 8010 bound_to 7997
  140.6340  143.7929  150.7334 H   0  0  0  0  0  0  0  0  0  0  0  0  # atno 10167 bound_to 10162
  157.6861  131.0689  150.5053 H   0  0  0  0  0  0  0  0  0  0  0  0  # atno 10718 bound_to 10713
  153.5688  135.7008  153.5514 H   0  0  0  0  0  0  0  0  0  0  0  0  # atno 10763 bound_to 10752
  153.3363  135.4033  155.1536 H   0  0  0  0  0  0  0  0  0  0  0  0  # atno 10764 bound_to 10752
  154.8636  135.3731  154.5209 H   0  0  0  0  0  0  0  0  0  0  0  0  # atno 10765 bound_to 10752
  141.1205  133.8527  157.1310 H   0  0  0  0  0  0  0  0  0  0  0  0  # atno 11005 bound_to 11000
  145.5973  139.1500  143.3149 LP  0  0  0  0  0  0  0  0  0  0  0  0  # atno 17320 bound_to 7965
  146.2062  140.6096  142.9080 LP  0  0  0  0  0  0  0  0  0  0  0  0  # atno 17321 bound_to 7965
  140.1546  143.4328  152.2108 LP  0  0  0  0  0  0  0  0  0  0  0  0  # atno 17342 bound_to 10162
  139.5552  144.7367  151.4317 LP  0  0  0  0  0  0  0  0  0  0  0  0  # atno 17343 bound_to 10162
  156.5373  130.4199  149.6171 LP  0  0  0  0  0  0  0  0  0  0  0  0  # atno 17370 bound_to 10713
  156.3016  130.7180  151.2053 LP  0  0  0  0  0  0  0  0  0  0  0  0  # atno 17371 bound_to 10713
  140.0159  134.9967  157.0493 LP  0  0  0  0  0  0  0  0  0  0  0  0  # atno 17394 bound_to 11000
  140.4520  134.1572  155.7182 LP  0  0  0  0  0  0  0  0  0  0  0  0  # atno 17395 bound_to 11000

$$$$
