AV-unprocessed.smi:2832|AV-procd|sdf|10912|dock1
  -GOLD-   2272015363D 1   1.00000     0.00000
 Structure written by MMmdl.
 33 33  0  0  0  0  0  0  0  0  2 V2000
  147.8736  140.5565  153.8088 C   0  0  0  0  0  0  0  0  0  0  0  0
  149.2757  140.4314  154.4141 C   0  0  0  0  0  0  0  0  0  0  0  0
  149.6122  138.9774  154.8172 C   0  0  0  0  0  0  0  0  0  0  0  0
  150.8881  138.7533  155.6908 C   0  0  1  0  0  0  0  0  0  0  0  0
  152.1354  139.1801  154.8834 C   0  0  0  0  0  0  0  0  0  0  0  0
  150.9161  139.5049  156.9582 N   0  0  0  0  0  0  0  0  0  0  0  0
  151.9436  139.9054  157.7297 C   0  0  0  0  0  0  0  0  0  0  0  0
  153.1200  139.5945  157.5474 O   0  0  0  0  0  0  0  0  0  0  0  0
  151.5777  140.7954  158.9186 C   0  0  0  0  0  0  0  0  0  0  0  0
  151.8198  142.1976  158.6249 N   0  0  0  0  0  0  0  0  0  0  0  0
  152.6679  143.0749  159.2690 C   0  0  0  0  0  0  0  0  0  0  0  0
  152.5566  144.2829  158.6421 C   0  0  0  0  0  0  0  0  0  0  0  0
  151.6058  144.0418  157.6112 C   0  0  0  0  0  0  0  0  0  0  0  0
  151.1688  142.7930  157.6015 N   0  0  0  0  0  0  0  0  0  0  0  0
  150.9662  137.2453  156.0391 C   0  0  0  0  0  0  0  0  0  0  0  0
  151.9554  136.5987  155.6272 O   0  0  0  0  0  0  0  0  0  0  0  0
  150.0288  136.7482  156.7044 O   0  5  0  0  0  0  0  0  0  0  0  0
  147.6542  141.5925  153.5501 H   0  0  0  0  0  0  0  0  0  0  0  0
  147.1103  140.2195  154.5106 H   0  0  0  0  0  0  0  0  0  0  0  0
  147.7835  139.9602  152.9005 H   0  0  0  0  0  0  0  0  0  0  0  0
  150.0018  140.8113  153.6969 H   0  0  0  0  0  0  0  0  0  0  0  0
  149.3363  141.0865  155.2831 H   0  0  0  0  0  0  0  0  0  0  0  0
  148.7505  138.5778  155.3548 H   0  0  0  0  0  0  0  0  0  0  0  0
  149.6730  138.3615  153.9202 H   0  0  0  0  0  0  0  0  0  0  0  0
  152.1852  138.6813  153.9147 H   0  0  0  0  0  0  0  0  0  0  0  0
  153.0583  138.9545  155.4201 H   0  0  0  0  0  0  0  0  0  0  0  0
  152.1271  140.2533  154.6897 H   0  0  0  0  0  0  0  0  0  0  0  0
  150.0072  139.8344  157.2511 H   0  0  0  0  0  0  0  0  0  0  0  0
  150.5239  140.6700  159.1704 H   0  0  0  0  0  0  0  0  0  0  0  0
  152.1559  140.4956  159.7944 H   0  0  0  0  0  0  0  0  0  0  0  0
  153.2694  142.7690  160.1124 H   0  0  0  0  0  0  0  0  0  0  0  0
  153.0742  145.1992  158.8836 H   0  0  0  0  0  0  0  0  0  0  0  0
  151.2231  144.7319  156.8738 H   0  0  0  0  0  0  0  0  0  0  0  0
  1  2  1  0  0  0  0
  1 18  1  0  0  0  0
  1 19  1  0  0  0  0
  1 20  1  0  0  0  0
  2  3  1  0  0  0  0
  2 21  1  0  0  0  0
  2 22  1  0  0  0  0
  3  4  1  0  0  0  0
  3 23  1  0  0  0  0
  3 24  1  0  0  0  0
  4  5  1  0  0  0  0
  4  6  1  0  0  0  0
  4 15  1  0  0  0  0
  5 25  1  0  0  0  0
  5 26  1  0  0  0  0
  5 27  1  0  0  0  0
  6  7  1  0  0  0  0
  6 28  1  0  0  0  0
  7  8  2  0  0  0  0
  7  9  1  0  0  0  0
  9 10  1  0  0  0  0
  9 29  1  0  0  0  0
  9 30  1  0  0  0  0
 10 14  1  0  0  0  0
 10 11  1  0  0  0  0
 11 12  2  0  0  0  0
 11 31  1  0  0  0  0
 12 13  1  0  0  0  0
 12 32  1  0  0  0  0
 13 14  2  0  0  0  0
 13 33  1  0  0  0  0
 15 16  2  0  0  0  0
 15 17  1  0  0  0  0
M  CHG  1  17  -1
M  END
> <s_m_source_file>
AV-unprocessed.smi

> <i_m_source_file_index>
2832

> <i_lp_mmshare_version>
43012

> <i_f3d_flags>
0

> <s_epik_input>
W0NIM11bQ0gyXVtDSDJdW0NAXShbQ0gzXSkoQyg9TylbT0hdKVtOSF1DKD1PKVtDSDJdbjFbY0hdW2NIXVtjSF1uMQ==

> <s_epik_cmdline>
J2VwaWtfcHl0aG9uJywgJy1waCcsICc3LjAnLCAnLXRuJywgJzgnLCAnLW1hJywgJzIwMCcsICctbWV0YWxfYmluZGluZycsICctaW1hZScsICc8aW5maWxlLm1hZT4nLCAnLW9tYWUnLCAnPG91dGZpbGUubWFlPic=

> <r_lp_tautomer_probability>
1

> <r_epik_Ionization_Penalty>
0.000287256

> <r_epik_Ionization_Penalty_Charging>
0.00026921

> <r_epik_Ionization_Penalty_Neutral>
1.80463e-05

> <r_epik_State_Penalty>
-0

> <r_epik_Charging_Adjusted_Penalty>
0.00026921

> <i_epik_Tot_Q>
-1

> <i_epik_Tot_abs_Q>
1

> <r_epik_Metal_State_Penalty>
-0

> <b_epik_Metal_Only>
0

> <s_lp_Force_Field>
OPLS_2005

> <r_lp_Energy>
4.0175

> <b_lp_Chiralities_Consistent>
1

> <s_lp_Variant>
AV-unprocessed.smi:2832-1

> <Gold.Version>
5.8.1

> <Gold.Id.Protein>
6NUR|6NUR_protein|mol2

> <Gold.PLP.Fitness>
42.6495

> <Gold.PLP.PLP>
-32.3347

> <Gold.PLP.part.hbond>
-2.0000

> <Gold.PLP.part.metal>
0.0000

> <Gold.PLP.part.buried>
-1.9908

> <Gold.PLP.part.nonpolar>
-28.9285

> <Gold.PLP.part.repulsive>
0.1823

> <Gold.PLP.ligand.clash>
0.0000

> <Gold.PLP.ligand.torsion>
0.8622

> <Gold.PLP.Chemscore.Hbond>
3.0000

> <Gold.PLP.Chemscore.CHOScore>
0.9935

> <Gold.PLP.Chemscore.Metal>
0.0000

> <Gold.Chemscore.Hbonds>
donor molecule, donor type, donor heavy atom, donor atom, acceptor molecule, acceptor atom, score
      P1  H  7997  8008       L1     8  1.00
      P1  H 10752 10763       L1    16  2.00
      L1  C    13    33       P1  8028  0.84

> <Gold.PLP.Chemscore.Internal.Correction>
0.0586

> <Gold.Rescore>
     Score         DG    S(hbond)    S(metal)    S(lipo)     H(rot)  DE(clash)    DE(int)     intcor
     13.10     -15.16       2.00        0.00      79.77       2.47       0.01       2.04       ----

> <Gold.Chemscore.Fitness>
13.0962

> <Gold.Chemscore.DG>
-15.1558

> <Gold.Chemscore.ZeroCoef>
-5.4800

> <Gold.Chemscore.Hbond>
1.9978

> <Gold.Chemscore.Metal>
0.0000

> <Gold.Chemscore.Lipo>
79.7681

> <Gold.Chemscore.Internal_Hbond>
0.0000

> <Gold.Chemscore.DEClash>
0.0147

> <Gold.Chemscore.DEInternal>
2.0448

> <Gold.Chemscore.Rot>
2.4726

> <Gold.Chemscore.Internal.Correction>
   9.000000E+99

> <Gold.Chemscore.Hbonds>
donor molecule, donor type, donor heavy atom, donor atom, acceptor molecule, acceptor atom, score
      P1  H  7997  8008       L1     8  0.98
      P1  H 10752 10763       L1    16  0.96

> <Gold.Chemscore.Hbond.Weighted>
-6.6726

> <Gold.Chemscore.Metal.Weighted>
-0.0000

> <Gold.Chemscore.Lipo.Weighted>
-9.3329

> <Gold.Chemscore.Internal_Hbond.Weighted>
0.0000

> <Gold.Chemscore.DEClash.Weighted>
0.0147

> <Gold.Chemscore.DEInternal.Weighted>
2.0448

> <Gold.Chemscore.Rot.Weighted>
6.3297

> <Gold.Chemscore.Internal.Correction.Weighted>
   9.000000E+99

> <Gold.Protein.RotatedTorsions>
[ 6907 6896 6895 6894 ] final   -0.58 input  -60.11 | X-H torsion
[ 7974 7965 7964 7962 ] final -170.21 input  175.53 | X-H torsion
[ 8008 7997 7996 7995 ] final  -69.89 input   59.86 | X-H torsion
[ 10167 10162 10161 10158 ] final -175.65 input  -65.29 | X-H torsion
[ 10718 10713 10712 10709 ] final   -0.37 input   66.30 | X-H torsion
[ 10763 10752 10751 10750 ] final   89.98 input  -60.55 | X-H torsion
[ 11005 11000 10999 10996 ] final   32.42 input  -57.11 | X-H torsion

> <Gold.Protein.ActiveResidues>
 VAL166  LYS551  ARG553  GLY616  TRP617  ASP618  TYR619  PRO620  LYS621  CYS622 
 ASP623  PHE694  ASN695  SER759  ASP760  ASP761  ALA762  ILE779  LEU786  VAL792 
 PHE793  MET794  SER795  GLU796  ALA797  LYS798  CYS799  TRP800  GLU811  SER814 

> <Gold.Protein.RotatedAtoms>
  151.5600  135.1065  159.9969 H   0  0  0  0  0  0  0  0  0  0  0  0  # atno 6907 bound_to 6896
  152.4451  133.7517  159.6708 H   0  0  0  0  0  0  0  0  0  0  0  0  # atno 6908 bound_to 6896
  150.8365  133.7937  159.3101 H   0  0  0  0  0  0  0  0  0  0  0  0  # atno 6909 bound_to 6896
  144.7173  140.2106  143.6328 H   0  0  0  0  0  0  0  0  0  0  0  0  # atno 7974 bound_to 7965
  154.4972  140.0845  156.7721 H   0  0  0  0  0  0  0  0  0  0  0  0  # atno 8008 bound_to 7997
  155.4089  140.3440  155.4244 H   0  0  0  0  0  0  0  0  0  0  0  0  # atno 8009 bound_to 7997
  156.1409  140.1529  156.8910 H   0  0  0  0  0  0  0  0  0  0  0  0  # atno 8010 bound_to 7997
  139.5570  144.1965  152.1176 H   0  0  0  0  0  0  0  0  0  0  0  0  # atno 10167 bound_to 10162
  156.8214  130.5457  149.5697 H   0  0  0  0  0  0  0  0  0  0  0  0  # atno 10718 bound_to 10713
  153.1927  135.4450  155.0170 H   0  0  0  0  0  0  0  0  0  0  0  0  # atno 10763 bound_to 10752
  154.8100  135.3290  154.7332 H   0  0  0  0  0  0  0  0  0  0  0  0  # atno 10764 bound_to 10752
  153.7785  135.6979  153.4948 H   0  0  0  0  0  0  0  0  0  0  0  0  # atno 10765 bound_to 10752
  140.2736  134.3053  155.7820 H   0  0  0  0  0  0  0  0  0  0  0  0  # atno 11005 bound_to 11000
  145.8595  139.2215  143.1725 LP  0  0  0  0  0  0  0  0  0  0  0  0  # atno 17320 bound_to 7965
  146.0187  140.8368  142.9934 LP  0  0  0  0  0  0  0  0  0  0  0  0  # atno 17321 bound_to 7965
  140.1471  144.5149  150.6709 LP  0  0  0  0  0  0  0  0  0  0  0  0  # atno 17342 bound_to 10162
  140.6844  143.2342  151.5299 LP  0  0  0  0  0  0  0  0  0  0  0  0  # atno 17343 bound_to 10162
  156.0987  130.5952  150.9857 LP  0  0  0  0  0  0  0  0  0  0  0  0  # atno 17370 bound_to 10713
  157.6455  131.0904  150.8163 LP  0  0  0  0  0  0  0  0  0  0  0  0  # atno 17371 bound_to 10713
  141.2173  133.7482  156.9373 LP  0  0  0  0  0  0  0  0  0  0  0  0  # atno 17394 bound_to 11000
  140.1349  134.9331  157.2388 LP  0  0  0  0  0  0  0  0  0  0  0  0  # atno 17395 bound_to 11000

$$$$
