AV-unprocessed.smi:224|AV-procd|sdf|1718|dock8
  -GOLD-   2262020193D 1   1.00000     0.00000
 Structure written by MMmdl.
 56 59  0  0  0  0  0  0  0  0  2 V2000
  145.7413  131.8759  151.7576 C   0  0  0  0  0  0  0  0  0  0  0  0
  145.6722  132.6101  150.4102 C   0  0  1  0  0  0  0  0  0  0  0  0
  146.2408  131.7750  149.4238 O   0  0  0  0  0  0  0  0  0  0  0  0
  144.2295  132.9530  149.9831 C   0  0  0  0  0  0  0  0  0  0  0  0
  143.5852  133.9641  150.8705 N   0  3  1  0  0  0  0  0  0  0  0  0
  142.8381  133.3076  151.9819 C   0  0  0  0  0  0  0  0  0  0  0  0
  142.1380  134.3249  152.8972 C   0  0  0  0  0  0  0  0  0  0  0  0
  143.0761  135.3344  153.3727 N   0  0  0  0  0  0  0  0  0  0  0  0
  143.7749  135.1169  154.5192 C   0  0  0  0  0  0  0  0  0  0  0  0
  143.1106  134.8601  155.6777 N   0  0  0  0  0  0  0  0  0  0  0  0
  143.7827  134.6396  156.8110 C   0  0  0  0  0  0  0  0  0  0  0  0
  145.1011  134.6357  157.0103 N   0  0  0  0  0  0  0  0  0  0  0  0
  145.7765  134.9071  155.8574 C   0  0  0  0  0  0  0  0  0  0  0  0
  145.1979  135.1534  154.5797 C   0  0  0  0  0  0  0  0  0  0  0  0
  146.2010  135.3991  153.6492 N   0  0  0  0  0  0  0  0  0  0  0  0
  147.3067  135.2978  154.3351 C   0  0  0  0  0  0  0  0  0  0  0  0
  147.1437  135.0134  155.6717 N   0  0  0  0  0  0  0  0  0  0  0  0
  148.1984  134.8615  156.6625 C   0  0  0  0  0  0  0  0  0  0  0  0
  149.1837  133.7152  156.3352 C   0  0  1  0  0  0  0  0  0  0  0  0
  150.1544  133.6370  157.3653 O   0  0  0  0  0  0  0  0  0  0  0  0
  148.5256  132.3470  156.1857 C   0  0  0  0  0  0  0  0  0  0  0  0
  149.4248  131.6493  155.1752 C   0  0  0  0  0  0  0  0  0  0  0  0
  149.7293  132.6890  154.2609 O   0  0  0  0  0  0  0  0  0  0  0  0
  149.9144  133.8989  154.9900 C   0  0  0  0  0  0  0  0  0  0  0  0
  143.7773  136.0228  152.2969 C   0  0  0  0  0  0  0  0  0  0  0  0
  144.5129  135.0350  151.3622 C   0  0  2  0  0  0  0  0  0  0  0  0
  145.1544  135.8491  150.2193 C   0  0  0  0  0  0  0  0  0  0  0  0
  145.3521  132.4956  152.5658 H   0  0  0  0  0  0  0  0  0  0  0  0
  146.7702  131.6187  152.0118 H   0  0  0  0  0  0  0  0  0  0  0  0
  145.1622  130.9519  151.7390 H   0  0  0  0  0  0  0  0  0  0  0  0
  146.2910  133.5051  150.4534 H   0  0  0  0  0  0  0  0  0  0  0  0
  147.0665  131.4433  149.7426 H   0  0  0  0  0  0  0  0  0  0  0  0
  144.2117  133.3188  148.9549 H   0  0  0  0  0  0  0  0  0  0  0  0
  143.6735  132.0192  149.9698 H   0  0  0  0  0  0  0  0  0  0  0  0
  142.0833  132.6281  151.5899 H   0  0  0  0  0  0  0  0  0  0  0  0
  143.5293  132.6976  152.5649 H   0  0  0  0  0  0  0  0  0  0  0  0
  141.3472  134.8316  152.3429 H   0  0  0  0  0  0  0  0  0  0  0  0
  141.6466  133.8225  153.7317 H   0  0  0  0  0  0  0  0  0  0  0  0
  143.1781  134.4380  157.6830 H   0  0  0  0  0  0  0  0  0  0  0  0
  148.2787  135.4391  153.8847 H   0  0  0  0  0  0  0  0  0  0  0  0
  148.7347  135.8081  156.7391 H   0  0  0  0  0  0  0  0  0  0  0  0
  147.7344  134.6947  157.6356 H   0  0  0  0  0  0  0  0  0  0  0  0
  150.9629  133.3219  156.9909 H   0  0  0  0  0  0  0  0  0  0  0  0
  148.4219  131.8005  157.1241 H   0  0  0  0  0  0  0  0  0  0  0  0
  147.5313  132.4516  155.7506 H   0  0  0  0  0  0  0  0  0  0  0  0
  150.3415  131.2903  155.6455 H   0  0  0  0  0  0  0  0  0  0  0  0
  148.9355  130.8091  154.6822 H   0  0  0  0  0  0  0  0  0  0  0  0
  149.5064  134.7254  154.4072 H   0  0  0  0  0  0  0  0  0  0  0  0
  150.9808  134.0900  155.1227 H   0  0  0  0  0  0  0  0  0  0  0  0
  143.0410  136.5922  151.7280 H   0  0  0  0  0  0  0  0  0  0  0  0
  144.4852  136.7540  152.6847 H   0  0  0  0  0  0  0  0  0  0  0  0
  145.3085  134.5539  151.9339 H   0  0  0  0  0  0  0  0  0  0  0  0
  145.6756  136.7229  150.6124 H   0  0  0  0  0  0  0  0  0  0  0  0
  144.4022  136.2077  149.5157 H   0  0  0  0  0  0  0  0  0  0  0  0
  145.9007  135.2846  149.6628 H   0  0  0  0  0  0  0  0  0  0  0  0
  142.8981  134.4416  150.3052 H   0  0  0  0  0  0  0  0  0  0  0  0
  1  2  1  0  0  0  0
  1 28  1  0  0  0  0
  1 29  1  0  0  0  0
  1 30  1  0  0  0  0
  2  3  1  0  0  0  0
  2  4  1  0  0  0  0
  2 31  1  0  0  0  0
  3 32  1  0  0  0  0
  4  5  1  0  0  0  0
  4 33  1  0  0  0  0
  4 34  1  0  0  0  0
  5 26  1  0  0  0  0
  5  6  1  0  0  0  0
  5 56  1  0  0  0  0
  6  7  1  0  0  0  0
  6 35  1  0  0  0  0
  6 36  1  0  0  0  0
  7  8  1  0  0  0  0
  7 37  1  0  0  0  0
  7 38  1  0  0  0  0
  8  9  1  0  0  0  0
  8 25  1  0  0  0  0
  9 14  1  0  0  0  0
  9 10  2  0  0  0  0
 10 11  1  0  0  0  0
 11 12  2  0  0  0  0
 11 39  1  0  0  0  0
 12 13  1  0  0  0  0
 13 17  1  0  0  0  0
 13 14  2  0  0  0  0
 14 15  1  0  0  0  0
 15 16  2  0  0  0  0
 16 17  1  0  0  0  0
 16 40  1  0  0  0  0
 17 18  1  0  0  0  0
 18 19  1  0  0  0  0
 18 41  1  0  0  0  0
 18 42  1  0  0  0  0
 19 24  1  0  0  0  0
 19 20  1  0  0  0  0
 19 21  1  0  0  0  0
 20 43  1  0  0  0  0
 21 22  1  0  0  0  0
 21 44  1  0  0  0  0
 21 45  1  0  0  0  0
 22 23  1  0  0  0  0
 22 46  1  0  0  0  0
 22 47  1  0  0  0  0
 23 24  1  0  0  0  0
 24 48  1  0  0  0  0
 24 49  1  0  0  0  0
 25 26  1  0  0  0  0
 25 50  1  0  0  0  0
 25 51  1  0  0  0  0
 26 27  1  0  0  0  0
 26 52  1  0  0  0  0
 27 53  1  0  0  0  0
 27 54  1  0  0  0  0
 27 55  1  0  0  0  0
M  CHG  1   5   1
M  END
> <s_m_source_file>
AV-unprocessed.smi

> <i_m_source_file_index>
224

> <i_lp_mmshare_version>
43012

> <i_f3d_flags>
0

> <s_epik_input>
W0NIM11bQ0BIXShbT0hdKVtDSDJdTjFbQ0gyXVtDSDJdTihbQ0gyXVtDQEhdMVtDSDNdKWMobltjSF1uMiljKGMyMyluW2NIXW4zW0NIMl1bQ0BAXTQoW09IXSlbQ0gyXVtDSDJdT1tDSDJdNA==

> <s_epik_cmdline>
J2VwaWtfcHl0aG9uJywgJy1waCcsICc3LjAnLCAnLXRuJywgJzgnLCAnLW1hJywgJzIwMCcsICctbWV0YWxfYmluZGluZycsICctaW1hZScsICc8aW5maWxlLm1hZT4nLCAnLW9tYWUnLCAnPG91dGZpbGUubWFlPic=

> <r_lp_tautomer_probability>
1

> <r_epik_Ionization_Penalty>
0.00516958

> <r_epik_Ionization_Penalty_Charging>
0.00509693

> <r_epik_Ionization_Penalty_Neutral>
7.26542e-05

> <r_epik_State_Penalty>
-0

> <r_epik_Charging_Adjusted_Penalty>
0.00509693

> <i_epik_Tot_Q>
1

> <i_epik_Tot_abs_Q>
1

> <r_epik_Metal_State_Penalty>
-0

> <b_epik_Metal_Only>
0

> <s_lp_Force_Field>
OPLS_2005

> <r_lp_Energy>
49.0033

> <b_lp_Chiralities_Consistent>
1

> <s_lp_Variant>
AV-unprocessed.smi:224-12

> <Gold.Version>
5.8.1

> <Gold.Id.Protein>
6NUR|6NUR_protein|mol2

> <Gold.PLP.Fitness>
42.3223

> <Gold.PLP.PLP>
-28.7087

> <Gold.PLP.part.hbond>
-4.0000

> <Gold.PLP.part.metal>
0.0000

> <Gold.PLP.part.buried>
-0.7811

> <Gold.PLP.part.nonpolar>
-24.9936

> <Gold.PLP.part.repulsive>
0.4123

> <Gold.PLP.ligand.clash>
0.0000

> <Gold.PLP.ligand.torsion>
0.6325

> <Gold.PLP.Chemscore.Hbond>
3.7905

> <Gold.PLP.Chemscore.CHOScore>
1.0000

> <Gold.PLP.Chemscore.Metal>
0.0000

> <Gold.Chemscore.Hbonds>
donor molecule, donor type, donor heavy atom, donor atom, acceptor molecule, acceptor atom, score
      L1  H     3    32       P1 10747  0.96
      L1  H     5    56       P1 10186  1.89
      P1  H  6896  6907       L1    20  0.90
      L1  C    16    40       P1  7948  1.00

> <Gold.PLP.Chemscore.Internal.Correction>
0.5071

> <Gold.Rescore>
     Score         DG    S(hbond)    S(metal)    S(lipo)     H(rot)  DE(clash)    DE(int)     intcor
      7.30     -12.05       1.80        0.00      78.35       3.36       1.51       3.24       ----

> <Gold.Chemscore.Fitness>
7.3006

> <Gold.Chemscore.DG>
-12.0491

> <Gold.Chemscore.ZeroCoef>
-5.4800

> <Gold.Chemscore.Hbond>
1.7984

> <Gold.Chemscore.Metal>
0.0000

> <Gold.Chemscore.Lipo>
78.3485

> <Gold.Chemscore.Internal_Hbond>
0.0000

> <Gold.Chemscore.DEClash>
1.5099

> <Gold.Chemscore.DEInternal>
3.2386

> <Gold.Chemscore.Rot>
3.3611

> <Gold.Chemscore.Internal.Correction>
   9.000000E+99

> <Gold.Chemscore.Hbonds>
donor molecule, donor type, donor heavy atom, donor atom, acceptor molecule, acceptor atom, score
      L1  H     3    32       P1 10747  0.90
      L1  H     5    56       P1 10186  0.63
      P1  H  6896  6907       L1    20  0.19

> <Gold.Chemscore.Hbond.Weighted>
-6.0068

> <Gold.Chemscore.Metal.Weighted>
-0.0000

> <Gold.Chemscore.Lipo.Weighted>
-9.1668

> <Gold.Chemscore.Internal_Hbond.Weighted>
0.0000

> <Gold.Chemscore.DEClash.Weighted>
1.5099

> <Gold.Chemscore.DEInternal.Weighted>
3.2386

> <Gold.Chemscore.Rot.Weighted>
8.6045

> <Gold.Chemscore.Internal.Correction.Weighted>
   9.000000E+99

> <Gold.Protein.RotatedTorsions>
[ 6907 6896 6895 6894 ] final -112.66 input  -60.11 | X-H torsion
[ 7974 7965 7964 7962 ] final   12.33 input  175.53 | X-H torsion
[ 8008 7997 7996 7995 ] final  -83.48 input   59.86 | X-H torsion
[ 10167 10162 10161 10158 ] final   36.34 input  -65.29 | X-H torsion
[ 10718 10713 10712 10709 ] final  126.09 input   66.30 | X-H torsion
[ 10763 10752 10751 10750 ] final  140.20 input  -60.55 | X-H torsion
[ 11005 11000 10999 10996 ] final -177.20 input  -57.11 | X-H torsion

> <Gold.Protein.ActiveResidues>
 VAL166  LYS551  ARG553  GLY616  TRP617  ASP618  TYR619  PRO620  LYS621  CYS622 
 ASP623  PHE694  ASN695  SER759  ASP760  ASP761  ALA762  ILE779  LEU786  VAL792 
 PHE793  MET794  SER795  GLU796  ALA797  LYS798  CYS799  TRP800  GLU811  SER814 

> <Gold.Protein.RotatedAtoms>
  150.7774  133.9058  159.3354 H   0  0  0  0  0  0  0  0  0  0  0  0  # atno 6907 bound_to 6896
  151.6929  135.0941  160.0246 H   0  0  0  0  0  0  0  0  0  0  0  0  # atno 6908 bound_to 6896
  152.3814  133.6513  159.6200 H   0  0  0  0  0  0  0  0  0  0  0  0  # atno 6909 bound_to 6896
  146.2353  139.9353  142.8490 H   0  0  0  0  0  0  0  0  0  0  0  0  # atno 7974 bound_to 7965
  154.6196  140.0618  156.9597 H   0  0  0  0  0  0  0  0  0  0  0  0  # atno 8008 bound_to 7997
  155.1840  140.3301  155.4351 H   0  0  0  0  0  0  0  0  0  0  0  0  # atno 8009 bound_to 7997
  156.2424  140.1892  156.6934 H   0  0  0  0  0  0  0  0  0  0  0  0  # atno 8010 bound_to 7997
  140.4137  144.1557  150.6141 H   0  0  0  0  0  0  0  0  0  0  0  0  # atno 10167 bound_to 10162
  157.5448  131.1096  150.8799 H   0  0  0  0  0  0  0  0  0  0  0  0  # atno 10718 bound_to 10713
  153.9188  135.3003  155.3448 H   0  0  0  0  0  0  0  0  0  0  0  0  # atno 10763 bound_to 10752
  154.7586  135.4945  153.9424 H   0  0  0  0  0  0  0  0  0  0  0  0  # atno 10764 bound_to 10752
  153.1153  135.6769  153.9532 H   0  0  0  0  0  0  0  0  0  0  0  0  # atno 10765 bound_to 10752
  140.4436  134.6408  157.4769 H   0  0  0  0  0  0  0  0  0  0  0  0  # atno 11005 bound_to 11000
  145.2005  140.9852  143.4158 LP  0  0  0  0  0  0  0  0  0  0  0  0  # atno 17320 bound_to 7965
  144.9778  139.3814  143.6277 LP  0  0  0  0  0  0  0  0  0  0  0  0  # atno 17321 bound_to 7965
  140.4610  143.2449  151.9219 LP  0  0  0  0  0  0  0  0  0  0  0  0  # atno 17342 bound_to 10162
  139.4782  144.5467  151.8447 LP  0  0  0  0  0  0  0  0  0  0  0  0  # atno 17343 bound_to 10162
  156.9341  130.5360  149.5279 LP  0  0  0  0  0  0  0  0  0  0  0  0  # atno 17370 bound_to 10713
  156.0527  130.5593  150.9023 LP  0  0  0  0  0  0  0  0  0  0  0  0  # atno 17371 bound_to 10713
  140.0053  134.6773  155.9465 LP  0  0  0  0  0  0  0  0  0  0  0  0  # atno 17394 bound_to 11000
  141.1695  133.6537  156.4599 LP  0  0  0  0  0  0  0  0  0  0  0  0  # atno 17395 bound_to 11000

$$$$
