AV-unprocessed.smi:2524|AV-procd|sdf|9925|dock8
  -GOLD-   2272013563D 1   1.00000     0.00000
 Structure written by MMmdl.
 36 37  0  0  0  0  0  0  0  0  3 V2000
  152.0878  144.9953  158.9696 C   0  0  0  0  0  0  0  0  0  0  0  0
  152.2288  144.1366  159.9904 C   0  0  0  0  0  0  0  0  0  0  0  0
  152.2500  142.6293  159.8460 C   0  0  0  0  0  0  0  0  0  0  0  0
  152.0682  142.1927  158.3873 C   0  0  0  0  0  0  0  0  0  0  0  0
  152.2949  140.3663  158.2079 S   0  0  0  0  0  0  0  0  0  0  0  0
  153.6532  140.0691  158.6936 O   0  0  0  0  0  0  0  0  0  0  0  0
  151.1832  139.7655  158.9603 O   0  0  0  0  0  0  0  0  0  0  0  0
  152.1043  140.1517  156.6078 N   0  5  0  0  0  0  0  0  0  0  0  0
  150.8644  140.5251  155.9377 C   0  0  0  0  0  0  0  0  0  0  0  0
  150.3602  139.4369  154.9669 C   0  0  0  0  0  0  0  0  0  0  0  0
  148.9944  139.7971  154.4285 C   0  0  0  0  0  0  0  0  0  0  0  0
  148.6048  141.1502  154.2722 C   0  0  0  0  0  0  0  0  0  0  0  0
  147.3204  141.4573  153.7797 C   0  0  0  0  0  0  0  0  0  0  0  0
  146.4651  140.4609  153.4661 N   0  3  0  0  0  0  0  0  0  0  0  0
  146.7834  139.1563  153.6042 C   0  0  0  0  0  0  0  0  0  0  0  0
  148.0548  138.7919  154.0915 C   0  0  0  0  0  0  0  0  0  0  0  0
  151.3068  138.6816  154.0447 C   0  0  0  0  0  0  0  0  0  0  0  0
  150.6534  137.9621  155.2003 C   0  0  0  0  0  0  0  0  0  0  0  0
  151.9768  144.6457  157.9537 H   0  0  0  0  0  0  0  0  0  0  0  0
  152.0810  146.0619  159.1386 H   0  0  0  0  0  0  0  0  0  0  0  0
  152.3376  144.5223  160.9935 H   0  0  0  0  0  0  0  0  0  0  0  0
  153.1889  142.2357  160.2372 H   0  0  0  0  0  0  0  0  0  0  0  0
  151.4529  142.2146  160.4635 H   0  0  0  0  0  0  0  0  0  0  0  0
  151.0697  142.4455  158.0303 H   0  0  0  0  0  0  0  0  0  0  0  0
  152.7911  142.6987  157.7480 H   0  0  0  0  0  0  0  0  0  0  0  0
  150.0656  140.7179  156.6550 H   0  0  0  0  0  0  0  0  0  0  0  0
  150.9866  141.4509  155.3745 H   0  0  0  0  0  0  0  0  0  0  0  0
  149.2906  141.9463  154.5243 H   0  0  0  0  0  0  0  0  0  0  0  0
  146.9548  142.4625  153.6289 H   0  0  0  0  0  0  0  0  0  0  0  0
  146.0176  138.4481  153.3236 H   0  0  0  0  0  0  0  0  0  0  0  0
  148.3112  137.7483  154.2031 H   0  0  0  0  0  0  0  0  0  0  0  0
  150.9539  138.4328  153.0460 H   0  0  0  0  0  0  0  0  0  0  0  0
  152.3827  138.8336  154.1206 H   0  0  0  0  0  0  0  0  0  0  0  0
  151.3113  137.6590  156.0138 H   0  0  0  0  0  0  0  0  0  0  0  0
  149.8743  137.2429  154.9549 H   0  0  0  0  0  0  0  0  0  0  0  0
  145.5397  140.7039  153.1113 H   0  0  0  0  0  0  0  0  0  0  0  0
  1  2  2  0  0  0  0
  1 19  1  0  0  0  0
  1 20  1  0  0  0  0
  2  3  1  0  0  0  0
  2 21  1  0  0  0  0
  3  4  1  0  0  0  0
  3 22  1  0  0  0  0
  3 23  1  0  0  0  0
  4  5  1  0  0  0  0
  4 24  1  0  0  0  0
  4 25  1  0  0  0  0
  5  6  2  0  0  0  0
  5  7  2  0  0  0  0
  5  8  1  0  0  0  0
  8  9  1  0  0  0  0
  9 10  1  0  0  0  0
  9 26  1  0  0  0  0
  9 27  1  0  0  0  0
 10 18  1  0  0  0  0
 10 11  1  0  0  0  0
 10 17  1  0  0  0  0
 11 16  1  0  0  0  0
 11 12  2  0  0  0  0
 12 13  1  0  0  0  0
 12 28  1  0  0  0  0
 13 14  2  0  0  0  0
 13 29  1  0  0  0  0
 14 15  1  0  0  0  0
 14 36  1  0  0  0  0
 15 16  2  0  0  0  0
 15 30  1  0  0  0  0
 16 31  1  0  0  0  0
 17 18  1  0  0  0  0
 17 32  1  0  0  0  0
 17 33  1  0  0  0  0
 18 34  1  0  0  0  0
 18 35  1  0  0  0  0
M  CHG  1   8  -1
M  CHG  1  14   1
M  END
> <s_m_source_file>
AV-unprocessed.smi

> <i_m_source_file_index>
2524

> <i_lp_mmshare_version>
43012

> <i_f3d_flags>
0

> <s_epik_input>
W0NIMl09W0NIXVtDSDJdW0NIMl1TKD1PKSg9TylbTkhdW0NIMl1DMShbQ0gyXVtDSDJdMSljMltjSF1bY0hdbltjSF1bY0hdMg==

> <s_epik_cmdline>
J2VwaWtfcHl0aG9uJywgJy1waCcsICc3LjAnLCAnLXRuJywgJzgnLCAnLW1hJywgJzIwMCcsICctbWV0YWxfYmluZGluZycsICctaW1hZScsICc8aW5maWxlLm1hZT4nLCAnLW9tYWUnLCAnPG91dGZpbGUubWFlPic=

> <r_epik_Ionization_Penalty>
7.77019

> <r_epik_Ionization_Penalty_Charging>
7.77019

> <r_epik_Ionization_Penalty_Neutral>
0

> <r_epik_State_Penalty>
8.15763

> <r_epik_Charging_Adjusted_Penalty>
15.9278

> <i_epik_Tot_Q>
0

> <i_epik_Tot_abs_Q>
2

> <r_epik_Metal_State_Penalty>
4.11642

> <b_epik_Metal_Only>
1

> <s_lp_Force_Field>
OPLS_2005

> <r_lp_Energy>
17.0566

> <b_lp_Chiralities_Consistent>
1

> <s_lp_Variant>
AV-unprocessed.smi:2524-4

> <Gold.Version>
5.8.1

> <Gold.Id.Protein>
6NUR|6NUR_protein|mol2

> <Gold.PLP.Fitness>
47.6398

> <Gold.PLP.PLP>
-38.8293

> <Gold.PLP.part.hbond>
-2.5282

> <Gold.PLP.part.metal>
0.0000

> <Gold.PLP.part.buried>
-4.7286

> <Gold.PLP.part.nonpolar>
-31.6816

> <Gold.PLP.part.repulsive>
0.0153

> <Gold.PLP.ligand.clash>
0.0000

> <Gold.PLP.ligand.torsion>
1.3225

> <Gold.PLP.Chemscore.Hbond>
3.0000

> <Gold.PLP.Chemscore.CHOScore>
0.0000

> <Gold.PLP.Chemscore.Metal>
0.0000

> <Gold.Chemscore.Hbonds>
donor molecule, donor type, donor heavy atom, donor atom, acceptor molecule, acceptor atom, score
      L1  H    14    36       P1 10175  2.00
      P1  H  7997  8008       L1     6  1.00

> <Gold.PLP.Chemscore.Internal.Correction>
2.4554

> <Gold.Rescore>
     Score         DG    S(hbond)    S(metal)    S(lipo)     H(rot)  DE(clash)    DE(int)     intcor
     17.45     -18.93       1.73        0.00     102.96       1.70       0.14       1.34       ----

> <Gold.Chemscore.Fitness>
17.4466

> <Gold.Chemscore.DG>
-18.9339

> <Gold.Chemscore.ZeroCoef>
-5.4800

> <Gold.Chemscore.Hbond>
1.7258

> <Gold.Chemscore.Metal>
0.0000

> <Gold.Chemscore.Lipo>
102.9643

> <Gold.Chemscore.Internal_Hbond>
0.0000

> <Gold.Chemscore.DEClash>
0.1435

> <Gold.Chemscore.DEInternal>
1.3438

> <Gold.Chemscore.Rot>
1.7020

> <Gold.Chemscore.Internal.Correction>
   9.000000E+99

> <Gold.Chemscore.Hbonds>
donor molecule, donor type, donor heavy atom, donor atom, acceptor molecule, acceptor atom, score
      L1  H    14    36       P1 10175  0.73
      P1  H  7997  8008       L1     6  0.62

> <Gold.Chemscore.Hbond.Weighted>
-5.7643

> <Gold.Chemscore.Metal.Weighted>
-0.0000

> <Gold.Chemscore.Lipo.Weighted>
-12.0468

> <Gold.Chemscore.Internal_Hbond.Weighted>
0.0000

> <Gold.Chemscore.DEClash.Weighted>
0.1435

> <Gold.Chemscore.DEInternal.Weighted>
1.3438

> <Gold.Chemscore.Rot.Weighted>
4.3572

> <Gold.Chemscore.Internal.Correction.Weighted>
   9.000000E+99

> <Gold.Protein.RotatedTorsions>
[ 6907 6896 6895 6894 ] final   -3.89 input  -60.11 | X-H torsion
[ 7974 7965 7964 7962 ] final   18.68 input  175.53 | X-H torsion
[ 8008 7997 7996 7995 ] final -100.96 input   59.86 | X-H torsion
[ 10167 10162 10161 10158 ] final  100.44 input  -65.29 | X-H torsion
[ 10718 10713 10712 10709 ] final  -71.71 input   66.30 | X-H torsion
[ 10763 10752 10751 10750 ] final  -37.97 input  -60.55 | X-H torsion
[ 11005 11000 10999 10996 ] final   72.05 input  -57.11 | X-H torsion

> <Gold.Protein.ActiveResidues>
 VAL166  LYS551  ARG553  GLY616  TRP617  ASP618  TYR619  PRO620  LYS621  CYS622 
 ASP623  PHE694  ASN695  SER759  ASP760  ASP761  ALA762  ILE779  LEU786  VAL792 
 PHE793  MET794  SER795  GLU796  ALA797  LYS798  CYS799  TRP800  GLU811  SER814 

> <Gold.Protein.RotatedAtoms>
  151.5065  135.1063  159.9842 H   0  0  0  0  0  0  0  0  0  0  0  0  # atno 6907 bound_to 6896
  152.4680  133.7961  159.6938 H   0  0  0  0  0  0  0  0  0  0  0  0  # atno 6908 bound_to 6896
  150.8673  133.7492  159.2998 H   0  0  0  0  0  0  0  0  0  0  0  0  # atno 6909 bound_to 6896
  146.2176  139.8423  142.8638 H   0  0  0  0  0  0  0  0  0  0  0  0  # atno 7974 bound_to 7965
  154.8358  140.0437  157.1508 H   0  0  0  0  0  0  0  0  0  0  0  0  # atno 8008 bound_to 7997
  154.9101  140.3012  155.5250 H   0  0  0  0  0  0  0  0  0  0  0  0  # atno 8009 bound_to 7997
  156.2989  140.2360  156.4139 H   0  0  0  0  0  0  0  0  0  0  0  0  # atno 8010 bound_to 7997
  139.7527  144.6979  151.0409 H   0  0  0  0  0  0  0  0  0  0  0  0  # atno 10167 bound_to 10162
  156.0351  130.4357  150.2485 H   0  0  0  0  0  0  0  0  0  0  0  0  # atno 10718 bound_to 10713
  153.9051  135.6798  153.4753 H   0  0  0  0  0  0  0  0  0  0  0  0  # atno 10763 bound_to 10752
  153.1108  135.4784  154.9030 H   0  0  0  0  0  0  0  0  0  0  0  0  # atno 10764 bound_to 10752
  154.7556  135.3196  154.8431 H   0  0  0  0  0  0  0  0  0  0  0  0  # atno 10765 bound_to 10752
  139.9511  134.7225  156.0860 H   0  0  0  0  0  0  0  0  0  0  0  0  # atno 11005 bound_to 11000
  145.2887  141.0160  143.3676 LP  0  0  0  0  0  0  0  0  0  0  0  0  # atno 17320 bound_to 7965
  144.9094  139.4547  143.6594 LP  0  0  0  0  0  0  0  0  0  0  0  0  # atno 17321 bound_to 7965
  140.7799  143.4790  151.0043 LP  0  0  0  0  0  0  0  0  0  0  0  0  # atno 17342 bound_to 10162
  139.8478  143.7479  152.3179 LP  0  0  0  0  0  0  0  0  0  0  0  0  # atno 17343 bound_to 10162
  157.0585  131.0083  151.3230 LP  0  0  0  0  0  0  0  0  0  0  0  0  # atno 17370 bound_to 10713
  157.5088  130.7925  149.7683 LP  0  0  0  0  0  0  0  0  0  0  0  0  # atno 17371 bound_to 10713
  141.1174  133.6623  156.3128 LP  0  0  0  0  0  0  0  0  0  0  0  0  # atno 17394 bound_to 11000
  140.5716  134.5834  157.5459 LP  0  0  0  0  0  0  0  0  0  0  0  0  # atno 17395 bound_to 11000

$$$$
