AV-unprocessed.smi:2831|AV-procd|sdf|10911|dock4
  -GOLD-   2272015353D 1   1.00000     0.00000
 Structure written by MMmdl.
 29 30  0  0  0  0  0  0  0  0  2 V2000
  146.6048  133.8730  162.5685 C   0  0  0  0  0  0  0  0  0  0  0  0
  147.1087  135.0290  161.7745 C   0  0  0  0  0  0  0  0  0  0  0  0
  147.0325  136.2904  162.2055 N   0  0  0  0  0  0  0  0  0  0  0  0
  147.5695  137.1875  161.2932 N   0  0  0  0  0  0  0  0  0  0  0  0
  148.0533  136.5930  160.1933 C   0  0  0  0  0  0  0  0  0  0  0  0
  148.6150  137.2841  159.1875 N   0  5  0  0  0  0  0  0  0  0  0  0
  149.5038  136.6808  158.3661 C   0  0  0  0  0  0  0  0  0  0  0  0
  149.5914  135.4692  158.1562 O   0  0  0  0  0  0  0  0  0  0  0  0
  150.3342  137.5416  157.7534 N   0  0  0  0  0  0  0  0  0  0  0  0
  151.4224  137.2738  156.8019 C   0  0  2  0  0  0  0  0  0  0  0  0
  152.5684  136.6111  157.5890 C   0  0  0  0  0  0  0  0  0  0  0  0
  151.9272  138.5390  156.0854 C   0  0  0  0  0  0  0  0  0  0  0  0
  151.6273  138.2815  154.6098 C   0  0  0  0  0  0  0  0  0  0  0  0
  151.6624  136.8687  154.5074 O   0  0  0  0  0  0  0  0  0  0  0  0
  150.9729  136.3625  155.6396 C   0  0  0  0  0  0  0  0  0  0  0  0
  147.8536  134.8409  160.1961 S   0  0  0  0  0  0  0  0  0  0  0  0
  147.3381  133.5934  163.3250 H   0  0  0  0  0  0  0  0  0  0  0  0
  146.4281  133.0164  161.9179 H   0  0  0  0  0  0  0  0  0  0  0  0
  145.6688  134.1330  163.0634 H   0  0  0  0  0  0  0  0  0  0  0  0
  150.1927  138.5149  157.9815 H   0  0  0  0  0  0  0  0  0  0  0  0
  153.4042  136.3560  156.9363 H   0  0  0  0  0  0  0  0  0  0  0  0
  152.2378  135.6904  158.0716 H   0  0  0  0  0  0  0  0  0  0  0  0
  152.9474  137.2735  158.3683 H   0  0  0  0  0  0  0  0  0  0  0  0
  151.4702  139.4648  156.4368 H   0  0  0  0  0  0  0  0  0  0  0  0
  153.0041  138.6539  156.2158 H   0  0  0  0  0  0  0  0  0  0  0  0
  150.6334  138.6423  154.3418 H   0  0  0  0  0  0  0  0  0  0  0  0
  152.3520  138.7515  153.9449 H   0  0  0  0  0  0  0  0  0  0  0  0
  151.2096  135.3109  155.8042 H   0  0  0  0  0  0  0  0  0  0  0  0
  149.9017  136.4252  155.4453 H   0  0  0  0  0  0  0  0  0  0  0  0
  1  2  1  0  0  0  0
  1 17  1  0  0  0  0
  1 18  1  0  0  0  0
  1 19  1  0  0  0  0
  2 16  1  0  0  0  0
  2  3  2  0  0  0  0
  3  4  1  0  0  0  0
  4  5  2  0  0  0  0
  5  6  1  0  0  0  0
  5 16  1  0  0  0  0
  6  7  1  0  0  0  0
  7  8  2  0  0  0  0
  7  9  1  0  0  0  0
  9 10  1  0  0  0  0
  9 20  1  0  0  0  0
 10 15  1  0  0  0  0
 10 11  1  0  0  0  0
 10 12  1  0  0  0  0
 11 21  1  0  0  0  0
 11 22  1  0  0  0  0
 11 23  1  0  0  0  0
 12 13  1  0  0  0  0
 12 24  1  0  0  0  0
 12 25  1  0  0  0  0
 13 14  1  0  0  0  0
 13 26  1  0  0  0  0
 13 27  1  0  0  0  0
 14 15  1  0  0  0  0
 15 28  1  0  0  0  0
 15 29  1  0  0  0  0
M  CHG  1   6  -1
M  END
> <s_m_source_file>
AV-unprocessed.smi

> <i_m_source_file_index>
2831

> <i_lp_mmshare_version>
43012

> <i_f3d_flags>
0

> <s_epik_input>
W0NIM11jMW5uYyhzMSlbTkhdQyg9TylbTkhdW0NAQF0yKFtDSDNdKVtDSDJdW0NIMl1PW0NIMl0y

> <s_epik_cmdline>
J2VwaWtfcHl0aG9uJywgJy1waCcsICc3LjAnLCAnLXRuJywgJzgnLCAnLW1hJywgJzIwMCcsICctbWV0YWxfYmluZGluZycsICctaW1hZScsICc8aW5maWxlLm1hZT4nLCAnLW9tYWUnLCAnPG91dGZpbGUubWFlPic=

> <r_lp_tautomer_probability>
1

> <r_epik_Ionization_Penalty>
3.33648

> <r_epik_Ionization_Penalty_Charging>
3.18522

> <r_epik_Ionization_Penalty_Neutral>
0.151254

> <r_epik_State_Penalty>
3.18248

> <r_epik_Charging_Adjusted_Penalty>
6.3677

> <i_epik_Tot_Q>
-1

> <i_epik_Tot_abs_Q>
1

> <r_epik_Metal_State_Penalty>
0.469716

> <b_epik_Metal_Only>
1

> <s_lp_Force_Field>
OPLS_2005

> <r_lp_Energy>
14.5797

> <b_lp_Chiralities_Consistent>
1

> <s_lp_Variant>
AV-unprocessed.smi:2831-4

> <Gold.Version>
5.8.1

> <Gold.Id.Protein>
6NUR|6NUR_protein|mol2

> <Gold.PLP.Fitness>
35.4704

> <Gold.PLP.PLP>
-24.9891

> <Gold.PLP.part.hbond>
-4.0000

> <Gold.PLP.part.metal>
0.0000

> <Gold.PLP.part.buried>
-4.7005

> <Gold.PLP.part.nonpolar>
-16.7353

> <Gold.PLP.part.repulsive>
0.2149

> <Gold.PLP.ligand.clash>
0.0000

> <Gold.PLP.ligand.torsion>
0.4287

> <Gold.PLP.Chemscore.Hbond>
3.7740

> <Gold.PLP.Chemscore.CHOScore>
0.0000

> <Gold.PLP.Chemscore.Metal>
0.0000

> <Gold.Chemscore.Hbonds>
donor molecule, donor type, donor heavy atom, donor atom, acceptor molecule, acceptor atom, score
      P1  H  6896  6909       L1     8  1.00
      P1  H  6931  6943       L1     4  0.93
      P1  H  6934  6947       L1     4  0.90
      P1  H 10752 10763       L1    14  1.00

> <Gold.PLP.Chemscore.Internal.Correction>
0.0168

> <Gold.Rescore>
     Score         DG    S(hbond)    S(metal)    S(lipo)     H(rot)  DE(clash)    DE(int)     intcor
     16.44     -18.32       2.92        0.00      48.38       1.00       0.13       1.74       ----

> <Gold.Chemscore.Fitness>
16.4422

> <Gold.Chemscore.DG>
-18.3209

> <Gold.Chemscore.ZeroCoef>
-5.4800

> <Gold.Chemscore.Hbond>
2.9162

> <Gold.Chemscore.Metal>
0.0000

> <Gold.Chemscore.Lipo>
48.3817

> <Gold.Chemscore.Internal_Hbond>
0.0000

> <Gold.Chemscore.DEClash>
0.1345

> <Gold.Chemscore.DEInternal>
1.7442

> <Gold.Chemscore.Rot>
1.0000

> <Gold.Chemscore.Internal.Correction>
   9.000000E+99

> <Gold.Chemscore.Hbonds>
donor molecule, donor type, donor heavy atom, donor atom, acceptor molecule, acceptor atom, score
      P1  H  6896  6909       L1     8  0.88
      P1  H  6931  6943       L1     4  0.38
      P1  H  6934  6947       L1     4  0.65
      P1  H 10752 10763       L1    14  0.30

> <Gold.Chemscore.Hbond.Weighted>
-9.7402

> <Gold.Chemscore.Metal.Weighted>
-0.0000

> <Gold.Chemscore.Lipo.Weighted>
-5.6607

> <Gold.Chemscore.Internal_Hbond.Weighted>
0.0000

> <Gold.Chemscore.DEClash.Weighted>
0.1345

> <Gold.Chemscore.DEInternal.Weighted>
1.7442

> <Gold.Chemscore.Rot.Weighted>
2.5600

> <Gold.Chemscore.Internal.Correction.Weighted>
   9.000000E+99

> <Gold.Protein.RotatedTorsions>
[ 6907 6896 6895 6894 ] final   39.23 input  -60.11 | X-H torsion
[ 7974 7965 7964 7962 ] final   68.90 input  175.53 | X-H torsion
[ 8008 7997 7996 7995 ] final -107.57 input   59.86 | X-H torsion
[ 10167 10162 10161 10158 ] final  -55.62 input  -65.29 | X-H torsion
[ 10718 10713 10712 10709 ] final -157.41 input   66.30 | X-H torsion
[ 10763 10752 10751 10750 ] final   44.02 input  -60.55 | X-H torsion
[ 11005 11000 10999 10996 ] final   27.65 input  -57.11 | X-H torsion

> <Gold.Protein.ActiveResidues>
 VAL166  LYS551  ARG553  GLY616  TRP617  ASP618  TYR619  PRO620  LYS621  CYS622 
 ASP623  PHE694  ASN695  SER759  ASP760  ASP761  ALA762  ILE779  LEU786  VAL792 
 PHE793  MET794  SER795  GLU796  ALA797  LYS798  CYS799  TRP800  GLU811  SER814 

> <Gold.Protein.RotatedAtoms>
  152.1668  134.8867  160.0537 H   0  0  0  0  0  0  0  0  0  0  0  0  # atno 6907 bound_to 6896
  151.9842  133.3763  159.4127 H   0  0  0  0  0  0  0  0  0  0  0  0  # atno 6908 bound_to 6896
  150.6896  134.3929  159.5128 H   0  0  0  0  0  0  0  0  0  0  0  0  # atno 6909 bound_to 6896
  145.7970  139.2962  143.1177 H   0  0  0  0  0  0  0  0  0  0  0  0  # atno 7974 bound_to 7965
  154.9314  140.0405  157.2049 H   0  0  0  0  0  0  0  0  0  0  0  0  # atno 8008 bound_to 7997
  154.8157  140.2875  155.5800 H   0  0  0  0  0  0  0  0  0  0  0  0  # atno 8009 bound_to 7997
  156.2975  140.2528  156.3055 H   0  0  0  0  0  0  0  0  0  0  0  0  # atno 8010 bound_to 7997
  140.6364  143.2484  151.5106 H   0  0  0  0  0  0  0  0  0  0  0  0  # atno 10167 bound_to 10162
  156.5400  130.8559  151.2745 H   0  0  0  0  0  0  0  0  0  0  0  0  # atno 10718 bound_to 10713
  152.9849  135.6083  154.3207 H   0  0  0  0  0  0  0  0  0  0  0  0  # atno 10763 bound_to 10752
  154.2917  135.2774  155.2653 H   0  0  0  0  0  0  0  0  0  0  0  0  # atno 10764 bound_to 10752
  154.4946  135.5883  153.6541 H   0  0  0  0  0  0  0  0  0  0  0  0  # atno 10765 bound_to 10752
  140.3240  134.2511  155.7712 H   0  0  0  0  0  0  0  0  0  0  0  0  # atno 11005 bound_to 11000
  145.9918  140.8596  143.0062 LP  0  0  0  0  0  0  0  0  0  0  0  0  # atno 17320 bound_to 7965
  144.6774  140.2226  143.7364 LP  0  0  0  0  0  0  0  0  0  0  0  0  # atno 17321 bound_to 7965
  139.5574  144.2240  152.1636 LP  0  0  0  0  0  0  0  0  0  0  0  0  # atno 17342 bound_to 10162
  140.1498  144.5125  150.6694 LP  0  0  0  0  0  0  0  0  0  0  0  0  # atno 17343 bound_to 10162
  157.7407  130.9855  150.2395 LP  0  0  0  0  0  0  0  0  0  0  0  0  # atno 17370 bound_to 10713
  156.2981  130.3754  149.7777 LP  0  0  0  0  0  0  0  0  0  0  0  0  # atno 17371 bound_to 10713
  141.2079  133.7791  157.0088 LP  0  0  0  0  0  0  0  0  0  0  0  0  # atno 17394 bound_to 11000
  140.0917  134.9588  157.1786 LP  0  0  0  0  0  0  0  0  0  0  0  0  # atno 17395 bound_to 11000

$$$$
