AV-unprocessed.smi:2693|AV-procd|sdf|10401|dock1
  -GOLD-   2272014433D 1   1.00000     0.00000
 Structure written by MMmdl.
 45 47  0  0  0  0  0  0  0  0  1 V2000
  145.3033  131.2447  151.4167 C   0  0  0  0  0  0  0  0  0  0  0  0
  144.8935  132.4921  150.7781 N   0  0  0  0  0  0  0  0  0  0  0  0
  144.1083  132.3969  149.5508 C   0  0  0  0  0  0  0  0  0  0  0  0
  145.2474  133.7327  151.3168 C   0  0  0  0  0  0  0  0  0  0  0  0
  144.9704  134.8223  150.5886 N   0  0  0  0  0  0  0  0  0  0  0  0
  145.3142  136.0241  151.0981 C   0  0  0  0  0  0  0  0  0  0  0  0
  145.9500  136.1429  152.3570 C   0  0  0  0  0  0  0  0  0  0  0  0
  146.3238  137.3680  152.9714 N   0  0  0  0  0  0  0  0  0  0  0  0
  146.9749  137.5510  154.1322 C   0  0  0  0  0  0  0  0  0  0  0  0
  147.3160  136.6572  154.9062 O   0  0  0  0  0  0  0  0  0  0  0  0
  147.2049  138.8508  154.3591 N   0  0  0  0  0  0  0  0  0  0  0  0
  147.9015  139.3805  155.5328 C   0  0  2  0  0  0  0  0  0  0  0  0
  147.5812  140.8683  155.8021 C   0  0  2  0  0  0  0  0  0  0  0  0
  146.4787  141.6141  155.0900 C   0  0  0  0  0  0  0  0  0  0  0  0
  147.2272  142.3301  153.9619 C   0  0  0  0  0  0  0  0  0  0  0  0
  148.4397  141.5961  153.8057 O   0  0  0  0  0  0  0  0  0  0  0  0
  148.8869  141.2125  155.1042 C   0  0  2  0  0  0  0  0  0  0  0  0
  149.3830  139.7598  155.2578 C   0  0  0  0  0  0  0  0  0  0  0  0
  150.3148  139.5403  156.4533 C   0  0  0  0  0  0  0  0  0  0  0  0
  150.0977  139.1560  154.0410 C   0  0  0  0  0  0  0  0  0  0  0  0
  146.1798  134.9338  153.0431 C   0  0  0  0  0  0  0  0  0  0  0  0
  145.8337  133.7382  152.5213 N   0  0  0  0  0  0  0  0  0  0  0  0
  144.8346  131.1494  152.3964 H   0  0  0  0  0  0  0  0  0  0  0  0
  146.3855  131.2195  151.5483 H   0  0  0  0  0  0  0  0  0  0  0  0
  145.0229  130.3735  150.8249 H   0  0  0  0  0  0  0  0  0  0  0  0
  143.1702  132.9432  149.6538 H   0  0  0  0  0  0  0  0  0  0  0  0
  143.8627  131.3642  149.3030 H   0  0  0  0  0  0  0  0  0  0  0  0
  144.6630  132.8197  148.7126 H   0  0  0  0  0  0  0  0  0  0  0  0
  145.0529  136.8769  150.4915 H   0  0  0  0  0  0  0  0  0  0  0  0
  146.0370  138.2041  152.4838 H   0  0  0  0  0  0  0  0  0  0  0  0
  146.8947  139.5217  153.6716 H   0  0  0  0  0  0  0  0  0  0  0  0
  147.7739  138.7683  156.4276 H   0  0  0  0  0  0  0  0  0  0  0  0
  147.6403  141.0892  156.8691 H   0  0  0  0  0  0  0  0  0  0  0  0
  145.7147  140.9436  154.6973 H   0  0  0  0  0  0  0  0  0  0  0  0
  145.9772  142.3293  155.7426 H   0  0  0  0  0  0  0  0  0  0  0  0
  146.6569  142.3647  153.0334 H   0  0  0  0  0  0  0  0  0  0  0  0
  147.4686  143.3536  154.2526 H   0  0  0  0  0  0  0  0  0  0  0  0
  149.4749  141.9804  155.6096 H   0  0  0  0  0  0  0  0  0  0  0  0
  151.2808  140.0236  156.3041 H   0  0  0  0  0  0  0  0  0  0  0  0
  150.4990  138.4794  156.6255 H   0  0  0  0  0  0  0  0  0  0  0  0
  149.8924  139.9458  157.3734 H   0  0  0  0  0  0  0  0  0  0  0  0
  151.0830  139.5998  153.8960 H   0  0  0  0  0  0  0  0  0  0  0  0
  149.5438  139.3157  153.1158 H   0  0  0  0  0  0  0  0  0  0  0  0
  150.2352  138.0800  154.1527 H   0  0  0  0  0  0  0  0  0  0  0  0
  146.6475  134.9218  154.0167 H   0  0  0  0  0  0  0  0  0  0  0  0
  1  2  1  0  0  0  0
  1 23  1  0  0  0  0
  1 24  1  0  0  0  0
  1 25  1  0  0  0  0
  2  3  1  0  0  0  0
  2  4  1  0  0  0  0
  3 26  1  0  0  0  0
  3 27  1  0  0  0  0
  3 28  1  0  0  0  0
  4 22  1  0  0  0  0
  4  5  2  0  0  0  0
  5  6  1  0  0  0  0
  6  7  2  0  0  0  0
  6 29  1  0  0  0  0
  7  8  1  0  0  0  0
  7 21  1  0  0  0  0
  8  9  1  0  0  0  0
  8 30  1  0  0  0  0
  9 10  2  0  0  0  0
  9 11  1  0  0  0  0
 11 12  1  0  0  0  0
 11 31  1  0  0  0  0
 12 18  1  0  0  0  0
 12 13  1  0  0  0  0
 12 32  1  0  0  0  0
 13 17  1  0  0  0  0
 13 14  1  0  0  0  0
 13 33  1  0  0  0  0
 14 15  1  0  0  0  0
 14 34  1  0  0  0  0
 14 35  1  0  0  0  0
 15 16  1  0  0  0  0
 15 36  1  0  0  0  0
 15 37  1  0  0  0  0
 16 17  1  0  0  0  0
 17 18  1  0  0  0  0
 17 38  1  0  0  0  0
 18 19  1  0  0  0  0
 18 20  1  0  0  0  0
 19 39  1  0  0  0  0
 19 40  1  0  0  0  0
 19 41  1  0  0  0  0
 20 42  1  0  0  0  0
 20 43  1  0  0  0  0
 20 44  1  0  0  0  0
 21 22  2  0  0  0  0
 21 45  1  0  0  0  0
M  END
> <s_m_source_file>
AV-unprocessed.smi

> <i_m_source_file_index>
2693

> <i_lp_mmshare_version>
43012

> <i_f3d_flags>
0

> <s_epik_input>
W0NIM11OKFtDSDNdKWMxbltjSF1jKFtjSF1uMSlbTkhdQyg9TylbTkhdW0NASF0yQyhbQ0gzXSkoW0NIM10pW0NAQEhdKFtDQEhdMjMpT1tDSDJdW0NIMl0z

> <s_epik_cmdline>
J2VwaWtfcHl0aG9uJywgJy1waCcsICc3LjAnLCAnLXRuJywgJzgnLCAnLW1hJywgJzIwMCcsICctbWV0YWxfYmluZGluZycsICctaW1hZScsICc8aW5maWxlLm1hZT4nLCAnLW9tYWUnLCAnPG91dGZpbGUubWFlPic=

> <r_lp_tautomer_probability>
1

> <r_epik_Ionization_Penalty>
0.00031779

> <r_epik_Ionization_Penalty_Charging>
0

> <r_epik_Ionization_Penalty_Neutral>
0.00031779

> <r_epik_State_Penalty>
-0

> <r_epik_Charging_Adjusted_Penalty>
0

> <i_epik_Tot_Q>
0

> <i_epik_Tot_abs_Q>
0

> <r_epik_Metal_State_Penalty>
-0

> <b_epik_Metal_Only>
0

> <s_lp_Force_Field>
OPLS_2005

> <r_lp_Energy>
31.9605

> <b_lp_Chiralities_Consistent>
1

> <s_lp_Variant>
AV-unprocessed.smi:2693-5

> <Gold.Version>
5.8.1

> <Gold.Id.Protein>
6NUR|6NUR_protein|mol2

> <Gold.PLP.Fitness>
34.6902

> <Gold.PLP.PLP>
-30.0816

> <Gold.PLP.part.hbond>
-1.9146

> <Gold.PLP.part.metal>
0.0000

> <Gold.PLP.part.buried>
-3.9131

> <Gold.PLP.part.nonpolar>
-24.4488

> <Gold.PLP.part.repulsive>
0.5814

> <Gold.PLP.ligand.clash>
0.0000

> <Gold.PLP.ligand.torsion>
0.3119

> <Gold.PLP.Chemscore.Hbond>
0.6820

> <Gold.PLP.Chemscore.CHOScore>
1.0000

> <Gold.PLP.Chemscore.Metal>
0.0000

> <Gold.Chemscore.Hbonds>
donor molecule, donor type, donor heavy atom, donor atom, acceptor molecule, acceptor atom, score
      P1  H  8011  8017       L1    16  0.43
      L1  C     6    29       P1 10171  1.00

> <Gold.PLP.Chemscore.Internal.Correction>
0.1865

> <Gold.Rescore>
     Score         DG    S(hbond)    S(metal)    S(lipo)     H(rot)  DE(clash)    DE(int)     intcor
     10.70     -12.63       0.39        0.00      71.88       1.00       0.09       1.85       ----

> <Gold.Chemscore.Fitness>
10.6969

> <Gold.Chemscore.DG>
-12.6342

> <Gold.Chemscore.ZeroCoef>
-5.4800

> <Gold.Chemscore.Hbond>
0.3904

> <Gold.Chemscore.Metal>
0.0000

> <Gold.Chemscore.Lipo>
71.8821

> <Gold.Chemscore.Internal_Hbond>
0.0000

> <Gold.Chemscore.DEClash>
0.0909

> <Gold.Chemscore.DEInternal>
1.8464

> <Gold.Chemscore.Rot>
1.0000

> <Gold.Chemscore.Internal.Correction>
   9.000000E+99

> <Gold.Chemscore.Hbonds>
donor molecule, donor type, donor heavy atom, donor atom, acceptor molecule, acceptor atom, score
      P1  H  8011  8017       L1    16  0.37

> <Gold.Chemscore.Hbond.Weighted>
-1.3040

> <Gold.Chemscore.Metal.Weighted>
-0.0000

> <Gold.Chemscore.Lipo.Weighted>
-8.4102

> <Gold.Chemscore.Internal_Hbond.Weighted>
0.0000

> <Gold.Chemscore.DEClash.Weighted>
0.0909

> <Gold.Chemscore.DEInternal.Weighted>
1.8464

> <Gold.Chemscore.Rot.Weighted>
2.5600

> <Gold.Chemscore.Internal.Correction.Weighted>
   9.000000E+99

> <Gold.Protein.RotatedTorsions>
[ 6907 6896 6895 6894 ] final -123.21 input  -60.11 | X-H torsion
[ 7974 7965 7964 7962 ] final -125.02 input  175.53 | X-H torsion
[ 8008 7997 7996 7995 ] final  159.29 input   59.86 | X-H torsion
[ 10167 10162 10161 10158 ] final  167.07 input  -65.29 | X-H torsion
[ 10718 10713 10712 10709 ] final  -87.42 input   66.30 | X-H torsion
[ 10763 10752 10751 10750 ] final   91.87 input  -60.55 | X-H torsion
[ 11005 11000 10999 10996 ] final -138.30 input  -57.11 | X-H torsion

> <Gold.Protein.ActiveResidues>
 VAL166  LYS551  ARG553  GLY616  TRP617  ASP618  TYR619  PRO620  LYS621  CYS622 
 ASP623  PHE694  ASN695  SER759  ASP760  ASP761  ALA762  ILE779  LEU786  VAL792 
 PHE793  MET794  SER795  GLU796  ALA797  LYS798  CYS799  TRP800  GLU811  SER814 

> <Gold.Protein.RotatedAtoms>
  150.8649  133.7589  159.2979 H   0  0  0  0  0  0  0  0  0  0  0  0  # atno 6907 bound_to 6896
  151.5220  135.1066  159.9890 H   0  0  0  0  0  0  0  0  0  0  0  0  # atno 6908 bound_to 6896
  152.4653  133.7866  159.6935 H   0  0  0  0  0  0  0  0  0  0  0  0  # atno 6909 bound_to 6896
  145.0019  140.7828  143.4491 H   0  0  0  0  0  0  0  0  0  0  0  0  # atno 7974 bound_to 7965
  156.2248  140.1835  156.7389 H   0  0  0  0  0  0  0  0  0  0  0  0  # atno 8008 bound_to 7997
  154.5923  140.0649  156.9284 H   0  0  0  0  0  0  0  0  0  0  0  0  # atno 8009 bound_to 7997
  155.2315  140.3315  155.4305 H   0  0  0  0  0  0  0  0  0  0  0  0  # atno 8010 bound_to 7997
  139.4937  144.3960  151.9463 H   0  0  0  0  0  0  0  0  0  0  0  0  # atno 10167 bound_to 10162
  155.9985  130.4799  150.4864 H   0  0  0  0  0  0  0  0  0  0  0  0  # atno 10718 bound_to 10713
  153.2130  135.4382  155.0401 H   0  0  0  0  0  0  0  0  0  0  0  0  # atno 10763 bound_to 10752
  154.8210  135.3337  154.7041 H   0  0  0  0  0  0  0  0  0  0  0  0  # atno 10764 bound_to 10752
  153.7477  135.7000  153.5008 H   0  0  0  0  0  0  0  0  0  0  0  0  # atno 10765 bound_to 10752
  140.8629  134.2146  157.4697 H   0  0  0  0  0  0  0  0  0  0  0  0  # atno 11005 bound_to 11000
  145.2141  139.2190  143.5127 LP  0  0  0  0  0  0  0  0  0  0  0  0  # atno 17320 bound_to 7965
  146.3453  140.1985  142.8589 LP  0  0  0  0  0  0  0  0  0  0  0  0  # atno 17321 bound_to 7965
  140.3399  144.3216  150.5969 LP  0  0  0  0  0  0  0  0  0  0  0  0  # atno 17342 bound_to 10162
  140.5575  143.2197  151.7822 LP  0  0  0  0  0  0  0  0  0  0  0  0  # atno 17343 bound_to 10162
  157.2864  131.0617  151.2163 LP  0  0  0  0  0  0  0  0  0  0  0  0  # atno 17370 bound_to 10713
  157.3191  130.6928  149.6259 LP  0  0  0  0  0  0  0  0  0  0  0  0  # atno 17371 bound_to 10713
  139.8708  134.9738  156.4823 LP  0  0  0  0  0  0  0  0  0  0  0  0  # atno 17394 bound_to 11000
  140.8662  133.8023  155.9316 LP  0  0  0  0  0  0  0  0  0  0  0  0  # atno 17395 bound_to 11000

$$$$
