AV-unprocessed.smi:3153|AV-procd|sdf|12019|dock9
  -GOLD-   2272017433D 1   1.00000     0.00000
 Structure written by MMmdl.
 38 39  0  0  0  0  0  0  0  0  2 V2000
  144.7636  135.2644  149.9342 O   0  0  0  0  0  0  0  0  0  0  0  0
  145.0189  134.5739  151.1454 C   0  0  0  0  0  0  0  0  0  0  0  0
  145.1148  135.6314  152.2680 C   0  0  0  0  0  0  0  0  0  0  0  0
  146.0256  136.7433  151.9212 N   0  3  0  0  0  0  0  0  0  0  0  0
  145.9360  137.8999  152.8329 C   0  0  0  0  0  0  0  0  0  0  0  0
  146.8636  139.0362  152.3761 C   0  0  0  0  0  0  0  0  0  0  0  0
  146.9232  140.1135  153.3459 N   0  0  0  0  0  0  0  0  0  0  0  0
  147.6787  141.2667  153.3015 C   0  0  0  0  0  0  0  0  0  0  0  0
  147.3931  141.9834  154.4281 C   0  0  0  0  0  0  0  0  0  0  0  0
  146.4321  141.1816  155.1049 C   0  0  0  0  0  0  0  0  0  0  0  0
  146.1493  140.0654  154.4521 N   0  0  0  0  0  0  0  0  0  0  0  0
  143.8241  133.6287  151.4177 C   0  0  0  0  0  0  0  0  0  0  0  0
  143.7192  132.4787  150.4004 C   0  0  0  0  0  0  0  0  0  0  0  0
  145.0290  131.6828  150.3230 C   0  0  0  0  0  0  0  0  0  0  0  0
  146.2111  132.6043  149.9924 C   0  0  0  0  0  0  0  0  0  0  0  0
  146.3281  133.7567  151.0064 C   0  0  0  0  0  0  0  0  0  0  0  0
  145.4653  135.0824  149.3273 H   0  0  0  0  0  0  0  0  0  0  0  0
  144.1263  136.0398  152.4843 H   0  0  0  0  0  0  0  0  0  0  0  0
  145.4692  135.1631  153.1876 H   0  0  0  0  0  0  0  0  0  0  0  0
  146.9739  136.3963  151.9320 H   0  0  0  0  0  0  0  0  0  0  0  0
  144.9023  138.2469  152.8664 H   0  0  0  0  0  0  0  0  0  0  0  0
  146.2035  137.5822  153.8416 H   0  0  0  0  0  0  0  0  0  0  0  0
  147.8743  138.6579  152.2174 H   0  0  0  0  0  0  0  0  0  0  0  0
  146.5256  139.4484  151.4242 H   0  0  0  0  0  0  0  0  0  0  0  0
  148.3507  141.4793  152.4829 H   0  0  0  0  0  0  0  0  0  0  0  0
  147.8050  142.9375  154.7222 H   0  0  0  0  0  0  0  0  0  0  0  0
  145.9339  141.3770  156.0431 H   0  0  0  0  0  0  0  0  0  0  0  0
  143.9275  133.1981  152.4148 H   0  0  0  0  0  0  0  0  0  0  0  0
  142.8899  134.1918  151.4299 H   0  0  0  0  0  0  0  0  0  0  0  0
  142.8992  131.8151  150.6765 H   0  0  0  0  0  0  0  0  0  0  0  0
  143.4726  132.8756  149.4150 H   0  0  0  0  0  0  0  0  0  0  0  0
  145.2099  131.1796  151.2738 H   0  0  0  0  0  0  0  0  0  0  0  0
  144.9445  130.8997  149.5688 H   0  0  0  0  0  0  0  0  0  0  0  0
  147.1365  132.0275  149.9797 H   0  0  0  0  0  0  0  0  0  0  0  0
  146.0887  133.0080  148.9867 H   0  0  0  0  0  0  0  0  0  0  0  0
  147.1570  134.4035  150.7167 H   0  0  0  0  0  0  0  0  0  0  0  0
  146.5956  133.3395  151.9782 H   0  0  0  0  0  0  0  0  0  0  0  0
  145.8066  137.0510  150.9843 H   0  0  0  0  0  0  0  0  0  0  0  0
  1  2  1  0  0  0  0
  1 17  1  0  0  0  0
  2 16  1  0  0  0  0
  2  3  1  0  0  0  0
  2 12  1  0  0  0  0
  3  4  1  0  0  0  0
  3 18  1  0  0  0  0
  3 19  1  0  0  0  0
  4  5  1  0  0  0  0
  4 20  1  0  0  0  0
  4 38  1  0  0  0  0
  5  6  1  0  0  0  0
  5 21  1  0  0  0  0
  5 22  1  0  0  0  0
  6  7  1  0  0  0  0
  6 23  1  0  0  0  0
  6 24  1  0  0  0  0
  7 11  1  0  0  0  0
  7  8  1  0  0  0  0
  8  9  2  0  0  0  0
  8 25  1  0  0  0  0
  9 10  1  0  0  0  0
  9 26  1  0  0  0  0
 10 11  2  0  0  0  0
 10 27  1  0  0  0  0
 12 13  1  0  0  0  0
 12 28  1  0  0  0  0
 12 29  1  0  0  0  0
 13 14  1  0  0  0  0
 13 30  1  0  0  0  0
 13 31  1  0  0  0  0
 14 15  1  0  0  0  0
 14 32  1  0  0  0  0
 14 33  1  0  0  0  0
 15 16  1  0  0  0  0
 15 34  1  0  0  0  0
 15 35  1  0  0  0  0
 16 36  1  0  0  0  0
 16 37  1  0  0  0  0
M  CHG  1   4   1
M  END
> <s_m_source_file>
AV-unprocessed.smi

> <i_m_source_file_index>
3153

> <i_lp_mmshare_version>
43012

> <i_f3d_flags>
0

> <s_epik_input>
W0NIMl0xW0NIMl1bQ0gyXVtDSDJdW0NIMl1DMShbT0hdKVtDSDJdW05IXVtDSDJdW0NIMl1uMltjSF1bY0hdW2NIXW4y

> <s_epik_cmdline>
J2VwaWtfcHl0aG9uJywgJy1waCcsICc3LjAnLCAnLXRuJywgJzgnLCAnLW1hJywgJzIwMCcsICctbWV0YWxfYmluZGluZycsICctaW1hZScsICc8aW5maWxlLm1hZT4nLCAnLW9tYWUnLCAnPG91dGZpbGUubWFlPic=

> <r_lp_tautomer_probability>
1

> <r_epik_Ionization_Penalty>
0.0240152

> <r_epik_Ionization_Penalty_Charging>
0.0240119

> <r_epik_Ionization_Penalty_Neutral>
3.38076e-06

> <r_epik_State_Penalty>
0.0194671

> <r_epik_Charging_Adjusted_Penalty>
0.043479

> <i_epik_Tot_Q>
1

> <i_epik_Tot_abs_Q>
1

> <r_epik_Metal_State_Penalty>
0.0195093

> <b_epik_Metal_Only>
0

> <s_lp_Force_Field>
OPLS_2005

> <r_lp_Energy>
15.7554

> <b_lp_Chiralities_Consistent>
1

> <s_lp_Variant>
AV-unprocessed.smi:3153-1

> <Gold.Version>
5.8.1

> <Gold.Id.Protein>
6NUR|6NUR_protein|mol2

> <Gold.PLP.Fitness>
44.7134

> <Gold.PLP.PLP>
-32.9805

> <Gold.PLP.part.hbond>
-2.0000

> <Gold.PLP.part.metal>
0.0000

> <Gold.PLP.part.buried>
-3.7547

> <Gold.PLP.part.nonpolar>
-28.0700

> <Gold.PLP.part.repulsive>
0.1581

> <Gold.PLP.ligand.clash>
0.0000

> <Gold.PLP.ligand.torsion>
0.1573

> <Gold.PLP.Chemscore.Hbond>
3.0000

> <Gold.PLP.Chemscore.CHOScore>
1.0000

> <Gold.PLP.Chemscore.Metal>
0.0000

> <Gold.Chemscore.Hbonds>
donor molecule, donor type, donor heavy atom, donor atom, acceptor molecule, acceptor atom, score
      L1  H     1    17       P1  7921  1.00
      L1  H     4    20       P1  7948  2.00
      L1  C     8    25       P1  7957  1.00

> <Gold.PLP.Chemscore.Internal.Correction>
0.0475

> <Gold.Rescore>
     Score         DG    S(hbond)    S(metal)    S(lipo)     H(rot)  DE(clash)    DE(int)     intcor
     15.80     -15.98       1.95        0.00      83.66       2.26       0.07       0.12       ----

> <Gold.Chemscore.Fitness>
15.7958

> <Gold.Chemscore.DG>
-15.9845

> <Gold.Chemscore.ZeroCoef>
-5.4800

> <Gold.Chemscore.Hbond>
1.9467

> <Gold.Chemscore.Metal>
0.0000

> <Gold.Chemscore.Lipo>
83.6612

> <Gold.Chemscore.Internal_Hbond>
0.0000

> <Gold.Chemscore.DEClash>
0.0736

> <Gold.Chemscore.DEInternal>
0.1151

> <Gold.Chemscore.Rot>
2.2601

> <Gold.Chemscore.Internal.Correction>
   9.000000E+99

> <Gold.Chemscore.Hbonds>
donor molecule, donor type, donor heavy atom, donor atom, acceptor molecule, acceptor atom, score
      L1  H     1    17       P1  7921  0.97
      L1  H     4    20       P1  7948  0.98

> <Gold.Chemscore.Hbond.Weighted>
-6.5020

> <Gold.Chemscore.Metal.Weighted>
-0.0000

> <Gold.Chemscore.Lipo.Weighted>
-9.7884

> <Gold.Chemscore.Internal_Hbond.Weighted>
0.0000

> <Gold.Chemscore.DEClash.Weighted>
0.0736

> <Gold.Chemscore.DEInternal.Weighted>
0.1151

> <Gold.Chemscore.Rot.Weighted>
5.7858

> <Gold.Chemscore.Internal.Correction.Weighted>
   9.000000E+99

> <Gold.Protein.RotatedTorsions>
[ 6907 6896 6895 6894 ] final  -15.53 input  -60.11 | X-H torsion
[ 7974 7965 7964 7962 ] final  -39.76 input  175.53 | X-H torsion
[ 8008 7997 7996 7995 ] final  -64.23 input   59.86 | X-H torsion
[ 10167 10162 10161 10158 ] final   93.04 input  -65.29 | X-H torsion
[ 10718 10713 10712 10709 ] final    3.56 input   66.30 | X-H torsion
[ 10763 10752 10751 10750 ] final  134.75 input  -60.55 | X-H torsion
[ 11005 11000 10999 10996 ] final  -39.94 input  -57.11 | X-H torsion

> <Gold.Protein.ActiveResidues>
 VAL166  LYS551  ARG553  GLY616  TRP617  ASP618  TYR619  PRO620  LYS621  CYS622 
 ASP623  PHE694  ASN695  SER759  ASP760  ASP761  ALA762  ILE779  LEU786  VAL792 
 PHE793  MET794  SER795  GLU796  ALA797  LYS798  CYS799  TRP800  GLU811  SER814 

> <Gold.Protein.RotatedAtoms>
  151.3225  135.0822  159.9310 H   0  0  0  0  0  0  0  0  0  0  0  0  # atno 6907 bound_to 6896
  152.5253  133.9624  159.7734 H   0  0  0  0  0  0  0  0  0  0  0  0  # atno 6908 bound_to 6896
  150.9948  133.6061  159.2733 H   0  0  0  0  0  0  0  0  0  0  0  0  # atno 6909 bound_to 6896
  146.0366  140.6663  142.9107 H   0  0  0  0  0  0  0  0  0  0  0  0  # atno 7974 bound_to 7965
  154.4600  140.0958  156.6865 H   0  0  0  0  0  0  0  0  0  0  0  0  # atno 8008 bound_to 7997
  155.5024  140.3474  155.4355 H   0  0  0  0  0  0  0  0  0  0  0  0  # atno 8009 bound_to 7997
  156.0851  140.1383  156.9652 H   0  0  0  0  0  0  0  0  0  0  0  0  # atno 8010 bound_to 7997
  139.8218  144.6727  150.9509 H   0  0  0  0  0  0  0  0  0  0  0  0  # atno 10167 bound_to 10162
  156.8796  130.5649  149.5653 H   0  0  0  0  0  0  0  0  0  0  0  0  # atno 10718 bound_to 10713
  153.8286  135.3106  155.3417 H   0  0  0  0  0  0  0  0  0  0  0  0  # atno 10763 bound_to 10752
  154.7982  135.4742  154.0216 H   0  0  0  0  0  0  0  0  0  0  0  0  # atno 10764 bound_to 10752
  153.1648  135.6867  153.8781 H   0  0  0  0  0  0  0  0  0  0  0  0  # atno 10765 bound_to 10752
  141.0139  133.6895  156.2254 H   0  0  0  0  0  0  0  0  0  0  0  0  # atno 11005 bound_to 11000
  144.7055  140.3832  143.7122 LP  0  0  0  0  0  0  0  0  0  0  0  0  # atno 17320 bound_to 7965
  145.6953  139.1648  143.2624 LP  0  0  0  0  0  0  0  0  0  0  0  0  # atno 17321 bound_to 7965
  140.7813  143.4084  151.1033 LP  0  0  0  0  0  0  0  0  0  0  0  0  # atno 17342 bound_to 10162
  139.7744  143.8447  152.3126 LP  0  0  0  0  0  0  0  0  0  0  0  0  # atno 17343 bound_to 10162
  156.0684  130.5722  150.9335 LP  0  0  0  0  0  0  0  0  0  0  0  0  # atno 17370 bound_to 10713
  157.6148  131.0934  150.8730 LP  0  0  0  0  0  0  0  0  0  0  0  0  # atno 17371 bound_to 10713
  140.6688  134.4890  157.5586 LP  0  0  0  0  0  0  0  0  0  0  0  0  # atno 17394 bound_to 11000
  139.9105  134.8355  156.1545 LP  0  0  0  0  0  0  0  0  0  0  0  0  # atno 17395 bound_to 11000

$$$$
