AV-unprocessed.smi:241|AV-procd|sdf|1842|dock4
  -GOLD-   2262020453D 1   1.00000     0.00000
 Structure written by MMmdl.
 54 57  0  0  0  0  0  0  0  0  1 V2000
  148.9641  131.7328  160.3986 C   0  0  0  0  0  0  0  0  0  0  0  0
  149.1363  130.8595  159.2945 O   0  0  0  0  0  0  0  0  0  0  0  0
  150.0741  131.3231  158.3336 C   0  0  0  0  0  0  0  0  0  0  0  0
  150.0758  130.4187  157.0859 C   0  0  2  0  0  0  0  0  0  0  0  0
  150.7811  129.0746  157.2625 C   0  0  0  0  0  0  0  0  0  0  0  0
  151.0172  128.6498  155.8163 C   0  0  2  0  0  0  0  0  0  0  0  0
  152.0894  127.7229  155.7286 O   0  0  0  0  0  0  0  0  0  0  0  0
  153.3304  128.2548  156.1627 C   0  0  0  0  0  0  0  0  0  0  0  0
  151.3019  129.9803  155.1028 C   0  0  0  0  0  0  0  0  0  0  0  0
  150.7630  131.0361  155.9553 N   0  0  0  0  0  0  0  0  0  0  0  0
  150.0800  131.9984  155.2973 C   0  0  0  0  0  0  0  0  0  0  0  0
  150.4043  133.3072  155.4695 N   0  0  0  0  0  0  0  0  0  0  0  0
  149.7245  134.2531  154.8138 C   0  0  0  0  0  0  0  0  0  0  0  0
  148.7053  134.1113  153.9629 N   0  0  0  0  0  0  0  0  0  0  0  0
  148.3772  132.7976  153.7954 C   0  0  0  0  0  0  0  0  0  0  0  0
  149.0127  131.6868  154.4164 C   0  0  0  0  0  0  0  0  0  0  0  0
  148.4245  130.5015  153.9956 N   0  0  0  0  0  0  0  0  0  0  0  0
  147.4945  130.8897  153.1658 C   0  0  0  0  0  0  0  0  0  0  0  0
  147.3774  132.2534  153.0087 N   0  0  0  0  0  0  0  0  0  0  0  0
  146.4727  132.9469  152.1396 C   0  0  0  0  0  0  0  0  0  0  0  0
  145.0997  133.4043  152.6348 C   0  0  0  0  0  0  0  0  0  0  0  0
  144.5270  133.1939  151.2138 C   0  0  0  0  0  0  0  0  0  0  0  0
  143.1390  132.5354  151.1276 C   0  0  0  0  0  0  0  0  0  0  0  0
  142.8617  132.0455  149.8317 O   0  0  0  0  0  0  0  0  0  0  0  0
  144.5716  134.4101  150.2649 C   0  0  0  0  0  0  0  0  0  0  0  0
  143.9994  134.1213  149.0061 O   0  0  0  0  0  0  0  0  0  0  0  0
  145.7089  132.2148  151.0330 C   0  0  0  0  0  0  0  0  0  0  0  0
  149.0402  130.2218  156.8037 H   0  0  0  0  0  0  0  0  0  0  0  0
  150.0950  128.2119  155.4290 H   0  0  0  0  0  0  0  0  0  0  0  0
  148.2457  131.3018  161.0959 H   0  0  0  0  0  0  0  0  0  0  0  0
  148.5756  132.6991  160.0745 H   0  0  0  0  0  0  0  0  0  0  0  0
  149.8971  131.8960  160.9370 H   0  0  0  0  0  0  0  0  0  0  0  0
  149.7542  132.3256  158.0481 H   0  0  0  0  0  0  0  0  0  0  0  0
  151.0777  131.4326  158.7490 H   0  0  0  0  0  0  0  0  0  0  0  0
  151.7346  129.2107  157.7754 H   0  0  0  0  0  0  0  0  0  0  0  0
  150.1887  128.3508  157.8227 H   0  0  0  0  0  0  0  0  0  0  0  0
  154.1082  127.4990  156.0561 H   0  0  0  0  0  0  0  0  0  0  0  0
  153.2954  128.5509  157.2117 H   0  0  0  0  0  0  0  0  0  0  0  0
  153.6194  129.1197  155.5648 H   0  0  0  0  0  0  0  0  0  0  0  0
  152.3769  130.1428  155.0194 H   0  0  0  0  0  0  0  0  0  0  0  0
  150.8902  129.9858  154.0924 H   0  0  0  0  0  0  0  0  0  0  0  0
  150.0408  135.2692  154.9989 H   0  0  0  0  0  0  0  0  0  0  0  0
  146.8605  130.1850  152.6474 H   0  0  0  0  0  0  0  0  0  0  0  0
  147.0340  133.7892  151.7319 H   0  0  0  0  0  0  0  0  0  0  0  0
  144.6726  132.7198  153.3703 H   0  0  0  0  0  0  0  0  0  0  0  0
  145.0735  134.4310  153.0008 H   0  0  0  0  0  0  0  0  0  0  0  0
  143.0456  131.7169  151.8423 H   0  0  0  0  0  0  0  0  0  0  0  0
  142.3559  133.2513  151.3792 H   0  0  0  0  0  0  0  0  0  0  0  0
  142.1943  132.5890  149.4412 H   0  0  0  0  0  0  0  0  0  0  0  0
  144.0304  135.2590  150.6832 H   0  0  0  0  0  0  0  0  0  0  0  0
  145.5958  134.7515  150.1123 H   0  0  0  0  0  0  0  0  0  0  0  0
  144.6991  134.0184  148.3783 H   0  0  0  0  0  0  0  0  0  0  0  0
  146.1901  132.2485  150.0549 H   0  0  0  0  0  0  0  0  0  0  0  0
  145.4602  131.1880  151.3080 H   0  0  0  0  0  0  0  0  0  0  0  0
  1  2  1  0  0  0  0
  1 30  1  0  0  0  0
  1 31  1  0  0  0  0
  1 32  1  0  0  0  0
  2  3  1  0  0  0  0
  3  4  1  0  0  0  0
  3 33  1  0  0  0  0
  3 34  1  0  0  0  0
  4 28  1  0  0  0  0
  4 10  1  0  0  0  0
  4  5  1  0  0  0  0
  5  6  1  0  0  0  0
  5 35  1  0  0  0  0
  5 36  1  0  0  0  0
  6 29  1  0  0  0  0
  6  7  1  0  0  0  0
  6  9  1  0  0  0  0
  7  8  1  0  0  0  0
  8 37  1  0  0  0  0
  8 38  1  0  0  0  0
  8 39  1  0  0  0  0
  9 10  1  0  0  0  0
  9 40  1  0  0  0  0
  9 41  1  0  0  0  0
 10 11  1  0  0  0  0
 11 16  1  0  0  0  0
 11 12  2  0  0  0  0
 12 13  1  0  0  0  0
 13 14  2  0  0  0  0
 13 42  1  0  0  0  0
 14 15  1  0  0  0  0
 15 19  1  0  0  0  0
 15 16  2  0  0  0  0
 16 17  1  0  0  0  0
 17 18  2  0  0  0  0
 18 19  1  0  0  0  0
 18 43  1  0  0  0  0
 19 20  1  0  0  0  0
 20 27  1  0  0  0  0
 20 21  1  0  0  0  0
 20 44  1  0  0  0  0
 21 22  1  0  0  0  0
 21 45  1  0  0  0  0
 21 46  1  0  0  0  0
 22 23  1  0  0  0  0
 22 25  1  0  0  0  0
 22 27  1  0  0  0  0
 23 24  1  0  0  0  0
 23 47  1  0  0  0  0
 23 48  1  0  0  0  0
 24 49  1  0  0  0  0
 25 26  1  0  0  0  0
 25 50  1  0  0  0  0
 25 51  1  0  0  0  0
 26 52  1  0  0  0  0
 27 53  1  0  0  0  0
 27 54  1  0  0  0  0
M  END
> <s_m_source_file>
AV-unprocessed.smi

> <i_m_source_file_index>
241

> <i_lp_mmshare_version>
43012

> <i_f3d_flags>
0

> <s_epik_input>
W0NIM11PW0NIMl1bQ0BASF0xW0NIMl1bQ0BASF0oT1tDSDNdKVtDSDJdTjFjKG5bY0hdbjIpYyhjMjMpbltjSF1uM1tDSF0oW0NIMl00KVtDSDJdQzQoW0NIMl1bT0hdKVtDSDJdW09IXQ==

> <s_epik_cmdline>
J2VwaWtfcHl0aG9uJywgJy1waCcsICc3LjAnLCAnLXRuJywgJzgnLCAnLW1hJywgJzIwMCcsICctbWV0YWxfYmluZGluZycsICctaW1hZScsICc8aW5maWxlLm1hZT4nLCAnLW9tYWUnLCAnPG91dGZpbGUubWFlPic=

> <r_lp_tautomer_probability>
1

> <r_epik_Ionization_Penalty>
0.00568677

> <r_epik_Ionization_Penalty_Charging>
0

> <r_epik_Ionization_Penalty_Neutral>
0.00568677

> <r_epik_State_Penalty>
0.00400877

> <r_epik_Charging_Adjusted_Penalty>
0.00400877

> <i_epik_Tot_Q>
0

> <i_epik_Tot_abs_Q>
0

> <r_epik_Metal_State_Penalty>
-0

> <b_epik_Metal_Only>
0

> <s_lp_Force_Field>
OPLS_2005

> <r_lp_Energy>
58.6567

> <b_lp_Chiralities_Consistent>
1

> <s_lp_Variant>
AV-unprocessed.smi:241-3

> <Gold.Version>
5.8.1

> <Gold.Id.Protein>
6NUR|6NUR_protein|mol2

> <Gold.PLP.Fitness>
43.3828

> <Gold.PLP.PLP>
-38.0056

> <Gold.PLP.part.hbond>
-4.5499

> <Gold.PLP.part.metal>
0.0000

> <Gold.PLP.part.buried>
-3.2042

> <Gold.PLP.part.nonpolar>
-30.4976

> <Gold.PLP.part.repulsive>
0.6555

> <Gold.PLP.ligand.clash>
0.0000

> <Gold.PLP.ligand.torsion>
1.2206

> <Gold.PLP.Chemscore.Hbond>
2.3649

> <Gold.PLP.Chemscore.CHOScore>
0.0000

> <Gold.PLP.Chemscore.Metal>
0.0000

> <Gold.Chemscore.Hbonds>
donor molecule, donor type, donor heavy atom, donor atom, acceptor molecule, acceptor atom, score
      L1  H    24    49       P1 10186  0.62
      L1  H    26    52       P1  7921  0.91
      P1  H 10785 10796       L1    24  0.54

> <Gold.PLP.Chemscore.Internal.Correction>
0.7238

> <Gold.Rescore>
     Score         DG    S(hbond)    S(metal)    S(lipo)     H(rot)  DE(clash)    DE(int)     intcor
      8.41      -9.40       1.99        0.00      63.47       3.97       0.06       0.93       ----

> <Gold.Chemscore.Fitness>
8.4085

> <Gold.Chemscore.DG>
-9.3966

> <Gold.Chemscore.ZeroCoef>
-5.4800

> <Gold.Chemscore.Hbond>
1.9943

> <Gold.Chemscore.Metal>
0.0000

> <Gold.Chemscore.Lipo>
63.4700

> <Gold.Chemscore.Internal_Hbond>
0.0000

> <Gold.Chemscore.DEClash>
0.0553

> <Gold.Chemscore.DEInternal>
0.9328

> <Gold.Chemscore.Rot>
3.9727

> <Gold.Chemscore.Internal.Correction>
   9.000000E+99

> <Gold.Chemscore.Hbonds>
donor molecule, donor type, donor heavy atom, donor atom, acceptor molecule, acceptor atom, score
      L1  H    24    49       P1 10186  0.60
      L1  H    26    52       P1  7921  0.90
      P1  H 10785 10796       L1    24  0.46

> <Gold.Chemscore.Hbond.Weighted>
-6.6608

> <Gold.Chemscore.Metal.Weighted>
-0.0000

> <Gold.Chemscore.Lipo.Weighted>
-7.4260

> <Gold.Chemscore.Internal_Hbond.Weighted>
0.0000

> <Gold.Chemscore.DEClash.Weighted>
0.0553

> <Gold.Chemscore.DEInternal.Weighted>
0.9328

> <Gold.Chemscore.Rot.Weighted>
10.1702

> <Gold.Chemscore.Internal.Correction.Weighted>
   9.000000E+99

> <Gold.Protein.RotatedTorsions>
[ 6907 6896 6895 6894 ] final  154.83 input  -60.11 | X-H torsion
[ 7974 7965 7964 7962 ] final  177.05 input  175.53 | X-H torsion
[ 8008 7997 7996 7995 ] final  -52.65 input   59.86 | X-H torsion
[ 10167 10162 10161 10158 ] final   50.97 input  -65.29 | X-H torsion
[ 10718 10713 10712 10709 ] final   64.76 input   66.30 | X-H torsion
[ 10763 10752 10751 10750 ] final   12.25 input  -60.55 | X-H torsion
[ 11005 11000 10999 10996 ] final   45.28 input  -57.11 | X-H torsion

> <Gold.Protein.ActiveResidues>
 VAL166  LYS551  ARG553  GLY616  TRP617  ASP618  TYR619  PRO620  LYS621  CYS622 
 ASP623  PHE694  ASN695  SER759  ASP760  ASP761  ALA762  ILE779  LEU786  VAL792 
 PHE793  MET794  SER795  GLU796  ALA797  LYS798  CYS799  TRP800  GLU811  SER814 

> <Gold.Protein.RotatedAtoms>
  152.0528  133.4027  159.4384 H   0  0  0  0  0  0  0  0  0  0  0  0  # atno 6907 bound_to 6896
  150.6869  134.3288  159.4827 H   0  0  0  0  0  0  0  0  0  0  0  0  # atno 6908 bound_to 6896
  152.1100  134.9280  160.0617 H   0  0  0  0  0  0  0  0  0  0  0  0  # atno 6909 bound_to 6896
  144.7175  140.0188  143.6440 H   0  0  0  0  0  0  0  0  0  0  0  0  # atno 7974 bound_to 7965
  154.4112  140.1218  156.5026 H   0  0  0  0  0  0  0  0  0  0  0  0  # atno 8008 bound_to 7997
  155.6879  140.3495  155.4862 H   0  0  0  0  0  0  0  0  0  0  0  0  # atno 8009 bound_to 7997
  155.9494  140.1102  157.0979 H   0  0  0  0  0  0  0  0  0  0  0  0  # atno 8010 bound_to 7997
  140.2669  144.3310  150.6301 H   0  0  0  0  0  0  0  0  0  0  0  0  # atno 10167 bound_to 10162
  157.6061  130.9177  149.9887 H   0  0  0  0  0  0  0  0  0  0  0  0  # atno 10718 bound_to 10713
  153.1841  135.6832  153.8438 H   0  0  0  0  0  0  0  0  0  0  0  0  # atno 10763 bound_to 10752
  153.7760  135.3189  155.3360 H   0  0  0  0  0  0  0  0  0  0  0  0  # atno 10764 bound_to 10752
  154.8078  135.4737  154.0533 H   0  0  0  0  0  0  0  0  0  0  0  0  # atno 10765 bound_to 10752
  140.1474  134.4505  155.8406 H   0  0  0  0  0  0  0  0  0  0  0  0  # atno 11005 bound_to 11000
  146.0197  139.3240  143.0820 LP  0  0  0  0  0  0  0  0  0  0  0  0  # atno 17320 bound_to 7965
  145.8583  140.9490  143.0713 LP  0  0  0  0  0  0  0  0  0  0  0  0  # atno 17321 bound_to 7965
  140.5921  143.2168  151.7233 LP  0  0  0  0  0  0  0  0  0  0  0  0  # atno 17342 bound_to 10162
  139.5000  144.3923  152.0267 LP  0  0  0  0  0  0  0  0  0  0  0  0  # atno 17343 bound_to 10162
  156.1147  130.3648  149.9988 LP  0  0  0  0  0  0  0  0  0  0  0  0  # atno 17370 bound_to 10713
  156.8079  130.9314  151.3645 LP  0  0  0  0  0  0  0  0  0  0  0  0  # atno 17371 bound_to 10713
  141.2194  133.6858  156.7359 LP  0  0  0  0  0  0  0  0  0  0  0  0  # atno 17394 bound_to 11000
  140.2646  134.8439  157.3791 LP  0  0  0  0  0  0  0  0  0  0  0  0  # atno 17395 bound_to 11000

$$$$
