AV-unprocessed.smi:1207|AV-procd|sdf|5055|dock4
  -GOLD-   22720 4 83D 1   1.00000     0.00000
 Structure written by MMmdl.
 52 54  0  0  0  0  0  0  0  0  2 V2000
  152.2687  142.8322  160.4185 C   0  0  0  0  0  0  0  0  0  0  0  0
  151.8684  142.1057  159.1457 C   0  0  0  0  0  0  0  0  0  0  0  0
  151.7901  140.6948  159.1704 C   0  0  0  0  0  0  0  0  0  0  0  0
  151.4154  140.0595  157.9923 C   0  0  0  0  0  0  0  0  0  0  0  0
  151.2446  138.7053  157.6953 N   0  3  0  0  0  0  0  0  0  0  0  0
  150.8612  138.5701  156.3952 C   0  0  0  0  0  0  0  0  0  0  0  0
  150.7859  139.8180  155.8588 N   0  0  0  0  0  0  0  0  0  0  0  0
  150.4124  140.2435  154.5037 C   0  0  0  0  0  0  0  0  0  0  0  0
  148.9211  140.6129  154.3831 C   0  0  2  0  0  0  0  0  0  0  0  0
  148.6366  140.9543  153.0409 O   0  0  0  0  0  0  0  0  0  0  0  0
  148.5590  141.8159  155.2779 C   0  0  0  0  0  0  0  0  0  0  0  0
  147.1465  141.9142  155.6526 N   0  0  0  0  0  0  0  0  0  0  0  0
  146.7421  140.7202  156.3900 C   0  0  0  0  0  0  0  0  0  0  0  0
  146.2796  142.1235  154.4877 C   0  0  0  0  0  0  0  0  0  0  0  0
  145.1698  143.1095  154.7478 C   0  0  0  0  0  0  0  0  0  0  0  0
  144.2413  143.1174  155.8277 C   0  0  0  0  0  0  0  0  0  0  0  0
  144.1380  142.1531  156.9742 C   0  0  0  0  0  0  0  0  0  0  0  0
  143.3948  144.1301  155.7446 N   0  0  0  0  0  0  0  0  0  0  0  0
  143.7472  144.8292  154.5860 O   0  0  0  0  0  0  0  0  0  0  0  0
  144.8053  144.2028  154.0109 C   0  0  0  0  0  0  0  0  0  0  0  0
  145.3296  144.8009  152.7493 C   0  0  0  0  0  0  0  0  0  0  0  0
  151.1256  140.7784  156.8167 C   0  0  0  0  0  0  0  0  0  0  0  0
  151.2021  142.1680  156.7730 C   0  0  0  0  0  0  0  0  0  0  0  0
  151.5785  142.8329  157.9618 C   0  0  0  0  0  0  0  0  0  0  0  0
  151.6649  144.3495  157.9467 C   0  0  0  0  0  0  0  0  0  0  0  0
  152.4635  142.1332  161.2325 H   0  0  0  0  0  0  0  0  0  0  0  0
  151.4737  143.5051  160.7408 H   0  0  0  0  0  0  0  0  0  0  0  0
  153.1748  143.4171  160.2577 H   0  0  0  0  0  0  0  0  0  0  0  0
  152.0090  140.1348  160.0678 H   0  0  0  0  0  0  0  0  0  0  0  0
  150.6492  137.6420  155.8838 H   0  0  0  0  0  0  0  0  0  0  0  0
  151.0478  141.0843  154.2219 H   0  0  0  0  0  0  0  0  0  0  0  0
  150.6580  139.4266  153.8233 H   0  0  0  0  0  0  0  0  0  0  0  0
  148.3253  139.7385  154.6372 H   0  0  0  0  0  0  0  0  0  0  0  0
  148.9283  140.2461  152.4866 H   0  0  0  0  0  0  0  0  0  0  0  0
  149.1610  141.7853  156.1876 H   0  0  0  0  0  0  0  0  0  0  0  0
  148.8677  142.7240  154.7570 H   0  0  0  0  0  0  0  0  0  0  0  0
  145.7134  140.8000  156.7419 H   0  0  0  0  0  0  0  0  0  0  0  0
  147.3704  140.5765  157.2696 H   0  0  0  0  0  0  0  0  0  0  0  0
  146.8205  139.8274  155.7682 H   0  0  0  0  0  0  0  0  0  0  0  0
  146.8651  142.4833  153.6443 H   0  0  0  0  0  0  0  0  0  0  0  0
  145.8766  141.1640  154.1607 H   0  0  0  0  0  0  0  0  0  0  0  0
  143.8192  141.1703  156.6270 H   0  0  0  0  0  0  0  0  0  0  0  0
  143.4197  142.4885  157.7232 H   0  0  0  0  0  0  0  0  0  0  0  0
  145.1011  142.0341  157.4707 H   0  0  0  0  0  0  0  0  0  0  0  0
  146.3619  144.4991  152.5718 H   0  0  0  0  0  0  0  0  0  0  0  0
  145.3012  145.8897  152.7947 H   0  0  0  0  0  0  0  0  0  0  0  0
  144.7324  144.4818  151.8953 H   0  0  0  0  0  0  0  0  0  0  0  0
  150.9798  142.7198  155.8716 H   0  0  0  0  0  0  0  0  0  0  0  0
  151.4140  144.7538  156.9656 H   0  0  0  0  0  0  0  0  0  0  0  0
  152.6744  144.6785  158.1938 H   0  0  0  0  0  0  0  0  0  0  0  0
  150.9724  144.7799  158.6707 H   0  0  0  0  0  0  0  0  0  0  0  0
  151.3758  137.9289  158.3310 H   0  0  0  0  0  0  0  0  0  0  0  0
  1  2  1  0  0  0  0
  1 26  1  0  0  0  0
  1 27  1  0  0  0  0
  1 28  1  0  0  0  0
  2 24  1  0  0  0  0
  2  3  2  0  0  0  0
  3  4  1  0  0  0  0
  3 29  1  0  0  0  0
  4 22  2  0  0  0  0
  4  5  1  0  0  0  0
  5  6  2  0  0  0  0
  5 52  1  0  0  0  0
  6  7  1  0  0  0  0
  6 30  1  0  0  0  0
  7  8  1  0  0  0  0
  7 22  1  0  0  0  0
  8  9  1  0  0  0  0
  8 31  1  0  0  0  0
  8 32  1  0  0  0  0
  9 10  1  0  0  0  0
  9 11  1  0  0  0  0
  9 33  1  0  0  0  0
 10 34  1  0  0  0  0
 11 12  1  0  0  0  0
 11 35  1  0  0  0  0
 11 36  1  0  0  0  0
 12 13  1  0  0  0  0
 12 14  1  0  0  0  0
 13 37  1  0  0  0  0
 13 38  1  0  0  0  0
 13 39  1  0  0  0  0
 14 15  1  0  0  0  0
 14 40  1  0  0  0  0
 14 41  1  0  0  0  0
 15 20  2  0  0  0  0
 15 16  1  0  0  0  0
 16 17  1  0  0  0  0
 16 18  2  0  0  0  0
 17 42  1  0  0  0  0
 17 43  1  0  0  0  0
 17 44  1  0  0  0  0
 18 19  1  0  0  0  0
 19 20  1  0  0  0  0
 20 21  1  0  0  0  0
 21 45  1  0  0  0  0
 21 46  1  0  0  0  0
 21 47  1  0  0  0  0
 22 23  1  0  0  0  0
 23 24  2  0  0  0  0
 23 48  1  0  0  0  0
 24 25  1  0  0  0  0
 25 49  1  0  0  0  0
 25 50  1  0  0  0  0
 25 51  1  0  0  0  0
M  CHG  1   5   1
M  END
> <s_m_source_file>
AV-unprocessed.smi

> <i_m_source_file_index>
1207

> <i_lp_mmshare_version>
43012

> <i_f3d_flags>
0

> <s_epik_input>
W0NIM11jKFtjSF0xKWMoW0NIM10pW2NIXWMoYzEyKW4oW2NIXW4yKVtDSDJdW0NASF0oW09IXSlbQ0gyXU4oW0NIM10pW0NIMl1jM2MoW0NIM10pbm9jM1tDSDNd

> <s_epik_cmdline>
J2VwaWtfcHl0aG9uJywgJy1waCcsICc3LjAnLCAnLXRuJywgJzgnLCAnLW1hJywgJzIwMCcsICctbWV0YWxfYmluZGluZycsICctaW1hZScsICc8aW5maWxlLm1hZT4nLCAnLW9tYWUnLCAnPG91dGZpbGUubWFlPic=

> <r_epik_Ionization_Penalty>
1.48114

> <r_epik_Ionization_Penalty_Charging>
1.21121

> <r_epik_Ionization_Penalty_Neutral>
0.269933

> <r_epik_State_Penalty>
1.53013

> <r_epik_Charging_Adjusted_Penalty>
2.74134

> <i_epik_Tot_Q>
1

> <i_epik_Tot_abs_Q>
1

> <r_epik_Metal_State_Penalty>
1.60462

> <b_epik_Metal_Only>
0

> <s_lp_Force_Field>
OPLS_2005

> <r_lp_Energy>
21.4613

> <b_lp_Chiralities_Consistent>
1

> <s_lp_Variant>
AV-unprocessed.smi:1207-7

> <Gold.Version>
5.8.1

> <Gold.Id.Protein>
6NUR|6NUR_protein|mol2

> <Gold.PLP.Fitness>
45.8179

> <Gold.PLP.PLP>
-42.7474

> <Gold.PLP.part.hbond>
-1.2030

> <Gold.PLP.part.metal>
0.0000

> <Gold.PLP.part.buried>
-0.6567

> <Gold.PLP.part.nonpolar>
-41.5164

> <Gold.PLP.part.repulsive>
0.3169

> <Gold.PLP.ligand.clash>
0.0000

> <Gold.PLP.ligand.torsion>
1.2185

> <Gold.PLP.Chemscore.Hbond>
1.6891

> <Gold.PLP.Chemscore.CHOScore>
0.0000

> <Gold.PLP.Chemscore.Metal>
0.0000

> <Gold.Chemscore.Hbonds>
donor molecule, donor type, donor heavy atom, donor atom, acceptor molecule, acceptor atom, score
      L1  H    10    34       P1  7957  0.73
      P1  H  8011  8017       L1    10  0.95

> <Gold.PLP.Chemscore.Internal.Correction>
0.4402

> <Gold.Rescore>
     Score         DG    S(hbond)    S(metal)    S(lipo)     H(rot)  DE(clash)    DE(int)     intcor
     13.41     -17.58       1.27        0.00     120.98       2.46       2.69       1.48       ----

> <Gold.Chemscore.Fitness>
13.4135

> <Gold.Chemscore.DG>
-17.5830

> <Gold.Chemscore.ZeroCoef>
-5.4800

> <Gold.Chemscore.Hbond>
1.2678

> <Gold.Chemscore.Metal>
0.0000

> <Gold.Chemscore.Lipo>
120.9800

> <Gold.Chemscore.Internal_Hbond>
0.0000

> <Gold.Chemscore.DEClash>
2.6924

> <Gold.Chemscore.DEInternal>
1.4771

> <Gold.Chemscore.Rot>
2.4555

> <Gold.Chemscore.Internal.Correction>
   9.000000E+99

> <Gold.Chemscore.Hbonds>
donor molecule, donor type, donor heavy atom, donor atom, acceptor molecule, acceptor atom, score
      L1  H    10    34       P1  7957  0.69
      P1  H  8011  8017       L1    10  0.18

> <Gold.Chemscore.Hbond.Weighted>
-4.2344

> <Gold.Chemscore.Metal.Weighted>
-0.0000

> <Gold.Chemscore.Lipo.Weighted>
-14.1547

> <Gold.Chemscore.Internal_Hbond.Weighted>
0.0000

> <Gold.Chemscore.DEClash.Weighted>
2.6924

> <Gold.Chemscore.DEInternal.Weighted>
1.4771

> <Gold.Chemscore.Rot.Weighted>
6.2861

> <Gold.Chemscore.Internal.Correction.Weighted>
   9.000000E+99

> <Gold.Protein.RotatedTorsions>
[ 6907 6896 6895 6894 ] final  139.80 input  -60.11 | X-H torsion
[ 7974 7965 7964 7962 ] final  -27.36 input  175.53 | X-H torsion
[ 8008 7997 7996 7995 ] final -103.17 input   59.86 | X-H torsion
[ 10167 10162 10161 10158 ] final -131.72 input  -65.29 | X-H torsion
[ 10718 10713 10712 10709 ] final  -20.24 input   66.30 | X-H torsion
[ 10763 10752 10751 10750 ] final    7.04 input  -60.55 | X-H torsion
[ 11005 11000 10999 10996 ] final -146.88 input  -57.11 | X-H torsion

> <Gold.Protein.ActiveResidues>
 VAL166  LYS551  ARG553  GLY616  TRP617  ASP618  TYR619  PRO620  LYS621  CYS622 
 ASP623  PHE694  ASN695  SER759  ASP760  ASP761  ALA762  ILE779  LEU786  VAL792 
 PHE793  MET794  SER795  GLU796  ALA797  LYS798  CYS799  TRP800  GLU811  SER814 

> <Gold.Protein.RotatedAtoms>
  152.2506  133.5212  159.5323 H   0  0  0  0  0  0  0  0  0  0  0  0  # atno 6907 bound_to 6896
  150.7092  134.0965  159.3959 H   0  0  0  0  0  0  0  0  0  0  0  0  # atno 6908 bound_to 6896
  151.8884  135.0426  160.0546 H   0  0  0  0  0  0  0  0  0  0  0  0  # atno 6909 bound_to 6896
  146.1363  140.5141  142.8671 H   0  0  0  0  0  0  0  0  0  0  0  0  # atno 7974 bound_to 7965
  154.8671  140.0424  157.1701 H   0  0  0  0  0  0  0  0  0  0  0  0  # atno 8008 bound_to 7997
  154.8778  140.2968  155.5422 H   0  0  0  0  0  0  0  0  0  0  0  0  # atno 8009 bound_to 7997
  156.2999  140.2417  156.3776 H   0  0  0  0  0  0  0  0  0  0  0  0  # atno 8010 bound_to 7997
  139.9159  143.6439  152.2565 H   0  0  0  0  0  0  0  0  0  0  0  0  # atno 10167 bound_to 10162
  156.5346  130.4663  149.6529 H   0  0  0  0  0  0  0  0  0  0  0  0  # atno 10718 bound_to 10713
  153.2408  135.6903  153.7785 H   0  0  0  0  0  0  0  0  0  0  0  0  # atno 10763 bound_to 10752
  153.6916  135.3312  155.3204 H   0  0  0  0  0  0  0  0  0  0  0  0  # atno 10764 bound_to 10752
  154.8354  135.4546  154.1329 H   0  0  0  0  0  0  0  0  0  0  0  0  # atno 10765 bound_to 10752
  140.7775  134.3118  157.5056 H   0  0  0  0  0  0  0  0  0  0  0  0  # atno 11005 bound_to 11000
  144.7744  140.5707  143.6648 LP  0  0  0  0  0  0  0  0  0  0  0  0  # atno 17320 bound_to 7965
  145.5148  139.1478  143.3585 LP  0  0  0  0  0  0  0  0  0  0  0  0  # atno 17321 bound_to 7965
  139.6902  144.7647  151.1452 LP  0  0  0  0  0  0  0  0  0  0  0  0  # atno 17342 bound_to 10162
  140.7674  143.5600  150.9110 LP  0  0  0  0  0  0  0  0  0  0  0  0  # atno 17343 bound_to 10162
  156.3028  130.7186  151.2061 LP  0  0  0  0  0  0  0  0  0  0  0  0  # atno 17370 bound_to 10713
  157.7416  131.0502  150.5086 LP  0  0  0  0  0  0  0  0  0  0  0  0  # atno 17371 bound_to 10713
  139.8747  134.9298  156.3486 LP  0  0  0  0  0  0  0  0  0  0  0  0  # atno 17394 bound_to 11000
  140.9515  133.7448  156.0278 LP  0  0  0  0  0  0  0  0  0  0  0  0  # atno 17395 bound_to 11000

$$$$
