AV-unprocessed.smi:663|AV-procd|sdf|3249|dock6
  -GOLD-   22720 0203D 1   1.00000     0.00000
 Structure written by MMmdl.
 29 30  0  0  0  0  0  0  0  0  2 V2000
  149.7226  138.4340  153.3618 N   0  0  0  0  0  0  0  0  0  0  0  0
  149.8621  139.1803  154.4602 C   0  0  0  0  0  0  0  0  0  0  0  0
  150.3356  140.3143  154.4239 O   0  0  0  0  0  0  0  0  0  0  0  0
  149.4134  138.5569  155.7866 C   0  0  0  0  0  0  0  0  0  0  0  0
  150.5638  138.3050  156.7926 C   0  0  2  0  0  0  0  0  0  0  0  0
  150.1972  137.1997  157.6760 N   0  0  0  0  0  0  0  0  0  0  0  0
  149.3940  137.2652  158.7483 C   0  0  0  0  0  0  0  0  0  0  0  0
  148.8866  138.3405  159.0754 O   0  0  0  0  0  0  0  0  0  0  0  0
  149.2309  136.0784  159.3766 N   0  5  0  0  0  0  0  0  0  0  0  0
  148.3544  135.9672  160.3883 C   0  0  0  0  0  0  0  0  0  0  0  0
  147.8372  137.0385  161.0113 N   0  0  0  0  0  0  0  0  0  0  0  0
  146.9589  136.7047  162.0334 N   0  0  0  0  0  0  0  0  0  0  0  0
  146.8418  135.3833  162.1609 C   0  0  0  0  0  0  0  0  0  0  0  0
  147.7950  134.4269  161.0462 S   0  0  0  0  0  0  0  0  0  0  0  0
  150.9212  139.5560  157.5813 C   0  0  0  0  0  0  0  0  0  0  0  0
  150.1091  140.8274  157.4827 C   0  0  0  0  0  0  0  0  0  0  0  0
  151.4975  140.7676  156.8884 C   0  0  0  0  0  0  0  0  0  0  0  0
  150.0052  138.8040  152.4659 H   0  0  0  0  0  0  0  0  0  0  0  0
  149.3358  137.5040  153.4310 H   0  0  0  0  0  0  0  0  0  0  0  0
  148.6481  139.1809  156.2512 H   0  0  0  0  0  0  0  0  0  0  0  0
  148.9241  137.6137  155.5399 H   0  0  0  0  0  0  0  0  0  0  0  0
  151.4578  138.0088  156.2398 H   0  0  0  0  0  0  0  0  0  0  0  0
  150.5865  136.2958  157.4517 H   0  0  0  0  0  0  0  0  0  0  0  0
  146.1922  134.9693  162.9177 H   0  0  0  0  0  0  0  0  0  0  0  0
  151.3390  139.3401  158.5631 H   0  0  0  0  0  0  0  0  0  0  0  0
  149.2719  140.8489  156.7880 H   0  0  0  0  0  0  0  0  0  0  0  0
  149.9740  141.4070  158.3934 H   0  0  0  0  0  0  0  0  0  0  0  0
  152.2897  141.3089  157.4015 H   0  0  0  0  0  0  0  0  0  0  0  0
  151.5784  140.7387  155.8036 H   0  0  0  0  0  0  0  0  0  0  0  0
  1  2  1  0  0  0  0
  1 18  1  0  0  0  0
  1 19  1  0  0  0  0
  2  3  2  0  0  0  0
  2  4  1  0  0  0  0
  4  5  1  0  0  0  0
  4 20  1  0  0  0  0
  4 21  1  0  0  0  0
  5  6  1  0  0  0  0
  5 15  1  0  0  0  0
  5 22  1  0  0  0  0
  6  7  1  0  0  0  0
  6 23  1  0  0  0  0
  7  8  2  0  0  0  0
  7  9  1  0  0  0  0
  9 10  1  0  0  0  0
 10 14  1  0  0  0  0
 10 11  2  0  0  0  0
 11 12  1  0  0  0  0
 12 13  2  0  0  0  0
 13 14  1  0  0  0  0
 13 24  1  0  0  0  0
 15 17  1  0  0  0  0
 15 16  1  0  0  0  0
 15 25  1  0  0  0  0
 16 17  1  0  0  0  0
 16 26  1  0  0  0  0
 16 27  1  0  0  0  0
 17 28  1  0  0  0  0
 17 29  1  0  0  0  0
M  CHG  1   9  -1
M  END
> <s_m_source_file>
AV-unprocessed.smi

> <i_m_source_file_index>
663

> <i_lp_mmshare_version>
43012

> <i_f3d_flags>
0

> <s_epik_input>
W05IMl1DKD1PKVtDSDJdW0NAQEhdKFtDSF0xW0NIMl1bQ0gyXTEpW05IXUMoPU8pW05IXWMybm5bY0hdczI=

> <s_epik_cmdline>
J2VwaWtfcHl0aG9uJywgJy1waCcsICc3LjAnLCAnLXRuJywgJzgnLCAnLW1hJywgJzIwMCcsICctbWV0YWxfYmluZGluZycsICctaW1hZScsICc8aW5maWxlLm1hZT4nLCAnLW9tYWUnLCAnPG91dGZpbGUubWFlPic=

> <r_lp_tautomer_probability>
1

> <r_epik_Ionization_Penalty>
4.41895

> <r_epik_Ionization_Penalty_Charging>
4.37725

> <r_epik_Ionization_Penalty_Neutral>
0.0416999

> <r_epik_State_Penalty>
4.37688

> <r_epik_Charging_Adjusted_Penalty>
8.75413

> <i_epik_Tot_Q>
-1

> <i_epik_Tot_abs_Q>
1

> <r_epik_Metal_State_Penalty>
0.761195

> <b_epik_Metal_Only>
1

> <s_lp_Force_Field>
OPLS_2005

> <r_lp_Energy>
9.70165

> <b_lp_Chiralities_Consistent>
1

> <s_lp_Variant>
AV-unprocessed.smi:663-3

> <Gold.Version>
5.8.1

> <Gold.Id.Protein>
6NUR|6NUR_protein|mol2

> <Gold.PLP.Fitness>
41.4564

> <Gold.PLP.PLP>
-25.2857

> <Gold.PLP.part.hbond>
-7.8652

> <Gold.PLP.part.metal>
0.0000

> <Gold.PLP.part.buried>
-4.9742

> <Gold.PLP.part.nonpolar>
-13.9241

> <Gold.PLP.part.repulsive>
0.2555

> <Gold.PLP.ligand.clash>
0.0000

> <Gold.PLP.ligand.torsion>
1.3566

> <Gold.PLP.Chemscore.Hbond>
5.9209

> <Gold.PLP.Chemscore.CHOScore>
0.0000

> <Gold.PLP.Chemscore.Metal>
0.0000

> <Gold.Chemscore.Hbonds>
donor molecule, donor type, donor heavy atom, donor atom, acceptor molecule, acceptor atom, score
      L1  H     1    18       P1  7957  0.93
      L1  H     1    19       P1  7948  0.50
      P1  H  6896  6909       L1     9  2.00
      P1  H  6931  6943       L1    11  0.99
      P1  H  6934  6947       L1    11  0.51
      P1  H  7989  7998       L1     3  1.00

> <Gold.PLP.Chemscore.Internal.Correction>
1.1212

> <Gold.Rescore>
     Score         DG    S(hbond)    S(metal)    S(lipo)     H(rot)  DE(clash)    DE(int)     intcor
      9.48     -15.54       3.77        0.00      32.69       2.49       0.08       5.97       ----

> <Gold.Chemscore.Fitness>
9.4850

> <Gold.Chemscore.DG>
-15.5381

> <Gold.Chemscore.ZeroCoef>
-5.4800

> <Gold.Chemscore.Hbond>
3.7720

> <Gold.Chemscore.Metal>
0.0000

> <Gold.Chemscore.Lipo>
32.6870

> <Gold.Chemscore.Internal_Hbond>
0.0000

> <Gold.Chemscore.DEClash>
0.0811

> <Gold.Chemscore.DEInternal>
5.9720

> <Gold.Chemscore.Rot>
2.4863

> <Gold.Chemscore.Internal.Correction>
   9.000000E+99

> <Gold.Chemscore.Hbonds>
donor molecule, donor type, donor heavy atom, donor atom, acceptor molecule, acceptor atom, score
      L1  H     1    18       P1  7957  0.31
      L1  H     1    19       P1  7948  0.46
      P1  H  6896  6909       L1     9  0.65
      P1  H  6931  6943       L1    11  0.31
      P1  H  6934  6947       L1    11  0.05
      P1  H  7989  7998       L1     3  0.96

> <Gold.Chemscore.Hbond.Weighted>
-12.5985

> <Gold.Chemscore.Metal.Weighted>
-0.0000

> <Gold.Chemscore.Lipo.Weighted>
-3.8244

> <Gold.Chemscore.Internal_Hbond.Weighted>
0.0000

> <Gold.Chemscore.DEClash.Weighted>
0.0811

> <Gold.Chemscore.DEInternal.Weighted>
5.9720

> <Gold.Chemscore.Rot.Weighted>
6.3648

> <Gold.Chemscore.Internal.Correction.Weighted>
   9.000000E+99

> <Gold.Protein.RotatedTorsions>
[ 6907 6896 6895 6894 ] final   67.09 input  -60.11 | X-H torsion
[ 7974 7965 7964 7962 ] final -109.53 input  175.53 | X-H torsion
[ 8008 7997 7996 7995 ] final  161.40 input   59.86 | X-H torsion
[ 10167 10162 10161 10158 ] final  -99.40 input  -65.29 | X-H torsion
[ 10718 10713 10712 10709 ] final -125.18 input   66.30 | X-H torsion
[ 10763 10752 10751 10750 ] final  -99.12 input  -60.55 | X-H torsion
[ 11005 11000 10999 10996 ] final  157.36 input  -57.11 | X-H torsion

> <Gold.Protein.ActiveResidues>
 VAL166  LYS551  ARG553  GLY616  TRP617  ASP618  TYR619  PRO620  LYS621  CYS622 
 ASP623  PHE694  ASN695  SER759  ASP760  ASP761  ALA762  ILE779  LEU786  VAL792 
 PHE793  MET794  SER795  GLU796  ALA797  LYS798  CYS799  TRP800  GLU811  SER814 

> <Gold.Protein.RotatedAtoms>
  152.4527  134.5358  159.9824 H   0  0  0  0  0  0  0  0  0  0  0  0  # atno 6907 bound_to 6896
  151.5427  133.3424  159.2946 H   0  0  0  0  0  0  0  0  0  0  0  0  # atno 6908 bound_to 6896
  150.8461  134.7802  159.7035 H   0  0  0  0  0  0  0  0  0  0  0  0  # atno 6909 bound_to 6896
  145.1794  140.8964  143.3489 H   0  0  0  0  0  0  0  0  0  0  0  0  # atno 7974 bound_to 7965
  156.2106  140.1778  156.7704 H   0  0  0  0  0  0  0  0  0  0  0  0  # atno 8008 bound_to 7997
  154.5716  140.0681  156.9003 H   0  0  0  0  0  0  0  0  0  0  0  0  # atno 8009 bound_to 7997
  155.2662  140.3339  155.4271 H   0  0  0  0  0  0  0  0  0  0  0  0  # atno 8010 bound_to 7997
  140.2628  143.3396  152.0609 H   0  0  0  0  0  0  0  0  0  0  0  0  # atno 10167 bound_to 10162
  156.1653  130.6630  151.0106 H   0  0  0  0  0  0  0  0  0  0  0  0  # atno 10718 bound_to 10713
  154.7471  135.4984  153.9223 H   0  0  0  0  0  0  0  0  0  0  0  0  # atno 10763 bound_to 10752
  153.1104  135.6707  153.9519 H   0  0  0  0  0  0  0  0  0  0  0  0  # atno 10764 bound_to 10752
  153.9280  135.3081  155.3425 H   0  0  0  0  0  0  0  0  0  0  0  0  # atno 10765 bound_to 10752
  140.1762  134.8508  157.2749 H   0  0  0  0  0  0  0  0  0  0  0  0  # atno 11005 bound_to 11000
  145.0152  139.3474  143.6100 LP  0  0  0  0  0  0  0  0  0  0  0  0  # atno 17320 bound_to 7965
  146.3456  139.9430  142.8738 LP  0  0  0  0  0  0  0  0  0  0  0  0  # atno 17321 bound_to 7965
  139.5011  144.6707  151.6248 LP  0  0  0  0  0  0  0  0  0  0  0  0  # atno 17342 bound_to 10162
  140.5952  143.9709  150.6350 LP  0  0  0  0  0  0  0  0  0  0  0  0  # atno 17343 bound_to 10162
  157.6763  131.0849  150.7486 LP  0  0  0  0  0  0  0  0  0  0  0  0  # atno 17370 bound_to 10713
  156.7547  130.4779  149.5449 LP  0  0  0  0  0  0  0  0  0  0  0  0  # atno 17371 bound_to 10713
  140.2320  134.3897  155.7517 LP  0  0  0  0  0  0  0  0  0  0  0  0  # atno 17394 bound_to 11000
  141.2220  133.7220  156.8655 LP  0  0  0  0  0  0  0  0  0  0  0  0  # atno 17395 bound_to 11000

$$$$
