AV-unprocessed.smi:937|AV-procd|sdf|4212|dock4
  -GOLD-   22720 2123D 1   1.00000     0.00000
 Structure written by MMmdl.
 45 46  0  0  0  0  0  0  0  0  1 V2000
  152.0012  142.4593  158.2789 C   0  0  0  0  0  0  0  0  0  0  0  0
  151.3678  141.5687  157.2306 C   0  0  0  0  0  0  0  0  0  0  0  0
  150.2620  142.0122  156.4747 C   0  0  0  0  0  0  0  0  0  0  0  0
  149.7100  141.1384  155.5181 C   0  0  0  0  0  0  0  0  0  0  0  0
  150.2830  139.8605  155.3535 C   0  0  0  0  0  0  0  0  0  0  0  0
  149.7223  138.8759  154.3465 C   0  0  0  0  0  0  0  0  0  0  0  0
  148.9352  137.7461  155.0235 C   0  0  0  0  0  0  0  0  0  0  0  0
  148.1204  137.0331  154.0499 N   0  0  0  0  0  0  0  0  0  0  0  0
  146.8214  136.7362  154.2151 C   0  0  0  0  0  0  0  0  0  0  0  0
  146.1778  137.0487  155.2149 O   0  0  0  0  0  0  0  0  0  0  0  0
  146.2650  136.0504  153.2004 N   0  0  0  0  0  0  0  0  0  0  0  0
  144.8844  135.5745  153.0646 C   0  0  1  0  0  0  0  0  0  0  0  0
  144.1074  136.3632  151.9880 C   0  0  0  0  0  0  0  0  0  0  0  0
  144.6119  136.0556  150.5690 C   0  0  0  0  0  0  0  0  0  0  0  0
  144.5744  134.5474  150.2789 C   0  0  0  0  0  0  0  0  0  0  0  0
  145.3813  133.7456  151.3217 C   0  0  2  0  0  0  0  0  0  0  0  0
  145.3596  132.2309  151.0294 C   0  0  0  0  0  0  0  0  0  0  0  0
  146.0958  131.5647  151.9195 F   0  0  0  0  0  0  0  0  0  0  0  0
  144.1083  131.7739  151.0767 F   0  0  0  0  0  0  0  0  0  0  0  0
  145.8417  131.9958  149.8090 F   0  0  0  0  0  0  0  0  0  0  0  0
  144.8764  134.0651  152.7483 C   0  0  0  0  0  0  0  0  0  0  0  0
  151.3895  139.5163  156.1584 C   0  0  0  0  0  0  0  0  0  0  0  0
  151.9247  140.3469  157.0789 N   0  0  0  0  0  0  0  0  0  0  0  0
  151.5064  143.4298  158.3258 H   0  0  0  0  0  0  0  0  0  0  0  0
  153.0543  142.6256  158.0506 H   0  0  0  0  0  0  0  0  0  0  0  0
  151.9308  141.9945  159.2628 H   0  0  0  0  0  0  0  0  0  0  0  0
  149.8433  142.9968  156.6238 H   0  0  0  0  0  0  0  0  0  0  0  0
  148.8611  141.4454  154.9250 H   0  0  0  0  0  0  0  0  0  0  0  0
  149.0841  139.4083  153.6399 H   0  0  0  0  0  0  0  0  0  0  0  0
  150.5473  138.4616  153.7654 H   0  0  0  0  0  0  0  0  0  0  0  0
  149.6259  137.0521  155.5056 H   0  0  0  0  0  0  0  0  0  0  0  0
  148.2869  138.1497  155.8023 H   0  0  0  0  0  0  0  0  0  0  0  0
  148.5740  136.7367  153.1981 H   0  0  0  0  0  0  0  0  0  0  0  0
  146.8834  135.8048  152.4409 H   0  0  0  0  0  0  0  0  0  0  0  0
  144.3819  135.7058  154.0247 H   0  0  0  0  0  0  0  0  0  0  0  0
  143.0504  136.1017  152.0511 H   0  0  0  0  0  0  0  0  0  0  0  0
  144.1604  137.4359  152.1766 H   0  0  0  0  0  0  0  0  0  0  0  0
  144.0029  136.5873  149.8375 H   0  0  0  0  0  0  0  0  0  0  0  0
  145.6298  136.4287  150.4487 H   0  0  0  0  0  0  0  0  0  0  0  0
  143.5386  134.2057  150.2701 H   0  0  0  0  0  0  0  0  0  0  0  0
  144.9668  134.3636  149.2784 H   0  0  0  0  0  0  0  0  0  0  0  0
  146.4208  134.0700  151.2530 H   0  0  0  0  0  0  0  0  0  0  0  0
  145.4763  133.5328  153.4876 H   0  0  0  0  0  0  0  0  0  0  0  0
  143.8592  133.6875  152.8606 H   0  0  0  0  0  0  0  0  0  0  0  0
  151.8556  138.5465  156.0651 H   0  0  0  0  0  0  0  0  0  0  0  0
  1  2  1  0  0  0  0
  1 24  1  0  0  0  0
  1 25  1  0  0  0  0
  1 26  1  0  0  0  0
  2 23  1  0  0  0  0
  2  3  2  0  0  0  0
  3  4  1  0  0  0  0
  3 27  1  0  0  0  0
  4  5  2  0  0  0  0
  4 28  1  0  0  0  0
  5  6  1  0  0  0  0
  5 22  1  0  0  0  0
  6  7  1  0  0  0  0
  6 29  1  0  0  0  0
  6 30  1  0  0  0  0
  7  8  1  0  0  0  0
  7 31  1  0  0  0  0
  7 32  1  0  0  0  0
  8  9  1  0  0  0  0
  8 33  1  0  0  0  0
  9 10  2  0  0  0  0
  9 11  1  0  0  0  0
 11 12  1  0  0  0  0
 11 34  1  0  0  0  0
 12 21  1  0  0  0  0
 12 13  1  0  0  0  0
 12 35  1  0  0  0  0
 13 14  1  0  0  0  0
 13 36  1  0  0  0  0
 13 37  1  0  0  0  0
 14 15  1  0  0  0  0
 14 38  1  0  0  0  0
 14 39  1  0  0  0  0
 15 16  1  0  0  0  0
 15 40  1  0  0  0  0
 15 41  1  0  0  0  0
 16 17  1  0  0  0  0
 16 21  1  0  0  0  0
 16 42  1  0  0  0  0
 17 18  1  0  0  0  0
 17 19  1  0  0  0  0
 17 20  1  0  0  0  0
 21 43  1  0  0  0  0
 21 44  1  0  0  0  0
 22 23  2  0  0  0  0
 22 45  1  0  0  0  0
M  END
> <s_m_source_file>
AV-unprocessed.smi

> <i_m_source_file_index>
937

> <i_lp_mmshare_version>
43012

> <i_f3d_flags>
0

> <s_epik_input>
W0NIM11jMVtjSF1bY0hdYyhbY0hdbjEpW0NIMl1bQ0gyXVtOSF1DKD1PKVtOSF1bQ0BASF0yW0NIMl1bQ0gyXVtDSDJdW0NAQEhdKEMoRikoRilGKVtDSDJdMg==

> <s_epik_cmdline>
J2VwaWtfcHl0aG9uJywgJy1waCcsICc3LjAnLCAnLXRuJywgJzgnLCAnLW1hJywgJzIwMCcsICctbWV0YWxfYmluZGluZycsICctaW1hZScsICc8aW5maWxlLm1hZT4nLCAnLW9tYWUnLCAnPG91dGZpbGUubWFlPic=

> <r_epik_Ionization_Penalty>
0.0563445

> <r_epik_Ionization_Penalty_Charging>
0

> <r_epik_Ionization_Penalty_Neutral>
0.0563445

> <r_epik_State_Penalty>
0.0485409

> <r_epik_Charging_Adjusted_Penalty>
0.0485409

> <i_epik_Tot_Q>
0

> <i_epik_Tot_abs_Q>
0

> <r_epik_Metal_State_Penalty>
0.0443056

> <b_epik_Metal_Only>
0

> <s_lp_Force_Field>
OPLS_2005

> <r_lp_Energy>
18.524

> <b_lp_Chiralities_Consistent>
1

> <s_lp_Variant>
AV-unprocessed.smi:937-4

> <Gold.Version>
5.8.1

> <Gold.Id.Protein>
6NUR|6NUR_protein|mol2

> <Gold.PLP.Fitness>
44.2414

> <Gold.PLP.PLP>
-36.4241

> <Gold.PLP.part.hbond>
-3.0000

> <Gold.PLP.part.metal>
0.0000

> <Gold.PLP.part.buried>
-2.1075

> <Gold.PLP.part.nonpolar>
-30.8488

> <Gold.PLP.part.repulsive>
0.0292

> <Gold.PLP.ligand.clash>
0.0000

> <Gold.PLP.ligand.torsion>
0.3740

> <Gold.PLP.Chemscore.Hbond>
2.8393

> <Gold.PLP.Chemscore.CHOScore>
0.0000

> <Gold.PLP.Chemscore.Metal>
0.0000

> <Gold.Chemscore.Hbonds>
donor molecule, donor type, donor heavy atom, donor atom, acceptor molecule, acceptor atom, score
      L1  H     8    33       P1  7948  0.86
      L1  H    11    34       P1  7948  0.50

> <Gold.PLP.Chemscore.Internal.Correction>
0.0476

> <Gold.Rescore>
     Score         DG    S(hbond)    S(metal)    S(lipo)     H(rot)  DE(clash)    DE(int)     intcor
     17.41     -17.77       1.81        0.00      87.93       1.58       0.15       0.21       ----

> <Gold.Chemscore.Fitness>
17.4122

> <Gold.Chemscore.DG>
-17.7669

> <Gold.Chemscore.ZeroCoef>
-5.4800

> <Gold.Chemscore.Hbond>
1.8132

> <Gold.Chemscore.Metal>
0.0000

> <Gold.Chemscore.Lipo>
87.9322

> <Gold.Chemscore.Internal_Hbond>
0.0000

> <Gold.Chemscore.DEClash>
0.1477

> <Gold.Chemscore.DEInternal>
0.2070

> <Gold.Chemscore.Rot>
1.5849

> <Gold.Chemscore.Internal.Correction>
   9.000000E+99

> <Gold.Chemscore.Hbonds>
donor molecule, donor type, donor heavy atom, donor atom, acceptor molecule, acceptor atom, score
      L1  H     8    33       P1  7948  0.84
      L1  H    11    34       P1  7948  0.49
      P1  H  7997  8008       L1    23  0.01

> <Gold.Chemscore.Hbond.Weighted>
-6.0562

> <Gold.Chemscore.Metal.Weighted>
-0.0000

> <Gold.Chemscore.Lipo.Weighted>
-10.2881

> <Gold.Chemscore.Internal_Hbond.Weighted>
0.0000

> <Gold.Chemscore.DEClash.Weighted>
0.1477

> <Gold.Chemscore.DEInternal.Weighted>
0.2070

> <Gold.Chemscore.Rot.Weighted>
4.0574

> <Gold.Chemscore.Internal.Correction.Weighted>
   9.000000E+99

> <Gold.Protein.RotatedTorsions>
[ 6907 6896 6895 6894 ] final  154.85 input  -60.11 | X-H torsion
[ 7974 7965 7964 7962 ] final  166.47 input  175.53 | X-H torsion
[ 8008 7997 7996 7995 ] final  -59.31 input   59.86 | X-H torsion
[ 10167 10162 10161 10158 ] final   15.41 input  -65.29 | X-H torsion
[ 10718 10713 10712 10709 ] final   98.36 input   66.30 | X-H torsion
[ 10763 10752 10751 10750 ] final  173.37 input  -60.55 | X-H torsion
[ 11005 11000 10999 10996 ] final   15.18 input  -57.11 | X-H torsion

> <Gold.Protein.ActiveResidues>
 VAL166  LYS551  ARG553  GLY616  TRP617  ASP618  TYR619  PRO620  LYS621  CYS622 
 ASP623  PHE694  ASN695  SER759  ASP760  ASP761  ALA762  ILE779  LEU786  VAL792 
 PHE793  MET794  SER795  GLU796  ALA797  LYS798  CYS799  TRP800  GLU811  SER814 

> <Gold.Protein.RotatedAtoms>
  152.0525  133.4025  159.4383 H   0  0  0  0  0  0  0  0  0  0  0  0  # atno 6907 bound_to 6896
  150.6869  134.3291  159.4828 H   0  0  0  0  0  0  0  0  0  0  0  0  # atno 6908 bound_to 6896
  152.1103  134.9279  160.0617 H   0  0  0  0  0  0  0  0  0  0  0  0  # atno 6909 bound_to 6896
  144.7461  139.8620  143.6381 H   0  0  0  0  0  0  0  0  0  0  0  0  # atno 7974 bound_to 7965
  154.4347  140.1064  156.6096 H   0  0  0  0  0  0  0  0  0  0  0  0  # atno 8008 bound_to 7997
  155.5824  140.3491  155.4525 H   0  0  0  0  0  0  0  0  0  0  0  0  # atno 8009 bound_to 7997
  156.0309  140.1260  157.0249 H   0  0  0  0  0  0  0  0  0  0  0  0  # atno 8010 bound_to 7997
  140.5869  143.8872  150.6838 H   0  0  0  0  0  0  0  0  0  0  0  0  # atno 10167 bound_to 10162
  157.6897  131.0638  150.4785 H   0  0  0  0  0  0  0  0  0  0  0  0  # atno 10718 bound_to 10713
  154.4391  135.2761  155.1860 H   0  0  0  0  0  0  0  0  0  0  0  0  # atno 10763 bound_to 10752
  154.3734  135.6103  153.5755 H   0  0  0  0  0  0  0  0  0  0  0  0  # atno 10764 bound_to 10752
  152.9840  135.5863  154.4715 H   0  0  0  0  0  0  0  0  0  0  0  0  # atno 10765 bound_to 10752
  140.4612  134.1125  155.7717 H   0  0  0  0  0  0  0  0  0  0  0  0  # atno 11005 bound_to 11000
  146.1341  139.4383  143.0150 LP  0  0  0  0  0  0  0  0  0  0  0  0  # atno 17320 bound_to 7965
  145.7118  141.0104  143.1449 LP  0  0  0  0  0  0  0  0  0  0  0  0  # atno 17321 bound_to 7965
  140.2385  143.3682  152.1506 LP  0  0  0  0  0  0  0  0  0  0  0  0  # atno 17342 bound_to 10162
  139.5203  144.7031  151.5434 LP  0  0  0  0  0  0  0  0  0  0  0  0  # atno 17343 bound_to 10162
  156.5118  130.4141  149.6297 LP  0  0  0  0  0  0  0  0  0  0  0  0  # atno 17370 bound_to 10713
  156.3234  130.7292  151.2208 LP  0  0  0  0  0  0  0  0  0  0  0  0  # atno 17371 bound_to 10713
  141.1620  133.8774  157.1821 LP  0  0  0  0  0  0  0  0  0  0  0  0  # atno 17394 bound_to 11000
  139.9944  135.0052  157.0049 LP  0  0  0  0  0  0  0  0  0  0  0  0  # atno 17395 bound_to 11000

$$$$
