AV-unprocessed.smi:3155|AV-procd|sdf|12028|dock4
  -GOLD-   2272017443D 1   1.00000     0.00000
 Structure written by MMmdl.
 37 38  0  0  0  0  0  0  0  0  1 V2000
  155.8156  138.6368  163.6731 C   0  0  0  0  0  0  0  0  0  0  0  0
  155.5081  140.1400  163.7309 C   0  0  1  0  0  0  0  0  0  0  0  0
  156.6085  140.8890  164.5191 C   0  0  0  0  0  0  0  0  0  0  0  0
  156.1702  142.1591  165.0711 N   0  0  0  0  0  0  0  0  0  0  0  0
  156.2536  142.6023  166.3748 C   0  0  0  0  0  0  0  0  0  0  0  0
  155.7255  143.8608  166.4116 C   0  0  0  0  0  0  0  0  0  0  0  0
  155.3552  144.1113  165.0610 C   0  0  0  0  0  0  0  0  0  0  0  0
  155.6315  143.0951  164.2601 N   0  0  0  0  0  0  0  0  0  0  0  0
  155.4274  140.6076  162.3492 N   0  0  0  0  0  0  0  0  0  0  0  0
  154.4412  139.8654  161.5534 C   0  0  0  0  0  0  0  0  0  0  0  0
  154.0057  140.6567  160.3155 C   0  0  0  0  0  0  0  0  0  0  0  0
  154.2379  140.1843  159.2025 O   0  0  0  0  0  0  0  0  0  0  0  0
  153.3810  141.8425  160.4790 N   0  0  0  0  0  0  0  0  0  0  0  0
  153.0875  142.4903  161.7566 C   0  0  0  0  0  0  0  0  0  0  0  0
  152.6181  143.9023  161.4078 C   0  0  0  0  0  0  0  0  0  0  0  0
  152.0641  143.7719  159.9961 C   0  0  0  0  0  0  0  0  0  0  0  0
  152.9067  142.6626  159.3659 C   0  0  0  0  0  0  0  0  0  0  0  0
  155.8622  138.2090  164.6750 H   0  0  0  0  0  0  0  0  0  0  0  0
  156.7721  138.4421  163.1861 H   0  0  0  0  0  0  0  0  0  0  0  0
  155.0445  138.0949  163.1243 H   0  0  0  0  0  0  0  0  0  0  0  0
  154.5435  140.2509  164.2290 H   0  0  0  0  0  0  0  0  0  0  0  0
  156.9390  140.2770  165.3591 H   0  0  0  0  0  0  0  0  0  0  0  0
  157.4884  141.0468  163.8924 H   0  0  0  0  0  0  0  0  0  0  0  0
  156.6713  141.9891  167.1597 H   0  0  0  0  0  0  0  0  0  0  0  0
  155.6224  144.5060  167.2713 H   0  0  0  0  0  0  0  0  0  0  0  0
  154.8994  144.9958  164.6409 H   0  0  0  0  0  0  0  0  0  0  0  0
  156.3442  140.5293  161.9322 H   0  0  0  0  0  0  0  0  0  0  0  0
  154.8789  138.9213  161.2256 H   0  0  0  0  0  0  0  0  0  0  0  0
  153.5677  139.6098  162.1498 H   0  0  0  0  0  0  0  0  0  0  0  0
  152.2926  141.9397  162.2616 H   0  0  0  0  0  0  0  0  0  0  0  0
  153.9562  142.5216  162.4151 H   0  0  0  0  0  0  0  0  0  0  0  0
  151.8872  144.2920  162.1171 H   0  0  0  0  0  0  0  0  0  0  0  0
  153.4730  144.5800  161.4027 H   0  0  0  0  0  0  0  0  0  0  0  0
  151.0207  143.4576  160.0426 H   0  0  0  0  0  0  0  0  0  0  0  0
  152.1073  144.7065  159.4362 H   0  0  0  0  0  0  0  0  0  0  0  0
  153.7668  143.0841  158.8439 H   0  0  0  0  0  0  0  0  0  0  0  0
  152.3245  142.0828  158.6478 H   0  0  0  0  0  0  0  0  0  0  0  0
  1  2  1  0  0  0  0
  1 18  1  0  0  0  0
  1 19  1  0  0  0  0
  1 20  1  0  0  0  0
  2  3  1  0  0  0  0
  2  9  1  0  0  0  0
  2 21  1  0  0  0  0
  3  4  1  0  0  0  0
  3 22  1  0  0  0  0
  3 23  1  0  0  0  0
  4  8  1  0  0  0  0
  4  5  1  0  0  0  0
  5  6  2  0  0  0  0
  5 24  1  0  0  0  0
  6  7  1  0  0  0  0
  6 25  1  0  0  0  0
  7  8  2  0  0  0  0
  7 26  1  0  0  0  0
  9 10  1  0  0  0  0
  9 27  1  0  0  0  0
 10 11  1  0  0  0  0
 10 28  1  0  0  0  0
 10 29  1  0  0  0  0
 11 12  2  0  0  0  0
 11 13  1  0  0  0  0
 13 17  1  0  0  0  0
 13 14  1  0  0  0  0
 14 15  1  0  0  0  0
 14 30  1  0  0  0  0
 14 31  1  0  0  0  0
 15 16  1  0  0  0  0
 15 32  1  0  0  0  0
 15 33  1  0  0  0  0
 16 17  1  0  0  0  0
 16 34  1  0  0  0  0
 16 35  1  0  0  0  0
 17 36  1  0  0  0  0
 17 37  1  0  0  0  0
M  END
> <s_m_source_file>
AV-unprocessed.smi

> <i_m_source_file_index>
3155

> <i_lp_mmshare_version>
43012

> <i_f3d_flags>
0

> <s_epik_input>
bjFbY0hdW2NIXVtjSF1uMVtDSDJdW0NAQEhdKFtDSDNdKVtOSF1bQ0gyXUMoPU8pTjJbQ0gyXVtDSDJdW0NIMl1bQ0gyXTI=

> <s_epik_cmdline>
J2VwaWtfcHl0aG9uJywgJy1waCcsICc3LjAnLCAnLXRuJywgJzgnLCAnLW1hJywgJzIwMCcsICctbWV0YWxfYmluZGluZycsICctaW1hZScsICc8aW5maWxlLm1hZT4nLCAnLW9tYWUnLCAnPG91dGZpbGUubWFlPic=

> <r_lp_tautomer_probability>
1

> <r_epik_Ionization_Penalty>
1.00455

> <r_epik_Ionization_Penalty_Charging>
0

> <r_epik_Ionization_Penalty_Neutral>
1.00455

> <r_epik_State_Penalty>
1.05336

> <r_epik_Charging_Adjusted_Penalty>
1.05336

> <i_epik_Tot_Q>
0

> <i_epik_Tot_abs_Q>
0

> <r_epik_Metal_State_Penalty>
1.05331

> <b_epik_Metal_Only>
0

> <s_lp_Force_Field>
OPLS_2005

> <r_lp_Energy>
30.9369

> <b_lp_Chiralities_Consistent>
1

> <s_lp_Variant>
AV-unprocessed.smi:3155-4

> <Gold.Version>
5.8.1

> <Gold.Id.Protein>
6NUR|6NUR_protein|mol2

> <Gold.PLP.Fitness>
45.2438

> <Gold.PLP.PLP>
-43.3529

> <Gold.PLP.part.hbond>
-3.0000

> <Gold.PLP.part.metal>
0.0000

> <Gold.PLP.part.buried>
-2.9956

> <Gold.PLP.part.nonpolar>
-35.8879

> <Gold.PLP.part.repulsive>
0.0000

> <Gold.PLP.ligand.clash>
0.0000

> <Gold.PLP.ligand.torsion>
0.3968

> <Gold.PLP.Chemscore.Hbond>
0.8882

> <Gold.PLP.Chemscore.CHOScore>
0.0000

> <Gold.PLP.Chemscore.Metal>
0.0000

> <Gold.Chemscore.Hbonds>
donor molecule, donor type, donor heavy atom, donor atom, acceptor molecule, acceptor atom, score
      P1  H  7997  8010       L1    12  0.87

> <Gold.PLP.Chemscore.Internal.Correction>
0.0201

> <Gold.Rescore>
     Score         DG    S(hbond)    S(metal)    S(lipo)     H(rot)  DE(clash)    DE(int)     intcor
     12.94     -15.36       0.92        0.00      96.80       1.77       1.44       0.98       ----

> <Gold.Chemscore.Fitness>
12.9419

> <Gold.Chemscore.DG>
-15.3619

> <Gold.Chemscore.ZeroCoef>
-5.4800

> <Gold.Chemscore.Hbond>
0.9239

> <Gold.Chemscore.Metal>
0.0000

> <Gold.Chemscore.Lipo>
96.7971

> <Gold.Chemscore.Internal_Hbond>
0.0000

> <Gold.Chemscore.DEClash>
1.4361

> <Gold.Chemscore.DEInternal>
0.9839

> <Gold.Chemscore.Rot>
1.7693

> <Gold.Chemscore.Internal.Correction>
   9.000000E+99

> <Gold.Chemscore.Hbonds>
donor molecule, donor type, donor heavy atom, donor atom, acceptor molecule, acceptor atom, score
      P1  H  7997  8010       L1    12  0.81

> <Gold.Chemscore.Hbond.Weighted>
-3.0860

> <Gold.Chemscore.Metal.Weighted>
-0.0000

> <Gold.Chemscore.Lipo.Weighted>
-11.3253

> <Gold.Chemscore.Internal_Hbond.Weighted>
0.0000

> <Gold.Chemscore.DEClash.Weighted>
1.4361

> <Gold.Chemscore.DEInternal.Weighted>
0.9839

> <Gold.Chemscore.Rot.Weighted>
4.5294

> <Gold.Chemscore.Internal.Correction.Weighted>
   9.000000E+99

> <Gold.Protein.RotatedTorsions>
[ 6907 6896 6895 6894 ] final  -68.36 input  -60.11 | X-H torsion
[ 7974 7965 7964 7962 ] final  -67.06 input  175.53 | X-H torsion
[ 8008 7997 7996 7995 ] final    1.72 input   59.86 | X-H torsion
[ 10167 10162 10161 10158 ] final   43.66 input  -65.29 | X-H torsion
[ 10718 10713 10712 10709 ] final   82.34 input   66.30 | X-H torsion
[ 10763 10752 10751 10750 ] final    0.18 input  -60.55 | X-H torsion
[ 11005 11000 10999 10996 ] final   52.06 input  -57.11 | X-H torsion

> <Gold.Protein.ActiveResidues>
 VAL166  LYS551  ARG553  GLY616  TRP617  ASP618  TYR619  PRO620  LYS621  CYS622 
 ASP623  PHE694  ASN695  SER759  ASP760  ASP761  ALA762  ILE779  LEU786  VAL792 
 PHE793  MET794  SER795  GLU796  ALA797  LYS798  CYS799  TRP800  GLU811  SER814 

> <Gold.Protein.RotatedAtoms>
  150.7360  134.5750  159.5909 H   0  0  0  0  0  0  0  0  0  0  0  0  # atno 6907 bound_to 6896
  152.3179  134.7414  160.0330 H   0  0  0  0  0  0  0  0  0  0  0  0  # atno 6908 bound_to 6896
  151.7939  133.3326  159.3544 H   0  0  0  0  0  0  0  0  0  0  0  0  # atno 6909 bound_to 6896
  145.7340  140.8984  143.0565 H   0  0  0  0  0  0  0  0  0  0  0  0  # atno 7974 bound_to 7965
  154.6831  140.2637  155.6888 H   0  0  0  0  0  0  0  0  0  0  0  0  # atno 8008 bound_to 7997
  156.2704  140.2806  156.1305 H   0  0  0  0  0  0  0  0  0  0  0  0  # atno 8009 bound_to 7997
  155.1003  140.0374  157.2685 H   0  0  0  0  0  0  0  0  0  0  0  0  # atno 8010 bound_to 7997
  140.3421  144.2457  150.6154 H   0  0  0  0  0  0  0  0  0  0  0  0  # atno 10167 bound_to 10162
  157.6855  131.0043  150.2360 H   0  0  0  0  0  0  0  0  0  0  0  0  # atno 10718 bound_to 10713
  153.3240  135.6971  153.7005 H   0  0  0  0  0  0  0  0  0  0  0  0  # atno 10763 bound_to 10752
  153.5834  135.3493  155.2884 H   0  0  0  0  0  0  0  0  0  0  0  0  # atno 10764 bound_to 10752
  154.8604  135.4300  154.2412 H   0  0  0  0  0  0  0  0  0  0  0  0  # atno 10765 bound_to 10752
  140.0880  134.5247  155.8879 H   0  0  0  0  0  0  0  0  0  0  0  0  # atno 11005 bound_to 11000
  144.6886  139.9369  143.7474 LP  0  0  0  0  0  0  0  0  0  0  0  0  # atno 17320 bound_to 7965
  146.0511  139.3512  143.0639 LP  0  0  0  0  0  0  0  0  0  0  0  0  # atno 17321 bound_to 7965
  140.5299  143.2246  151.8255 LP  0  0  0  0  0  0  0  0  0  0  0  0  # atno 17342 bound_to 10162
  139.4839  144.4733  151.9398 LP  0  0  0  0  0  0  0  0  0  0  0  0  # atno 17343 bound_to 10162
  156.2983  130.3755  149.7775 LP  0  0  0  0  0  0  0  0  0  0  0  0  # atno 17370 bound_to 10713
  156.5413  130.8301  151.3270 LP  0  0  0  0  0  0  0  0  0  0  0  0  # atno 17371 bound_to 10713
  141.2069  133.6659  156.6271 LP  0  0  0  0  0  0  0  0  0  0  0  0  # atno 17394 bound_to 11000
  140.3392  134.7863  157.4385 LP  0  0  0  0  0  0  0  0  0  0  0  0  # atno 17395 bound_to 11000

$$$$
