AV-unprocessed.smi:249|AV-procd|sdf|1923|dock4
  -GOLD-   2262021 33D 1   1.00000     0.00000
 Structure written by MMmdl.
 64 67  0  0  0  0  0  0  0  0  2 V2000
  146.9537  128.2652  152.4110 C   0  0  0  0  0  0  0  0  0  0  0  0
  147.0190  129.6709  153.0309 C   0  0  0  0  0  0  0  0  0  0  0  0
  147.0252  130.7716  152.0235 N   0  3  1  0  0  0  0  0  0  0  0  0
  145.8897  130.6529  151.0631 C   0  0  0  0  0  0  0  0  0  0  0  0
  145.9348  131.7347  149.9722 C   0  0  0  0  0  0  0  0  0  0  0  0
  145.9140  133.1482  150.5776 C   0  0  1  0  0  0  0  0  0  0  0  0
  144.6294  133.4646  151.2238 N   0  0  0  0  0  0  0  0  0  0  0  0
  143.4126  133.1498  150.4820 C   0  0  0  0  0  0  0  0  0  0  0  0
  144.5446  134.7015  151.7624 C   0  0  0  0  0  0  0  0  0  0  0  0
  145.6068  135.5272  151.5956 N   0  0  0  0  0  0  0  0  0  0  0  0
  145.5722  136.7665  152.0957 C   0  0  0  0  0  0  0  0  0  0  0  0
  144.5946  137.3636  152.7820 N   0  0  0  0  0  0  0  0  0  0  0  0
  143.5293  136.5296  152.9565 C   0  0  0  0  0  0  0  0  0  0  0  0
  143.4211  135.1919  152.4849 C   0  0  0  0  0  0  0  0  0  0  0  0
  142.1933  134.6549  152.8526 N   0  0  0  0  0  0  0  0  0  0  0  0
  141.6071  135.6222  153.5042 C   0  0  0  0  0  0  0  0  0  0  0  0
  142.3401  136.7823  153.6161 N   0  0  0  0  0  0  0  0  0  0  0  0
  141.9350  138.0070  154.2825 C   0  0  0  0  0  0  0  0  0  0  0  0
  140.5956  138.5702  153.7395 C   0  0  2  0  0  0  0  0  0  0  0  0
  140.2796  139.9941  154.2539 C   0  0  0  0  0  0  0  0  0  0  0  0
  140.1352  140.9195  153.1960 O   0  0  0  0  0  0  0  0  0  0  0  0
  139.3875  137.6060  153.8839 C   0  0  1  0  0  0  0  0  0  0  0  0
  139.1537  137.0599  155.2942 C   0  0  0  0  0  0  0  0  0  0  0  0
  137.6548  137.2506  155.5302 C   0  0  0  0  0  0  0  0  0  0  0  0
  137.1087  137.3572  154.2260 O   0  0  0  0  0  0  0  0  0  0  0  0
  138.0118  138.1507  153.4749 C   0  0  0  0  0  0  0  0  0  0  0  0
  147.1251  133.2303  151.5318 C   0  0  0  0  0  0  0  0  0  0  0  0
  147.0986  132.1413  152.6301 C   0  0  2  0  0  0  0  0  0  0  0  0
  148.3254  132.3369  153.5445 C   0  0  0  0  0  0  0  0  0  0  0  0
  147.1210  127.5054  153.1750 H   0  0  0  0  0  0  0  0  0  0  0  0
  147.7179  128.1335  151.6444 H   0  0  0  0  0  0  0  0  0  0  0  0
  145.9819  128.0524  151.9669 H   0  0  0  0  0  0  0  0  0  0  0  0
  146.1960  129.8140  153.7326 H   0  0  0  0  0  0  0  0  0  0  0  0
  147.9351  129.6933  153.6169 H   0  0  0  0  0  0  0  0  0  0  0  0
  145.9122  129.6865  150.5626 H   0  0  0  0  0  0  0  0  0  0  0  0
  144.9451  130.7027  151.6067 H   0  0  0  0  0  0  0  0  0  0  0  0
  146.8455  131.6085  149.3847 H   0  0  0  0  0  0  0  0  0  0  0  0
  145.1155  131.5945  149.2672 H   0  0  0  0  0  0  0  0  0  0  0  0
  146.0603  133.8642  149.7683 H   0  0  0  0  0  0  0  0  0  0  0  0
  142.5379  133.6557  150.8949 H   0  0  0  0  0  0  0  0  0  0  0  0
  143.2141  132.0788  150.5218 H   0  0  0  0  0  0  0  0  0  0  0  0
  143.5109  133.4417  149.4358 H   0  0  0  0  0  0  0  0  0  0  0  0
  146.4535  137.3660  151.9208 H   0  0  0  0  0  0  0  0  0  0  0  0
  140.6194  135.5144  153.9290 H   0  0  0  0  0  0  0  0  0  0  0  0
  141.8698  137.7966  155.3496 H   0  0  0  0  0  0  0  0  0  0  0  0
  142.7390  138.7327  154.1638 H   0  0  0  0  0  0  0  0  0  0  0  0
  140.7316  138.6870  152.6633 H   0  0  0  0  0  0  0  0  0  0  0  0
  139.3614  139.9972  154.8416 H   0  0  0  0  0  0  0  0  0  0  0  0
  141.0691  140.3430  154.9201 H   0  0  0  0  0  0  0  0  0  0  0  0
  140.4033  140.5011  152.3920 H   0  0  0  0  0  0  0  0  0  0  0  0
  139.5811  136.7366  153.2536 H   0  0  0  0  0  0  0  0  0  0  0  0
  139.4128  136.0009  155.3282 H   0  0  0  0  0  0  0  0  0  0  0  0
  139.7413  137.5581  156.0650 H   0  0  0  0  0  0  0  0  0  0  0  0
  137.2073  136.4284  156.0890 H   0  0  0  0  0  0  0  0  0  0  0  0
  137.4661  138.1767  156.0755 H   0  0  0  0  0  0  0  0  0  0  0  0
  137.8744  139.1949  153.7547 H   0  0  0  0  0  0  0  0  0  0  0  0
  137.8244  138.0577  152.4050 H   0  0  0  0  0  0  0  0  0  0  0  0
  148.0396  133.1198  150.9470 H   0  0  0  0  0  0  0  0  0  0  0  0
  147.1969  134.2215  151.9812 H   0  0  0  0  0  0  0  0  0  0  0  0
  146.2049  132.2845  153.2394 H   0  0  0  0  0  0  0  0  0  0  0  0
  148.4198  133.3800  153.8484 H   0  0  0  0  0  0  0  0  0  0  0  0
  149.2498  132.0581  153.0376 H   0  0  0  0  0  0  0  0  0  0  0  0
  148.2531  131.7637  154.4680 H   0  0  0  0  0  0  0  0  0  0  0  0
  147.8711  130.6587  151.4830 H   0  0  0  0  0  0  0  0  0  0  0  0
  1  2  1  0  0  0  0
  1 30  1  0  0  0  0
  1 31  1  0  0  0  0
  1 32  1  0  0  0  0
  2  3  1  0  0  0  0
  2 33  1  0  0  0  0
  2 34  1  0  0  0  0
  3 28  1  0  0  0  0
  3  4  1  0  0  0  0
  3 64  1  0  0  0  0
  4  5  1  0  0  0  0
  4 35  1  0  0  0  0
  4 36  1  0  0  0  0
  5  6  1  0  0  0  0
  5 37  1  0  0  0  0
  5 38  1  0  0  0  0
  6  7  1  0  0  0  0
  6 27  1  0  0  0  0
  6 39  1  0  0  0  0
  7  8  1  0  0  0  0
  7  9  1  0  0  0  0
  8 40  1  0  0  0  0
  8 41  1  0  0  0  0
  8 42  1  0  0  0  0
  9 14  1  0  0  0  0
  9 10  2  0  0  0  0
 10 11  1  0  0  0  0
 11 12  2  0  0  0  0
 11 43  1  0  0  0  0
 12 13  1  0  0  0  0
 13 17  1  0  0  0  0
 13 14  2  0  0  0  0
 14 15  1  0  0  0  0
 15 16  2  0  0  0  0
 16 17  1  0  0  0  0
 16 44  1  0  0  0  0
 17 18  1  0  0  0  0
 18 19  1  0  0  0  0
 18 45  1  0  0  0  0
 18 46  1  0  0  0  0
 19 20  1  0  0  0  0
 19 22  1  0  0  0  0
 19 47  1  0  0  0  0
 20 21  1  0  0  0  0
 20 48  1  0  0  0  0
 20 49  1  0  0  0  0
 21 50  1  0  0  0  0
 22 26  1  0  0  0  0
 22 23  1  0  0  0  0
 22 51  1  0  0  0  0
 23 24  1  0  0  0  0
 23 52  1  0  0  0  0
 23 53  1  0  0  0  0
 24 25  1  0  0  0  0
 24 54  1  0  0  0  0
 24 55  1  0  0  0  0
 25 26  1  0  0  0  0
 26 56  1  0  0  0  0
 26 57  1  0  0  0  0
 27 28  1  0  0  0  0
 27 58  1  0  0  0  0
 27 59  1  0  0  0  0
 28 29  1  0  0  0  0
 28 60  1  0  0  0  0
 29 61  1  0  0  0  0
 29 62  1  0  0  0  0
 29 63  1  0  0  0  0
M  CHG  1   3   1
M  END
> <s_m_source_file>
AV-unprocessed.smi

> <i_m_source_file_index>
249

> <i_lp_mmshare_version>
43012

> <i_f3d_flags>
0

> <s_epik_input>
W0NIM11bQ0gyXU4xW0NIMl1bQ0gyXVtDQEhdKFtDSDJdW0NASF0xW0NIM10pTihbQ0gzXSljKG5bY0hdbjIpYyhjMjMpbltjSF1uM1tDSDJdW0NASF0oW0NIMl1bT0hdKVtDQEBIXTRbQ0gyXVtDSDJdT1tDSDJdNA==

> <s_epik_cmdline>
J2VwaWtfcHl0aG9uJywgJy1waCcsICc3LjAnLCAnLXRuJywgJzgnLCAnLW1hJywgJzIwMCcsICctbWV0YWxfYmluZGluZycsICctaW1hZScsICc8aW5maWxlLm1hZT4nLCAnLW9tYWUnLCAnPG91dGZpbGUubWFlPic=

> <r_lp_tautomer_probability>
1

> <r_epik_Ionization_Penalty>
0.00294688

> <r_epik_Ionization_Penalty_Charging>
0.00169971

> <r_epik_Ionization_Penalty_Neutral>
0.00124717

> <r_epik_State_Penalty>
-0

> <r_epik_Charging_Adjusted_Penalty>
0.00169971

> <i_epik_Tot_Q>
1

> <i_epik_Tot_abs_Q>
1

> <r_epik_Metal_State_Penalty>
-0

> <b_epik_Metal_Only>
0

> <s_lp_Force_Field>
OPLS_2005

> <r_lp_Energy>
58.1803

> <b_lp_Chiralities_Consistent>
1

> <s_lp_Variant>
AV-unprocessed.smi:249-26

> <Gold.Version>
5.8.1

> <Gold.Id.Protein>
6NUR|6NUR_protein|mol2

> <Gold.PLP.Fitness>
54.6201

> <Gold.PLP.PLP>
-48.6567

> <Gold.PLP.part.hbond>
-2.6408

> <Gold.PLP.part.metal>
0.0000

> <Gold.PLP.part.buried>
-5.9616

> <Gold.PLP.part.nonpolar>
-40.6146

> <Gold.PLP.part.repulsive>
0.8202

> <Gold.PLP.ligand.clash>
0.0000

> <Gold.PLP.ligand.torsion>
1.1559

> <Gold.PLP.Chemscore.Hbond>
1.9920

> <Gold.PLP.Chemscore.CHOScore>
0.5659

> <Gold.PLP.Chemscore.Metal>
0.0000

> <Gold.Chemscore.Hbonds>
donor molecule, donor type, donor heavy atom, donor atom, acceptor molecule, acceptor atom, score
      L1  H     3    64       P1 10747  1.00
      L1  H    21    50       P1 10160  0.95
      L1  C    11    43       P1  7948  0.43

> <Gold.PLP.Chemscore.Internal.Correction>
0.6013

> <Gold.Rescore>
     Score         DG    S(hbond)    S(metal)    S(lipo)     H(rot)  DE(clash)    DE(int)     intcor
     13.74     -18.21       1.97        0.00     115.95       2.90       1.14       3.33       ----

> <Gold.Chemscore.Fitness>
13.7410

> <Gold.Chemscore.DG>
-18.2081

> <Gold.Chemscore.ZeroCoef>
-5.4800

> <Gold.Chemscore.Hbond>
1.9722

> <Gold.Chemscore.Metal>
0.0000

> <Gold.Chemscore.Lipo>
115.9528

> <Gold.Chemscore.Internal_Hbond>
0.0000

> <Gold.Chemscore.DEClash>
1.1355

> <Gold.Chemscore.DEInternal>
3.3316

> <Gold.Chemscore.Rot>
2.9006

> <Gold.Chemscore.Internal.Correction>
   9.000000E+99

> <Gold.Chemscore.Hbonds>
donor molecule, donor type, donor heavy atom, donor atom, acceptor molecule, acceptor atom, score
      L1  H     3    64       P1 10747  0.99
      L1  H    21    50       P1 10160  0.85

> <Gold.Chemscore.Hbond.Weighted>
-6.5873

> <Gold.Chemscore.Metal.Weighted>
-0.0000

> <Gold.Chemscore.Lipo.Weighted>
-13.5665

> <Gold.Chemscore.Internal_Hbond.Weighted>
0.0000

> <Gold.Chemscore.DEClash.Weighted>
1.1355

> <Gold.Chemscore.DEInternal.Weighted>
3.3316

> <Gold.Chemscore.Rot.Weighted>
7.4256

> <Gold.Chemscore.Internal.Correction.Weighted>
   9.000000E+99

> <Gold.Protein.RotatedTorsions>
[ 6907 6896 6895 6894 ] final   89.25 input  -60.11 | X-H torsion
[ 7974 7965 7964 7962 ] final -152.61 input  175.53 | X-H torsion
[ 8008 7997 7996 7995 ] final -124.14 input   59.86 | X-H torsion
[ 10167 10162 10161 10158 ] final  -53.24 input  -65.29 | X-H torsion
[ 10718 10713 10712 10709 ] final  -15.76 input   66.30 | X-H torsion
[ 10763 10752 10751 10750 ] final -127.49 input  -60.55 | X-H torsion
[ 11005 11000 10999 10996 ] final   55.64 input  -57.11 | X-H torsion

> <Gold.Protein.ActiveResidues>
 VAL166  LYS551  ARG553  GLY616  TRP617  ASP618  TYR619  PRO620  LYS621  CYS622 
 ASP623  PHE694  ASN695  SER759  ASP760  ASP761  ALA762  ILE779  LEU786  VAL792 
 PHE793  MET794  SER795  GLU796  ALA797  LYS798  CYS799  TRP800  GLU811  SER814 

> <Gold.Protein.RotatedAtoms>
  152.5434  134.1995  159.8706 H   0  0  0  0  0  0  0  0  0  0  0  0  # atno 6907 bound_to 6896
  151.1985  133.4618  159.2603 H   0  0  0  0  0  0  0  0  0  0  0  0  # atno 6908 bound_to 6896
  151.1013  134.9986  159.8505 H   0  0  0  0  0  0  0  0  0  0  0  0  # atno 6909 bound_to 6896
  144.7785  140.4639  143.5856 H   0  0  0  0  0  0  0  0  0  0  0  0  # atno 7974 bound_to 7965
  155.1921  140.0413  157.2902 H   0  0  0  0  0  0  0  0  0  0  0  0  # atno 8008 bound_to 7997
  154.6132  140.2482  155.7615 H   0  0  0  0  0  0  0  0  0  0  0  0  # atno 8009 bound_to 7997
  156.2391  140.2910  156.0404 H   0  0  0  0  0  0  0  0  0  0  0  0  # atno 8010 bound_to 7997
  140.6495  143.2557  151.4763 H   0  0  0  0  0  0  0  0  0  0  0  0  # atno 10167 bound_to 10162
  156.5972  130.4814  149.6254 H   0  0  0  0  0  0  0  0  0  0  0  0  # atno 10718 bound_to 10713
  154.8752  135.3960  154.3603 H   0  0  0  0  0  0  0  0  0  0  0  0  # atno 10763 bound_to 10752
  153.4376  135.7026  153.6195 H   0  0  0  0  0  0  0  0  0  0  0  0  # atno 10764 bound_to 10752
  153.4790  135.3773  155.2401 H   0  0  0  0  0  0  0  0  0  0  0  0  # atno 10765 bound_to 10752
  140.0591  134.5627  155.9173 H   0  0  0  0  0  0  0  0  0  0  0  0  # atno 11005 bound_to 11000
  145.6117  139.1514  143.3072 LP  0  0  0  0  0  0  0  0  0  0  0  0  # atno 17320 bound_to 7965
  146.1979  140.6233  142.9115 LP  0  0  0  0  0  0  0  0  0  0  0  0  # atno 17321 bound_to 7965
  139.5709  144.1931  152.1834 LP  0  0  0  0  0  0  0  0  0  0  0  0  # atno 17342 bound_to 10162
  140.1227  144.5359  150.6852 LP  0  0  0  0  0  0  0  0  0  0  0  0  # atno 17343 bound_to 10162
  156.2499  130.6901  151.1635 LP  0  0  0  0  0  0  0  0  0  0  0  0  # atno 17370 bound_to 10713
  157.7289  131.0628  150.5800 LP  0  0  0  0  0  0  0  0  0  0  0  0  # atno 17371 bound_to 10713
  141.1965  133.6592  156.5696 LP  0  0  0  0  0  0  0  0  0  0  0  0  # atno 17394 bound_to 11000
  140.3798  134.7533  157.4653 LP  0  0  0  0  0  0  0  0  0  0  0  0  # atno 17395 bound_to 11000

$$$$
