AV-unprocessed.smi:1284|AV-procd|sdf|5365|dock2
  -GOLD-   22720 4503D 1   1.00000     0.00000
 Structure written by MMmdl.
 40 42  0  0  0  0  0  0  0  0  2 V2000
  151.7519  137.4933  155.2830 N   0  0  0  0  0  0  0  0  0  0  0  0
  151.9728  138.6275  155.9526 C   0  0  0  0  0  0  0  0  0  0  0  0
  152.8155  139.4482  155.5953 O   0  0  0  0  0  0  0  0  0  0  0  0
  151.1314  138.8798  157.2059 C   0  0  0  0  0  0  0  0  0  0  0  0
  151.4154  140.2368  157.7782 C   0  0  0  0  0  0  0  0  0  0  0  0
  151.9259  140.4848  159.0197 N   0  3  0  0  0  0  0  0  0  0  0  0
  152.0540  141.8592  159.2168 C   0  0  0  0  0  0  0  0  0  0  0  0
  152.5136  142.5840  160.3120 C   0  0  0  0  0  0  0  0  0  0  0  0
  152.5122  143.9889  160.1862 C   0  0  0  0  0  0  0  0  0  0  0  0
  152.0664  144.6198  159.0066 C   0  0  0  0  0  0  0  0  0  0  0  0
  151.6049  143.8736  157.9022 C   0  0  0  0  0  0  0  0  0  0  0  0
  151.6099  142.4851  158.0347 C   0  0  0  0  0  0  0  0  0  0  0  0
  151.2355  141.4486  157.1717 N   0  0  0  0  0  0  0  0  0  0  0  0
  150.7392  141.7921  155.8286 C   0  0  0  0  0  0  0  0  0  0  0  0
  149.7377  140.7612  155.2713 C   0  0  2  0  0  0  0  0  0  0  0  0
  150.2244  140.2245  154.0567 O   0  0  0  0  0  0  0  0  0  0  0  0
  148.3529  141.3694  155.1182 C   0  0  0  0  0  0  0  0  0  0  0  0
  147.7968  141.5390  153.8319 C   0  0  0  0  0  0  0  0  0  0  0  0
  146.5104  142.0929  153.6818 C   0  0  0  0  0  0  0  0  0  0  0  0
  145.7720  142.4785  154.8170 C   0  0  0  0  0  0  0  0  0  0  0  0
  146.3198  142.3085  156.1029 C   0  0  0  0  0  0  0  0  0  0  0  0
  147.6057  141.7541  156.2538 C   0  0  0  0  0  0  0  0  0  0  0  0
  152.2911  137.2871  154.4541 H   0  0  0  0  0  0  0  0  0  0  0  0
  151.0520  136.8413  155.6086 H   0  0  0  0  0  0  0  0  0  0  0  0
  150.0731  138.8152  156.9511 H   0  0  0  0  0  0  0  0  0  0  0  0
  151.3260  138.1015  157.9434 H   0  0  0  0  0  0  0  0  0  0  0  0
  152.8548  142.1023  161.2167 H   0  0  0  0  0  0  0  0  0  0  0  0
  152.8592  144.5943  161.0112 H   0  0  0  0  0  0  0  0  0  0  0  0
  152.0786  145.6985  158.9472 H   0  0  0  0  0  0  0  0  0  0  0  0
  151.2648  144.3671  157.0038 H   0  0  0  0  0  0  0  0  0  0  0  0
  150.2859  142.7831  155.8744 H   0  0  0  0  0  0  0  0  0  0  0  0
  151.5974  141.8913  155.1644 H   0  0  0  0  0  0  0  0  0  0  0  0
  149.6654  139.9261  155.9688 H   0  0  0  0  0  0  0  0  0  0  0  0
  149.6087  140.4350  153.3707 H   0  0  0  0  0  0  0  0  0  0  0  0
  148.3537  141.2438  152.9547 H   0  0  0  0  0  0  0  0  0  0  0  0
  146.0895  142.2215  152.6955 H   0  0  0  0  0  0  0  0  0  0  0  0
  144.7856  142.9030  154.7015 H   0  0  0  0  0  0  0  0  0  0  0  0
  145.7529  142.6025  156.9740 H   0  0  0  0  0  0  0  0  0  0  0  0
  148.0151  141.6233  157.2447 H   0  0  0  0  0  0  0  0  0  0  0  0
  152.1596  139.7594  159.6859 H   0  0  0  0  0  0  0  0  0  0  0  0
  1  2  1  0  0  0  0
  1 23  1  0  0  0  0
  1 24  1  0  0  0  0
  2  3  2  0  0  0  0
  2  4  1  0  0  0  0
  4  5  1  0  0  0  0
  4 25  1  0  0  0  0
  4 26  1  0  0  0  0
  5 13  1  0  0  0  0
  5  6  2  0  0  0  0
  6  7  1  0  0  0  0
  6 40  1  0  0  0  0
  7 12  2  0  0  0  0
  7  8  1  0  0  0  0
  8  9  2  0  0  0  0
  8 27  1  0  0  0  0
  9 10  1  0  0  0  0
  9 28  1  0  0  0  0
 10 11  2  0  0  0  0
 10 29  1  0  0  0  0
 11 12  1  0  0  0  0
 11 30  1  0  0  0  0
 12 13  1  0  0  0  0
 13 14  1  0  0  0  0
 14 15  1  0  0  0  0
 14 31  1  0  0  0  0
 14 32  1  0  0  0  0
 15 16  1  0  0  0  0
 15 17  1  0  0  0  0
 15 33  1  0  0  0  0
 16 34  1  0  0  0  0
 17 22  1  0  0  0  0
 17 18  2  0  0  0  0
 18 19  1  0  0  0  0
 18 35  1  0  0  0  0
 19 20  2  0  0  0  0
 19 36  1  0  0  0  0
 20 21  1  0  0  0  0
 20 37  1  0  0  0  0
 21 22  2  0  0  0  0
 21 38  1  0  0  0  0
 22 39  1  0  0  0  0
M  CHG  1   6   1
M  END
> <s_m_source_file>
AV-unprocessed.smi

> <i_m_source_file_index>
1284

> <i_lp_mmshare_version>
43012

> <i_f3d_flags>
0

> <s_epik_input>
W2NIXTFbY0hdW2NIXVtjSF1jKGMxMiluKGMobjIpW0NIMl1DKD1PKVtOSDJdKVtDSDJdW0NASF0oW09IXSljM1tjSF1bY0hdW2NIXVtjSF1bY0hdMw==

> <s_epik_cmdline>
J2VwaWtfcHl0aG9uJywgJy1waCcsICc3LjAnLCAnLXRuJywgJzgnLCAnLW1hJywgJzIwMCcsICctbWV0YWxfYmluZGluZycsICctaW1hZScsICc8aW5maWxlLm1hZT4nLCAnLW9tYWUnLCAnPG91dGZpbGUubWFlPic=

> <r_epik_Ionization_Penalty>
1.66646

> <r_epik_Ionization_Penalty_Charging>
1.66645

> <r_epik_Ionization_Penalty_Neutral>
1.67657e-06

> <r_epik_State_Penalty>
1.76975

> <r_epik_Charging_Adjusted_Penalty>
3.43621

> <i_epik_Tot_Q>
1

> <i_epik_Tot_abs_Q>
1

> <r_epik_Metal_State_Penalty>
1.80493

> <b_epik_Metal_Only>
0

> <s_lp_Force_Field>
OPLS_2005

> <r_lp_Energy>
13.978

> <b_lp_Chiralities_Consistent>
1

> <s_lp_Variant>
AV-unprocessed.smi:1284-3

> <Gold.Version>
5.8.1

> <Gold.Id.Protein>
6NUR|6NUR_protein|mol2

> <Gold.PLP.Fitness>
52.5768

> <Gold.PLP.PLP>
-48.4188

> <Gold.PLP.part.hbond>
-3.0000

> <Gold.PLP.part.metal>
0.0000

> <Gold.PLP.part.buried>
-8.0129

> <Gold.PLP.part.nonpolar>
-38.2513

> <Gold.PLP.part.repulsive>
0.2608

> <Gold.PLP.ligand.clash>
0.0000

> <Gold.PLP.ligand.torsion>
1.2846

> <Gold.PLP.Chemscore.Hbond>
2.2088

> <Gold.PLP.Chemscore.CHOScore>
0.0000

> <Gold.PLP.Chemscore.Metal>
0.0000

> <Gold.Chemscore.Hbonds>
donor molecule, donor type, donor heavy atom, donor atom, acceptor molecule, acceptor atom, score
      L1  H    16    34       P1  7957  0.30
      P1  H  7989  7998       L1    16  0.93
      P1  H  7997  8008       L1     3  1.00

> <Gold.PLP.Chemscore.Internal.Correction>
0.1008

> <Gold.Rescore>
     Score         DG    S(hbond)    S(metal)    S(lipo)     H(rot)  DE(clash)    DE(int)     intcor
     16.84     -19.16       2.11        0.00     120.50       2.92       0.17       2.15       ----

> <Gold.Chemscore.Fitness>
16.8427

> <Gold.Chemscore.DG>
-19.1600

> <Gold.Chemscore.ZeroCoef>
-5.4800

> <Gold.Chemscore.Hbond>
2.1146

> <Gold.Chemscore.Metal>
0.0000

> <Gold.Chemscore.Lipo>
120.5000

> <Gold.Chemscore.Internal_Hbond>
0.0000

> <Gold.Chemscore.DEClash>
0.1663

> <Gold.Chemscore.DEInternal>
2.1510

> <Gold.Chemscore.Rot>
2.9223

> <Gold.Chemscore.Internal.Correction>
   9.000000E+99

> <Gold.Chemscore.Hbonds>
donor molecule, donor type, donor heavy atom, donor atom, acceptor molecule, acceptor atom, score
      L1  H    16    34       P1  7957  0.31
      P1  H  7989  7998       L1    16  0.29
      P1  H  7997  8008       L1     3  1.00

> <Gold.Chemscore.Hbond.Weighted>
-7.0627

> <Gold.Chemscore.Metal.Weighted>
-0.0000

> <Gold.Chemscore.Lipo.Weighted>
-14.0985

> <Gold.Chemscore.Internal_Hbond.Weighted>
0.0000

> <Gold.Chemscore.DEClash.Weighted>
0.1663

> <Gold.Chemscore.DEInternal.Weighted>
2.1510

> <Gold.Chemscore.Rot.Weighted>
7.4812

> <Gold.Chemscore.Internal.Correction.Weighted>
   9.000000E+99

> <Gold.Protein.RotatedTorsions>
[ 6907 6896 6895 6894 ] final   37.51 input  -60.11 | X-H torsion
[ 7974 7965 7964 7962 ] final  -13.93 input  175.53 | X-H torsion
[ 8008 7997 7996 7995 ] final  -42.77 input   59.86 | X-H torsion
[ 10167 10162 10161 10158 ] final  119.66 input  -65.29 | X-H torsion
[ 10718 10713 10712 10709 ] final  -99.07 input   66.30 | X-H torsion
[ 10763 10752 10751 10750 ] final -175.95 input  -60.55 | X-H torsion
[ 11005 11000 10999 10996 ] final   13.38 input  -57.11 | X-H torsion

> <Gold.Protein.ActiveResidues>
 VAL166  LYS551  ARG553  GLY616  TRP617  ASP618  TYR619  PRO620  LYS621  CYS622 
 ASP623  PHE694  ASN695  SER759  ASP760  ASP761  ALA762  ILE779  LEU786  VAL792 
 PHE793  MET794  SER795  GLU796  ALA797  LYS798  CYS799  TRP800  GLU811  SER814 

> <Gold.Protein.RotatedAtoms>
  152.1442  134.9039  160.0551 H   0  0  0  0  0  0  0  0  0  0  0  0  # atno 6907 bound_to 6896
  152.0096  133.3851  159.4222 H   0  0  0  0  0  0  0  0  0  0  0  0  # atno 6908 bound_to 6896
  150.6868  134.3667  159.5018 H   0  0  0  0  0  0  0  0  0  0  0  0  # atno 6909 bound_to 6896
  146.2095  140.3274  142.8396 H   0  0  0  0  0  0  0  0  0  0  0  0  # atno 7974 bound_to 7965
  154.3998  140.1465  156.3409 H   0  0  0  0  0  0  0  0  0  0  0  0  # atno 8008 bound_to 7997
  155.8357  140.3464  155.5579 H   0  0  0  0  0  0  0  0  0  0  0  0  # atno 8009 bound_to 7997
  155.8141  140.0888  157.1877 H   0  0  0  0  0  0  0  0  0  0  0  0  # atno 8010 bound_to 7997
  139.6032  144.7062  151.3014 H   0  0  0  0  0  0  0  0  0  0  0  0  # atno 10167 bound_to 10162
  156.0124  130.5266  150.6616 H   0  0  0  0  0  0  0  0  0  0  0  0  # atno 10718 bound_to 10713
  154.5783  135.2834  155.0758 H   0  0  0  0  0  0  0  0  0  0  0  0  # atno 10763 bound_to 10752
  154.2104  135.6409  153.5117 H   0  0  0  0  0  0  0  0  0  0  0  0  # atno 10764 bound_to 10752
  153.0080  135.5490  154.6429 H   0  0  0  0  0  0  0  0  0  0  0  0  # atno 10765 bound_to 10752
  140.4814  134.0932  155.7752 H   0  0  0  0  0  0  0  0  0  0  0  0  # atno 11005 bound_to 11000
  144.8876  140.7482  143.5947 LP  0  0  0  0  0  0  0  0  0  0  0  0  # atno 17320 bound_to 7965
  145.3196  139.1792  143.4595 LP  0  0  0  0  0  0  0  0  0  0  0  0  # atno 17321 bound_to 7965
  140.7265  143.6988  150.7862 LP  0  0  0  0  0  0  0  0  0  0  0  0  # atno 17342 bound_to 10162
  140.0569  143.5194  152.2647 LP  0  0  0  0  0  0  0  0  0  0  0  0  # atno 17343 bound_to 10162
  157.4357  131.0855  151.0994 LP  0  0  0  0  0  0  0  0  0  0  0  0  # atno 17370 bound_to 10713
  157.1553  130.6202  149.5594 LP  0  0  0  0  0  0  0  0  0  0  0  0  # atno 17371 bound_to 10713
  141.1529  133.8935  157.2051 LP  0  0  0  0  0  0  0  0  0  0  0  0  # atno 17394 bound_to 11000
  139.9824  135.0093  156.9782 LP  0  0  0  0  0  0  0  0  0  0  0  0  # atno 17395 bound_to 11000

$$$$
