AV-unprocessed.smi:3149|AV-procd|sdf|11999|dock1
  -GOLD-   2272017403D 1   1.00000     0.00000
 Structure written by MMmdl.
 38 39  0  0  0  0  0  0  0  0  2 V2000
  147.3752  142.2972  154.9492 C   0  0  0  0  0  0  0  0  0  0  0  0
  148.5875  141.4342  155.3357 C   0  0  2  0  0  0  0  0  0  0  0  0
  149.6352  142.3172  155.8987 N   0  3  0  0  0  0  0  0  0  0  0  0
  149.8710  142.1616  157.3480 C   0  0  0  0  0  0  0  0  0  0  0  0
  150.6011  143.3795  157.9183 C   0  0  0  0  0  0  0  0  0  0  0  0
  150.2240  144.5168  157.6365 O   0  0  0  0  0  0  0  0  0  0  0  0
  151.6425  143.1485  158.8197 N   0  0  0  0  0  0  0  0  0  0  0  0
  151.5726  142.0800  159.8056 C   0  0  0  0  0  0  0  0  0  0  0  0
  152.4448  142.9813  160.6853 C   0  0  0  0  0  0  0  0  0  0  0  0
  152.0293  144.1569  159.7953 C   0  0  0  0  0  0  0  0  0  0  0  0
  149.1518  140.6200  154.1396 C   0  0  2  0  0  0  0  0  0  0  0  0
  148.0532  140.0014  153.2538 C   0  0  0  0  0  0  0  0  0  0  0  0
  150.0723  139.5804  154.5877 N   0  0  0  0  0  0  0  0  0  0  0  0
  149.9301  138.2119  154.4805 C   0  0  0  0  0  0  0  0  0  0  0  0
  151.0493  137.6415  155.0152 C   0  0  0  0  0  0  0  0  0  0  0  0
  151.8294  138.7545  155.4346 C   0  0  0  0  0  0  0  0  0  0  0  0
  151.2434  139.9124  155.1770 N   0  0  0  0  0  0  0  0  0  0  0  0
  146.5299  141.6877  154.6306 H   0  0  0  0  0  0  0  0  0  0  0  0
  147.6177  142.9846  154.1381 H   0  0  0  0  0  0  0  0  0  0  0  0
  147.0346  142.8925  155.7972 H   0  0  0  0  0  0  0  0  0  0  0  0
  148.2574  140.7360  156.1071 H   0  0  0  0  0  0  0  0  0  0  0  0
  150.5021  142.1242  155.4178 H   0  0  0  0  0  0  0  0  0  0  0  0
  148.9190  142.0382  157.8654 H   0  0  0  0  0  0  0  0  0  0  0  0
  150.4565  141.2579  157.5169 H   0  0  0  0  0  0  0  0  0  0  0  0
  150.5706  141.9228  160.2101 H   0  0  0  0  0  0  0  0  0  0  0  0
  152.0525  141.1524  159.4917 H   0  0  0  0  0  0  0  0  0  0  0  0
  152.1065  143.0614  161.7189 H   0  0  0  0  0  0  0  0  0  0  0  0
  153.5091  142.7472  160.6239 H   0  0  0  0  0  0  0  0  0  0  0  0
  152.8515  144.7954  159.4708 H   0  0  0  0  0  0  0  0  0  0  0  0
  151.1881  144.7241  160.1994 H   0  0  0  0  0  0  0  0  0  0  0  0
  149.7297  141.3000  153.5117 H   0  0  0  0  0  0  0  0  0  0  0  0
  147.4555  140.7662  152.7588 H   0  0  0  0  0  0  0  0  0  0  0  0
  147.3766  139.3732  153.8343 H   0  0  0  0  0  0  0  0  0  0  0  0
  148.4882  139.3818  152.4688 H   0  0  0  0  0  0  0  0  0  0  0  0
  149.0557  137.7615  154.0342 H   0  0  0  0  0  0  0  0  0  0  0  0
  151.2756  136.5886  155.0963 H   0  0  0  0  0  0  0  0  0  0  0  0
  152.7976  138.7555  155.9135 H   0  0  0  0  0  0  0  0  0  0  0  0
  149.3808  143.2786  155.7220 H   0  0  0  0  0  0  0  0  0  0  0  0
  1  2  1  0  0  0  0
  1 18  1  0  0  0  0
  1 19  1  0  0  0  0
  1 20  1  0  0  0  0
  2  3  1  0  0  0  0
  2 11  1  0  0  0  0
  2 21  1  0  0  0  0
  3  4  1  0  0  0  0
  3 22  1  0  0  0  0
  3 38  1  0  0  0  0
  4  5  1  0  0  0  0
  4 23  1  0  0  0  0
  4 24  1  0  0  0  0
  5  6  2  0  0  0  0
  5  7  1  0  0  0  0
  7 10  1  0  0  0  0
  7  8  1  0  0  0  0
  8  9  1  0  0  0  0
  8 25  1  0  0  0  0
  8 26  1  0  0  0  0
  9 10  1  0  0  0  0
  9 27  1  0  0  0  0
  9 28  1  0  0  0  0
 10 29  1  0  0  0  0
 10 30  1  0  0  0  0
 11 12  1  0  0  0  0
 11 13  1  0  0  0  0
 11 31  1  0  0  0  0
 12 32  1  0  0  0  0
 12 33  1  0  0  0  0
 12 34  1  0  0  0  0
 13 17  1  0  0  0  0
 13 14  1  0  0  0  0
 14 15  2  0  0  0  0
 14 35  1  0  0  0  0
 15 16  1  0  0  0  0
 15 36  1  0  0  0  0
 16 17  2  0  0  0  0
 16 37  1  0  0  0  0
M  CHG  1   3   1
M  END
> <s_m_source_file>
AV-unprocessed.smi

> <i_m_source_file_index>
3149

> <i_lp_mmshare_version>
43012

> <i_f3d_flags>
0

> <s_epik_input>
bjFbY0hdW2NIXVtjSF1uMVtDQEBIXShbQ0gzXSlbQ0BIXShbQ0gzXSlbTkhdW0NIMl1DKD1PKU4yW0NIMl1bQ0gyXVtDSDJdMg==

> <s_epik_cmdline>
J2VwaWtfcHl0aG9uJywgJy1waCcsICc3LjAnLCAnLXRuJywgJzgnLCAnLW1hJywgJzIwMCcsICctbWV0YWxfYmluZGluZycsICctaW1hZScsICc8aW5maWxlLm1hZT4nLCAnLW9tYWUnLCAnPG91dGZpbGUubWFlPic=

> <r_lp_tautomer_probability>
1

> <r_epik_Ionization_Penalty>
0.141739

> <r_epik_Ionization_Penalty_Charging>
0.141731

> <r_epik_Ionization_Penalty_Neutral>
8.82171e-06

> <r_epik_State_Penalty>
0.131043

> <r_epik_Charging_Adjusted_Penalty>
0.272773

> <i_epik_Tot_Q>
1

> <i_epik_Tot_abs_Q>
1

> <r_epik_Metal_State_Penalty>
0.131384

> <b_epik_Metal_Only>
0

> <s_lp_Force_Field>
OPLS_2005

> <r_lp_Energy>
21.2317

> <b_lp_Chiralities_Consistent>
1

> <s_lp_Variant>
AV-unprocessed.smi:3149-1

> <Gold.Version>
5.8.1

> <Gold.Id.Protein>
6NUR|6NUR_protein|mol2

> <Gold.PLP.Fitness>
46.2999

> <Gold.PLP.PLP>
-37.6381

> <Gold.PLP.part.hbond>
-2.0000

> <Gold.PLP.part.metal>
0.0000

> <Gold.PLP.part.buried>
-3.5354

> <Gold.PLP.part.nonpolar>
-33.3325

> <Gold.PLP.part.repulsive>
0.5870

> <Gold.PLP.ligand.clash>
0.0000

> <Gold.PLP.ligand.torsion>
1.7778

> <Gold.PLP.Chemscore.Hbond>
2.8000

> <Gold.PLP.Chemscore.CHOScore>
0.9352

> <Gold.PLP.Chemscore.Metal>
0.0000

> <Gold.Chemscore.Hbonds>
donor molecule, donor type, donor heavy atom, donor atom, acceptor molecule, acceptor atom, score
      L1  H     3    38       P1  8028  1.98
      P1  H  7989  7998       L1    17  0.30
      L1  C    14    35       P1  7948  0.67

> <Gold.PLP.Chemscore.Internal.Correction>
1.0117

> <Gold.Rescore>
     Score         DG    S(hbond)    S(metal)    S(lipo)     H(rot)  DE(clash)    DE(int)     intcor
     14.22     -16.69       1.86        0.00      83.38       1.85       0.03       2.44       ----

> <Gold.Chemscore.Fitness>
14.2181

> <Gold.Chemscore.DG>
-16.6851

> <Gold.Chemscore.ZeroCoef>
-5.4800

> <Gold.Chemscore.Hbond>
1.8554

> <Gold.Chemscore.Metal>
0.0000

> <Gold.Chemscore.Lipo>
83.3771

> <Gold.Chemscore.Internal_Hbond>
0.0000

> <Gold.Chemscore.DEClash>
0.0273

> <Gold.Chemscore.DEInternal>
2.4397

> <Gold.Chemscore.Rot>
1.8544

> <Gold.Chemscore.Internal.Correction>
   9.000000E+99

> <Gold.Chemscore.Hbonds>
donor molecule, donor type, donor heavy atom, donor atom, acceptor molecule, acceptor atom, score
      L1  H     3    38       P1  8028  0.92

> <Gold.Chemscore.Hbond.Weighted>
-6.1971

> <Gold.Chemscore.Metal.Weighted>
-0.0000

> <Gold.Chemscore.Lipo.Weighted>
-9.7551

> <Gold.Chemscore.Internal_Hbond.Weighted>
0.0000

> <Gold.Chemscore.DEClash.Weighted>
0.0273

> <Gold.Chemscore.DEInternal.Weighted>
2.4397

> <Gold.Chemscore.Rot.Weighted>
4.7472

> <Gold.Chemscore.Internal.Correction.Weighted>
   9.000000E+99

> <Gold.Protein.RotatedTorsions>
[ 6907 6896 6895 6894 ] final  -83.31 input  -60.11 | X-H torsion
[ 7974 7965 7964 7962 ] final  146.65 input  175.53 | X-H torsion
[ 8008 7997 7996 7995 ] final   14.39 input   59.86 | X-H torsion
[ 10167 10162 10161 10158 ] final -156.52 input  -65.29 | X-H torsion
[ 10718 10713 10712 10709 ] final  141.78 input   66.30 | X-H torsion
[ 10763 10752 10751 10750 ] final -132.88 input  -60.55 | X-H torsion
[ 11005 11000 10999 10996 ] final  -69.99 input  -57.11 | X-H torsion

> <Gold.Protein.ActiveResidues>
 VAL166  LYS551  ARG553  GLY616  TRP617  ASP618  TYR619  PRO620  LYS621  CYS622 
 ASP623  PHE694  ASN695  SER759  ASP760  ASP761  ALA762  ILE779  LEU786  VAL792 
 PHE793  MET794  SER795  GLU796  ALA797  LYS798  CYS799  TRP800  GLU811  SER814 

> <Gold.Protein.RotatedAtoms>
  150.6887  134.3531  159.4917 H   0  0  0  0  0  0  0  0  0  0  0  0  # atno 6907 bound_to 6896
  152.1370  134.9089  160.0565 H   0  0  0  0  0  0  0  0  0  0  0  0  # atno 6908 bound_to 6896
  152.0237  133.3874  159.4305 H   0  0  0  0  0  0  0  0  0  0  0  0  # atno 6909 bound_to 6896
  144.8654  139.5932  143.5911 H   0  0  0  0  0  0  0  0  0  0  0  0  # atno 7974 bound_to 7965
  154.8478  140.2925  155.5618 H   0  0  0  0  0  0  0  0  0  0  0  0  # atno 8008 bound_to 7997
  156.3015  140.2502  156.3363 H   0  0  0  0  0  0  0  0  0  0  0  0  # atno 8009 bound_to 7997
  154.9054  140.0390  157.1906 H   0  0  0  0  0  0  0  0  0  0  0  0  # atno 8010 bound_to 7997
  139.6844  143.9527  152.2353 H   0  0  0  0  0  0  0  0  0  0  0  0  # atno 10167 bound_to 10162
  157.3881  131.1001  151.0674 H   0  0  0  0  0  0  0  0  0  0  0  0  # atno 10718 bound_to 10713
  154.8739  135.3784  154.4481 H   0  0  0  0  0  0  0  0  0  0  0  0  # atno 10763 bound_to 10752
  153.5160  135.7029  153.5761 H   0  0  0  0  0  0  0  0  0  0  0  0  # atno 10764 bound_to 10752
  153.4029  135.3943  155.1966 H   0  0  0  0  0  0  0  0  0  0  0  0  # atno 10765 bound_to 10752
  141.1565  133.6778  156.6684 H   0  0  0  0  0  0  0  0  0  0  0  0  # atno 11005 bound_to 11000
  146.2891  139.7089  142.9174 LP  0  0  0  0  0  0  0  0  0  0  0  0  # atno 17320 bound_to 7965
  145.4232  141.0408  143.2952 LP  0  0  0  0  0  0  0  0  0  0  0  0  # atno 17321 bound_to 7965
  139.9325  144.6732  150.8348 LP  0  0  0  0  0  0  0  0  0  0  0  0  # atno 17342 bound_to 10162
  140.7663  143.3299  151.2434 LP  0  0  0  0  0  0  0  0  0  0  0  0  # atno 17343 bound_to 10162
  157.1717  130.6270  149.5643 LP  0  0  0  0  0  0  0  0  0  0  0  0  # atno 17370 bound_to 10713
  155.9791  130.4783  150.6698 LP  0  0  0  0  0  0  0  0  0  0  0  0  # atno 17371 bound_to 10713
  140.3194  134.8021  157.4240 LP  0  0  0  0  0  0  0  0  0  0  0  0  # atno 17394 bound_to 11000
  140.1110  134.5345  155.8266 LP  0  0  0  0  0  0  0  0  0  0  0  0  # atno 17395 bound_to 11000

$$$$
