AV-unprocessed.smi:2735|AV-procd|sdf|10543|dock1
  -GOLD-   2272014593D 1   1.00000     0.00000
 Structure written by MMmdl.
 42 42  0  0  0  0  0  0  0  0  2 V2000
  150.1568  143.9369  157.6490 C   0  0  0  0  0  0  0  0  0  0  0  0
  150.3470  143.3276  159.0065 C   0  0  0  0  0  0  0  0  0  0  0  0
  149.8205  143.7668  160.2521 C   0  0  0  0  0  0  0  0  0  0  0  0
  150.2863  142.8546  161.1564 C   0  0  0  0  0  0  0  0  0  0  0  0
  150.0528  142.7667  162.6294 C   0  0  0  0  0  0  0  0  0  0  0  0
  151.0601  141.9440  160.4539 N   0  0  0  0  0  0  0  0  0  0  0  0
  151.7320  140.7377  160.9411 C   0  0  2  0  0  0  0  0  0  0  0  0
  152.4462  140.9775  162.2878 C   0  0  0  0  0  0  0  0  0  0  0  0
  152.6649  140.1741  159.8547 C   0  0  0  0  0  0  0  0  0  0  0  0
  153.7633  140.6850  159.6322 O   0  0  0  0  0  0  0  0  0  0  0  0
  152.1961  139.1150  159.1767 N   0  0  0  0  0  0  0  0  0  0  0  0
  152.8549  138.4448  158.0592 C   0  0  2  0  0  0  0  0  0  0  0  0
  151.8328  138.2828  156.9076 C   0  0  0  0  0  0  0  0  0  0  0  0
  151.6540  139.5255  156.0025 C   0  0  0  0  0  0  0  0  0  0  0  0
  150.7503  140.5637  156.6843 C   0  0  0  0  0  0  0  0  0  0  0  0
  151.1118  139.1708  154.6080 C   0  0  0  0  0  0  0  0  0  0  0  0
  153.3200  137.0465  158.4966 C   0  0  0  0  0  0  0  0  0  0  0  0
  153.0212  136.6886  159.6567 O   0  0  0  0  0  0  0  0  0  0  0  0
  153.9701  136.3617  157.6740 O   0  5  0  0  0  0  0  0  0  0  0  0
  151.0831  142.2372  159.1325 N   0  0  0  0  0  0  0  0  0  0  0  0
  153.7172  139.0204  157.7186 H   0  0  0  0  0  0  0  0  0  0  0  0
  149.3927  144.7143  157.6697 H   0  0  0  0  0  0  0  0  0  0  0  0
  149.8457  143.1872  156.9208 H   0  0  0  0  0  0  0  0  0  0  0  0
  151.0816  144.3888  157.2897 H   0  0  0  0  0  0  0  0  0  0  0  0
  149.1861  144.6179  160.4505 H   0  0  0  0  0  0  0  0  0  0  0  0
  149.4078  143.5765  162.9703 H   0  0  0  0  0  0  0  0  0  0  0  0
  150.9927  142.8355  163.1772 H   0  0  0  0  0  0  0  0  0  0  0  0
  149.5722  141.8249  162.8934 H   0  0  0  0  0  0  0  0  0  0  0  0
  150.9693  139.9795  161.1191 H   0  0  0  0  0  0  0  0  0  0  0  0
  152.8670  140.0508  162.6801 H   0  0  0  0  0  0  0  0  0  0  0  0
  151.7491  141.3593  163.0341 H   0  0  0  0  0  0  0  0  0  0  0  0
  153.2606  141.6976  162.1973 H   0  0  0  0  0  0  0  0  0  0  0  0
  151.2934  138.7508  159.4428 H   0  0  0  0  0  0  0  0  0  0  0  0
  152.1265  137.4340  156.2876 H   0  0  0  0  0  0  0  0  0  0  0  0
  150.8577  138.0219  157.3236 H   0  0  0  0  0  0  0  0  0  0  0  0
  152.6264  140.0001  155.8658 H   0  0  0  0  0  0  0  0  0  0  0  0
  149.7477  140.1681  156.8500 H   0  0  0  0  0  0  0  0  0  0  0  0
  150.6574  141.4644  156.0769 H   0  0  0  0  0  0  0  0  0  0  0  0
  151.1549  140.8622  157.6518 H   0  0  0  0  0  0  0  0  0  0  0  0
  150.1603  138.6425  154.6746 H   0  0  0  0  0  0  0  0  0  0  0  0
  151.8086  138.5394  154.0568 H   0  0  0  0  0  0  0  0  0  0  0  0
  150.9539  140.0683  154.0096 H   0  0  0  0  0  0  0  0  0  0  0  0
  1  2  1  0  0  0  0
  1 22  1  0  0  0  0
  1 23  1  0  0  0  0
  1 24  1  0  0  0  0
  2 20  2  0  0  0  0
  2  3  1  0  0  0  0
  3  4  2  0  0  0  0
  3 25  1  0  0  0  0
  4  5  1  0  0  0  0
  4  6  1  0  0  0  0
  5 26  1  0  0  0  0
  5 27  1  0  0  0  0
  5 28  1  0  0  0  0
  6  7  1  0  0  0  0
  6 20  1  0  0  0  0
  7  8  1  0  0  0  0
  7  9  1  0  0  0  0
  7 29  1  0  0  0  0
  8 30  1  0  0  0  0
  8 31  1  0  0  0  0
  8 32  1  0  0  0  0
  9 10  2  0  0  0  0
  9 11  1  0  0  0  0
 11 12  1  0  0  0  0
 11 33  1  0  0  0  0
 12 21  1  0  0  0  0
 12 13  1  0  0  0  0
 12 17  1  0  0  0  0
 13 14  1  0  0  0  0
 13 34  1  0  0  0  0
 13 35  1  0  0  0  0
 14 15  1  0  0  0  0
 14 16  1  0  0  0  0
 14 36  1  0  0  0  0
 15 37  1  0  0  0  0
 15 38  1  0  0  0  0
 15 39  1  0  0  0  0
 16 40  1  0  0  0  0
 16 41  1  0  0  0  0
 16 42  1  0  0  0  0
 17 18  2  0  0  0  0
 17 19  1  0  0  0  0
M  CHG  1  19  -1
M  END
> <s_m_source_file>
AV-unprocessed.smi

> <i_m_source_file_index>
2735

> <i_lp_mmshare_version>
43012

> <i_f3d_flags>
0

> <s_epik_input>
W0NIM11jMVtjSF1jKFtDSDNdKW4objEpW0NASF0oW0NIM10pQyg9TylbTkhdW0NASF0oQyg9TylbT0hdKVtDSDJdW0NIXShbQ0gzXSlbQ0gzXQ==

> <s_epik_cmdline>
J2VwaWtfcHl0aG9uJywgJy1waCcsICc3LjAnLCAnLXRuJywgJzgnLCAnLW1hJywgJzIwMCcsICctbWV0YWxfYmluZGluZycsICctaW1hZScsICc8aW5maWxlLm1hZT4nLCAnLW9tYWUnLCAnPG91dGZpbGUubWFlPic=

> <r_lp_tautomer_probability>
1

> <r_epik_Ionization_Penalty>
0.0012303

> <r_epik_Ionization_Penalty_Charging>
0.000186407

> <r_epik_Ionization_Penalty_Neutral>
0.0010439

> <r_epik_State_Penalty>
-0

> <r_epik_Charging_Adjusted_Penalty>
0.000186407

> <i_epik_Tot_Q>
-1

> <i_epik_Tot_abs_Q>
1

> <r_epik_Metal_State_Penalty>
-0

> <b_epik_Metal_Only>
0

> <s_lp_Force_Field>
OPLS_2005

> <r_lp_Energy>
6.45659

> <b_lp_Chiralities_Consistent>
1

> <s_lp_Variant>
AV-unprocessed.smi:2735-3

> <Gold.Version>
5.8.1

> <Gold.Id.Protein>
6NUR|6NUR_protein|mol2

> <Gold.PLP.Fitness>
56.1050

> <Gold.PLP.PLP>
-43.5201

> <Gold.PLP.part.hbond>
-3.0000

> <Gold.PLP.part.metal>
0.0000

> <Gold.PLP.part.buried>
-2.8556

> <Gold.PLP.part.nonpolar>
-36.6363

> <Gold.PLP.part.repulsive>
0.0788

> <Gold.PLP.ligand.clash>
0.0000

> <Gold.PLP.ligand.torsion>
1.3213

> <Gold.PLP.Chemscore.Hbond>
5.0000

> <Gold.PLP.Chemscore.CHOScore>
0.0000

> <Gold.PLP.Chemscore.Metal>
0.0000

> <Gold.Chemscore.Hbonds>
donor molecule, donor type, donor heavy atom, donor atom, acceptor molecule, acceptor atom, score
      P1  H  6896  6909       L1    18  2.00

> <Gold.PLP.Chemscore.Internal.Correction>
0.2275

> <Gold.Rescore>
     Score         DG    S(hbond)    S(metal)    S(lipo)     H(rot)  DE(clash)    DE(int)     intcor
     19.33     -22.10       2.92        0.00     107.81       2.24       1.41       1.36       ----

> <Gold.Chemscore.Fitness>
19.3265

> <Gold.Chemscore.DG>
-22.1038

> <Gold.Chemscore.ZeroCoef>
-5.4800

> <Gold.Chemscore.Hbond>
2.9166

> <Gold.Chemscore.Metal>
0.0000

> <Gold.Chemscore.Lipo>
107.8098

> <Gold.Chemscore.Internal_Hbond>
0.0000

> <Gold.Chemscore.DEClash>
1.4134

> <Gold.Chemscore.DEInternal>
1.3638

> <Gold.Chemscore.Rot>
2.2388

> <Gold.Chemscore.Internal.Correction>
   9.000000E+99

> <Gold.Chemscore.Hbonds>
donor molecule, donor type, donor heavy atom, donor atom, acceptor molecule, acceptor atom, score
      P1  H  6896  6909       L1    18  0.98

> <Gold.Chemscore.Hbond.Weighted>
-9.7414

> <Gold.Chemscore.Metal.Weighted>
-0.0000

> <Gold.Chemscore.Lipo.Weighted>
-12.6137

> <Gold.Chemscore.Internal_Hbond.Weighted>
0.0000

> <Gold.Chemscore.DEClash.Weighted>
1.4134

> <Gold.Chemscore.DEInternal.Weighted>
1.3638

> <Gold.Chemscore.Rot.Weighted>
5.7314

> <Gold.Chemscore.Internal.Correction.Weighted>
   9.000000E+99

> <Gold.Protein.RotatedTorsions>
[ 6907 6896 6895 6894 ] final  153.73 input  -60.11 | X-H torsion
[ 7974 7965 7964 7962 ] final   86.85 input  175.53 | X-H torsion
[ 8008 7997 7996 7995 ] final -126.87 input   59.86 | X-H torsion
[ 10167 10162 10161 10158 ] final  -87.49 input  -65.29 | X-H torsion
[ 10718 10713 10712 10709 ] final    2.49 input   66.30 | X-H torsion
[ 10763 10752 10751 10750 ] final  -83.50 input  -60.55 | X-H torsion
[ 11005 11000 10999 10996 ] final  146.21 input  -57.11 | X-H torsion

> <Gold.Protein.ActiveResidues>
 VAL166  LYS551  ARG553  GLY616  TRP617  ASP618  TYR619  PRO620  LYS621  CYS622 
 ASP623  PHE694  ASN695  SER759  ASP760  ASP761  ALA762  ILE779  LEU786  VAL792 
 PHE793  MET794  SER795  GLU796  ALA797  LYS798  CYS799  TRP800  GLU811  SER814 

> <Gold.Protein.RotatedAtoms>
  152.0685  133.4095  159.4448 H   0  0  0  0  0  0  0  0  0  0  0  0  # atno 6907 bound_to 6896
  150.6864  134.3119  159.4759 H   0  0  0  0  0  0  0  0  0  0  0  0  # atno 6908 bound_to 6896
  152.0948  134.9382  160.0621 H   0  0  0  0  0  0  0  0  0  0  0  0  # atno 6909 bound_to 6896
  145.5668  139.2309  143.2428 H   0  0  0  0  0  0  0  0  0  0  0  0  # atno 7974 bound_to 7965
  155.2369  140.0427  157.2970 H   0  0  0  0  0  0  0  0  0  0  0  0  # atno 8008 bound_to 7997
  154.5853  140.2412  155.7966 H   0  0  0  0  0  0  0  0  0  0  0  0  # atno 8009 bound_to 7997
  156.2222  140.2966  155.9987 H   0  0  0  0  0  0  0  0  0  0  0  0  # atno 8010 bound_to 7997
  140.3839  143.2736  151.9349 H   0  0  0  0  0  0  0  0  0  0  0  0  # atno 10167 bound_to 10162
  156.8638  130.5596  149.5661 H   0  0  0  0  0  0  0  0  0  0  0  0  # atno 10718 bound_to 10713
  154.5885  135.5554  153.7254 H   0  0  0  0  0  0  0  0  0  0  0  0  # atno 10763 bound_to 10752
  153.0107  135.6337  154.1883 H   0  0  0  0  0  0  0  0  0  0  0  0  # atno 10764 bound_to 10752
  154.1824  135.2886  155.3028 H   0  0  0  0  0  0  0  0  0  0  0  0  # atno 10765 bound_to 10752
  140.0775  134.9116  157.1446 H   0  0  0  0  0  0  0  0  0  0  0  0  # atno 11005 bound_to 11000
  146.1812  140.6494  142.9188 LP  0  0  0  0  0  0  0  0  0  0  0  0  # atno 17320 bound_to 7965
  144.7456  140.5060  143.6838 LP  0  0  0  0  0  0  0  0  0  0  0  0  # atno 17321 bound_to 7965
  139.4793  144.5792  151.7961 LP  0  0  0  0  0  0  0  0  0  0  0  0  # atno 17342 bound_to 10162
  140.4909  144.1312  150.5950 LP  0  0  0  0  0  0  0  0  0  0  0  0  # atno 17343 bound_to 10162
  156.0762  130.5784  150.9478 LP  0  0  0  0  0  0  0  0  0  0  0  0  # atno 17370 bound_to 10713
  157.6235  131.0928  150.8578 LP  0  0  0  0  0  0  0  0  0  0  0  0  # atno 17371 bound_to 10713
  140.3537  134.2571  155.7195 LP  0  0  0  0  0  0  0  0  0  0  0  0  # atno 17394 bound_to 11000
  141.2035  133.7911  157.0338 LP  0  0  0  0  0  0  0  0  0  0  0  0  # atno 17395 bound_to 11000

$$$$
