AV-unprocessed.smi:2592|AV-procd|sdf|10160|dock4
  -GOLD-   2272014173D 1   1.00000     0.00000
 Structure written by MMmdl.
 42 43  0  0  0  0  0  0  0  0  1 V2000
  152.3260  144.2306  161.1388 C   0  0  0  0  0  0  0  0  0  0  0  0
  152.1426  143.2628  160.0102 C   0  0  0  0  0  0  0  0  0  0  0  0
  151.1641  143.5083  159.0423 N   0  0  0  0  0  0  0  0  0  0  0  0
  151.1263  142.5540  158.1071 C   0  0  0  0  0  0  0  0  0  0  0  0
  150.2294  142.5445  157.0068 N   0  0  0  0  0  0  0  0  0  0  0  0
  150.0234  141.5637  156.1106 C   0  0  0  0  0  0  0  0  0  0  0  0
  150.5993  140.4752  156.1011 O   0  0  0  0  0  0  0  0  0  0  0  0
  149.0947  141.9165  155.2099 N   0  0  0  0  0  0  0  0  0  0  0  0
  148.6351  141.0782  154.1085 C   0  0  0  0  0  0  0  0  0  0  0  0
  147.1168  141.1978  153.9014 C   0  0  0  0  0  0  0  0  0  0  0  0
  146.6843  142.6440  153.6057 C   0  0  0  0  0  0  0  0  0  0  0  0
  145.4689  143.0798  154.2923 N   0  0  0  0  0  0  0  0  0  0  0  0
  145.6453  143.1814  155.7396 C   0  0  0  0  0  0  0  0  0  0  0  0
  144.3668  143.6722  156.4417 C   0  0  0  0  0  0  0  0  0  0  0  0
  143.9650  144.9213  155.8892 O   0  0  0  0  0  0  0  0  0  0  0  0
  143.7350  144.8507  154.4860 C   0  0  0  0  0  0  0  0  0  0  0  0
  145.0137  144.3679  153.7795 C   0  0  0  0  0  0  0  0  0  0  0  0
  152.3037  141.2765  158.3567 S   0  0  0  0  0  0  0  0  0  0  0  0
  152.8523  142.1042  159.7931 C   0  0  0  0  0  0  0  0  0  0  0  0
  153.9597  141.5448  160.6229 C   0  0  0  0  0  0  0  0  0  0  0  0
  152.3037  143.7199  162.1017 H   0  0  0  0  0  0  0  0  0  0  0  0
  151.5422  144.9892  161.1524 H   0  0  0  0  0  0  0  0  0  0  0  0
  153.2827  144.7469  161.0599 H   0  0  0  0  0  0  0  0  0  0  0  0
  149.6789  143.3823  156.8901 H   0  0  0  0  0  0  0  0  0  0  0  0
  148.6734  142.8300  155.2925 H   0  0  0  0  0  0  0  0  0  0  0  0
  149.1580  141.3926  153.2050 H   0  0  0  0  0  0  0  0  0  0  0  0
  148.9176  140.0387  154.2843 H   0  0  0  0  0  0  0  0  0  0  0  0
  146.8078  140.5552  153.0759 H   0  0  0  0  0  0  0  0  0  0  0  0
  146.6102  140.8265  154.7921 H   0  0  0  0  0  0  0  0  0  0  0  0
  147.5040  143.3255  153.8380 H   0  0  0  0  0  0  0  0  0  0  0  0
  146.5239  142.7256  152.5297 H   0  0  0  0  0  0  0  0  0  0  0  0
  145.9195  142.2134  156.1574 H   0  0  0  0  0  0  0  0  0  0  0  0
  146.4656  143.8646  155.9657 H   0  0  0  0  0  0  0  0  0  0  0  0
  143.5623  142.9428  156.3332 H   0  0  0  0  0  0  0  0  0  0  0  0
  144.5451  143.7961  157.5099 H   0  0  0  0  0  0  0  0  0  0  0  0
  142.9010  144.1781  154.2795 H   0  0  0  0  0  0  0  0  0  0  0  0
  143.4495  145.8374  154.1213 H   0  0  0  0  0  0  0  0  0  0  0  0
  145.7988  145.1151  153.9074 H   0  0  0  0  0  0  0  0  0  0  0  0
  144.8253  144.2945  152.7078 H   0  0  0  0  0  0  0  0  0  0  0  0
  154.7069  142.3089  160.8386 H   0  0  0  0  0  0  0  0  0  0  0  0
  154.4603  140.7228  160.1111 H   0  0  0  0  0  0  0  0  0  0  0  0
  153.5772  141.1680  161.5716 H   0  0  0  0  0  0  0  0  0  0  0  0
  1  2  1  0  0  0  0
  1 21  1  0  0  0  0
  1 22  1  0  0  0  0
  1 23  1  0  0  0  0
  2 19  2  0  0  0  0
  2  3  1  0  0  0  0
  3  4  2  0  0  0  0
  4  5  1  0  0  0  0
  4 18  1  0  0  0  0
  5  6  1  0  0  0  0
  5 24  1  0  0  0  0
  6  7  2  0  0  0  0
  6  8  1  0  0  0  0
  8  9  1  0  0  0  0
  8 25  1  0  0  0  0
  9 10  1  0  0  0  0
  9 26  1  0  0  0  0
  9 27  1  0  0  0  0
 10 11  1  0  0  0  0
 10 28  1  0  0  0  0
 10 29  1  0  0  0  0
 11 12  1  0  0  0  0
 11 30  1  0  0  0  0
 11 31  1  0  0  0  0
 12 17  1  0  0  0  0
 12 13  1  0  0  0  0
 13 14  1  0  0  0  0
 13 32  1  0  0  0  0
 13 33  1  0  0  0  0
 14 15  1  0  0  0  0
 14 34  1  0  0  0  0
 14 35  1  0  0  0  0
 15 16  1  0  0  0  0
 16 17  1  0  0  0  0
 16 36  1  0  0  0  0
 16 37  1  0  0  0  0
 17 38  1  0  0  0  0
 17 39  1  0  0  0  0
 18 19  1  0  0  0  0
 19 20  1  0  0  0  0
 20 40  1  0  0  0  0
 20 41  1  0  0  0  0
 20 42  1  0  0  0  0
M  END
> <s_m_source_file>
AV-unprocessed.smi

> <i_m_source_file_index>
2592

> <i_lp_mmshare_version>
43012

> <i_f3d_flags>
0

> <s_epik_input>
W0NIM11jMW5jKHNjMVtDSDNdKVtOSF1DKD1PKVtOSF1bQ0gyXVtDSDJdW0NIMl1OMltDSDJdW0NIMl1PW0NIMl1bQ0gyXTI=

> <s_epik_cmdline>
J2VwaWtfcHl0aG9uJywgJy1waCcsICc3LjAnLCAnLXRuJywgJzgnLCAnLW1hJywgJzIwMCcsICctbWV0YWxfYmluZGluZycsICctaW1hZScsICc8aW5maWxlLm1hZT4nLCAnLW9tYWUnLCAnPG91dGZpbGUubWFlPic=

> <r_lp_tautomer_probability>
0.999

> <r_epik_Ionization_Penalty>
0.575986

> <r_epik_Ionization_Penalty_Charging>
0

> <r_epik_Ionization_Penalty_Neutral>
0.575986

> <r_epik_State_Penalty>
0.588115

> <r_epik_Charging_Adjusted_Penalty>
0.588115

> <i_epik_Tot_Q>
0

> <i_epik_Tot_abs_Q>
0

> <r_epik_Metal_State_Penalty>
0.606929

> <b_epik_Metal_Only>
0

> <s_lp_Force_Field>
OPLS_2005

> <r_lp_Energy>
19.7719

> <b_lp_Chiralities_Consistent>
1

> <s_lp_Variant>
AV-unprocessed.smi:2592-2

> <Gold.Version>
5.8.1

> <Gold.Id.Protein>
6NUR|6NUR_protein|mol2

> <Gold.PLP.Fitness>
45.5951

> <Gold.PLP.PLP>
-40.6496

> <Gold.PLP.part.hbond>
-2.0000

> <Gold.PLP.part.metal>
0.0000

> <Gold.PLP.part.buried>
-8.5955

> <Gold.PLP.part.nonpolar>
-31.2654

> <Gold.PLP.part.repulsive>
0.5550

> <Gold.PLP.ligand.clash>
0.0000

> <Gold.PLP.ligand.torsion>
0.4925

> <Gold.PLP.Chemscore.Hbond>
1.9680

> <Gold.PLP.Chemscore.CHOScore>
0.0000

> <Gold.PLP.Chemscore.Metal>
0.0000

> <Gold.Chemscore.Hbonds>
donor molecule, donor type, donor heavy atom, donor atom, acceptor molecule, acceptor atom, score
      L1  H     5    24       P1  8028  0.98
      L1  H     8    25       P1  8028  0.99

> <Gold.PLP.Chemscore.Internal.Correction>
0.0266

> <Gold.Rescore>
     Score         DG    S(hbond)    S(metal)    S(lipo)     H(rot)  DE(clash)    DE(int)     intcor
     16.29     -18.35       1.91        0.00      92.31       1.69       0.44       1.62       ----

> <Gold.Chemscore.Fitness>
16.2897

> <Gold.Chemscore.DG>
-18.3490

> <Gold.Chemscore.ZeroCoef>
-5.4800

> <Gold.Chemscore.Hbond>
1.9142

> <Gold.Chemscore.Metal>
0.0000

> <Gold.Chemscore.Lipo>
92.3056

> <Gold.Chemscore.Internal_Hbond>
0.0000

> <Gold.Chemscore.DEClash>
0.4413

> <Gold.Chemscore.DEInternal>
1.6180

> <Gold.Chemscore.Rot>
1.6892

> <Gold.Chemscore.Internal.Correction>
   9.000000E+99

> <Gold.Chemscore.Hbonds>
donor molecule, donor type, donor heavy atom, donor atom, acceptor molecule, acceptor atom, score
      L1  H     5    24       P1  8028  0.91
      L1  H     8    25       P1  8028  0.93

> <Gold.Chemscore.Hbond.Weighted>
-6.3936

> <Gold.Chemscore.Metal.Weighted>
-0.0000

> <Gold.Chemscore.Lipo.Weighted>
-10.7998

> <Gold.Chemscore.Internal_Hbond.Weighted>
0.0000

> <Gold.Chemscore.DEClash.Weighted>
0.4413

> <Gold.Chemscore.DEInternal.Weighted>
1.6180

> <Gold.Chemscore.Rot.Weighted>
4.3243

> <Gold.Chemscore.Internal.Correction.Weighted>
   9.000000E+99

> <Gold.Protein.RotatedTorsions>
[ 6907 6896 6895 6894 ] final   22.20 input  -60.11 | X-H torsion
[ 7974 7965 7964 7962 ] final   60.25 input  175.53 | X-H torsion
[ 8008 7997 7996 7995 ] final -163.17 input   59.86 | X-H torsion
[ 10167 10162 10161 10158 ] final  -19.69 input  -65.29 | X-H torsion
[ 10718 10713 10712 10709 ] final  -38.43 input   66.30 | X-H torsion
[ 10763 10752 10751 10750 ] final   31.33 input  -60.55 | X-H torsion
[ 11005 11000 10999 10996 ] final  -72.72 input  -57.11 | X-H torsion

> <Gold.Protein.ActiveResidues>
 VAL166  LYS551  ARG553  GLY616  TRP617  ASP618  TYR619  PRO620  LYS621  CYS622 
 ASP623  PHE694  ASN695  SER759  ASP760  ASP761  ALA762  ILE779  LEU786  VAL792 
 PHE793  MET794  SER795  GLU796  ALA797  LYS798  CYS799  TRP800  GLU811  SER814 

> <Gold.Protein.RotatedAtoms>
  151.9235  135.0288  160.0523 H   0  0  0  0  0  0  0  0  0  0  0  0  # atno 6907 bound_to 6896
  152.2179  133.4956  159.5155 H   0  0  0  0  0  0  0  0  0  0  0  0  # atno 6908 bound_to 6896
  150.6992  134.1297  159.4108 H   0  0  0  0  0  0  0  0  0  0  0  0  # atno 6909 bound_to 6896
  145.8981  139.3560  143.0609 H   0  0  0  0  0  0  0  0  0  0  0  0  # atno 7974 bound_to 7965
  155.8174  140.0914  157.1869 H   0  0  0  0  0  0  0  0  0  0  0  0  # atno 8008 bound_to 7997
  154.3979  140.1443  156.3519 H   0  0  0  0  0  0  0  0  0  0  0  0  # atno 8009 bound_to 7997
  155.8302  140.3443  155.5570 H   0  0  0  0  0  0  0  0  0  0  0  0  # atno 8010 bound_to 7997
  140.7270  143.4795  151.0137 H   0  0  0  0  0  0  0  0  0  0  0  0  # atno 10167 bound_to 10162
  156.3038  130.4243  149.8117 H   0  0  0  0  0  0  0  0  0  0  0  0  # atno 10718 bound_to 10713
  153.0322  135.6441  154.1182 H   0  0  0  0  0  0  0  0  0  0  0  0  # atno 10763 bound_to 10752
  154.0903  135.2867  155.3274 H   0  0  0  0  0  0  0  0  0  0  0  0  # atno 10764 bound_to 10752
  154.6469  135.5440  153.7919 H   0  0  0  0  0  0  0  0  0  0  0  0  # atno 10765 bound_to 10752
  141.1612  133.6855  156.7102 H   0  0  0  0  0  0  0  0  0  0  0  0  # atno 11005 bound_to 11000
  145.8825  140.9354  143.0594 LP  0  0  0  0  0  0  0  0  0  0  0  0  # atno 17320 bound_to 7965
  144.6734  140.0799  143.7469 LP  0  0  0  0  0  0  0  0  0  0  0  0  # atno 17321 bound_to 7965
  139.8492  143.7461  152.3178 LP  0  0  0  0  0  0  0  0  0  0  0  0  # atno 17342 bound_to 10162
  139.7637  144.7498  151.0326 LP  0  0  0  0  0  0  0  0  0  0  0  0  # atno 17343 bound_to 10162
  156.5485  130.8331  151.3292 LP  0  0  0  0  0  0  0  0  0  0  0  0  # atno 17370 bound_to 10713
  157.7374  130.9796  150.2194 LP  0  0  0  0  0  0  0  0  0  0  0  0  # atno 17371 bound_to 10713
  140.2893  134.8253  157.4002 LP  0  0  0  0  0  0  0  0  0  0  0  0  # atno 17394 bound_to 11000
  140.1361  134.5032  155.8067 LP  0  0  0  0  0  0  0  0  0  0  0  0  # atno 17395 bound_to 11000

$$$$
