AV-unprocessed.smi:204|AV-procd|sdf|1599|dock8
  -GOLD-   2262019503D 1   1.00000     0.00000
 Structure written by MMmdl.
 53 56  0  0  0  0  0  0  0  0  1 V2000
  151.2039  145.6273  160.0787 C   0  0  0  0  0  0  0  0  0  0  0  0
  151.7324  144.1984  160.0121 C   0  0  0  0  0  0  0  0  0  0  0  0
  152.3907  143.7382  160.9445 O   0  0  0  0  0  0  0  0  0  0  0  0
  151.4366  143.5067  158.9030 N   0  0  0  0  0  0  0  0  0  0  0  0
  151.8464  142.1295  158.6577 C   0  0  0  0  0  0  0  0  0  0  0  0
  150.8628  141.4005  157.7236 C   0  0  1  0  0  0  0  0  0  0  0  0
  151.0168  141.8256  156.2474 C   0  0  0  0  0  0  0  0  0  0  0  0
  150.0406  141.0445  155.3548 C   0  0  0  0  0  0  0  0  0  0  0  0
  150.2113  139.5292  155.5430 C   0  0  0  0  0  0  0  0  0  0  0  0
  150.1025  139.1667  156.9568 N   0  0  0  0  0  0  0  0  0  0  0  0
  149.9004  137.8590  157.2620 C   0  0  0  0  0  0  0  0  0  0  0  0
  149.3779  137.5182  158.4706 N   0  0  0  0  0  0  0  0  0  0  0  0
  149.1659  136.2355  158.7784 C   0  0  0  0  0  0  0  0  0  0  0  0
  149.4055  135.1504  158.0404 N   0  0  0  0  0  0  0  0  0  0  0  0
  149.9394  135.4819  156.8303 C   0  0  0  0  0  0  0  0  0  0  0  0
  150.2128  136.7991  156.3633 C   0  0  0  0  0  0  0  0  0  0  0  0
  150.7551  136.7427  155.0847 N   0  0  0  0  0  0  0  0  0  0  0  0
  150.7847  135.4684  154.8062 C   0  0  0  0  0  0  0  0  0  0  0  0
  150.3288  134.6373  155.8048 N   0  0  0  0  0  0  0  0  0  0  0  0
  150.2603  133.1842  155.7616 C   0  0  0  0  0  0  0  0  0  0  0  0
  149.1894  132.6307  154.7982 C   0  0  0  0  0  0  0  0  0  0  0  0
  149.3481  133.2401  153.3941 C   0  0  0  0  0  0  0  0  0  0  0  0
  148.5210  132.5895  152.4500 O   0  0  0  0  0  0  0  0  0  0  0  0
  149.0000  131.1069  154.8047 C   0  0  0  0  0  0  0  0  0  0  0  0
  147.5722  131.2299  154.9742 O   0  0  0  0  0  0  0  0  0  0  0  0
  147.7508  132.6163  155.3336 C   0  0  0  0  0  0  0  0  0  0  0  0
  151.0241  139.8723  157.8473 C   0  0  0  0  0  0  0  0  0  0  0  0
  150.1255  145.6438  159.9176 H   0  0  0  0  0  0  0  0  0  0  0  0
  151.6782  146.2436  159.3147 H   0  0  0  0  0  0  0  0  0  0  0  0
  151.4092  146.0720  161.0531 H   0  0  0  0  0  0  0  0  0  0  0  0
  150.8935  143.9614  158.1834 H   0  0  0  0  0  0  0  0  0  0  0  0
  152.8494  142.1220  158.2277 H   0  0  0  0  0  0  0  0  0  0  0  0
  151.9056  141.6038  159.6123 H   0  0  0  0  0  0  0  0  0  0  0  0
  149.8505  141.6523  158.0447 H   0  0  0  0  0  0  0  0  0  0  0  0
  150.8357  142.8944  156.1311 H   0  0  0  0  0  0  0  0  0  0  0  0
  152.0402  141.6450  155.9154 H   0  0  0  0  0  0  0  0  0  0  0  0
  149.0163  141.3282  155.5999 H   0  0  0  0  0  0  0  0  0  0  0  0
  150.1940  141.3104  154.3086 H   0  0  0  0  0  0  0  0  0  0  0  0
  149.4524  139.0055  154.9600 H   0  0  0  0  0  0  0  0  0  0  0  0
  151.1852  139.2148  155.1644 H   0  0  0  0  0  0  0  0  0  0  0  0
  148.7441  136.0525  159.7557 H   0  0  0  0  0  0  0  0  0  0  0  0
  151.1535  135.0953  153.8617 H   0  0  0  0  0  0  0  0  0  0  0  0
  151.2483  132.8131  155.4861 H   0  0  0  0  0  0  0  0  0  0  0  0
  150.0892  132.8217  156.7758 H   0  0  0  0  0  0  0  0  0  0  0  0
  149.1281  134.3075  153.3900 H   0  0  0  0  0  0  0  0  0  0  0  0
  150.3793  133.1460  153.0519 H   0  0  0  0  0  0  0  0  0  0  0  0
  149.0503  131.9838  151.9538 H   0  0  0  0  0  0  0  0  0  0  0  0
  149.2740  130.6195  153.8684 H   0  0  0  0  0  0  0  0  0  0  0  0
  149.4578  130.6011  155.6553 H   0  0  0  0  0  0  0  0  0  0  0  0
  147.6769  132.7674  156.4120 H   0  0  0  0  0  0  0  0  0  0  0  0
  147.0689  133.2801  154.8007 H   0  0  0  0  0  0  0  0  0  0  0  0
  152.0437  139.5837  157.5883 H   0  0  0  0  0  0  0  0  0  0  0  0
  150.8758  139.5781  158.8857 H   0  0  0  0  0  0  0  0  0  0  0  0
  1  2  1  0  0  0  0
  1 28  1  0  0  0  0
  1 29  1  0  0  0  0
  1 30  1  0  0  0  0
  2  3  2  0  0  0  0
  2  4  1  0  0  0  0
  4  5  1  0  0  0  0
  4 31  1  0  0  0  0
  5  6  1  0  0  0  0
  5 32  1  0  0  0  0
  5 33  1  0  0  0  0
  6 27  1  0  0  0  0
  6  7  1  0  0  0  0
  6 34  1  0  0  0  0
  7  8  1  0  0  0  0
  7 35  1  0  0  0  0
  7 36  1  0  0  0  0
  8  9  1  0  0  0  0
  8 37  1  0  0  0  0
  8 38  1  0  0  0  0
  9 10  1  0  0  0  0
  9 39  1  0  0  0  0
  9 40  1  0  0  0  0
 10 11  1  0  0  0  0
 10 27  1  0  0  0  0
 11 16  1  0  0  0  0
 11 12  2  0  0  0  0
 12 13  1  0  0  0  0
 13 14  2  0  0  0  0
 13 41  1  0  0  0  0
 14 15  1  0  0  0  0
 15 19  1  0  0  0  0
 15 16  2  0  0  0  0
 16 17  1  0  0  0  0
 17 18  2  0  0  0  0
 18 19  1  0  0  0  0
 18 42  1  0  0  0  0
 19 20  1  0  0  0  0
 20 21  1  0  0  0  0
 20 43  1  0  0  0  0
 20 44  1  0  0  0  0
 21 26  1  0  0  0  0
 21 22  1  0  0  0  0
 21 24  1  0  0  0  0
 22 23  1  0  0  0  0
 22 45  1  0  0  0  0
 22 46  1  0  0  0  0
 23 47  1  0  0  0  0
 24 25  1  0  0  0  0
 24 48  1  0  0  0  0
 24 49  1  0  0  0  0
 25 26  1  0  0  0  0
 26 50  1  0  0  0  0
 26 51  1  0  0  0  0
 27 52  1  0  0  0  0
 27 53  1  0  0  0  0
M  END
> <s_m_source_file>
AV-unprocessed.smi

> <i_m_source_file_index>
204

> <i_lp_mmshare_version>
43012

> <i_f3d_flags>
0

> <s_epik_input>
W0NIM11DKD1PKVtOSF1bQ0gyXVtDQEBIXTFbQ0gyXVtDSDJdW0NIMl1OKFtDSDJdMSljKG5bY0hdbjIpYyhjMjMpbltjSF1uM1tDSDJdQzQoW0NIMl1bT0hdKVtDSDJdT1tDSDJdNA==

> <s_epik_cmdline>
J2VwaWtfcHl0aG9uJywgJy1waCcsICc3LjAnLCAnLXRuJywgJzgnLCAnLW1hJywgJzIwMCcsICctbWV0YWxfYmluZGluZycsICctaW1hZScsICc8aW5maWxlLm1hZT4nLCAnLW9tYWUnLCAnPG91dGZpbGUubWFlPic=

> <r_lp_tautomer_probability>
1

> <r_epik_Ionization_Penalty>
0.00166599

> <r_epik_Ionization_Penalty_Charging>
0

> <r_epik_Ionization_Penalty_Neutral>
0.00166599

> <r_epik_State_Penalty>
0.000989951

> <r_epik_Charging_Adjusted_Penalty>
0.000989951

> <i_epik_Tot_Q>
0

> <i_epik_Tot_abs_Q>
0

> <r_epik_Metal_State_Penalty>
-0

> <b_epik_Metal_Only>
0

> <s_lp_Force_Field>
OPLS_2005

> <r_lp_Energy>
35.563

> <b_lp_Chiralities_Consistent>
1

> <s_lp_Variant>
AV-unprocessed.smi:204-2

> <Gold.Version>
5.8.1

> <Gold.Id.Protein>
6NUR|6NUR_protein|mol2

> <Gold.PLP.Fitness>
44.8671

> <Gold.PLP.PLP>
-38.2738

> <Gold.PLP.part.hbond>
-2.0000

> <Gold.PLP.part.metal>
0.0000

> <Gold.PLP.part.buried>
-6.3970

> <Gold.PLP.part.nonpolar>
-30.2843

> <Gold.PLP.part.repulsive>
0.2928

> <Gold.PLP.ligand.clash>
0.0000

> <Gold.PLP.ligand.torsion>
0.9940

> <Gold.PLP.Chemscore.Hbond>
1.8208

> <Gold.PLP.Chemscore.CHOScore>
0.7720

> <Gold.PLP.Chemscore.Metal>
0.0000

> <Gold.Chemscore.Hbonds>
donor molecule, donor type, donor heavy atom, donor atom, acceptor molecule, acceptor atom, score
      L1  H    23    47       P1 10747  0.85
      P1  H  6896  6909       L1    14  0.80
      L1  C    18    42       P1  7949  0.92

> <Gold.PLP.Chemscore.Internal.Correction>
0.8030

> <Gold.Rescore>
     Score         DG    S(hbond)    S(metal)    S(lipo)     H(rot)  DE(clash)    DE(int)     intcor
      6.26      -9.50       1.01        0.00      78.27       3.33       0.05       3.19       ----

> <Gold.Chemscore.Fitness>
6.2575

> <Gold.Chemscore.DG>
-9.4966

> <Gold.Chemscore.ZeroCoef>
-5.4800

> <Gold.Chemscore.Hbond>
1.0100

> <Gold.Chemscore.Metal>
0.0000

> <Gold.Chemscore.Lipo>
78.2748

> <Gold.Chemscore.Internal_Hbond>
0.0000

> <Gold.Chemscore.DEClash>
0.0516

> <Gold.Chemscore.DEInternal>
3.1875

> <Gold.Chemscore.Rot>
3.3261

> <Gold.Chemscore.Internal.Correction>
   9.000000E+99

> <Gold.Chemscore.Hbonds>
donor molecule, donor type, donor heavy atom, donor atom, acceptor molecule, acceptor atom, score
      L1  H    23    47       P1 10747  0.66
      P1  H  6896  6909       L1    14  0.14

> <Gold.Chemscore.Hbond.Weighted>
-3.3733

> <Gold.Chemscore.Metal.Weighted>
-0.0000

> <Gold.Chemscore.Lipo.Weighted>
-9.1581

> <Gold.Chemscore.Internal_Hbond.Weighted>
0.0000

> <Gold.Chemscore.DEClash.Weighted>
0.0516

> <Gold.Chemscore.DEInternal.Weighted>
3.1875

> <Gold.Chemscore.Rot.Weighted>
8.5149

> <Gold.Chemscore.Internal.Correction.Weighted>
   9.000000E+99

> <Gold.Protein.RotatedTorsions>
[ 6907 6896 6895 6894 ] final   22.46 input  -60.11 | X-H torsion
[ 7974 7965 7964 7962 ] final   65.72 input  175.53 | X-H torsion
[ 8008 7997 7996 7995 ] final  -64.49 input   59.86 | X-H torsion
[ 10167 10162 10161 10158 ] final  107.75 input  -65.29 | X-H torsion
[ 10718 10713 10712 10709 ] final   79.13 input   66.30 | X-H torsion
[ 10763 10752 10751 10750 ] final   93.56 input  -60.55 | X-H torsion
[ 11005 11000 10999 10996 ] final  -82.33 input  -57.11 | X-H torsion

> <Gold.Protein.ActiveResidues>
 VAL166  LYS551  ARG553  GLY616  TRP617  ASP618  TYR619  PRO620  LYS621  CYS622 
 ASP623  PHE694  ASN695  SER759  ASP760  ASP761  ALA762  ILE779  LEU786  VAL792 
 PHE793  MET794  SER795  GLU796  ALA797  LYS798  CYS799  TRP800  GLU811  SER814 

> <Gold.Protein.RotatedAtoms>
  151.9274  135.0271  160.0526 H   0  0  0  0  0  0  0  0  0  0  0  0  # atno 6907 bound_to 6896
  152.2147  133.4933  159.5138 H   0  0  0  0  0  0  0  0  0  0  0  0  # atno 6908 bound_to 6896
  150.6985  134.1337  159.4122 H   0  0  0  0  0  0  0  0  0  0  0  0  # atno 6909 bound_to 6896
  145.8351  139.3162  143.0964 H   0  0  0  0  0  0  0  0  0  0  0  0  # atno 7974 bound_to 7965
  154.4615  140.0952  156.6905 H   0  0  0  0  0  0  0  0  0  0  0  0  # atno 8008 bound_to 7997
  155.4981  140.3473  155.4348 H   0  0  0  0  0  0  0  0  0  0  0  0  # atno 8009 bound_to 7997
  156.0879  140.1389  156.9619 H   0  0  0  0  0  0  0  0  0  0  0  0  # atno 8010 bound_to 7997
  139.6902  144.7109  151.1362 H   0  0  0  0  0  0  0  0  0  0  0  0  # atno 10167 bound_to 10162
  157.6767  130.9900  150.1887 H   0  0  0  0  0  0  0  0  0  0  0  0  # atno 10718 bound_to 10713
  153.2317  135.4321  155.0602 H   0  0  0  0  0  0  0  0  0  0  0  0  # atno 10763 bound_to 10752
  154.8300  135.3381  154.6778 H   0  0  0  0  0  0  0  0  0  0  0  0  # atno 10764 bound_to 10752
  153.7205  135.7017  153.5070 H   0  0  0  0  0  0  0  0  0  0  0  0  # atno 10765 bound_to 10752
  141.1663  133.7239  156.8556 H   0  0  0  0  0  0  0  0  0  0  0  0  # atno 11005 bound_to 11000
  145.9528  140.8896  143.0250 LP  0  0  0  0  0  0  0  0  0  0  0  0  # atno 17320 bound_to 7965
  144.6737  140.1703  143.7415 LP  0  0  0  0  0  0  0  0  0  0  0  0  # atno 17321 bound_to 7965
  140.7680  143.5571  150.9140 LP  0  0  0  0  0  0  0  0  0  0  0  0  # atno 17342 bound_to 10162
  139.9248  143.6563  152.3089 LP  0  0  0  0  0  0  0  0  0  0  0  0  # atno 17343 bound_to 10162
  156.2604  130.3710  149.8137 LP  0  0  0  0  0  0  0  0  0  0  0  0  # atno 17370 bound_to 10713
  156.5884  130.8496  151.3401 LP  0  0  0  0  0  0  0  0  0  0  0  0  # atno 17371 bound_to 10713
  140.1885  134.8982  157.3032 LP  0  0  0  0  0  0  0  0  0  0  0  0  # atno 17394 bound_to 11000
  140.2316  134.3902  155.7519 LP  0  0  0  0  0  0  0  0  0  0  0  0  # atno 17395 bound_to 11000

$$$$
