AV-unprocessed.smi:249|AV-procd|sdf|1922|dock1
  -GOLD-   2262021 23D 1   1.00000     0.00000
 Structure written by MMmdl.
 64 67  0  0  0  0  0  0  0  0  2 V2000
  145.8479  137.8150  151.4467 C   0  0  0  0  0  0  0  0  0  0  0  0
  146.6126  138.9693  152.1098 C   0  0  0  0  0  0  0  0  0  0  0  0
  147.5786  138.4924  153.1330 N   0  3  2  0  0  0  0  0  0  0  0  0
  146.9388  137.7820  154.2733 C   0  0  0  0  0  0  0  0  0  0  0  0
  147.9925  137.1338  155.1855 C   0  0  0  0  0  0  0  0  0  0  0  0
  149.0094  138.1756  155.6962 C   0  0  1  0  0  0  0  0  0  0  0  0
  150.0051  137.6125  156.6196 N   0  0  0  0  0  0  0  0  0  0  0  0
  150.5687  136.3110  156.2782 C   0  0  0  0  0  0  0  0  0  0  0  0
  150.9035  138.4707  157.1604 C   0  0  0  0  0  0  0  0  0  0  0  0
  152.1045  138.0076  157.5972 N   0  0  0  0  0  0  0  0  0  0  0  0
  153.0049  138.8561  158.1030 C   0  0  0  0  0  0  0  0  0  0  0  0
  152.9127  140.1791  158.2528 N   0  0  0  0  0  0  0  0  0  0  0  0
  151.7038  140.6435  157.8251 C   0  0  0  0  0  0  0  0  0  0  0  0
  150.6458  139.8622  157.2838 C   0  0  0  0  0  0  0  0  0  0  0  0
  149.5616  140.6744  156.9761 N   0  0  0  0  0  0  0  0  0  0  0  0
  149.9633  141.8734  157.2985 C   0  0  0  0  0  0  0  0  0  0  0  0
  151.2494  141.9498  157.7849 N   0  0  0  0  0  0  0  0  0  0  0  0
  151.9515  143.1525  158.1935 C   0  0  0  0  0  0  0  0  0  0  0  0
  151.8860  143.4612  159.7165 C   0  0  2  0  0  0  0  0  0  0  0  0
  152.5301  144.8446  159.9777 C   0  0  0  0  0  0  0  0  0  0  0  0
  151.7359  145.8902  159.4560 O   0  0  0  0  0  0  0  0  0  0  0  0
  152.5323  142.3515  160.6024 C   0  0  1  0  0  0  0  0  0  0  0  0
  153.9135  141.8922  160.1572 C   0  0  0  0  0  0  0  0  0  0  0  0
  154.4494  141.2087  161.4059 C   0  0  0  0  0  0  0  0  0  0  0  0
  153.9881  142.0186  162.4749 O   0  0  0  0  0  0  0  0  0  0  0  0
  152.8355  142.7457  162.0603 C   0  0  0  0  0  0  0  0  0  0  0  0
  149.6260  138.9140  154.4866 C   0  0  0  0  0  0  0  0  0  0  0  0
  148.5521  139.5360  153.5717 C   0  0  2  0  0  0  0  0  0  0  0  0
  147.8836  140.7763  154.2047 C   0  0  0  0  0  0  0  0  0  0  0  0
  145.2069  138.1899  150.6483 H   0  0  0  0  0  0  0  0  0  0  0  0
  145.2079  137.2868  152.1528 H   0  0  0  0  0  0  0  0  0  0  0  0
  146.5334  137.0907  151.0057 H   0  0  0  0  0  0  0  0  0  0  0  0
  147.1517  139.5025  151.3255 H   0  0  0  0  0  0  0  0  0  0  0  0
  145.9178  139.6851  152.5513 H   0  0  0  0  0  0  0  0  0  0  0  0
  146.3134  138.4698  154.8431 H   0  0  0  0  0  0  0  0  0  0  0  0
  146.2755  137.0009  153.9031 H   0  0  0  0  0  0  0  0  0  0  0  0
  147.4902  136.6472  156.0218 H   0  0  0  0  0  0  0  0  0  0  0  0
  148.5033  136.3466  154.6302 H   0  0  0  0  0  0  0  0  0  0  0  0
  148.4583  138.9128  156.2807 H   0  0  0  0  0  0  0  0  0  0  0  0
  151.1326  135.9039  157.1184 H   0  0  0  0  0  0  0  0  0  0  0  0
  151.2361  136.3775  155.4186 H   0  0  0  0  0  0  0  0  0  0  0  0
  149.7744  135.6044  156.0376 H   0  0  0  0  0  0  0  0  0  0  0  0
  153.9351  138.4132  158.4269 H   0  0  0  0  0  0  0  0  0  0  0  0
  149.3358  142.7433  157.1684 H   0  0  0  0  0  0  0  0  0  0  0  0
  152.9927  143.0655  157.8799 H   0  0  0  0  0  0  0  0  0  0  0  0
  151.5285  143.9756  157.6169 H   0  0  0  0  0  0  0  0  0  0  0  0
  150.8378  143.5413  160.0075 H   0  0  0  0  0  0  0  0  0  0  0  0
  152.6354  145.0431  161.0435 H   0  0  0  0  0  0  0  0  0  0  0  0
  153.5280  144.8963  159.5416 H   0  0  0  0  0  0  0  0  0  0  0  0
  152.2892  146.6409  159.3026 H   0  0  0  0  0  0  0  0  0  0  0  0
  151.8797  141.4768  160.6081 H   0  0  0  0  0  0  0  0  0  0  0  0
  153.8892  141.2172  159.3012 H   0  0  0  0  0  0  0  0  0  0  0  0
  154.5398  142.7491  159.9036 H   0  0  0  0  0  0  0  0  0  0  0  0
  154.0241  140.2092  161.5071 H   0  0  0  0  0  0  0  0  0  0  0  0
  155.5360  141.1216  161.4068 H   0  0  0  0  0  0  0  0  0  0  0  0
  153.0647  143.8082  162.1454 H   0  0  0  0  0  0  0  0  0  0  0  0
  152.0045  142.5240  162.7285 H   0  0  0  0  0  0  0  0  0  0  0  0
  150.3115  139.6899  154.8293 H   0  0  0  0  0  0  0  0  0  0  0  0
  150.2195  138.2214  153.8882 H   0  0  0  0  0  0  0  0  0  0  0  0
  149.0713  139.8807  152.6762 H   0  0  0  0  0  0  0  0  0  0  0  0
  148.6352  141.5118  154.4927 H   0  0  0  0  0  0  0  0  0  0  0  0
  147.3123  140.5324  155.0995 H   0  0  0  0  0  0  0  0  0  0  0  0
  147.2087  141.2716  153.5069 H   0  0  0  0  0  0  0  0  0  0  0  0
  148.1415  137.7987  152.6614 H   0  0  0  0  0  0  0  0  0  0  0  0
  1  2  1  0  0  0  0
  1 30  1  0  0  0  0
  1 31  1  0  0  0  0
  1 32  1  0  0  0  0
  2  3  1  0  0  0  0
  2 33  1  0  0  0  0
  2 34  1  0  0  0  0
  3 28  1  0  0  0  0
  3  4  1  0  0  0  0
  3 64  1  0  0  0  0
  4  5  1  0  0  0  0
  4 35  1  0  0  0  0
  4 36  1  0  0  0  0
  5  6  1  0  0  0  0
  5 37  1  0  0  0  0
  5 38  1  0  0  0  0
  6  7  1  0  0  0  0
  6 27  1  0  0  0  0
  6 39  1  0  0  0  0
  7  8  1  0  0  0  0
  7  9  1  0  0  0  0
  8 40  1  0  0  0  0
  8 41  1  0  0  0  0
  8 42  1  0  0  0  0
  9 14  1  0  0  0  0
  9 10  2  0  0  0  0
 10 11  1  0  0  0  0
 11 12  2  0  0  0  0
 11 43  1  0  0  0  0
 12 13  1  0  0  0  0
 13 17  1  0  0  0  0
 13 14  2  0  0  0  0
 14 15  1  0  0  0  0
 15 16  2  0  0  0  0
 16 17  1  0  0  0  0
 16 44  1  0  0  0  0
 17 18  1  0  0  0  0
 18 19  1  0  0  0  0
 18 45  1  0  0  0  0
 18 46  1  0  0  0  0
 19 20  1  0  0  0  0
 19 22  1  0  0  0  0
 19 47  1  0  0  0  0
 20 21  1  0  0  0  0
 20 48  1  0  0  0  0
 20 49  1  0  0  0  0
 21 50  1  0  0  0  0
 22 26  1  0  0  0  0
 22 23  1  0  0  0  0
 22 51  1  0  0  0  0
 23 24  1  0  0  0  0
 23 52  1  0  0  0  0
 23 53  1  0  0  0  0
 24 25  1  0  0  0  0
 24 54  1  0  0  0  0
 24 55  1  0  0  0  0
 25 26  1  0  0  0  0
 26 56  1  0  0  0  0
 26 57  1  0  0  0  0
 27 28  1  0  0  0  0
 27 58  1  0  0  0  0
 27 59  1  0  0  0  0
 28 29  1  0  0  0  0
 28 60  1  0  0  0  0
 29 61  1  0  0  0  0
 29 62  1  0  0  0  0
 29 63  1  0  0  0  0
M  CHG  1   3   1
M  END
> <s_m_source_file>
AV-unprocessed.smi

> <i_m_source_file_index>
249

> <i_lp_mmshare_version>
43012

> <i_f3d_flags>
0

> <s_epik_input>
W0NIM11bQ0gyXU4xW0NIMl1bQ0gyXVtDQEhdKFtDSDJdW0NASF0xW0NIM10pTihbQ0gzXSljKG5bY0hdbjIpYyhjMjMpbltjSF1uM1tDSDJdW0NASF0oW0NIMl1bT0hdKVtDQEBIXTRbQ0gyXVtDSDJdT1tDSDJdNA==

> <s_epik_cmdline>
J2VwaWtfcHl0aG9uJywgJy1waCcsICc3LjAnLCAnLXRuJywgJzgnLCAnLW1hJywgJzIwMCcsICctbWV0YWxfYmluZGluZycsICctaW1hZScsICc8aW5maWxlLm1hZT4nLCAnLW9tYWUnLCAnPG91dGZpbGUubWFlPic=

> <r_lp_tautomer_probability>
1

> <r_epik_Ionization_Penalty>
0.00294688

> <r_epik_Ionization_Penalty_Charging>
0.00169971

> <r_epik_Ionization_Penalty_Neutral>
0.00124717

> <r_epik_State_Penalty>
-0

> <r_epik_Charging_Adjusted_Penalty>
0.00169971

> <i_epik_Tot_Q>
1

> <i_epik_Tot_abs_Q>
1

> <r_epik_Metal_State_Penalty>
-0

> <b_epik_Metal_Only>
0

> <s_lp_Force_Field>
OPLS_2005

> <r_lp_Energy>
54.0807

> <b_lp_Chiralities_Consistent>
1

> <s_lp_Variant>
AV-unprocessed.smi:249-25

> <Gold.Version>
5.8.1

> <Gold.Id.Protein>
6NUR|6NUR_protein|mol2

> <Gold.PLP.Fitness>
55.8321

> <Gold.PLP.PLP>
-48.3993

> <Gold.PLP.part.hbond>
-4.7915

> <Gold.PLP.part.metal>
0.0000

> <Gold.PLP.part.buried>
3.3657

> <Gold.PLP.part.nonpolar>
-46.3512

> <Gold.PLP.part.repulsive>
0.1093

> <Gold.PLP.ligand.clash>
0.0000

> <Gold.PLP.ligand.torsion>
1.4216

> <Gold.PLP.Chemscore.Hbond>
2.0000

> <Gold.PLP.Chemscore.CHOScore>
1.0000

> <Gold.PLP.Chemscore.Metal>
0.0000

> <Gold.Chemscore.Hbonds>
donor molecule, donor type, donor heavy atom, donor atom, acceptor molecule, acceptor atom, score
      L1  H     3    64       P1  7948  2.00
      L1  C    16    44       P1  8028  1.00

> <Gold.PLP.Chemscore.Internal.Correction>
1.2760

> <Gold.Rescore>
     Score         DG    S(hbond)    S(metal)    S(lipo)     H(rot)  DE(clash)    DE(int)     intcor
     10.23     -16.38       1.00        0.00     128.10       2.90       3.17       2.99       ----

> <Gold.Chemscore.Fitness>
10.2278

> <Gold.Chemscore.DG>
-16.3808

> <Gold.Chemscore.ZeroCoef>
-5.4800

> <Gold.Chemscore.Hbond>
0.9995

> <Gold.Chemscore.Metal>
0.0000

> <Gold.Chemscore.Lipo>
128.1022

> <Gold.Chemscore.Internal_Hbond>
0.0000

> <Gold.Chemscore.DEClash>
3.1675

> <Gold.Chemscore.DEInternal>
2.9855

> <Gold.Chemscore.Rot>
2.9006

> <Gold.Chemscore.Internal.Correction>
   9.000000E+99

> <Gold.Chemscore.Hbonds>
donor molecule, donor type, donor heavy atom, donor atom, acceptor molecule, acceptor atom, score
      L1  H     3    64       P1  7948  1.00

> <Gold.Chemscore.Hbond.Weighted>
-3.3385

> <Gold.Chemscore.Metal.Weighted>
-0.0000

> <Gold.Chemscore.Lipo.Weighted>
-14.9880

> <Gold.Chemscore.Internal_Hbond.Weighted>
0.0000

> <Gold.Chemscore.DEClash.Weighted>
3.1675

> <Gold.Chemscore.DEInternal.Weighted>
2.9855

> <Gold.Chemscore.Rot.Weighted>
7.4256

> <Gold.Chemscore.Internal.Correction.Weighted>
   9.000000E+99

> <Gold.Protein.RotatedTorsions>
[ 6907 6896 6895 6894 ] final   30.94 input  -60.11 | X-H torsion
[ 7974 7965 7964 7962 ] final  -88.88 input  175.53 | X-H torsion
[ 8008 7997 7996 7995 ] final  -64.01 input   59.86 | X-H torsion
[ 10167 10162 10161 10158 ] final  171.97 input  -65.29 | X-H torsion
[ 10718 10713 10712 10709 ] final  124.11 input   66.30 | X-H torsion
[ 10763 10752 10751 10750 ] final  -23.65 input  -60.55 | X-H torsion
[ 11005 11000 10999 10996 ] final -164.47 input  -57.11 | X-H torsion

> <Gold.Protein.ActiveResidues>
 VAL166  LYS551  ARG553  GLY616  TRP617  ASP618  TYR619  PRO620  LYS621  CYS622 
 ASP623  PHE694  ASN695  SER759  ASP760  ASP761  ALA762  ILE779  LEU786  VAL792 
 PHE793  MET794  SER795  GLU796  ALA797  LYS798  CYS799  TRP800  GLU811  SER814 

> <Gold.Protein.RotatedAtoms>
  152.0532  134.9641  160.0574 H   0  0  0  0  0  0  0  0  0  0  0  0  # atno 6907 bound_to 6896
  152.1033  133.4257  159.4605 H   0  0  0  0  0  0  0  0  0  0  0  0  # atno 6908 bound_to 6896
  150.6840  134.2653  159.4609 H   0  0  0  0  0  0  0  0  0  0  0  0  # atno 6909 bound_to 6896
  145.4473  140.9560  143.2042 H   0  0  0  0  0  0  0  0  0  0  0  0  # atno 7974 bound_to 7965
  154.4587  140.0962  156.6832 H   0  0  0  0  0  0  0  0  0  0  0  0  # atno 8008 bound_to 7997
  155.5059  140.3475  155.4361 H   0  0  0  0  0  0  0  0  0  0  0  0  # atno 8009 bound_to 7997
  156.0828  140.1377  156.9679 H   0  0  0  0  0  0  0  0  0  0  0  0  # atno 8010 bound_to 7997
  139.5062  144.3426  152.0003 H   0  0  0  0  0  0  0  0  0  0  0  0  # atno 10167 bound_to 10162
  157.5611  131.1089  150.8536 H   0  0  0  0  0  0  0  0  0  0  0  0  # atno 10718 bound_to 10713
  153.6711  135.6971  153.5147 H   0  0  0  0  0  0  0  0  0  0  0  0  # atno 10763 bound_to 10752
  153.2557  135.4261  155.0842 H   0  0  0  0  0  0  0  0  0  0  0  0  # atno 10764 bound_to 10752
  154.8426  135.3542  154.6256 H   0  0  0  0  0  0  0  0  0  0  0  0  # atno 10765 bound_to 10752
  140.5866  134.5087  157.5186 H   0  0  0  0  0  0  0  0  0  0  0  0  # atno 11005 bound_to 11000
  144.8084  139.6008  143.7040 LP  0  0  0  0  0  0  0  0  0  0  0  0  # atno 17320 bound_to 7965
  146.2524  139.6228  142.9418 LP  0  0  0  0  0  0  0  0  0  0  0  0  # atno 17321 bound_to 7965
  140.2863  144.3803  150.6102 LP  0  0  0  0  0  0  0  0  0  0  0  0  # atno 17342 bound_to 10162
  140.5980  143.2167  151.7127 LP  0  0  0  0  0  0  0  0  0  0  0  0  # atno 17343 bound_to 10162
  156.9033  130.5254  149.5282 LP  0  0  0  0  0  0  0  0  0  0  0  0  # atno 17370 bound_to 10713
  156.0664  130.5706  150.9297 LP  0  0  0  0  0  0  0  0  0  0  0  0  # atno 17371 bound_to 10713
  139.9293  134.7995  156.0977 LP  0  0  0  0  0  0  0  0  0  0  0  0  # atno 17394 bound_to 11000
  141.0962  133.6695  156.2650 LP  0  0  0  0  0  0  0  0  0  0  0  0  # atno 17395 bound_to 11000

$$$$
