AV-unprocessed.smi:4|AV-procd|sdf|35|dock9
  -GOLD-   2262015153D 1   1.00000     0.00000
 Structure written by MMmdl.
 43 44  0  0  0  0  0  0  0  0  3 V2000
  147.1890  132.1481  153.8396 C   0  0  0  0  0  0  0  0  0  0  0  0
  148.6744  132.5968  153.8854 C   0  0  0  0  0  0  0  0  0  0  0  0
  149.5017  131.2912  153.9885 C   0  0  0  0  0  0  0  0  0  0  0  0
  148.9312  133.2958  152.5257 C   0  0  0  0  0  0  0  0  0  0  0  0
  149.0053  133.5226  155.0308 N   0  0  0  0  0  0  0  0  0  0  0  0
  149.4773  134.8350  154.7674 C   0  0  0  0  0  0  0  0  0  0  0  0
  149.8047  135.7200  155.7312 C   0  0  0  0  0  0  0  0  0  0  0  0
  150.3202  137.1163  155.4175 C   0  0  0  0  0  0  0  0  0  0  0  0
  149.4630  137.7781  154.4136 N   0  3  0  0  0  0  0  0  0  0  0  0
  150.0131  139.0462  153.8943 C   0  0  0  0  0  0  0  0  0  0  0  0
  149.4775  140.2524  154.6696 C   0  0  0  0  0  0  0  0  0  0  0  0
  149.4685  141.3289  153.7520 O   0  0  0  0  0  0  0  0  0  0  0  0
  148.1742  140.0710  155.4690 C   0  0  0  0  0  0  0  0  0  0  0  0
  148.7992  140.8392  156.6341 C   0  0  0  0  0  0  0  0  0  0  0  0
  150.1689  140.5835  156.0042 C   0  0  0  0  0  0  0  0  0  0  0  0
  149.6679  135.2849  157.1186 C   0  0  0  0  0  0  0  0  0  0  0  0
  149.9650  136.0544  158.0318 O   0  0  0  0  0  0  0  0  0  0  0  0
  149.2015  134.0281  157.3430 N   0  5  0  0  0  0  0  0  0  0  0  0
  148.8660  133.1496  156.3506 C   0  0  0  0  0  0  0  0  0  0  0  0
  148.4412  132.0310  156.6331 O   0  0  0  0  0  0  0  0  0  0  0  0
  147.0005  131.4923  152.9885 H   0  0  0  0  0  0  0  0  0  0  0  0
  146.5096  132.9949  153.7305 H   0  0  0  0  0  0  0  0  0  0  0  0
  146.9032  131.5825  154.7275 H   0  0  0  0  0  0  0  0  0  0  0  0
  149.3608  130.8128  154.9583 H   0  0  0  0  0  0  0  0  0  0  0  0
  150.5706  131.4462  153.8523 H   0  0  0  0  0  0  0  0  0  0  0  0
  149.2007  130.5724  153.2258 H   0  0  0  0  0  0  0  0  0  0  0  0
  148.5828  132.6828  151.6938 H   0  0  0  0  0  0  0  0  0  0  0  0
  149.9840  133.4912  152.3305 H   0  0  0  0  0  0  0  0  0  0  0  0
  148.4039  134.2487  152.4683 H   0  0  0  0  0  0  0  0  0  0  0  0
  149.5750  135.1274  153.7381 H   0  0  0  0  0  0  0  0  0  0  0  0
  150.3444  137.7062  156.3349 H   0  0  0  0  0  0  0  0  0  0  0  0
  151.3427  137.0627  155.0416 H   0  0  0  0  0  0  0  0  0  0  0  0
  149.3172  137.1480  153.6377 H   0  0  0  0  0  0  0  0  0  0  0  0
  151.1006  139.0053  153.9702 H   0  0  0  0  0  0  0  0  0  0  0  0
  149.7798  139.1321  152.8318 H   0  0  0  0  0  0  0  0  0  0  0  0
  149.8265  141.0036  152.9396 H   0  0  0  0  0  0  0  0  0  0  0  0
  147.2989  140.5547  155.0339 H   0  0  0  0  0  0  0  0  0  0  0  0
  147.9684  139.0282  155.7162 H   0  0  0  0  0  0  0  0  0  0  0  0
  148.5269  141.8955  156.6378 H   0  0  0  0  0  0  0  0  0  0  0  0
  148.6552  140.3789  157.6121 H   0  0  0  0  0  0  0  0  0  0  0  0
  150.6785  139.7256  156.4456 H   0  0  0  0  0  0  0  0  0  0  0  0
  150.8187  141.4592  155.9798 H   0  0  0  0  0  0  0  0  0  0  0  0
  148.5689  137.9694  154.8447 H   0  0  0  0  0  0  0  0  0  0  0  0
  1  2  1  0  0  0  0
  1 21  1  0  0  0  0
  1 22  1  0  0  0  0
  1 23  1  0  0  0  0
  2  3  1  0  0  0  0
  2  4  1  0  0  0  0
  2  5  1  0  0  0  0
  3 24  1  0  0  0  0
  3 25  1  0  0  0  0
  3 26  1  0  0  0  0
  4 27  1  0  0  0  0
  4 28  1  0  0  0  0
  4 29  1  0  0  0  0
  5 19  1  0  0  0  0
  5  6  1  0  0  0  0
  6  7  2  0  0  0  0
  6 30  1  0  0  0  0
  7  8  1  0  0  0  0
  7 16  1  0  0  0  0
  8  9  1  0  0  0  0
  8 31  1  0  0  0  0
  8 32  1  0  0  0  0
  9 10  1  0  0  0  0
  9 33  1  0  0  0  0
  9 43  1  0  0  0  0
 10 11  1  0  0  0  0
 10 34  1  0  0  0  0
 10 35  1  0  0  0  0
 11 15  1  0  0  0  0
 11 12  1  0  0  0  0
 11 13  1  0  0  0  0
 12 36  1  0  0  0  0
 13 14  1  0  0  0  0
 13 37  1  0  0  0  0
 13 38  1  0  0  0  0
 14 15  1  0  0  0  0
 14 39  1  0  0  0  0
 14 40  1  0  0  0  0
 15 41  1  0  0  0  0
 15 42  1  0  0  0  0
 16 17  2  0  0  0  0
 16 18  1  0  0  0  0
 18 19  1  0  0  0  0
 19 20  2  0  0  0  0
M  CHG  1   9   1
M  CHG  1  18  -1
M  END
> <s_m_source_file>
AV-unprocessed.smi

> <i_m_source_file_index>
4

> <i_lp_mmshare_version>
43012

> <i_f3d_flags>
0

> <s_epik_input>
W0NIM11DKFtDSDNdKShbQ0gzXSluMVtjSF1jKGMoPU8pW25IXWMxPU8pW0NIMl1bTkhdW0NIMl1DMihbT0hdKVtDSDJdW0NIMl1bQ0gyXTI=

> <s_epik_cmdline>
J2VwaWtfcHl0aG9uJywgJy1waCcsICc3LjAnLCAnLXRuJywgJzgnLCAnLW1hJywgJzIwMCcsICctbWV0YWxfYmluZGluZycsICctaW1hZScsICc8aW5maWxlLm1hZT4nLCAnLW9tYWUnLCAnPG91dGZpbGUubWFlPic=

> <r_lp_tautomer_probability>
0.999537

> <r_epik_Ionization_Penalty>
3.42736

> <r_epik_Ionization_Penalty_Charging>
0.0116785

> <r_epik_Ionization_Penalty_Neutral>
3.41568

> <r_epik_State_Penalty>
3.42726

> <r_epik_Charging_Adjusted_Penalty>
3.43893

> <i_epik_Tot_Q>
0

> <i_epik_Tot_abs_Q>
2

> <r_epik_Metal_State_Penalty>
0.176979

> <b_epik_Metal_Only>
1

> <s_lp_Force_Field>
OPLS_2005

> <r_lp_Energy>
29.0009

> <b_lp_Chiralities_Consistent>
1

> <s_lp_Variant>
AV-unprocessed.smi:4-3

> <Gold.Version>
5.8.1

> <Gold.Id.Protein>
6NUR|6NUR_protein|mol2

> <Gold.PLP.Fitness>
46.1350

> <Gold.PLP.PLP>
-31.8144

> <Gold.PLP.part.hbond>
-6.0000

> <Gold.PLP.part.metal>
0.0000

> <Gold.PLP.part.buried>
-0.2673

> <Gold.PLP.part.nonpolar>
-26.0248

> <Gold.PLP.part.repulsive>
0.0105

> <Gold.PLP.ligand.clash>
0.0000

> <Gold.PLP.ligand.torsion>
0.9617

> <Gold.PLP.Chemscore.Hbond>
4.6713

> <Gold.PLP.Chemscore.CHOScore>
0.7020

> <Gold.PLP.Chemscore.Metal>
0.0000

> <Gold.Chemscore.Hbonds>
donor molecule, donor type, donor heavy atom, donor atom, acceptor molecule, acceptor atom, score
      L1  H     9    33       P1  7948  2.00
      L1  H    12    36       P1  7957  1.00
      L1  C     6    30       P1  7948  0.70

> <Gold.PLP.Chemscore.Internal.Correction>
0.1241

> <Gold.Rescore>
     Score         DG    S(hbond)    S(metal)    S(lipo)     H(rot)  DE(clash)    DE(int)     intcor
     11.33     -14.81       2.32        0.00      67.50       2.47       1.37       2.10       ----

> <Gold.Chemscore.Fitness>
11.3334

> <Gold.Chemscore.DG>
-14.8055

> <Gold.Chemscore.ZeroCoef>
-5.4800

> <Gold.Chemscore.Hbond>
2.3204

> <Gold.Chemscore.Metal>
0.0000

> <Gold.Chemscore.Lipo>
67.4959

> <Gold.Chemscore.Internal_Hbond>
0.0000

> <Gold.Chemscore.DEClash>
1.3747

> <Gold.Chemscore.DEInternal>
2.0974

> <Gold.Chemscore.Rot>
2.4694

> <Gold.Chemscore.Internal.Correction>
   9.000000E+99

> <Gold.Chemscore.Hbonds>
donor molecule, donor type, donor heavy atom, donor atom, acceptor molecule, acceptor atom, score
      L1  H     9    33       P1  7948  0.93
      L1  H    12    36       P1  7957  0.90

> <Gold.Chemscore.Hbond.Weighted>
-7.7501

> <Gold.Chemscore.Metal.Weighted>
-0.0000

> <Gold.Chemscore.Lipo.Weighted>
-7.8970

> <Gold.Chemscore.Internal_Hbond.Weighted>
0.0000

> <Gold.Chemscore.DEClash.Weighted>
1.3747

> <Gold.Chemscore.DEInternal.Weighted>
2.0974

> <Gold.Chemscore.Rot.Weighted>
6.3216

> <Gold.Chemscore.Internal.Correction.Weighted>
   9.000000E+99

> <Gold.Protein.RotatedTorsions>
[ 6907 6896 6895 6894 ] final -127.83 input  -60.11 | X-H torsion
[ 7974 7965 7964 7962 ] final    9.80 input  175.53 | X-H torsion
[ 8008 7997 7996 7995 ] final   76.08 input   59.86 | X-H torsion
[ 10167 10162 10161 10158 ] final  163.93 input  -65.29 | X-H torsion
[ 10718 10713 10712 10709 ] final  144.13 input   66.30 | X-H torsion
[ 10763 10752 10751 10750 ] final  179.62 input  -60.55 | X-H torsion
[ 11005 11000 10999 10996 ] final -136.44 input  -57.11 | X-H torsion

> <Gold.Protein.ActiveResidues>
 VAL166  LYS551  ARG553  GLY616  TRP617  ASP618  TYR619  PRO620  LYS621  CYS622 
 ASP623  PHE694  ASN695  SER759  ASP760  ASP761  ALA762  ILE779  LEU786  VAL792 
 PHE793  MET794  SER795  GLU796  ALA797  LYS798  CYS799  TRP800  GLU811  SER814 

> <Gold.Protein.RotatedAtoms>
  150.9115  133.6992  159.2853 H   0  0  0  0  0  0  0  0  0  0  0  0  # atno 6907 bound_to 6896
  151.4477  135.1025  159.9698 H   0  0  0  0  0  0  0  0  0  0  0  0  # atno 6908 bound_to 6896
  152.4932  133.8508  159.7256 H   0  0  0  0  0  0  0  0  0  0  0  0  # atno 6909 bound_to 6896
  146.2398  139.9729  142.8445 H   0  0  0  0  0  0  0  0  0  0  0  0  # atno 7974 bound_to 7965
  155.8222  140.3469  155.5521 H   0  0  0  0  0  0  0  0  0  0  0  0  # atno 8008 bound_to 7997
  155.8330  140.0930  157.1801 H   0  0  0  0  0  0  0  0  0  0  0  0  # atno 8009 bound_to 7997
  154.4004  140.1408  156.3624 H   0  0  0  0  0  0  0  0  0  0  0  0  # atno 8010 bound_to 7997
  139.4881  144.4286  151.9098 H   0  0  0  0  0  0  0  0  0  0  0  0  # atno 10167 bound_to 10162
  157.3608  131.0965  151.0917 H   0  0  0  0  0  0  0  0  0  0  0  0  # atno 10718 bound_to 10713
  154.5230  135.2795  155.1246 H   0  0  0  0  0  0  0  0  0  0  0  0  # atno 10763 bound_to 10752
  154.2796  135.6288  153.5345 H   0  0  0  0  0  0  0  0  0  0  0  0  # atno 10764 bound_to 10752
  152.9940  135.5648  154.5724 H   0  0  0  0  0  0  0  0  0  0  0  0  # atno 10765 bound_to 10752
  140.8805  134.1938  157.4594 H   0  0  0  0  0  0  0  0  0  0  0  0  # atno 11005 bound_to 11000
  145.1664  140.9699  143.4347 LP  0  0  0  0  0  0  0  0  0  0  0  0  # atno 17320 bound_to 7965
  145.0069  139.3546  143.6139 LP  0  0  0  0  0  0  0  0  0  0  0  0  # atno 17321 bound_to 7965
  140.3733  144.2828  150.5917 LP  0  0  0  0  0  0  0  0  0  0  0  0  # atno 17342 bound_to 10162
  140.5299  143.2246  151.8255 LP  0  0  0  0  0  0  0  0  0  0  0  0  # atno 17343 bound_to 10162
  157.2057  130.6415  149.5755 LP  0  0  0  0  0  0  0  0  0  0  0  0  # atno 17370 bound_to 10713
  155.9737  130.4676  150.6331 LP  0  0  0  0  0  0  0  0  0  0  0  0  # atno 17371 bound_to 10713
  139.8719  134.9815  156.5118 LP  0  0  0  0  0  0  0  0  0  0  0  0  # atno 17394 bound_to 11000
  140.8467  133.8163  155.9128 LP  0  0  0  0  0  0  0  0  0  0  0  0  # atno 17395 bound_to 11000

$$$$
