AV-unprocessed.smi:498|AV-procd|sdf|2730|dock9
  -GOLD-   2262023183D 1   1.00000     0.00000
 Structure written by MMmdl.
 41 43  0  0  0  0  0  0  0  0  2 V2000
  151.5482  138.9552  154.8826 C   0  0  0  0  0  0  0  0  0  0  0  0
  150.2360  139.7416  154.8961 C   0  0  0  0  0  0  0  0  0  0  0  0
  149.8503  139.9588  156.2416 O   0  0  0  0  0  0  0  0  0  0  0  0
  150.3683  141.1669  156.7740 C   0  0  0  0  0  0  0  0  0  0  0  0
  151.8740  141.0164  157.0430 C   0  0  0  0  0  0  0  0  0  0  0  0
  152.2435  141.4001  158.4097 N   0  0  0  0  0  0  0  0  0  0  0  0
  152.8253  140.6710  159.4123 C   0  0  0  0  0  0  0  0  0  0  0  0
  153.2214  139.2173  159.2957 C   0  0  0  0  0  0  0  0  0  0  0  0
  153.8927  138.7488  160.5048 N   0  5  0  0  0  0  0  0  0  0  0  0
  153.7017  137.5200  161.0582 C   0  0  0  0  0  0  0  0  0  0  0  0
  153.3324  136.4639  160.5336 O   0  0  0  0  0  0  0  0  0  0  0  0
  154.0324  137.5089  162.5011 C   0  0  0  0  0  0  0  0  0  0  0  0
  153.6154  136.7020  163.5296 C   0  0  0  0  0  0  0  0  0  0  0  0
  154.2980  137.1395  164.6980 C   0  0  0  0  0  0  0  0  0  0  0  0
  155.0916  138.1765  164.3009 C   0  0  0  0  0  0  0  0  0  0  0  0
  154.9490  138.4074  162.9676 O   0  0  0  0  0  0  0  0  0  0  0  0
  153.0291  141.3338  160.5539 N   0  0  0  0  0  0  0  0  0  0  0  0
  152.5344  142.5920  160.2807 C   0  0  0  0  0  0  0  0  0  0  0  0
  152.4616  143.7447  161.0952 C   0  0  0  0  0  0  0  0  0  0  0  0
  151.9033  144.9386  160.5942 C   0  0  0  0  0  0  0  0  0  0  0  0
  151.4113  144.9961  159.2745 C   0  0  0  0  0  0  0  0  0  0  0  0
  151.4766  143.8588  158.4469 C   0  0  0  0  0  0  0  0  0  0  0  0
  152.0360  142.6683  158.9509 C   0  0  0  0  0  0  0  0  0  0  0  0
  151.8832  138.7733  153.8614 H   0  0  0  0  0  0  0  0  0  0  0  0
  151.4299  137.9894  155.3740 H   0  0  0  0  0  0  0  0  0  0  0  0
  152.3358  139.5012  155.4021 H   0  0  0  0  0  0  0  0  0  0  0  0
  150.3701  140.6956  154.3845 H   0  0  0  0  0  0  0  0  0  0  0  0
  149.4607  139.1867  154.3660 H   0  0  0  0  0  0  0  0  0  0  0  0
  150.1910  141.9861  156.0780 H   0  0  0  0  0  0  0  0  0  0  0  0
  149.8491  141.4164  157.7001 H   0  0  0  0  0  0  0  0  0  0  0  0
  152.2000  139.9974  156.8348 H   0  0  0  0  0  0  0  0  0  0  0  0
  152.4307  141.6465  156.3491 H   0  0  0  0  0  0  0  0  0  0  0  0
  152.3197  138.6460  159.0712 H   0  0  0  0  0  0  0  0  0  0  0  0
  153.8592  139.1003  158.4187 H   0  0  0  0  0  0  0  0  0  0  0  0
  152.9044  135.8928  163.4489 H   0  0  0  0  0  0  0  0  0  0  0  0
  154.2205  136.7433  165.6994 H   0  0  0  0  0  0  0  0  0  0  0  0
  155.7885  138.8261  164.8093 H   0  0  0  0  0  0  0  0  0  0  0  0
  152.8347  143.7081  162.1077 H   0  0  0  0  0  0  0  0  0  0  0  0
  151.8512  145.8134  161.2254 H   0  0  0  0  0  0  0  0  0  0  0  0
  150.9827  145.9132  158.8979 H   0  0  0  0  0  0  0  0  0  0  0  0
  151.0961  143.8990  157.4372 H   0  0  0  0  0  0  0  0  0  0  0  0
  1  2  1  0  0  0  0
  1 24  1  0  0  0  0
  1 25  1  0  0  0  0
  1 26  1  0  0  0  0
  2  3  1  0  0  0  0
  2 27  1  0  0  0  0
  2 28  1  0  0  0  0
  3  4  1  0  0  0  0
  4  5  1  0  0  0  0
  4 29  1  0  0  0  0
  4 30  1  0  0  0  0
  5  6  1  0  0  0  0
  5 31  1  0  0  0  0
  5 32  1  0  0  0  0
  6 23  1  0  0  0  0
  6  7  1  0  0  0  0
  7  8  1  0  0  0  0
  7 17  2  0  0  0  0
  8  9  1  0  0  0  0
  8 33  1  0  0  0  0
  8 34  1  0  0  0  0
  9 10  1  0  0  0  0
 10 11  2  0  0  0  0
 10 12  1  0  0  0  0
 12 16  1  0  0  0  0
 12 13  2  0  0  0  0
 13 14  1  0  0  0  0
 13 35  1  0  0  0  0
 14 15  2  0  0  0  0
 14 36  1  0  0  0  0
 15 16  1  0  0  0  0
 15 37  1  0  0  0  0
 17 18  1  0  0  0  0
 18 23  2  0  0  0  0
 18 19  1  0  0  0  0
 19 20  2  0  0  0  0
 19 38  1  0  0  0  0
 20 21  1  0  0  0  0
 20 39  1  0  0  0  0
 21 22  2  0  0  0  0
 21 40  1  0  0  0  0
 22 23  1  0  0  0  0
 22 41  1  0  0  0  0
M  CHG  1   9  -1
M  END
> <s_m_source_file>
AV-unprocessed.smi

> <i_m_source_file_index>
498

> <i_lp_mmshare_version>
43012

> <i_f3d_flags>
0

> <s_epik_input>
W0NIM11bQ0gyXU9bQ0gyXVtDSDJdbihjKGMxMilbY0hdW2NIXVtjSF1bY0hdMiljKG4xKVtDSDJdW05IXUMoPU8pYzNbY0hdW2NIXVtjSF1vMw==

> <s_epik_cmdline>
J2VwaWtfcHl0aG9uJywgJy1waCcsICc3LjAnLCAnLXRuJywgJzgnLCAnLW1hJywgJzIwMCcsICctbWV0YWxfYmluZGluZycsICctaW1hZScsICc8aW5maWxlLm1hZT4nLCAnLW9tYWUnLCAnPG91dGZpbGUubWFlPic=

> <r_epik_Ionization_Penalty>
7.14443

> <r_epik_Ionization_Penalty_Charging>
6.27046

> <r_epik_Ionization_Penalty_Neutral>
0.873973

> <r_epik_State_Penalty>
6.33192

> <r_epik_Charging_Adjusted_Penalty>
12.6024

> <i_epik_Tot_Q>
-1

> <i_epik_Tot_abs_Q>
1

> <r_epik_Metal_State_Penalty>
2.32923

> <b_epik_Metal_Only>
1

> <s_lp_Force_Field>
OPLS_2005

> <r_lp_Energy>
15.7295

> <b_lp_Chiralities_Consistent>
1

> <s_lp_Variant>
AV-unprocessed.smi:498-3

> <Gold.Version>
5.8.1

> <Gold.Id.Protein>
6NUR|6NUR_protein|mol2

> <Gold.PLP.Fitness>
52.7560

> <Gold.PLP.PLP>
-51.9505

> <Gold.PLP.part.hbond>
-1.0000

> <Gold.PLP.part.metal>
0.0000

> <Gold.PLP.part.buried>
-6.8683

> <Gold.PLP.part.nonpolar>
-43.4462

> <Gold.PLP.part.repulsive>
0.0028

> <Gold.PLP.ligand.clash>
0.0000

> <Gold.PLP.ligand.torsion>
1.1761

> <Gold.PLP.Chemscore.Hbond>
1.0000

> <Gold.PLP.Chemscore.CHOScore>
0.0000

> <Gold.PLP.Chemscore.Metal>
0.0000

> <Gold.Chemscore.Hbonds>
donor molecule, donor type, donor heavy atom, donor atom, acceptor molecule, acceptor atom, score
      P1  H  6896  6909       L1    11  1.00

> <Gold.PLP.Chemscore.Internal.Correction>
0.1576

> <Gold.Rescore>
     Score         DG    S(hbond)    S(metal)    S(lipo)     H(rot)  DE(clash)    DE(int)     intcor
     18.61     -19.88       1.00        0.00     136.05       1.90       0.28       0.98       ----

> <Gold.Chemscore.Fitness>
18.6128

> <Gold.Chemscore.DG>
-19.8760

> <Gold.Chemscore.ZeroCoef>
-5.4800

> <Gold.Chemscore.Hbond>
1.0000

> <Gold.Chemscore.Metal>
0.0000

> <Gold.Chemscore.Lipo>
136.0515

> <Gold.Chemscore.Internal_Hbond>
0.0000

> <Gold.Chemscore.DEClash>
0.2849

> <Gold.Chemscore.DEInternal>
0.9783

> <Gold.Chemscore.Rot>
1.8992

> <Gold.Chemscore.Internal.Correction>
   9.000000E+99

> <Gold.Chemscore.Hbonds>
donor molecule, donor type, donor heavy atom, donor atom, acceptor molecule, acceptor atom, score
      P1  H  6896  6909       L1    11  0.99

> <Gold.Chemscore.Hbond.Weighted>
-3.3400

> <Gold.Chemscore.Metal.Weighted>
-0.0000

> <Gold.Chemscore.Lipo.Weighted>
-15.9180

> <Gold.Chemscore.Internal_Hbond.Weighted>
0.0000

> <Gold.Chemscore.DEClash.Weighted>
0.2849

> <Gold.Chemscore.DEInternal.Weighted>
0.9783

> <Gold.Chemscore.Rot.Weighted>
4.8621

> <Gold.Chemscore.Internal.Correction.Weighted>
   9.000000E+99

> <Gold.Protein.RotatedTorsions>
[ 6907 6896 6895 6894 ] final  154.04 input  -60.11 | X-H torsion
[ 7974 7965 7964 7962 ] final   45.06 input  175.53 | X-H torsion
[ 8008 7997 7996 7995 ] final  -83.85 input   59.86 | X-H torsion
[ 10167 10162 10161 10158 ] final -153.97 input  -65.29 | X-H torsion
[ 10718 10713 10712 10709 ] final -122.92 input   66.30 | X-H torsion
[ 10763 10752 10751 10750 ] final  -92.24 input  -60.55 | X-H torsion
[ 11005 11000 10999 10996 ] final  176.90 input  -57.11 | X-H torsion

> <Gold.Protein.ActiveResidues>
 VAL166  LYS551  ARG553  GLY616  TRP617  ASP618  TYR619  PRO620  LYS621  CYS622 
 ASP623  PHE694  ASN695  SER759  ASP760  ASP761  ALA762  ILE779  LEU786  VAL792 
 PHE793  MET794  SER795  GLU796  ALA797  LYS798  CYS799  TRP800  GLU811  SER814 

> <Gold.Protein.RotatedAtoms>
  152.0641  133.4076  159.4430 H   0  0  0  0  0  0  0  0  0  0  0  0  # atno 6907 bound_to 6896
  150.6865  134.3167  159.4778 H   0  0  0  0  0  0  0  0  0  0  0  0  # atno 6908 bound_to 6896
  152.0991  134.9354  160.0620 H   0  0  0  0  0  0  0  0  0  0  0  0  # atno 6909 bound_to 6896
  146.0513  139.5005  142.9716 H   0  0  0  0  0  0  0  0  0  0  0  0  # atno 7974 bound_to 7965
  154.6234  140.0613  156.9644 H   0  0  0  0  0  0  0  0  0  0  0  0  # atno 8008 bound_to 7997
  155.1780  140.3296  155.4362 H   0  0  0  0  0  0  0  0  0  0  0  0  # atno 8009 bound_to 7997
  156.2444  140.1902  156.6878 H   0  0  0  0  0  0  0  0  0  0  0  0  # atno 8010 bound_to 7997
  139.7052  143.9198  152.2445 H   0  0  0  0  0  0  0  0  0  0  0  0  # atno 10167 bound_to 10162
  156.1459  130.6499  150.9841 H   0  0  0  0  0  0  0  0  0  0  0  0  # atno 10718 bound_to 10713
  154.6841  135.5238  153.8303 H   0  0  0  0  0  0  0  0  0  0  0  0  # atno 10763 bound_to 10752
  153.0585  135.6559  154.0528 H   0  0  0  0  0  0  0  0  0  0  0  0  # atno 10764 bound_to 10752
  154.0411  135.2977  155.3334 H   0  0  0  0  0  0  0  0  0  0  0  0  # atno 10765 bound_to 10752
  140.3782  134.6970  157.4434 H   0  0  0  0  0  0  0  0  0  0  0  0  # atno 11005 bound_to 11000
  145.6719  141.0214  143.1653 LP  0  0  0  0  0  0  0  0  0  0  0  0  # atno 17320 bound_to 7965
  144.7124  139.8321  143.7410 LP  0  0  0  0  0  0  0  0  0  0  0  0  # atno 17321 bound_to 7965
  139.9051  144.6889  150.8622 LP  0  0  0  0  0  0  0  0  0  0  0  0  # atno 17342 bound_to 10162
  140.7720  143.3484  151.2063 LP  0  0  0  0  0  0  0  0  0  0  0  0  # atno 17343 bound_to 10162
  157.6616  131.0880  150.7826 LP  0  0  0  0  0  0  0  0  0  0  0  0  # atno 17370 bound_to 10713
  156.7897  130.4886  149.5387 LP  0  0  0  0  0  0  0  0  0  0  0  0  # atno 17371 bound_to 10713
  140.0499  134.6145  155.8874 LP  0  0  0  0  0  0  0  0  0  0  0  0  # atno 17394 bound_to 11000
  141.1932  133.6578  156.5538 LP  0  0  0  0  0  0  0  0  0  0  0  0  # atno 17395 bound_to 11000

$$$$
