AV-unprocessed.smi:1965|AV-procd|sdf|7941|dock2
  -GOLD-   2272010113D 1   1.00000     0.00000
 Structure written by MMmdl.
 36 38  0  0  0  0  0  0  0  0  3 V2000
  152.0041  140.0468  155.0087 O   0  0  0  0  0  0  0  0  0  0  0  0
  151.7875  139.6621  156.1571 C   0  0  0  0  0  0  0  0  0  0  0  0
  152.4384  140.1509  157.2444 N   0  5  0  0  0  0  0  0  0  0  0  0
  152.1752  141.3652  157.7614 C   0  0  0  0  0  0  0  0  0  0  0  0
  151.2869  142.2116  157.2273 N   0  0  0  0  0  0  0  0  0  0  0  0
  151.1721  143.4123  157.9302 C   0  0  0  0  0  0  0  0  0  0  0  0
  151.9950  143.4827  159.0227 C   0  0  0  0  0  0  0  0  0  0  0  0
  152.9476  142.0369  159.1995 S   0  0  0  0  0  0  0  0  0  0  0  0
  150.8515  138.7149  156.3587 N   0  0  0  0  0  0  0  0  0  0  0  0
  150.0250  138.0966  155.3270 C   0  0  1  0  0  0  0  0  0  0  0  0
  148.8159  137.3412  155.8946 C   0  0  0  0  0  0  0  0  0  0  0  0
  147.7168  137.4856  154.8270 C   0  0  0  0  0  0  0  0  0  0  0  0
  148.3006  138.3078  153.7437 N   0  3  1  0  0  0  0  0  0  0  0  0
  147.3436  139.0634  152.8957 C   0  0  0  0  0  0  0  0  0  0  0  0
  146.8340  140.3470  153.5724 C   0  0  0  0  0  0  0  0  0  0  0  0
  148.0065  141.2144  154.0417 C   0  0  0  0  0  0  0  0  0  0  0  0
  148.8929  140.4076  154.9961 C   0  0  0  0  0  0  0  0  0  0  0  0
  149.4003  139.0972  154.3401 C   0  0  1  0  0  0  0  0  0  0  0  0
  150.4785  144.1627  157.5814 H   0  0  0  0  0  0  0  0  0  0  0  0
  152.1014  144.2926  159.7284 H   0  0  0  0  0  0  0  0  0  0  0  0
  150.6933  138.4170  157.3105 H   0  0  0  0  0  0  0  0  0  0  0  0
  150.6318  137.3831  154.7654 H   0  0  0  0  0  0  0  0  0  0  0  0
  149.0557  136.2977  156.1014 H   0  0  0  0  0  0  0  0  0  0  0  0
  148.4796  137.7912  156.8301 H   0  0  0  0  0  0  0  0  0  0  0  0
  147.4003  136.5195  154.4332 H   0  0  0  0  0  0  0  0  0  0  0  0
  146.8415  137.9721  155.2588 H   0  0  0  0  0  0  0  0  0  0  0  0
  147.8566  139.3277  151.9702 H   0  0  0  0  0  0  0  0  0  0  0  0
  146.5107  138.4184  152.6142 H   0  0  0  0  0  0  0  0  0  0  0  0
  146.2115  140.9098  152.8762 H   0  0  0  0  0  0  0  0  0  0  0  0
  146.1961  140.0981  154.4210 H   0  0  0  0  0  0  0  0  0  0  0  0
  148.5911  141.5501  153.1844 H   0  0  0  0  0  0  0  0  0  0  0  0
  147.6362  142.1104  154.5408 H   0  0  0  0  0  0  0  0  0  0  0  0
  149.7375  141.0214  155.3109 H   0  0  0  0  0  0  0  0  0  0  0  0
  148.3268  140.1829  155.9010 H   0  0  0  0  0  0  0  0  0  0  0  0
  150.1142  139.3526  153.5558 H   0  0  0  0  0  0  0  0  0  0  0  0
  148.7537  137.6426  153.1336 H   0  0  0  0  0  0  0  0  0  0  0  0
  1  2  2  0  0  0  0
  2  3  1  0  0  0  0
  2  9  1  0  0  0  0
  3  4  1  0  0  0  0
  4  8  1  0  0  0  0
  4  5  2  0  0  0  0
  5  6  1  0  0  0  0
  6  7  2  0  0  0  0
  6 19  1  0  0  0  0
  7  8  1  0  0  0  0
  7 20  1  0  0  0  0
  9 10  1  0  0  0  0
  9 21  1  0  0  0  0
 10 18  1  0  0  0  0
 10 11  1  0  0  0  0
 10 22  1  0  0  0  0
 11 12  1  0  0  0  0
 11 23  1  0  0  0  0
 11 24  1  0  0  0  0
 12 13  1  0  0  0  0
 12 25  1  0  0  0  0
 12 26  1  0  0  0  0
 13 18  1  0  0  0  0
 13 14  1  0  0  0  0
 13 36  1  0  0  0  0
 14 15  1  0  0  0  0
 14 27  1  0  0  0  0
 14 28  1  0  0  0  0
 15 16  1  0  0  0  0
 15 29  1  0  0  0  0
 15 30  1  0  0  0  0
 16 17  1  0  0  0  0
 16 31  1  0  0  0  0
 16 32  1  0  0  0  0
 17 18  1  0  0  0  0
 17 33  1  0  0  0  0
 17 34  1  0  0  0  0
 18 35  1  0  0  0  0
M  CHG  1   3  -1
M  CHG  1  13   1
M  END
> <s_m_source_file>
AV-unprocessed.smi

> <i_m_source_file_index>
1965

> <i_lp_mmshare_version>
43012

> <i_f3d_flags>
0

> <s_epik_input>
czFbY0hdW2NIXW5jMVtOSF1DKD1PKVtOSF1bQ0BIXShbQ0gyXVtDSDJdMilbQ0BASF0oTjIzKVtDSDJdW0NIMl1bQ0gyXVtDSDJdMw==

> <s_epik_cmdline>
J2VwaWtfcHl0aG9uJywgJy1waCcsICc3LjAnLCAnLXRuJywgJzgnLCAnLW1hJywgJzIwMCcsICctbWV0YWxfYmluZGluZycsICctaW1hZScsICc8aW5maWxlLm1hZT4nLCAnLW9tYWUnLCAnPG91dGZpbGUubWFlPic=

> <r_lp_tautomer_probability>
1

> <r_epik_Ionization_Penalty>
7.4116

> <r_epik_Ionization_Penalty_Charging>
6.13869

> <r_epik_Ionization_Penalty_Neutral>
1.27291

> <r_epik_State_Penalty>
6.13761

> <r_epik_Charging_Adjusted_Penalty>
12.2763

> <i_epik_Tot_Q>
0

> <i_epik_Tot_abs_Q>
2

> <r_epik_Metal_State_Penalty>
2.08142

> <b_epik_Metal_Only>
1

> <s_lp_Force_Field>
OPLS_2005

> <r_lp_Energy>
27.943

> <b_lp_Chiralities_Consistent>
1

> <s_lp_Variant>
AV-unprocessed.smi:1965-10

> <Gold.Version>
5.8.1

> <Gold.Id.Protein>
6NUR|6NUR_protein|mol2

> <Gold.PLP.Fitness>
43.5393

> <Gold.PLP.PLP>
-27.7951

> <Gold.PLP.part.hbond>
-3.0000

> <Gold.PLP.part.metal>
0.0000

> <Gold.PLP.part.buried>
-3.1708

> <Gold.PLP.part.nonpolar>
-22.0835

> <Gold.PLP.part.repulsive>
0.1407

> <Gold.PLP.ligand.clash>
0.0000

> <Gold.PLP.ligand.torsion>
0.8774

> <Gold.PLP.Chemscore.Hbond>
4.8320

> <Gold.PLP.Chemscore.CHOScore>
1.0000

> <Gold.PLP.Chemscore.Metal>
0.0000

> <Gold.Chemscore.Hbonds>
donor molecule, donor type, donor heavy atom, donor atom, acceptor molecule, acceptor atom, score
      L1  H    13    36       P1  7948  2.00
      P1  H  7989  7998       L1     1  0.83
      P1  H  7997  8010       L1     3  2.00
      L1  C     6    19       P1  8028  1.00

> <Gold.PLP.Chemscore.Internal.Correction>
0.0029

> <Gold.Rescore>
     Score         DG    S(hbond)    S(metal)    S(lipo)     H(rot)  DE(clash)    DE(int)     intcor
     16.88     -19.19       2.40        0.00      70.64       1.00       0.08       2.23       ----

> <Gold.Chemscore.Fitness>
16.8843

> <Gold.Chemscore.DG>
-19.1893

> <Gold.Chemscore.ZeroCoef>
-5.4800

> <Gold.Chemscore.Hbond>
2.3965

> <Gold.Chemscore.Metal>
0.0000

> <Gold.Chemscore.Lipo>
70.6410

> <Gold.Chemscore.Internal_Hbond>
0.0000

> <Gold.Chemscore.DEClash>
0.0778

> <Gold.Chemscore.DEInternal>
2.2272

> <Gold.Chemscore.Rot>
1.0000

> <Gold.Chemscore.Internal.Correction>
   9.000000E+99

> <Gold.Chemscore.Hbonds>
donor molecule, donor type, donor heavy atom, donor atom, acceptor molecule, acceptor atom, score
      L1  H    13    36       P1  7948  0.99
      P1  H  7989  7998       L1     1  0.81
      P1  H  7997  8010       L1     3  0.25

> <Gold.Chemscore.Hbond.Weighted>
-8.0043

> <Gold.Chemscore.Metal.Weighted>
-0.0000

> <Gold.Chemscore.Lipo.Weighted>
-8.2650

> <Gold.Chemscore.Internal_Hbond.Weighted>
0.0000

> <Gold.Chemscore.DEClash.Weighted>
0.0778

> <Gold.Chemscore.DEInternal.Weighted>
2.2272

> <Gold.Chemscore.Rot.Weighted>
2.5600

> <Gold.Chemscore.Internal.Correction.Weighted>
   9.000000E+99

> <Gold.Protein.RotatedTorsions>
[ 6907 6896 6895 6894 ] final   99.28 input  -60.11 | X-H torsion
[ 7974 7965 7964 7962 ] final  -80.01 input  175.53 | X-H torsion
[ 8008 7997 7996 7995 ] final   58.31 input   59.86 | X-H torsion
[ 10167 10162 10161 10158 ] final  -18.20 input  -65.29 | X-H torsion
[ 10718 10713 10712 10709 ] final   95.97 input   66.30 | X-H torsion
[ 10763 10752 10751 10750 ] final -131.85 input  -60.55 | X-H torsion
[ 11005 11000 10999 10996 ] final  139.18 input  -57.11 | X-H torsion

> <Gold.Protein.ActiveResidues>
 VAL166  LYS551  ARG553  GLY616  TRP617  ASP618  TYR619  PRO620  LYS621  CYS622 
 ASP623  PHE694  ASN695  SER759  ASP760  ASP761  ALA762  ILE779  LEU786  VAL792 
 PHE793  MET794  SER795  GLU796  ALA797  LYS798  CYS799  TRP800  GLU811  SER814 

> <Gold.Protein.RotatedAtoms>
  152.5395  134.0453  159.8085 H   0  0  0  0  0  0  0  0  0  0  0  0  # atno 6907 bound_to 6896
  151.0603  133.5542  159.2642 H   0  0  0  0  0  0  0  0  0  0  0  0  # atno 6908 bound_to 6896
  151.2444  135.0608  159.9091 H   0  0  0  0  0  0  0  0  0  0  0  0  # atno 6909 bound_to 6896
  145.5656  140.9475  143.1423 H   0  0  0  0  0  0  0  0  0  0  0  0  # atno 7974 bound_to 7965
  155.5480  140.3486  155.4462 H   0  0  0  0  0  0  0  0  0  0  0  0  # atno 8008 bound_to 7997
  156.0604  140.1338  156.9974 H   0  0  0  0  0  0  0  0  0  0  0  0  # atno 8009 bound_to 7997
  154.4477  140.0986  156.6493 H   0  0  0  0  0  0  0  0  0  0  0  0  # atno 8010 bound_to 7997
  140.7256  143.4940  150.9954 H   0  0  0  0  0  0  0  0  0  0  0  0  # atno 10167 bound_to 10162
  157.6932  131.0563  150.4420 H   0  0  0  0  0  0  0  0  0  0  0  0  # atno 10718 bound_to 10713
  154.8748  135.3817  154.4313 H   0  0  0  0  0  0  0  0  0  0  0  0  # atno 10763 bound_to 10752
  153.5007  135.7030  153.5838 H   0  0  0  0  0  0  0  0  0  0  0  0  # atno 10764 bound_to 10752
  153.4171  135.3910  155.2054 H   0  0  0  0  0  0  0  0  0  0  0  0  # atno 10765 bound_to 10752
  140.0236  134.9385  157.0524 H   0  0  0  0  0  0  0  0  0  0  0  0  # atno 11005 bound_to 11000
  144.7462  139.7314  143.7291 LP  0  0  0  0  0  0  0  0  0  0  0  0  # atno 17320 bound_to 7965
  146.1820  139.5018  142.9860 LP  0  0  0  0  0  0  0  0  0  0  0  0  # atno 17321 bound_to 7965
  139.8646  143.7270  152.3171 LP  0  0  0  0  0  0  0  0  0  0  0  0  # atno 17342 bound_to 10162
  139.7498  144.7537  151.0524 LP  0  0  0  0  0  0  0  0  0  0  0  0  # atno 17343 bound_to 10162
  156.4778  130.4067  149.6480 LP  0  0  0  0  0  0  0  0  0  0  0  0  # atno 17370 bound_to 10713
  156.3537  130.7445  151.2408 LP  0  0  0  0  0  0  0  0  0  0  0  0  # atno 17371 bound_to 10713
  140.4344  134.1747  155.7170 LP  0  0  0  0  0  0  0  0  0  0  0  0  # atno 17394 bound_to 11000
  141.1789  133.8455  157.1326 LP  0  0  0  0  0  0  0  0  0  0  0  0  # atno 17395 bound_to 11000

$$$$
