AV-unprocessed.smi:50|AV-procd|sdf|494|dock8
  -GOLD-   2262016363D 1   1.00000     0.00000
 Structure written by MMmdl.
 43 44  0  0  0  0  0  0  0  0  1 V2000
  152.6680  138.6109  154.4426 C   0  0  0  0  0  0  0  0  0  0  0  0
  151.3871  139.1458  155.1159 C   0  0  0  0  0  0  0  0  0  0  0  0
  151.6808  139.4056  156.6059 C   0  0  0  0  0  0  0  0  0  0  0  0
  150.1418  138.2291  154.9288 C   0  0  1  0  0  0  0  0  0  0  0  0
  149.6350  138.3276  153.5600 N   0  0  0  0  0  0  0  0  0  0  0  0
  150.4230  136.7613  155.2971 C   0  0  0  0  0  0  0  0  0  0  0  0
  151.4849  136.3561  155.7741 O   0  0  0  0  0  0  0  0  0  0  0  0
  149.3464  135.9972  155.0495 O   0  0  0  0  0  0  0  0  0  0  0  0
  149.1686  134.7839  155.7612 C   0  0  0  0  0  0  0  0  0  0  0  0
  149.2075  133.6042  154.7852 C   0  0  0  0  0  0  0  0  0  0  0  0
  147.9701  133.5265  154.0869 O   0  0  0  0  0  0  0  0  0  0  0  0
  148.0599  133.5994  152.6998 C   0  0  0  0  0  0  0  0  0  0  0  0
  146.9318  132.8931  152.1149 N   0  0  0  0  0  0  0  0  0  0  0  0
  146.6986  131.5409  152.0949 C   0  0  0  0  0  0  0  0  0  0  0  0
  145.5863  131.2029  151.5051 N   0  0  0  0  0  0  0  0  0  0  0  0
  145.0350  132.4147  151.0989 C   0  0  0  0  0  0  0  0  0  0  0  0
  143.8111  132.6842  150.3997 C   0  0  0  0  0  0  0  0  0  0  0  0
  142.9656  131.8827  150.0080 O   0  0  0  0  0  0  0  0  0  0  0  0
  143.6270  134.0528  150.1660 N   0  0  0  0  0  0  0  0  0  0  0  0
  144.5212  135.0419  150.5690 C   0  0  0  0  0  0  0  0  0  0  0  0
  144.2009  136.3060  150.2631 N   0  0  0  0  0  0  0  0  0  0  0  0
  145.6436  134.7929  151.2205 N   0  0  0  0  0  0  0  0  0  0  0  0
  145.8584  133.4626  151.4628 C   0  0  0  0  0  0  0  0  0  0  0  0
  149.3559  138.5942  155.5887 H   0  0  0  0  0  0  0  0  0  0  0  0
  142.7888  134.3229  149.6726 H   0  0  0  0  0  0  0  0  0  0  0  0
  152.8993  137.6017  154.7825 H   0  0  0  0  0  0  0  0  0  0  0  0
  153.5270  139.2415  154.6738 H   0  0  0  0  0  0  0  0  0  0  0  0
  152.5818  138.5881  153.3562 H   0  0  0  0  0  0  0  0  0  0  0  0
  151.1666  140.1112  154.6577 H   0  0  0  0  0  0  0  0  0  0  0  0
  151.9048  138.4788  157.1326 H   0  0  0  0  0  0  0  0  0  0  0  0
  150.8391  139.8786  157.1113 H   0  0  0  0  0  0  0  0  0  0  0  0
  152.5375  140.0688  156.7281 H   0  0  0  0  0  0  0  0  0  0  0  0
  149.4249  137.4181  153.1748 H   0  0  0  0  0  0  0  0  0  0  0  0
  148.7825  138.8673  153.5170 H   0  0  0  0  0  0  0  0  0  0  0  0
  149.9260  134.6672  156.5379 H   0  0  0  0  0  0  0  0  0  0  0  0
  148.1960  134.8147  156.2542 H   0  0  0  0  0  0  0  0  0  0  0  0
  149.9822  133.7820  154.0394 H   0  0  0  0  0  0  0  0  0  0  0  0
  149.4837  132.6831  155.3012 H   0  0  0  0  0  0  0  0  0  0  0  0
  147.9837  134.6473  152.4083 H   0  0  0  0  0  0  0  0  0  0  0  0
  149.0079  133.2101  152.3239 H   0  0  0  0  0  0  0  0  0  0  0  0
  147.3742  130.8189  152.5299 H   0  0  0  0  0  0  0  0  0  0  0  0
  143.3445  136.4986  149.7634 H   0  0  0  0  0  0  0  0  0  0  0  0
  144.8113  137.0653  150.5285 H   0  0  0  0  0  0  0  0  0  0  0  0
  1  2  1  0  0  0  0
  1 26  1  0  0  0  0
  1 27  1  0  0  0  0
  1 28  1  0  0  0  0
  2  3  1  0  0  0  0
  2  4  1  0  0  0  0
  2 29  1  0  0  0  0
  3 30  1  0  0  0  0
  3 31  1  0  0  0  0
  3 32  1  0  0  0  0
  4 24  1  0  0  0  0
  4  5  1  0  0  0  0
  4  6  1  0  0  0  0
  5 33  1  0  0  0  0
  5 34  1  0  0  0  0
  6  7  2  0  0  0  0
  6  8  1  0  0  0  0
  8  9  1  0  0  0  0
  9 10  1  0  0  0  0
  9 35  1  0  0  0  0
  9 36  1  0  0  0  0
 10 11  1  0  0  0  0
 10 37  1  0  0  0  0
 10 38  1  0  0  0  0
 11 12  1  0  0  0  0
 12 13  1  0  0  0  0
 12 39  1  0  0  0  0
 12 40  1  0  0  0  0
 13 23  1  0  0  0  0
 13 14  1  0  0  0  0
 14 15  2  0  0  0  0
 14 41  1  0  0  0  0
 15 16  1  0  0  0  0
 16 23  2  0  0  0  0
 16 17  1  0  0  0  0
 17 18  2  0  0  0  0
 17 19  1  0  0  0  0
 19 25  1  0  0  0  0
 19 20  1  0  0  0  0
 20 21  1  0  0  0  0
 20 22  2  0  0  0  0
 21 42  1  0  0  0  0
 21 43  1  0  0  0  0
 22 23  1  0  0  0  0
M  END
> <s_m_source_file>
AV-unprocessed.smi

> <i_m_source_file_index>
50

> <i_lp_mmshare_version>
43012

> <i_f3d_flags>
0

> <s_epik_input>
W0NIM11bQ0hdKFtDSDNdKVtDQEhdKFtOSDJdKUMoPU8pT1tDSDJdW0NIMl1PW0NIMl1uKFtjSF1uMSljKGMxMiluYyhbTkgyXSlbbkhdYzI9Tw==

> <s_epik_cmdline>
J2VwaWtfcHl0aG9uJywgJy1waCcsICc3LjAnLCAnLXRuJywgJzgnLCAnLW1hJywgJzIwMCcsICctbWV0YWxfYmluZGluZycsICctaW1hZScsICc8aW5maWxlLm1hZT4nLCAnLW9tYWUnLCAnPG91dGZpbGUubWFlPic=

> <r_lp_tautomer_probability>
0.99994

> <r_epik_Ionization_Penalty>
0.704142

> <r_epik_Ionization_Penalty_Charging>
0.00148332

> <r_epik_Ionization_Penalty_Neutral>
0.702658

> <r_epik_State_Penalty>
0.725442

> <r_epik_Charging_Adjusted_Penalty>
0.726926

> <i_epik_Tot_Q>
0

> <i_epik_Tot_abs_Q>
0

> <r_epik_Metal_State_Penalty>
1.04557

> <b_epik_Metal_Only>
0

> <s_epik_Chemistry_Notes>
This compound has an ester and may undergo hydrolysis at high or low pH. This compound contains an acetal/aminal-like group ( X-CH(R)-Y where X, Y are N, S, or O) that may be acid/base labile, releasing an aldehyde.

> <s_lp_Force_Field>
OPLS_2005

> <r_lp_Energy>
2.75991

> <b_lp_Chiralities_Consistent>
1

> <s_lp_Variant>
AV-unprocessed.smi:50-4

> <Gold.Version>
5.8.1

> <Gold.Id.Protein>
6NUR|6NUR_protein|mol2

> <Gold.PLP.Fitness>
43.4703

> <Gold.PLP.PLP>
-34.7031

> <Gold.PLP.part.hbond>
-6.5332

> <Gold.PLP.part.metal>
0.0000

> <Gold.PLP.part.buried>
-4.0106

> <Gold.PLP.part.nonpolar>
-28.2410

> <Gold.PLP.part.repulsive>
3.3123

> <Gold.PLP.ligand.clash>
0.0000

> <Gold.PLP.ligand.torsion>
1.6878

> <Gold.PLP.Chemscore.Hbond>
3.9771

> <Gold.PLP.Chemscore.CHOScore>
0.0279

> <Gold.PLP.Chemscore.Metal>
0.0000

> <Gold.Chemscore.Hbonds>
donor molecule, donor type, donor heavy atom, donor atom, acceptor molecule, acceptor atom, score
      L1  H     5    33       P1  7948  1.00
      L1  H    19    25       P1 10186  1.00
      L1  H    21    43       P1 10171  0.02
      P1  H 10752 10763       L1     7  1.00
      P1  H 10785 10796       L1    18  0.67
      L1  C    14    41       P1 10747  0.11

> <Gold.PLP.Chemscore.Internal.Correction>
0.1276

> <Gold.Rescore>
     Score         DG    S(hbond)    S(metal)    S(lipo)     H(rot)  DE(clash)    DE(int)     intcor
      5.71     -11.46       3.91        0.00      43.34       4.75       2.47       3.27       ----

> <Gold.Chemscore.Fitness>
5.7146

> <Gold.Chemscore.DG>
-11.4566

> <Gold.Chemscore.ZeroCoef>
-5.4800

> <Gold.Chemscore.Hbond>
3.9121

> <Gold.Chemscore.Metal>
0.0000

> <Gold.Chemscore.Lipo>
43.3364

> <Gold.Chemscore.Internal_Hbond>
0.0000

> <Gold.Chemscore.DEClash>
2.4730

> <Gold.Chemscore.DEInternal>
3.2690

> <Gold.Chemscore.Rot>
4.7501

> <Gold.Chemscore.Internal.Correction>
   9.000000E+99

> <Gold.Chemscore.Hbonds>
donor molecule, donor type, donor heavy atom, donor atom, acceptor molecule, acceptor atom, score
      L1  H     5    33       P1  7948  0.91
      L1  H    19    25       P1 10186  0.96
      L1  H    21    43       P1 10171  0.07
      P1  H 10752 10763       L1     7  0.98
      P1  H 10785 10796       L1    18  0.67

> <Gold.Chemscore.Hbond.Weighted>
-13.0666

> <Gold.Chemscore.Metal.Weighted>
-0.0000

> <Gold.Chemscore.Lipo.Weighted>
-5.0704

> <Gold.Chemscore.Internal_Hbond.Weighted>
0.0000

> <Gold.Chemscore.DEClash.Weighted>
2.4730

> <Gold.Chemscore.DEInternal.Weighted>
3.2690

> <Gold.Chemscore.Rot.Weighted>
12.1603

> <Gold.Chemscore.Internal.Correction.Weighted>
   9.000000E+99

> <Gold.Protein.RotatedTorsions>
[ 6907 6896 6895 6894 ] final  112.65 input  -60.11 | X-H torsion
[ 7974 7965 7964 7962 ] final   -3.50 input  175.53 | X-H torsion
[ 8008 7997 7996 7995 ] final  -49.23 input   59.86 | X-H torsion
[ 10167 10162 10161 10158 ] final   46.04 input  -65.29 | X-H torsion
[ 10718 10713 10712 10709 ] final  -48.64 input   66.30 | X-H torsion
[ 10763 10752 10751 10750 ] final   71.63 input  -60.55 | X-H torsion
[ 11005 11000 10999 10996 ] final   30.51 input  -57.11 | X-H torsion

> <Gold.Protein.ActiveResidues>
 VAL166  LYS551  ARG553  GLY616  TRP617  ASP618  TYR619  PRO620  LYS621  CYS622 
 ASP623  PHE694  ASN695  SER759  ASP760  ASP761  ALA762  ILE779  LEU786  VAL792 
 PHE793  MET794  SER795  GLU796  ALA797  LYS798  CYS799  TRP800  GLU811  SER814 

> <Gold.Protein.RotatedAtoms>
  152.4905  133.8486  159.7189 H   0  0  0  0  0  0  0  0  0  0  0  0  # atno 6907 bound_to 6896
  150.9030  133.7085  159.2881 H   0  0  0  0  0  0  0  0  0  0  0  0  # atno 6908 bound_to 6896
  151.4520  135.1035  159.9753 H   0  0  0  0  0  0  0  0  0  0  0  0  # atno 6909 bound_to 6896
  146.2388  140.1731  142.8332 H   0  0  0  0  0  0  0  0  0  0  0  0  # atno 7974 bound_to 7965
  154.4041  140.1302  156.4468 H   0  0  0  0  0  0  0  0  0  0  0  0  # atno 8008 bound_to 7997
  155.7405  140.3490  155.5082 H   0  0  0  0  0  0  0  0  0  0  0  0  # atno 8009 bound_to 7997
  155.9043  140.1025  157.1317 H   0  0  0  0  0  0  0  0  0  0  0  0  # atno 8010 bound_to 7997
  140.3180  144.2740  150.6188 H   0  0  0  0  0  0  0  0  0  0  0  0  # atno 10167 bound_to 10162
  156.1968  130.4154  149.9295 H   0  0  0  0  0  0  0  0  0  0  0  0  # atno 10718 bound_to 10713
  153.0410  135.5130  154.7622 H   0  0  0  0  0  0  0  0  0  0  0  0  # atno 10763 bound_to 10752
  154.6560  135.2931  154.9930 H   0  0  0  0  0  0  0  0  0  0  0  0  # atno 10764 bound_to 10752
  154.0798  135.6665  153.4888 H   0  0  0  0  0  0  0  0  0  0  0  0  # atno 10765 bound_to 10752
  140.2936  134.2836  155.7770 H   0  0  0  0  0  0  0  0  0  0  0  0  # atno 11005 bound_to 11000
  144.9995  140.8619  143.5290 LP  0  0  0  0  0  0  0  0  0  0  0  0  # atno 17320 bound_to 7965
  145.1748  139.2384  143.5323 LP  0  0  0  0  0  0  0  0  0  0  0  0  # atno 17321 bound_to 7965
  140.5509  143.2206  151.7928 LP  0  0  0  0  0  0  0  0  0  0  0  0  # atno 17342 bound_to 10162
  139.4880  144.4477  151.9690 LP  0  0  0  0  0  0  0  0  0  0  0  0  # atno 17343 bound_to 10162
  156.7017  130.8936  151.3600 LP  0  0  0  0  0  0  0  0  0  0  0  0  # atno 17370 bound_to 10713
  157.6962  130.9285  150.0652 LP  0  0  0  0  0  0  0  0  0  0  0  0  # atno 17371 bound_to 10713
  141.2141  133.7601  156.9662 LP  0  0  0  0  0  0  0  0  0  0  0  0  # atno 17394 bound_to 11000
  140.1173  134.9439  157.2152 LP  0  0  0  0  0  0  0  0  0  0  0  0  # atno 17395 bound_to 11000

$$$$
