AV-unprocessed.smi:2880|AV-procd|sdf|11054|dock4
  -GOLD-   2272015523D 1   1.00000     0.00000
 Structure written by MMmdl.
 47 48  0  0  0  0  0  0  0  0  1 V2000
  150.4728  141.4067  156.0220 C   0  0  0  0  0  0  0  0  0  0  0  0
  149.8495  140.0479  155.6463 C   0  0  0  0  0  0  0  0  0  0  0  0
  150.8894  139.2412  154.8327 C   0  0  0  0  0  0  0  0  0  0  0  0
  149.5107  139.2586  156.9256 C   0  0  0  0  0  0  0  0  0  0  0  0
  148.6124  140.2829  154.8896 N   0  0  0  0  0  0  0  0  0  0  0  0
  148.0995  141.4937  154.4547 C   0  0  0  0  0  0  0  0  0  0  0  0
  146.9296  141.2471  153.7950 C   0  0  0  0  0  0  0  0  0  0  0  0
  146.8013  139.8352  153.8788 C   0  0  0  0  0  0  0  0  0  0  0  0
  145.6918  139.1723  153.2954 N   0  0  0  0  0  0  0  0  0  0  0  0
  145.5966  137.8753  152.9565 C   0  0  0  0  0  0  0  0  0  0  0  0
  146.4748  137.0302  153.1339 O   0  0  0  0  0  0  0  0  0  0  0  0
  144.4117  137.6120  152.3852 N   0  0  0  0  0  0  0  0  0  0  0  0
  143.9804  136.3180  151.8577 C   0  0  1  0  0  0  0  0  0  0  0  0
  145.0397  135.8194  150.8546 C   0  0  0  0  0  0  0  0  0  0  0  0
  144.6743  134.4444  150.2791 C   0  0  0  0  0  0  0  0  0  0  0  0
  144.4650  133.4222  151.4031 C   0  0  0  0  0  0  0  0  0  0  0  0
  143.4009  133.9091  152.3978 C   0  0  0  0  0  0  0  0  0  0  0  0
  143.7501  135.2879  152.9995 C   0  0  2  0  0  0  0  0  0  0  0  0
  142.6544  135.7134  154.0045 C   0  0  0  0  0  0  0  0  0  0  0  0
  142.1951  134.6237  154.7780 O   0  0  0  0  0  0  0  0  0  0  0  0
  147.7995  139.2594  154.5319 N   0  0  0  0  0  0  0  0  0  0  0  0
  151.4013  141.2757  156.5785 H   0  0  0  0  0  0  0  0  0  0  0  0
  149.8041  142.0020  156.6444 H   0  0  0  0  0  0  0  0  0  0  0  0
  150.7036  141.9939  155.1323 H   0  0  0  0  0  0  0  0  0  0  0  0
  151.1735  139.7594  153.9160 H   0  0  0  0  0  0  0  0  0  0  0  0
  150.5095  138.2569  154.5553 H   0  0  0  0  0  0  0  0  0  0  0  0
  151.8021  139.0825  155.4082 H   0  0  0  0  0  0  0  0  0  0  0  0
  150.4060  139.0535  157.5136 H   0  0  0  0  0  0  0  0  0  0  0  0
  149.0480  138.3001  156.6871 H   0  0  0  0  0  0  0  0  0  0  0  0
  148.8199  139.8053  157.5681 H   0  0  0  0  0  0  0  0  0  0  0  0
  148.6067  142.4271  154.6488 H   0  0  0  0  0  0  0  0  0  0  0  0
  146.2723  141.9647  153.3272 H   0  0  0  0  0  0  0  0  0  0  0  0
  144.8904  139.7523  153.0953 H   0  0  0  0  0  0  0  0  0  0  0  0
  143.7610  138.3766  152.2811 H   0  0  0  0  0  0  0  0  0  0  0  0
  143.0402  136.4313  151.3146 H   0  0  0  0  0  0  0  0  0  0  0  0
  145.1503  136.5369  150.0404 H   0  0  0  0  0  0  0  0  0  0  0  0
  146.0125  135.7575  151.3451 H   0  0  0  0  0  0  0  0  0  0  0  0
  143.7653  134.5256  149.6817 H   0  0  0  0  0  0  0  0  0  0  0  0
  145.4591  134.1015  149.6045 H   0  0  0  0  0  0  0  0  0  0  0  0
  144.1689  132.4611  150.9816 H   0  0  0  0  0  0  0  0  0  0  0  0
  145.4067  133.2534  151.9270 H   0  0  0  0  0  0  0  0  0  0  0  0
  142.4335  133.9621  151.8961 H   0  0  0  0  0  0  0  0  0  0  0  0
  143.2936  133.1712  153.1937 H   0  0  0  0  0  0  0  0  0  0  0  0
  144.6845  135.1661  153.5504 H   0  0  0  0  0  0  0  0  0  0  0  0
  143.0168  136.5036  154.6629 H   0  0  0  0  0  0  0  0  0  0  0  0
  141.7882  136.1140  153.4771 H   0  0  0  0  0  0  0  0  0  0  0  0
  142.6255  133.8386  154.4752 H   0  0  0  0  0  0  0  0  0  0  0  0
  1  2  1  0  0  0  0
  1 22  1  0  0  0  0
  1 23  1  0  0  0  0
  1 24  1  0  0  0  0
  2  3  1  0  0  0  0
  2  4  1  0  0  0  0
  2  5  1  0  0  0  0
  3 25  1  0  0  0  0
  3 26  1  0  0  0  0
  3 27  1  0  0  0  0
  4 28  1  0  0  0  0
  4 29  1  0  0  0  0
  4 30  1  0  0  0  0
  5 21  1  0  0  0  0
  5  6  1  0  0  0  0
  6  7  2  0  0  0  0
  6 31  1  0  0  0  0
  7  8  1  0  0  0  0
  7 32  1  0  0  0  0
  8  9  1  0  0  0  0
  8 21  2  0  0  0  0
  9 10  1  0  0  0  0
  9 33  1  0  0  0  0
 10 11  2  0  0  0  0
 10 12  1  0  0  0  0
 12 13  1  0  0  0  0
 12 34  1  0  0  0  0
 13 18  1  0  0  0  0
 13 14  1  0  0  0  0
 13 35  1  0  0  0  0
 14 15  1  0  0  0  0
 14 36  1  0  0  0  0
 14 37  1  0  0  0  0
 15 16  1  0  0  0  0
 15 38  1  0  0  0  0
 15 39  1  0  0  0  0
 16 17  1  0  0  0  0
 16 40  1  0  0  0  0
 16 41  1  0  0  0  0
 17 18  1  0  0  0  0
 17 42  1  0  0  0  0
 17 43  1  0  0  0  0
 18 19  1  0  0  0  0
 18 44  1  0  0  0  0
 19 20  1  0  0  0  0
 19 45  1  0  0  0  0
 19 46  1  0  0  0  0
 20 47  1  0  0  0  0
M  END
> <s_m_source_file>
AV-unprocessed.smi

> <i_m_source_file_index>
2880

> <i_lp_mmshare_version>
43012

> <i_f3d_flags>
0

> <s_epik_input>
W0NIM11DKFtDSDNdKShbQ0gzXSluMVtjSF1bY0hdYyhuMSlbTkhdQyg9TylbTkhdW0NAQEhdMltDSDJdW0NIMl1bQ0gyXVtDSDJdW0NASF0yW0NIMl1bT0hd

> <s_epik_cmdline>
J2VwaWtfcHl0aG9uJywgJy1waCcsICc3LjAnLCAnLXRuJywgJzgnLCAnLW1hJywgJzIwMCcsICctbWV0YWxfYmluZGluZycsICctaW1hZScsICc8aW5maWxlLm1hZT4nLCAnLW9tYWUnLCAnPG91dGZpbGUubWFlPic=

> <r_lp_tautomer_probability>
1

> <r_epik_Ionization_Penalty>
3.89283e-05

> <r_epik_Ionization_Penalty_Charging>
0

> <r_epik_Ionization_Penalty_Neutral>
3.89283e-05

> <r_epik_State_Penalty>
-0

> <r_epik_Charging_Adjusted_Penalty>
0

> <i_epik_Tot_Q>
0

> <i_epik_Tot_abs_Q>
0

> <r_epik_Metal_State_Penalty>
-0

> <b_epik_Metal_Only>
0

> <s_lp_Force_Field>
OPLS_2005

> <r_lp_Energy>
21.9333

> <b_lp_Chiralities_Consistent>
1

> <s_lp_Variant>
AV-unprocessed.smi:2880-4

> <Gold.Version>
5.8.1

> <Gold.Id.Protein>
6NUR|6NUR_protein|mol2

> <Gold.PLP.Fitness>
45.8201

> <Gold.PLP.PLP>
-34.1213

> <Gold.PLP.part.hbond>
-5.0000

> <Gold.PLP.part.metal>
0.0000

> <Gold.PLP.part.buried>
-1.9562

> <Gold.PLP.part.nonpolar>
-29.5062

> <Gold.PLP.part.repulsive>
2.1050

> <Gold.PLP.ligand.clash>
0.0000

> <Gold.PLP.ligand.torsion>
0.4054

> <Gold.PLP.Chemscore.Hbond>
3.1655

> <Gold.PLP.Chemscore.CHOScore>
1.0000

> <Gold.PLP.Chemscore.Metal>
0.0000

> <Gold.Chemscore.Hbonds>
donor molecule, donor type, donor heavy atom, donor atom, acceptor molecule, acceptor atom, score
      L1  H     9    33       P1 10175  1.00
      L1  H    12    34       P1 10175  0.76
      L1  H    20    47       P1 10957  0.69
      P1  H 11000 11005       L1    20  0.72
      L1  C     6    31       P1  8028  1.00

> <Gold.PLP.Chemscore.Internal.Correction>
0.0133

> <Gold.Rescore>
     Score         DG    S(hbond)    S(metal)    S(lipo)     H(rot)  DE(clash)    DE(int)     intcor
     14.79     -18.32       2.79        0.00      73.17       1.97       0.88       2.65       ----

> <Gold.Chemscore.Fitness>
14.7874

> <Gold.Chemscore.DG>
-18.3152

> <Gold.Chemscore.ZeroCoef>
-5.4800

> <Gold.Chemscore.Hbond>
2.7874

> <Gold.Chemscore.Metal>
0.0000

> <Gold.Chemscore.Lipo>
73.1747

> <Gold.Chemscore.Internal_Hbond>
0.0000

> <Gold.Chemscore.DEClash>
0.8760

> <Gold.Chemscore.DEInternal>
2.6519

> <Gold.Chemscore.Rot>
1.9672

> <Gold.Chemscore.Internal.Correction>
   9.000000E+99

> <Gold.Chemscore.Hbonds>
donor molecule, donor type, donor heavy atom, donor atom, acceptor molecule, acceptor atom, score
      L1  H     9    33       P1 10175  0.94
      L1  H    12    34       P1 10175  0.72
      L1  H    20    47       P1 10957  0.68
      P1  H 11000 11005       L1    20  0.25

> <Gold.Chemscore.Hbond.Weighted>
-9.3098

> <Gold.Chemscore.Metal.Weighted>
-0.0000

> <Gold.Chemscore.Lipo.Weighted>
-8.5614

> <Gold.Chemscore.Internal_Hbond.Weighted>
0.0000

> <Gold.Chemscore.DEClash.Weighted>
0.8760

> <Gold.Chemscore.DEInternal.Weighted>
2.6519

> <Gold.Chemscore.Rot.Weighted>
5.0360

> <Gold.Chemscore.Internal.Correction.Weighted>
   9.000000E+99

> <Gold.Protein.RotatedTorsions>
[ 6907 6896 6895 6894 ] final  -30.04 input  -60.11 | X-H torsion
[ 7974 7965 7964 7962 ] final   91.34 input  175.53 | X-H torsion
[ 8008 7997 7996 7995 ] final   67.16 input   59.86 | X-H torsion
[ 10167 10162 10161 10158 ] final -132.37 input  -65.29 | X-H torsion
[ 10718 10713 10712 10709 ] final  130.65 input   66.30 | X-H torsion
[ 10763 10752 10751 10750 ] final -174.80 input  -60.55 | X-H torsion
[ 11005 11000 10999 10996 ] final   -6.55 input  -57.11 | X-H torsion

> <Gold.Protein.ActiveResidues>
 VAL166  LYS551  ARG553  GLY616  TRP617  ASP618  TYR619  PRO620  LYS621  CYS622 
 ASP623  PHE694  ASN695  SER759  ASP760  ASP761  ALA762  ILE779  LEU786  VAL792 
 PHE793  MET794  SER795  GLU796  ALA797  LYS798  CYS799  TRP800  GLU811  SER814 

> <Gold.Protein.RotatedAtoms>
  151.1109  135.0026  159.8493 H   0  0  0  0  0  0  0  0  0  0  0  0  # atno 6907 bound_to 6896
  152.5443  134.1837  159.8656 H   0  0  0  0  0  0  0  0  0  0  0  0  # atno 6908 bound_to 6896
  151.1887  133.4636  159.2628 H   0  0  0  0  0  0  0  0  0  0  0  0  # atno 6909 bound_to 6896
  145.5070  139.2276  143.2746 H   0  0  0  0  0  0  0  0  0  0  0  0  # atno 7974 bound_to 7965
  155.6886  140.3496  155.4884 H   0  0  0  0  0  0  0  0  0  0  0  0  # atno 8008 bound_to 7997
  155.9544  140.1125  157.0972 H   0  0  0  0  0  0  0  0  0  0  0  0  # atno 8009 bound_to 7997
  154.4129  140.1188  156.5081 H   0  0  0  0  0  0  0  0  0  0  0  0  # atno 8010 bound_to 7997
  139.9093  143.6514  152.2579 H   0  0  0  0  0  0  0  0  0  0  0  0  # atno 10167 bound_to 10162
  157.5041  131.1095  150.9385 H   0  0  0  0  0  0  0  0  0  0  0  0  # atno 10718 bound_to 10713
  154.5920  135.2846  155.0626 H   0  0  0  0  0  0  0  0  0  0  0  0  # atno 10763 bound_to 10752
  154.1923  135.6438  153.5067 H   0  0  0  0  0  0  0  0  0  0  0  0  # atno 10764 bound_to 10752
  153.0124  135.5449  154.6609 H   0  0  0  0  0  0  0  0  0  0  0  0  # atno 10765 bound_to 10752
  140.7032  133.8972  155.8698 H   0  0  0  0  0  0  0  0  0  0  0  0  # atno 11005 bound_to 11000
  146.2190  140.5874  142.9025 LP  0  0  0  0  0  0  0  0  0  0  0  0  # atno 17320 bound_to 7965
  144.7748  140.5716  143.6645 LP  0  0  0  0  0  0  0  0  0  0  0  0  # atno 17321 bound_to 7965
  139.6957  144.7641  151.1361 LP  0  0  0  0  0  0  0  0  0  0  0  0  # atno 17342 bound_to 10162
  140.7689  143.5527  150.9186 LP  0  0  0  0  0  0  0  0  0  0  0  0  # atno 17343 bound_to 10162
  157.0046  130.5613  149.5315 LP  0  0  0  0  0  0  0  0  0  0  0  0  # atno 17370 bound_to 10713
  156.0247  130.5342  150.8375 LP  0  0  0  0  0  0  0  0  0  0  0  0  # atno 17371 bound_to 10713
  141.0146  134.0973  157.4185 LP  0  0  0  0  0  0  0  0  0  0  0  0  # atno 17394 bound_to 11000
  139.8891  135.0102  156.6660 LP  0  0  0  0  0  0  0  0  0  0  0  0  # atno 17395 bound_to 11000

$$$$
