AV-unprocessed.smi:2730|AV-procd|sdf|10529|dock3
  -GOLD-   2272014573D 1   1.00000     0.00000
 Structure written by MMmdl.
 43 44  0  0  0  0  0  0  0  0  1 V2000
  155.1539  135.1963  164.1642 C   0  0  0  0  0  0  0  0  0  0  0  0
  154.9397  134.3357  162.9104 C   0  0  0  0  0  0  0  0  0  0  0  0
  155.7768  134.7839  161.6981 C   0  0  1  0  0  0  0  0  0  0  0  0
  155.3356  134.0514  160.4197 C   0  0  0  0  0  0  0  0  0  0  0  0
  155.1615  132.6006  160.5970 C   0  0  0  0  0  0  0  0  0  0  0  0
  155.0255  131.4601  160.7358 N   0  0  0  0  0  0  0  0  0  0  0  0
  155.6583  136.2311  161.5180 N   0  0  0  0  0  0  0  0  0  0  0  0
  154.6262  136.8655  160.9416 C   0  0  0  0  0  0  0  0  0  0  0  0
  153.6316  136.2869  160.5034 O   0  0  0  0  0  0  0  0  0  0  0  0
  154.8287  138.1943  160.9104 N   0  0  0  0  0  0  0  0  0  0  0  0
  153.9805  139.1981  160.3740 C   0  0  0  0  0  0  0  0  0  0  0  0
  152.9098  138.9478  159.5592 N   0  0  0  0  0  0  0  0  0  0  0  0
  152.4982  140.1931  159.3637 C   0  0  0  0  0  0  0  0  0  0  0  0
  153.2323  141.1149  159.9961 N   0  0  0  0  0  0  0  0  0  0  0  0
  153.1203  142.5651  160.0249 C   0  0  0  0  0  0  0  0  0  0  0  0
  152.6762  143.0646  161.4148 C   0  0  0  0  0  0  0  0  0  0  0  0
  152.5438  144.5962  161.4426 C   0  0  0  0  0  0  0  0  0  0  0  0
  151.5911  145.0946  160.3441 C   0  0  0  0  0  0  0  0  0  0  0  0
  152.0339  144.6007  158.9573 C   0  0  0  0  0  0  0  0  0  0  0  0
  152.1637  143.0689  158.9260 C   0  0  0  0  0  0  0  0  0  0  0  0
  154.2222  140.4749  160.6649 N   0  0  0  0  0  0  0  0  0  0  0  0
  154.5794  134.8052  165.0039 H   0  0  0  0  0  0  0  0  0  0  0  0
  154.8392  136.2275  164.0029 H   0  0  0  0  0  0  0  0  0  0  0  0
  156.2039  135.2079  164.4579 H   0  0  0  0  0  0  0  0  0  0  0  0
  155.1903  133.3025  163.1527 H   0  0  0  0  0  0  0  0  0  0  0  0
  153.8808  134.3359  162.6485 H   0  0  0  0  0  0  0  0  0  0  0  0
  156.8152  134.5158  161.9012 H   0  0  0  0  0  0  0  0  0  0  0  0
  154.3793  134.4447  160.0737 H   0  0  0  0  0  0  0  0  0  0  0  0
  156.0549  134.2110  159.6160 H   0  0  0  0  0  0  0  0  0  0  0  0
  156.4312  136.7909  161.8474 H   0  0  0  0  0  0  0  0  0  0  0  0
  155.6929  138.5280  161.3104 H   0  0  0  0  0  0  0  0  0  0  0  0
  151.6462  140.4383  158.7469 H   0  0  0  0  0  0  0  0  0  0  0  0
  154.1108  142.9776  159.8230 H   0  0  0  0  0  0  0  0  0  0  0  0
  151.7185  142.6177  161.6850 H   0  0  0  0  0  0  0  0  0  0  0  0
  153.3920  142.7441  162.1726 H   0  0  0  0  0  0  0  0  0  0  0  0
  152.1853  144.9205  162.4199 H   0  0  0  0  0  0  0  0  0  0  0  0
  153.5263  145.0502  161.3073 H   0  0  0  0  0  0  0  0  0  0  0  0
  150.5789  144.7443  160.5509 H   0  0  0  0  0  0  0  0  0  0  0  0
  151.5487  146.1841  160.3549 H   0  0  0  0  0  0  0  0  0  0  0  0
  151.3209  144.9293  158.2008 H   0  0  0  0  0  0  0  0  0  0  0  0
  152.9911  145.0540  158.6965 H   0  0  0  0  0  0  0  0  0  0  0  0
  152.5197  142.7503  157.9455 H   0  0  0  0  0  0  0  0  0  0  0  0
  151.1775  142.6215  159.0570 H   0  0  0  0  0  0  0  0  0  0  0  0
  1  2  1  0  0  0  0
  1 22  1  0  0  0  0
  1 23  1  0  0  0  0
  1 24  1  0  0  0  0
  2  3  1  0  0  0  0
  2 25  1  0  0  0  0
  2 26  1  0  0  0  0
  3  4  1  0  0  0  0
  3  7  1  0  0  0  0
  3 27  1  0  0  0  0
  4  5  1  0  0  0  0
  4 28  1  0  0  0  0
  4 29  1  0  0  0  0
  5  6  3  0  0  0  0
  7  8  1  0  0  0  0
  7 30  1  0  0  0  0
  8  9  2  0  0  0  0
  8 10  1  0  0  0  0
 10 11  1  0  0  0  0
 10 31  1  0  0  0  0
 11 21  2  0  0  0  0
 11 12  1  0  0  0  0
 12 13  2  0  0  0  0
 13 14  1  0  0  0  0
 13 32  1  0  0  0  0
 14 15  1  0  0  0  0
 14 21  1  0  0  0  0
 15 20  1  0  0  0  0
 15 16  1  0  0  0  0
 15 33  1  0  0  0  0
 16 17  1  0  0  0  0
 16 34  1  0  0  0  0
 16 35  1  0  0  0  0
 17 18  1  0  0  0  0
 17 36  1  0  0  0  0
 17 37  1  0  0  0  0
 18 19  1  0  0  0  0
 18 38  1  0  0  0  0
 18 39  1  0  0  0  0
 19 20  1  0  0  0  0
 19 40  1  0  0  0  0
 19 41  1  0  0  0  0
 20 42  1  0  0  0  0
 20 43  1  0  0  0  0
M  END
> <s_m_source_file>
AV-unprocessed.smi

> <i_m_source_file_index>
2730

> <i_lp_mmshare_version>
43012

> <i_f3d_flags>
0

> <s_epik_input>
TiNDW0NIMl1bQ0BASF0oW0NIMl1bQ0gzXSlbTkhdQyg9TylbTkhdYzFuW2NIXW4objEpW0NIXTJbQ0gyXVtDSDJdW0NIMl1bQ0gyXVtDSDJdMg==

> <s_epik_cmdline>
J2VwaWtfcHl0aG9uJywgJy1waCcsICc3LjAnLCAnLXRuJywgJzgnLCAnLW1hJywgJzIwMCcsICctbWV0YWxfYmluZGluZycsICctaW1hZScsICc8aW5maWxlLm1hZT4nLCAnLW9tYWUnLCAnPG91dGZpbGUubWFlPic=

> <r_lp_tautomer_probability>
1

> <r_epik_Ionization_Penalty>
7.18854e-05

> <r_epik_Ionization_Penalty_Charging>
0

> <r_epik_Ionization_Penalty_Neutral>
7.18854e-05

> <r_epik_State_Penalty>
-0

> <r_epik_Charging_Adjusted_Penalty>
0

> <i_epik_Tot_Q>
0

> <i_epik_Tot_abs_Q>
0

> <r_epik_Metal_State_Penalty>
-0

> <b_epik_Metal_Only>
0

> <s_lp_Force_Field>
OPLS_2005

> <r_lp_Energy>
17.9717

> <b_lp_Chiralities_Consistent>
1

> <s_lp_Variant>
AV-unprocessed.smi:2730-2

> <Gold.Version>
5.8.1

> <Gold.Id.Protein>
6NUR|6NUR_protein|mol2

> <Gold.PLP.Fitness>
42.7545

> <Gold.PLP.PLP>
-41.0137

> <Gold.PLP.part.hbond>
-0.9618

> <Gold.PLP.part.metal>
0.0000

> <Gold.PLP.part.buried>
-5.3147

> <Gold.PLP.part.nonpolar>
-34.8115

> <Gold.PLP.part.repulsive>
0.0094

> <Gold.PLP.ligand.clash>
0.0000

> <Gold.PLP.ligand.torsion>
0.6776

> <Gold.PLP.Chemscore.Hbond>
0.9913

> <Gold.PLP.Chemscore.CHOScore>
0.0000

> <Gold.PLP.Chemscore.Metal>
0.0000

> <Gold.Chemscore.Hbonds>
donor molecule, donor type, donor heavy atom, donor atom, acceptor molecule, acceptor atom, score
      P1  H  6896  6907       L1     9  1.00

> <Gold.PLP.Chemscore.Internal.Correction>
0.1223

> <Gold.Rescore>
     Score         DG    S(hbond)    S(metal)    S(lipo)     H(rot)  DE(clash)    DE(int)     intcor
     12.90     -15.03       0.99        0.00      93.31       1.82       0.00       2.13       ----

> <Gold.Chemscore.Fitness>
12.8951

> <Gold.Chemscore.DG>
-15.0264

> <Gold.Chemscore.ZeroCoef>
-5.4800

> <Gold.Chemscore.Hbond>
0.9884

> <Gold.Chemscore.Metal>
0.0000

> <Gold.Chemscore.Lipo>
93.3067

> <Gold.Chemscore.Internal_Hbond>
0.0000

> <Gold.Chemscore.DEClash>
0.0004

> <Gold.Chemscore.DEInternal>
2.1309

> <Gold.Chemscore.Rot>
1.8249

> <Gold.Chemscore.Internal.Correction>
   9.000000E+99

> <Gold.Chemscore.Hbonds>
donor molecule, donor type, donor heavy atom, donor atom, acceptor molecule, acceptor atom, score
      P1  H  6896  6907       L1     9  0.96

> <Gold.Chemscore.Hbond.Weighted>
-3.3013

> <Gold.Chemscore.Metal.Weighted>
-0.0000

> <Gold.Chemscore.Lipo.Weighted>
-10.9169

> <Gold.Chemscore.Internal_Hbond.Weighted>
0.0000

> <Gold.Chemscore.DEClash.Weighted>
0.0004

> <Gold.Chemscore.DEInternal.Weighted>
2.1309

> <Gold.Chemscore.Rot.Weighted>
4.6718

> <Gold.Chemscore.Internal.Correction.Weighted>
   9.000000E+99

> <Gold.Protein.RotatedTorsions>
[ 6907 6896 6895 6894 ] final   48.50 input  -60.11 | X-H torsion
[ 7974 7965 7964 7962 ] final   46.13 input  175.53 | X-H torsion
[ 8008 7997 7996 7995 ] final -123.31 input   59.86 | X-H torsion
[ 10167 10162 10161 10158 ] final   14.11 input  -65.29 | X-H torsion
[ 10718 10713 10712 10709 ] final  -54.74 input   66.30 | X-H torsion
[ 10763 10752 10751 10750 ] final  -92.93 input  -60.55 | X-H torsion
[ 11005 11000 10999 10996 ] final -133.03 input  -57.11 | X-H torsion

> <Gold.Protein.ActiveResidues>
 VAL166  LYS551  ARG553  GLY616  TRP617  ASP618  TYR619  PRO620  LYS621  CYS622 
 ASP623  PHE694  ASN695  SER759  ASP760  ASP761  ALA762  ILE779  LEU786  VAL792 
 PHE793  MET794  SER795  GLU796  ALA797  LYS798  CYS799  TRP800  GLU811  SER814 

> <Gold.Protein.RotatedAtoms>
  152.2802  134.7837  160.0397 H   0  0  0  0  0  0  0  0  0  0  0  0  # atno 6907 bound_to 6896
  151.8419  133.3420  159.3654 H   0  0  0  0  0  0  0  0  0  0  0  0  # atno 6908 bound_to 6896
  150.7186  134.5311  159.5745 H   0  0  0  0  0  0  0  0  0  0  0  0  # atno 6909 bound_to 6896
  146.0418  139.4889  142.9774 H   0  0  0  0  0  0  0  0  0  0  0  0  # atno 7974 bound_to 7965
  155.1784  140.0410  157.2877 H   0  0  0  0  0  0  0  0  0  0  0  0  # atno 8008 bound_to 7997
  154.6220  140.2503  155.7509 H   0  0  0  0  0  0  0  0  0  0  0  0  # atno 8009 bound_to 7997
  156.2439  140.2893  156.0533 H   0  0  0  0  0  0  0  0  0  0  0  0  # atno 8010 bound_to 7997
  140.5958  143.8705  150.6916 H   0  0  0  0  0  0  0  0  0  0  0  0  # atno 10167 bound_to 10162
  156.1426  130.4154  150.0078 H   0  0  0  0  0  0  0  0  0  0  0  0  # atno 10718 bound_to 10713
  154.6910  135.5213  153.8392 H   0  0  0  0  0  0  0  0  0  0  0  0  # atno 10763 bound_to 10752
  153.0632  135.6575  154.0424 H   0  0  0  0  0  0  0  0  0  0  0  0  # atno 10764 bound_to 10752
  154.0298  135.2986  155.3349 H   0  0  0  0  0  0  0  0  0  0  0  0  # atno 10765 bound_to 10752
  140.9117  134.1560  157.4384 H   0  0  0  0  0  0  0  0  0  0  0  0  # atno 11005 bound_to 11000
  145.6872  141.0174  143.1574 LP  0  0  0  0  0  0  0  0  0  0  0  0  # atno 17320 bound_to 7965
  144.7078  139.8490  143.7424 LP  0  0  0  0  0  0  0  0  0  0  0  0  # atno 17321 bound_to 7965
  140.2239  143.3788  152.1621 LP  0  0  0  0  0  0  0  0  0  0  0  0  # atno 17342 bound_to 10162
  139.5257  144.7099  151.5239 LP  0  0  0  0  0  0  0  0  0  0  0  0  # atno 17343 bound_to 10162
  156.7959  130.9273  151.3646 LP  0  0  0  0  0  0  0  0  0  0  0  0  # atno 17370 bound_to 10713
  157.6588  130.8948  149.9786 LP  0  0  0  0  0  0  0  0  0  0  0  0  # atno 17371 bound_to 10713
  139.8758  134.9938  156.5662 LP  0  0  0  0  0  0  0  0  0  0  0  0  # atno 17394 bound_to 11000
  140.8102  133.8435  155.8803 LP  0  0  0  0  0  0  0  0  0  0  0  0  # atno 17395 bound_to 11000

$$$$
