AV-unprocessed.smi:3185|AV-procd|sdf|12170|dock5
  -GOLD-   2272018 03D 1   1.00000     0.00000
 Structure written by MMmdl.
 37 38  0  0  0  0  0  0  0  0  1 V2000
  151.3865  146.0618  160.1103 N   0  0  0  0  0  0  0  0  0  0  0  0
  151.6862  144.9749  159.8506 C   0  0  0  0  0  0  0  0  0  0  0  0
  152.0667  143.5932  159.5207 C   0  0  0  0  0  0  0  0  0  0  0  0
  151.5409  143.1440  158.1533 C   0  0  0  0  0  0  0  0  0  0  0  0
  151.4754  141.6165  158.0366 C   0  0  0  0  0  0  0  0  0  0  0  0
  151.0801  141.2502  156.6846 N   0  0  0  0  0  0  0  0  0  0  0  0
  151.5789  139.9329  156.2952 C   0  0  1  0  0  0  0  0  0  0  0  0
  151.0933  138.8227  157.2564 C   0  0  0  0  0  0  0  0  0  0  0  0
  151.6144  137.4446  156.8172 C   0  0  0  0  0  0  0  0  0  0  0  0
  151.2229  137.1182  155.3682 C   0  0  0  0  0  0  0  0  0  0  0  0
  151.6772  138.2249  154.3982 C   0  0  0  0  0  0  0  0  0  0  0  0
  151.2147  139.6416  154.8118 C   0  0  1  0  0  0  0  0  0  0  0  0
  149.8144  139.9010  154.4632 N   0  0  0  0  0  0  0  0  0  0  0  0
  148.9165  139.0146  153.9022 C   0  0  0  0  0  0  0  0  0  0  0  0
  147.7284  139.6684  153.7444 C   0  0  0  0  0  0  0  0  0  0  0  0
  147.9950  140.9725  154.2432 C   0  0  0  0  0  0  0  0  0  0  0  0
  149.2387  141.1073  154.6704 N   0  0  0  0  0  0  0  0  0  0  0  0
  153.1547  143.5317  159.5494 H   0  0  0  0  0  0  0  0  0  0  0  0
  151.6838  142.9444  160.3086 H   0  0  0  0  0  0  0  0  0  0  0  0
  150.5492  143.5690  157.9915 H   0  0  0  0  0  0  0  0  0  0  0  0
  152.1842  143.5470  157.3699 H   0  0  0  0  0  0  0  0  0  0  0  0
  152.4514  141.1865  158.2654 H   0  0  0  0  0  0  0  0  0  0  0  0
  150.7638  141.2241  158.7624 H   0  0  0  0  0  0  0  0  0  0  0  0
  151.4409  141.9413  156.0427 H   0  0  0  0  0  0  0  0  0  0  0  0
  152.6686  139.9629  156.3450 H   0  0  0  0  0  0  0  0  0  0  0  0
  151.4428  139.0121  158.2708 H   0  0  0  0  0  0  0  0  0  0  0  0
  150.0053  138.8073  157.3140 H   0  0  0  0  0  0  0  0  0  0  0  0
  152.7008  137.4230  156.9111 H   0  0  0  0  0  0  0  0  0  0  0  0
  151.2326  136.6731  157.4863 H   0  0  0  0  0  0  0  0  0  0  0  0
  151.6718  136.1693  155.0736 H   0  0  0  0  0  0  0  0  0  0  0  0
  150.1460  136.9686  155.3017 H   0  0  0  0  0  0  0  0  0  0  0  0
  152.7670  138.2152  154.3555 H   0  0  0  0  0  0  0  0  0  0  0  0
  151.3372  137.9979  153.3871 H   0  0  0  0  0  0  0  0  0  0  0  0
  151.7973  140.3384  154.2071 H   0  0  0  0  0  0  0  0  0  0  0  0
  149.1948  137.9988  153.6628 H   0  0  0  0  0  0  0  0  0  0  0  0
  146.8098  139.2751  153.3350 H   0  0  0  0  0  0  0  0  0  0  0  0
  147.3273  141.8189  154.3077 H   0  0  0  0  0  0  0  0  0  0  0  0
  1  2  3  0  0  0  0
  2  3  1  0  0  0  0
  3  4  1  0  0  0  0
  3 18  1  0  0  0  0
  3 19  1  0  0  0  0
  4  5  1  0  0  0  0
  4 20  1  0  0  0  0
  4 21  1  0  0  0  0
  5  6  1  0  0  0  0
  5 22  1  0  0  0  0
  5 23  1  0  0  0  0
  6  7  1  0  0  0  0
  6 24  1  0  0  0  0
  7 12  1  0  0  0  0
  7  8  1  0  0  0  0
  7 25  1  0  0  0  0
  8  9  1  0  0  0  0
  8 26  1  0  0  0  0
  8 27  1  0  0  0  0
  9 10  1  0  0  0  0
  9 28  1  0  0  0  0
  9 29  1  0  0  0  0
 10 11  1  0  0  0  0
 10 30  1  0  0  0  0
 10 31  1  0  0  0  0
 11 12  1  0  0  0  0
 11 32  1  0  0  0  0
 11 33  1  0  0  0  0
 12 13  1  0  0  0  0
 12 34  1  0  0  0  0
 13 17  1  0  0  0  0
 13 14  1  0  0  0  0
 14 15  2  0  0  0  0
 14 35  1  0  0  0  0
 15 16  1  0  0  0  0
 15 36  1  0  0  0  0
 16 17  2  0  0  0  0
 16 37  1  0  0  0  0
M  END
> <s_m_source_file>
AV-unprocessed.smi

> <i_m_source_file_index>
3185

> <i_lp_mmshare_version>
43012

> <i_f3d_flags>
0

> <s_epik_input>
TiNDW0NIMl1bQ0gyXVtDSDJdW05IXVtDQEBIXTFbQ0gyXVtDSDJdW0NIMl1bQ0gyXVtDQEhdMW4yW2NIXVtjSF1bY0hdbjI=

> <s_epik_cmdline>
J2VwaWtfcHl0aG9uJywgJy1waCcsICc3LjAnLCAnLXRuJywgJzgnLCAnLW1hJywgJzIwMCcsICctbWV0YWxfYmluZGluZycsICctaW1hZScsICc8aW5maWxlLm1hZT4nLCAnLW9tYWUnLCAnPG91dGZpbGUubWFlPic=

> <r_lp_tautomer_probability>
1

> <r_epik_Ionization_Penalty>
2.21326

> <r_epik_Ionization_Penalty_Charging>
0

> <r_epik_Ionization_Penalty_Neutral>
2.21326

> <r_epik_State_Penalty>
2.35651

> <r_epik_Charging_Adjusted_Penalty>
2.35651

> <i_epik_Tot_Q>
0

> <i_epik_Tot_abs_Q>
0

> <r_epik_Metal_State_Penalty>
2.3555

> <b_epik_Metal_Only>
0

> <s_lp_Force_Field>
OPLS_2005

> <r_lp_Energy>
19.4285

> <b_lp_Chiralities_Consistent>
1

> <s_lp_Variant>
AV-unprocessed.smi:3185-6

> <Gold.Version>
5.8.1

> <Gold.Id.Protein>
6NUR|6NUR_protein|mol2

> <Gold.PLP.Fitness>
36.8224

> <Gold.PLP.PLP>
-34.4132

> <Gold.PLP.part.hbond>
-1.9806

> <Gold.PLP.part.metal>
0.0000

> <Gold.PLP.part.buried>
-0.6331

> <Gold.PLP.part.nonpolar>
-31.4999

> <Gold.PLP.part.repulsive>
0.3605

> <Gold.PLP.ligand.clash>
0.0000

> <Gold.PLP.ligand.torsion>
0.3064

> <Gold.PLP.Chemscore.Hbond>
0.0000

> <Gold.PLP.Chemscore.CHOScore>
0.9704

> <Gold.PLP.Chemscore.Metal>
0.0000

> <Gold.Chemscore.Hbonds>
donor molecule, donor type, donor heavy atom, donor atom, acceptor molecule, acceptor atom, score
      L1  C    14    35       P1  7948  1.00

> <Gold.PLP.Chemscore.Internal.Correction>
0.1107

> <Gold.Rescore>
     Score         DG    S(hbond)    S(metal)    S(lipo)     H(rot)  DE(clash)    DE(int)     intcor
      8.32     -10.73       0.00        0.00      84.47       1.81       0.68       1.72       ----

> <Gold.Chemscore.Fitness>
8.3196

> <Gold.Chemscore.DG>
-10.7265

> <Gold.Chemscore.ZeroCoef>
-5.4800

> <Gold.Chemscore.Hbond>
0.0000

> <Gold.Chemscore.Metal>
0.0000

> <Gold.Chemscore.Lipo>
84.4677

> <Gold.Chemscore.Internal_Hbond>
0.0000

> <Gold.Chemscore.DEClash>
0.6839

> <Gold.Chemscore.DEInternal>
1.7230

> <Gold.Chemscore.Rot>
1.8110

> <Gold.Chemscore.Internal.Correction>
   9.000000E+99

> <Gold.Chemscore.Hbond.Weighted>
-0.0000

> <Gold.Chemscore.Metal.Weighted>
-0.0000

> <Gold.Chemscore.Lipo.Weighted>
-9.8827

> <Gold.Chemscore.Internal_Hbond.Weighted>
0.0000

> <Gold.Chemscore.DEClash.Weighted>
0.6839

> <Gold.Chemscore.DEInternal.Weighted>
1.7230

> <Gold.Chemscore.Rot.Weighted>
4.6362

> <Gold.Chemscore.Internal.Correction.Weighted>
   9.000000E+99

> <Gold.Protein.RotatedTorsions>
[ 6907 6896 6895 6894 ] final -134.26 input  -60.11 | X-H torsion
[ 7974 7965 7964 7962 ] final  -85.90 input  175.53 | X-H torsion
[ 8008 7997 7996 7995 ] final  -94.15 input   59.86 | X-H torsion
[ 10167 10162 10161 10158 ] final  -89.82 input  -65.29 | X-H torsion
[ 10718 10713 10712 10709 ] final -164.25 input   66.30 | X-H torsion
[ 10763 10752 10751 10750 ] final  125.82 input  -60.55 | X-H torsion
[ 11005 11000 10999 10996 ] final  106.37 input  -57.11 | X-H torsion

> <Gold.Protein.ActiveResidues>
 VAL166  LYS551  ARG553  GLY616  TRP617  ASP618  TYR619  PRO620  LYS621  CYS622 
 ASP623  PHE694  ASN695  SER759  ASP760  ASP761  ALA762  ILE779  LEU786  VAL792 
 PHE793  MET794  SER795  GLU796  ALA797  LYS798  CYS799  TRP800  GLU811  SER814 

> <Gold.Protein.RotatedAtoms>
  150.9838  133.6218  159.2718 H   0  0  0  0  0  0  0  0  0  0  0  0  # atno 6907 bound_to 6896
  151.3464  135.0874  159.9398 H   0  0  0  0  0  0  0  0  0  0  0  0  # atno 6908 bound_to 6896
  152.5224  133.9439  159.7694 H   0  0  0  0  0  0  0  0  0  0  0  0  # atno 6909 bound_to 6896
  145.4871  140.9554  143.1832 H   0  0  0  0  0  0  0  0  0  0  0  0  # atno 7974 bound_to 7965
  154.7448  140.0492  157.0842 H   0  0  0  0  0  0  0  0  0  0  0  0  # atno 8008 bound_to 7997
  155.0132  140.3138  155.4802 H   0  0  0  0  0  0  0  0  0  0  0  0  # atno 8009 bound_to 7997
  156.2872  140.2180  156.5248 H   0  0  0  0  0  0  0  0  0  0  0  0  # atno 8010 bound_to 7997
  140.3611  143.2842  151.9614 H   0  0  0  0  0  0  0  0  0  0  0  0  # atno 10167 bound_to 10162
  156.6363  130.8950  151.2987 H   0  0  0  0  0  0  0  0  0  0  0  0  # atno 10718 bound_to 10713
  153.6834  135.3310  155.3184 H   0  0  0  0  0  0  0  0  0  0  0  0  # atno 10763 bound_to 10752
  154.8459  135.4414  154.1583 H   0  0  0  0  0  0  0  0  0  0  0  0  # atno 10764 bound_to 10752
  153.2605  135.6990  153.7661 H   0  0  0  0  0  0  0  0  0  0  0  0  # atno 10765 bound_to 10752
  139.8813  134.9367  156.5657 H   0  0  0  0  0  0  0  0  0  0  0  0  # atno 11005 bound_to 11000
  144.7855  139.6435  143.7136 LP  0  0  0  0  0  0  0  0  0  0  0  0  # atno 17320 bound_to 7965
  146.2306  139.5807  142.9557 LP  0  0  0  0  0  0  0  0  0  0  0  0  # atno 17321 bound_to 7965
  139.4814  144.5992  151.7636 LP  0  0  0  0  0  0  0  0  0  0  0  0  # atno 17342 bound_to 10162
  140.5126  144.1001  150.5999 LP  0  0  0  0  0  0  0  0  0  0  0  0  # atno 17343 bound_to 10162
  157.7185  130.9527  150.1345 LP  0  0  0  0  0  0  0  0  0  0  0  0  # atno 17370 bound_to 10713
  156.2194  130.3673  149.8573 LP  0  0  0  0  0  0  0  0  0  0  0  0  # atno 17371 bound_to 10713
  140.8136  133.8409  155.8832 LP  0  0  0  0  0  0  0  0  0  0  0  0  # atno 17394 bound_to 11000
  140.9483  134.1811  157.4746 LP  0  0  0  0  0  0  0  0  0  0  0  0  # atno 17395 bound_to 11000

$$$$
