AV-unprocessed.smi:573|AV-procd|sdf|2970|dock7
  -GOLD-   2262023473D 1   1.00000     0.00000
 Structure written by MMmdl.
 45 47  0  0  0  0  0  0  0  0  2 V2000
  146.8795  141.7397  153.1838 C   0  0  0  0  0  0  0  0  0  0  0  0
  147.9964  140.9840  153.9218 C   0  0  1  0  0  0  0  0  0  0  0  0
  149.2137  141.0995  153.2149 O   0  0  0  0  0  0  0  0  0  0  0  0
  148.1951  141.3815  155.4021 C   0  0  0  0  0  0  0  0  0  0  0  0
  149.3240  140.7241  156.0486 N   0  0  0  0  0  0  0  0  0  0  0  0
  150.2271  141.4745  156.8106 C   0  0  0  0  0  0  0  0  0  0  0  0
  150.3714  142.8261  156.7861 N   0  3  0  0  0  0  0  0  0  0  0  0
  151.3619  143.1796  157.7061 C   0  0  0  0  0  0  0  0  0  0  0  0
  151.8670  144.4269  158.0602 C   0  0  0  0  0  0  0  0  0  0  0  0
  152.8732  144.4462  159.0481 C   0  0  0  0  0  0  0  0  0  0  0  0
  153.3399  143.2573  159.6451 C   0  0  0  0  0  0  0  0  0  0  0  0
  152.8243  141.9969  159.2785 C   0  0  0  0  0  0  0  0  0  0  0  0
  151.8319  141.9825  158.2985 C   0  0  0  0  0  0  0  0  0  0  0  0
  151.1047  140.9445  157.7005 N   0  0  0  0  0  0  0  0  0  0  0  0
  151.3423  139.5490  158.0976 C   0  0  0  0  0  0  0  0  0  0  0  0
  151.8127  138.6888  156.9140 C   0  0  1  0  0  0  0  0  0  0  0  0
  150.6754  137.8339  156.3252 C   0  0  0  0  0  0  0  0  0  0  0  0
  151.1784  137.0333  155.1185 C   0  0  0  0  0  0  0  0  0  0  0  0
  151.8477  137.9764  154.1127 C   0  0  0  0  0  0  0  0  0  0  0  0
  152.9187  138.8304  154.8098 C   0  0  0  0  0  0  0  0  0  0  0  0
  152.3366  139.5415  155.8974 O   0  0  0  0  0  0  0  0  0  0  0  0
  145.9359  141.6731  153.7256 H   0  0  0  0  0  0  0  0  0  0  0  0
  146.7184  141.3226  152.1892 H   0  0  0  0  0  0  0  0  0  0  0  0
  147.1221  142.7948  153.0575 H   0  0  0  0  0  0  0  0  0  0  0  0
  147.7482  139.9224  153.9021 H   0  0  0  0  0  0  0  0  0  0  0  0
  149.8592  140.5547  153.6384 H   0  0  0  0  0  0  0  0  0  0  0  0
  148.4050  142.4504  155.4452 H   0  0  0  0  0  0  0  0  0  0  0  0
  147.2793  141.2354  155.9761 H   0  0  0  0  0  0  0  0  0  0  0  0
  149.2755  139.7259  156.1947 H   0  0  0  0  0  0  0  0  0  0  0  0
  151.5083  145.3402  157.6087 H   0  0  0  0  0  0  0  0  0  0  0  0
  153.2935  145.3924  159.3569 H   0  0  0  0  0  0  0  0  0  0  0  0
  154.1087  143.3122  160.4022 H   0  0  0  0  0  0  0  0  0  0  0  0
  153.1854  141.0949  159.7497 H   0  0  0  0  0  0  0  0  0  0  0  0
  152.0977  139.5537  158.8842 H   0  0  0  0  0  0  0  0  0  0  0  0
  150.4361  139.1424  158.5458 H   0  0  0  0  0  0  0  0  0  0  0  0
  152.6090  138.0308  157.2648 H   0  0  0  0  0  0  0  0  0  0  0  0
  150.2795  137.1569  157.0827 H   0  0  0  0  0  0  0  0  0  0  0  0
  149.8505  138.4780  156.0179 H   0  0  0  0  0  0  0  0  0  0  0  0
  151.8964  136.2818  155.4498 H   0  0  0  0  0  0  0  0  0  0  0  0
  150.3549  136.4958  154.6477 H   0  0  0  0  0  0  0  0  0  0  0  0
  152.2917  137.4054  153.2966 H   0  0  0  0  0  0  0  0  0  0  0  0
  151.0965  138.6290  153.6665 H   0  0  0  0  0  0  0  0  0  0  0  0
  153.7428  138.2106  155.1662 H   0  0  0  0  0  0  0  0  0  0  0  0
  153.3424  139.5483  154.1074 H   0  0  0  0  0  0  0  0  0  0  0  0
  149.8294  143.4505  156.2036 H   0  0  0  0  0  0  0  0  0  0  0  0
  1  2  1  0  0  0  0
  1 22  1  0  0  0  0
  1 23  1  0  0  0  0
  1 24  1  0  0  0  0
  2  3  1  0  0  0  0
  2  4  1  0  0  0  0
  2 25  1  0  0  0  0
  3 26  1  0  0  0  0
  4  5  1  0  0  0  0
  4 27  1  0  0  0  0
  4 28  1  0  0  0  0
  5  6  1  0  0  0  0
  5 29  1  0  0  0  0
  6 14  1  0  0  0  0
  6  7  2  0  0  0  0
  7  8  1  0  0  0  0
  7 45  1  0  0  0  0
  8 13  2  0  0  0  0
  8  9  1  0  0  0  0
  9 10  2  0  0  0  0
  9 30  1  0  0  0  0
 10 11  1  0  0  0  0
 10 31  1  0  0  0  0
 11 12  2  0  0  0  0
 11 32  1  0  0  0  0
 12 13  1  0  0  0  0
 12 33  1  0  0  0  0
 13 14  1  0  0  0  0
 14 15  1  0  0  0  0
 15 16  1  0  0  0  0
 15 34  1  0  0  0  0
 15 35  1  0  0  0  0
 16 21  1  0  0  0  0
 16 17  1  0  0  0  0
 16 36  1  0  0  0  0
 17 18  1  0  0  0  0
 17 37  1  0  0  0  0
 17 38  1  0  0  0  0
 18 19  1  0  0  0  0
 18 39  1  0  0  0  0
 18 40  1  0  0  0  0
 19 20  1  0  0  0  0
 19 41  1  0  0  0  0
 19 42  1  0  0  0  0
 20 21  1  0  0  0  0
 20 43  1  0  0  0  0
 20 44  1  0  0  0  0
M  CHG  1   7   1
M  END
> <s_m_source_file>
AV-unprocessed.smi

> <i_m_source_file_index>
573

> <i_lp_mmshare_version>
43012

> <i_f3d_flags>
0

> <s_epik_input>
W0NIM11bQ0BIXShbT0hdKVtDSDJdW05IXWMobjEpbihjKGMxMilbY0hdW2NIXVtjSF1bY0hdMilbQ0gyXVtDQEBIXTNbQ0gyXVtDSDJdW0NIMl1bQ0gyXU8z

> <s_epik_cmdline>
J2VwaWtfcHl0aG9uJywgJy1waCcsICc3LjAnLCAnLXRuJywgJzgnLCAnLW1hJywgJzIwMCcsICctbWV0YWxfYmluZGluZycsICctaW1hZScsICc8aW5maWxlLm1hZT4nLCAnLW9tYWUnLCAnPG91dGZpbGUubWFlPic=

> <r_epik_Ionization_Penalty>
0.0692245

> <r_epik_Ionization_Penalty_Charging>
0.0692223

> <r_epik_Ionization_Penalty_Neutral>
2.1869e-06

> <r_epik_State_Penalty>
0.0606215

> <r_epik_Charging_Adjusted_Penalty>
0.129844

> <i_epik_Tot_Q>
1

> <i_epik_Tot_abs_Q>
1

> <r_epik_Metal_State_Penalty>
2.77811

> <b_epik_Metal_Only>
0

> <s_lp_Force_Field>
OPLS_2005

> <r_lp_Energy>
24.0167

> <b_lp_Chiralities_Consistent>
1

> <s_lp_Variant>
AV-unprocessed.smi:573-4

> <Gold.Version>
5.8.1

> <Gold.Id.Protein>
6NUR|6NUR_protein|mol2

> <Gold.PLP.Fitness>
53.5365

> <Gold.PLP.PLP>
-45.2185

> <Gold.PLP.part.hbond>
-4.0394

> <Gold.PLP.part.metal>
0.0000

> <Gold.PLP.part.buried>
-7.8026

> <Gold.PLP.part.nonpolar>
-33.7682

> <Gold.PLP.part.repulsive>
0.0835

> <Gold.PLP.ligand.clash>
0.0000

> <Gold.PLP.ligand.torsion>
0.6738

> <Gold.PLP.Chemscore.Hbond>
3.2149

> <Gold.PLP.Chemscore.CHOScore>
0.0000

> <Gold.PLP.Chemscore.Metal>
0.0000

> <Gold.Chemscore.Hbonds>
donor molecule, donor type, donor heavy atom, donor atom, acceptor molecule, acceptor atom, score
      L1  H     7    45       P1  8028  2.00
      P1  H  7997  8008       L1    21  0.21
      P1  H  8011  8017       L1     3  1.00

> <Gold.PLP.Chemscore.Internal.Correction>
0.0209

> <Gold.Rescore>
     Score         DG    S(hbond)    S(metal)    S(lipo)     H(rot)  DE(clash)    DE(int)     intcor
     19.36     -20.52       1.87        0.00     120.30       2.07       0.35       0.81       ----

> <Gold.Chemscore.Fitness>
19.3625

> <Gold.Chemscore.DG>
-20.5151

> <Gold.Chemscore.ZeroCoef>
-5.4800

> <Gold.Chemscore.Hbond>
1.8739

> <Gold.Chemscore.Metal>
0.0000

> <Gold.Chemscore.Lipo>
120.3031

> <Gold.Chemscore.Internal_Hbond>
0.0000

> <Gold.Chemscore.DEClash>
0.3467

> <Gold.Chemscore.DEInternal>
0.8059

> <Gold.Chemscore.Rot>
2.0699

> <Gold.Chemscore.Internal.Correction>
   9.000000E+99

> <Gold.Chemscore.Hbonds>
donor molecule, donor type, donor heavy atom, donor atom, acceptor molecule, acceptor atom, score
      L1  H     7    45       P1  8028  1.00
      P1  H  8011  8017       L1     3  0.94

> <Gold.Chemscore.Hbond.Weighted>
-6.2587

> <Gold.Chemscore.Metal.Weighted>
-0.0000

> <Gold.Chemscore.Lipo.Weighted>
-14.0755

> <Gold.Chemscore.Internal_Hbond.Weighted>
0.0000

> <Gold.Chemscore.DEClash.Weighted>
0.3467

> <Gold.Chemscore.DEInternal.Weighted>
0.8059

> <Gold.Chemscore.Rot.Weighted>
5.2991

> <Gold.Chemscore.Internal.Correction.Weighted>
   9.000000E+99

> <Gold.Protein.RotatedTorsions>
[ 6907 6896 6895 6894 ] final  -34.44 input  -60.11 | X-H torsion
[ 7974 7965 7964 7962 ] final -175.03 input  175.53 | X-H torsion
[ 8008 7997 7996 7995 ] final  -61.99 input   59.86 | X-H torsion
[ 10167 10162 10161 10158 ] final   32.00 input  -65.29 | X-H torsion
[ 10718 10713 10712 10709 ] final  -50.38 input   66.30 | X-H torsion
[ 10763 10752 10751 10750 ] final   30.27 input  -60.55 | X-H torsion
[ 11005 11000 10999 10996 ] final  140.02 input  -57.11 | X-H torsion

> <Gold.Protein.ActiveResidues>
 VAL166  LYS551  ARG553  GLY616  TRP617  ASP618  TYR619  PRO620  LYS621  CYS622 
 ASP623  PHE694  ASN695  SER759  ASP760  ASP761  ALA762  ILE779  LEU786  VAL792 
 PHE793  MET794  SER795  GLU796  ALA797  LYS798  CYS799  TRP800  GLU811  SER814 

> <Gold.Protein.RotatedAtoms>
  151.0526  134.9683  159.8218 H   0  0  0  0  0  0  0  0  0  0  0  0  # atno 6907 bound_to 6896
  152.5383  134.2518  159.8912 H   0  0  0  0  0  0  0  0  0  0  0  0  # atno 6908 bound_to 6896
  151.2535  133.4295  159.2646 H   0  0  0  0  0  0  0  0  0  0  0  0  # atno 6909 bound_to 6896
  144.7129  140.1382  143.6393 H   0  0  0  0  0  0  0  0  0  0  0  0  # atno 7974 bound_to 7965
  154.4476  140.1006  156.6517 H   0  0  0  0  0  0  0  0  0  0  0  0  # atno 8008 bound_to 7997
  155.5390  140.3483  155.4424 H   0  0  0  0  0  0  0  0  0  0  0  0  # atno 8009 bound_to 7997
  156.0610  140.1326  156.9930 H   0  0  0  0  0  0  0  0  0  0  0  0  # atno 8010 bound_to 7997
  140.4538  144.1009  150.6197 H   0  0  0  0  0  0  0  0  0  0  0  0  # atno 10167 bound_to 10162
  156.1806  130.4150  149.9512 H   0  0  0  0  0  0  0  0  0  0  0  0  # atno 10718 bound_to 10713
  153.0381  135.6468  154.1019 H   0  0  0  0  0  0  0  0  0  0  0  0  # atno 10763 bound_to 10752
  154.0730  135.2879  155.3306 H   0  0  0  0  0  0  0  0  0  0  0  0  # atno 10764 bound_to 10752
  154.6581  135.5401  153.8049 H   0  0  0  0  0  0  0  0  0  0  0  0  # atno 10765 bound_to 10752
  140.0297  134.9358  157.0638 H   0  0  0  0  0  0  0  0  0  0  0  0  # atno 11005 bound_to 11000
  145.9226  139.2555  143.1372 LP  0  0  0  0  0  0  0  0  0  0  0  0  # atno 17320 bound_to 7965
  145.9605  140.8839  143.0213 LP  0  0  0  0  0  0  0  0  0  0  0  0  # atno 17321 bound_to 7965
  140.4176  143.2627  151.9756 LP  0  0  0  0  0  0  0  0  0  0  0  0  # atno 17342 bound_to 10162
  139.4799  144.5860  151.7852 LP  0  0  0  0  0  0  0  0  0  0  0  0  # atno 17343 bound_to 10162
  156.7284  130.9034  151.3624 LP  0  0  0  0  0  0  0  0  0  0  0  0  # atno 17370 bound_to 10713
  157.6865  130.9191  150.0401 LP  0  0  0  0  0  0  0  0  0  0  0  0  # atno 17371 bound_to 10713
  140.4246  134.1844  155.7165 LP  0  0  0  0  0  0  0  0  0  0  0  0  # atno 17394 bound_to 11000
  141.1824  133.8386  157.1212 LP  0  0  0  0  0  0  0  0  0  0  0  0  # atno 17395 bound_to 11000

$$$$
