AV-unprocessed.smi:2545|AV-procd|sdf|9995|dock1
  -GOLD-   2272014 43D 1   1.00000     0.00000
 Structure written by MMmdl.
 27 28  0  0  0  0  0  0  0  0  2 V2000
  149.1992  138.1762  154.0050 N   0  0  0  0  0  0  0  0  0  0  0  0
  149.0404  139.5348  154.2848 C   0  0  0  0  0  0  0  0  0  0  0  0
  148.0684  140.2777  153.5806 C   0  0  0  0  0  0  0  0  0  0  0  0
  147.9089  141.6490  153.8635 C   0  0  0  0  0  0  0  0  0  0  0  0
  148.6834  142.2358  154.8004 N   0  3  0  0  0  0  0  0  0  0  0  0
  149.6245  141.5636  155.4975 C   0  0  0  0  0  0  0  0  0  0  0  0
  149.8367  140.1838  155.2632 C   0  0  0  0  0  0  0  0  0  0  0  0
  150.8129  139.4711  155.9788 N   0  0  0  0  0  0  0  0  0  0  0  0
  151.9212  139.0102  155.1521 C   0  0  0  0  0  0  0  0  0  0  0  0
  152.8690  138.1305  155.9861 C   0  0  0  0  0  0  0  0  0  0  0  0
  153.3077  138.8562  157.1312 O   0  0  0  0  0  0  0  0  0  0  0  0
  152.2222  139.2328  157.9740 C   0  0  0  0  0  0  0  0  0  0  0  0
  151.2577  140.1428  157.1937 C   0  0  0  0  0  0  0  0  0  0  0  0
  149.8825  137.6086  154.4856 H   0  0  0  0  0  0  0  0  0  0  0  0
  148.6293  137.7165  153.3088 H   0  0  0  0  0  0  0  0  0  0  0  0
  147.4502  139.8049  152.8312 H   0  0  0  0  0  0  0  0  0  0  0  0
  147.1908  142.2890  153.3716 H   0  0  0  0  0  0  0  0  0  0  0  0
  150.1776  142.1482  156.2181 H   0  0  0  0  0  0  0  0  0  0  0  0
  151.5387  138.4452  154.3012 H   0  0  0  0  0  0  0  0  0  0  0  0
  152.4685  139.8656  154.7538 H   0  0  0  0  0  0  0  0  0  0  0  0
  152.3743  137.2079  156.2943 H   0  0  0  0  0  0  0  0  0  0  0  0
  153.7367  137.8437  155.3918 H   0  0  0  0  0  0  0  0  0  0  0  0
  151.7077  138.3434  158.3418 H   0  0  0  0  0  0  0  0  0  0  0  0
  152.6132  139.7580  158.8455 H   0  0  0  0  0  0  0  0  0  0  0  0
  151.7591  141.0777  156.9399 H   0  0  0  0  0  0  0  0  0  0  0  0
  150.3967  140.3945  157.8141 H   0  0  0  0  0  0  0  0  0  0  0  0
  148.5529  143.2299  154.9904 H   0  0  0  0  0  0  0  0  0  0  0  0
  1  2  1  0  0  0  0
  1 14  1  0  0  0  0
  1 15  1  0  0  0  0
  2  7  1  0  0  0  0
  2  3  2  0  0  0  0
  3  4  1  0  0  0  0
  3 16  1  0  0  0  0
  4  5  2  0  0  0  0
  4 17  1  0  0  0  0
  5  6  1  0  0  0  0
  5 27  1  0  0  0  0
  6  7  2  0  0  0  0
  6 18  1  0  0  0  0
  7  8  1  0  0  0  0
  8 13  1  0  0  0  0
  8  9  1  0  0  0  0
  9 10  1  0  0  0  0
  9 19  1  0  0  0  0
  9 20  1  0  0  0  0
 10 11  1  0  0  0  0
 10 21  1  0  0  0  0
 10 22  1  0  0  0  0
 11 12  1  0  0  0  0
 12 13  1  0  0  0  0
 12 23  1  0  0  0  0
 12 24  1  0  0  0  0
 13 25  1  0  0  0  0
 13 26  1  0  0  0  0
M  CHG  1   5   1
M  END
> <s_m_source_file>
AV-unprocessed.smi

> <i_m_source_file_index>
2545

> <i_lp_mmshare_version>
43012

> <i_f3d_flags>
0

> <s_epik_input>
W05IMl1jMVtjSF1bY0hdbltjSF1jMU4yW0NIMl1bQ0gyXU9bQ0gyXVtDSDJdMg==

> <s_epik_cmdline>
J2VwaWtfcHl0aG9uJywgJy1waCcsICc3LjAnLCAnLXRuJywgJzgnLCAnLW1hJywgJzIwMCcsICctbWV0YWxfYmluZGluZycsICctaW1hZScsICc8aW5maWxlLm1hZT4nLCAnLW9tYWUnLCAnPG91dGZpbGUubWFlPic=

> <r_lp_tautomer_probability>
1

> <r_epik_Ionization_Penalty>
0.0125888

> <r_epik_Ionization_Penalty_Charging>
0.0125847

> <r_epik_Ionization_Penalty_Neutral>
4.08722e-06

> <r_epik_State_Penalty>
0.00974947

> <r_epik_Charging_Adjusted_Penalty>
0.0223342

> <i_epik_Tot_Q>
1

> <i_epik_Tot_abs_Q>
1

> <r_epik_Metal_State_Penalty>
1.6989

> <b_epik_Metal_Only>
0

> <s_lp_Force_Field>
OPLS_2005

> <r_lp_Energy>
29.9348

> <b_lp_Chiralities_Consistent>
1

> <s_lp_Variant>
AV-unprocessed.smi:2545-1

> <Gold.Version>
5.8.1

> <Gold.Id.Protein>
6NUR|6NUR_protein|mol2

> <Gold.PLP.Fitness>
33.3682

> <Gold.PLP.PLP>
-23.0064

> <Gold.PLP.part.hbond>
-3.0341

> <Gold.PLP.part.metal>
0.0000

> <Gold.PLP.part.buried>
0.3208

> <Gold.PLP.part.nonpolar>
-20.7432

> <Gold.PLP.part.repulsive>
0.2547

> <Gold.PLP.ligand.clash>
0.0000

> <Gold.PLP.ligand.torsion>
0.2816

> <Gold.PLP.Chemscore.Hbond>
3.6027

> <Gold.PLP.Chemscore.CHOScore>
0.0000

> <Gold.PLP.Chemscore.Metal>
0.0000

> <Gold.Chemscore.Hbonds>
donor molecule, donor type, donor heavy atom, donor atom, acceptor molecule, acceptor atom, score
      L1  H     1    15       P1  7948  0.59
      L1  H     5    27       P1  8028  2.00
      P1  H  7997  8008       L1    11  0.99

> <Gold.PLP.Chemscore.Internal.Correction>
0.1170

> <Gold.Rescore>
     Score         DG    S(hbond)    S(metal)    S(lipo)     H(rot)  DE(clash)    DE(int)     intcor
     16.80     -17.67       2.27        0.00      61.33       1.00       0.53       0.34       ----

> <Gold.Chemscore.Fitness>
16.7993

> <Gold.Chemscore.DG>
-17.6709

> <Gold.Chemscore.ZeroCoef>
-5.4800

> <Gold.Chemscore.Hbond>
2.2680

> <Gold.Chemscore.Metal>
0.0000

> <Gold.Chemscore.Lipo>
61.3329

> <Gold.Chemscore.Internal_Hbond>
0.0000

> <Gold.Chemscore.DEClash>
0.5283

> <Gold.Chemscore.DEInternal>
0.3434

> <Gold.Chemscore.Rot>
1.0000

> <Gold.Chemscore.Internal.Correction>
   9.000000E+99

> <Gold.Chemscore.Hbonds>
donor molecule, donor type, donor heavy atom, donor atom, acceptor molecule, acceptor atom, score
      L1  H     1    15       P1  7948  0.59
      L1  H     5    27       P1  8028  0.99
      P1  H  7997  8008       L1    11  0.46

> <Gold.Chemscore.Hbond.Weighted>
-7.5750

> <Gold.Chemscore.Metal.Weighted>
-0.0000

> <Gold.Chemscore.Lipo.Weighted>
-7.1759

> <Gold.Chemscore.Internal_Hbond.Weighted>
0.0000

> <Gold.Chemscore.DEClash.Weighted>
0.5283

> <Gold.Chemscore.DEInternal.Weighted>
0.3434

> <Gold.Chemscore.Rot.Weighted>
2.5600

> <Gold.Chemscore.Internal.Correction.Weighted>
   9.000000E+99

> <Gold.Protein.RotatedTorsions>
[ 6907 6896 6895 6894 ] final  178.92 input  -60.11 | X-H torsion
[ 7974 7965 7964 7962 ] final  160.87 input  175.53 | X-H torsion
[ 8008 7997 7996 7995 ] final  -51.49 input   59.86 | X-H torsion
[ 10167 10162 10161 10158 ] final  -65.85 input  -65.29 | X-H torsion
[ 10718 10713 10712 10709 ] final  -15.16 input   66.30 | X-H torsion
[ 10763 10752 10751 10750 ] final  -14.55 input  -60.55 | X-H torsion
[ 11005 11000 10999 10996 ] final   68.62 input  -57.11 | X-H torsion

> <Gold.Protein.ActiveResidues>
 VAL166  LYS551  ARG553  GLY616  TRP617  ASP618  TYR619  PRO620  LYS621  CYS622 
 ASP623  PHE694  ASN695  SER759  ASP760  ASP761  ALA762  ILE779  LEU786  VAL792 
 PHE793  MET794  SER795  GLU796  ALA797  LYS798  CYS799  TRP800  GLU811  SER814 

> <Gold.Protein.RotatedAtoms>
  151.6800  133.3312  159.3216 H   0  0  0  0  0  0  0  0  0  0  0  0  # atno 6907 bound_to 6896
  150.7827  134.6789  159.6442 H   0  0  0  0  0  0  0  0  0  0  0  0  # atno 6908 bound_to 6896
  152.3889  134.6476  160.0167 H   0  0  0  0  0  0  0  0  0  0  0  0  # atno 6909 bound_to 6896
  144.7714  139.7818  143.6295 H   0  0  0  0  0  0  0  0  0  0  0  0  # atno 7974 bound_to 7965
  154.4084  140.1247  156.4837 H   0  0  0  0  0  0  0  0  0  0  0  0  # atno 8008 bound_to 7997
  155.7059  140.3494  155.4933 H   0  0  0  0  0  0  0  0  0  0  0  0  # atno 8009 bound_to 7997
  155.9343  140.1075  157.1097 H   0  0  0  0  0  0  0  0  0  0  0  0  # atno 8010 bound_to 7997
  140.5699  143.2317  151.6558 H   0  0  0  0  0  0  0  0  0  0  0  0  # atno 10167 bound_to 10162
  156.6057  130.4836  149.6222 H   0  0  0  0  0  0  0  0  0  0  0  0  # atno 10718 bound_to 10713
  153.5300  135.7015  153.5688 H   0  0  0  0  0  0  0  0  0  0  0  0  # atno 10763 bound_to 10752
  153.3700  135.3947  155.1781 H   0  0  0  0  0  0  0  0  0  0  0  0  # atno 10764 bound_to 10752
  154.8685  135.3809  154.4796 H   0  0  0  0  0  0  0  0  0  0  0  0  # atno 10765 bound_to 10752
  139.9701  134.6915  156.0465 H   0  0  0  0  0  0  0  0  0  0  0  0  # atno 11005 bound_to 11000
  146.1864  139.5081  142.9833 LP  0  0  0  0  0  0  0  0  0  0  0  0  # atno 17320 bound_to 7965
  145.6312  141.0304  143.1862 LP  0  0  0  0  0  0  0  0  0  0  0  0  # atno 17321 bound_to 7965
  139.5112  144.3516  152.0646 LP  0  0  0  0  0  0  0  0  0  0  0  0  # atno 17342 bound_to 10162
  140.2653  144.4023  150.6171 LP  0  0  0  0  0  0  0  0  0  0  0  0  # atno 17343 bound_to 10162
  156.2432  130.6863  151.1575 LP  0  0  0  0  0  0  0  0  0  0  0  0  # atno 17370 bound_to 10713
  157.7268  131.0644  150.5894 LP  0  0  0  0  0  0  0  0  0  0  0  0  # atno 17371 bound_to 10713
  141.1380  133.6570  156.3650 LP  0  0  0  0  0  0  0  0  0  0  0  0  # atno 17394 bound_to 11000
  140.5312  134.6211  157.5350 LP  0  0  0  0  0  0  0  0  0  0  0  0  # atno 17395 bound_to 11000

$$$$
