AV-unprocessed.smi:1396|AV-procd|sdf|5674|dock10
  -GOLD-   22720 5303D 1   1.00000     0.00000
 Structure written by MMmdl.
 46 47  0  0  0  0  0  0  0  0  1 V2000
  153.8279  140.9096  160.3181 C   0  0  0  0  0  0  0  0  0  0  0  0
  152.7214  141.1494  159.4046 N   0  0  0  0  0  0  0  0  0  0  0  0
  152.4802  140.4227  158.3039 C   0  0  0  0  0  0  0  0  0  0  0  0
  153.1726  139.4651  157.9599 O   0  0  0  0  0  0  0  0  0  0  0  0
  151.2674  140.8354  157.4611 C   0  0  0  0  0  0  0  0  0  0  0  0
  150.7260  139.7686  156.5870 N   0  0  0  0  0  0  0  0  0  0  0  0
  150.6033  138.5278  157.3599 C   0  0  0  0  0  0  0  0  0  0  0  0
  149.9218  137.4321  156.5220 C   0  0  0  0  0  0  0  0  0  0  0  0
  150.7058  137.1560  155.2319 C   0  0  0  0  0  0  0  0  0  0  0  0
  149.9808  136.1970  154.4043 N   0  0  0  0  0  0  0  0  0  0  0  0
  149.7762  134.9096  154.7167 C   0  0  0  0  0  0  0  0  0  0  0  0
  150.1656  134.3956  155.7650 O   0  0  0  0  0  0  0  0  0  0  0  0
  149.0853  134.2790  153.7518 N   0  0  0  0  0  0  0  0  0  0  0  0
  148.7401  132.9031  153.6675 C   0  0  0  0  0  0  0  0  0  0  0  0
  149.5431  131.9758  154.3614 C   0  0  0  0  0  0  0  0  0  0  0  0
  149.2092  130.6092  154.3171 C   0  0  0  0  0  0  0  0  0  0  0  0
  148.0733  130.2113  153.5846 C   0  0  0  0  0  0  0  0  0  0  0  0
  147.7479  128.8708  153.5467 O   0  0  0  0  0  0  0  0  0  0  0  0
  146.6035  128.4744  152.7986 C   0  0  0  0  0  0  0  0  0  0  0  0
  147.2875  131.0962  152.9231 N   0  0  0  0  0  0  0  0  0  0  0  0
  147.6137  132.4054  152.9678 C   0  0  0  0  0  0  0  0  0  0  0  0
  150.9140  138.4829  154.4830 C   0  0  0  0  0  0  0  0  0  0  0  0
  151.5555  139.5437  155.3939 C   0  0  0  0  0  0  0  0  0  0  0  0
  153.7913  141.6219  161.1422 H   0  0  0  0  0  0  0  0  0  0  0  0
  154.7843  141.0279  159.8071 H   0  0  0  0  0  0  0  0  0  0  0  0
  153.7773  139.9030  160.7351 H   0  0  0  0  0  0  0  0  0  0  0  0
  152.1045  141.9214  159.6135 H   0  0  0  0  0  0  0  0  0  0  0  0
  150.4818  141.1995  158.1259 H   0  0  0  0  0  0  0  0  0  0  0  0
  151.5734  141.6857  156.8499 H   0  0  0  0  0  0  0  0  0  0  0  0
  151.5851  138.1899  157.6966 H   0  0  0  0  0  0  0  0  0  0  0  0
  150.0069  138.7071  158.2553 H   0  0  0  0  0  0  0  0  0  0  0  0
  149.8371  136.5176  157.1101 H   0  0  0  0  0  0  0  0  0  0  0  0
  148.9031  137.7415  156.2820 H   0  0  0  0  0  0  0  0  0  0  0  0
  151.6779  136.7381  155.5005 H   0  0  0  0  0  0  0  0  0  0  0  0
  149.6208  136.5374  153.5248 H   0  0  0  0  0  0  0  0  0  0  0  0
  148.7461  134.8572  152.9971 H   0  0  0  0  0  0  0  0  0  0  0  0
  150.4067  132.3046  154.9211 H   0  0  0  0  0  0  0  0  0  0  0  0
  149.8117  129.8797  154.8379 H   0  0  0  0  0  0  0  0  0  0  0  0
  146.4802  127.3940  152.8730 H   0  0  0  0  0  0  0  0  0  0  0  0
  146.7118  128.7233  151.7418 H   0  0  0  0  0  0  0  0  0  0  0  0
  145.6942  128.9379  153.1842 H   0  0  0  0  0  0  0  0  0  0  0  0
  146.9308  133.0556  152.4441 H   0  0  0  0  0  0  0  0  0  0  0  0
  151.5444  138.3268  153.6069 H   0  0  0  0  0  0  0  0  0  0  0  0
  149.9580  138.8560  154.1121 H   0  0  0  0  0  0  0  0  0  0  0  0
  151.6654  140.4602  154.8148 H   0  0  0  0  0  0  0  0  0  0  0  0
  152.5602  139.2337  155.6868 H   0  0  0  0  0  0  0  0  0  0  0  0
  1  2  1  0  0  0  0
  1 24  1  0  0  0  0
  1 25  1  0  0  0  0
  1 26  1  0  0  0  0
  2  3  1  0  0  0  0
  2 27  1  0  0  0  0
  3  4  2  0  0  0  0
  3  5  1  0  0  0  0
  5  6  1  0  0  0  0
  5 28  1  0  0  0  0
  5 29  1  0  0  0  0
  6 23  1  0  0  0  0
  6  7  1  0  0  0  0
  7  8  1  0  0  0  0
  7 30  1  0  0  0  0
  7 31  1  0  0  0  0
  8  9  1  0  0  0  0
  8 32  1  0  0  0  0
  8 33  1  0  0  0  0
  9 10  1  0  0  0  0
  9 22  1  0  0  0  0
  9 34  1  0  0  0  0
 10 11  1  0  0  0  0
 10 35  1  0  0  0  0
 11 12  2  0  0  0  0
 11 13  1  0  0  0  0
 13 14  1  0  0  0  0
 13 36  1  0  0  0  0
 14 21  1  0  0  0  0
 14 15  2  0  0  0  0
 15 16  1  0  0  0  0
 15 37  1  0  0  0  0
 16 17  2  0  0  0  0
 16 38  1  0  0  0  0
 17 18  1  0  0  0  0
 17 20  1  0  0  0  0
 18 19  1  0  0  0  0
 19 39  1  0  0  0  0
 19 40  1  0  0  0  0
 19 41  1  0  0  0  0
 20 21  2  0  0  0  0
 21 42  1  0  0  0  0
 22 23  1  0  0  0  0
 22 43  1  0  0  0  0
 22 44  1  0  0  0  0
 23 45  1  0  0  0  0
 23 46  1  0  0  0  0
M  END
> <s_m_source_file>
AV-unprocessed.smi

> <i_m_source_file_index>
1396

> <i_lp_mmshare_version>
43012

> <i_f3d_flags>
0

> <s_epik_input>
W0NIM11bTkhdQyg9TylbQ0gyXU4xW0NIMl1bQ0gyXVtDSF0oW0NIMl1bQ0gyXTEpW05IXUMoPU8pW05IXWMyW2NIXVtjSF1jKE9bQ0gzXSluW2NIXTI=

> <s_epik_cmdline>
J2VwaWtfcHl0aG9uJywgJy1waCcsICc3LjAnLCAnLXRuJywgJzgnLCAnLW1hJywgJzIwMCcsICctbWV0YWxfYmluZGluZycsICctaW1hZScsICc8aW5maWxlLm1hZT4nLCAnLW9tYWUnLCAnPG91dGZpbGUubWFlPic=

> <r_lp_tautomer_probability>
1

> <r_epik_Ionization_Penalty>
0.16483

> <r_epik_Ionization_Penalty_Charging>
0

> <r_epik_Ionization_Penalty_Neutral>
0.16483

> <r_epik_State_Penalty>
0.154069

> <r_epik_Charging_Adjusted_Penalty>
0.154069

> <i_epik_Tot_Q>
0

> <i_epik_Tot_abs_Q>
0

> <r_epik_Metal_State_Penalty>
0.158584

> <b_epik_Metal_Only>
0

> <s_lp_Force_Field>
OPLS_2005

> <r_lp_Energy>
15.765

> <b_lp_Chiralities_Consistent>
1

> <s_lp_Variant>
AV-unprocessed.smi:1396-1

> <Gold.Version>
5.8.1

> <Gold.Id.Protein>
6NUR|6NUR_protein|mol2

> <Gold.PLP.Fitness>
43.1332

> <Gold.PLP.PLP>
-35.3512

> <Gold.PLP.part.hbond>
-3.6165

> <Gold.PLP.part.metal>
0.0000

> <Gold.PLP.part.buried>
-3.3157

> <Gold.PLP.part.nonpolar>
-28.6564

> <Gold.PLP.part.repulsive>
0.5563

> <Gold.PLP.ligand.clash>
0.0000

> <Gold.PLP.ligand.torsion>
0.6147

> <Gold.PLP.Chemscore.Hbond>
3.0000

> <Gold.PLP.Chemscore.CHOScore>
0.0000

> <Gold.PLP.Chemscore.Metal>
0.0000

> <Gold.Chemscore.Hbonds>
donor molecule, donor type, donor heavy atom, donor atom, acceptor molecule, acceptor atom, score
      L1  H    10    35       P1  7948  1.00
      L1  H    13    36       P1  7948  1.00
      P1  H  7997  8009       L1     4  1.00

> <Gold.PLP.Chemscore.Internal.Correction>
0.0115

> <Gold.Rescore>
     Score         DG    S(hbond)    S(metal)    S(lipo)     H(rot)  DE(clash)    DE(int)     intcor
     12.90     -16.38       2.36        0.00      68.63       1.96       0.01       3.47       ----

> <Gold.Chemscore.Fitness>
12.8951

> <Gold.Chemscore.DG>
-16.3754

> <Gold.Chemscore.ZeroCoef>
-5.4800

> <Gold.Chemscore.Hbond>
2.3638

> <Gold.Chemscore.Metal>
0.0000

> <Gold.Chemscore.Lipo>
68.6269

> <Gold.Chemscore.Internal_Hbond>
0.0000

> <Gold.Chemscore.DEClash>
0.0098

> <Gold.Chemscore.DEInternal>
3.4706

> <Gold.Chemscore.Rot>
1.9645

> <Gold.Chemscore.Internal.Correction>
   9.000000E+99

> <Gold.Chemscore.Hbonds>
donor molecule, donor type, donor heavy atom, donor atom, acceptor molecule, acceptor atom, score
      L1  H    10    35       P1  7948  0.52
      L1  H    13    36       P1  7948  0.24
      P1  H  7997  8009       L1     4  0.62

> <Gold.Chemscore.Hbond.Weighted>
-7.8951

> <Gold.Chemscore.Metal.Weighted>
-0.0000

> <Gold.Chemscore.Lipo.Weighted>
-8.0294

> <Gold.Chemscore.Internal_Hbond.Weighted>
0.0000

> <Gold.Chemscore.DEClash.Weighted>
0.0098

> <Gold.Chemscore.DEInternal.Weighted>
3.4706

> <Gold.Chemscore.Rot.Weighted>
5.0290

> <Gold.Chemscore.Internal.Correction.Weighted>
   9.000000E+99

> <Gold.Protein.RotatedTorsions>
[ 6907 6896 6895 6894 ] final -128.35 input  -60.11 | X-H torsion
[ 7974 7965 7964 7962 ] final -126.67 input  175.53 | X-H torsion
[ 8008 7997 7996 7995 ] final  178.07 input   59.86 | X-H torsion
[ 10167 10162 10161 10158 ] final   82.26 input  -65.29 | X-H torsion
[ 10718 10713 10712 10709 ] final -122.15 input   66.30 | X-H torsion
[ 10763 10752 10751 10750 ] final   48.98 input  -60.55 | X-H torsion
[ 11005 11000 10999 10996 ] final   -0.96 input  -57.11 | X-H torsion

> <Gold.Protein.ActiveResidues>
 VAL166  LYS551  ARG553  GLY616  TRP617  ASP618  TYR619  PRO620  LYS621  CYS622 
 ASP623  PHE694  ASN695  SER759  ASP760  ASP761  ALA762  ILE779  LEU786  VAL792 
 PHE793  MET794  SER795  GLU796  ALA797  LYS798  CYS799  TRP800  GLU811  SER814 

> <Gold.Protein.RotatedAtoms>
  150.9169  133.6928  159.2841 H   0  0  0  0  0  0  0  0  0  0  0  0  # atno 6907 bound_to 6896
  151.4395  135.1017  159.9676 H   0  0  0  0  0  0  0  0  0  0  0  0  # atno 6908 bound_to 6896
  152.4959  133.8581  159.7291 H   0  0  0  0  0  0  0  0  0  0  0  0  # atno 6909 bound_to 6896
  144.9849  140.7676  143.4589 H   0  0  0  0  0  0  0  0  0  0  0  0  # atno 7974 bound_to 7965
  156.0587  140.1342  156.9967 H   0  0  0  0  0  0  0  0  0  0  0  0  # atno 8008 bound_to 7997
  154.4470  140.0996  156.6555 H   0  0  0  0  0  0  0  0  0  0  0  0  # atno 8009 bound_to 7997
  155.5412  140.3461  155.4449 H   0  0  0  0  0  0  0  0  0  0  0  0  # atno 8010 bound_to 7997
  139.9307  144.6154  150.8348 H   0  0  0  0  0  0  0  0  0  0  0  0  # atno 10167 bound_to 10162
  156.1395  130.6455  150.9749 H   0  0  0  0  0  0  0  0  0  0  0  0  # atno 10718 bound_to 10713
  152.9789  135.5926  154.4015 H   0  0  0  0  0  0  0  0  0  0  0  0  # atno 10763 bound_to 10752
  154.3660  135.2767  155.2295 H   0  0  0  0  0  0  0  0  0  0  0  0  # atno 10764 bound_to 10752
  154.4271  135.6045  153.6100 H   0  0  0  0  0  0  0  0  0  0  0  0  # atno 10765 bound_to 10752
  140.6421  133.9480  155.8332 H   0  0  0  0  0  0  0  0  0  0  0  0  # atno 11005 bound_to 11000
  145.2368  139.2090  143.5014 LP  0  0  0  0  0  0  0  0  0  0  0  0  # atno 17320 bound_to 7965
  146.3417  140.2255  142.8592 LP  0  0  0  0  0  0  0  0  0  0  0  0  # atno 17321 bound_to 7965
  140.7638  143.3232  151.2574 LP  0  0  0  0  0  0  0  0  0  0  0  0  # atno 17342 bound_to 10162
  139.6785  143.9896  152.2795 LP  0  0  0  0  0  0  0  0  0  0  0  0  # atno 17343 bound_to 10162
  157.6563  131.0889  150.7940 LP  0  0  0  0  0  0  0  0  0  0  0  0  # atno 17370 bound_to 10713
  156.8017  130.4923  149.5369 LP  0  0  0  0  0  0  0  0  0  0  0  0  # atno 17371 bound_to 10713
  141.0599  134.0361  157.3672 LP  0  0  0  0  0  0  0  0  0  0  0  0  # atno 17394 bound_to 11000
  139.9076  135.0183  156.7555 LP  0  0  0  0  0  0  0  0  0  0  0  0  # atno 17395 bound_to 11000

$$$$
