AV-unprocessed.smi:2784|AV-procd|sdf|10735|dock2
  -GOLD-   2272015173D 1   1.00000     0.00000
 Structure written by MMmdl.
 31 32  0  0  0  0  0  0  0  0  1 V2000
  150.7048  145.3382  159.3527 C   0  0  0  0  0  0  0  0  0  0  0  0
  150.6659  144.3306  158.3554 O   0  0  0  0  0  0  0  0  0  0  0  0
  151.9467  143.8012  158.0227 C   0  0  1  0  0  0  0  0  0  0  0  0
  152.5753  143.3200  159.3317 C   0  0  0  0  0  0  0  0  0  0  0  0
  151.9774  141.9331  159.5490 C   0  0  0  0  0  0  0  0  0  0  0  0
  151.8792  141.3325  158.1448 C   0  0  0  0  0  0  0  0  0  0  0  0
  151.8206  142.5203  157.1637 C   0  0  1  0  0  0  0  0  0  0  0  0
  150.5945  142.4811  156.3681 N   0  0  0  0  0  0  0  0  0  0  0  0
  150.2437  141.5007  155.5230 C   0  0  0  0  0  0  0  0  0  0  0  0
  150.9626  140.5116  155.3481 O   0  0  0  0  0  0  0  0  0  0  0  0
  149.0265  141.8011  154.9281 N   0  0  0  0  0  0  0  0  0  0  0  0
  148.4406  140.9289  154.1658 C   0  0  0  0  0  0  0  0  0  0  0  0
  148.7767  139.6378  153.7671 N   0  0  0  0  0  0  0  0  0  0  0  0
  147.7847  139.1718  152.9505 C   0  0  0  0  0  0  0  0  0  0  0  0
  146.8641  140.1241  152.8361 C   0  0  0  0  0  0  0  0  0  0  0  0
  147.2379  141.2109  153.5683 O   0  0  0  0  0  0  0  0  0  0  0  0
  149.6989  145.7198  159.5270 H   0  0  0  0  0  0  0  0  0  0  0  0
  151.3349  146.1749  159.0506 H   0  0  0  0  0  0  0  0  0  0  0  0
  151.0818  144.9393  160.2952 H   0  0  0  0  0  0  0  0  0  0  0  0
  152.5820  144.5480  157.5417 H   0  0  0  0  0  0  0  0  0  0  0  0
  153.6558  143.2346  159.2088 H   0  0  0  0  0  0  0  0  0  0  0  0
  152.3901  143.9965  160.1668 H   0  0  0  0  0  0  0  0  0  0  0  0
  152.5717  141.3205  160.2272 H   0  0  0  0  0  0  0  0  0  0  0  0
  150.9788  142.0294  159.9773 H   0  0  0  0  0  0  0  0  0  0  0  0
  152.7673  140.7345  157.9377 H   0  0  0  0  0  0  0  0  0  0  0  0
  151.0199  140.6651  158.0619 H   0  0  0  0  0  0  0  0  0  0  0  0
  152.6897  142.4466  156.5070 H   0  0  0  0  0  0  0  0  0  0  0  0
  149.9705  143.2699  156.4586 H   0  0  0  0  0  0  0  0  0  0  0  0
  149.5951  139.1009  154.0162 H   0  0  0  0  0  0  0  0  0  0  0  0
  147.8455  138.1800  152.5271 H   0  0  0  0  0  0  0  0  0  0  0  0
  145.9297  140.1804  152.2975 H   0  0  0  0  0  0  0  0  0  0  0  0
  1  2  1  0  0  0  0
  1 17  1  0  0  0  0
  1 18  1  0  0  0  0
  1 19  1  0  0  0  0
  2  3  1  0  0  0  0
  3  7  1  0  0  0  0
  3  4  1  0  0  0  0
  3 20  1  0  0  0  0
  4  5  1  0  0  0  0
  4 21  1  0  0  0  0
  4 22  1  0  0  0  0
  5  6  1  0  0  0  0
  5 23  1  0  0  0  0
  5 24  1  0  0  0  0
  6  7  1  0  0  0  0
  6 25  1  0  0  0  0
  6 26  1  0  0  0  0
  7  8  1  0  0  0  0
  7 27  1  0  0  0  0
  8 28  1  0  0  0  0
  8  9  1  0  0  0  0
  9 11  1  0  0  0  0
  9 10  2  0  0  0  0
 11 12  2  0  0  0  0
 12 16  1  0  0  0  0
 12 13  1  0  0  0  0
 13 29  1  0  0  0  0
 13 14  1  0  0  0  0
 14 30  1  0  0  0  0
 14 15  2  0  0  0  0
 15 31  1  0  0  0  0
 15 16  1  0  0  0  0
M  END
> <s_m_source_file>
AV-unprocessed.smi

> <i_m_source_file_index>
2784

> <i_lp_mmshare_version>
43012

> <i_f3d_flags>
0

> <s_epik_input>
W0NIM11PW0NAQEhdMVtDSDJdW0NIMl1bQ0gyXVtDQEhdMVtOSF1DKD1PKVtOSF1jMm5bY0hdW2NIXW8y

> <s_epik_cmdline>
J2VwaWtfcHl0aG9uJywgJy1waCcsICc3LjAnLCAnLXRuJywgJzgnLCAnLW1hJywgJzIwMCcsICctbWV0YWxfYmluZGluZycsICctaW1hZScsICc8aW5maWxlLm1hZT4nLCAnLW9tYWUnLCAnPG91dGZpbGUubWFlPic=

> <r_lp_tautomer_probability>
0.107061

> <r_epik_Ionization_Penalty>
1.29244

> <r_epik_Ionization_Penalty_Charging>
1.29208

> <r_epik_Ionization_Penalty_Neutral>
0.000359742

> <r_epik_State_Penalty>
2.59896

> <r_epik_Charging_Adjusted_Penalty>
3.89105

> <i_epik_Tot_Q>
0

> <i_epik_Tot_abs_Q>
0

> <r_epik_Metal_State_Penalty>
3.62496

> <b_epik_Metal_Only>
0

> <s_lp_Force_Field>
OPLS_2005

> <r_lp_Energy>
46.0915

> <b_lp_Chiralities_Consistent>
1

> <s_lp_Variant>
AV-unprocessed.smi:2784-10

> <Gold.Version>
5.8.1

> <Gold.Id.Protein>
6NUR|6NUR_protein|mol2

> <Gold.PLP.Fitness>
38.8707

> <Gold.PLP.PLP>
-27.1568

> <Gold.PLP.part.hbond>
-3.0000

> <Gold.PLP.part.metal>
0.0000

> <Gold.PLP.part.buried>
-3.1185

> <Gold.PLP.part.nonpolar>
-22.4636

> <Gold.PLP.part.repulsive>
1.3647

> <Gold.PLP.ligand.clash>
0.0000

> <Gold.PLP.ligand.torsion>
0.0536

> <Gold.PLP.Chemscore.Hbond>
1.9360

> <Gold.PLP.Chemscore.CHOScore>
2.0000

> <Gold.PLP.Chemscore.Metal>
0.0000

> <Gold.Chemscore.Hbonds>
donor molecule, donor type, donor heavy atom, donor atom, acceptor molecule, acceptor atom, score
      L1  H     8    28       P1  8028  1.00
      P1  H  7989  7998       L1    10  0.96
      L1  C    14    30       P1  7948  1.00
      L1  C    15    31       P1 10175  1.00

> <Gold.PLP.Chemscore.Internal.Correction>
0.0131

> <Gold.Rescore>
     Score         DG    S(hbond)    S(metal)    S(lipo)     H(rot)  DE(clash)    DE(int)     intcor
     14.30     -16.25       1.50        0.00      78.10       1.32       1.86       0.08       ----

> <Gold.Chemscore.Fitness>
14.3049

> <Gold.Chemscore.DG>
-16.2450

> <Gold.Chemscore.ZeroCoef>
-5.4800

> <Gold.Chemscore.Hbond>
1.5015

> <Gold.Chemscore.Metal>
0.0000

> <Gold.Chemscore.Lipo>
78.1042

> <Gold.Chemscore.Internal_Hbond>
0.0000

> <Gold.Chemscore.DEClash>
1.8591

> <Gold.Chemscore.DEInternal>
0.0810

> <Gold.Chemscore.Rot>
1.3235

> <Gold.Chemscore.Internal.Correction>
   9.000000E+99

> <Gold.Chemscore.Hbonds>
donor molecule, donor type, donor heavy atom, donor atom, acceptor molecule, acceptor atom, score
      L1  H     8    28       P1  8028  0.93
      P1  H  7989  7998       L1    10  0.23

> <Gold.Chemscore.Hbond.Weighted>
-5.0150

> <Gold.Chemscore.Metal.Weighted>
-0.0000

> <Gold.Chemscore.Lipo.Weighted>
-9.1382

> <Gold.Chemscore.Internal_Hbond.Weighted>
0.0000

> <Gold.Chemscore.DEClash.Weighted>
1.8591

> <Gold.Chemscore.DEInternal.Weighted>
0.0810

> <Gold.Chemscore.Rot.Weighted>
3.3882

> <Gold.Chemscore.Internal.Correction.Weighted>
   9.000000E+99

> <Gold.Protein.RotatedTorsions>
[ 6907 6896 6895 6894 ] final   63.65 input  -60.11 | X-H torsion
[ 7974 7965 7964 7962 ] final  176.12 input  175.53 | X-H torsion
[ 8008 7997 7996 7995 ] final  -54.82 input   59.86 | X-H torsion
[ 10167 10162 10161 10158 ] final  158.39 input  -65.29 | X-H torsion
[ 10718 10713 10712 10709 ] final  -97.39 input   66.30 | X-H torsion
[ 10763 10752 10751 10750 ] final   86.99 input  -60.55 | X-H torsion
[ 11005 11000 10999 10996 ] final   50.46 input  -57.11 | X-H torsion

> <Gold.Protein.ActiveResidues>
 VAL166  LYS551  ARG553  GLY616  TRP617  ASP618  TYR619  PRO620  LYS621  CYS622 
 ASP623  PHE694  ASN695  SER759  ASP760  ASP761  ALA762  ILE779  LEU786  VAL792 
 PHE793  MET794  SER795  GLU796  ALA797  LYS798  CYS799  TRP800  GLU811  SER814 

> <Gold.Protein.RotatedAtoms>
  152.4269  134.5850  159.9958 H   0  0  0  0  0  0  0  0  0  0  0  0  # atno 6907 bound_to 6896
  151.5984  133.3353  159.3050 H   0  0  0  0  0  0  0  0  0  0  0  0  # atno 6908 bound_to 6896
  150.8160  134.7378  159.6795 H   0  0  0  0  0  0  0  0  0  0  0  0  # atno 6909 bound_to 6896
  144.7189  140.0049  143.6440 H   0  0  0  0  0  0  0  0  0  0  0  0  # atno 7974 bound_to 7965
  154.4175  140.1167  156.5378 H   0  0  0  0  0  0  0  0  0  0  0  0  # atno 8008 bound_to 7997
  155.6539  140.3496  155.4739 H   0  0  0  0  0  0  0  0  0  0  0  0  # atno 8009 bound_to 7997
  155.9769  140.1152  157.0751 H   0  0  0  0  0  0  0  0  0  0  0  0  # atno 8010 bound_to 7997
  139.4826  144.4829  151.8419 H   0  0  0  0  0  0  0  0  0  0  0  0  # atno 10167 bound_to 10162
  156.0082  130.5192  150.6367 H   0  0  0  0  0  0  0  0  0  0  0  0  # atno 10718 bound_to 10713
  153.1624  135.4560  154.9790 H   0  0  0  0  0  0  0  0  0  0  0  0  # atno 10763 bound_to 10752
  154.7907  135.3219  154.7786 H   0  0  0  0  0  0  0  0  0  0  0  0  # atno 10764 bound_to 10752
  153.8274  135.6941  153.4873 H   0  0  0  0  0  0  0  0  0  0  0  0  # atno 10765 bound_to 10752
  140.1016  134.5074  155.8758 H   0  0  0  0  0  0  0  0  0  0  0  0  # atno 11005 bound_to 11000
  146.0305  139.3331  143.0758 LP  0  0  0  0  0  0  0  0  0  0  0  0  # atno 17320 bound_to 7965
  145.8458  140.9556  143.0775 LP  0  0  0  0  0  0  0  0  0  0  0  0  # atno 17321 bound_to 7965
  140.4306  144.2121  150.5888 LP  0  0  0  0  0  0  0  0  0  0  0  0  # atno 17342 bound_to 10162
  140.4783  143.2388  151.8992 LP  0  0  0  0  0  0  0  0  0  0  0  0  # atno 17343 bound_to 10162
  157.4154  131.0829  151.1181 LP  0  0  0  0  0  0  0  0  0  0  0  0  # atno 17370 bound_to 10713
  157.1799  130.6305  149.5668 LP  0  0  0  0  0  0  0  0  0  0  0  0  # atno 17371 bound_to 10713
  141.2107  133.6698  156.6528 LP  0  0  0  0  0  0  0  0  0  0  0  0  # atno 17394 bound_to 11000
  140.3213  134.8005  157.4254 LP  0  0  0  0  0  0  0  0  0  0  0  0  # atno 17395 bound_to 11000

$$$$
