AV-unprocessed.smi:251|AV-procd|sdf|1934|dock2
  -GOLD-   2262021 53D 1   1.00000     0.00000
 Structure written by MMmdl.
 50 54  0  0  0  0  0  0  0  0  1 V2000
  148.2862  134.6942  153.7767 O   0  0  0  0  0  0  0  0  0  0  0  0
  148.1804  135.1067  155.1248 C   0  0  0  0  0  0  0  0  0  0  0  0
  149.5681  135.4081  155.7606 C   0  0  0  0  0  0  0  0  0  0  0  0
  150.2480  136.6238  155.0626 C   0  0  0  0  0  0  0  0  0  0  0  0
  150.5744  137.7344  155.9464 N   0  0  0  0  0  0  0  0  0  0  0  0
  149.7464  138.7746  156.2997 C   0  0  0  0  0  0  0  0  0  0  0  0
  150.2709  139.6519  157.1097 N   0  0  0  0  0  0  0  0  0  0  0  0
  151.5534  139.1737  157.3573 C   0  0  0  0  0  0  0  0  0  0  0  0
  152.6574  139.6228  158.1436 C   0  0  0  0  0  0  0  0  0  0  0  0
  152.6634  140.7567  158.8933 N   0  0  0  0  0  0  0  0  0  0  0  0
  153.8731  141.2526  159.5426 C   0  0  0  0  0  0  0  0  0  0  0  0
  153.5193  142.6283  160.0521 C   0  0  2  0  0  0  0  0  0  0  0  0
  152.3512  142.8519  160.9914 C   0  0  0  0  0  0  0  0  0  0  0  0
  152.1805  142.9998  159.4937 C   0  0  1  0  0  0  0  0  0  0  0  0
  151.8777  144.3609  158.8800 C   0  0  0  0  0  0  0  0  0  0  0  0
  152.0200  145.3229  159.7919 F   0  0  0  0  0  0  0  0  0  0  0  0
  152.7145  144.5928  157.8690 F   0  0  0  0  0  0  0  0  0  0  0  0
  150.6288  144.4074  158.4155 F   0  0  0  0  0  0  0  0  0  0  0  0
  151.6997  141.8314  158.6568 C   0  0  0  0  0  0  0  0  0  0  0  0
  153.7828  138.8601  158.1226 N   0  0  0  0  0  0  0  0  0  0  0  0
  153.8313  137.7366  157.4024 C   0  0  0  0  0  0  0  0  0  0  0  0
  152.8846  137.1989  156.6334 N   0  0  0  0  0  0  0  0  0  0  0  0
  151.7542  137.9609  156.6352 C   0  0  0  0  0  0  0  0  0  0  0  0
  149.4384  135.7235  157.2720 C   0  0  0  0  0  0  0  0  0  0  0  0
  149.0508  134.4936  158.1125 C   0  0  0  0  0  0  0  0  0  0  0  0
  149.9965  133.4517  157.9099 O   0  0  0  0  0  0  0  0  0  0  0  0
  150.0442  133.0047  156.5615 C   0  0  0  0  0  0  0  0  0  0  0  0
  150.4752  134.1581  155.6365 C   0  0  0  0  0  0  0  0  0  0  0  0
  148.7969  135.3353  153.3060 H   0  0  0  0  0  0  0  0  0  0  0  0
  147.5286  135.9781  155.1489 H   0  0  0  0  0  0  0  0  0  0  0  0
  147.6569  134.3306  155.6831 H   0  0  0  0  0  0  0  0  0  0  0  0
  151.1680  136.3096  154.5676 H   0  0  0  0  0  0  0  0  0  0  0  0
  149.6079  137.0079  154.2672 H   0  0  0  0  0  0  0  0  0  0  0  0
  148.7360  138.8676  155.9284 H   0  0  0  0  0  0  0  0  0  0  0  0
  154.1727  140.6137  160.3735 H   0  0  0  0  0  0  0  0  0  0  0  0
  154.6929  141.3224  158.8267 H   0  0  0  0  0  0  0  0  0  0  0  0
  154.3152  143.3704  160.0581 H   0  0  0  0  0  0  0  0  0  0  0  0
  151.9085  141.9799  161.4691 H   0  0  0  0  0  0  0  0  0  0  0  0
  152.3661  143.7533  161.6004 H   0  0  0  0  0  0  0  0  0  0  0  0
  151.6825  142.1000  157.6002 H   0  0  0  0  0  0  0  0  0  0  0  0
  150.6952  141.5376  158.9630 H   0  0  0  0  0  0  0  0  0  0  0  0
  154.7624  137.1913  157.4486 H   0  0  0  0  0  0  0  0  0  0  0  0
  150.3933  136.0960  157.6461 H   0  0  0  0  0  0  0  0  0  0  0  0
  148.7214  136.5276  157.4397 H   0  0  0  0  0  0  0  0  0  0  0  0
  149.0464  134.7562  159.1704 H   0  0  0  0  0  0  0  0  0  0  0  0
  148.0452  134.1447  157.8760 H   0  0  0  0  0  0  0  0  0  0  0  0
  150.7642  132.1891  156.4929 H   0  0  0  0  0  0  0  0  0  0  0  0
  149.0796  132.5907  156.2667 H   0  0  0  0  0  0  0  0  0  0  0  0
  150.5043  133.8038  154.6055 H   0  0  0  0  0  0  0  0  0  0  0  0
  151.5002  134.4281  155.8937 H   0  0  0  0  0  0  0  0  0  0  0  0
  1  2  1  0  0  0  0
  1 29  1  0  0  0  0
  2  3  1  0  0  0  0
  2 30  1  0  0  0  0
  2 31  1  0  0  0  0
  3 28  1  0  0  0  0
  3  4  1  0  0  0  0
  3 24  1  0  0  0  0
  4  5  1  0  0  0  0
  4 32  1  0  0  0  0
  4 33  1  0  0  0  0
  5 23  1  0  0  0  0
  5  6  1  0  0  0  0
  6  7  2  0  0  0  0
  6 34  1  0  0  0  0
  7  8  1  0  0  0  0
  8 23  2  0  0  0  0
  8  9  1  0  0  0  0
  9 10  1  0  0  0  0
  9 20  2  0  0  0  0
 10 19  1  0  0  0  0
 10 11  1  0  0  0  0
 11 12  1  0  0  0  0
 11 35  1  0  0  0  0
 11 36  1  0  0  0  0
 12 14  1  0  0  0  0
 12 13  1  0  0  0  0
 12 37  1  0  0  0  0
 13 14  1  0  0  0  0
 13 38  1  0  0  0  0
 13 39  1  0  0  0  0
 14 15  1  0  0  0  0
 14 19  1  0  0  0  0
 15 16  1  0  0  0  0
 15 17  1  0  0  0  0
 15 18  1  0  0  0  0
 19 40  1  0  0  0  0
 19 41  1  0  0  0  0
 20 21  1  0  0  0  0
 21 22  2  0  0  0  0
 21 42  1  0  0  0  0
 22 23  1  0  0  0  0
 24 25  1  0  0  0  0
 24 43  1  0  0  0  0
 24 44  1  0  0  0  0
 25 26  1  0  0  0  0
 25 45  1  0  0  0  0
 25 46  1  0  0  0  0
 26 27  1  0  0  0  0
 27 28  1  0  0  0  0
 27 47  1  0  0  0  0
 27 48  1  0  0  0  0
 28 49  1  0  0  0  0
 28 50  1  0  0  0  0
M  END
> <s_m_source_file>
AV-unprocessed.smi

> <i_m_source_file_index>
251

> <i_lp_mmshare_version>
43012

> <i_f3d_flags>
0

> <s_epik_input>
W0NIMl0xW0NIMl1PW0NIMl1bQ0gyXUMxKFtDSDJdW09IXSlbQ0gyXW4oW2NIXW4yKWMoYzIzKW5bY0hdbmMzTihbQ0gyXTQpW0NIMl1bQ0BIXShbQ0gyXTUpW0NAQF00NUMoRikoRilG

> <s_epik_cmdline>
J2VwaWtfcHl0aG9uJywgJy1waCcsICc3LjAnLCAnLXRuJywgJzgnLCAnLW1hJywgJzIwMCcsICctbWV0YWxfYmluZGluZycsICctaW1hZScsICc8aW5maWxlLm1hZT4nLCAnLW9tYWUnLCAnPG91dGZpbGUubWFlPic=

> <r_lp_tautomer_probability>
1

> <r_epik_Ionization_Penalty>
0.00226625

> <r_epik_Ionization_Penalty_Charging>
0

> <r_epik_Ionization_Penalty_Neutral>
0.00226625

> <r_epik_State_Penalty>
0.00138204

> <r_epik_Charging_Adjusted_Penalty>
0.00138204

> <i_epik_Tot_Q>
0

> <i_epik_Tot_abs_Q>
0

> <r_epik_Metal_State_Penalty>
-0

> <b_epik_Metal_Only>
0

> <s_lp_Force_Field>
OPLS_2005

> <r_lp_Energy>
66.9783

> <b_lp_Chiralities_Consistent>
1

> <s_lp_Variant>
AV-unprocessed.smi:251-1

> <Gold.Version>
5.8.1

> <Gold.Id.Protein>
6NUR|6NUR_protein|mol2

> <Gold.PLP.Fitness>
53.5472

> <Gold.PLP.PLP>
-47.6949

> <Gold.PLP.part.hbond>
-3.3710

> <Gold.PLP.part.metal>
0.0000

> <Gold.PLP.part.buried>
-5.2190

> <Gold.PLP.part.nonpolar>
-38.7273

> <Gold.PLP.part.repulsive>
0.0000

> <Gold.PLP.ligand.clash>
0.0000

> <Gold.PLP.ligand.torsion>
2.8244

> <Gold.PLP.Chemscore.Hbond>
3.2394

> <Gold.PLP.Chemscore.CHOScore>
0.0000

> <Gold.PLP.Chemscore.Metal>
0.0000

> <Gold.Chemscore.Hbonds>
donor molecule, donor type, donor heavy atom, donor atom, acceptor molecule, acceptor atom, score
      L1  H     1    29       P1  7948  0.93
      P1  H  6896  6908       L1    26  1.00
      P1  H  7997  8010       L1    20  0.80
      P1  H 10752 10764       L1    22  0.24

> <Gold.PLP.Chemscore.Internal.Correction>
1.7827

> <Gold.Rescore>
     Score         DG    S(hbond)    S(metal)    S(lipo)     H(rot)  DE(clash)    DE(int)     intcor
     14.08     -18.08       2.21        0.00      93.57       2.23       0.34       3.66       ----

> <Gold.Chemscore.Fitness>
14.0762

> <Gold.Chemscore.DG>
-18.0751

> <Gold.Chemscore.ZeroCoef>
-5.4800

> <Gold.Chemscore.Hbond>
2.2057

> <Gold.Chemscore.Metal>
0.0000

> <Gold.Chemscore.Lipo>
93.5736

> <Gold.Chemscore.Internal_Hbond>
0.0000

> <Gold.Chemscore.DEClash>
0.3375

> <Gold.Chemscore.DEInternal>
3.6614

> <Gold.Chemscore.Rot>
2.2344

> <Gold.Chemscore.Internal.Correction>
   9.000000E+99

> <Gold.Chemscore.Hbonds>
donor molecule, donor type, donor heavy atom, donor atom, acceptor molecule, acceptor atom, score
      L1  H     1    29       P1  7948  0.67
      P1  H  6896  6908       L1    26  0.29
      P1  H  7997  8010       L1    20  0.05
      P1  H 10752 10764       L1    22  0.24

> <Gold.Chemscore.Hbond.Weighted>
-7.3670

> <Gold.Chemscore.Metal.Weighted>
-0.0000

> <Gold.Chemscore.Lipo.Weighted>
-10.9481

> <Gold.Chemscore.Internal_Hbond.Weighted>
0.0000

> <Gold.Chemscore.DEClash.Weighted>
0.3375

> <Gold.Chemscore.DEInternal.Weighted>
3.6614

> <Gold.Chemscore.Rot.Weighted>
5.7200

> <Gold.Chemscore.Internal.Correction.Weighted>
   9.000000E+99

> <Gold.Protein.RotatedTorsions>
[ 6907 6896 6895 6894 ] final  107.15 input  -60.11 | X-H torsion
[ 7974 7965 7964 7962 ] final  -91.88 input  175.53 | X-H torsion
[ 8008 7997 7996 7995 ] final   21.53 input   59.86 | X-H torsion
[ 10167 10162 10161 10158 ] final -178.35 input  -65.29 | X-H torsion
[ 10718 10713 10712 10709 ] final  147.40 input   66.30 | X-H torsion
[ 10763 10752 10751 10750 ] final  -22.45 input  -60.55 | X-H torsion
[ 11005 11000 10999 10996 ] final  -89.47 input  -57.11 | X-H torsion

> <Gold.Protein.ActiveResidues>
 VAL166  LYS551  ARG553  GLY616  TRP617  ASP618  TYR619  PRO620  LYS621  CYS622 
 ASP623  PHE694  ASN695  SER759  ASP760  ASP761  ALA762  ILE779  LEU786  VAL792 
 PHE793  MET794  SER795  GLU796  ALA797  LYS798  CYS799  TRP800  GLU811  SER814 

> <Gold.Protein.RotatedAtoms>
  152.5166  133.9277  159.7564 H   0  0  0  0  0  0  0  0  0  0  0  0  # atno 6907 bound_to 6896
  150.9634  133.6412  159.2757 H   0  0  0  0  0  0  0  0  0  0  0  0  # atno 6908 bound_to 6896
  151.3649  135.0916  159.9499 H   0  0  0  0  0  0  0  0  0  0  0  0  # atno 6909 bound_to 6896
  145.4073  140.9542  143.2254 H   0  0  0  0  0  0  0  0  0  0  0  0  # atno 7974 bound_to 7965
  154.9520  140.3067  155.5071 H   0  0  0  0  0  0  0  0  0  0  0  0  # atno 8008 bound_to 7997
  156.2986  140.2317  156.4536 H   0  0  0  0  0  0  0  0  0  0  0  0  # atno 8009 bound_to 7997
  154.8046  140.0432  157.1286 H   0  0  0  0  0  0  0  0  0  0  0  0  # atno 8010 bound_to 7997
  139.5436  144.2295  152.0945 H   0  0  0  0  0  0  0  0  0  0  0  0  # atno 10167 bound_to 10162
  157.3215  131.0905  151.1237 H   0  0  0  0  0  0  0  0  0  0  0  0  # atno 10718 bound_to 10713
  153.6521  135.6980  153.5205 H   0  0  0  0  0  0  0  0  0  0  0  0  # atno 10763 bound_to 10752
  153.2698  135.4218  155.0976 H   0  0  0  0  0  0  0  0  0  0  0  0  # atno 10764 bound_to 10752
  154.8473  135.3575  154.6066 H   0  0  0  0  0  0  0  0  0  0  0  0  # atno 10765 bound_to 10752
  141.1584  133.7632  156.9599 H   0  0  0  0  0  0  0  0  0  0  0  0  # atno 11005 bound_to 11000
  144.8333  139.5592  143.6934 LP  0  0  0  0  0  0  0  0  0  0  0  0  # atno 17320 bound_to 7965
  146.2722  139.6664  142.9288 LP  0  0  0  0  0  0  0  0  0  0  0  0  # atno 17321 bound_to 7965
  140.1778  144.4874  150.6545 LP  0  0  0  0  0  0  0  0  0  0  0  0  # atno 17342 bound_to 10162
  140.6676  143.2274  151.5704 LP  0  0  0  0  0  0  0  0  0  0  0  0  # atno 17343 bound_to 10162
  157.2520  130.6618  149.5935 LP  0  0  0  0  0  0  0  0  0  0  0  0  # atno 17370 bound_to 10713
  155.9686  130.4535  150.5816 LP  0  0  0  0  0  0  0  0  0  0  0  0  # atno 17371 bound_to 10713
  140.1200  134.9423  157.2189 LP  0  0  0  0  0  0  0  0  0  0  0  0  # atno 17394 bound_to 11000
  140.3084  134.3051  155.7272 LP  0  0  0  0  0  0  0  0  0  0  0  0  # atno 17395 bound_to 11000

$$$$
