AV-unprocessed.smi:38|AV-procd|sdf|342|dock3
  -GOLD-   2262016183D 1   1.00000     0.00000
 Structure written by MMmdl.
 28 29  0  0  0  0  0  0  0  0  1 V2000
  153.4889  143.1506  160.0781 O   0  0  0  0  0  0  0  0  0  0  0  0
  152.7867  142.6852  159.1825 C   0  0  0  0  0  0  0  0  0  0  0  0
  152.6907  141.3008  159.0123 N   0  0  0  0  0  0  0  0  0  0  0  0
  151.9320  140.6528  158.0354 C   0  0  0  0  0  0  0  0  0  0  0  0
  151.9356  139.4242  157.9750 O   0  0  0  0  0  0  0  0  0  0  0  0
  151.1952  141.4684  157.1468 N   0  0  0  0  0  0  0  0  0  0  0  0
  150.3415  140.8382  156.0701 C   0  0  2  0  0  0  0  0  0  0  0  0
  149.4645  139.7226  156.6479 C   0  0  0  0  0  0  0  0  0  0  0  0
  150.1379  138.4694  156.1194 C   0  0  1  0  0  0  0  0  0  0  0  0
  149.1941  137.4357  155.9264 O   0  0  0  0  0  0  0  0  0  0  0  0
  150.7520  138.9537  154.8029 C   0  0  2  0  0  0  0  0  0  0  0  0
  151.9481  138.1101  154.3361 C   0  0  0  0  0  0  0  0  0  0  0  0
  151.5714  136.7542  154.2278 O   0  0  0  0  0  0  0  0  0  0  0  0
  151.1868  140.2737  155.1142 O   0  0  0  0  0  0  0  0  0  0  0  0
  151.2619  142.8489  157.2782 C   0  0  0  0  0  0  0  0  0  0  0  0
  152.0037  143.4649  158.2285 C   0  0  0  0  0  0  0  0  0  0  0  0
  152.0175  144.8071  158.2926 F   0  0  0  0  0  0  0  0  0  0  0  0
  153.2165  140.7201  159.6491 H   0  0  0  0  0  0  0  0  0  0  0  0
  149.7607  141.6284  155.5930 H   0  0  0  0  0  0  0  0  0  0  0  0
  150.9144  138.1401  156.8106 H   0  0  0  0  0  0  0  0  0  0  0  0
  149.9773  139.0075  154.0351 H   0  0  0  0  0  0  0  0  0  0  0  0
  149.4038  139.7627  157.7363 H   0  0  0  0  0  0  0  0  0  0  0  0
  148.4600  139.8344  156.2368 H   0  0  0  0  0  0  0  0  0  0  0  0
  149.3926  136.9925  155.1156 H   0  0  0  0  0  0  0  0  0  0  0  0
  152.3435  138.4730  153.3869 H   0  0  0  0  0  0  0  0  0  0  0  0
  152.7561  138.1664  155.0662 H   0  0  0  0  0  0  0  0  0  0  0  0
  151.3621  136.5708  153.3247 H   0  0  0  0  0  0  0  0  0  0  0  0
  150.6992  143.4710  156.5982 H   0  0  0  0  0  0  0  0  0  0  0  0
  1  2  2  0  0  0  0
  2 16  1  0  0  0  0
  2  3  1  0  0  0  0
  3 18  1  0  0  0  0
  3  4  1  0  0  0  0
  4  5  2  0  0  0  0
  4  6  1  0  0  0  0
  6  7  1  0  0  0  0
  6 15  1  0  0  0  0
  7 19  1  0  0  0  0
  7 14  1  0  0  0  0
  7  8  1  0  0  0  0
  8  9  1  0  0  0  0
  8 22  1  0  0  0  0
  8 23  1  0  0  0  0
  9 20  1  0  0  0  0
  9 10  1  0  0  0  0
  9 11  1  0  0  0  0
 10 24  1  0  0  0  0
 11 21  1  0  0  0  0
 11 12  1  0  0  0  0
 11 14  1  0  0  0  0
 12 13  1  0  0  0  0
 12 25  1  0  0  0  0
 12 26  1  0  0  0  0
 13 27  1  0  0  0  0
 15 16  2  0  0  0  0
 15 28  1  0  0  0  0
 16 17  1  0  0  0  0
M  END
> <s_m_source_file>
AV-unprocessed.smi

> <i_m_source_file_index>
38

> <i_lp_mmshare_version>
43012

> <i_f3d_flags>
0

> <s_epik_input>
Tz1jMVtuSF1jKD1PKW4oW2NIXWMxRilbQ0BIXTJbQ0gyXVtDQEhdKFtPSF0pW0NASF0oTzIpW0NIMl1bT0hd

> <s_epik_cmdline>
J2VwaWtfcHl0aG9uJywgJy1waCcsICc3LjAnLCAnLXRuJywgJzgnLCAnLW1hJywgJzIwMCcsICctbWV0YWxfYmluZGluZycsICctaW1hZScsICc8aW5maWxlLm1hZT4nLCAnLW9tYWUnLCAnPG91dGZpbGUubWFlPic=

> <r_lp_tautomer_probability>
0.999537

> <r_epik_Ionization_Penalty>
0.0357432

> <r_epik_Ionization_Penalty_Charging>
0.0357431

> <r_epik_Ionization_Penalty_Neutral>
1.19946e-07

> <r_epik_State_Penalty>
0.0298169

> <r_epik_Charging_Adjusted_Penalty>
0.06556

> <i_epik_Tot_Q>
0

> <i_epik_Tot_abs_Q>
0

> <r_epik_Metal_State_Penalty>
2.348

> <b_epik_Metal_Only>
0

> <s_epik_Chemistry_Notes>
This compound contains an acetal/aminal-like group ( X-CH(R)-Y where X, Y are N, S, or O) that may be acid/base labile, releasing an aldehyde.

> <s_lp_Force_Field>
OPLS_2005

> <r_lp_Energy>
27.0037

> <b_lp_Chiralities_Consistent>
1

> <s_lp_Variant>
AV-unprocessed.smi:38-8

> <Gold.Version>
5.8.1

> <Gold.Id.Protein>
6NUR|6NUR_protein|mol2

> <Gold.PLP.Fitness>
44.1383

> <Gold.PLP.PLP>
-32.6186

> <Gold.PLP.part.hbond>
-3.0000

> <Gold.PLP.part.metal>
0.0000

> <Gold.PLP.part.buried>
-6.2921

> <Gold.PLP.part.nonpolar>
-24.2231

> <Gold.PLP.part.repulsive>
0.1493

> <Gold.PLP.ligand.clash>
0.0000

> <Gold.PLP.ligand.torsion>
0.2447

> <Gold.PLP.Chemscore.Hbond>
3.0000

> <Gold.PLP.Chemscore.CHOScore>
1.0000

> <Gold.PLP.Chemscore.Metal>
0.0000

> <Gold.Chemscore.Hbonds>
donor molecule, donor type, donor heavy atom, donor atom, acceptor molecule, acceptor atom, score
      L1  H    13    27       P1  7949  1.00
      P1  H  7989  7998       L1    14  1.00
      P1  H 10752 10763       L1    13  0.90
      L1  C    15    28       P1  8028  1.00

> <Gold.PLP.Chemscore.Internal.Correction>
0.0092

> <Gold.Rescore>
     Score         DG    S(hbond)    S(metal)    S(lipo)     H(rot)  DE(clash)    DE(int)     intcor
      7.87     -11.26       2.46        0.00      42.82       2.91       0.20       3.18       ----

> <Gold.Chemscore.Fitness>
7.8712

> <Gold.Chemscore.DG>
-11.2583

> <Gold.Chemscore.ZeroCoef>
-5.4800

> <Gold.Chemscore.Hbond>
2.4636

> <Gold.Chemscore.Metal>
0.0000

> <Gold.Chemscore.Lipo>
42.8199

> <Gold.Chemscore.Internal_Hbond>
0.0000

> <Gold.Chemscore.DEClash>
0.2034

> <Gold.Chemscore.DEInternal>
3.1836

> <Gold.Chemscore.Rot>
2.9141

> <Gold.Chemscore.Internal.Correction>
   9.000000E+99

> <Gold.Chemscore.Hbonds>
donor molecule, donor type, donor heavy atom, donor atom, acceptor molecule, acceptor atom, score
      L1  H    13    27       P1  7949  0.74
      P1  H  7989  7998       L1    14  0.29
      P1  H 10752 10763       L1    13  0.15

> <Gold.Chemscore.Hbond.Weighted>
-8.2284

> <Gold.Chemscore.Metal.Weighted>
-0.0000

> <Gold.Chemscore.Lipo.Weighted>
-5.0099

> <Gold.Chemscore.Internal_Hbond.Weighted>
0.0000

> <Gold.Chemscore.DEClash.Weighted>
0.2034

> <Gold.Chemscore.DEInternal.Weighted>
3.1836

> <Gold.Chemscore.Rot.Weighted>
7.4601

> <Gold.Chemscore.Internal.Correction.Weighted>
   9.000000E+99

> <Gold.Protein.RotatedTorsions>
[ 6907 6896 6895 6894 ] final  120.06 input  -60.11 | X-H torsion
[ 7974 7965 7964 7962 ] final -129.92 input  175.53 | X-H torsion
[ 8008 7997 7996 7995 ] final -123.02 input   59.86 | X-H torsion
[ 10167 10162 10161 10158 ] final  -56.62 input  -65.29 | X-H torsion
[ 10718 10713 10712 10709 ] final   96.09 input   66.30 | X-H torsion
[ 10763 10752 10751 10750 ] final   49.39 input  -60.55 | X-H torsion
[ 11005 11000 10999 10996 ] final   90.89 input  -57.11 | X-H torsion

> <Gold.Protein.ActiveResidues>
 VAL166  LYS551  ARG553  GLY616  TRP617  ASP618  TYR619  PRO620  LYS621  CYS622 
 ASP623  PHE694  ASN695  SER759  ASP760  ASP761  ALA762  ILE779  LEU786  VAL792 
 PHE793  MET794  SER795  GLU796  ALA797  LYS798  CYS799  TRP800  GLU811  SER814 

> <Gold.Protein.RotatedAtoms>
  152.4426  133.7476  159.6675 H   0  0  0  0  0  0  0  0  0  0  0  0  # atno 6907 bound_to 6896
  150.8319  133.8066  159.3101 H   0  0  0  0  0  0  0  0  0  0  0  0  # atno 6908 bound_to 6896
  151.5717  135.1064  160.0048 H   0  0  0  0  0  0  0  0  0  0  0  0  # atno 6909 bound_to 6896
  144.9525  140.7359  143.4779 H   0  0  0  0  0  0  0  0  0  0  0  0  # atno 7974 bound_to 7965
  155.1738  140.0409  157.2868 H   0  0  0  0  0  0  0  0  0  0  0  0  # atno 8008 bound_to 7997
  154.6251  140.2510  155.7474 H   0  0  0  0  0  0  0  0  0  0  0  0  # atno 8009 bound_to 7997
  156.2455  140.2887  156.0577 H   0  0  0  0  0  0  0  0  0  0  0  0  # atno 8010 bound_to 7997
  140.6306  143.2458  151.5250 H   0  0  0  0  0  0  0  0  0  0  0  0  # atno 10167 bound_to 10162
  157.6931  131.0567  150.4438 H   0  0  0  0  0  0  0  0  0  0  0  0  # atno 10718 bound_to 10713
  152.9787  135.5913  154.4082 H   0  0  0  0  0  0  0  0  0  0  0  0  # atno 10763 bound_to 10752
  154.3720  135.2767  155.2263 H   0  0  0  0  0  0  0  0  0  0  0  0  # atno 10764 bound_to 10752
  154.4214  135.6058  153.6067 H   0  0  0  0  0  0  0  0  0  0  0  0  # atno 10765 bound_to 10752
  139.8848  134.8641  156.3349 H   0  0  0  0  0  0  0  0  0  0  0  0  # atno 11005 bound_to 11000
  145.2823  139.1914  143.4784 LP  0  0  0  0  0  0  0  0  0  0  0  0  # atno 17320 bound_to 7965
  146.3326  140.2787  142.8609 LP  0  0  0  0  0  0  0  0  0  0  0  0  # atno 17321 bound_to 7965
  139.5521  144.2369  152.1548 LP  0  0  0  0  0  0  0  0  0  0  0  0  # atno 17342 bound_to 10162
  140.1612  144.5024  150.6631 LP  0  0  0  0  0  0  0  0  0  0  0  0  # atno 17343 bound_to 10162
  156.4795  130.4070  149.6470 LP  0  0  0  0  0  0  0  0  0  0  0  0  # atno 17370 bound_to 10713
  156.3521  130.7437  151.2398 LP  0  0  0  0  0  0  0  0  0  0  0  0  # atno 17371 bound_to 10713
  140.9698  133.7335  156.0518 LP  0  0  0  0  0  0  0  0  0  0  0  0  # atno 17394 bound_to 11000
  140.7885  134.3644  157.5470 LP  0  0  0  0  0  0  0  0  0  0  0  0  # atno 17395 bound_to 11000

$$$$
