AV-unprocessed.smi:189|AV-procd|sdf|1488|dock6
  -GOLD-   2262019303D 1   1.00000     0.00000
 Structure written by MMmdl.
 53 57  0  0  0  0  0  0  0  0  1 V2000
  154.5782  138.9403  159.3995 C   0  0  0  0  0  0  0  0  0  0  0  0
  153.2763  139.6683  159.7952 C   0  0  1  0  0  0  0  0  0  0  0  0
  153.5886  141.0197  160.4839 C   0  0  0  0  0  0  0  0  0  0  0  0
  152.6084  141.9910  159.8331 C   0  0  1  0  0  0  0  0  0  0  0  0
  152.9641  143.4819  159.7941 C   0  0  0  0  0  0  0  0  0  0  0  0
  151.8635  144.2406  159.0228 C   0  0  0  0  0  0  0  0  0  0  0  0
  151.5918  143.6289  157.6292 C   0  0  0  0  0  0  0  0  0  0  0  0
  151.3290  142.1092  157.6904 C   0  0  0  0  0  0  0  0  0  0  0  0
  152.4996  141.4281  158.4239 C   0  0  2  0  0  0  0  0  0  0  0  0
  152.3987  139.9964  158.6620 N   0  0  0  0  0  0  0  0  0  0  0  0
  152.2524  139.0997  157.6538 C   0  0  0  0  0  0  0  0  0  0  0  0
  153.1233  139.1033  156.6105 N   0  0  0  0  0  0  0  0  0  0  0  0
  152.9937  138.2144  155.6216 C   0  0  0  0  0  0  0  0  0  0  0  0
  152.0847  137.2473  155.4825 N   0  0  0  0  0  0  0  0  0  0  0  0
  151.2119  137.2347  156.5303 C   0  0  0  0  0  0  0  0  0  0  0  0
  151.2224  138.1186  157.6458 C   0  0  0  0  0  0  0  0  0  0  0  0
  150.1770  137.8079  158.5068 N   0  0  0  0  0  0  0  0  0  0  0  0
  149.5871  136.7930  157.9372 C   0  0  0  0  0  0  0  0  0  0  0  0
  150.1467  136.3786  156.7497 N   0  0  0  0  0  0  0  0  0  0  0  0
  149.6949  135.2767  155.9142 C   0  0  0  0  0  0  0  0  0  0  0  0
  150.0706  133.8867  156.4783 C   0  0  2  0  0  0  0  0  0  0  0  0
  149.5737  133.7780  157.8013 O   0  0  0  0  0  0  0  0  0  0  0  0
  151.5703  133.6035  156.4989 C   0  0  0  0  0  0  0  0  0  0  0  0
  151.6335  132.0970  156.2897 C   0  0  0  0  0  0  0  0  0  0  0  0
  150.6112  131.8756  155.3331 O   0  0  0  0  0  0  0  0  0  0  0  0
  149.5058  132.7165  155.6483 C   0  0  0  0  0  0  0  0  0  0  0  0
  155.2191  138.7956  160.2696 H   0  0  0  0  0  0  0  0  0  0  0  0
  155.1437  139.5108  158.6619 H   0  0  0  0  0  0  0  0  0  0  0  0
  154.3832  137.9534  158.9804 H   0  0  0  0  0  0  0  0  0  0  0  0
  152.7063  139.0455  160.4855 H   0  0  0  0  0  0  0  0  0  0  0  0
  153.4722  140.9734  161.5669 H   0  0  0  0  0  0  0  0  0  0  0  0
  154.6113  141.3360  160.2737 H   0  0  0  0  0  0  0  0  0  0  0  0
  151.6468  141.8758  160.3379 H   0  0  0  0  0  0  0  0  0  0  0  0
  153.0573  143.8768  160.8060 H   0  0  0  0  0  0  0  0  0  0  0  0
  153.9291  143.6268  159.3067 H   0  0  0  0  0  0  0  0  0  0  0  0
  150.9416  144.2213  159.6052 H   0  0  0  0  0  0  0  0  0  0  0  0
  152.1375  145.2909  158.9207 H   0  0  0  0  0  0  0  0  0  0  0  0
  150.7452  144.1327  157.1622 H   0  0  0  0  0  0  0  0  0  0  0  0
  152.4515  143.8155  156.9845 H   0  0  0  0  0  0  0  0  0  0  0  0
  150.3913  141.9126  158.2118 H   0  0  0  0  0  0  0  0  0  0  0  0
  151.2106  141.7208  156.6797 H   0  0  0  0  0  0  0  0  0  0  0  0
  153.4265  141.6156  157.8779 H   0  0  0  0  0  0  0  0  0  0  0  0
  153.7246  138.2874  154.8297 H   0  0  0  0  0  0  0  0  0  0  0  0
  148.7240  136.3107  158.3727 H   0  0  0  0  0  0  0  0  0  0  0  0
  148.6136  135.3572  155.7958 H   0  0  0  0  0  0  0  0  0  0  0  0
  150.1204  135.4066  154.9183 H   0  0  0  0  0  0  0  0  0  0  0  0
  148.7831  134.2918  157.8671 H   0  0  0  0  0  0  0  0  0  0  0  0
  152.0582  134.0910  155.6542 H   0  0  0  0  0  0  0  0  0  0  0  0
  152.0712  133.9361  157.4091 H   0  0  0  0  0  0  0  0  0  0  0  0
  152.6049  131.7606  155.9270 H   0  0  0  0  0  0  0  0  0  0  0  0
  151.4014  131.5606  157.2110 H   0  0  0  0  0  0  0  0  0  0  0  0
  148.7570  132.1451  156.1997 H   0  0  0  0  0  0  0  0  0  0  0  0
  149.0403  133.0524  154.7210 H   0  0  0  0  0  0  0  0  0  0  0  0
  1  2  1  0  0  0  0
  1 27  1  0  0  0  0
  1 28  1  0  0  0  0
  1 29  1  0  0  0  0
  2 10  1  0  0  0  0
  2  3  1  0  0  0  0
  2 30  1  0  0  0  0
  3  4  1  0  0  0  0
  3 31  1  0  0  0  0
  3 32  1  0  0  0  0
  4  9  1  0  0  0  0
  4  5  1  0  0  0  0
  4 33  1  0  0  0  0
  5  6  1  0  0  0  0
  5 34  1  0  0  0  0
  5 35  1  0  0  0  0
  6  7  1  0  0  0  0
  6 36  1  0  0  0  0
  6 37  1  0  0  0  0
  7  8  1  0  0  0  0
  7 38  1  0  0  0  0
  7 39  1  0  0  0  0
  8  9  1  0  0  0  0
  8 40  1  0  0  0  0
  8 41  1  0  0  0  0
  9 10  1  0  0  0  0
  9 42  1  0  0  0  0
 10 11  1  0  0  0  0
 11 16  1  0  0  0  0
 11 12  2  0  0  0  0
 12 13  1  0  0  0  0
 13 14  2  0  0  0  0
 13 43  1  0  0  0  0
 14 15  1  0  0  0  0
 15 19  1  0  0  0  0
 15 16  2  0  0  0  0
 16 17  1  0  0  0  0
 17 18  2  0  0  0  0
 18 19  1  0  0  0  0
 18 44  1  0  0  0  0
 19 20  1  0  0  0  0
 20 21  1  0  0  0  0
 20 45  1  0  0  0  0
 20 46  1  0  0  0  0
 21 26  1  0  0  0  0
 21 22  1  0  0  0  0
 21 23  1  0  0  0  0
 22 47  1  0  0  0  0
 23 24  1  0  0  0  0
 23 48  1  0  0  0  0
 23 49  1  0  0  0  0
 24 25  1  0  0  0  0
 24 50  1  0  0  0  0
 24 51  1  0  0  0  0
 25 26  1  0  0  0  0
 26 52  1  0  0  0  0
 26 53  1  0  0  0  0
M  END
> <s_m_source_file>
AV-unprocessed.smi

> <i_m_source_file_index>
189

> <i_lp_mmshare_version>
43012

> <i_f3d_flags>
0

> <s_epik_input>
W0NIMl0xW0NIMl1bQ0gyXVtDSDJdW0NASF0oW0NASF0xMilOKFtDQEhdKFtDSDNdKVtDSDJdMiljKG5bY0hdbjMpYyhjMzQpbltjSF1uNFtDSDJdW0NAQF01KFtPSF0pW0NIMl1bQ0gyXU9bQ0gyXTU=

> <s_epik_cmdline>
J2VwaWtfcHl0aG9uJywgJy1waCcsICc3LjAnLCAnLXRuJywgJzgnLCAnLW1hJywgJzIwMCcsICctbWV0YWxfYmluZGluZycsICctaW1hZScsICc8aW5maWxlLm1hZT4nLCAnLW9tYWUnLCAnPG91dGZpbGUubWFlPic=

> <r_lp_tautomer_probability>
1

> <r_epik_Ionization_Penalty>
0.00594261

> <r_epik_Ionization_Penalty_Charging>
0

> <r_epik_Ionization_Penalty_Neutral>
0.00594261

> <r_epik_State_Penalty>
0.00429776

> <r_epik_Charging_Adjusted_Penalty>
0.00429776

> <i_epik_Tot_Q>
0

> <i_epik_Tot_abs_Q>
0

> <r_epik_Metal_State_Penalty>
-0

> <b_epik_Metal_Only>
0

> <s_lp_Force_Field>
OPLS_2005

> <r_lp_Energy>
58.0948

> <b_lp_Chiralities_Consistent>
1

> <s_lp_Variant>
AV-unprocessed.smi:189-14

> <Gold.Version>
5.8.1

> <Gold.Id.Protein>
6NUR|6NUR_protein|mol2

> <Gold.PLP.Fitness>
48.9366

> <Gold.PLP.PLP>
-41.1693

> <Gold.PLP.part.hbond>
-3.0000

> <Gold.PLP.part.metal>
0.0000

> <Gold.PLP.part.buried>
-6.6745

> <Gold.PLP.part.nonpolar>
-31.2966

> <Gold.PLP.part.repulsive>
0.0411

> <Gold.PLP.ligand.clash>
0.0000

> <Gold.PLP.ligand.torsion>
0.6464

> <Gold.PLP.Chemscore.Hbond>
2.8882

> <Gold.PLP.Chemscore.CHOScore>
0.0000

> <Gold.PLP.Chemscore.Metal>
0.0000

> <Gold.Chemscore.Hbonds>
donor molecule, donor type, donor heavy atom, donor atom, acceptor molecule, acceptor atom, score
      P1  H  6896  6908       L1    22  1.00
      P1  H  7997  8008       L1    12  1.00
      P1  H 10752 10765       L1    14  0.89

> <Gold.PLP.Chemscore.Internal.Correction>
0.3955

> <Gold.Rescore>
     Score         DG    S(hbond)    S(metal)    S(lipo)     H(rot)  DE(clash)    DE(int)     intcor
     21.21     -21.98       2.53        0.00     113.14       2.03       0.11       0.66       ----

> <Gold.Chemscore.Fitness>
21.2095

> <Gold.Chemscore.DG>
-21.9850

> <Gold.Chemscore.ZeroCoef>
-5.4800

> <Gold.Chemscore.Hbond>
2.5341

> <Gold.Chemscore.Metal>
0.0000

> <Gold.Chemscore.Lipo>
113.1379

> <Gold.Chemscore.Internal_Hbond>
0.0000

> <Gold.Chemscore.DEClash>
0.1121

> <Gold.Chemscore.DEInternal>
0.6633

> <Gold.Chemscore.Rot>
2.0297

> <Gold.Chemscore.Internal.Correction>
   9.000000E+99

> <Gold.Chemscore.Hbonds>
donor molecule, donor type, donor heavy atom, donor atom, acceptor molecule, acceptor atom, score
      P1  H  6896  6908       L1    22  0.88
      P1  H  7997  8008       L1    12  0.80
      P1  H 10752 10765       L1    14  0.56

> <Gold.Chemscore.Hbond.Weighted>
-8.4638

> <Gold.Chemscore.Metal.Weighted>
-0.0000

> <Gold.Chemscore.Lipo.Weighted>
-13.2371

> <Gold.Chemscore.Internal_Hbond.Weighted>
0.0000

> <Gold.Chemscore.DEClash.Weighted>
0.1121

> <Gold.Chemscore.DEInternal.Weighted>
0.6633

> <Gold.Chemscore.Rot.Weighted>
5.1960

> <Gold.Chemscore.Internal.Correction.Weighted>
   9.000000E+99

> <Gold.Protein.RotatedTorsions>
[ 6907 6896 6895 6894 ] final  108.56 input  -60.11 | X-H torsion
[ 7974 7965 7964 7962 ] final  165.03 input  175.53 | X-H torsion
[ 8008 7997 7996 7995 ] final  -44.01 input   59.86 | X-H torsion
[ 10167 10162 10161 10158 ] final   44.48 input  -65.29 | X-H torsion
[ 10718 10713 10712 10709 ] final   28.31 input   66.30 | X-H torsion
[ 10763 10752 10751 10750 ] final -173.61 input  -60.55 | X-H torsion
[ 11005 11000 10999 10996 ] final  -44.08 input  -57.11 | X-H torsion

> <Gold.Protein.ActiveResidues>
 VAL166  LYS551  ARG553  GLY616  TRP617  ASP618  TYR619  PRO620  LYS621  CYS622 
 ASP623  PHE694  ASN695  SER759  ASP760  ASP761  ALA762  ILE779  LEU786  VAL792 
 PHE793  MET794  SER795  GLU796  ALA797  LYS798  CYS799  TRP800  GLU811  SER814 

> <Gold.Protein.RotatedAtoms>
  152.5107  133.9071  159.7469 H   0  0  0  0  0  0  0  0  0  0  0  0  # atno 6907 bound_to 6896
  150.9473  133.6580  159.2785 H   0  0  0  0  0  0  0  0  0  0  0  0  # atno 6908 bound_to 6896
  151.3871  135.0955  159.9567 H   0  0  0  0  0  0  0  0  0  0  0  0  # atno 6909 bound_to 6896
  144.7520  139.8411  143.6363 H   0  0  0  0  0  0  0  0  0  0  0  0  # atno 7974 bound_to 7965
  154.3997  140.1433  156.3613 H   0  0  0  0  0  0  0  0  0  0  0  0  # atno 8008 bound_to 7997
  155.8178  140.3470  155.5475 H   0  0  0  0  0  0  0  0  0  0  0  0  # atno 8009 bound_to 7997
  155.8319  140.0913  157.1778 H   0  0  0  0  0  0  0  0  0  0  0  0  # atno 8010 bound_to 7997
  140.3339  144.2555  150.6164 H   0  0  0  0  0  0  0  0  0  0  0  0  # atno 10167 bound_to 10162
  157.2317  130.7027  149.6317 H   0  0  0  0  0  0  0  0  0  0  0  0  # atno 10718 bound_to 10713
  154.6059  135.2859  155.0485 H   0  0  0  0  0  0  0  0  0  0  0  0  # atno 10763 bound_to 10752
  154.1733  135.6469  153.5019 H   0  0  0  0  0  0  0  0  0  0  0  0  # atno 10764 bound_to 10752
  153.0175  135.5406  154.6795 H   0  0  0  0  0  0  0  0  0  0  0  0  # atno 10765 bound_to 10752
  141.0427  133.6773  156.2822 H   0  0  0  0  0  0  0  0  0  0  0  0  # atno 11005 bound_to 11000
  146.1482  139.4557  143.0066 LP  0  0  0  0  0  0  0  0  0  0  0  0  # atno 17320 bound_to 7965
  145.6912  141.0163  143.1554 LP  0  0  0  0  0  0  0  0  0  0  0  0  # atno 17321 bound_to 7965
  140.5372  143.2231  151.8144 LP  0  0  0  0  0  0  0  0  0  0  0  0  # atno 17342 bound_to 10162
  139.4852  144.4646  151.9499 LP  0  0  0  0  0  0  0  0  0  0  0  0  # atno 17343 bound_to 10162
  155.9675  130.4486  150.5628 LP  0  0  0  0  0  0  0  0  0  0  0  0  # atno 17370 bound_to 10713
  157.3471  131.0727  151.1743 LP  0  0  0  0  0  0  0  0  0  0  0  0  # atno 17371 bound_to 10713
  140.6205  134.5366  157.5547 LP  0  0  0  0  0  0  0  0  0  0  0  0  # atno 17394 bound_to 11000
  139.9288  134.8004  156.0991 LP  0  0  0  0  0  0  0  0  0  0  0  0  # atno 17395 bound_to 11000

$$$$
