AV-unprocessed.smi:1533|AV-procd|sdf|6162|dock7
  -GOLD-   22720 6313D 1   1.00000     0.00000
 Structure written by MMmdl.
 37 39  0  0  0  0  0  0  0  0  1 V2000
  144.5989  144.2507  154.3183 C   0  0  0  0  0  0  0  0  0  0  0  0
  145.5668  143.1260  154.4560 C   0  0  0  0  0  0  0  0  0  0  0  0
  145.2617  142.0301  155.1398 N   0  0  0  0  0  0  0  0  0  0  0  0
  146.4304  141.2596  155.0540 O   0  0  0  0  0  0  0  0  0  0  0  0
  147.2984  141.9868  154.3108 C   0  0  0  0  0  0  0  0  0  0  0  0
  148.6904  141.4762  154.1208 C   0  0  0  0  0  0  0  0  0  0  0  0
  149.4194  141.1432  155.4380 C   0  0  0  0  0  0  0  0  0  0  0  0
  149.8730  142.3402  156.1438 N   0  0  0  0  0  0  0  0  0  0  0  0
  150.5980  142.3511  157.2741 C   0  0  0  0  0  0  0  0  0  0  0  0
  151.0148  141.3254  157.8130 O   0  0  0  0  0  0  0  0  0  0  0  0
  150.8652  143.7341  157.8932 C   0  0  2  0  0  0  0  0  0  0  0  0
  152.3557  144.1582  157.8651 C   0  0  0  0  0  0  0  0  0  0  0  0
  152.6720  144.4305  159.3496 C   0  0  1  0  0  0  0  0  0  0  0  0
  151.9336  145.7040  159.8034 C   0  0  0  0  0  0  0  0  0  0  0  0
  150.4653  145.2403  159.8653 C   0  0  0  0  0  0  0  0  0  0  0  0
  150.5570  143.7712  159.4112 C   0  0  2  0  0  0  0  0  0  0  0  0
  151.8743  143.3410  160.0540 C   0  0  0  0  0  0  0  0  0  0  0  0
  146.8137  143.1611  153.9125 N   0  0  0  0  0  0  0  0  0  0  0  0
  143.5913  143.9330  154.5885 H   0  0  0  0  0  0  0  0  0  0  0  0
  144.5816  144.6114  153.2898 H   0  0  0  0  0  0  0  0  0  0  0  0
  144.8884  145.0747  154.9708 H   0  0  0  0  0  0  0  0  0  0  0  0
  148.6512  140.5898  153.4870 H   0  0  0  0  0  0  0  0  0  0  0  0
  149.2578  142.2246  153.5664 H   0  0  0  0  0  0  0  0  0  0  0  0
  148.7721  140.5431  156.0799 H   0  0  0  0  0  0  0  0  0  0  0  0
  150.2909  140.5241  155.2253 H   0  0  0  0  0  0  0  0  0  0  0  0
  149.5734  143.2286  155.7693 H   0  0  0  0  0  0  0  0  0  0  0  0
  150.2572  144.4725  157.3675 H   0  0  0  0  0  0  0  0  0  0  0  0
  153.0078  143.3745  157.4767 H   0  0  0  0  0  0  0  0  0  0  0  0
  152.5156  145.0431  157.2480 H   0  0  0  0  0  0  0  0  0  0  0  0
  153.7387  144.4402  159.5749 H   0  0  0  0  0  0  0  0  0  0  0  0
  152.2760  146.0226  160.7887 H   0  0  0  0  0  0  0  0  0  0  0  0
  152.0794  146.5355  159.1128 H   0  0  0  0  0  0  0  0  0  0  0  0
  150.0857  145.3066  160.8857 H   0  0  0  0  0  0  0  0  0  0  0  0
  149.8112  145.8359  159.2276 H   0  0  0  0  0  0  0  0  0  0  0  0
  149.6928  143.1752  159.7063 H   0  0  0  0  0  0  0  0  0  0  0  0
  152.1920  142.3314  159.7924 H   0  0  0  0  0  0  0  0  0  0  0  0
  151.8759  143.4384  161.1413 H   0  0  0  0  0  0  0  0  0  0  0  0
  1  2  1  0  0  0  0
  1 19  1  0  0  0  0
  1 20  1  0  0  0  0
  1 21  1  0  0  0  0
  2 18  1  0  0  0  0
  2  3  2  0  0  0  0
  3  4  1  0  0  0  0
  4  5  1  0  0  0  0
  5  6  1  0  0  0  0
  5 18  2  0  0  0  0
  6  7  1  0  0  0  0
  6 22  1  0  0  0  0
  6 23  1  0  0  0  0
  7  8  1  0  0  0  0
  7 24  1  0  0  0  0
  7 25  1  0  0  0  0
  8  9  1  0  0  0  0
  8 26  1  0  0  0  0
  9 10  2  0  0  0  0
  9 11  1  0  0  0  0
 11 16  1  0  0  0  0
 11 12  1  0  0  0  0
 11 27  1  0  0  0  0
 12 13  1  0  0  0  0
 12 28  1  0  0  0  0
 12 29  1  0  0  0  0
 13 17  1  0  0  0  0
 13 14  1  0  0  0  0
 13 30  1  0  0  0  0
 14 15  1  0  0  0  0
 14 31  1  0  0  0  0
 14 32  1  0  0  0  0
 15 16  1  0  0  0  0
 15 33  1  0  0  0  0
 15 34  1  0  0  0  0
 16 17  1  0  0  0  0
 16 35  1  0  0  0  0
 17 36  1  0  0  0  0
 17 37  1  0  0  0  0
M  END
> <s_m_source_file>
AV-unprocessed.smi

> <i_m_source_file_index>
1533

> <i_lp_mmshare_version>
43012

> <i_f3d_flags>
0

> <s_epik_input>
W0NIM11jMW5vYyhuMSlbQ0gyXVtDSDJdW05IXUMoPU8pW0NASF0oW0NIMl1bQ0BASF0yMylbQ0BASF0oW0NIMl0zKVtDSDJdW0NIMl0y

> <s_epik_cmdline>
J2VwaWtfcHl0aG9uJywgJy1waCcsICc3LjAnLCAnLXRuJywgJzgnLCAnLW1hJywgJzIwMCcsICctbWV0YWxfYmluZGluZycsICctaW1hZScsICc8aW5maWxlLm1hZT4nLCAnLW9tYWUnLCAnPG91dGZpbGUubWFlPic=

> <r_lp_tautomer_probability>
1

> <r_epik_Ionization_Penalty>
1.90116e-08

> <r_epik_Ionization_Penalty_Charging>
0

> <r_epik_Ionization_Penalty_Neutral>
1.90116e-08

> <r_epik_State_Penalty>
-0

> <r_epik_Charging_Adjusted_Penalty>
0

> <i_epik_Tot_Q>
0

> <i_epik_Tot_abs_Q>
0

> <r_epik_Metal_State_Penalty>
-0

> <b_epik_Metal_Only>
0

> <s_lp_Force_Field>
OPLS_2005

> <r_lp_Energy>
43.4718

> <b_lp_Chiralities_Consistent>
1

> <s_lp_Variant>
AV-unprocessed.smi:1533-1

> <Gold.Version>
5.8.1

> <Gold.Id.Protein>
6NUR|6NUR_protein|mol2

> <Gold.PLP.Fitness>
42.3564

> <Gold.PLP.PLP>
-39.4065

> <Gold.PLP.part.hbond>
-2.0000

> <Gold.PLP.part.metal>
0.0000

> <Gold.PLP.part.buried>
-2.1681

> <Gold.PLP.part.nonpolar>
-36.0379

> <Gold.PLP.part.repulsive>
1.1404

> <Gold.PLP.ligand.clash>
0.0000

> <Gold.PLP.ligand.torsion>
0.2687

> <Gold.PLP.Chemscore.Hbond>
1.1435

> <Gold.PLP.Chemscore.CHOScore>
0.0000

> <Gold.PLP.Chemscore.Metal>
0.0000

> <Gold.Chemscore.Hbonds>
donor molecule, donor type, donor heavy atom, donor atom, acceptor molecule, acceptor atom, score
      L1  H     8    26       P1  8028  1.00
      P1  H  8022  8030       L1    18  0.04

> <Gold.PLP.Chemscore.Internal.Correction>
0.0567

> <Gold.Rescore>
     Score         DG    S(hbond)    S(metal)    S(lipo)     H(rot)  DE(clash)    DE(int)     intcor
     14.86     -15.75       0.99        0.00     100.12       1.85       0.43       0.46       ----

> <Gold.Chemscore.Fitness>
14.8606

> <Gold.Chemscore.DG>
-15.7503

> <Gold.Chemscore.ZeroCoef>
-5.4800

> <Gold.Chemscore.Hbond>
0.9850

> <Gold.Chemscore.Metal>
0.0000

> <Gold.Chemscore.Lipo>
100.1159

> <Gold.Chemscore.Internal_Hbond>
0.0000

> <Gold.Chemscore.DEClash>
0.4312

> <Gold.Chemscore.DEInternal>
0.4584

> <Gold.Chemscore.Rot>
1.8490

> <Gold.Chemscore.Internal.Correction>
   9.000000E+99

> <Gold.Chemscore.Hbonds>
donor molecule, donor type, donor heavy atom, donor atom, acceptor molecule, acceptor atom, score
      L1  H     8    26       P1  8028  0.99
      P1  H  8022  8030       L1    18  0.04

> <Gold.Chemscore.Hbond.Weighted>
-3.2901

> <Gold.Chemscore.Metal.Weighted>
-0.0000

> <Gold.Chemscore.Lipo.Weighted>
-11.7136

> <Gold.Chemscore.Internal_Hbond.Weighted>
0.0000

> <Gold.Chemscore.DEClash.Weighted>
0.4312

> <Gold.Chemscore.DEInternal.Weighted>
0.4584

> <Gold.Chemscore.Rot.Weighted>
4.7334

> <Gold.Chemscore.Internal.Correction.Weighted>
   9.000000E+99

> <Gold.Protein.RotatedTorsions>
[ 6907 6896 6895 6894 ] final  -43.76 input  -60.11 | X-H torsion
[ 7974 7965 7964 7962 ] final -145.58 input  175.53 | X-H torsion
[ 8008 7997 7996 7995 ] final   62.24 input   59.86 | X-H torsion
[ 10167 10162 10161 10158 ] final -134.36 input  -65.29 | X-H torsion
[ 10718 10713 10712 10709 ] final   58.95 input   66.30 | X-H torsion
[ 10763 10752 10751 10750 ] final -176.94 input  -60.55 | X-H torsion
[ 11005 11000 10999 10996 ] final  125.40 input  -57.11 | X-H torsion

> <Gold.Protein.ActiveResidues>
 VAL166  LYS551  ARG553  GLY616  TRP617  ASP618  TYR619  PRO620  LYS621  CYS622 
 ASP623  PHE694  ASN695  SER759  ASP760  ASP761  ALA762  ILE779  LEU786  VAL792 
 PHE793  MET794  SER795  GLU796  ALA797  LYS798  CYS799  TRP800  GLU811  SER814 

> <Gold.Protein.RotatedAtoms>
  150.9403  134.8813  159.7607 H   0  0  0  0  0  0  0  0  0  0  0  0  # atno 6907 bound_to 6896
  152.5077  134.3951  159.9407 H   0  0  0  0  0  0  0  0  0  0  0  0  # atno 6908 bound_to 6896
  151.3973  133.3729  159.2763 H   0  0  0  0  0  0  0  0  0  0  0  0  # atno 6909 bound_to 6896
  144.8218  140.5566  143.5573 H   0  0  0  0  0  0  0  0  0  0  0  0  # atno 7974 bound_to 7965
  155.6111  140.3495  155.4623 H   0  0  0  0  0  0  0  0  0  0  0  0  # atno 8008 bound_to 7997
  156.0153  140.1242  157.0437 H   0  0  0  0  0  0  0  0  0  0  0  0  # atno 8009 bound_to 7997
  154.4295  140.1073  156.5873 H   0  0  0  0  0  0  0  0  0  0  0  0  # atno 8010 bound_to 7997
  139.8888  143.6748  152.2615 H   0  0  0  0  0  0  0  0  0  0  0  0  # atno 10167 bound_to 10162
  157.5637  130.8855  149.9152 H   0  0  0  0  0  0  0  0  0  0  0  0  # atno 10718 bound_to 10713
  154.5662  135.2824  155.0872 H   0  0  0  0  0  0  0  0  0  0  0  0  # atno 10763 bound_to 10752
  154.2261  135.6382  153.5164 H   0  0  0  0  0  0  0  0  0  0  0  0  # atno 10764 bound_to 10752
  153.0043  135.5526  154.6271 H   0  0  0  0  0  0  0  0  0  0  0  0  # atno 10765 bound_to 10752
  139.9405  134.9636  156.8552 H   0  0  0  0  0  0  0  0  0  0  0  0  # atno 11005 bound_to 11000
  145.5088  139.1480  143.3616 LP  0  0  0  0  0  0  0  0  0  0  0  0  # atno 17320 bound_to 7965
  146.2523  140.5229  142.8888 LP  0  0  0  0  0  0  0  0  0  0  0  0  # atno 17321 bound_to 7965
  139.7128  144.7617  151.1083 LP  0  0  0  0  0  0  0  0  0  0  0  0  # atno 17342 bound_to 10162
  140.7730  143.5308  150.9426 LP  0  0  0  0  0  0  0  0  0  0  0  0  # atno 17343 bound_to 10162
  156.0687  130.3688  150.0822 LP  0  0  0  0  0  0  0  0  0  0  0  0  # atno 17370 bound_to 10713
  156.8984  130.9612  151.3579 LP  0  0  0  0  0  0  0  0  0  0  0  0  # atno 17371 bound_to 10713
  140.5965  134.0212  155.7520 LP  0  0  0  0  0  0  0  0  0  0  0  0  # atno 17394 bound_to 11000
  141.1037  133.9728  157.3035 LP  0  0  0  0  0  0  0  0  0  0  0  0  # atno 17395 bound_to 11000

$$$$
