AV-unprocessed.smi:1725|AV-procd|sdf|6953|dock10
  -GOLD-   22720 8163D 1   1.00000     0.00000
 Structure written by MMmdl.
 36 37  0  0  0  0  0  0  0  0  1 V2000
  152.8641  144.5287  158.0965 C   0  0  0  0  0  0  0  0  0  0  0  0
  151.5296  144.3895  158.8439 C   0  0  2  0  0  0  0  0  0  0  0  0
  151.8257  143.9810  160.1764 O   0  0  0  0  0  0  0  0  0  0  0  0
  152.6851  142.8537  160.2891 C   0  0  0  0  0  0  0  0  0  0  0  0
  152.4593  142.2037  161.6368 C   0  0  0  0  0  0  0  0  0  0  0  0
  153.0086  142.8394  162.8936 C   0  0  0  0  0  0  0  0  0  0  0  0
  153.6020  141.5515  162.3817 C   0  0  0  0  0  0  0  0  0  0  0  0
  150.6125  143.3604  158.1633 C   0  0  0  0  0  0  0  0  0  0  0  0
  149.4012  143.3967  158.3786 O   0  0  0  0  0  0  0  0  0  0  0  0
  151.2297  142.4930  157.3363 N   0  0  0  0  0  0  0  0  0  0  0  0
  150.6936  141.4356  156.5814 C   0  0  0  0  0  0  0  0  0  0  0  0
  149.5710  141.5107  155.8193 C   0  0  0  0  0  0  0  0  0  0  0  0
  149.0663  140.3708  155.0743 C   0  0  0  0  0  0  0  0  0  0  0  0
  147.8177  140.4928  154.2157 C   0  0  0  0  0  0  0  0  0  0  0  0
  147.5131  139.3413  153.6155 F   0  0  0  0  0  0  0  0  0  0  0  0
  146.7808  140.8614  154.9670 F   0  0  0  0  0  0  0  0  0  0  0  0
  147.9950  141.4213  153.2764 F   0  0  0  0  0  0  0  0  0  0  0  0
  149.7624  139.2240  155.1836 C   0  0  0  0  0  0  0  0  0  0  0  0
  150.9110  139.1349  155.9729 N   0  0  0  0  0  0  0  0  0  0  0  0
  151.4284  140.1633  156.6819 C   0  0  0  0  0  0  0  0  0  0  0  0
  152.4466  140.0036  157.3540 O   0  0  0  0  0  0  0  0  0  0  0  0
  151.3755  138.2387  156.0074 H   0  0  0  0  0  0  0  0  0  0  0  0
  152.7086  144.8268  157.0592 H   0  0  0  0  0  0  0  0  0  0  0  0
  153.4249  143.5933  158.0969 H   0  0  0  0  0  0  0  0  0  0  0  0
  153.4911  145.2872  158.5655 H   0  0  0  0  0  0  0  0  0  0  0  0
  151.0453  145.3680  158.8630 H   0  0  0  0  0  0  0  0  0  0  0  0
  152.4779  142.1361  159.4937 H   0  0  0  0  0  0  0  0  0  0  0  0
  153.7337  143.1425  160.2152 H   0  0  0  0  0  0  0  0  0  0  0  0
  151.4873  141.7238  161.7349 H   0  0  0  0  0  0  0  0  0  0  0  0
  153.6047  143.7435  162.7863 H   0  0  0  0  0  0  0  0  0  0  0  0
  152.3954  142.7893  163.7910 H   0  0  0  0  0  0  0  0  0  0  0  0
  153.3834  140.6405  162.9353 H   0  0  0  0  0  0  0  0  0  0  0  0
  154.5924  141.5981  161.9332 H   0  0  0  0  0  0  0  0  0  0  0  0
  152.2230  142.6300  157.2137 H   0  0  0  0  0  0  0  0  0  0  0  0
  148.9976  142.4203  155.7508 H   0  0  0  0  0  0  0  0  0  0  0  0
  149.5033  138.3011  154.6859 H   0  0  0  0  0  0  0  0  0  0  0  0
  1  2  1  0  0  0  0
  1 23  1  0  0  0  0
  1 24  1  0  0  0  0
  1 25  1  0  0  0  0
  2  3  1  0  0  0  0
  2  8  1  0  0  0  0
  2 26  1  0  0  0  0
  3  4  1  0  0  0  0
  4  5  1  0  0  0  0
  4 27  1  0  0  0  0
  4 28  1  0  0  0  0
  5  7  1  0  0  0  0
  5  6  1  0  0  0  0
  5 29  1  0  0  0  0
  6  7  1  0  0  0  0
  6 30  1  0  0  0  0
  6 31  1  0  0  0  0
  7 32  1  0  0  0  0
  7 33  1  0  0  0  0
  8  9  2  0  0  0  0
  8 10  1  0  0  0  0
 10 11  1  0  0  0  0
 10 34  1  0  0  0  0
 11 20  1  0  0  0  0
 11 12  2  0  0  0  0
 12 13  1  0  0  0  0
 12 35  1  0  0  0  0
 13 14  1  0  0  0  0
 13 18  2  0  0  0  0
 14 15  1  0  0  0  0
 14 16  1  0  0  0  0
 14 17  1  0  0  0  0
 18 19  1  0  0  0  0
 18 36  1  0  0  0  0
 19 22  1  0  0  0  0
 19 20  1  0  0  0  0
 20 21  2  0  0  0  0
M  END
> <s_m_source_file>
AV-unprocessed.smi

> <i_m_source_file_index>
1725

> <i_lp_mmshare_version>
43012

> <i_f3d_flags>
0

> <s_epik_input>
W0NIMl0xW0NIMl1bQ0hdMVtDSDJdT1tDQEBIXShbQ0gzXSlDKD1PKVtOSF1jMltjSF1jKEMoRikoRilGKVtjSF1bbkhdYzI9Tw==

> <s_epik_cmdline>
J2VwaWtfcHl0aG9uJywgJy1waCcsICc3LjAnLCAnLXRuJywgJzgnLCAnLW1hJywgJzIwMCcsICctbWV0YWxfYmluZGluZycsICctaW1hZScsICc8aW5maWxlLm1hZT4nLCAnLW9tYWUnLCAnPG91dGZpbGUubWFlPic=

> <r_lp_tautomer_probability>
0.999

> <r_epik_Ionization_Penalty>
0.00763408

> <r_epik_Ionization_Penalty_Charging>
0.00763398

> <r_epik_Ionization_Penalty_Neutral>
9.25705e-08

> <r_epik_State_Penalty>
0.00571302

> <r_epik_Charging_Adjusted_Penalty>
0.013347

> <i_epik_Tot_Q>
0

> <i_epik_Tot_abs_Q>
0

> <r_epik_Metal_State_Penalty>
0.392814

> <b_epik_Metal_Only>
0

> <s_lp_Force_Field>
OPLS_2005

> <r_lp_Energy>
28.2776

> <b_lp_Chiralities_Consistent>
1

> <s_lp_Variant>
AV-unprocessed.smi:1725-1

> <Gold.Version>
5.8.1

> <Gold.Id.Protein>
6NUR|6NUR_protein|mol2

> <Gold.PLP.Fitness>
43.0235

> <Gold.PLP.PLP>
-43.5973

> <Gold.PLP.part.hbond>
-1.0000

> <Gold.PLP.part.metal>
0.0000

> <Gold.PLP.part.buried>
-2.9002

> <Gold.PLP.part.nonpolar>
-38.7348

> <Gold.PLP.part.repulsive>
0.3672

> <Gold.PLP.ligand.clash>
1.3214

> <Gold.PLP.ligand.torsion>
1.4258

> <Gold.PLP.Chemscore.Hbond>
1.0000

> <Gold.PLP.Chemscore.CHOScore>
0.0000

> <Gold.PLP.Chemscore.Metal>
0.0000

> <Gold.Chemscore.Hbonds>
donor molecule, donor type, donor heavy atom, donor atom, acceptor molecule, acceptor atom, score
      P1  H  7997  8008       L1    21  0.78

> <Gold.PLP.Chemscore.Internal.Correction>
0.5993

> <Gold.Rescore>
     Score         DG    S(hbond)    S(metal)    S(lipo)     H(rot)  DE(clash)    DE(int)     intcor
     14.54     -15.86       0.99        0.00      99.86       1.79       0.18       1.15       ----

> <Gold.Chemscore.Fitness>
14.5370

> <Gold.Chemscore.DG>
-15.8624

> <Gold.Chemscore.ZeroCoef>
-5.4800

> <Gold.Chemscore.Hbond>
0.9852

> <Gold.Chemscore.Metal>
0.0000

> <Gold.Chemscore.Lipo>
99.8641

> <Gold.Chemscore.Internal_Hbond>
0.0000

> <Gold.Chemscore.DEClash>
0.1770

> <Gold.Chemscore.DEInternal>
1.1484

> <Gold.Chemscore.Rot>
1.7938

> <Gold.Chemscore.Internal.Correction>
   9.000000E+99

> <Gold.Chemscore.Hbonds>
donor molecule, donor type, donor heavy atom, donor atom, acceptor molecule, acceptor atom, score
      P1  H  7997  8008       L1    21  0.71

> <Gold.Chemscore.Hbond.Weighted>
-3.2906

> <Gold.Chemscore.Metal.Weighted>
-0.0000

> <Gold.Chemscore.Lipo.Weighted>
-11.6841

> <Gold.Chemscore.Internal_Hbond.Weighted>
0.0000

> <Gold.Chemscore.DEClash.Weighted>
0.1770

> <Gold.Chemscore.DEInternal.Weighted>
1.1484

> <Gold.Chemscore.Rot.Weighted>
4.5922

> <Gold.Chemscore.Internal.Correction.Weighted>
   9.000000E+99

> <Gold.Protein.RotatedTorsions>
[ 6907 6896 6895 6894 ] final  -83.32 input  -60.11 | X-H torsion
[ 7974 7965 7964 7962 ] final   67.26 input  175.53 | X-H torsion
[ 8008 7997 7996 7995 ] final  -46.57 input   59.86 | X-H torsion
[ 10167 10162 10161 10158 ] final  -47.66 input  -65.29 | X-H torsion
[ 10718 10713 10712 10709 ] final -100.29 input   66.30 | X-H torsion
[ 10763 10752 10751 10750 ] final  -89.35 input  -60.55 | X-H torsion
[ 11005 11000 10999 10996 ] final  -98.99 input  -57.11 | X-H torsion

> <Gold.Protein.ActiveResidues>
 VAL166  LYS551  ARG553  GLY616  TRP617  ASP618  TYR619  PRO620  LYS621  CYS622 
 ASP623  PHE694  ASN695  SER759  ASP760  ASP761  ALA762  ILE779  LEU786  VAL792 
 PHE793  MET794  SER795  GLU796  ALA797  LYS798  CYS799  TRP800  GLU811  SER814 

> <Gold.Protein.RotatedAtoms>
  150.6887  134.3530  159.4917 H   0  0  0  0  0  0  0  0  0  0  0  0  # atno 6907 bound_to 6896
  152.1369  134.9090  160.0565 H   0  0  0  0  0  0  0  0  0  0  0  0  # atno 6908 bound_to 6896
  152.0238  133.3874  159.4306 H   0  0  0  0  0  0  0  0  0  0  0  0  # atno 6909 bound_to 6896
  145.8168  139.3062  143.1067 H   0  0  0  0  0  0  0  0  0  0  0  0  # atno 7974 bound_to 7965
  154.4008  140.1368  156.4033 H   0  0  0  0  0  0  0  0  0  0  0  0  # atno 8008 bound_to 7997
  155.7804  140.3481  155.5274 H   0  0  0  0  0  0  0  0  0  0  0  0  # atno 8009 bound_to 7997
  155.8680  140.0967  157.1560 H   0  0  0  0  0  0  0  0  0  0  0  0  # atno 8010 bound_to 7997
  140.6765  143.2774  151.3958 H   0  0  0  0  0  0  0  0  0  0  0  0  # atno 10167 bound_to 10162
  156.0159  130.5321  150.6796 H   0  0  0  0  0  0  0  0  0  0  0  0  # atno 10718 bound_to 10713
  154.6543  135.5344  153.7940 H   0  0  0  0  0  0  0  0  0  0  0  0  # atno 10763 bound_to 10752
  153.0404  135.6490  154.0969 H   0  0  0  0  0  0  0  0  0  0  0  0  # atno 10764 bound_to 10752
  154.0884  135.2942  155.3256 H   0  0  0  0  0  0  0  0  0  0  0  0  # atno 10765 bound_to 10752
  141.1325  133.8287  157.0912 H   0  0  0  0  0  0  0  0  0  0  0  0  # atno 11005 bound_to 11000
  145.9718  140.8754  143.0159 LP  0  0  0  0  0  0  0  0  0  0  0  0  # atno 17320 bound_to 7965
  144.6751  140.1956  143.7392 LP  0  0  0  0  0  0  0  0  0  0  0  0  # atno 17321 bound_to 7965
  139.6061  144.1194  152.2250 LP  0  0  0  0  0  0  0  0  0  0  0  0  # atno 17342 bound_to 10162
  140.0594  144.5869  150.7275 LP  0  0  0  0  0  0  0  0  0  0  0  0  # atno 17343 bound_to 10162
  157.4501  131.0871  151.0855 LP  0  0  0  0  0  0  0  0  0  0  0  0  # atno 17370 bound_to 10713
  157.1373  130.6128  149.5545 LP  0  0  0  0  0  0  0  0  0  0  0  0  # atno 17371 bound_to 10713
  140.0391  134.9863  157.0927 LP  0  0  0  0  0  0  0  0  0  0  0  0  # atno 17394 bound_to 11000
  140.4164  134.1927  155.7163 LP  0  0  0  0  0  0  0  0  0  0  0  0  # atno 17395 bound_to 11000

$$$$
