AV-unprocessed.smi:1554|AV-procd|sdf|6259|dock3
  -GOLD-   22720 6443D 1   1.00000     0.00000
 Structure written by MMmdl.
 49 51  0  0  0  0  0  0  0  0  3 V2000
  152.3924  143.2987  160.4104 C   0  0  0  0  0  0  0  0  0  0  0  0
  152.1024  142.4617  159.1759 C   0  0  0  0  0  0  0  0  0  0  0  0
  151.1176  142.9151  158.2699 C   0  0  0  0  0  0  0  0  0  0  0  0
  150.8755  142.1284  157.1500 C   0  0  0  0  0  0  0  0  0  0  0  0
  149.9835  142.3001  156.0901 N   0  3  0  0  0  0  0  0  0  0  0  0
  150.1061  141.2606  155.2196 C   0  0  0  0  0  0  0  0  0  0  0  0
  151.0651  140.4263  155.7070 N   0  0  0  0  0  0  0  0  0  0  0  0
  151.5787  139.1652  155.1517 C   0  0  0  0  0  0  0  0  0  0  0  0
  150.4566  138.2099  154.6995 C   0  0  1  0  0  0  0  0  0  0  0  0
  150.0251  138.5654  153.3996 O   0  0  0  0  0  0  0  0  0  0  0  0
  150.9268  136.7418  154.6825 C   0  0  0  0  0  0  0  0  0  0  0  0
  149.8047  135.7893  154.4634 N   0  3  2  0  0  0  0  0  0  0  0  0
  148.7336  135.8443  155.4913 C   0  0  0  0  0  0  0  0  0  0  0  0
  149.1400  135.0941  156.7749 C   0  0  0  0  0  0  0  0  0  0  0  0
  149.5209  133.7609  156.4577 O   0  0  0  0  0  0  0  0  0  0  0  0
  150.6336  133.7078  155.5715 C   0  0  1  0  0  0  0  0  0  0  0  0
  151.0177  132.2372  155.3742 C   0  0  0  0  0  0  0  0  0  0  0  0
  150.2435  134.3893  154.2437 C   0  0  0  0  0  0  0  0  0  0  0  0
  151.5729  140.9276  156.9127 C   0  0  0  0  0  0  0  0  0  0  0  0
  152.5476  140.4677  157.7960 C   0  0  0  0  0  0  0  0  0  0  0  0
  152.8084  141.2536  158.9417 C   0  0  0  0  0  0  0  0  0  0  0  0
  153.8655  140.7756  159.9228 C   0  0  0  0  0  0  0  0  0  0  0  0
  151.7392  144.1704  160.4646 H   0  0  0  0  0  0  0  0  0  0  0  0
  153.4228  143.6549  160.3962 H   0  0  0  0  0  0  0  0  0  0  0  0
  152.2400  142.7128  161.3171 H   0  0  0  0  0  0  0  0  0  0  0  0
  150.5771  143.8348  158.4404 H   0  0  0  0  0  0  0  0  0  0  0  0
  149.5437  141.1241  154.3070 H   0  0  0  0  0  0  0  0  0  0  0  0
  152.2711  139.3818  154.3381 H   0  0  0  0  0  0  0  0  0  0  0  0
  152.1712  138.6924  155.9359 H   0  0  0  0  0  0  0  0  0  0  0  0
  149.6119  138.3280  155.3776 H   0  0  0  0  0  0  0  0  0  0  0  0
  149.9821  137.7847  152.8688 H   0  0  0  0  0  0  0  0  0  0  0  0
  151.6683  136.6281  153.8903 H   0  0  0  0  0  0  0  0  0  0  0  0
  151.4433  136.4989  155.6112 H   0  0  0  0  0  0  0  0  0  0  0  0
  148.4575  136.8727  155.7205 H   0  0  0  0  0  0  0  0  0  0  0  0
  147.8413  135.3762  155.0738 H   0  0  0  0  0  0  0  0  0  0  0  0
  149.9523  135.6024  157.2957 H   0  0  0  0  0  0  0  0  0  0  0  0
  148.2987  135.0612  157.4674 H   0  0  0  0  0  0  0  0  0  0  0  0
  151.4806  134.2260  156.0244 H   0  0  0  0  0  0  0  0  0  0  0  0
  151.8744  132.1416  154.7064 H   0  0  0  0  0  0  0  0  0  0  0  0
  150.1936  131.6662  154.9456 H   0  0  0  0  0  0  0  0  0  0  0  0
  151.2850  131.7733  156.3239 H   0  0  0  0  0  0  0  0  0  0  0  0
  149.4182  133.8435  153.7839 H   0  0  0  0  0  0  0  0  0  0  0  0
  151.0664  134.3541  153.5286 H   0  0  0  0  0  0  0  0  0  0  0  0
  153.0891  139.5505  157.6208 H   0  0  0  0  0  0  0  0  0  0  0  0
  154.3415  139.8561  159.5804 H   0  0  0  0  0  0  0  0  0  0  0  0
  153.4201  140.5774  160.8980 H   0  0  0  0  0  0  0  0  0  0  0  0
  154.6454  141.5277  160.0442 H   0  0  0  0  0  0  0  0  0  0  0  0
  149.3846  136.0836  153.5926 H   0  0  0  0  0  0  0  0  0  0  0  0
  149.3369  143.0694  155.9681 H   0  0  0  0  0  0  0  0  0  0  0  0
  1  2  1  0  0  0  0
  1 23  1  0  0  0  0
  1 24  1  0  0  0  0
  1 25  1  0  0  0  0
  2 21  1  0  0  0  0
  2  3  2  0  0  0  0
  3  4  1  0  0  0  0
  3 26  1  0  0  0  0
  4 19  2  0  0  0  0
  4  5  1  0  0  0  0
  5  6  2  0  0  0  0
  5 49  1  0  0  0  0
  6  7  1  0  0  0  0
  6 27  1  0  0  0  0
  7  8  1  0  0  0  0
  7 19  1  0  0  0  0
  8  9  1  0  0  0  0
  8 28  1  0  0  0  0
  8 29  1  0  0  0  0
  9 10  1  0  0  0  0
  9 11  1  0  0  0  0
  9 30  1  0  0  0  0
 10 31  1  0  0  0  0
 11 12  1  0  0  0  0
 11 32  1  0  0  0  0
 11 33  1  0  0  0  0
 12 18  1  0  0  0  0
 12 13  1  0  0  0  0
 12 48  1  0  0  0  0
 13 14  1  0  0  0  0
 13 34  1  0  0  0  0
 13 35  1  0  0  0  0
 14 15  1  0  0  0  0
 14 36  1  0  0  0  0
 14 37  1  0  0  0  0
 15 16  1  0  0  0  0
 16 17  1  0  0  0  0
 16 18  1  0  0  0  0
 16 38  1  0  0  0  0
 17 39  1  0  0  0  0
 17 40  1  0  0  0  0
 17 41  1  0  0  0  0
 18 42  1  0  0  0  0
 18 43  1  0  0  0  0
 19 20  1  0  0  0  0
 20 21  2  0  0  0  0
 20 44  1  0  0  0  0
 21 22  1  0  0  0  0
 22 45  1  0  0  0  0
 22 46  1  0  0  0  0
 22 47  1  0  0  0  0
M  CHG  1   5   1
M  CHG  1  12   1
M  END
> <s_m_source_file>
AV-unprocessed.smi

> <i_m_source_file_index>
1554

> <i_lp_mmshare_version>
43012

> <i_f3d_flags>
0

> <s_epik_input>
W0NIM11jKFtjSF0xKWMoW0NIM10pW2NIXWMoYzEyKW4oW2NIXW4yKVtDSDJdW0NASF0oW09IXSlbQ0gyXU4zW0NIMl1bQ0gyXU9bQ0BASF0oW0NIM10pW0NIMl0z

> <s_epik_cmdline>
J2VwaWtfcHl0aG9uJywgJy1waCcsICc3LjAnLCAnLXRuJywgJzgnLCAnLW1hJywgJzIwMCcsICctbWV0YWxfYmluZGluZycsICctaW1hZScsICc8aW5maWxlLm1hZT4nLCAnLW9tYWUnLCAnPG91dGZpbGUubWFlPic=

> <r_epik_Ionization_Penalty>
1.8848

> <r_epik_Ionization_Penalty_Charging>
1.88479

> <r_epik_Ionization_Penalty_Neutral>
1.42224e-05

> <r_epik_State_Penalty>
1.94551

> <r_epik_Charging_Adjusted_Penalty>
3.8303

> <i_epik_Tot_Q>
2

> <i_epik_Tot_abs_Q>
2

> <r_epik_Metal_State_Penalty>
5.95849

> <b_epik_Metal_Only>
0

> <s_lp_Force_Field>
OPLS_2005

> <r_lp_Energy>
32.9811

> <b_lp_Chiralities_Consistent>
1

> <s_lp_Variant>
AV-unprocessed.smi:1554-20

> <Gold.Version>
5.8.1

> <Gold.Id.Protein>
6NUR|6NUR_protein|mol2

> <Gold.PLP.Fitness>
56.7587

> <Gold.PLP.PLP>
-42.6037

> <Gold.PLP.part.hbond>
-4.0000

> <Gold.PLP.part.metal>
0.0000

> <Gold.PLP.part.buried>
-4.0408

> <Gold.PLP.part.nonpolar>
-34.2844

> <Gold.PLP.part.repulsive>
0.1340

> <Gold.PLP.ligand.clash>
0.0000

> <Gold.PLP.ligand.torsion>
0.4551

> <Gold.PLP.Chemscore.Hbond>
5.0000

> <Gold.PLP.Chemscore.CHOScore>
0.0000

> <Gold.PLP.Chemscore.Metal>
0.0000

> <Gold.Chemscore.Hbonds>
donor molecule, donor type, donor heavy atom, donor atom, acceptor molecule, acceptor atom, score
      L1  H     5    49       P1  8028  2.00
      L1  H    10    31       P1  7948  0.91
      L1  H    12    48       P1  7948  2.00

> <Gold.PLP.Chemscore.Internal.Correction>
0.0652

> <Gold.Rescore>
     Score         DG    S(hbond)    S(metal)    S(lipo)     H(rot)  DE(clash)    DE(int)     intcor
     22.08     -22.52       2.90        0.00     109.12       2.11       0.13       0.31       ----

> <Gold.Chemscore.Fitness>
22.0793

> <Gold.Chemscore.DG>
-22.5155

> <Gold.Chemscore.ZeroCoef>
-5.4800

> <Gold.Chemscore.Hbond>
2.8970

> <Gold.Chemscore.Metal>
0.0000

> <Gold.Chemscore.Lipo>
109.1177

> <Gold.Chemscore.Internal_Hbond>
0.0000

> <Gold.Chemscore.DEClash>
0.1267

> <Gold.Chemscore.DEInternal>
0.3096

> <Gold.Chemscore.Rot>
2.1122

> <Gold.Chemscore.Internal.Correction>
   9.000000E+99

> <Gold.Chemscore.Hbonds>
donor molecule, donor type, donor heavy atom, donor atom, acceptor molecule, acceptor atom, score
      L1  H     5    49       P1  8028  0.98
      L1  H    10    31       P1  7948  0.22
      L1  H    12    48       P1  7948  0.65

> <Gold.Chemscore.Hbond.Weighted>
-9.6760

> <Gold.Chemscore.Metal.Weighted>
-0.0000

> <Gold.Chemscore.Lipo.Weighted>
-12.7668

> <Gold.Chemscore.Internal_Hbond.Weighted>
0.0000

> <Gold.Chemscore.DEClash.Weighted>
0.1267

> <Gold.Chemscore.DEInternal.Weighted>
0.3096

> <Gold.Chemscore.Rot.Weighted>
5.4073

> <Gold.Chemscore.Internal.Correction.Weighted>
   9.000000E+99

> <Gold.Protein.RotatedTorsions>
[ 6907 6896 6895 6894 ] final  167.15 input  -60.11 | X-H torsion
[ 7974 7965 7964 7962 ] final   18.10 input  175.53 | X-H torsion
[ 8008 7997 7996 7995 ] final -162.19 input   59.86 | X-H torsion
[ 10167 10162 10161 10158 ] final -177.44 input  -65.29 | X-H torsion
[ 10718 10713 10712 10709 ] final   29.00 input   66.30 | X-H torsion
[ 10763 10752 10751 10750 ] final  -54.60 input  -60.55 | X-H torsion
[ 11005 11000 10999 10996 ] final   75.82 input  -57.11 | X-H torsion

> <Gold.Protein.ActiveResidues>
 VAL166  LYS551  ARG553  GLY616  TRP617  ASP618  TYR619  PRO620  LYS621  CYS622 
 ASP623  PHE694  ASN695  SER759  ASP760  ASP761  ALA762  ILE779  LEU786  VAL792 
 PHE793  MET794  SER795  GLU796  ALA797  LYS798  CYS799  TRP800  GLU811  SER814 

> <Gold.Protein.RotatedAtoms>
  151.8679  133.3470  159.3724 H   0  0  0  0  0  0  0  0  0  0  0  0  # atno 6907 bound_to 6896
  150.7161  134.5142  159.5631 H   0  0  0  0  0  0  0  0  0  0  0  0  # atno 6908 bound_to 6896
  152.2669  134.7975  160.0472 H   0  0  0  0  0  0  0  0  0  0  0  0  # atno 6909 bound_to 6896
  146.2196  139.8506  142.8623 H   0  0  0  0  0  0  0  0  0  0  0  0  # atno 7974 bound_to 7965
  155.8032  140.0895  157.1945 H   0  0  0  0  0  0  0  0  0  0  0  0  # atno 8008 bound_to 7997
  154.3981  140.1468  156.3358 H   0  0  0  0  0  0  0  0  0  0  0  0  # atno 8009 bound_to 7997
  155.8441  140.3437  155.5653 H   0  0  0  0  0  0  0  0  0  0  0  0  # atno 8010 bound_to 7997
  139.5480  144.2184  152.1024 H   0  0  0  0  0  0  0  0  0  0  0  0  # atno 10167 bound_to 10162
  157.2408  130.7068  149.6358 H   0  0  0  0  0  0  0  0  0  0  0  0  # atno 10718 bound_to 10713
  154.1775  135.6449  153.5025 H   0  0  0  0  0  0  0  0  0  0  0  0  # atno 10763 bound_to 10752
  153.0068  135.5398  154.6549 H   0  0  0  0  0  0  0  0  0  0  0  0  # atno 10764 bound_to 10752
  154.5904  135.2933  155.0613 H   0  0  0  0  0  0  0  0  0  0  0  0  # atno 10765 bound_to 10752
  139.9326  134.7549  156.1318 H   0  0  0  0  0  0  0  0  0  0  0  0  # atno 11005 bound_to 11000
  145.2805  141.0137  143.3720 LP  0  0  0  0  0  0  0  0  0  0  0  0  # atno 17320 bound_to 7965
  144.9154  139.4477  143.6567 LP  0  0  0  0  0  0  0  0  0  0  0  0  # atno 17321 bound_to 7965
  140.1674  144.4968  150.6598 LP  0  0  0  0  0  0  0  0  0  0  0  0  # atno 17342 bound_to 10162
  140.6734  143.2295  151.5568 LP  0  0  0  0  0  0  0  0  0  0  0  0  # atno 17343 bound_to 10162
  155.9670  130.4458  150.5518 LP  0  0  0  0  0  0  0  0  0  0  0  0  # atno 17370 bound_to 10713
  157.3380  131.0711  151.1810 LP  0  0  0  0  0  0  0  0  0  0  0  0  # atno 17371 bound_to 10713
  141.0923  133.6709  156.2568 LP  0  0  0  0  0  0  0  0  0  0  0  0  # atno 17394 bound_to 11000
  140.6161  134.5409  157.5541 LP  0  0  0  0  0  0  0  0  0  0  0  0  # atno 17395 bound_to 11000

$$$$
