AV-unprocessed.smi:743|AV-procd|sdf|3561|dock8
  -GOLD-   22720 0563D 1   1.00000     0.00000
 Structure written by MMmdl.
 29 30  0  0  0  0  0  0  0  0  2 V2000
  145.5474  143.2402  154.3378 C   0  0  0  0  0  0  0  0  0  0  0  0
  146.5819  142.2927  154.6932 N   0  0  0  0  0  0  0  0  0  0  0  0
  147.7290  141.9726  154.0004 C   0  0  0  0  0  0  0  0  0  0  0  0
  148.3973  141.0228  154.7240 C   0  0  0  0  0  0  0  0  0  0  0  0
  149.7080  140.3363  154.4219 C   0  0  1  0  0  0  0  0  0  0  0  0
  150.6807  140.5875  155.4886 N   0  0  0  0  0  0  0  0  0  0  0  0
  151.6299  139.7431  155.9308 C   0  0  0  0  0  0  0  0  0  0  0  0
  152.4386  140.0826  156.7905 O   0  0  0  0  0  0  0  0  0  0  0  0
  151.6776  138.3116  155.3742 C   0  0  0  0  0  0  0  0  0  0  0  0
  150.8647  138.1218  154.0828 C   0  0  0  0  0  0  0  0  0  0  0  0
  149.5045  138.8219  154.1831 C   0  0  2  0  0  0  0  0  0  0  0  0
  148.6827  138.5628  152.9869 N   0  3  0  0  0  0  0  0  0  0  0  0
  147.5565  140.8275  155.8579 C   0  0  0  0  0  0  0  0  0  0  0  0
  146.4759  141.5888  155.8383 N   0  0  0  0  0  0  0  0  0  0  0  0
  148.9658  138.3980  155.0325 H   0  0  0  0  0  0  0  0  0  0  0  0
  145.9160  143.9261  153.5744 H   0  0  0  0  0  0  0  0  0  0  0  0
  145.2496  143.8159  155.2151 H   0  0  0  0  0  0  0  0  0  0  0  0
  144.6801  142.7064  153.9482 H   0  0  0  0  0  0  0  0  0  0  0  0
  147.9737  142.4438  153.0594 H   0  0  0  0  0  0  0  0  0  0  0  0
  150.1461  140.7675  153.5202 H   0  0  0  0  0  0  0  0  0  0  0  0
  150.6648  141.5113  155.8971 H   0  0  0  0  0  0  0  0  0  0  0  0
  152.7155  138.0197  155.2093 H   0  0  0  0  0  0  0  0  0  0  0  0
  151.2879  137.6486  156.1472 H   0  0  0  0  0  0  0  0  0  0  0  0
  151.4263  138.5151  153.2338 H   0  0  0  0  0  0  0  0  0  0  0  0
  150.7283  137.0560  153.8952 H   0  0  0  0  0  0  0  0  0  0  0  0
  148.8027  139.3154  152.3240 H   0  0  0  0  0  0  0  0  0  0  0  0
  147.7108  138.5013  153.2551 H   0  0  0  0  0  0  0  0  0  0  0  0
  147.7018  140.1589  156.6935 H   0  0  0  0  0  0  0  0  0  0  0  0
  148.9697  137.6920  152.5630 H   0  0  0  0  0  0  0  0  0  0  0  0
  1  2  1  0  0  0  0
  1 16  1  0  0  0  0
  1 17  1  0  0  0  0
  1 18  1  0  0  0  0
  2 14  1  0  0  0  0
  2  3  1  0  0  0  0
  3  4  2  0  0  0  0
  3 19  1  0  0  0  0
  4  5  1  0  0  0  0
  4 13  1  0  0  0  0
  5 11  1  0  0  0  0
  5  6  1  0  0  0  0
  5 20  1  0  0  0  0
  6  7  1  0  0  0  0
  6 21  1  0  0  0  0
  7  8  2  0  0  0  0
  7  9  1  0  0  0  0
  9 10  1  0  0  0  0
  9 22  1  0  0  0  0
  9 23  1  0  0  0  0
 10 11  1  0  0  0  0
 10 24  1  0  0  0  0
 10 25  1  0  0  0  0
 11 15  1  0  0  0  0
 11 12  1  0  0  0  0
 12 26  1  0  0  0  0
 12 27  1  0  0  0  0
 12 29  1  0  0  0  0
 13 14  2  0  0  0  0
 13 28  1  0  0  0  0
M  CHG  1  12   1
M  END
> <s_m_source_file>
AV-unprocessed.smi

> <i_m_source_file_index>
743

> <i_lp_mmshare_version>
43012

> <i_f3d_flags>
0

> <s_epik_input>
W0NIM11uMVtjSF1jKFtjSF1uMSlbQ0BASF0yW05IXUMoPU8pW0NIMl1bQ0gyXVtDQEBIXTJbTkgyXQ==

> <s_epik_cmdline>
J2VwaWtfcHl0aG9uJywgJy1waCcsICc3LjAnLCAnLXRuJywgJzgnLCAnLW1hJywgJzIwMCcsICctbWV0YWxfYmluZGluZycsICctaW1hZScsICc8aW5maWxlLm1hZT4nLCAnLW9tYWUnLCAnPG91dGZpbGUubWFlPic=

> <r_lp_tautomer_probability>
1

> <r_epik_Ionization_Penalty>
0.00878543

> <r_epik_Ionization_Penalty_Charging>
0.00874185

> <r_epik_Ionization_Penalty_Neutral>
4.35793e-05

> <r_epik_State_Penalty>
0.00660351

> <r_epik_Charging_Adjusted_Penalty>
0.0153454

> <i_epik_Tot_Q>
1

> <i_epik_Tot_abs_Q>
1

> <r_epik_Metal_State_Penalty>
0.00660727

> <b_epik_Metal_Only>
0

> <s_lp_Force_Field>
OPLS_2005

> <r_lp_Energy>
10.7235

> <b_lp_Chiralities_Consistent>
1

> <s_lp_Variant>
AV-unprocessed.smi:743-2

> <Gold.Version>
5.8.1

> <Gold.Id.Protein>
6NUR|6NUR_protein|mol2

> <Gold.PLP.Fitness>
40.5317

> <Gold.PLP.PLP>
-28.5662

> <Gold.PLP.part.hbond>
-3.0000

> <Gold.PLP.part.metal>
0.0000

> <Gold.PLP.part.buried>
-2.2040

> <Gold.PLP.part.nonpolar>
-23.5763

> <Gold.PLP.part.repulsive>
0.5704

> <Gold.PLP.ligand.clash>
0.0000

> <Gold.PLP.ligand.torsion>
0.0280

> <Gold.PLP.Chemscore.Hbond>
4.0000

> <Gold.PLP.Chemscore.CHOScore>
0.0000

> <Gold.PLP.Chemscore.Metal>
0.0000

> <Gold.Chemscore.Hbonds>
donor molecule, donor type, donor heavy atom, donor atom, acceptor molecule, acceptor atom, score
      L1  H    12    26       P1  7957  1.00
      L1  H    12    29       P1  7948  2.00
      P1  H  7997  8009       L1     8  1.00

> <Gold.PLP.Chemscore.Internal.Correction>
0.0215

> <Gold.Rescore>
     Score         DG    S(hbond)    S(metal)    S(lipo)     H(rot)  DE(clash)    DE(int)     intcor
     18.85     -18.88       2.99        0.00      51.14       1.00       0.02       0.01       ----

> <Gold.Chemscore.Fitness>
18.8456

> <Gold.Chemscore.DG>
-18.8762

> <Gold.Chemscore.ZeroCoef>
-5.4800

> <Gold.Chemscore.Hbond>
2.9859

> <Gold.Chemscore.Metal>
0.0000

> <Gold.Chemscore.Lipo>
51.1389

> <Gold.Chemscore.Internal_Hbond>
0.0000

> <Gold.Chemscore.DEClash>
0.0167

> <Gold.Chemscore.DEInternal>
0.0139

> <Gold.Chemscore.Rot>
1.0000

> <Gold.Chemscore.Internal.Correction>
   9.000000E+99

> <Gold.Chemscore.Hbonds>
donor molecule, donor type, donor heavy atom, donor atom, acceptor molecule, acceptor atom, score
      L1  H    12    26       P1  7957  0.93
      L1  H    12    29       P1  7948  0.97
      P1  H  7997  8009       L1     8  0.96

> <Gold.Chemscore.Hbond.Weighted>
-9.9730

> <Gold.Chemscore.Metal.Weighted>
-0.0000

> <Gold.Chemscore.Lipo.Weighted>
-5.9832

> <Gold.Chemscore.Internal_Hbond.Weighted>
0.0000

> <Gold.Chemscore.DEClash.Weighted>
0.0167

> <Gold.Chemscore.DEInternal.Weighted>
0.0139

> <Gold.Chemscore.Rot.Weighted>
2.5600

> <Gold.Chemscore.Internal.Correction.Weighted>
   9.000000E+99

> <Gold.Protein.RotatedTorsions>
[ 6907 6896 6895 6894 ] final -126.26 input  -60.11 | X-H torsion
[ 7974 7965 7964 7962 ] final   96.85 input  175.53 | X-H torsion
[ 8008 7997 7996 7995 ] final -166.15 input   59.86 | X-H torsion
[ 10167 10162 10161 10158 ] final   34.92 input  -65.29 | X-H torsion
[ 10718 10713 10712 10709 ] final  -27.68 input   66.30 | X-H torsion
[ 10763 10752 10751 10750 ] final   93.65 input  -60.55 | X-H torsion
[ 11005 11000 10999 10996 ] final   64.02 input  -57.11 | X-H torsion

> <Gold.Protein.ActiveResidues>
 VAL166  LYS551  ARG553  GLY616  TRP617  ASP618  TYR619  PRO620  LYS621  CYS622 
 ASP623  PHE694  ASN695  SER759  ASP760  ASP761  ALA762  ILE779  LEU786  VAL792 
 PHE793  MET794  SER795  GLU796  ALA797  LYS798  CYS799  TRP800  GLU811  SER814 

> <Gold.Protein.RotatedAtoms>
  150.8951  133.7192  159.2893 H   0  0  0  0  0  0  0  0  0  0  0  0  # atno 6907 bound_to 6896
  151.4729  135.1045  159.9766 H   0  0  0  0  0  0  0  0  0  0  0  0  # atno 6908 bound_to 6896
  152.4843  133.8286  159.7147 H   0  0  0  0  0  0  0  0  0  0  0  0  # atno 6909 bound_to 6896
  145.4333  139.2308  143.3132 H   0  0  0  0  0  0  0  0  0  0  0  0  # atno 7974 bound_to 7965
  155.8598  140.0976  157.1621 H   0  0  0  0  0  0  0  0  0  0  0  0  # atno 8008 bound_to 7997
  154.3990  140.1367  156.4009 H   0  0  0  0  0  0  0  0  0  0  0  0  # atno 8009 bound_to 7997
  155.7869  140.3457  155.5330 H   0  0  0  0  0  0  0  0  0  0  0  0  # atno 8010 bound_to 7997
  140.4270  144.1378  150.6154 H   0  0  0  0  0  0  0  0  0  0  0  0  # atno 10167 bound_to 10162
  156.4350  130.4453  149.7091 H   0  0  0  0  0  0  0  0  0  0  0  0  # atno 10718 bound_to 10713
  153.2327  135.4318  155.0613 H   0  0  0  0  0  0  0  0  0  0  0  0  # atno 10763 bound_to 10752
  154.8304  135.3383  154.6764 H   0  0  0  0  0  0  0  0  0  0  0  0  # atno 10764 bound_to 10752
  153.7190  135.7018  153.5074 H   0  0  0  0  0  0  0  0  0  0  0  0  # atno 10765 bound_to 10752
  139.9986  134.6478  155.9968 H   0  0  0  0  0  0  0  0  0  0  0  0  # atno 11005 bound_to 11000
  146.2595  140.5072  142.8859 LP  0  0  0  0  0  0  0  0  0  0  0  0  # atno 17320 bound_to 7965
  144.8169  140.6483  143.6378 LP  0  0  0  0  0  0  0  0  0  0  0  0  # atno 17321 bound_to 7965
  140.4469  143.2502  151.9399 LP  0  0  0  0  0  0  0  0  0  0  0  0  # atno 17342 bound_to 10162
  139.4784  144.5600  151.8254 LP  0  0  0  0  0  0  0  0  0  0  0  0  # atno 17343 bound_to 10162
  156.3979  130.7660  151.2666 LP  0  0  0  0  0  0  0  0  0  0  0  0  # atno 17370 bound_to 10713
  157.7507  131.0248  150.3894 LP  0  0  0  0  0  0  0  0  0  0  0  0  # atno 17371 bound_to 10713
  141.1624  133.6538  156.4364 LP  0  0  0  0  0  0  0  0  0  0  0  0  # atno 17394 bound_to 11000
  140.4771  134.6700  157.5154 LP  0  0  0  0  0  0  0  0  0  0  0  0  # atno 17395 bound_to 11000

$$$$
