AV-unprocessed.smi:196|AV-procd|sdf|1539|dock1
  -GOLD-   2262019393D 1   1.00000     0.00000
 Structure written by MMmdl.
 47 50  0  0  0  0  0  0  0  0  1 V2000
  146.0603  133.4971  161.8666 C   0  0  0  0  0  0  0  0  0  0  0  0
  146.1921  134.9579  162.3250 C   0  0  1  0  0  0  0  0  0  0  0  0
  147.2174  135.0105  163.3135 O   0  0  0  0  0  0  0  0  0  0  0  0
  147.8394  136.2819  163.2614 C   0  0  0  0  0  0  0  0  0  0  0  0
  147.9242  136.5425  161.7654 C   0  0  0  0  0  0  0  0  0  0  0  0
  146.5952  136.0006  161.2439 C   0  0  2  0  0  0  0  0  0  0  0  0
  145.6506  137.0567  161.2924 O   0  0  0  0  0  0  0  0  0  0  0  0
  146.6655  135.4855  159.7819 C   0  0  0  0  0  0  0  0  0  0  0  0
  146.9598  136.5311  158.8139 N   0  0  0  0  0  0  0  0  0  0  0  0
  146.0707  137.1265  157.9469 C   0  0  0  0  0  0  0  0  0  0  0  0
  146.5801  138.0387  157.1645 N   0  0  0  0  0  0  0  0  0  0  0  0
  147.9196  138.0838  157.5291 C   0  0  0  0  0  0  0  0  0  0  0  0
  149.0339  138.8466  157.0892 C   0  0  0  0  0  0  0  0  0  0  0  0
  148.9119  139.7507  156.0802 N   0  0  0  0  0  0  0  0  0  0  0  0
  148.5602  139.0959  154.8249 C   0  0  0  0  0  0  0  0  0  0  0  0
  149.8700  138.9472  154.0343 C   0  0  2  0  0  0  0  0  0  0  0  0
  150.3064  137.6875  154.0705 F   0  0  0  0  0  0  0  0  0  0  0  0
  150.8706  139.8749  154.7366 C   0  0  0  0  0  0  0  0  0  0  0  0
  150.0016  140.6716  155.7249 C   0  0  2  0  0  0  0  0  0  0  0  0
  150.7592  141.3603  156.8799 C   0  0  0  0  0  0  0  0  0  0  0  0
  150.4900  142.6500  157.0977 N   0  0  0  0  0  0  0  0  0  0  0  0
  151.5400  140.7360  157.5963 O   0  0  0  0  0  0  0  0  0  0  0  0
  150.2338  138.6059  157.6831 N   0  0  0  0  0  0  0  0  0  0  0  0
  150.3313  137.6971  158.6578 C   0  0  0  0  0  0  0  0  0  0  0  0
  149.3761  136.9212  159.1743 N   0  0  0  0  0  0  0  0  0  0  0  0
  148.1750  137.1470  158.5691 C   0  0  0  0  0  0  0  0  0  0  0  0
  149.7304  139.2097  152.9852 H   0  0  0  0  0  0  0  0  0  0  0  0
  149.5279  141.4854  155.1725 H   0  0  0  0  0  0  0  0  0  0  0  0
  145.2819  133.3845  161.1119 H   0  0  0  0  0  0  0  0  0  0  0  0
  145.7937  132.8553  162.7064 H   0  0  0  0  0  0  0  0  0  0  0  0
  146.9960  133.1200  161.4532 H   0  0  0  0  0  0  0  0  0  0  0  0
  145.2570  135.2517  162.8056 H   0  0  0  0  0  0  0  0  0  0  0  0
  147.2110  137.0233  163.7571 H   0  0  0  0  0  0  0  0  0  0  0  0
  148.8160  136.2737  163.7456 H   0  0  0  0  0  0  0  0  0  0  0  0
  148.1015  137.5909  161.5208 H   0  0  0  0  0  0  0  0  0  0  0  0
  148.7523  135.9619  161.3569 H   0  0  0  0  0  0  0  0  0  0  0  0
  145.7613  137.5219  162.1075 H   0  0  0  0  0  0  0  0  0  0  0  0
  147.4382  134.7228  159.6828 H   0  0  0  0  0  0  0  0  0  0  0  0
  145.7248  135.0118  159.4980 H   0  0  0  0  0  0  0  0  0  0  0  0
  145.0255  136.8566  157.9079 H   0  0  0  0  0  0  0  0  0  0  0  0
  148.0519  138.1378  154.9546 H   0  0  0  0  0  0  0  0  0  0  0  0
  147.8685  139.7471  154.2886 H   0  0  0  0  0  0  0  0  0  0  0  0
  151.6311  139.2936  155.2603 H   0  0  0  0  0  0  0  0  0  0  0  0
  151.3850  140.5256  154.0289 H   0  0  0  0  0  0  0  0  0  0  0  0
  150.9568  143.1437  157.8443 H   0  0  0  0  0  0  0  0  0  0  0  0
  149.8157  143.1252  156.5153 H   0  0  0  0  0  0  0  0  0  0  0  0
  151.3160  137.5719  159.0831 H   0  0  0  0  0  0  0  0  0  0  0  0
  1  2  1  0  0  0  0
  1 29  1  0  0  0  0
  1 30  1  0  0  0  0
  1 31  1  0  0  0  0
  2  6  1  0  0  0  0
  2  3  1  0  0  0  0
  2 32  1  0  0  0  0
  3  4  1  0  0  0  0
  4  5  1  0  0  0  0
  4 33  1  0  0  0  0
  4 34  1  0  0  0  0
  5  6  1  0  0  0  0
  5 35  1  0  0  0  0
  5 36  1  0  0  0  0
  6  7  1  0  0  0  0
  6  8  1  0  0  0  0
  7 37  1  0  0  0  0
  8  9  1  0  0  0  0
  8 38  1  0  0  0  0
  8 39  1  0  0  0  0
  9 26  1  0  0  0  0
  9 10  1  0  0  0  0
 10 11  2  0  0  0  0
 10 40  1  0  0  0  0
 11 12  1  0  0  0  0
 12 26  2  0  0  0  0
 12 13  1  0  0  0  0
 13 14  1  0  0  0  0
 13 23  2  0  0  0  0
 14 19  1  0  0  0  0
 14 15  1  0  0  0  0
 15 16  1  0  0  0  0
 15 41  1  0  0  0  0
 15 42  1  0  0  0  0
 16 27  1  0  0  0  0
 16 17  1  0  0  0  0
 16 18  1  0  0  0  0
 18 19  1  0  0  0  0
 18 43  1  0  0  0  0
 18 44  1  0  0  0  0
 19 28  1  0  0  0  0
 19 20  1  0  0  0  0
 20 21  1  0  0  0  0
 20 22  2  0  0  0  0
 21 45  1  0  0  0  0
 21 46  1  0  0  0  0
 23 24  1  0  0  0  0
 24 25  2  0  0  0  0
 24 47  1  0  0  0  0
 25 26  1  0  0  0  0
M  END
> <s_m_source_file>
AV-unprocessed.smi

> <i_m_source_file_index>
196

> <i_lp_mmshare_version>
43012

> <i_f3d_flags>
0

> <s_epik_input>
W0NIMl0xW0NIMl1PW0NAQEhdKFtDSDNdKVtDQEBdMShbT0hdKVtDSDJdbihbY0hdbjIpYyhjMjMpbltjSF1uYzNONFtDSDJdW0NASF0oRilbQ0gyXVtDQEhdNEMoPU8pW05IMl0=

> <s_epik_cmdline>
J2VwaWtfcHl0aG9uJywgJy1waCcsICc3LjAnLCAnLXRuJywgJzgnLCAnLW1hJywgJzIwMCcsICctbWV0YWxfYmluZGluZycsICctaW1hZScsICc8aW5maWxlLm1hZT4nLCAnLW9tYWUnLCAnPG91dGZpbGUubWFlPic=

> <r_lp_tautomer_probability>
1

> <r_epik_Ionization_Penalty>
0.000857933

> <r_epik_Ionization_Penalty_Charging>
0

> <r_epik_Ionization_Penalty_Neutral>
0.000857933

> <r_epik_State_Penalty>
0.000462053

> <r_epik_Charging_Adjusted_Penalty>
0.000462053

> <i_epik_Tot_Q>
0

> <i_epik_Tot_abs_Q>
0

> <r_epik_Metal_State_Penalty>
-0

> <b_epik_Metal_Only>
0

> <s_lp_Force_Field>
OPLS_2005

> <r_lp_Energy>
50.8061

> <b_lp_Chiralities_Consistent>
1

> <s_lp_Variant>
AV-unprocessed.smi:196-12

> <Gold.Version>
5.8.1

> <Gold.Id.Protein>
6NUR|6NUR_protein|mol2

> <Gold.PLP.Fitness>
40.4422

> <Gold.PLP.PLP>
-38.3656

> <Gold.PLP.part.hbond>
-2.4863

> <Gold.PLP.part.metal>
0.0000

> <Gold.PLP.part.buried>
-2.2358

> <Gold.PLP.part.nonpolar>
-33.3073

> <Gold.PLP.part.repulsive>
0.0354

> <Gold.PLP.ligand.clash>
0.0000

> <Gold.PLP.ligand.torsion>
0.5604

> <Gold.PLP.Chemscore.Hbond>
0.9920

> <Gold.PLP.Chemscore.CHOScore>
0.0000

> <Gold.PLP.Chemscore.Metal>
0.0000

> <Gold.Chemscore.Hbonds>
donor molecule, donor type, donor heavy atom, donor atom, acceptor molecule, acceptor atom, score
      L1  H    21    46       P1  8028  0.99

> <Gold.PLP.Chemscore.Internal.Correction>
0.2214

> <Gold.Rescore>
     Score         DG    S(hbond)    S(metal)    S(lipo)     H(rot)  DE(clash)    DE(int)     intcor
      4.31      -9.20       0.97        0.00      70.67       3.04       0.21       4.68       ----

> <Gold.Chemscore.Fitness>
4.3051

> <Gold.Chemscore.DG>
-9.1974

> <Gold.Chemscore.ZeroCoef>
-5.4800

> <Gold.Chemscore.Hbond>
0.9683

> <Gold.Chemscore.Metal>
0.0000

> <Gold.Chemscore.Lipo>
70.6746

> <Gold.Chemscore.Internal_Hbond>
0.0000

> <Gold.Chemscore.DEClash>
0.2112

> <Gold.Chemscore.DEInternal>
4.6811

> <Gold.Chemscore.Rot>
3.0413

> <Gold.Chemscore.Internal.Correction>
   9.000000E+99

> <Gold.Chemscore.Hbonds>
donor molecule, donor type, donor heavy atom, donor atom, acceptor molecule, acceptor atom, score
      L1  H    21    46       P1  8028  0.91

> <Gold.Chemscore.Hbond.Weighted>
-3.2341

> <Gold.Chemscore.Metal.Weighted>
-0.0000

> <Gold.Chemscore.Lipo.Weighted>
-8.2689

> <Gold.Chemscore.Internal_Hbond.Weighted>
0.0000

> <Gold.Chemscore.DEClash.Weighted>
0.2112

> <Gold.Chemscore.DEInternal.Weighted>
4.6811

> <Gold.Chemscore.Rot.Weighted>
7.7856

> <Gold.Chemscore.Internal.Correction.Weighted>
   9.000000E+99

> <Gold.Protein.RotatedTorsions>
[ 6907 6896 6895 6894 ] final    3.88 input  -60.11 | X-H torsion
[ 7974 7965 7964 7962 ] final  -60.46 input  175.53 | X-H torsion
[ 8008 7997 7996 7995 ] final  161.66 input   59.86 | X-H torsion
[ 10167 10162 10161 10158 ] final   96.33 input  -65.29 | X-H torsion
[ 10718 10713 10712 10709 ] final  -97.76 input   66.30 | X-H torsion
[ 10763 10752 10751 10750 ] final   31.96 input  -60.55 | X-H torsion
[ 11005 11000 10999 10996 ] final  -27.57 input  -57.11 | X-H torsion

> <Gold.Protein.ActiveResidues>
 VAL166  LYS551  ARG553  GLY616  TRP617  ASP618  TYR619  PRO620  LYS621  CYS622 
 ASP623  PHE694  ASN695  SER759  ASP760  ASP761  ALA762  ILE779  LEU786  VAL792 
 PHE793  MET794  SER795  GLU796  ALA797  LYS798  CYS799  TRP800  GLU811  SER814 

> <Gold.Protein.RotatedAtoms>
  151.6323  135.1021  160.0123 H   0  0  0  0  0  0  0  0  0  0  0  0  # atno 6907 bound_to 6896
  152.4100  133.6944  159.6398 H   0  0  0  0  0  0  0  0  0  0  0  0  # atno 6908 bound_to 6896
  150.7991  133.8558  159.3259 H   0  0  0  0  0  0  0  0  0  0  0  0  # atno 6909 bound_to 6896
  145.8153  140.8574  143.0161 H   0  0  0  0  0  0  0  0  0  0  0  0  # atno 7974 bound_to 7965
  156.2087  140.1771  156.7743 H   0  0  0  0  0  0  0  0  0  0  0  0  # atno 8008 bound_to 7997
  154.5692  140.0685  156.8968 H   0  0  0  0  0  0  0  0  0  0  0  0  # atno 8009 bound_to 7997
  155.2705  140.3342  155.4268 H   0  0  0  0  0  0  0  0  0  0  0  0  # atno 8010 bound_to 7997
  139.7904  144.6854  150.9899 H   0  0  0  0  0  0  0  0  0  0  0  0  # atno 10167 bound_to 10162
  156.0091  130.5208  150.6422 H   0  0  0  0  0  0  0  0  0  0  0  0  # atno 10718 bound_to 10713
  153.0287  135.6425  154.1281 H   0  0  0  0  0  0  0  0  0  0  0  0  # atno 10763 bound_to 10752
  154.1006  135.2860  155.3254 H   0  0  0  0  0  0  0  0  0  0  0  0  # atno 10764 bound_to 10752
  154.6401  135.5462  153.7843 H   0  0  0  0  0  0  0  0  0  0  0  0  # atno 10765 bound_to 10752
  140.9131  133.7447  156.0698 H   0  0  0  0  0  0  0  0  0  0  0  0  # atno 11005 bound_to 11000
  144.6753  140.0455  143.7480 LP  0  0  0  0  0  0  0  0  0  0  0  0  # atno 17320 bound_to 7965
  145.9733  139.2886  143.1085 LP  0  0  0  0  0  0  0  0  0  0  0  0  # atno 17321 bound_to 7965
  140.7820  143.4386  151.0585 LP  0  0  0  0  0  0  0  0  0  0  0  0  # atno 17342 bound_to 10162
  139.8063  143.8013  152.3167 LP  0  0  0  0  0  0  0  0  0  0  0  0  # atno 17343 bound_to 10162
  157.4200  131.0835  151.1140 LP  0  0  0  0  0  0  0  0  0  0  0  0  # atno 17370 bound_to 10713
  157.1745  130.6282  149.5651 LP  0  0  0  0  0  0  0  0  0  0  0  0  # atno 17371 bound_to 10713
  140.8084  134.3428  157.5419 LP  0  0  0  0  0  0  0  0  0  0  0  0  # atno 17394 bound_to 11000
  139.8761  134.9239  156.3337 LP  0  0  0  0  0  0  0  0  0  0  0  0  # atno 17395 bound_to 11000

$$$$
