AV-unprocessed.smi:2473|AV-procd|sdf|9749|dock10
  -GOLD-   2272013393D 1   1.00000     0.00000
 Structure written by MMmdl.
 47 48  0  0  0  0  0  0  0  0  1 V2000
  153.6945  141.2042  160.4400 C   0  0  0  0  0  0  0  0  0  0  0  0
  152.5826  142.0194  159.7645 C   0  0  2  0  0  0  0  0  0  0  0  0
  151.8491  141.1852  158.7007 C   0  0  0  0  0  0  0  0  0  0  0  0
  150.7247  141.9931  158.0236 C   0  0  2  0  0  0  0  0  0  0  0  0
  150.0151  141.1388  156.9649 C   0  0  0  0  0  0  0  0  0  0  0  0
  150.2118  139.9244  156.9147 O   0  0  0  0  0  0  0  0  0  0  0  0
  149.1680  141.7831  156.1458 N   0  0  0  0  0  0  0  0  0  0  0  0
  148.2951  141.1499  155.1604 C   0  0  0  0  0  0  0  0  0  0  0  0
  147.5630  142.1831  154.2814 C   0  0  0  0  0  0  0  0  0  0  0  0
  146.2498  142.6416  154.8458 C   0  0  0  0  0  0  0  0  0  0  0  0
  145.7919  142.2618  156.0348 N   0  0  0  0  0  0  0  0  0  0  0  0
  144.5855  142.9367  156.1840 C   0  0  0  0  0  0  0  0  0  0  0  0
  144.3512  143.7034  155.0686 C   0  0  0  0  0  0  0  0  0  0  0  0
  145.4278  143.5045  154.2148 N   0  0  0  0  0  0  0  0  0  0  0  0
  145.6025  144.1220  152.9138 C   0  0  0  0  0  0  0  0  0  0  0  0
  151.2965  143.2872  157.4027 C   0  0  0  0  0  0  0  0  0  0  0  0
  152.0652  144.1711  158.4170 C   0  0  0  0  0  0  0  0  0  0  0  0
  152.7707  145.3067  157.6499 C   0  0  0  0  0  0  0  0  0  0  0  0
  151.0976  144.8195  159.4314 C   0  0  0  0  0  0  0  0  0  0  0  0
  153.1372  143.3169  159.1401 C   0  0  0  0  0  0  0  0  0  0  0  0
  154.4522  140.8938  159.7200 H   0  0  0  0  0  0  0  0  0  0  0  0
  153.2924  140.3055  160.9084 H   0  0  0  0  0  0  0  0  0  0  0  0
  154.1911  141.7860  161.2169 H   0  0  0  0  0  0  0  0  0  0  0  0
  151.8657  142.2842  160.5419 H   0  0  0  0  0  0  0  0  0  0  0  0
  152.5661  140.8414  157.9528 H   0  0  0  0  0  0  0  0  0  0  0  0
  151.4356  140.2878  159.1619 H   0  0  0  0  0  0  0  0  0  0  0  0
  149.9900  142.2605  158.7840 H   0  0  0  0  0  0  0  0  0  0  0  0
  149.0780  142.7829  156.2546 H   0  0  0  0  0  0  0  0  0  0  0  0
  148.9038  140.5011  154.5307 H   0  0  0  0  0  0  0  0  0  0  0  0
  147.5689  140.4994  155.6506 H   0  0  0  0  0  0  0  0  0  0  0  0
  148.2085  143.0442  154.1087 H   0  0  0  0  0  0  0  0  0  0  0  0
  147.3781  141.7513  153.2975 H   0  0  0  0  0  0  0  0  0  0  0  0
  143.9855  142.8197  157.0741 H   0  0  0  0  0  0  0  0  0  0  0  0
  143.5296  144.3586  154.8195 H   0  0  0  0  0  0  0  0  0  0  0  0
  144.8021  144.8384  152.7275 H   0  0  0  0  0  0  0  0  0  0  0  0
  145.5801  143.3578  152.1367 H   0  0  0  0  0  0  0  0  0  0  0  0
  146.5563  144.6474  152.8746 H   0  0  0  0  0  0  0  0  0  0  0  0
  151.9712  143.0199  156.5872 H   0  0  0  0  0  0  0  0  0  0  0  0
  150.4918  143.8650  156.9451 H   0  0  0  0  0  0  0  0  0  0  0  0
  153.3326  145.9534  158.3247 H   0  0  0  0  0  0  0  0  0  0  0  0
  152.0534  145.9322  157.1173 H   0  0  0  0  0  0  0  0  0  0  0  0
  153.4732  144.9166  156.9124 H   0  0  0  0  0  0  0  0  0  0  0  0
  151.6334  145.4620  160.1310 H   0  0  0  0  0  0  0  0  0  0  0  0
  150.5541  144.0852  160.0236 H   0  0  0  0  0  0  0  0  0  0  0  0
  150.3548  145.4377  158.9263 H   0  0  0  0  0  0  0  0  0  0  0  0
  153.6284  143.9144  159.9094 H   0  0  0  0  0  0  0  0  0  0  0  0
  153.9194  143.0486  158.4281 H   0  0  0  0  0  0  0  0  0  0  0  0
  1  2  1  0  0  0  0
  1 21  1  0  0  0  0
  1 22  1  0  0  0  0
  1 23  1  0  0  0  0
  2 20  1  0  0  0  0
  2  3  1  0  0  0  0
  2 24  1  0  0  0  0
  3  4  1  0  0  0  0
  3 25  1  0  0  0  0
  3 26  1  0  0  0  0
  4  5  1  0  0  0  0
  4 16  1  0  0  0  0
  4 27  1  0  0  0  0
  5  6  2  0  0  0  0
  5  7  1  0  0  0  0
  7  8  1  0  0  0  0
  7 28  1  0  0  0  0
  8  9  1  0  0  0  0
  8 29  1  0  0  0  0
  8 30  1  0  0  0  0
  9 10  1  0  0  0  0
  9 31  1  0  0  0  0
  9 32  1  0  0  0  0
 10 14  1  0  0  0  0
 10 11  2  0  0  0  0
 11 12  1  0  0  0  0
 12 13  2  0  0  0  0
 12 33  1  0  0  0  0
 13 14  1  0  0  0  0
 13 34  1  0  0  0  0
 14 15  1  0  0  0  0
 15 35  1  0  0  0  0
 15 36  1  0  0  0  0
 15 37  1  0  0  0  0
 16 17  1  0  0  0  0
 16 38  1  0  0  0  0
 16 39  1  0  0  0  0
 17 18  1  0  0  0  0
 17 19  1  0  0  0  0
 17 20  1  0  0  0  0
 18 40  1  0  0  0  0
 18 41  1  0  0  0  0
 18 42  1  0  0  0  0
 19 43  1  0  0  0  0
 19 44  1  0  0  0  0
 19 45  1  0  0  0  0
 20 46  1  0  0  0  0
 20 47  1  0  0  0  0
M  END
> <s_m_source_file>
AV-unprocessed.smi

> <i_m_source_file_index>
2473

> <i_lp_mmshare_version>
43012

> <i_f3d_flags>
0

> <s_epik_input>
W0NIM11bQ0BASF0oW0NIMl0xKVtDSDJdW0NASF0oW0NIMl1DMShbQ0gzXSlbQ0gzXSlDKD1PKVtOSF1bQ0gyXVtDSDJdYzJuW2NIXVtjSF1uMltDSDNd

> <s_epik_cmdline>
J2VwaWtfcHl0aG9uJywgJy1waCcsICc3LjAnLCAnLXRuJywgJzgnLCAnLW1hJywgJzIwMCcsICctbWV0YWxfYmluZGluZycsICctaW1hZScsICc8aW5maWxlLm1hZT4nLCAnLW9tYWUnLCAnPG91dGZpbGUubWFlPic=

> <r_lp_tautomer_probability>
1

> <r_epik_Ionization_Penalty>
1.22858

> <r_epik_Ionization_Penalty_Charging>
1.22858

> <r_epik_Ionization_Penalty_Neutral>
2.12671e-08

> <r_epik_State_Penalty>
1.2965

> <r_epik_Charging_Adjusted_Penalty>
2.52508

> <i_epik_Tot_Q>
0

> <i_epik_Tot_abs_Q>
0

> <r_epik_Metal_State_Penalty>
0.411461

> <b_epik_Metal_Only>
0

> <s_lp_Force_Field>
OPLS_2005

> <r_lp_Energy>
12.8127

> <b_lp_Chiralities_Consistent>
1

> <s_lp_Variant>
AV-unprocessed.smi:2473-7

> <Gold.Version>
5.8.1

> <Gold.Id.Protein>
6NUR|6NUR_protein|mol2

> <Gold.PLP.Fitness>
47.9280

> <Gold.PLP.PLP>
-45.9363

> <Gold.PLP.part.hbond>
-1.0000

> <Gold.PLP.part.metal>
0.0000

> <Gold.PLP.part.buried>
-5.3903

> <Gold.PLP.part.nonpolar>
-39.7537

> <Gold.PLP.part.repulsive>
0.1720

> <Gold.PLP.ligand.clash>
0.0000

> <Gold.PLP.ligand.torsion>
0.4991

> <Gold.PLP.Chemscore.Hbond>
0.9913

> <Gold.PLP.Chemscore.CHOScore>
0.0000

> <Gold.PLP.Chemscore.Metal>
0.0000

> <Gold.Chemscore.Hbonds>
donor molecule, donor type, donor heavy atom, donor atom, acceptor molecule, acceptor atom, score
      L1  H     7    28       P1  8028  0.99

> <Gold.PLP.Chemscore.Internal.Correction>
0.0160

> <Gold.Rescore>
     Score         DG    S(hbond)    S(metal)    S(lipo)     H(rot)  DE(clash)    DE(int)     intcor
     17.50     -19.54       0.97        0.00     125.60       1.51       1.55       0.49       ----

> <Gold.Chemscore.Fitness>
17.4961

> <Gold.Chemscore.DG>
-19.5351

> <Gold.Chemscore.ZeroCoef>
-5.4800

> <Gold.Chemscore.Hbond>
0.9665

> <Gold.Chemscore.Metal>
0.0000

> <Gold.Chemscore.Lipo>
125.5972

> <Gold.Chemscore.Internal_Hbond>
0.0000

> <Gold.Chemscore.DEClash>
1.5507

> <Gold.Chemscore.DEInternal>
0.4883

> <Gold.Chemscore.Rot>
1.5109

> <Gold.Chemscore.Internal.Correction>
   9.000000E+99

> <Gold.Chemscore.Hbonds>
donor molecule, donor type, donor heavy atom, donor atom, acceptor molecule, acceptor atom, score
      L1  H     7    28       P1  8028  0.91

> <Gold.Chemscore.Hbond.Weighted>
-3.2282

> <Gold.Chemscore.Metal.Weighted>
-0.0000

> <Gold.Chemscore.Lipo.Weighted>
-14.6949

> <Gold.Chemscore.Internal_Hbond.Weighted>
0.0000

> <Gold.Chemscore.DEClash.Weighted>
1.5507

> <Gold.Chemscore.DEInternal.Weighted>
0.4883

> <Gold.Chemscore.Rot.Weighted>
3.8680

> <Gold.Chemscore.Internal.Correction.Weighted>
   9.000000E+99

> <Gold.Protein.RotatedTorsions>
[ 6907 6896 6895 6894 ] final -176.14 input  -60.11 | X-H torsion
[ 7974 7965 7964 7962 ] final -140.64 input  175.53 | X-H torsion
[ 8008 7997 7996 7995 ] final -142.32 input   59.86 | X-H torsion
[ 10167 10162 10161 10158 ] final -156.85 input  -65.29 | X-H torsion
[ 10718 10713 10712 10709 ] final   -3.13 input   66.30 | X-H torsion
[ 10763 10752 10751 10750 ] final -154.62 input  -60.55 | X-H torsion
[ 11005 11000 10999 10996 ] final  -54.34 input  -57.11 | X-H torsion

> <Gold.Protein.ActiveResidues>
 VAL166  LYS551  ARG553  GLY616  TRP617  ASP618  TYR619  PRO620  LYS621  CYS622 
 ASP623  PHE694  ASN695  SER759  ASP760  ASP761  ALA762  ILE779  LEU786  VAL792 
 PHE793  MET794  SER795  GLU796  ALA797  LYS798  CYS799  TRP800  GLU811  SER814 

> <Gold.Protein.RotatedAtoms>
  151.5999  133.3357  159.3044 H   0  0  0  0  0  0  0  0  0  0  0  0  # atno 6907 bound_to 6896
  150.8213  134.7426  159.6786 H   0  0  0  0  0  0  0  0  0  0  0  0  # atno 6908 bound_to 6896
  152.4306  134.5790  159.9994 H   0  0  0  0  0  0  0  0  0  0  0  0  # atno 6909 bound_to 6896
  144.8581  140.6176  143.5346 H   0  0  0  0  0  0  0  0  0  0  0  0  # atno 7974 bound_to 7965
  155.4923  140.0569  157.2952 H   0  0  0  0  0  0  0  0  0  0  0  0  # atno 8008 bound_to 7997
  154.4618  140.2000  156.0174 H   0  0  0  0  0  0  0  0  0  0  0  0  # atno 8009 bound_to 7997
  156.0904  140.3234  155.7813 H   0  0  0  0  0  0  0  0  0  0  0  0  # atno 8010 bound_to 7997
  139.6817  143.9569  152.2340 H   0  0  0  0  0  0  0  0  0  0  0  0  # atno 10167 bound_to 10162
  156.7806  130.5329  149.5751 H   0  0  0  0  0  0  0  0  0  0  0  0  # atno 10718 bound_to 10713
  154.7846  135.3186  154.7915 H   0  0  0  0  0  0  0  0  0  0  0  0  # atno 10763 bound_to 10752
  153.8618  135.6852  153.4786 H   0  0  0  0  0  0  0  0  0  0  0  0  # atno 10764 bound_to 10752
  153.1493  135.4706  154.9551 H   0  0  0  0  0  0  0  0  0  0  0  0  # atno 10765 bound_to 10752
  141.1021  133.6617  156.4306 H   0  0  0  0  0  0  0  0  0  0  0  0  # atno 11005 bound_to 11000
  145.4366  139.1541  143.3993 LP  0  0  0  0  0  0  0  0  0  0  0  0  # atno 17320 bound_to 7965
  146.2839  140.4485  142.8765 LP  0  0  0  0  0  0  0  0  0  0  0  0  # atno 17321 bound_to 7965
  139.9361  144.6711  150.8313 LP  0  0  0  0  0  0  0  0  0  0  0  0  # atno 17342 bound_to 10162
  140.7654  143.3276  151.2482 LP  0  0  0  0  0  0  0  0  0  0  0  0  # atno 17343 bound_to 10162
  156.1221  130.6117  151.0208 LP  0  0  0  0  0  0  0  0  0  0  0  0  # atno 17370 bound_to 10713
  157.6648  131.0874  150.7754 LP  0  0  0  0  0  0  0  0  0  0  0  0  # atno 17371 bound_to 10713
  140.4996  134.6498  157.5243 LP  0  0  0  0  0  0  0  0  0  0  0  0  # atno 17394 bound_to 11000
  139.9876  134.7036  155.9746 LP  0  0  0  0  0  0  0  0  0  0  0  0  # atno 17395 bound_to 11000

$$$$
