AV-unprocessed.smi:196|AV-procd|sdf|1536|dock5
  -GOLD-   2262019393D 1   1.00000     0.00000
 Structure written by MMmdl.
 47 50  0  0  0  0  0  0  0  0  1 V2000
  146.5615  142.0680  155.6829 C   0  0  0  0  0  0  0  0  0  0  0  0
  147.2329  141.4496  154.4464 C   0  0  2  0  0  0  0  0  0  0  0  0
  146.3111  140.5287  153.8680 O   0  0  0  0  0  0  0  0  0  0  0  0
  147.0362  139.4865  153.2401 C   0  0  0  0  0  0  0  0  0  0  0  0
  148.1666  139.2355  154.2258 C   0  0  0  0  0  0  0  0  0  0  0  0
  148.5403  140.6419  154.6867 C   0  0  1  0  0  0  0  0  0  0  0  0
  149.5228  141.1442  153.7958 O   0  0  0  0  0  0  0  0  0  0  0  0
  149.1281  140.6889  156.1215 C   0  0  0  0  0  0  0  0  0  0  0  0
  148.5800  139.6713  157.0062 N   0  0  0  0  0  0  0  0  0  0  0  0
  147.2499  139.4270  157.2541 C   0  0  0  0  0  0  0  0  0  0  0  0
  147.0122  138.4549  158.0898 N   0  0  0  0  0  0  0  0  0  0  0  0
  148.2707  137.9767  158.4419 C   0  0  0  0  0  0  0  0  0  0  0  0
  148.7516  136.9369  159.2967 C   0  0  0  0  0  0  0  0  0  0  0  0
  147.9730  136.0918  160.0286 N   0  0  0  0  0  0  0  0  0  0  0  0
  147.7045  136.3085  161.4479 C   0  0  0  0  0  0  0  0  0  0  0  0
  146.8667  135.1101  161.8977 C   0  0  2  0  0  0  0  0  0  0  0  0
  147.6623  134.1686  162.4075 F   0  0  0  0  0  0  0  0  0  0  0  0
  146.2337  134.6127  160.5978 C   0  0  0  0  0  0  0  0  0  0  0  0
  147.2774  134.9146  159.5070 C   0  0  2  0  0  0  0  0  0  0  0  0
  148.2249  133.7231  159.2714 C   0  0  0  0  0  0  0  0  0  0  0  0
  148.0294  132.6439  160.0325 N   0  0  0  0  0  0  0  0  0  0  0  0
  149.1161  133.7695  158.4248 O   0  0  0  0  0  0  0  0  0  0  0  0
  150.1005  136.7868  159.3816 N   0  0  0  0  0  0  0  0  0  0  0  0
  150.9233  137.5746  158.6856 C   0  0  0  0  0  0  0  0  0  0  0  0
  150.6172  138.5694  157.8536 N   0  0  0  0  0  0  0  0  0  0  0  0
  149.2677  138.7385  157.7633 C   0  0  0  0  0  0  0  0  0  0  0  0
  146.1340  135.3639  162.6641 H   0  0  0  0  0  0  0  0  0  0  0  0
  146.7541  135.1552  158.5813 H   0  0  0  0  0  0  0  0  0  0  0  0
  147.2124  142.7952  156.1683 H   0  0  0  0  0  0  0  0  0  0  0  0
  146.2914  141.3068  156.4154 H   0  0  0  0  0  0  0  0  0  0  0  0
  145.6457  142.5882  155.4019 H   0  0  0  0  0  0  0  0  0  0  0  0
  147.4050  142.2438  153.7173 H   0  0  0  0  0  0  0  0  0  0  0  0
  146.4156  138.6057  153.0750 H   0  0  0  0  0  0  0  0  0  0  0  0
  147.4192  139.8289  152.2775 H   0  0  0  0  0  0  0  0  0  0  0  0
  147.7746  138.6580  155.0636 H   0  0  0  0  0  0  0  0  0  0  0  0
  148.9979  138.6745  153.7961 H   0  0  0  0  0  0  0  0  0  0  0  0
  150.3162  140.6443  153.9129 H   0  0  0  0  0  0  0  0  0  0  0  0
  150.2113  140.5646  156.0930 H   0  0  0  0  0  0  0  0  0  0  0  0
  148.9414  141.6601  156.5798 H   0  0  0  0  0  0  0  0  0  0  0  0
  146.4567  140.0005  156.7967 H   0  0  0  0  0  0  0  0  0  0  0  0
  148.6209  136.3969  162.0334 H   0  0  0  0  0  0  0  0  0  0  0  0
  147.1357  137.2322  161.5623 H   0  0  0  0  0  0  0  0  0  0  0  0
  145.9398  133.5631  160.6482 H   0  0  0  0  0  0  0  0  0  0  0  0
  145.3298  135.1895  160.3968 H   0  0  0  0  0  0  0  0  0  0  0  0
  148.6240  131.8353  159.9245 H   0  0  0  0  0  0  0  0  0  0  0  0
  147.2881  132.6434  160.7181 H   0  0  0  0  0  0  0  0  0  0  0  0
  151.9778  137.3783  158.8129 H   0  0  0  0  0  0  0  0  0  0  0  0
  1  2  1  0  0  0  0
  1 29  1  0  0  0  0
  1 30  1  0  0  0  0
  1 31  1  0  0  0  0
  2  6  1  0  0  0  0
  2  3  1  0  0  0  0
  2 32  1  0  0  0  0
  3  4  1  0  0  0  0
  4  5  1  0  0  0  0
  4 33  1  0  0  0  0
  4 34  1  0  0  0  0
  5  6  1  0  0  0  0
  5 35  1  0  0  0  0
  5 36  1  0  0  0  0
  6  7  1  0  0  0  0
  6  8  1  0  0  0  0
  7 37  1  0  0  0  0
  8  9  1  0  0  0  0
  8 38  1  0  0  0  0
  8 39  1  0  0  0  0
  9 26  1  0  0  0  0
  9 10  1  0  0  0  0
 10 11  2  0  0  0  0
 10 40  1  0  0  0  0
 11 12  1  0  0  0  0
 12 26  2  0  0  0  0
 12 13  1  0  0  0  0
 13 14  1  0  0  0  0
 13 23  2  0  0  0  0
 14 19  1  0  0  0  0
 14 15  1  0  0  0  0
 15 16  1  0  0  0  0
 15 41  1  0  0  0  0
 15 42  1  0  0  0  0
 16 27  1  0  0  0  0
 16 17  1  0  0  0  0
 16 18  1  0  0  0  0
 18 19  1  0  0  0  0
 18 43  1  0  0  0  0
 18 44  1  0  0  0  0
 19 28  1  0  0  0  0
 19 20  1  0  0  0  0
 20 21  1  0  0  0  0
 20 22  2  0  0  0  0
 21 45  1  0  0  0  0
 21 46  1  0  0  0  0
 23 24  1  0  0  0  0
 24 25  2  0  0  0  0
 24 47  1  0  0  0  0
 25 26  1  0  0  0  0
M  END
> <s_m_source_file>
AV-unprocessed.smi

> <i_m_source_file_index>
196

> <i_lp_mmshare_version>
43012

> <i_f3d_flags>
0

> <s_epik_input>
W0NIMl0xW0NIMl1PW0NAQEhdKFtDSDNdKVtDQEBdMShbT0hdKVtDSDJdbihbY0hdbjIpYyhjMjMpbltjSF1uYzNONFtDSDJdW0NASF0oRilbQ0gyXVtDQEhdNEMoPU8pW05IMl0=

> <s_epik_cmdline>
J2VwaWtfcHl0aG9uJywgJy1waCcsICc3LjAnLCAnLXRuJywgJzgnLCAnLW1hJywgJzIwMCcsICctbWV0YWxfYmluZGluZycsICctaW1hZScsICc8aW5maWxlLm1hZT4nLCAnLW9tYWUnLCAnPG91dGZpbGUubWFlPic=

> <r_lp_tautomer_probability>
1

> <r_epik_Ionization_Penalty>
0.000857933

> <r_epik_Ionization_Penalty_Charging>
0

> <r_epik_Ionization_Penalty_Neutral>
0.000857933

> <r_epik_State_Penalty>
0.000462053

> <r_epik_Charging_Adjusted_Penalty>
0.000462053

> <i_epik_Tot_Q>
0

> <i_epik_Tot_abs_Q>
0

> <r_epik_Metal_State_Penalty>
-0

> <b_epik_Metal_Only>
0

> <s_lp_Force_Field>
OPLS_2005

> <r_lp_Energy>
42.9342

> <b_lp_Chiralities_Consistent>
1

> <s_lp_Variant>
AV-unprocessed.smi:196-9

> <Gold.Version>
5.8.1

> <Gold.Id.Protein>
6NUR|6NUR_protein|mol2

> <Gold.PLP.Fitness>
38.9827

> <Gold.PLP.PLP>
-35.6545

> <Gold.PLP.part.hbond>
-4.9397

> <Gold.PLP.part.metal>
0.0000

> <Gold.PLP.part.buried>
-4.9576

> <Gold.PLP.part.nonpolar>
-26.0354

> <Gold.PLP.part.repulsive>
0.2596

> <Gold.PLP.ligand.clash>
0.9374

> <Gold.PLP.ligand.torsion>
2.0343

> <Gold.PLP.Chemscore.Hbond>
2.7680

> <Gold.PLP.Chemscore.CHOScore>
0.0000

> <Gold.PLP.Chemscore.Metal>
0.0000

> <Gold.Chemscore.Hbonds>
donor molecule, donor type, donor heavy atom, donor atom, acceptor molecule, acceptor atom, score
      P1  H  6896  6907       L1    23  0.76
      P1  H  6896  6909       L1    22  0.83
      P1  H  8011  8017       L1     7  0.90

> <Gold.PLP.Chemscore.Internal.Correction>
0.0302

> <Gold.Rescore>
     Score         DG    S(hbond)    S(metal)    S(lipo)     H(rot)  DE(clash)    DE(int)     intcor
      8.38     -11.78       1.89        0.00      56.64       2.60       0.05       3.35       ----

> <Gold.Chemscore.Fitness>
8.3840

> <Gold.Chemscore.DG>
-11.7828

> <Gold.Chemscore.ZeroCoef>
-5.4800

> <Gold.Chemscore.Hbond>
1.8933

> <Gold.Chemscore.Metal>
0.0000

> <Gold.Chemscore.Lipo>
56.6399

> <Gold.Chemscore.Internal_Hbond>
0.0000

> <Gold.Chemscore.DEClash>
0.0472

> <Gold.Chemscore.DEInternal>
3.3516

> <Gold.Chemscore.Rot>
2.5968

> <Gold.Chemscore.Internal.Correction>
   9.000000E+99

> <Gold.Chemscore.Hbonds>
donor molecule, donor type, donor heavy atom, donor atom, acceptor molecule, acceptor atom, score
      P1  H  6896  6907       L1    23  0.29
      P1  H  6896  6909       L1    22  0.63
      P1  H  8011  8017       L1     7  0.57

> <Gold.Chemscore.Hbond.Weighted>
-6.3237

> <Gold.Chemscore.Metal.Weighted>
-0.0000

> <Gold.Chemscore.Lipo.Weighted>
-6.6269

> <Gold.Chemscore.Internal_Hbond.Weighted>
0.0000

> <Gold.Chemscore.DEClash.Weighted>
0.0472

> <Gold.Chemscore.DEInternal.Weighted>
3.3516

> <Gold.Chemscore.Rot.Weighted>
6.6477

> <Gold.Chemscore.Internal.Correction.Weighted>
   9.000000E+99

> <Gold.Protein.RotatedTorsions>
[ 6907 6896 6895 6894 ] final  -12.37 input  -60.11 | X-H torsion
[ 7974 7965 7964 7962 ] final   21.36 input  175.53 | X-H torsion
[ 8008 7997 7996 7995 ] final   80.75 input   59.86 | X-H torsion
[ 10167 10162 10161 10158 ] final  -28.30 input  -65.29 | X-H torsion
[ 10718 10713 10712 10709 ] final    9.47 input   66.30 | X-H torsion
[ 10763 10752 10751 10750 ] final -138.56 input  -60.55 | X-H torsion
[ 11005 11000 10999 10996 ] final   98.20 input  -57.11 | X-H torsion

> <Gold.Protein.ActiveResidues>
 VAL166  LYS551  ARG553  GLY616  TRP617  ASP618  TYR619  PRO620  LYS621  CYS622 
 ASP623  PHE694  ASN695  SER759  ASP760  ASP761  ALA762  ILE779  LEU786  VAL792 
 PHE793  MET794  SER795  GLU796  ALA797  LYS798  CYS799  TRP800  GLU811  SER814 

> <Gold.Protein.RotatedAtoms>
  151.3716  135.0923  159.9467 H   0  0  0  0  0  0  0  0  0  0  0  0  # atno 6907 bound_to 6896
  152.5134  133.9159  159.7521 H   0  0  0  0  0  0  0  0  0  0  0  0  # atno 6908 bound_to 6896
  150.9574  133.6428  159.2790 H   0  0  0  0  0  0  0  0  0  0  0  0  # atno 6909 bound_to 6896
  146.2074  139.8037  142.8715 H   0  0  0  0  0  0  0  0  0  0  0  0  # atno 7974 bound_to 7965
  155.8877  140.3440  155.5933 H   0  0  0  0  0  0  0  0  0  0  0  0  # atno 8008 bound_to 7997
  155.7647  140.0837  157.2157 H   0  0  0  0  0  0  0  0  0  0  0  0  # atno 8009 bound_to 7997
  154.4030  140.1529  156.2860 H   0  0  0  0  0  0  0  0  0  0  0  0  # atno 8010 bound_to 7997
  140.7271  143.4021  151.1247 H   0  0  0  0  0  0  0  0  0  0  0  0  # atno 10167 bound_to 10162
  156.9668  130.5954  149.5666 H   0  0  0  0  0  0  0  0  0  0  0  0  # atno 10718 bound_to 10713
  154.8633  135.3608  154.5404 H   0  0  0  0  0  0  0  0  0  0  0  0  # atno 10763 bound_to 10752
  153.6026  135.7012  153.5383 H   0  0  0  0  0  0  0  0  0  0  0  0  # atno 10764 bound_to 10752
  153.3278  135.4133  155.1431 H   0  0  0  0  0  0  0  0  0  0  0  0  # atno 10765 bound_to 10752
  139.8773  134.9038  156.4421 H   0  0  0  0  0  0  0  0  0  0  0  0  # atno 11005 bound_to 11000
  145.3269  141.0257  143.3469 LP  0  0  0  0  0  0  0  0  0  0  0  0  # atno 17320 bound_to 7965
  144.8827  139.4882  143.6715 LP  0  0  0  0  0  0  0  0  0  0  0  0  # atno 17321 bound_to 7965
  139.7643  143.8589  152.3107 LP  0  0  0  0  0  0  0  0  0  0  0  0  # atno 17342 bound_to 10162
  139.8485  144.7176  150.9242 LP  0  0  0  0  0  0  0  0  0  0  0  0  # atno 17343 bound_to 10162
  156.0299  130.5391  150.8507 LP  0  0  0  0  0  0  0  0  0  0  0  0  # atno 17370 bound_to 10713
  157.5620  131.0946  150.9545 LP  0  0  0  0  0  0  0  0  0  0  0  0  # atno 17371 bound_to 10713
  140.8992  133.7792  155.9661 LP  0  0  0  0  0  0  0  0  0  0  0  0  # atno 17394 bound_to 11000
  140.8669  134.2773  157.5209 LP  0  0  0  0  0  0  0  0  0  0  0  0  # atno 17395 bound_to 11000

$$$$
