AV-unprocessed.smi:970|AV-procd|sdf|4292|dock1
  -GOLD-   22720 2193D 1   1.00000     0.00000
 Structure written by MMmdl.
 31 31  0  0  0  0  0  0  0  0  1 V2000
  146.6070  138.7335  152.0390 C   0  0  0  0  0  0  0  0  0  0  0  0
  147.0933  140.0070  152.5468 N   0  0  0  0  0  0  0  0  0  0  0  0
  147.6579  140.1726  153.7513 C   0  0  0  0  0  0  0  0  0  0  0  0
  147.8092  139.2513  154.5558 O   0  0  0  0  0  0  0  0  0  0  0  0
  148.1041  141.6018  154.1024 C   0  0  1  0  0  0  0  0  0  0  0  0
  146.8595  142.5048  154.0935 C   0  0  0  0  0  0  0  0  0  0  0  0
  148.6787  141.6380  155.4456 N   0  0  0  0  0  0  0  0  0  0  0  0
  149.8292  141.0511  155.8142 C   0  0  0  0  0  0  0  0  0  0  0  0
  150.5623  140.4549  155.0242 O   0  0  0  0  0  0  0  0  0  0  0  0
  150.1906  141.1485  157.3043 C   0  0  2  0  0  0  0  0  0  0  0  0
  150.3781  142.6035  157.7807 C   0  0  0  0  0  0  0  0  0  0  0  0
  151.3551  140.3181  157.5880 N   0  0  0  0  0  0  0  0  0  0  0  0
  152.4939  140.6243  158.2136 C   0  0  0  0  0  0  0  0  0  0  0  0
  153.3271  139.6023  158.3484 N   0  0  0  0  0  0  0  0  0  0  0  0
  152.5826  138.6224  157.7562 C   0  0  0  0  0  0  0  0  0  0  0  0
  151.3898  138.9946  157.2925 N   0  0  0  0  0  0  0  0  0  0  0  0
  146.1981  138.8644  151.0370 H   0  0  0  0  0  0  0  0  0  0  0  0
  145.8194  138.3351  152.6800 H   0  0  0  0  0  0  0  0  0  0  0  0
  147.4154  138.0031  151.9846 H   0  0  0  0  0  0  0  0  0  0  0  0
  147.0018  140.8115  151.9434 H   0  0  0  0  0  0  0  0  0  0  0  0
  148.8289  141.9657  153.3711 H   0  0  0  0  0  0  0  0  0  0  0  0
  146.3854  142.5162  153.1113 H   0  0  0  0  0  0  0  0  0  0  0  0
  147.1250  143.5343  154.3357 H   0  0  0  0  0  0  0  0  0  0  0  0
  146.1134  142.1780  154.8197 H   0  0  0  0  0  0  0  0  0  0  0  0
  148.1348  142.1030  156.1577 H   0  0  0  0  0  0  0  0  0  0  0  0
  149.3555  140.7305  157.8687 H   0  0  0  0  0  0  0  0  0  0  0  0
  149.4747  143.1906  157.6131 H   0  0  0  0  0  0  0  0  0  0  0  0
  151.1972  143.1037  157.2625 H   0  0  0  0  0  0  0  0  0  0  0  0
  150.5946  142.6371  158.8488 H   0  0  0  0  0  0  0  0  0  0  0  0
  152.7159  141.6147  158.5832 H   0  0  0  0  0  0  0  0  0  0  0  0
  152.9278  137.6028  157.6686 H   0  0  0  0  0  0  0  0  0  0  0  0
  1  2  1  0  0  0  0
  1 17  1  0  0  0  0
  1 18  1  0  0  0  0
  1 19  1  0  0  0  0
  2  3  1  0  0  0  0
  2 20  1  0  0  0  0
  3  4  2  0  0  0  0
  3  5  1  0  0  0  0
  5  6  1  0  0  0  0
  5  7  1  0  0  0  0
  5 21  1  0  0  0  0
  6 22  1  0  0  0  0
  6 23  1  0  0  0  0
  6 24  1  0  0  0  0
  7  8  1  0  0  0  0
  7 25  1  0  0  0  0
  8  9  2  0  0  0  0
  8 10  1  0  0  0  0
 10 11  1  0  0  0  0
 10 12  1  0  0  0  0
 10 26  1  0  0  0  0
 11 27  1  0  0  0  0
 11 28  1  0  0  0  0
 11 29  1  0  0  0  0
 12 16  1  0  0  0  0
 12 13  1  0  0  0  0
 13 14  2  0  0  0  0
 13 30  1  0  0  0  0
 14 15  1  0  0  0  0
 15 16  2  0  0  0  0
 15 31  1  0  0  0  0
M  END
> <s_m_source_file>
AV-unprocessed.smi

> <i_m_source_file_index>
970

> <i_lp_mmshare_version>
43012

> <i_f3d_flags>
0

> <s_epik_input>
W0NIM11bTkhdQyg9TylbQ0BIXShbQ0gzXSlbTkhdQyg9TylbQ0BIXShbQ0gzXSluMVtjSF1uW2NIXW4x

> <s_epik_cmdline>
J2VwaWtfcHl0aG9uJywgJy1waCcsICc3LjAnLCAnLXRuJywgJzgnLCAnLW1hJywgJzIwMCcsICctbWV0YWxfYmluZGluZycsICctaW1hZScsICc8aW5maWxlLm1hZT4nLCAnLW9tYWUnLCAnPG91dGZpbGUubWFlPic=

> <r_lp_tautomer_probability>
1

> <r_epik_Ionization_Penalty>
1.07271e-05

> <r_epik_Ionization_Penalty_Charging>
0

> <r_epik_Ionization_Penalty_Neutral>
1.07271e-05

> <r_epik_State_Penalty>
-0

> <r_epik_Charging_Adjusted_Penalty>
0

> <i_epik_Tot_Q>
0

> <i_epik_Tot_abs_Q>
0

> <r_epik_Metal_State_Penalty>
-0

> <b_epik_Metal_Only>
0

> <s_lp_Force_Field>
OPLS_2005

> <r_lp_Energy>
8.21171

> <b_lp_Chiralities_Consistent>
1

> <s_lp_Variant>
AV-unprocessed.smi:970-2

> <Gold.Version>
5.8.1

> <Gold.Id.Protein>
6NUR|6NUR_protein|mol2

> <Gold.PLP.Fitness>
33.5871

> <Gold.PLP.PLP>
-27.7458

> <Gold.PLP.part.hbond>
-3.7832

> <Gold.PLP.part.metal>
0.0000

> <Gold.PLP.part.buried>
-4.0343

> <Gold.PLP.part.nonpolar>
-20.9027

> <Gold.PLP.part.repulsive>
0.3512

> <Gold.PLP.ligand.clash>
0.0000

> <Gold.PLP.ligand.torsion>
0.1524

> <Gold.PLP.Chemscore.Hbond>
2.0000

> <Gold.PLP.Chemscore.CHOScore>
0.0000

> <Gold.PLP.Chemscore.Metal>
0.0000

> <Gold.Chemscore.Hbonds>
donor molecule, donor type, donor heavy atom, donor atom, acceptor molecule, acceptor atom, score
      P1  H  7989  7998       L1     9  1.00
      P1  H  7997  8008       L1    14  1.00

> <Gold.PLP.Chemscore.Internal.Correction>
0.1460

> <Gold.Rescore>
     Score         DG    S(hbond)    S(metal)    S(lipo)     H(rot)  DE(clash)    DE(int)     intcor
      7.08      -8.67       1.73        0.00      34.56       2.59       0.04       1.55       ----

> <Gold.Chemscore.Fitness>
7.0758

> <Gold.Chemscore.DG>
-8.6707

> <Gold.Chemscore.ZeroCoef>
-5.4800

> <Gold.Chemscore.Hbond>
1.7261

> <Gold.Chemscore.Metal>
0.0000

> <Gold.Chemscore.Lipo>
34.5614

> <Gold.Chemscore.Internal_Hbond>
0.0000

> <Gold.Chemscore.DEClash>
0.0400

> <Gold.Chemscore.DEInternal>
1.5549

> <Gold.Chemscore.Rot>
2.5852

> <Gold.Chemscore.Internal.Correction>
   9.000000E+99

> <Gold.Chemscore.Hbonds>
donor molecule, donor type, donor heavy atom, donor atom, acceptor molecule, acceptor atom, score
      P1  H  7989  7998       L1     9  0.96
      P1  H  7997  8008       L1    14  0.29

> <Gold.Chemscore.Hbond.Weighted>
-5.7652

> <Gold.Chemscore.Metal.Weighted>
-0.0000

> <Gold.Chemscore.Lipo.Weighted>
-4.0437

> <Gold.Chemscore.Internal_Hbond.Weighted>
0.0000

> <Gold.Chemscore.DEClash.Weighted>
0.0400

> <Gold.Chemscore.DEInternal.Weighted>
1.5549

> <Gold.Chemscore.Rot.Weighted>
6.6182

> <Gold.Chemscore.Internal.Correction.Weighted>
   9.000000E+99

> <Gold.Protein.RotatedTorsions>
[ 6907 6896 6895 6894 ] final  107.19 input  -60.11 | X-H torsion
[ 7974 7965 7964 7962 ] final  161.25 input  175.53 | X-H torsion
[ 8008 7997 7996 7995 ] final  -98.58 input   59.86 | X-H torsion
[ 10167 10162 10161 10158 ] final   70.63 input  -65.29 | X-H torsion
[ 10718 10713 10712 10709 ] final   33.45 input   66.30 | X-H torsion
[ 10763 10752 10751 10750 ] final  172.82 input  -60.55 | X-H torsion
[ 11005 11000 10999 10996 ] final  -85.78 input  -57.11 | X-H torsion

> <Gold.Protein.ActiveResidues>
 VAL166  LYS551  ARG553  GLY616  TRP617  ASP618  TYR619  PRO620  LYS621  CYS622 
 ASP623  PHE694  ASN695  SER759  ASP760  ASP761  ALA762  ILE779  LEU786  VAL792 
 PHE793  MET794  SER795  GLU796  ALA797  LYS798  CYS799  TRP800  GLU811  SER814 

> <Gold.Protein.RotatedAtoms>
  152.5164  133.9270  159.7561 H   0  0  0  0  0  0  0  0  0  0  0  0  # atno 6907 bound_to 6896
  150.9629  133.6417  159.2758 H   0  0  0  0  0  0  0  0  0  0  0  0  # atno 6908 bound_to 6896
  151.3656  135.0918  159.9501 H   0  0  0  0  0  0  0  0  0  0  0  0  # atno 6909 bound_to 6896
  144.7695  139.7872  143.6302 H   0  0  0  0  0  0  0  0  0  0  0  0  # atno 7974 bound_to 7965
  154.8032  140.0454  157.1288 H   0  0  0  0  0  0  0  0  0  0  0  0  # atno 8008 bound_to 7997
  154.9455  140.3058  155.5080 H   0  0  0  0  0  0  0  0  0  0  0  0  # atno 8009 bound_to 7997
  156.2964  140.2297  156.4528 H   0  0  0  0  0  0  0  0  0  0  0  0  # atno 8010 bound_to 7997
  140.0549  144.5281  150.7336 H   0  0  0  0  0  0  0  0  0  0  0  0  # atno 10167 bound_to 10162
  157.2980  130.7336  149.6650 H   0  0  0  0  0  0  0  0  0  0  0  0  # atno 10718 bound_to 10713
  154.4314  135.2760  155.1909 H   0  0  0  0  0  0  0  0  0  0  0  0  # atno 10763 bound_to 10752
  154.3814  135.6087  153.5796 H   0  0  0  0  0  0  0  0  0  0  0  0  # atno 10764 bound_to 10752
  152.9836  135.5881  154.4626 H   0  0  0  0  0  0  0  0  0  0  0  0  # atno 10765 bound_to 10752
  141.1637  133.7418  156.9065 H   0  0  0  0  0  0  0  0  0  0  0  0  # atno 11005 bound_to 11000
  146.1830  139.5032  142.9854 LP  0  0  0  0  0  0  0  0  0  0  0  0  # atno 17320 bound_to 7965
  145.6367  141.0293  143.1834 LP  0  0  0  0  0  0  0  0  0  0  0  0  # atno 17321 bound_to 7965
  140.7199  143.2579  151.4311 LP  0  0  0  0  0  0  0  0  0  0  0  0  # atno 17342 bound_to 10162
  139.5930  144.1458  152.2111 LP  0  0  0  0  0  0  0  0  0  0  0  0  # atno 17343 bound_to 10162
  155.9670  130.4288  150.4806 LP  0  0  0  0  0  0  0  0  0  0  0  0  # atno 17370 bound_to 10713
  157.2782  131.0601  151.2215 LP  0  0  0  0  0  0  0  0  0  0  0  0  # atno 17371 bound_to 10713
  140.1546  134.9207  157.2637 LP  0  0  0  0  0  0  0  0  0  0  0  0  # atno 17394 bound_to 11000
  140.2682  134.3491  155.7382 LP  0  0  0  0  0  0  0  0  0  0  0  0  # atno 17395 bound_to 11000

$$$$
