AV-unprocessed.smi:278|AV-procd|sdf|2089|dock6
  -GOLD-   2262021363D 1   1.00000     0.00000
 Structure written by MMmdl.
 50 54  0  0  0  0  0  0  0  0  1 V2000
  151.0960  139.4152  154.4081 O   0  0  0  0  0  0  0  0  0  0  0  0
  151.1946  139.9482  155.7758 S   0  0  0  0  0  0  0  0  0  0  0  0
  152.4663  139.9155  156.5136 O   0  0  0  0  0  0  0  0  0  0  0  0
  150.5026  141.6356  155.8076 C   0  0  0  0  0  0  0  0  0  0  0  0
  148.9835  141.4271  155.7876 C   0  0  0  0  0  0  0  0  0  0  0  0
  148.6225  140.1538  156.5953 C   0  0  1  0  0  0  0  0  0  0  0  0
  147.6021  139.2381  155.9092 C   0  0  0  0  0  0  0  0  0  0  0  0
  147.9595  137.8891  156.3186 N   0  0  0  0  0  0  0  0  0  0  0  0
  147.3852  136.9012  155.5993 C   0  0  0  0  0  0  0  0  0  0  0  0
  147.6782  135.6294  155.9644 N   0  0  0  0  0  0  0  0  0  0  0  0
  147.1424  134.6022  155.2976 C   0  0  0  0  0  0  0  0  0  0  0  0
  146.3056  134.6260  154.2577 N   0  0  0  0  0  0  0  0  0  0  0  0
  146.0104  135.9055  153.8885 C   0  0  0  0  0  0  0  0  0  0  0  0
  146.5011  137.0937  154.4989 C   0  0  0  0  0  0  0  0  0  0  0  0
  145.9796  138.2080  153.8514 N   0  0  0  0  0  0  0  0  0  0  0  0
  145.2261  137.7069  152.9108 C   0  0  0  0  0  0  0  0  0  0  0  0
  145.1881  136.3317  152.8614 N   0  0  0  0  0  0  0  0  0  0  0  0
  144.4374  135.5113  151.9274 C   0  0  0  0  0  0  0  0  0  0  0  0
  145.2348  135.1965  150.6464 C   0  0  2  0  0  0  0  0  0  0  0  0
  144.7070  135.9527  149.5729 O   0  0  0  0  0  0  0  0  0  0  0  0
  145.1806  133.7022  150.2780 C   0  0  1  0  0  0  0  0  0  0  0  0
  145.8560  132.7757  151.2874 C   0  0  0  0  0  0  0  0  0  0  0  0
  145.2256  131.4368  150.9635 C   0  0  0  0  0  0  0  0  0  0  0  0
  143.8348  131.8161  150.4486 C   0  0  0  0  0  0  0  0  0  0  0  0
  143.8397  133.2322  150.2911 O   0  0  0  0  0  0  0  0  0  0  0  0
  149.4121  137.8372  156.3990 C   0  0  0  0  0  0  0  0  0  0  0  0
  149.8488  139.2503  156.8063 C   0  0  1  0  0  0  0  0  0  0  0  0
  148.2431  140.4384  157.5776 H   0  0  0  0  0  0  0  0  0  0  0  0
  150.1631  139.2847  157.8499 H   0  0  0  0  0  0  0  0  0  0  0  0
  150.8172  142.1144  156.7352 H   0  0  0  0  0  0  0  0  0  0  0  0
  150.8732  142.2160  154.9626 H   0  0  0  0  0  0  0  0  0  0  0  0
  148.4552  142.3034  156.1636 H   0  0  0  0  0  0  0  0  0  0  0  0
  148.6768  141.3051  154.7482 H   0  0  0  0  0  0  0  0  0  0  0  0
  146.5826  139.4817  156.2098 H   0  0  0  0  0  0  0  0  0  0  0  0
  147.6613  139.3311  154.8247 H   0  0  0  0  0  0  0  0  0  0  0  0
  147.4244  133.6202  155.6478 H   0  0  0  0  0  0  0  0  0  0  0  0
  144.6760  138.3311  152.2217 H   0  0  0  0  0  0  0  0  0  0  0  0
  144.1618  134.5881  152.4385 H   0  0  0  0  0  0  0  0  0  0  0  0
  143.5049  136.0219  151.6827 H   0  0  0  0  0  0  0  0  0  0  0  0
  146.2749  135.4936  150.7870 H   0  0  0  0  0  0  0  0  0  0  0  0
  144.6372  136.8542  149.8472 H   0  0  0  0  0  0  0  0  0  0  0  0
  145.5987  133.5349  149.2835 H   0  0  0  0  0  0  0  0  0  0  0  0
  146.9427  132.7653  151.1979 H   0  0  0  0  0  0  0  0  0  0  0  0
  145.5998  133.0708  152.3060 H   0  0  0  0  0  0  0  0  0  0  0  0
  145.7909  130.9390  150.1747 H   0  0  0  0  0  0  0  0  0  0  0  0
  145.1904  130.7704  151.8256 H   0  0  0  0  0  0  0  0  0  0  0  0
  143.6238  131.3308  149.4952 H   0  0  0  0  0  0  0  0  0  0  0  0
  143.0526  131.5332  151.1533 H   0  0  0  0  0  0  0  0  0  0  0  0
  149.7211  137.1047  157.1450 H   0  0  0  0  0  0  0  0  0  0  0  0
  149.8508  137.5374  155.4481 H   0  0  0  0  0  0  0  0  0  0  0  0
  1  2  2  0  0  0  0
  2 27  1  0  0  0  0
  2  3  2  0  0  0  0
  2  4  1  0  0  0  0
  4  5  1  0  0  0  0
  4 30  1  0  0  0  0
  4 31  1  0  0  0  0
  5  6  1  0  0  0  0
  5 32  1  0  0  0  0
  5 33  1  0  0  0  0
  6 28  1  0  0  0  0
  6 27  1  0  0  0  0
  6  7  1  0  0  0  0
  7  8  1  0  0  0  0
  7 34  1  0  0  0  0
  7 35  1  0  0  0  0
  8  9  1  0  0  0  0
  8 26  1  0  0  0  0
  9 14  1  0  0  0  0
  9 10  2  0  0  0  0
 10 11  1  0  0  0  0
 11 12  2  0  0  0  0
 11 36  1  0  0  0  0
 12 13  1  0  0  0  0
 13 17  1  0  0  0  0
 13 14  2  0  0  0  0
 14 15  1  0  0  0  0
 15 16  2  0  0  0  0
 16 17  1  0  0  0  0
 16 37  1  0  0  0  0
 17 18  1  0  0  0  0
 18 19  1  0  0  0  0
 18 38  1  0  0  0  0
 18 39  1  0  0  0  0
 19 20  1  0  0  0  0
 19 21  1  0  0  0  0
 19 40  1  0  0  0  0
 20 41  1  0  0  0  0
 21 25  1  0  0  0  0
 21 22  1  0  0  0  0
 21 42  1  0  0  0  0
 22 23  1  0  0  0  0
 22 43  1  0  0  0  0
 22 44  1  0  0  0  0
 23 24  1  0  0  0  0
 23 45  1  0  0  0  0
 23 46  1  0  0  0  0
 24 25  1  0  0  0  0
 24 47  1  0  0  0  0
 24 48  1  0  0  0  0
 26 27  1  0  0  0  0
 26 49  1  0  0  0  0
 26 50  1  0  0  0  0
 27 29  1  0  0  0  0
M  END
> <s_m_source_file>
AV-unprocessed.smi

> <i_m_source_file_index>
278

> <i_lp_mmshare_version>
43012

> <i_f3d_flags>
0

> <s_epik_input>
W0NIMl0xW0NIMl1TKD1PKSg9TylbQ0BASF0oW0NAQEhdMTIpW0NIMl1OKFtDSDJdMiljKG5bY0hdbjMpYyhjMzQpbltjSF1uNFtDSDJdW0NASF0oW09IXSlbQ0BASF01W0NIMl1bQ0gyXVtDSDJdTzU=

> <s_epik_cmdline>
J2VwaWtfcHl0aG9uJywgJy1waCcsICc3LjAnLCAnLXRuJywgJzgnLCAnLW1hJywgJzIwMCcsICctbWV0YWxfYmluZGluZycsICctaW1hZScsICc8aW5maWxlLm1hZT4nLCAnLW9tYWUnLCAnPG91dGZpbGUubWFlPic=

> <r_lp_tautomer_probability>
1

> <r_epik_Ionization_Penalty>
0.000636766

> <r_epik_Ionization_Penalty_Charging>
0

> <r_epik_Ionization_Penalty_Neutral>
0.000636766

> <r_epik_State_Penalty>
0.000329976

> <r_epik_Charging_Adjusted_Penalty>
0.000329976

> <i_epik_Tot_Q>
0

> <i_epik_Tot_abs_Q>
0

> <r_epik_Metal_State_Penalty>
-0

> <b_epik_Metal_Only>
0

> <s_lp_Force_Field>
OPLS_2005

> <r_lp_Energy>
53.1939

> <b_lp_Chiralities_Consistent>
1

> <s_lp_Variant>
AV-unprocessed.smi:278-3

> <Gold.Version>
5.8.1

> <Gold.Id.Protein>
6NUR|6NUR_protein|mol2

> <Gold.PLP.Fitness>
43.2143

> <Gold.PLP.PLP>
-30.4923

> <Gold.PLP.part.hbond>
-4.0000

> <Gold.PLP.part.metal>
0.0000

> <Gold.PLP.part.buried>
-3.7955

> <Gold.PLP.part.nonpolar>
-22.5728

> <Gold.PLP.part.repulsive>
0.5850

> <Gold.PLP.ligand.clash>
0.0000

> <Gold.PLP.ligand.torsion>
1.1430

> <Gold.PLP.Chemscore.Hbond>
3.0000

> <Gold.PLP.Chemscore.CHOScore>
1.9821

> <Gold.PLP.Chemscore.Metal>
0.0000

> <Gold.Chemscore.Hbonds>
donor molecule, donor type, donor heavy atom, donor atom, acceptor molecule, acceptor atom, score
      L1  H    20    41       P1 10171  1.00
      P1  H  7989  7998       L1     1  1.00
      P1  H  7997  8008       L1     3  1.00
      L1  C    16    37       P1 10171  0.96
      L1  C    16    37       P1 10175  1.00

> <Gold.PLP.Chemscore.Internal.Correction>
0.0617

> <Gold.Rescore>
     Score         DG    S(hbond)    S(metal)    S(lipo)     H(rot)  DE(clash)    DE(int)     intcor
     12.98     -15.48       2.71        0.00      62.02       2.46       0.03       2.47       ----

> <Gold.Chemscore.Fitness>
12.9802

> <Gold.Chemscore.DG>
-15.4790

> <Gold.Chemscore.ZeroCoef>
-5.4800

> <Gold.Chemscore.Hbond>
2.7096

> <Gold.Chemscore.Metal>
0.0000

> <Gold.Chemscore.Lipo>
62.0152

> <Gold.Chemscore.Internal_Hbond>
0.0000

> <Gold.Chemscore.DEClash>
0.0323

> <Gold.Chemscore.DEInternal>
2.4666

> <Gold.Chemscore.Rot>
2.4636

> <Gold.Chemscore.Internal.Correction>
   9.000000E+99

> <Gold.Chemscore.Hbonds>
donor molecule, donor type, donor heavy atom, donor atom, acceptor molecule, acceptor atom, score
      L1  H    20    41       P1 10171  0.96
      P1  H  7989  7998       L1     1  0.26
      P1  H  7997  8008       L1     3  1.00

> <Gold.Chemscore.Hbond.Weighted>
-9.0501

> <Gold.Chemscore.Metal.Weighted>
-0.0000

> <Gold.Chemscore.Lipo.Weighted>
-7.2558

> <Gold.Chemscore.Internal_Hbond.Weighted>
0.0000

> <Gold.Chemscore.DEClash.Weighted>
0.0323

> <Gold.Chemscore.DEInternal.Weighted>
2.4666

> <Gold.Chemscore.Rot.Weighted>
6.3068

> <Gold.Chemscore.Internal.Correction.Weighted>
   9.000000E+99

> <Gold.Protein.RotatedTorsions>
[ 6907 6896 6895 6894 ] final  161.47 input  -60.11 | X-H torsion
[ 7974 7965 7964 7962 ] final  135.15 input  175.53 | X-H torsion
[ 8008 7997 7996 7995 ] final  -50.17 input   59.86 | X-H torsion
[ 10167 10162 10161 10158 ] final   13.00 input  -65.29 | X-H torsion
[ 10718 10713 10712 10709 ] final   29.28 input   66.30 | X-H torsion
[ 10763 10752 10751 10750 ] final   -1.85 input  -60.55 | X-H torsion
[ 11005 11000 10999 10996 ] final  133.33 input  -57.11 | X-H torsion

> <Gold.Protein.ActiveResidues>
 VAL166  LYS551  ARG553  GLY616  TRP617  ASP618  TYR619  PRO620  LYS621  CYS622 
 ASP623  PHE694  ASN695  SER759  ASP760  ASP761  ALA762  ILE779  LEU786  VAL792 
 PHE793  MET794  SER795  GLU796  ALA797  LYS798  CYS799  TRP800  GLU811  SER814 

> <Gold.Protein.RotatedAtoms>
  151.9551  133.3678  159.4014 H   0  0  0  0  0  0  0  0  0  0  0  0  # atno 6907 bound_to 6896
  150.6974  134.4299  159.5253 H   0  0  0  0  0  0  0  0  0  0  0  0  # atno 6908 bound_to 6896
  152.1978  134.8614  160.0562 H   0  0  0  0  0  0  0  0  0  0  0  0  # atno 6909 bound_to 6896
  144.9692  139.4624  143.5441 H   0  0  0  0  0  0  0  0  0  0  0  0  # atno 7974 bound_to 7965
  154.4057  140.1279  156.4623 H   0  0  0  0  0  0  0  0  0  0  0  0  # atno 8008 bound_to 7997
  155.7261  140.3492  155.5018 H   0  0  0  0  0  0  0  0  0  0  0  0  # atno 8009 bound_to 7997
  155.9170  140.1046  157.1226 H   0  0  0  0  0  0  0  0  0  0  0  0  # atno 8010 bound_to 7997
  140.6031  143.8563  150.6986 H   0  0  0  0  0  0  0  0  0  0  0  0  # atno 10167 bound_to 10162
  157.2446  130.7085  149.6375 H   0  0  0  0  0  0  0  0  0  0  0  0  # atno 10718 bound_to 10713
  153.3503  135.6985  153.6794 H   0  0  0  0  0  0  0  0  0  0  0  0  # atno 10763 bound_to 10752
  153.5524  135.3551  155.2765 H   0  0  0  0  0  0  0  0  0  0  0  0  # atno 10764 bound_to 10752
  154.8652  135.4229  154.2737 H   0  0  0  0  0  0  0  0  0  0  0  0  # atno 10765 bound_to 10752
  139.9845  134.9537  156.9710 H   0  0  0  0  0  0  0  0  0  0  0  0  # atno 11005 bound_to 11000
  146.3377  139.8893  142.8811 LP  0  0  0  0  0  0  0  0  0  0  0  0  # atno 17320 bound_to 7965
  145.2584  141.0068  143.3840 LP  0  0  0  0  0  0  0  0  0  0  0  0  # atno 17321 bound_to 7965
  140.2114  143.3880  152.1715 LP  0  0  0  0  0  0  0  0  0  0  0  0  # atno 17342 bound_to 10162
  139.5305  144.7154  151.5072 LP  0  0  0  0  0  0  0  0  0  0  0  0  # atno 17343 bound_to 10162
  155.9668  130.4447  150.5472 LP  0  0  0  0  0  0  0  0  0  0  0  0  # atno 17370 bound_to 10713
  157.3343  131.0705  151.1837 LP  0  0  0  0  0  0  0  0  0  0  0  0  # atno 17371 bound_to 10713
  140.5030  134.1079  155.7254 LP  0  0  0  0  0  0  0  0  0  0  0  0  # atno 17394 bound_to 11000
  141.1512  133.8965  157.2092 LP  0  0  0  0  0  0  0  0  0  0  0  0  # atno 17395 bound_to 11000

$$$$
