AV-unprocessed.smi:20|AV-procd|sdf|119|dock7
  -GOLD-   2262015293D 1   1.00000     0.00000
 Structure written by MMmdl.
 57 61  0  0  0  0  0  0  0  0  1 V2000
  143.6294  131.9697  148.3834 O   0  0  0  0  0  0  0  0  0  0  0  0
  144.3754  132.2951  149.3039 C   0  0  0  0  0  0  0  0  0  0  0  0
  144.3783  131.6226  150.6670 C   0  0  0  0  0  0  0  0  0  0  0  0
  145.1715  132.6102  151.5496 C   0  0  2  0  0  0  0  0  0  0  0  0
  146.0358  131.8797  152.6033 C   0  0  0  0  0  0  0  0  0  0  0  0
  146.7302  132.8706  153.5519 C   0  0  0  0  0  0  0  0  0  0  0  0
  145.7088  133.8106  154.2077 C   0  0  0  0  0  0  0  0  0  0  0  0
  144.8936  134.4711  153.1914 N   0  0  0  0  0  0  0  0  0  0  0  0
  144.2435  135.5851  153.6111 C   0  0  0  0  0  0  0  0  0  0  0  0
  144.9503  136.6438  154.0891 N   0  0  0  0  0  0  0  0  0  0  0  0
  144.3176  137.7478  154.4969 C   0  0  0  0  0  0  0  0  0  0  0  0
  143.0074  137.9979  154.5200 N   0  0  0  0  0  0  0  0  0  0  0  0
  142.2914  136.9348  154.0550 C   0  0  0  0  0  0  0  0  0  0  0  0
  142.8257  135.7043  153.5785 C   0  0  0  0  0  0  0  0  0  0  0  0
  141.7936  134.8610  153.1848 N   0  0  0  0  0  0  0  0  0  0  0  0
  140.7117  135.5557  153.4070 C   0  0  0  0  0  0  0  0  0  0  0  0
  140.9164  136.8029  153.9541 N   0  0  0  0  0  0  0  0  0  0  0  0
  139.8911  137.7749  154.2948 C   0  0  0  0  0  0  0  0  0  0  0  0
  138.8993  137.3308  155.4072 C   0  0  1  0  0  0  0  0  0  0  0  0
  139.4835  137.7181  156.7876 C   0  0  0  0  0  0  0  0  0  0  0  0
  140.6282  136.9500  157.0974 O   0  0  0  0  0  0  0  0  0  0  0  0
  137.4615  137.9053  155.2315 C   0  0  1  0  0  0  0  0  0  0  0  0
  136.7533  137.5658  153.9277 C   0  0  0  0  0  0  0  0  0  0  0  0
  135.2893  137.8221  154.2618 C   0  0  0  0  0  0  0  0  0  0  0  0
  135.1498  137.5009  155.6382 O   0  0  0  0  0  0  0  0  0  0  0  0
  136.4345  137.3545  156.2323 C   0  0  0  0  0  0  0  0  0  0  0  0
  144.1926  133.5748  152.2697 C   0  0  0  0  0  0  0  0  0  0  0  0
  146.0229  133.3834  150.5111 C   0  0  0  0  0  0  0  0  0  0  0  0
  145.2868  133.2645  149.2676 N   0  0  0  0  0  0  0  0  0  0  0  0
  143.3661  131.4411  151.0306 H   0  0  0  0  0  0  0  0  0  0  0  0
  144.8863  130.6615  150.5774 H   0  0  0  0  0  0  0  0  0  0  0  0
  145.4037  131.2107  153.1889 H   0  0  0  0  0  0  0  0  0  0  0  0
  146.7797  131.2473  152.1175 H   0  0  0  0  0  0  0  0  0  0  0  0
  147.2825  132.3283  154.3198 H   0  0  0  0  0  0  0  0  0  0  0  0
  147.4653  133.4580  153.0005 H   0  0  0  0  0  0  0  0  0  0  0  0
  145.0512  133.2429  154.8674 H   0  0  0  0  0  0  0  0  0  0  0  0
  146.2309  134.5327  154.8348 H   0  0  0  0  0  0  0  0  0  0  0  0
  144.9519  138.5441  154.8577 H   0  0  0  0  0  0  0  0  0  0  0  0
  139.7269  135.1672  153.1922 H   0  0  0  0  0  0  0  0  0  0  0  0
  140.4153  138.6836  154.5913 H   0  0  0  0  0  0  0  0  0  0  0  0
  139.3379  138.0281  153.3895 H   0  0  0  0  0  0  0  0  0  0  0  0
  138.8203  136.2434  155.3919 H   0  0  0  0  0  0  0  0  0  0  0  0
  139.7409  138.7774  156.8156 H   0  0  0  0  0  0  0  0  0  0  0  0
  138.7691  137.5422  157.5905 H   0  0  0  0  0  0  0  0  0  0  0  0
  140.3949  136.0350  157.0609 H   0  0  0  0  0  0  0  0  0  0  0  0
  137.4929  138.9912  155.3348 H   0  0  0  0  0  0  0  0  0  0  0  0
  137.0721  138.1741  153.0834 H   0  0  0  0  0  0  0  0  0  0  0  0
  136.9015  136.5153  153.6725 H   0  0  0  0  0  0  0  0  0  0  0  0
  135.0475  138.8769  154.1258 H   0  0  0  0  0  0  0  0  0  0  0  0
  134.6106  137.2351  153.6423 H   0  0  0  0  0  0  0  0  0  0  0  0
  136.6027  136.2917  156.4125 H   0  0  0  0  0  0  0  0  0  0  0  0
  136.4704  137.8686  157.1930 H   0  0  0  0  0  0  0  0  0  0  0  0
  143.6376  134.1579  151.5330 H   0  0  0  0  0  0  0  0  0  0  0  0
  143.4584  133.0021  152.8381 H   0  0  0  0  0  0  0  0  0  0  0  0
  146.1806  134.4291  150.7771 H   0  0  0  0  0  0  0  0  0  0  0  0
  147.0027  132.9241  150.3736 H   0  0  0  0  0  0  0  0  0  0  0  0
  145.4667  133.8503  148.4650 H   0  0  0  0  0  0  0  0  0  0  0  0
  1  2  2  0  0  0  0
  2 29  1  0  0  0  0
  2  3  1  0  0  0  0
  3  4  1  0  0  0  0
  3 30  1  0  0  0  0
  3 31  1  0  0  0  0
  4 27  1  0  0  0  0
  4  5  1  0  0  0  0
  4 28  1  0  0  0  0
  5  6  1  0  0  0  0
  5 32  1  0  0  0  0
  5 33  1  0  0  0  0
  6  7  1  0  0  0  0
  6 34  1  0  0  0  0
  6 35  1  0  0  0  0
  7  8  1  0  0  0  0
  7 36  1  0  0  0  0
  7 37  1  0  0  0  0
  8  9  1  0  0  0  0
  8 27  1  0  0  0  0
  9 14  1  0  0  0  0
  9 10  2  0  0  0  0
 10 11  1  0  0  0  0
 11 12  2  0  0  0  0
 11 38  1  0  0  0  0
 12 13  1  0  0  0  0
 13 17  1  0  0  0  0
 13 14  2  0  0  0  0
 14 15  1  0  0  0  0
 15 16  2  0  0  0  0
 16 17  1  0  0  0  0
 16 39  1  0  0  0  0
 17 18  1  0  0  0  0
 18 19  1  0  0  0  0
 18 40  1  0  0  0  0
 18 41  1  0  0  0  0
 19 20  1  0  0  0  0
 19 22  1  0  0  0  0
 19 42  1  0  0  0  0
 20 21  1  0  0  0  0
 20 43  1  0  0  0  0
 20 44  1  0  0  0  0
 21 45  1  0  0  0  0
 22 26  1  0  0  0  0
 22 23  1  0  0  0  0
 22 46  1  0  0  0  0
 23 24  1  0  0  0  0
 23 47  1  0  0  0  0
 23 48  1  0  0  0  0
 24 25  1  0  0  0  0
 24 49  1  0  0  0  0
 24 50  1  0  0  0  0
 25 26  1  0  0  0  0
 26 51  1  0  0  0  0
 26 52  1  0  0  0  0
 27 53  1  0  0  0  0
 27 54  1  0  0  0  0
 28 29  1  0  0  0  0
 28 55  1  0  0  0  0
 28 56  1  0  0  0  0
 29 57  1  0  0  0  0
M  END
> <s_m_source_file>
AV-unprocessed.smi

> <i_m_source_file_index>
20

> <i_lp_mmshare_version>
43012

> <i_f3d_flags>
0

> <s_epik_input>
W0NIMl0xW05IXUMoPU8pW0NIMl1bQ0BAXTEyW0NIMl1bQ0gyXVtDSDJdTihbQ0gyXTIpYyhuW2NIXW4zKWMoYzM0KW5bY0hdbjRbQ0gyXVtDQEhdKFtDSDJdW09IXSlbQ0BASF01W0NIMl1bQ0gyXU9bQ0gyXTU=

> <s_epik_cmdline>
J2VwaWtfcHl0aG9uJywgJy1waCcsICc3LjAnLCAnLXRuJywgJzgnLCAnLW1hJywgJzIwMCcsICctbWV0YWxfYmluZGluZycsICctaW1hZScsICc8aW5maWxlLm1hZT4nLCAnLW9tYWUnLCAnPG91dGZpbGUubWFlPic=

> <r_lp_tautomer_probability>
1

> <r_epik_Ionization_Penalty>
0.0019697

> <r_epik_Ionization_Penalty_Charging>
0

> <r_epik_Ionization_Penalty_Neutral>
0.0019697

> <r_epik_State_Penalty>
0.00113613

> <r_epik_Charging_Adjusted_Penalty>
0.00113613

> <i_epik_Tot_Q>
0

> <i_epik_Tot_abs_Q>
0

> <r_epik_Metal_State_Penalty>
-0

> <b_epik_Metal_Only>
0

> <s_lp_Force_Field>
OPLS_2005

> <r_lp_Energy>
59.3743

> <b_lp_Chiralities_Consistent>
1

> <s_lp_Variant>
AV-unprocessed.smi:20-7

> <Gold.Version>
5.8.1

> <Gold.Id.Protein>
6NUR|6NUR_protein|mol2

> <Gold.PLP.Fitness>
45.6635

> <Gold.PLP.PLP>
-37.3887

> <Gold.PLP.part.hbond>
-2.8028

> <Gold.PLP.part.metal>
0.0000

> <Gold.PLP.part.buried>
-5.6916

> <Gold.PLP.part.nonpolar>
-29.4053

> <Gold.PLP.part.repulsive>
0.9721

> <Gold.PLP.ligand.clash>
0.0000

> <Gold.PLP.ligand.torsion>
0.7738

> <Gold.PLP.Chemscore.Hbond>
2.6473

> <Gold.PLP.Chemscore.CHOScore>
0.4589

> <Gold.PLP.Chemscore.Metal>
0.0000

> <Gold.Chemscore.Hbonds>
donor molecule, donor type, donor heavy atom, donor atom, acceptor molecule, acceptor atom, score
      L1  H    21    45       P1 11000  1.00
      L1  H    29    57       P1  7921  0.73
      P1  H 10785 10796       L1     1  0.59
      L1  C    16    39       P1 10187  0.64

> <Gold.PLP.Chemscore.Internal.Correction>
0.5039

> <Gold.Rescore>
     Score         DG    S(hbond)    S(metal)    S(lipo)     H(rot)  DE(clash)    DE(int)     intcor
     13.62     -15.68       2.55        0.00      74.34       2.74       0.00       2.06       ----

> <Gold.Chemscore.Fitness>
13.6185

> <Gold.Chemscore.DG>
-15.6776

> <Gold.Chemscore.ZeroCoef>
-5.4800

> <Gold.Chemscore.Hbond>
2.5504

> <Gold.Chemscore.Metal>
0.0000

> <Gold.Chemscore.Lipo>
74.3375

> <Gold.Chemscore.Internal_Hbond>
0.0000

> <Gold.Chemscore.DEClash>
0.0008

> <Gold.Chemscore.DEInternal>
2.0583

> <Gold.Chemscore.Rot>
2.7415

> <Gold.Chemscore.Internal.Correction>
   9.000000E+99

> <Gold.Chemscore.Hbonds>
donor molecule, donor type, donor heavy atom, donor atom, acceptor molecule, acceptor atom, score
      L1  H    21    45       P1 11000  0.96
      L1  H    29    57       P1  7921  0.44
      P1  H 10785 10796       L1     1  0.30

> <Gold.Chemscore.Hbond.Weighted>
-8.5183

> <Gold.Chemscore.Metal.Weighted>
-0.0000

> <Gold.Chemscore.Lipo.Weighted>
-8.6975

> <Gold.Chemscore.Internal_Hbond.Weighted>
0.0000

> <Gold.Chemscore.DEClash.Weighted>
0.0008

> <Gold.Chemscore.DEInternal.Weighted>
2.0583

> <Gold.Chemscore.Rot.Weighted>
7.0182

> <Gold.Chemscore.Internal.Correction.Weighted>
   9.000000E+99

> <Gold.Protein.RotatedTorsions>
[ 6907 6896 6895 6894 ] final   15.95 input  -60.11 | X-H torsion
[ 7974 7965 7964 7962 ] final  -52.87 input  175.53 | X-H torsion
[ 8008 7997 7996 7995 ] final   20.81 input   59.86 | X-H torsion
[ 10167 10162 10161 10158 ] final  169.46 input  -65.29 | X-H torsion
[ 10718 10713 10712 10709 ] final  -48.42 input   66.30 | X-H torsion
[ 10763 10752 10751 10750 ] final  156.64 input  -60.55 | X-H torsion
[ 11005 11000 10999 10996 ] final  -56.27 input  -57.11 | X-H torsion

> <Gold.Protein.ActiveResidues>
 VAL166  LYS551  ARG553  GLY616  TRP617  ASP618  TYR619  PRO620  LYS621  CYS622 
 ASP623  PHE694  ASN695  SER759  ASP760  ASP761  ALA762  ILE779  LEU786  VAL792 
 PHE793  MET794  SER795  GLU796  ALA797  LYS798  CYS799  TRP800  GLU811  SER814 

> <Gold.Protein.RotatedAtoms>
  151.8261  135.0636  160.0430 H   0  0  0  0  0  0  0  0  0  0  0  0  # atno 6907 bound_to 6896
  152.2915  133.5561  159.5569 H   0  0  0  0  0  0  0  0  0  0  0  0  # atno 6908 bound_to 6896
  150.7232  134.0338  159.3784 H   0  0  0  0  0  0  0  0  0  0  0  0  # atno 6909 bound_to 6896
  145.9032  140.7977  142.9733 H   0  0  0  0  0  0  0  0  0  0  0  0  # atno 7974 bound_to 7965
  154.9412  140.3053  155.5120 H   0  0  0  0  0  0  0  0  0  0  0  0  # atno 8008 bound_to 7997
  156.2996  140.2336  156.4418 H   0  0  0  0  0  0  0  0  0  0  0  0  # atno 8009 bound_to 7997
  154.8144  140.0427  157.1354 H   0  0  0  0  0  0  0  0  0  0  0  0  # atno 8010 bound_to 7997
  139.4993  144.3704  151.9731 H   0  0  0  0  0  0  0  0  0  0  0  0  # atno 10167 bound_to 10162
  156.1990  130.4155  149.9267 H   0  0  0  0  0  0  0  0  0  0  0  0  # atno 10718 bound_to 10713
  154.1875  135.2796  155.3032 H   0  0  0  0  0  0  0  0  0  0  0  0  # atno 10763 bound_to 10752
  154.5955  135.5546  153.7324 H   0  0  0  0  0  0  0  0  0  0  0  0  # atno 10764 bound_to 10752
  153.0121  135.6379  154.2014 H   0  0  0  0  0  0  0  0  0  0  0  0  # atno 10765 bound_to 10752
  141.1112  133.6610  156.4594 H   0  0  0  0  0  0  0  0  0  0  0  0  # atno 11005 bound_to 11000
  144.6737  140.1709  143.7414 LP  0  0  0  0  0  0  0  0  0  0  0  0  # atno 17320 bound_to 7965
  145.8765  139.2300  143.1630 LP  0  0  0  0  0  0  0  0  0  0  0  0  # atno 17321 bound_to 7965
  140.3140  144.3505  150.6026 LP  0  0  0  0  0  0  0  0  0  0  0  0  # atno 17342 bound_to 10162
  140.5776  143.2175  151.7486 LP  0  0  0  0  0  0  0  0  0  0  0  0  # atno 17343 bound_to 10162
  156.6982  130.8923  151.3596 LP  0  0  0  0  0  0  0  0  0  0  0  0  # atno 17370 bound_to 10713
  157.6974  130.9297  150.0686 LP  0  0  0  0  0  0  0  0  0  0  0  0  # atno 17371 bound_to 10713
  140.4769  134.6701  157.5154 LP  0  0  0  0  0  0  0  0  0  0  0  0  # atno 17394 bound_to 11000
  140.0008  134.6840  155.9534 LP  0  0  0  0  0  0  0  0  0  0  0  0  # atno 17395 bound_to 11000

$$$$
