AV-unprocessed.smi:1260|AV-procd|sdf|5293|dock4
  -GOLD-   22720 4413D 1   1.00000     0.00000
 Structure written by MMmdl.
 37 39  0  0  0  0  0  0  0  0  2 V2000
  149.9591  139.9983  154.3126 O   0  0  0  0  0  0  0  0  0  0  0  0
  149.6356  138.8545  154.6307 C   0  0  0  0  0  0  0  0  0  0  0  0
  150.5844  137.6885  154.3560 C   0  0  0  0  0  0  0  0  0  0  0  0
  151.8696  137.9161  154.9893 N   0  0  0  0  0  0  0  0  0  0  0  0
  152.6821  138.9748  154.9695 C   0  0  0  0  0  0  0  0  0  0  0  0
  153.7638  138.7754  155.7065 N   0  0  0  0  0  0  0  0  0  0  0  0
  153.5764  137.4948  156.1995 N   0  0  0  0  0  0  0  0  0  0  0  0
  152.4535  136.9804  155.7785 N   0  0  0  0  0  0  0  0  0  0  0  0
  148.4604  138.5490  155.2031 N   0  0  0  0  0  0  0  0  0  0  0  0
  147.3968  139.5040  155.5010 C   0  0  2  0  0  0  0  0  0  0  0  0
  146.1994  138.8650  156.2177 C   0  0  0  0  0  0  0  0  0  0  0  0
  144.9555  139.5784  155.6505 C   0  0  0  0  0  0  0  0  0  0  0  0
  145.4458  140.5986  154.6944 N   0  3  1  0  0  0  0  0  0  0  0  0
  145.4879  141.9581  155.3013 C   0  0  0  0  0  0  0  0  0  0  0  0
  146.2139  142.9715  154.4066 C   0  0  0  0  0  0  0  0  0  0  0  0
  147.6381  142.4931  154.1134 C   0  0  0  0  0  0  0  0  0  0  0  0
  147.5816  141.1214  153.4345 C   0  0  0  0  0  0  0  0  0  0  0  0
  146.7580  140.0846  154.2323 C   0  0  1  0  0  0  0  0  0  0  0  0
  150.1533  136.7600  154.7336 H   0  0  0  0  0  0  0  0  0  0  0  0
  150.7365  137.5619  153.2832 H   0  0  0  0  0  0  0  0  0  0  0  0
  152.4798  139.8857  154.4258 H   0  0  0  0  0  0  0  0  0  0  0  0
  148.2846  137.5821  155.4360 H   0  0  0  0  0  0  0  0  0  0  0  0
  147.7755  140.3128  156.1284 H   0  0  0  0  0  0  0  0  0  0  0  0
  146.1356  137.7956  156.0107 H   0  0  0  0  0  0  0  0  0  0  0  0
  146.2787  138.9846  157.2989 H   0  0  0  0  0  0  0  0  0  0  0  0
  144.3390  138.8626  155.1054 H   0  0  0  0  0  0  0  0  0  0  0  0
  144.3306  140.0081  156.4352 H   0  0  0  0  0  0  0  0  0  0  0  0
  144.4675  142.2948  155.4874 H   0  0  0  0  0  0  0  0  0  0  0  0
  145.9831  141.9169  156.2727 H   0  0  0  0  0  0  0  0  0  0  0  0
  145.6652  143.1065  153.4735 H   0  0  0  0  0  0  0  0  0  0  0  0
  146.2418  143.9459  154.8952 H   0  0  0  0  0  0  0  0  0  0  0  0
  148.1513  143.2090  153.4706 H   0  0  0  0  0  0  0  0  0  0  0  0
  148.2145  142.4343  155.0374 H   0  0  0  0  0  0  0  0  0  0  0  0
  147.1263  141.2432  152.4507 H   0  0  0  0  0  0  0  0  0  0  0  0
  148.5896  140.7507  153.2481 H   0  0  0  0  0  0  0  0  0  0  0  0
  146.5460  139.2519  153.5579 H   0  0  0  0  0  0  0  0  0  0  0  0
  144.8195  140.6445  153.9031 H   0  0  0  0  0  0  0  0  0  0  0  0
  1  2  2  0  0  0  0
  2  3  1  0  0  0  0
  2  9  1  0  0  0  0
  3  4  1  0  0  0  0
  3 19  1  0  0  0  0
  3 20  1  0  0  0  0
  4  8  1  0  0  0  0
  4  5  1  0  0  0  0
  5  6  2  0  0  0  0
  5 21  1  0  0  0  0
  6  7  1  0  0  0  0
  7  8  2  0  0  0  0
  9 10  1  0  0  0  0
  9 22  1  0  0  0  0
 10 18  1  0  0  0  0
 10 11  1  0  0  0  0
 10 23  1  0  0  0  0
 11 12  1  0  0  0  0
 11 24  1  0  0  0  0
 11 25  1  0  0  0  0
 12 13  1  0  0  0  0
 12 26  1  0  0  0  0
 12 27  1  0  0  0  0
 13 18  1  0  0  0  0
 13 14  1  0  0  0  0
 13 37  1  0  0  0  0
 14 15  1  0  0  0  0
 14 28  1  0  0  0  0
 14 29  1  0  0  0  0
 15 16  1  0  0  0  0
 15 30  1  0  0  0  0
 15 31  1  0  0  0  0
 16 17  1  0  0  0  0
 16 32  1  0  0  0  0
 16 33  1  0  0  0  0
 17 18  1  0  0  0  0
 17 34  1  0  0  0  0
 17 35  1  0  0  0  0
 18 36  1  0  0  0  0
M  CHG  1  13   1
M  END
> <s_m_source_file>
AV-unprocessed.smi

> <i_m_source_file_index>
1260

> <i_lp_mmshare_version>
43012

> <i_f3d_flags>
0

> <s_epik_input>
bjFubltjSF1uMVtDSDJdQyg9TylbTkhdW0NASF0oW0NIMl1bQ0gyXTIpW0NAQEhdKE4yMylbQ0gyXVtDSDJdW0NIMl1bQ0gyXTM=

> <s_epik_cmdline>
J2VwaWtfcHl0aG9uJywgJy1waCcsICc3LjAnLCAnLXRuJywgJzgnLCAnLW1hJywgJzIwMCcsICctbWV0YWxfYmluZGluZycsICctaW1hZScsICc8aW5maWxlLm1hZT4nLCAnLW9tYWUnLCAnPG91dGZpbGUubWFlPic=

> <r_lp_tautomer_probability>
1

> <r_epik_Ionization_Penalty>
0.00234324

> <r_epik_Ionization_Penalty_Charging>
0.00233897

> <r_epik_Ionization_Penalty_Neutral>
4.26861e-06

> <r_epik_State_Penalty>
0.00161477

> <r_epik_Charging_Adjusted_Penalty>
0.00395374

> <i_epik_Tot_Q>
1

> <i_epik_Tot_abs_Q>
1

> <r_epik_Metal_State_Penalty>
-0

> <b_epik_Metal_Only>
0

> <s_lp_Force_Field>
OPLS_2005

> <r_lp_Energy>
39.6077

> <b_lp_Chiralities_Consistent>
1

> <s_lp_Variant>
AV-unprocessed.smi:1260-1

> <Gold.Version>
5.8.1

> <Gold.Id.Protein>
6NUR|6NUR_protein|mol2

> <Gold.PLP.Fitness>
40.5058

> <Gold.PLP.PLP>
-27.1237

> <Gold.PLP.part.hbond>
-4.5321

> <Gold.PLP.part.metal>
0.0000

> <Gold.PLP.part.buried>
-2.3452

> <Gold.PLP.part.nonpolar>
-20.8053

> <Gold.PLP.part.repulsive>
0.1387

> <Gold.PLP.ligand.clash>
0.0000

> <Gold.PLP.ligand.torsion>
0.1297

> <Gold.PLP.Chemscore.Hbond>
4.5430

> <Gold.PLP.Chemscore.CHOScore>
0.0000

> <Gold.PLP.Chemscore.Metal>
0.0000

> <Gold.Chemscore.Hbonds>
donor molecule, donor type, donor heavy atom, donor atom, acceptor molecule, acceptor atom, score
      L1  H    13    37       P1 10175  2.00
      P1  H  7989  7998       L1     1  0.96
      P1  H  7997  8008       L1     6  0.74
      P1  H 10752 10763       L1     8  0.80

> <Gold.PLP.Chemscore.Internal.Correction>
0.0124

> <Gold.Rescore>
     Score         DG    S(hbond)    S(metal)    S(lipo)     H(rot)  DE(clash)    DE(int)     intcor
     11.40     -15.14       2.98        0.00      40.62       1.98       0.74       3.00       ----

> <Gold.Chemscore.Fitness>
11.4034

> <Gold.Chemscore.DG>
-15.1370

> <Gold.Chemscore.ZeroCoef>
-5.4800

> <Gold.Chemscore.Hbond>
2.9827

> <Gold.Chemscore.Metal>
0.0000

> <Gold.Chemscore.Lipo>
40.6203

> <Gold.Chemscore.Internal_Hbond>
0.0000

> <Gold.Chemscore.DEClash>
0.7378

> <Gold.Chemscore.DEInternal>
2.9958

> <Gold.Chemscore.Rot>
1.9757

> <Gold.Chemscore.Internal.Correction>
   9.000000E+99

> <Gold.Chemscore.Hbonds>
donor molecule, donor type, donor heavy atom, donor atom, acceptor molecule, acceptor atom, score
      L1  H    13    37       P1 10175  0.99
      P1  H  7989  7998       L1     1  0.86
      P1  H  7997  8008       L1     6  0.49
      P1  H 10752 10763       L1     8  0.20

> <Gold.Chemscore.Hbond.Weighted>
-9.9622

> <Gold.Chemscore.Metal.Weighted>
-0.0000

> <Gold.Chemscore.Lipo.Weighted>
-4.7526

> <Gold.Chemscore.Internal_Hbond.Weighted>
0.0000

> <Gold.Chemscore.DEClash.Weighted>
0.7378

> <Gold.Chemscore.DEInternal.Weighted>
2.9958

> <Gold.Chemscore.Rot.Weighted>
5.0578

> <Gold.Chemscore.Internal.Correction.Weighted>
   9.000000E+99

> <Gold.Protein.RotatedTorsions>
[ 6907 6896 6895 6894 ] final -121.50 input  -60.11 | X-H torsion
[ 7974 7965 7964 7962 ] final  -89.56 input  175.53 | X-H torsion
[ 8008 7997 7996 7995 ] final  -23.08 input   59.86 | X-H torsion
[ 10167 10162 10161 10158 ] final   71.94 input  -65.29 | X-H torsion
[ 10718 10713 10712 10709 ] final  -76.66 input   66.30 | X-H torsion
[ 10763 10752 10751 10750 ] final   74.86 input  -60.55 | X-H torsion
[ 11005 11000 10999 10996 ] final  -14.63 input  -57.11 | X-H torsion

> <Gold.Protein.ActiveResidues>
 VAL166  LYS551  ARG553  GLY616  TRP617  ASP618  TYR619  PRO620  LYS621  CYS622 
 ASP623  PHE694  ASN695  SER759  ASP760  ASP761  ALA762  ILE779  LEU786  VAL792 
 PHE793  MET794  SER795  GLU796  ALA797  LYS798  CYS799  TRP800  GLU811  SER814 

> <Gold.Protein.RotatedAtoms>
  150.8489  133.7818  159.3032 H   0  0  0  0  0  0  0  0  0  0  0  0  # atno 6907 bound_to 6896
  151.5496  135.1066  159.9956 H   0  0  0  0  0  0  0  0  0  0  0  0  # atno 6908 bound_to 6896
  152.4536  133.7635  159.6816 H   0  0  0  0  0  0  0  0  0  0  0  0  # atno 6909 bound_to 6896
  145.4381  140.9558  143.2090 H   0  0  0  0  0  0  0  0  0  0  0  0  # atno 7974 bound_to 7965
  154.4606  140.1990  156.0255 H   0  0  0  0  0  0  0  0  0  0  0  0  # atno 8008 bound_to 7997
  156.0832  140.3268  155.7692 H   0  0  0  0  0  0  0  0  0  0  0  0  # atno 8009 bound_to 7997
  155.5077  140.0559  157.2919 H   0  0  0  0  0  0  0  0  0  0  0  0  # atno 8010 bound_to 7997
  140.0407  144.5392  150.7436 H   0  0  0  0  0  0  0  0  0  0  0  0  # atno 10167 bound_to 10162
  156.0168  130.4471  150.3227 H   0  0  0  0  0  0  0  0  0  0  0  0  # atno 10718 bound_to 10713
  153.0615  135.5010  154.8105 H   0  0  0  0  0  0  0  0  0  0  0  0  # atno 10763 bound_to 10752
  154.6890  135.2981  154.9509 H   0  0  0  0  0  0  0  0  0  0  0  0  # atno 10764 bound_to 10752
  154.0269  135.6734  153.4830 H   0  0  0  0  0  0  0  0  0  0  0  0  # atno 10765 bound_to 10752
  140.7884  133.8308  155.9356 H   0  0  0  0  0  0  0  0  0  0  0  0  # atno 11005 bound_to 11000
  144.8139  139.5912  143.7017 LP  0  0  0  0  0  0  0  0  0  0  0  0  # atno 17320 bound_to 7965
  146.2571  139.6326  142.9387 LP  0  0  0  0  0  0  0  0  0  0  0  0  # atno 17321 bound_to 7965
  140.7261  143.2638  151.4114 LP  0  0  0  0  0  0  0  0  0  0  0  0  # atno 17342 bound_to 10162
  139.6016  144.1284  152.2204 LP  0  0  0  0  0  0  0  0  0  0  0  0  # atno 17343 bound_to 10162
  157.1327  131.0276  151.2962 LP  0  0  0  0  0  0  0  0  0  0  0  0  # atno 17370 bound_to 10713
  157.4537  130.7613  149.7174 LP  0  0  0  0  0  0  0  0  0  0  0  0  # atno 17371 bound_to 10713
  140.9414  134.1896  157.4795 LP  0  0  0  0  0  0  0  0  0  0  0  0  # atno 17394 bound_to 11000
  139.8734  134.9873  156.5363 LP  0  0  0  0  0  0  0  0  0  0  0  0  # atno 17395 bound_to 11000

$$$$
