AV-unprocessed.smi:2451|AV-procd|sdf|9683|dock5
  -GOLD-   2272013323D 1   1.00000     0.00000
 Structure written by MMmdl.
 37 38  0  0  0  0  0  0  0  0  2 V2000
  150.6100  145.2886  159.9427 C   0  0  0  0  0  0  0  0  0  0  0  0
  151.1852  143.8707  160.1061 C   0  0  2  0  0  0  0  0  0  0  0  0
  152.4911  143.8870  160.9401 C   0  0  0  0  0  0  0  0  0  0  0  0
  153.0036  142.4450  161.1473 C   0  0  0  0  0  0  0  0  0  0  0  0
  153.1331  141.6441  159.8268 C   0  0  0  0  0  0  0  0  0  0  0  0
  151.8251  141.6342  158.9961 C   0  0  2  0  0  0  0  0  0  0  0  0
  152.0016  140.9096  157.7450 N   0  5  0  0  0  0  0  0  0  0  0  0
  152.4791  139.3590  157.7657 S   0  0  0  0  0  0  0  0  0  0  0  0
  153.7843  139.1683  158.4203 O   0  0  0  0  0  0  0  0  0  0  0  0
  151.3889  138.4549  158.1663 O   0  0  0  0  0  0  0  0  0  0  0  0
  152.7474  139.0570  155.9630 C   0  0  0  0  0  0  0  0  0  0  0  0
  151.4324  138.9849  155.2340 C   0  0  0  0  0  0  0  0  0  0  0  0
  150.7524  137.8359  154.7417 C   0  0  0  0  0  0  0  0  0  0  0  0
  149.6219  138.3500  154.1764 C   0  0  0  0  0  0  0  0  0  0  0  0
  149.6044  139.7015  154.2944 O   0  0  0  0  0  0  0  0  0  0  0  0
  150.7658  140.0978  154.9674 N   0  0  0  0  0  0  0  0  0  0  0  0
  151.3509  143.1049  158.7480 C   0  0  2  0  0  0  0  0  0  0  0  0
  152.2332  143.8921  157.7390 C   0  0  0  0  0  0  0  0  0  0  0  0
  151.3225  145.9665  159.4731 H   0  0  0  0  0  0  0  0  0  0  0  0
  150.3514  145.7147  160.9125 H   0  0  0  0  0  0  0  0  0  0  0  0
  149.7030  145.2778  159.3377 H   0  0  0  0  0  0  0  0  0  0  0  0
  150.4392  143.3363  160.7003 H   0  0  0  0  0  0  0  0  0  0  0  0
  153.2540  144.4816  160.4369 H   0  0  0  0  0  0  0  0  0  0  0  0
  152.3192  144.3601  161.9073 H   0  0  0  0  0  0  0  0  0  0  0  0
  153.9711  142.4739  161.6492 H   0  0  0  0  0  0  0  0  0  0  0  0
  152.3331  141.9215  161.8320 H   0  0  0  0  0  0  0  0  0  0  0  0
  153.9467  142.0631  159.2336 H   0  0  0  0  0  0  0  0  0  0  0  0
  153.4324  140.6228  160.0628 H   0  0  0  0  0  0  0  0  0  0  0  0
  151.0578  141.1561  159.6067 H   0  0  0  0  0  0  0  0  0  0  0  0
  153.3536  139.8793  155.5824 H   0  0  0  0  0  0  0  0  0  0  0  0
  153.3271  138.1425  155.8417 H   0  0  0  0  0  0  0  0  0  0  0  0
  151.0453  136.7983  154.8047 H   0  0  0  0  0  0  0  0  0  0  0  0
  148.7761  137.9057  153.6731 H   0  0  0  0  0  0  0  0  0  0  0  0
  150.3592  143.0399  158.2975 H   0  0  0  0  0  0  0  0  0  0  0  0
  153.2478  144.0546  158.1044 H   0  0  0  0  0  0  0  0  0  0  0  0
  151.8085  144.8722  157.5267 H   0  0  0  0  0  0  0  0  0  0  0  0
  152.3099  143.3947  156.7707 H   0  0  0  0  0  0  0  0  0  0  0  0
  1  2  1  0  0  0  0
  1 19  1  0  0  0  0
  1 20  1  0  0  0  0
  1 21  1  0  0  0  0
  2 17  1  0  0  0  0
  2  3  1  0  0  0  0
  2 22  1  0  0  0  0
  3  4  1  0  0  0  0
  3 23  1  0  0  0  0
  3 24  1  0  0  0  0
  4  5  1  0  0  0  0
  4 25  1  0  0  0  0
  4 26  1  0  0  0  0
  5  6  1  0  0  0  0
  5 27  1  0  0  0  0
  5 28  1  0  0  0  0
  6  7  1  0  0  0  0
  6 17  1  0  0  0  0
  6 29  1  0  0  0  0
  7  8  1  0  0  0  0
  8  9  2  0  0  0  0
  8 10  2  0  0  0  0
  8 11  1  0  0  0  0
 11 12  1  0  0  0  0
 11 30  1  0  0  0  0
 11 31  1  0  0  0  0
 12 16  2  0  0  0  0
 12 13  1  0  0  0  0
 13 14  2  0  0  0  0
 13 32  1  0  0  0  0
 14 15  1  0  0  0  0
 14 33  1  0  0  0  0
 15 16  1  0  0  0  0
 17 18  1  0  0  0  0
 17 34  1  0  0  0  0
 18 35  1  0  0  0  0
 18 36  1  0  0  0  0
 18 37  1  0  0  0  0
M  CHG  1   7  -1
M  END
> <s_m_source_file>
AV-unprocessed.smi

> <i_m_source_file_index>
2451

> <i_lp_mmshare_version>
43012

> <i_f3d_flags>
0

> <s_epik_input>
W0NIM11bQ0BASF0xW0NIMl1bQ0gyXVtDSDJdW0NASF0oW0NASF0xW0NIM10pW05IXVMoPU8pKD1PKVtDSDJdYzJbY0hdW2NIXW9uMg==

> <s_epik_cmdline>
J2VwaWtfcHl0aG9uJywgJy1waCcsICc3LjAnLCAnLXRuJywgJzgnLCAnLW1hJywgJzIwMCcsICctbWV0YWxfYmluZGluZycsICctaW1hZScsICc8aW5maWxlLm1hZT4nLCAnLW9tYWUnLCAnPG91dGZpbGUubWFlPic=

> <r_lp_tautomer_probability>
1

> <r_epik_Ionization_Penalty>
5.22693

> <r_epik_Ionization_Penalty_Charging>
5.22693

> <r_epik_Ionization_Penalty_Neutral>
2.67702e-10

> <r_epik_State_Penalty>
5.22685

> <r_epik_Charging_Adjusted_Penalty>
10.4538

> <i_epik_Tot_Q>
-1

> <i_epik_Tot_abs_Q>
1

> <r_epik_Metal_State_Penalty>
1.28716

> <b_epik_Metal_Only>
1

> <s_lp_Force_Field>
OPLS_2005

> <r_lp_Energy>
15.3168

> <b_lp_Chiralities_Consistent>
1

> <s_lp_Variant>
AV-unprocessed.smi:2451-15

> <Gold.Version>
5.8.1

> <Gold.Id.Protein>
6NUR|6NUR_protein|mol2

> <Gold.PLP.Fitness>
43.6802

> <Gold.PLP.PLP>
-36.3922

> <Gold.PLP.part.hbond>
-2.0000

> <Gold.PLP.part.metal>
0.0000

> <Gold.PLP.part.buried>
-3.3315

> <Gold.PLP.part.nonpolar>
-31.4354

> <Gold.PLP.part.repulsive>
0.4776

> <Gold.PLP.ligand.clash>
0.0000

> <Gold.PLP.ligand.torsion>
1.0571

> <Gold.PLP.Chemscore.Hbond>
2.0000

> <Gold.PLP.Chemscore.CHOScore>
0.8028

> <Gold.PLP.Chemscore.Metal>
0.0000

> <Gold.Chemscore.Hbonds>
donor molecule, donor type, donor heavy atom, donor atom, acceptor molecule, acceptor atom, score
      P1  H  7989  7998       L1    16  0.85
      P1  H  7997  8008       L1     9  0.80
      L1  C    14    33       P1  7948  0.87

> <Gold.PLP.Chemscore.Internal.Correction>
0.9938

> <Gold.Rescore>
     Score         DG    S(hbond)    S(metal)    S(lipo)     H(rot)  DE(clash)    DE(int)     intcor
     16.67     -17.86       0.95        0.00     109.18       1.40       0.01       1.17       ----

> <Gold.Chemscore.Fitness>
16.6742

> <Gold.Chemscore.DG>
-17.8553

> <Gold.Chemscore.ZeroCoef>
-5.4800

> <Gold.Chemscore.Hbond>
0.9525

> <Gold.Chemscore.Metal>
0.0000

> <Gold.Chemscore.Lipo>
109.1815

> <Gold.Chemscore.Internal_Hbond>
0.0000

> <Gold.Chemscore.DEClash>
0.0093

> <Gold.Chemscore.DEInternal>
1.1718

> <Gold.Chemscore.Rot>
1.3986

> <Gold.Chemscore.Internal.Correction>
   9.000000E+99

> <Gold.Chemscore.Hbonds>
donor molecule, donor type, donor heavy atom, donor atom, acceptor molecule, acceptor atom, score
      P1  H  7989  7998       L1    16  0.08
      P1  H  7997  8008       L1     9  0.12

> <Gold.Chemscore.Hbond.Weighted>
-3.1815

> <Gold.Chemscore.Metal.Weighted>
-0.0000

> <Gold.Chemscore.Lipo.Weighted>
-12.7742

> <Gold.Chemscore.Internal_Hbond.Weighted>
0.0000

> <Gold.Chemscore.DEClash.Weighted>
0.0093

> <Gold.Chemscore.DEInternal.Weighted>
1.1718

> <Gold.Chemscore.Rot.Weighted>
3.5804

> <Gold.Chemscore.Internal.Correction.Weighted>
   9.000000E+99

> <Gold.Protein.RotatedTorsions>
[ 6907 6896 6895 6894 ] final   26.19 input  -60.11 | X-H torsion
[ 7974 7965 7964 7962 ] final   93.89 input  175.53 | X-H torsion
[ 8008 7997 7996 7995 ] final  -97.27 input   59.86 | X-H torsion
[ 10167 10162 10161 10158 ] final  -65.29 input  -65.29 | X-H torsion
[ 10718 10713 10712 10709 ] final  -28.08 input   66.30 | X-H torsion
[ 10763 10752 10751 10750 ] final -134.04 input  -60.55 | X-H torsion
[ 11005 11000 10999 10996 ] final -164.93 input  -57.11 | X-H torsion

> <Gold.Protein.ActiveResidues>
 VAL166  LYS551  ARG553  GLY616  TRP617  ASP618  TYR619  PRO620  LYS621  CYS622 
 ASP623  PHE694  ASN695  SER759  ASP760  ASP761  ALA762  ILE779  LEU786  VAL792 
 PHE793  MET794  SER795  GLU796  ALA797  LYS798  CYS799  TRP800  GLU811  SER814 

> <Gold.Protein.RotatedAtoms>
  151.9837  135.0015  160.0558 H   0  0  0  0  0  0  0  0  0  0  0  0  # atno 6907 bound_to 6896
  152.1672  133.4615  159.4899 H   0  0  0  0  0  0  0  0  0  0  0  0  # atno 6908 bound_to 6896
  150.6896  134.1915  159.4330 H   0  0  0  0  0  0  0  0  0  0  0  0  # atno 6909 bound_to 6896
  145.4729  139.2281  143.2925 H   0  0  0  0  0  0  0  0  0  0  0  0  # atno 7974 bound_to 7965
  154.7855  140.0464  157.1160 H   0  0  0  0  0  0  0  0  0  0  0  0  # atno 8008 bound_to 7997
  154.9654  140.3083  155.4992 H   0  0  0  0  0  0  0  0  0  0  0  0  # atno 8009 bound_to 7997
  156.2942  140.2263  156.4742 H   0  0  0  0  0  0  0  0  0  0  0  0  # atno 8010 bound_to 7997
  140.5740  143.2320  151.6480 H   0  0  0  0  0  0  0  0  0  0  0  0  # atno 10167 bound_to 10162
  156.4298  130.4443  149.7125 H   0  0  0  0  0  0  0  0  0  0  0  0  # atno 10718 bound_to 10713
  154.8725  135.3747  154.4671 H   0  0  0  0  0  0  0  0  0  0  0  0  # atno 10763 bound_to 10752
  153.5335  135.7027  153.5677 H   0  0  0  0  0  0  0  0  0  0  0  0  # atno 10764 bound_to 10752
  153.3871  135.3982  155.1862 H   0  0  0  0  0  0  0  0  0  0  0  0  # atno 10765 bound_to 10752
  140.5814  134.5138  157.5179 H   0  0  0  0  0  0  0  0  0  0  0  0  # atno 11005 bound_to 11000
  146.2386  140.5509  142.8944 LP  0  0  0  0  0  0  0  0  0  0  0  0  # atno 17320 bound_to 7965
  144.7934  140.6077  143.6526 LP  0  0  0  0  0  0  0  0  0  0  0  0  # atno 17321 bound_to 7965
  139.5133  144.3449  152.0706 LP  0  0  0  0  0  0  0  0  0  0  0  0  # atno 17342 bound_to 10162
  140.2590  144.4088  150.6193 LP  0  0  0  0  0  0  0  0  0  0  0  0  # atno 17343 bound_to 10162
  156.4032  130.7685  151.2694 LP  0  0  0  0  0  0  0  0  0  0  0  0  # atno 17370 bound_to 10713
  157.7508  131.0233  150.3830 LP  0  0  0  0  0  0  0  0  0  0  0  0  # atno 17371 bound_to 10713
  139.9316  134.7954  156.0916 LP  0  0  0  0  0  0  0  0  0  0  0  0  # atno 17394 bound_to 11000
  141.0994  133.6683  156.2719 LP  0  0  0  0  0  0  0  0  0  0  0  0  # atno 17395 bound_to 11000

$$$$
