AV-unprocessed.smi:1383|AV-procd|sdf|5625|dock6
  -GOLD-   22720 5243D 1   1.00000     0.00000
 Structure written by MMmdl.
 30 30  0  0  0  0  0  0  0  0  2 V2000
  151.6881  143.7335  159.3945 C   0  0  0  0  0  0  0  0  0  0  0  0
  152.2129  142.4299  160.0165 C   0  0  0  0  0  0  0  0  0  0  0  0
  152.9229  141.4900  159.0161 C   0  0  1  0  0  0  0  0  0  0  0  0
  153.7840  140.4469  159.7487 C   0  0  0  0  0  0  0  0  0  0  0  0
  151.9225  140.7828  158.0814 C   0  0  0  0  0  0  0  0  0  0  0  0
  150.7138  140.8930  158.2978 O   0  0  0  0  0  0  0  0  0  0  0  0
  152.5440  140.0979  157.0910 N   0  5  0  0  0  0  0  0  0  0  0  0
  151.8117  139.4082  156.2030 C   0  0  0  0  0  0  0  0  0  0  0  0
  150.5649  138.9938  156.4531 N   0  0  0  0  0  0  0  0  0  0  0  0
  149.9791  138.3033  155.3879 C   0  0  0  0  0  0  0  0  0  0  0  0
  148.5809  137.7710  155.5177 C   0  0  0  0  0  0  0  0  0  0  0  0
  147.6417  138.4724  154.5334 C   0  0  0  0  0  0  0  0  0  0  0  0
  147.7748  138.1702  153.2387 N   0  0  0  0  0  0  0  0  0  0  0  0
  146.8128  139.2866  154.9354 O   0  0  0  0  0  0  0  0  0  0  0  0
  150.8078  138.1921  154.3010 C   0  0  0  0  0  0  0  0  0  0  0  0
  152.3441  138.9606  154.5812 S   0  0  0  0  0  0  0  0  0  0  0  0
  151.2497  144.3762  160.1580 H   0  0  0  0  0  0  0  0  0  0  0  0
  150.9185  143.5422  158.6460 H   0  0  0  0  0  0  0  0  0  0  0  0
  152.4928  144.2899  158.9131 H   0  0  0  0  0  0  0  0  0  0  0  0
  152.9110  142.6890  160.8132 H   0  0  0  0  0  0  0  0  0  0  0  0
  151.3894  141.9055  160.5033 H   0  0  0  0  0  0  0  0  0  0  0  0
  153.6066  142.1030  158.4243 H   0  0  0  0  0  0  0  0  0  0  0  0
  154.2795  139.7774  159.0444 H   0  0  0  0  0  0  0  0  0  0  0  0
  153.1852  139.8359  160.4251 H   0  0  0  0  0  0  0  0  0  0  0  0
  154.5618  140.9298  160.3408 H   0  0  0  0  0  0  0  0  0  0  0  0
  148.5641  136.6968  155.3297 H   0  0  0  0  0  0  0  0  0  0  0  0
  148.2028  137.9103  156.5313 H   0  0  0  0  0  0  0  0  0  0  0  0
  147.1877  138.6275  152.5552 H   0  0  0  0  0  0  0  0  0  0  0  0
  148.4738  137.5033  152.9462 H   0  0  0  0  0  0  0  0  0  0  0  0
  150.6073  137.7117  153.3552 H   0  0  0  0  0  0  0  0  0  0  0  0
  1  2  1  0  0  0  0
  1 17  1  0  0  0  0
  1 18  1  0  0  0  0
  1 19  1  0  0  0  0
  2  3  1  0  0  0  0
  2 20  1  0  0  0  0
  2 21  1  0  0  0  0
  3  4  1  0  0  0  0
  3  5  1  0  0  0  0
  3 22  1  0  0  0  0
  4 23  1  0  0  0  0
  4 24  1  0  0  0  0
  4 25  1  0  0  0  0
  5  6  2  0  0  0  0
  5  7  1  0  0  0  0
  7  8  1  0  0  0  0
  8 16  1  0  0  0  0
  8  9  2  0  0  0  0
  9 10  1  0  0  0  0
 10 11  1  0  0  0  0
 10 15  2  0  0  0  0
 11 12  1  0  0  0  0
 11 26  1  0  0  0  0
 11 27  1  0  0  0  0
 12 13  1  0  0  0  0
 12 14  2  0  0  0  0
 13 28  1  0  0  0  0
 13 29  1  0  0  0  0
 15 16  1  0  0  0  0
 15 30  1  0  0  0  0
M  CHG  1   7  -1
M  END
> <s_m_source_file>
AV-unprocessed.smi

> <i_m_source_file_index>
1383

> <i_lp_mmshare_version>
43012

> <i_f3d_flags>
0

> <s_epik_input>
W0NIM11bQ0gyXVtDQEhdKFtDSDNdKUMoPU8pW05IXWMxbmMoW2NIXXMxKVtDSDJdQyg9TylbTkgyXQ==

> <s_epik_cmdline>
J2VwaWtfcHl0aG9uJywgJy1waCcsICc3LjAnLCAnLXRuJywgJzgnLCAnLW1hJywgJzIwMCcsICctbWV0YWxfYmluZGluZycsICctaW1hZScsICc8aW5maWxlLm1hZT4nLCAnLW9tYWUnLCAnPG91dGZpbGUubWFlPic=

> <r_lp_tautomer_probability>
1

> <r_epik_Ionization_Penalty>
5.3563

> <r_epik_Ionization_Penalty_Charging>
4.90463

> <r_epik_Ionization_Penalty_Neutral>
0.451677

> <r_epik_State_Penalty>
4.90447

> <r_epik_Charging_Adjusted_Penalty>
9.8091

> <i_epik_Tot_Q>
-1

> <i_epik_Tot_abs_Q>
1

> <r_epik_Metal_State_Penalty>
1.05508

> <b_epik_Metal_Only>
1

> <s_lp_Force_Field>
OPLS_2005

> <r_lp_Energy>
-0.48596

> <b_lp_Chiralities_Consistent>
1

> <s_lp_Variant>
AV-unprocessed.smi:1383-4

> <Gold.Version>
5.8.1

> <Gold.Id.Protein>
6NUR|6NUR_protein|mol2

> <Gold.PLP.Fitness>
42.4990

> <Gold.PLP.PLP>
-30.9623

> <Gold.PLP.part.hbond>
-2.5968

> <Gold.PLP.part.metal>
0.0000

> <Gold.PLP.part.buried>
-4.1196

> <Gold.PLP.part.nonpolar>
-24.2125

> <Gold.PLP.part.repulsive>
0.2489

> <Gold.PLP.ligand.clash>
0.0000

> <Gold.PLP.ligand.torsion>
0.4689

> <Gold.PLP.Chemscore.Hbond>
3.0160

> <Gold.PLP.Chemscore.CHOScore>
1.1054

> <Gold.PLP.Chemscore.Metal>
0.0000

> <Gold.Chemscore.Hbonds>
donor molecule, donor type, donor heavy atom, donor atom, acceptor molecule, acceptor atom, score
      L1  H    13    29       P1  7948  0.98
      P1  H  7997  8008       L1     7  2.00
      L1  C    15    30       P1  7948  0.47
      L1  C    15    30       P1  7949  0.55

> <Gold.PLP.Chemscore.Internal.Correction>
0.1102

> <Gold.Rescore>
     Score         DG    S(hbond)    S(metal)    S(lipo)     H(rot)  DE(clash)    DE(int)     intcor
     11.96     -13.94       1.88        0.00      65.66       2.15       0.00       1.98       ----

> <Gold.Chemscore.Fitness>
11.9575

> <Gold.Chemscore.DG>
-13.9399

> <Gold.Chemscore.ZeroCoef>
-5.4800

> <Gold.Chemscore.Hbond>
1.8832

> <Gold.Chemscore.Metal>
0.0000

> <Gold.Chemscore.Lipo>
65.6623

> <Gold.Chemscore.Internal_Hbond>
0.0000

> <Gold.Chemscore.DEClash>
0.0000

> <Gold.Chemscore.DEInternal>
1.9825

> <Gold.Chemscore.Rot>
2.1532

> <Gold.Chemscore.Internal.Correction>
   9.000000E+99

> <Gold.Chemscore.Hbonds>
donor molecule, donor type, donor heavy atom, donor atom, acceptor molecule, acceptor atom, score
      L1  H    13    29       P1  7948  0.93
      P1  H  7997  8008       L1     7  0.57

> <Gold.Chemscore.Hbond.Weighted>
-6.2897

> <Gold.Chemscore.Metal.Weighted>
-0.0000

> <Gold.Chemscore.Lipo.Weighted>
-7.6825

> <Gold.Chemscore.Internal_Hbond.Weighted>
0.0000

> <Gold.Chemscore.DEClash.Weighted>
0.0000

> <Gold.Chemscore.DEInternal.Weighted>
1.9825

> <Gold.Chemscore.Rot.Weighted>
5.5123

> <Gold.Chemscore.Internal.Correction.Weighted>
   9.000000E+99

> <Gold.Protein.RotatedTorsions>
[ 6907 6896 6895 6894 ] final  101.14 input  -60.11 | X-H torsion
[ 7974 7965 7964 7962 ] final   42.84 input  175.53 | X-H torsion
[ 8008 7997 7996 7995 ] final  -47.27 input   59.86 | X-H torsion
[ 10167 10162 10161 10158 ] final   76.99 input  -65.29 | X-H torsion
[ 10718 10713 10712 10709 ] final -148.08 input   66.30 | X-H torsion
[ 10763 10752 10751 10750 ] final -176.21 input  -60.55 | X-H torsion
[ 11005 11000 10999 10996 ] final   61.90 input  -57.11 | X-H torsion

> <Gold.Protein.ActiveResidues>
 VAL166  LYS551  ARG553  GLY616  TRP617  ASP618  TYR619  PRO620  LYS621  CYS622 
 ASP623  PHE694  ASN695  SER759  ASP760  ASP761  ALA762  ILE779  LEU786  VAL792 
 PHE793  MET794  SER795  GLU796  ALA797  LYS798  CYS799  TRP800  GLU811  SER814 

> <Gold.Protein.RotatedAtoms>
  152.5356  134.0171  159.7964 H   0  0  0  0  0  0  0  0  0  0  0  0  # atno 6907 bound_to 6896
  151.0363  133.5737  159.2662 H   0  0  0  0  0  0  0  0  0  0  0  0  # atno 6908 bound_to 6896
  151.2723  135.0696  159.9192 H   0  0  0  0  0  0  0  0  0  0  0  0  # atno 6909 bound_to 6896
  146.0706  139.5254  142.9600 H   0  0  0  0  0  0  0  0  0  0  0  0  # atno 7974 bound_to 7965
  154.4015  140.1350  156.4147 H   0  0  0  0  0  0  0  0  0  0  0  0  # atno 8008 bound_to 7997
  155.7700  140.3484  155.5222 H   0  0  0  0  0  0  0  0  0  0  0  0  # atno 8009 bound_to 7997
  155.8776  140.0982  157.1498 H   0  0  0  0  0  0  0  0  0  0  0  0  # atno 8010 bound_to 7997
  139.9864  144.5789  150.7856 H   0  0  0  0  0  0  0  0  0  0  0  0  # atno 10167 bound_to 10162
  156.4158  130.8004  151.2224 H   0  0  0  0  0  0  0  0  0  0  0  0  # atno 10718 bound_to 10713
  154.5751  135.2831  155.0789 H   0  0  0  0  0  0  0  0  0  0  0  0  # atno 10763 bound_to 10752
  154.2147  135.6402  153.5130 H   0  0  0  0  0  0  0  0  0  0  0  0  # atno 10764 bound_to 10752
  153.0070  135.5500  154.6386 H   0  0  0  0  0  0  0  0  0  0  0  0  # atno 10765 bound_to 10752
  140.0129  134.6269  155.9753 H   0  0  0  0  0  0  0  0  0  0  0  0  # atno 11005 bound_to 11000
  145.6398  141.0287  143.1818 LP  0  0  0  0  0  0  0  0  0  0  0  0  # atno 17320 bound_to 7965
  144.7229  139.7969  143.7375 LP  0  0  0  0  0  0  0  0  0  0  0  0  # atno 17321 bound_to 7965
  140.7471  143.2900  151.3356 LP  0  0  0  0  0  0  0  0  0  0  0  0  # atno 17342 bound_to 10162
  139.6372  144.0608  152.2525 LP  0  0  0  0  0  0  0  0  0  0  0  0  # atno 17343 bound_to 10162
  157.7508  131.0243  150.3873 LP  0  0  0  0  0  0  0  0  0  0  0  0  # atno 17370 bound_to 10713
  156.4180  130.3947  149.6845 LP  0  0  0  0  0  0  0  0  0  0  0  0  # atno 17371 bound_to 10713
  141.1723  133.6538  156.4698 LP  0  0  0  0  0  0  0  0  0  0  0  0  # atno 17394 bound_to 11000
  140.4522  134.6918  157.5045 LP  0  0  0  0  0  0  0  0  0  0  0  0  # atno 17395 bound_to 11000

$$$$
