AV-unprocessed.smi:1672|AV-procd|sdf|6708|dock6
  -GOLD-   22720 7453D 1   1.00000     0.00000
 Structure written by MMmdl.
 49 51  0  0  0  0  0  0  0  0  3 V2000
  146.6960  132.9809  155.1145 C   0  0  0  0  0  0  0  0  0  0  0  0
  147.1869  133.8324  153.9306 C   0  0  2  0  0  0  0  0  0  0  0  0
  148.6705  133.5917  153.5974 C   0  0  0  0  0  0  0  0  0  0  0  0
  149.6118  134.2366  154.6302 C   0  0  0  0  0  0  0  0  0  0  0  0
  149.3398  135.6919  154.7695 N   0  3  2  0  0  0  0  0  0  0  0  0
  150.3024  136.3877  155.6619 C   0  0  0  0  0  0  0  0  0  0  0  0
  149.9285  137.8649  155.9097 C   0  0  1  0  0  0  0  0  0  0  0  0
  149.3513  137.9819  157.1938 O   0  0  0  0  0  0  0  0  0  0  0  0
  151.1343  138.8264  155.8526 C   0  0  0  0  0  0  0  0  0  0  0  0
  150.7828  140.2255  156.1446 N   0  0  0  0  0  0  0  0  0  0  0  0
  149.8674  141.0569  155.5632 C   0  0  0  0  0  0  0  0  0  0  0  0
  148.9456  140.7420  154.4300 C   0  0  0  0  0  0  0  0  0  0  0  0
  149.4457  141.1809  153.1866 O   0  0  0  0  0  0  0  0  0  0  0  0
  149.9392  142.2522  156.2140 N   0  3  0  0  0  0  0  0  0  0  0  0
  150.9193  142.1947  157.2053 C   0  0  0  0  0  0  0  0  0  0  0  0
  151.3561  143.1556  158.1121 C   0  0  0  0  0  0  0  0  0  0  0  0
  152.3900  142.7722  158.9914 C   0  0  0  0  0  0  0  0  0  0  0  0
  152.9490  141.4786  158.9476 C   0  0  0  0  0  0  0  0  0  0  0  0
  152.4964  140.5123  158.0248 C   0  0  0  0  0  0  0  0  0  0  0  0
  151.4713  140.8983  157.1612 C   0  0  0  0  0  0  0  0  0  0  0  0
  147.9292  135.9483  155.1588 C   0  0  0  0  0  0  0  0  0  0  0  0
  146.9488  135.3389  154.1404 C   0  0  0  0  0  0  0  0  0  0  0  0
  147.2154  133.2232  156.0411 H   0  0  0  0  0  0  0  0  0  0  0  0
  146.8471  131.9187  154.9200 H   0  0  0  0  0  0  0  0  0  0  0  0
  145.6299  133.1316  155.2864 H   0  0  0  0  0  0  0  0  0  0  0  0
  146.6005  133.5226  153.0645 H   0  0  0  0  0  0  0  0  0  0  0  0
  148.8721  132.5226  153.5217 H   0  0  0  0  0  0  0  0  0  0  0  0
  148.8874  134.0093  152.6130 H   0  0  0  0  0  0  0  0  0  0  0  0
  149.5044  133.7488  155.5999 H   0  0  0  0  0  0  0  0  0  0  0  0
  150.6403  134.0707  154.3132 H   0  0  0  0  0  0  0  0  0  0  0  0
  150.3437  135.8803  156.6270 H   0  0  0  0  0  0  0  0  0  0  0  0
  151.3000  136.3030  155.2298 H   0  0  0  0  0  0  0  0  0  0  0  0
  149.1862  138.1928  155.1839 H   0  0  0  0  0  0  0  0  0  0  0  0
  149.9356  138.4787  157.7465 H   0  0  0  0  0  0  0  0  0  0  0  0
  151.9108  138.5188  156.5546 H   0  0  0  0  0  0  0  0  0  0  0  0
  151.5901  138.7972  154.8627 H   0  0  0  0  0  0  0  0  0  0  0  0
  148.7879  139.6640  154.3829 H   0  0  0  0  0  0  0  0  0  0  0  0
  147.9713  141.1967  154.6090 H   0  0  0  0  0  0  0  0  0  0  0  0
  149.2449  140.5256  152.5351 H   0  0  0  0  0  0  0  0  0  0  0  0
  150.9327  144.1489  158.1451 H   0  0  0  0  0  0  0  0  0  0  0  0
  152.7640  143.4854  159.7119 H   0  0  0  0  0  0  0  0  0  0  0  0
  153.7428  141.2227  159.6347 H   0  0  0  0  0  0  0  0  0  0  0  0
  152.9354  139.5258  157.9978 H   0  0  0  0  0  0  0  0  0  0  0  0
  147.7456  135.5484  156.1570 H   0  0  0  0  0  0  0  0  0  0  0  0
  147.7545  137.0234  155.2154 H   0  0  0  0  0  0  0  0  0  0  0  0
  147.0664  135.8547  153.1864 H   0  0  0  0  0  0  0  0  0  0  0  0
  145.9205  135.5194  154.4556 H   0  0  0  0  0  0  0  0  0  0  0  0
  149.4566  136.1035  153.8542 H   0  0  0  0  0  0  0  0  0  0  0  0
  149.3610  143.0518  155.9889 H   0  0  0  0  0  0  0  0  0  0  0  0
  1  2  1  0  0  0  0
  1 23  1  0  0  0  0
  1 24  1  0  0  0  0
  1 25  1  0  0  0  0
  2 22  1  0  0  0  0
  2  3  1  0  0  0  0
  2 26  1  0  0  0  0
  3  4  1  0  0  0  0
  3 27  1  0  0  0  0
  3 28  1  0  0  0  0
  4  5  1  0  0  0  0
  4 29  1  0  0  0  0
  4 30  1  0  0  0  0
  5  6  1  0  0  0  0
  5 21  1  0  0  0  0
  5 48  1  0  0  0  0
  6  7  1  0  0  0  0
  6 31  1  0  0  0  0
  6 32  1  0  0  0  0
  7  8  1  0  0  0  0
  7  9  1  0  0  0  0
  7 33  1  0  0  0  0
  8 34  1  0  0  0  0
  9 10  1  0  0  0  0
  9 35  1  0  0  0  0
  9 36  1  0  0  0  0
 10 20  1  0  0  0  0
 10 11  1  0  0  0  0
 11 12  1  0  0  0  0
 11 14  2  0  0  0  0
 12 13  1  0  0  0  0
 12 37  1  0  0  0  0
 12 38  1  0  0  0  0
 13 39  1  0  0  0  0
 14 15  1  0  0  0  0
 14 49  1  0  0  0  0
 15 20  2  0  0  0  0
 15 16  1  0  0  0  0
 16 17  2  0  0  0  0
 16 40  1  0  0  0  0
 17 18  1  0  0  0  0
 17 41  1  0  0  0  0
 18 19  2  0  0  0  0
 18 42  1  0  0  0  0
 19 20  1  0  0  0  0
 19 43  1  0  0  0  0
 21 22  1  0  0  0  0
 21 44  1  0  0  0  0
 21 45  1  0  0  0  0
 22 46  1  0  0  0  0
 22 47  1  0  0  0  0
M  CHG  1   5   1
M  CHG  1  14   1
M  END
> <s_m_source_file>
AV-unprocessed.smi

> <i_m_source_file_index>
1672

> <i_lp_mmshare_version>
43012

> <i_f3d_flags>
0

> <s_epik_input>
W0NIM11bQ0hdMVtDSDJdW0NIMl1OKFtDSDJdW0NIMl0xKVtDSDJdW0NASF0oW09IXSlbQ0gyXW4oYyhuMilbQ0gyXVtPSF0pYyhjMjMpW2NIXVtjSF1bY0hdW2NIXTM=

> <s_epik_cmdline>
J2VwaWtfcHl0aG9uJywgJy1waCcsICc3LjAnLCAnLXRuJywgJzgnLCAnLW1hJywgJzIwMCcsICctbWV0YWxfYmluZGluZycsICctaW1hZScsICc8aW5maWxlLm1hZT4nLCAnLW9tYWUnLCAnPG91dGZpbGUubWFlPic=

> <r_epik_Ionization_Penalty>
1.51642

> <r_epik_Ionization_Penalty_Charging>
1.51557

> <r_epik_Ionization_Penalty_Neutral>
0.000856474

> <r_epik_State_Penalty>
1.6048

> <r_epik_Charging_Adjusted_Penalty>
3.12037

> <i_epik_Tot_Q>
2

> <i_epik_Tot_abs_Q>
2

> <r_epik_Metal_State_Penalty>
5.65673

> <b_epik_Metal_Only>
0

> <s_lp_Force_Field>
OPLS_2005

> <r_lp_Energy>
31.8272

> <b_lp_Chiralities_Consistent>
1

> <s_lp_Variant>
AV-unprocessed.smi:1672-8

> <Gold.Version>
5.8.1

> <Gold.Id.Protein>
6NUR|6NUR_protein|mol2

> <Gold.PLP.Fitness>
51.1373

> <Gold.PLP.PLP>
-35.4120

> <Gold.PLP.part.hbond>
-4.3184

> <Gold.PLP.part.metal>
0.0000

> <Gold.PLP.part.buried>
-1.9333

> <Gold.PLP.part.nonpolar>
-27.9955

> <Gold.PLP.part.repulsive>
0.1114

> <Gold.PLP.ligand.clash>
0.0000

> <Gold.PLP.ligand.torsion>
1.0093

> <Gold.PLP.Chemscore.Hbond>
5.9017

> <Gold.PLP.Chemscore.CHOScore>
0.0000

> <Gold.PLP.Chemscore.Metal>
0.0000

> <Gold.Chemscore.Hbonds>
donor molecule, donor type, donor heavy atom, donor atom, acceptor molecule, acceptor atom, score
      L1  H     5    48       P1  7948  2.00
      L1  H    13    39       P1  7957  0.80
      L1  H    14    49       P1  8028  2.00
      P1  H  7989  7998       L1    13  0.05
      P1  H  8011  8017       L1    13  1.00

> <Gold.PLP.Chemscore.Internal.Correction>
0.0387

> <Gold.Rescore>
     Score         DG    S(hbond)    S(metal)    S(lipo)     H(rot)  DE(clash)    DE(int)     intcor
     17.95     -19.36       3.25        0.00      90.56       2.96       0.37       1.04       ----

> <Gold.Chemscore.Fitness>
17.9530

> <Gold.Chemscore.DG>
-19.3639

> <Gold.Chemscore.ZeroCoef>
-5.4800

> <Gold.Chemscore.Hbond>
3.2498

> <Gold.Chemscore.Metal>
0.0000

> <Gold.Chemscore.Lipo>
90.5599

> <Gold.Chemscore.Internal_Hbond>
0.0000

> <Gold.Chemscore.DEClash>
0.3726

> <Gold.Chemscore.DEInternal>
1.0383

> <Gold.Chemscore.Rot>
2.9555

> <Gold.Chemscore.Internal.Correction>
   9.000000E+99

> <Gold.Chemscore.Hbonds>
donor molecule, donor type, donor heavy atom, donor atom, acceptor molecule, acceptor atom, score
      L1  H     5    48       P1  7948  0.59
      L1  H    13    39       P1  7957  0.75
      L1  H    14    49       P1  8028  1.00
      P1  H  7989  7998       L1    13  0.01
      P1  H  8011  8017       L1    13  0.33

> <Gold.Chemscore.Hbond.Weighted>
-10.8543

> <Gold.Chemscore.Metal.Weighted>
-0.0000

> <Gold.Chemscore.Lipo.Weighted>
-10.5955

> <Gold.Chemscore.Internal_Hbond.Weighted>
0.0000

> <Gold.Chemscore.DEClash.Weighted>
0.3726

> <Gold.Chemscore.DEInternal.Weighted>
1.0383

> <Gold.Chemscore.Rot.Weighted>
7.5660

> <Gold.Chemscore.Internal.Correction.Weighted>
   9.000000E+99

> <Gold.Protein.RotatedTorsions>
[ 6907 6896 6895 6894 ] final   -7.80 input  -60.11 | X-H torsion
[ 7974 7965 7964 7962 ] final  -70.61 input  175.53 | X-H torsion
[ 8008 7997 7996 7995 ] final  103.59 input   59.86 | X-H torsion
[ 10167 10162 10161 10158 ] final  127.79 input  -65.29 | X-H torsion
[ 10718 10713 10712 10709 ] final  -64.40 input   66.30 | X-H torsion
[ 10763 10752 10751 10750 ] final -170.31 input  -60.55 | X-H torsion
[ 11005 11000 10999 10996 ] final   31.24 input  -57.11 | X-H torsion

> <Gold.Protein.ActiveResidues>
 VAL166  LYS551  ARG553  GLY616  TRP617  ASP618  TYR619  PRO620  LYS621  CYS622 
 ASP623  PHE694  ASN695  SER759  ASP760  ASP761  ALA762  ILE779  LEU786  VAL792 
 PHE793  MET794  SER795  GLU796  ALA797  LYS798  CYS799  TRP800  GLU811  SER814 

> <Gold.Protein.RotatedAtoms>
  151.4438  135.1023  159.9677 H   0  0  0  0  0  0  0  0  0  0  0  0  # atno 6907 bound_to 6896
  152.4913  133.8503  159.7209 H   0  0  0  0  0  0  0  0  0  0  0  0  # atno 6908 bound_to 6896
  150.9069  133.6987  159.2892 H   0  0  0  0  0  0  0  0  0  0  0  0  # atno 6909 bound_to 6896
  145.6887  140.9161  143.0793 H   0  0  0  0  0  0  0  0  0  0  0  0  # atno 7974 bound_to 7965
  156.1498  140.3162  155.8629 H   0  0  0  0  0  0  0  0  0  0  0  0  # atno 8008 bound_to 7997
  155.3993  140.0498  157.3054 H   0  0  0  0  0  0  0  0  0  0  0  0  # atno 8009 bound_to 7997
  154.5048  140.2143  155.9284 H   0  0  0  0  0  0  0  0  0  0  0  0  # atno 8010 bound_to 7997
  139.5560  144.6849  151.4181 H   0  0  0  0  0  0  0  0  0  0  0  0  # atno 10167 bound_to 10162
  156.0731  130.4233  150.1415 H   0  0  0  0  0  0  0  0  0  0  0  0  # atno 10718 bound_to 10713
  154.6429  135.2901  155.0082 H   0  0  0  0  0  0  0  0  0  0  0  0  # atno 10763 bound_to 10752
  154.1202  135.6549  153.4905 H   0  0  0  0  0  0  0  0  0  0  0  0  # atno 10764 bound_to 10752
  153.0336  135.5286  154.7303 H   0  0  0  0  0  0  0  0  0  0  0  0  # atno 10765 bound_to 10752
  140.2860  134.2919  155.7788 H   0  0  0  0  0  0  0  0  0  0  0  0  # atno 11005 bound_to 11000
  144.7003  139.8793  143.7446 LP  0  0  0  0  0  0  0  0  0  0  0  0  # atno 17320 bound_to 7965
  146.0901  139.3890  143.0411 LP  0  0  0  0  0  0  0  0  0  0  0  0  # atno 17321 bound_to 7965
  140.6833  143.8032  150.7151 LP  0  0  0  0  0  0  0  0  0  0  0  0  # atno 17342 bound_to 10162
  140.1492  143.4372  152.2142 LP  0  0  0  0  0  0  0  0  0  0  0  0  # atno 17343 bound_to 10162
  156.9462  130.9760  151.3507 LP  0  0  0  0  0  0  0  0  0  0  0  0  # atno 17370 bound_to 10713
  157.5813  130.8378  149.8526 LP  0  0  0  0  0  0  0  0  0  0  0  0  # atno 17371 bound_to 10713
  141.2155  133.7555  156.9552 LP  0  0  0  0  0  0  0  0  0  0  0  0  # atno 17394 bound_to 11000
  140.1239  134.9399  157.2243 LP  0  0  0  0  0  0  0  0  0  0  0  0  # atno 17395 bound_to 11000

$$$$
