AV-unprocessed.smi:2247|AV-procd|sdf|9089|dock6
  -GOLD-   2272012293D 1   1.00000     0.00000
 Structure written by MMmdl.
 34 35  0  0  0  0  0  0  0  0  1 V2000
  152.7375  143.0414  161.6309 C   0  0  0  0  0  0  0  0  0  0  0  0
  152.5483  141.9985  160.5171 C   0  0  0  0  0  0  0  0  0  0  0  0
  153.7096  140.9973  160.4255 C   0  0  0  0  0  0  0  0  0  0  0  0
  152.2928  142.6230  159.2121 N   0  0  0  0  0  0  0  0  0  0  0  0
  152.4575  144.0523  158.9970 C   0  0  0  0  0  0  0  0  0  0  0  0
  151.8378  144.3103  157.6203 C   0  0  0  0  0  0  0  0  0  0  0  0
  151.7969  142.9488  156.9084 C   0  0  2  0  0  0  0  0  0  0  0  0
  150.5182  142.7811  156.2193 N   0  0  0  0  0  0  0  0  0  0  0  0
  150.1493  141.7058  155.5066 C   0  0  0  0  0  0  0  0  0  0  0  0
  150.9066  140.7444  155.3408 O   0  0  0  0  0  0  0  0  0  0  0  0
  148.8695  141.8784  155.0039 N   0  0  0  0  0  0  0  0  0  0  0  0
  148.3071  140.8918  154.3780 C   0  0  0  0  0  0  0  0  0  0  0  0
  147.0341  140.8490  153.8324 N   0  0  0  0  0  0  0  0  0  0  0  0
  146.8585  139.6198  153.2595 C   0  0  0  0  0  0  0  0  0  0  0  0
  147.9749  138.9183  153.4335 C   0  0  0  0  0  0  0  0  0  0  0  0
  148.8837  139.6704  154.1148 O   0  0  0  0  0  0  0  0  0  0  0  0
  151.9184  141.9881  158.0921 C   0  0  0  0  0  0  0  0  0  0  0  0
  151.7181  140.7779  157.9858 O   0  0  0  0  0  0  0  0  0  0  0  0
  152.7733  142.5600  162.6085 H   0  0  0  0  0  0  0  0  0  0  0  0
  151.9135  143.7555  161.6467 H   0  0  0  0  0  0  0  0  0  0  0  0
  153.6662  143.5996  161.5106 H   0  0  0  0  0  0  0  0  0  0  0  0
  151.6645  141.4230  160.7972 H   0  0  0  0  0  0  0  0  0  0  0  0
  153.8512  140.4770  161.3731 H   0  0  0  0  0  0  0  0  0  0  0  0
  154.6478  141.4951  160.1782 H   0  0  0  0  0  0  0  0  0  0  0  0
  153.5197  140.2435  159.6609 H   0  0  0  0  0  0  0  0  0  0  0  0
  151.9707  144.6541  159.7640 H   0  0  0  0  0  0  0  0  0  0  0  0
  153.5211  144.2949  158.9946 H   0  0  0  0  0  0  0  0  0  0  0  0
  150.8302  144.7088  157.7545 H   0  0  0  0  0  0  0  0  0  0  0  0
  152.4024  145.0503  157.0523 H   0  0  0  0  0  0  0  0  0  0  0  0
  152.6539  142.8267  156.2438 H   0  0  0  0  0  0  0  0  0  0  0  0
  149.8529  143.5355  156.3080 H   0  0  0  0  0  0  0  0  0  0  0  0
  146.3259  141.5689  153.8400 H   0  0  0  0  0  0  0  0  0  0  0  0
  145.9256  139.3708  152.7754 H   0  0  0  0  0  0  0  0  0  0  0  0
  148.2660  137.9186  153.1470 H   0  0  0  0  0  0  0  0  0  0  0  0
  1  2  1  0  0  0  0
  1 19  1  0  0  0  0
  1 20  1  0  0  0  0
  1 21  1  0  0  0  0
  2  3  1  0  0  0  0
  2  4  1  0  0  0  0
  2 22  1  0  0  0  0
  3 23  1  0  0  0  0
  3 24  1  0  0  0  0
  3 25  1  0  0  0  0
  4 17  1  0  0  0  0
  4  5  1  0  0  0  0
  5  6  1  0  0  0  0
  5 26  1  0  0  0  0
  5 27  1  0  0  0  0
  6  7  1  0  0  0  0
  6 28  1  0  0  0  0
  6 29  1  0  0  0  0
  7  8  1  0  0  0  0
  7 17  1  0  0  0  0
  7 30  1  0  0  0  0
  8 31  1  0  0  0  0
  8  9  1  0  0  0  0
  9 11  1  0  0  0  0
  9 10  2  0  0  0  0
 11 12  2  0  0  0  0
 12 16  1  0  0  0  0
 12 13  1  0  0  0  0
 13 32  1  0  0  0  0
 13 14  1  0  0  0  0
 14 33  1  0  0  0  0
 14 15  2  0  0  0  0
 15 34  1  0  0  0  0
 15 16  1  0  0  0  0
 17 18  2  0  0  0  0
M  END
> <s_m_source_file>
AV-unprocessed.smi

> <i_m_source_file_index>
2247

> <i_lp_mmshare_version>
43012

> <i_f3d_flags>
0

> <s_epik_input>
W0NIM11bQ0hdKFtDSDNdKU4xW0NIMl1bQ0gyXVtDQEhdKEMxPU8pW05IXUMoPU8pW05IXWMybltjSF1bY0hdbzI=

> <s_epik_cmdline>
J2VwaWtfcHl0aG9uJywgJy1waCcsICc3LjAnLCAnLXRuJywgJzgnLCAnLW1hJywgJzIwMCcsICctbWV0YWxfYmluZGluZycsICctaW1hZScsICc8aW5maWxlLm1hZT4nLCAnLW9tYWUnLCAnPG91dGZpbGUubWFlPic=

> <r_lp_tautomer_probability>
0.107061

> <r_epik_Ionization_Penalty>
0.180736

> <r_epik_Ionization_Penalty_Charging>
0.180388

> <r_epik_Ionization_Penalty_Neutral>
0.000348501

> <r_epik_State_Penalty>
2.44396

> <r_epik_Charging_Adjusted_Penalty>
2.62435

> <i_epik_Tot_Q>
0

> <i_epik_Tot_abs_Q>
0

> <r_epik_Metal_State_Penalty>
4.38331

> <b_epik_Metal_Only>
0

> <s_lp_Force_Field>
OPLS_2005

> <r_lp_Energy>
45.2886

> <b_lp_Chiralities_Consistent>
1

> <s_lp_Variant>
AV-unprocessed.smi:2247-4

> <Gold.Version>
5.8.1

> <Gold.Id.Protein>
6NUR|6NUR_protein|mol2

> <Gold.PLP.Fitness>
47.2075

> <Gold.PLP.PLP>
-35.8734

> <Gold.PLP.part.hbond>
-2.0000

> <Gold.PLP.part.metal>
0.0000

> <Gold.PLP.part.buried>
-5.0177

> <Gold.PLP.part.nonpolar>
-29.6845

> <Gold.PLP.part.repulsive>
1.8229

> <Gold.PLP.ligand.clash>
0.0000

> <Gold.PLP.ligand.torsion>
0.1415

> <Gold.PLP.Chemscore.Hbond>
1.8406

> <Gold.PLP.Chemscore.CHOScore>
2.0000

> <Gold.PLP.Chemscore.Metal>
0.0000

> <Gold.Chemscore.Hbonds>
donor molecule, donor type, donor heavy atom, donor atom, acceptor molecule, acceptor atom, score
      L1  H     8    31       P1  8028  1.00
      P1  H  7989  7998       L1    10  0.83
      L1  C    14    33       P1 10175  1.00
      L1  C    15    34       P1  7948  1.00

> <Gold.PLP.Chemscore.Internal.Correction>
0.0953

> <Gold.Rescore>
     Score         DG    S(hbond)    S(metal)    S(lipo)     H(rot)  DE(clash)    DE(int)     intcor
     11.94     -16.81       1.57        0.00      81.16       1.33       1.76       3.11       ----

> <Gold.Chemscore.Fitness>
11.9405

> <Gold.Chemscore.DG>
-16.8065

> <Gold.Chemscore.ZeroCoef>
-5.4800

> <Gold.Chemscore.Hbond>
1.5705

> <Gold.Chemscore.Metal>
0.0000

> <Gold.Chemscore.Lipo>
81.1601

> <Gold.Chemscore.Internal_Hbond>
0.0000

> <Gold.Chemscore.DEClash>
1.7586

> <Gold.Chemscore.DEInternal>
3.1074

> <Gold.Chemscore.Rot>
1.3338

> <Gold.Chemscore.Internal.Correction>
   9.000000E+99

> <Gold.Chemscore.Hbonds>
donor molecule, donor type, donor heavy atom, donor atom, acceptor molecule, acceptor atom, score
      L1  H     8    31       P1  8028  0.96
      P1  H  7989  7998       L1    10  0.49

> <Gold.Chemscore.Hbond.Weighted>
-5.2453

> <Gold.Chemscore.Metal.Weighted>
-0.0000

> <Gold.Chemscore.Lipo.Weighted>
-9.4957

> <Gold.Chemscore.Internal_Hbond.Weighted>
0.0000

> <Gold.Chemscore.DEClash.Weighted>
1.7586

> <Gold.Chemscore.DEInternal.Weighted>
3.1074

> <Gold.Chemscore.Rot.Weighted>
3.4145

> <Gold.Chemscore.Internal.Correction.Weighted>
   9.000000E+99

> <Gold.Protein.RotatedTorsions>
[ 6907 6896 6895 6894 ] final  -76.80 input  -60.11 | X-H torsion
[ 7974 7965 7964 7962 ] final   26.96 input  175.53 | X-H torsion
[ 8008 7997 7996 7995 ] final   -6.49 input   59.86 | X-H torsion
[ 10167 10162 10161 10158 ] final   13.04 input  -65.29 | X-H torsion
[ 10718 10713 10712 10709 ] final    8.30 input   66.30 | X-H torsion
[ 10763 10752 10751 10750 ] final  -33.73 input  -60.55 | X-H torsion
[ 11005 11000 10999 10996 ] final  121.96 input  -57.11 | X-H torsion

> <Gold.Protein.ActiveResidues>
 VAL166  LYS551  ARG553  GLY616  TRP617  ASP618  TYR619  PRO620  LYS621  CYS622 
 ASP623  PHE694  ASN695  SER759  ASP760  ASP761  ALA762  ILE779  LEU786  VAL792 
 PHE793  MET794  SER795  GLU796  ALA797  LYS798  CYS799  TRP800  GLU811  SER814 

> <Gold.Protein.RotatedAtoms>
  150.7017  134.4518  159.5339 H   0  0  0  0  0  0  0  0  0  0  0  0  # atno 6907 bound_to 6896
  152.2209  134.8411  160.0495 H   0  0  0  0  0  0  0  0  0  0  0  0  # atno 6908 bound_to 6896
  151.9262  133.3563  159.3951 H   0  0  0  0  0  0  0  0  0  0  0  0  # atno 6909 bound_to 6896
  146.1810  139.7256  142.8900 H   0  0  0  0  0  0  0  0  0  0  0  0  # atno 7974 bound_to 7965
  154.5932  140.2431  155.7892 H   0  0  0  0  0  0  0  0  0  0  0  0  # atno 8008 bound_to 7997
  156.2261  140.2982  156.0026 H   0  0  0  0  0  0  0  0  0  0  0  0  # atno 8009 bound_to 7997
  155.2337  140.0404  157.2956 H   0  0  0  0  0  0  0  0  0  0  0  0  # atno 8010 bound_to 7997
  140.6028  143.8569  150.6983 H   0  0  0  0  0  0  0  0  0  0  0  0  # atno 10167 bound_to 10162
  156.9496  130.5892  149.5656 H   0  0  0  0  0  0  0  0  0  0  0  0  # atno 10718 bound_to 10713
  153.8351  135.6862  153.4809 H   0  0  0  0  0  0  0  0  0  0  0  0  # atno 10763 bound_to 10752
  153.1487  135.4627  154.9603 H   0  0  0  0  0  0  0  0  0  0  0  0  # atno 10764 bound_to 10752
  154.7869  135.3288  154.7810 H   0  0  0  0  0  0  0  0  0  0  0  0  # atno 10765 bound_to 10752
  139.9248  134.9640  156.8037 H   0  0  0  0  0  0  0  0  0  0  0  0  # atno 11005 bound_to 11000
  145.4077  141.0393  143.3035 LP  0  0  0  0  0  0  0  0  0  0  0  0  # atno 17320 bound_to 7965
  144.8315  139.5621  143.6942 LP  0  0  0  0  0  0  0  0  0  0  0  0  # atno 17321 bound_to 7965
  140.2119  143.3877  152.1712 LP  0  0  0  0  0  0  0  0  0  0  0  0  # atno 17342 bound_to 10162
  139.5303  144.7152  151.5078 LP  0  0  0  0  0  0  0  0  0  0  0  0  # atno 17343 bound_to 10162
  156.0369  130.5455  150.8675 LP  0  0  0  0  0  0  0  0  0  0  0  0  # atno 17370 bound_to 10713
  157.5731  131.0946  150.9387 LP  0  0  0  0  0  0  0  0  0  0  0  0  # atno 17371 bound_to 10713
  140.6368  133.9855  155.7688 LP  0  0  0  0  0  0  0  0  0  0  0  0  # atno 17394 bound_to 11000
  141.0797  134.0081  157.3404 LP  0  0  0  0  0  0  0  0  0  0  0  0  # atno 17395 bound_to 11000

$$$$
