AV-unprocessed.smi:2245|AV-procd|sdf|9077|dock1
  -GOLD-   2272012283D 1   1.00000     0.00000
 Structure written by MMmdl.
 44 45  0  0  0  0  0  0  0  0  1 V2000
  152.0172  145.8718  160.3791 C   0  0  0  0  0  0  0  0  0  0  0  0
  152.0752  144.5293  159.6803 C   0  0  0  0  0  0  0  0  0  0  0  0
  152.9309  143.5107  160.1412 C   0  0  0  0  0  0  0  0  0  0  0  0
  152.9393  142.2849  159.4469 C   0  0  0  0  0  0  0  0  0  0  0  0
  153.8367  141.1476  159.8873 C   0  0  0  0  0  0  0  0  0  0  0  0
  152.1690  142.0459  158.3639 N   0  0  0  0  0  0  0  0  0  0  0  0
  151.3412  143.0197  157.9107 C   0  0  0  0  0  0  0  0  0  0  0  0
  150.4890  142.8694  156.7846 N   0  0  0  0  0  0  0  0  0  0  0  0
  150.2625  141.7637  156.0536 C   0  0  0  0  0  0  0  0  0  0  0  0
  150.7881  140.6658  156.2404 O   0  0  0  0  0  0  0  0  0  0  0  0
  149.3801  142.0066  155.0732 N   0  0  0  0  0  0  0  0  0  0  0  0
  148.9128  141.0365  154.0873 C   0  0  0  0  0  0  0  0  0  0  0  0
  147.4941  140.5324  154.4131 C   0  0  1  0  0  0  0  0  0  0  0  0
  147.2861  140.0990  155.8627 C   0  0  0  0  0  0  0  0  0  0  0  0
  145.8421  140.4941  156.1422 C   0  0  0  0  0  0  0  0  0  0  0  0
  145.7427  141.7799  155.4664 N   0  0  0  0  0  0  0  0  0  0  0  0
  144.3725  142.2610  155.2992 C   0  0  0  0  0  0  0  0  0  0  0  0
  144.2761  143.7931  155.1620 C   0  0  0  0  0  0  0  0  0  0  0  0
  142.9944  144.1262  155.0154 F   0  0  0  0  0  0  0  0  0  0  0  0
  144.7438  144.4133  156.2451 F   0  0  0  0  0  0  0  0  0  0  0  0
  144.9471  144.2105  154.0880 F   0  0  0  0  0  0  0  0  0  0  0  0
  146.3979  141.5839  154.1759 C   0  0  0  0  0  0  0  0  0  0  0  0
  151.2710  144.2780  158.5503 C   0  0  0  0  0  0  0  0  0  0  0  0
  152.6010  145.8649  161.3000 H   0  0  0  0  0  0  0  0  0  0  0  0
  150.9871  146.1241  160.6318 H   0  0  0  0  0  0  0  0  0  0  0  0
  152.4133  146.6521  159.7289 H   0  0  0  0  0  0  0  0  0  0  0  0
  153.5641  143.6640  161.0030 H   0  0  0  0  0  0  0  0  0  0  0  0
  154.2466  141.3314  160.8808 H   0  0  0  0  0  0  0  0  0  0  0  0
  154.6670  141.0320  159.1903 H   0  0  0  0  0  0  0  0  0  0  0  0
  153.2805  140.2101  159.9188 H   0  0  0  0  0  0  0  0  0  0  0  0
  149.9898  143.7007  156.5057 H   0  0  0  0  0  0  0  0  0  0  0  0
  149.0022  142.9398  154.9997 H   0  0  0  0  0  0  0  0  0  0  0  0
  148.9499  141.4474  153.0767 H   0  0  0  0  0  0  0  0  0  0  0  0
  149.6087  140.1974  154.0987 H   0  0  0  0  0  0  0  0  0  0  0  0
  147.2742  139.6816  153.7660 H   0  0  0  0  0  0  0  0  0  0  0  0
  147.4687  139.0348  156.0153 H   0  0  0  0  0  0  0  0  0  0  0  0
  147.9486  140.6513  156.5310 H   0  0  0  0  0  0  0  0  0  0  0  0
  145.1535  139.7727  155.6990 H   0  0  0  0  0  0  0  0  0  0  0  0
  145.6386  140.5670  157.2104 H   0  0  0  0  0  0  0  0  0  0  0  0
  143.9724  141.8134  154.3882 H   0  0  0  0  0  0  0  0  0  0  0  0
  143.7449  141.9111  156.1202 H   0  0  0  0  0  0  0  0  0  0  0  0
  146.7895  142.5297  153.7997 H   0  0  0  0  0  0  0  0  0  0  0  0
  145.6864  141.2019  153.4419 H   0  0  0  0  0  0  0  0  0  0  0  0
  150.6069  145.0455  158.1796 H   0  0  0  0  0  0  0  0  0  0  0  0
  1  2  1  0  0  0  0
  1 24  1  0  0  0  0
  1 25  1  0  0  0  0
  1 26  1  0  0  0  0
  2 23  1  0  0  0  0
  2  3  2  0  0  0  0
  3  4  1  0  0  0  0
  3 27  1  0  0  0  0
  4  5  1  0  0  0  0
  4  6  2  0  0  0  0
  5 28  1  0  0  0  0
  5 29  1  0  0  0  0
  5 30  1  0  0  0  0
  6  7  1  0  0  0  0
  7  8  1  0  0  0  0
  7 23  2  0  0  0  0
  8  9  1  0  0  0  0
  8 31  1  0  0  0  0
  9 10  2  0  0  0  0
  9 11  1  0  0  0  0
 11 12  1  0  0  0  0
 11 32  1  0  0  0  0
 12 13  1  0  0  0  0
 12 33  1  0  0  0  0
 12 34  1  0  0  0  0
 13 22  1  0  0  0  0
 13 14  1  0  0  0  0
 13 35  1  0  0  0  0
 14 15  1  0  0  0  0
 14 36  1  0  0  0  0
 14 37  1  0  0  0  0
 15 16  1  0  0  0  0
 15 38  1  0  0  0  0
 15 39  1  0  0  0  0
 16 17  1  0  0  0  0
 16 22  1  0  0  0  0
 17 18  1  0  0  0  0
 17 40  1  0  0  0  0
 17 41  1  0  0  0  0
 18 19  1  0  0  0  0
 18 20  1  0  0  0  0
 18 21  1  0  0  0  0
 22 42  1  0  0  0  0
 22 43  1  0  0  0  0
 23 44  1  0  0  0  0
M  END
> <s_m_source_file>
AV-unprocessed.smi

> <i_m_source_file_index>
2245

> <i_lp_mmshare_version>
43012

> <i_f3d_flags>
0

> <s_epik_input>
W0NIM11jMVtjSF1jKFtDSDNdKW5jKFtjSF0xKVtOSF1DKD1PKVtOSF1bQ0gyXVtDQEBIXTJbQ0gyXVtDSDJdTihbQ0gyXTIpW0NIMl1DKEYpKEYpRg==

> <s_epik_cmdline>
J2VwaWtfcHl0aG9uJywgJy1waCcsICc3LjAnLCAnLXRuJywgJzgnLCAnLW1hJywgJzIwMCcsICctbWV0YWxfYmluZGluZycsICctaW1hZScsICc8aW5maWxlLm1hZT4nLCAnLW9tYWUnLCAnPG91dGZpbGUubWFlPic=

> <r_epik_Ionization_Penalty>
0.252219

> <r_epik_Ionization_Penalty_Charging>
0

> <r_epik_Ionization_Penalty_Neutral>
0.252219

> <r_epik_State_Penalty>
0.24335

> <r_epik_Charging_Adjusted_Penalty>
0.24335

> <i_epik_Tot_Q>
0

> <i_epik_Tot_abs_Q>
0

> <r_epik_Metal_State_Penalty>
0.243337

> <b_epik_Metal_Only>
0

> <s_lp_Force_Field>
OPLS_2005

> <r_lp_Energy>
32.1697

> <b_lp_Chiralities_Consistent>
1

> <s_lp_Variant>
AV-unprocessed.smi:2245-2

> <Gold.Version>
5.8.1

> <Gold.Id.Protein>
6NUR|6NUR_protein|mol2

> <Gold.PLP.Fitness>
49.6448

> <Gold.PLP.PLP>
-44.1318

> <Gold.PLP.part.hbond>
-2.0000

> <Gold.PLP.part.metal>
0.0000

> <Gold.PLP.part.buried>
-7.1159

> <Gold.PLP.part.nonpolar>
-36.7255

> <Gold.PLP.part.repulsive>
0.3882

> <Gold.PLP.ligand.clash>
0.0000

> <Gold.PLP.ligand.torsion>
0.4685

> <Gold.PLP.Chemscore.Hbond>
2.0000

> <Gold.PLP.Chemscore.CHOScore>
0.0000

> <Gold.PLP.Chemscore.Metal>
0.0000

> <Gold.Chemscore.Hbonds>
donor molecule, donor type, donor heavy atom, donor atom, acceptor molecule, acceptor atom, score
      L1  H     8    31       P1  8028  1.00
      L1  H    11    32       P1  8028  1.00

> <Gold.PLP.Chemscore.Internal.Correction>
0.4500

> <Gold.Rescore>
     Score         DG    S(hbond)    S(metal)    S(lipo)     H(rot)  DE(clash)    DE(int)     intcor
     17.86     -19.71       1.95        0.00     100.63       1.58       0.03       1.82       ----

> <Gold.Chemscore.Fitness>
17.8618

> <Gold.Chemscore.DG>
-19.7126

> <Gold.Chemscore.ZeroCoef>
-5.4800

> <Gold.Chemscore.Hbond>
1.9491

> <Gold.Chemscore.Metal>
0.0000

> <Gold.Chemscore.Lipo>
100.6318

> <Gold.Chemscore.Internal_Hbond>
0.0000

> <Gold.Chemscore.DEClash>
0.0311

> <Gold.Chemscore.DEInternal>
1.8197

> <Gold.Chemscore.Rot>
1.5826

> <Gold.Chemscore.Internal.Correction>
   9.000000E+99

> <Gold.Chemscore.Hbonds>
donor molecule, donor type, donor heavy atom, donor atom, acceptor molecule, acceptor atom, score
      L1  H     8    31       P1  8028  1.00
      L1  H    11    32       P1  8028  0.95

> <Gold.Chemscore.Hbond.Weighted>
-6.5101

> <Gold.Chemscore.Metal.Weighted>
-0.0000

> <Gold.Chemscore.Lipo.Weighted>
-11.7739

> <Gold.Chemscore.Internal_Hbond.Weighted>
0.0000

> <Gold.Chemscore.DEClash.Weighted>
0.0311

> <Gold.Chemscore.DEInternal.Weighted>
1.8197

> <Gold.Chemscore.Rot.Weighted>
4.0515

> <Gold.Chemscore.Internal.Correction.Weighted>
   9.000000E+99

> <Gold.Protein.RotatedTorsions>
[ 6907 6896 6895 6894 ] final  102.89 input  -60.11 | X-H torsion
[ 7974 7965 7964 7962 ] final  127.89 input  175.53 | X-H torsion
[ 8008 7997 7996 7995 ] final  -70.72 input   59.86 | X-H torsion
[ 10167 10162 10161 10158 ] final   42.97 input  -65.29 | X-H torsion
[ 10718 10713 10712 10709 ] final   22.12 input   66.30 | X-H torsion
[ 10763 10752 10751 10750 ] final -130.89 input  -60.55 | X-H torsion
[ 11005 11000 10999 10996 ] final -114.59 input  -57.11 | X-H torsion

> <Gold.Protein.ActiveResidues>
 VAL166  LYS551  ARG553  GLY616  TRP617  ASP618  TYR619  PRO620  LYS621  CYS622 
 ASP623  PHE694  ASN695  SER759  ASP760  ASP761  ALA762  ILE779  LEU786  VAL792 
 PHE793  MET794  SER795  GLU796  ALA797  LYS798  CYS799  TRP800  GLU811  SER814 

> <Gold.Protein.RotatedAtoms>
  152.5311  133.9908  159.7849 H   0  0  0  0  0  0  0  0  0  0  0  0  # atno 6907 bound_to 6896
  151.0144  133.5927  159.2686 H   0  0  0  0  0  0  0  0  0  0  0  0  # atno 6908 bound_to 6896
  151.2989  135.0770  159.9285 H   0  0  0  0  0  0  0  0  0  0  0  0  # atno 6909 bound_to 6896
  145.0456  139.3926  143.5080 H   0  0  0  0  0  0  0  0  0  0  0  0  # atno 7974 bound_to 7965
  154.5033  140.0829  156.7843 H   0  0  0  0  0  0  0  0  0  0  0  0  # atno 8008 bound_to 7997
  155.3952  140.3434  155.4235 H   0  0  0  0  0  0  0  0  0  0  0  0  # atno 8009 bound_to 7997
  156.1484  140.1551  156.8797 H   0  0  0  0  0  0  0  0  0  0  0  0  # atno 8010 bound_to 7997
  140.3491  144.2373  150.6147 H   0  0  0  0  0  0  0  0  0  0  0  0  # atno 10167 bound_to 10162
  157.1479  130.6661  149.6002 H   0  0  0  0  0  0  0  0  0  0  0  0  # atno 10718 bound_to 10713
  154.8753  135.3848  154.4157 H   0  0  0  0  0  0  0  0  0  0  0  0  # atno 10763 bound_to 10752
  153.4866  135.7030  153.5913 H   0  0  0  0  0  0  0  0  0  0  0  0  # atno 10764 bound_to 10752
  153.4305  135.3880  155.2134 H   0  0  0  0  0  0  0  0  0  0  0  0  # atno 10765 bound_to 10752
  141.0542  133.9639  157.2783 H   0  0  0  0  0  0  0  0  0  0  0  0  # atno 11005 bound_to 11000
  146.3513  140.0079  142.8670 LP  0  0  0  0  0  0  0  0  0  0  0  0  # atno 17320 bound_to 7965
  145.1592  140.9664  143.4387 LP  0  0  0  0  0  0  0  0  0  0  0  0  # atno 17321 bound_to 7965
  140.5236  143.2259  151.8349 LP  0  0  0  0  0  0  0  0  0  0  0  0  # atno 17342 bound_to 10162
  139.4829  144.4806  151.9311 LP  0  0  0  0  0  0  0  0  0  0  0  0  # atno 17343 bound_to 10162
  155.9776  130.4755  150.6603 LP  0  0  0  0  0  0  0  0  0  0  0  0  # atno 17370 bound_to 10713
  157.4247  131.0841  151.1097 LP  0  0  0  0  0  0  0  0  0  0  0  0  # atno 17371 bound_to 10713
  139.9376  135.0195  156.8605 LP  0  0  0  0  0  0  0  0  0  0  0  0  # atno 17394 bound_to 11000
  140.5996  134.0184  155.7532 LP  0  0  0  0  0  0  0  0  0  0  0  0  # atno 17395 bound_to 11000

$$$$
