AV-unprocessed.smi:160|AV-procd|sdf|1344|dock7
  -GOLD-   2262019 43D 1   1.00000     0.00000
 Structure written by MMmdl.
 29 30  0  0  0  0  0  0  0  0  1 V2000
  154.9197  137.4644  158.5454 N   0  0  0  0  0  0  0  0  0  0  0  0
  154.4429  136.9040  157.4289 C   0  0  0  0  0  0  0  0  0  0  0  0
  154.7716  135.7758  157.0657 O   0  0  0  0  0  0  0  0  0  0  0  0
  153.4721  137.7318  156.6332 C   0  0  0  0  0  0  0  0  0  0  0  0
  152.9376  137.2669  155.4649 N   0  0  0  0  0  0  0  0  0  0  0  0
  152.1741  138.3075  155.1568 C   0  0  0  0  0  0  0  0  0  0  0  0
  152.2344  139.3116  156.0374 N   0  0  0  0  0  0  0  0  0  0  0  0
  151.5238  140.6327  156.0361 C   0  0  1  0  0  0  0  0  0  0  0  0
  150.6540  140.6618  154.9432 O   0  0  0  0  0  0  0  0  0  0  0  0
  149.3182  140.4427  155.3859 C   0  0  2  0  0  0  0  0  0  0  0  0
  148.3283  140.9825  154.3428 C   0  0  0  0  0  0  0  0  0  0  0  0
  149.0296  141.4653  153.2168 O   0  0  0  0  0  0  0  0  0  0  0  0
  149.3104  141.2165  156.7047 C   0  0  1  0  0  0  0  0  0  0  0  0
  148.2204  140.8733  157.5402 O   0  0  0  0  0  0  0  0  0  0  0  0
  150.6744  140.8800  157.3068 C   0  0  1  0  0  0  0  0  0  0  0  0
  150.6228  139.7771  158.1998 O   0  0  0  0  0  0  0  0  0  0  0  0
  153.0899  138.9477  157.0258 N   0  0  0  0  0  0  0  0  0  0  0  0
  152.3178  141.3675  155.8971 H   0  0  0  0  0  0  0  0  0  0  0  0
  149.1491  139.3813  155.5781 H   0  0  0  0  0  0  0  0  0  0  0  0
  149.2698  142.2865  156.4954 H   0  0  0  0  0  0  0  0  0  0  0  0
  151.0798  141.7354  157.8481 H   0  0  0  0  0  0  0  0  0  0  0  0
  155.5750  136.9592  159.1232 H   0  0  0  0  0  0  0  0  0  0  0  0
  154.6185  138.3935  158.8031 H   0  0  0  0  0  0  0  0  0  0  0  0
  151.5595  138.3393  154.2690 H   0  0  0  0  0  0  0  0  0  0  0  0
  147.6705  140.1834  154.0000 H   0  0  0  0  0  0  0  0  0  0  0  0
  147.6959  141.7658  154.7620 H   0  0  0  0  0  0  0  0  0  0  0  0
  149.1073  140.7647  152.5874 H   0  0  0  0  0  0  0  0  0  0  0  0
  147.9083  140.0175  157.2893 H   0  0  0  0  0  0  0  0  0  0  0  0
  151.0689  140.0133  158.9985 H   0  0  0  0  0  0  0  0  0  0  0  0
  1  2  1  0  0  0  0
  1 22  1  0  0  0  0
  1 23  1  0  0  0  0
  2  3  2  0  0  0  0
  2  4  1  0  0  0  0
  4 17  2  0  0  0  0
  4  5  1  0  0  0  0
  5  6  2  0  0  0  0
  6  7  1  0  0  0  0
  6 24  1  0  0  0  0
  7  8  1  0  0  0  0
  7 17  1  0  0  0  0
  8 18  1  0  0  0  0
  8 15  1  0  0  0  0
  8  9  1  0  0  0  0
  9 10  1  0  0  0  0
 10 19  1  0  0  0  0
 10 11  1  0  0  0  0
 10 13  1  0  0  0  0
 11 12  1  0  0  0  0
 11 25  1  0  0  0  0
 11 26  1  0  0  0  0
 12 27  1  0  0  0  0
 13 20  1  0  0  0  0
 13 14  1  0  0  0  0
 13 15  1  0  0  0  0
 14 28  1  0  0  0  0
 15 21  1  0  0  0  0
 15 16  1  0  0  0  0
 16 29  1  0  0  0  0
M  END
> <s_m_source_file>
AV-unprocessed.smi

> <i_m_source_file_index>
160

> <i_lp_mmshare_version>
43012

> <i_f3d_flags>
0

> <s_epik_input>
W05IMl1DKD1PKWMxbltjSF1uKG4xKVtDQEBIXTJPW0NASF0oW0NIMl1bT0hdKVtDQEBIXShbT0hdKVtDQEhdMltPSF0=

> <s_epik_cmdline>
J2VwaWtfcHl0aG9uJywgJy1waCcsICc3LjAnLCAnLXRuJywgJzgnLCAnLW1hJywgJzIwMCcsICctbWV0YWxfYmluZGluZycsICctaW1hZScsICc8aW5maWxlLm1hZT4nLCAnLW9tYWUnLCAnPG91dGZpbGUubWFlPic=

> <r_lp_tautomer_probability>
1

> <r_epik_Ionization_Penalty>
1.06932e-05

> <r_epik_Ionization_Penalty_Charging>
0

> <r_epik_Ionization_Penalty_Neutral>
1.06932e-05

> <r_epik_State_Penalty>
-0

> <r_epik_Charging_Adjusted_Penalty>
0

> <i_epik_Tot_Q>
0

> <i_epik_Tot_abs_Q>
0

> <r_epik_Metal_State_Penalty>
0.0142097

> <b_epik_Metal_Only>
0

> <s_epik_Chemistry_Notes>
This compound contains an acetal/aminal-like group ( X-CH(R)-Y where X, Y are N, S, or O) that may be acid/base labile, releasing an aldehyde.

> <s_lp_Force_Field>
OPLS_2005

> <r_lp_Energy>
46.1789

> <b_lp_Chiralities_Consistent>
1

> <s_lp_Variant>
AV-unprocessed.smi:160-2

> <Gold.Version>
5.8.1

> <Gold.Id.Protein>
6NUR|6NUR_protein|mol2

> <Gold.PLP.Fitness>
37.2476

> <Gold.PLP.PLP>
-23.1179

> <Gold.PLP.part.hbond>
-6.5166

> <Gold.PLP.part.metal>
0.0000

> <Gold.PLP.part.buried>
-1.8582

> <Gold.PLP.part.nonpolar>
-14.8447

> <Gold.PLP.part.repulsive>
0.1955

> <Gold.PLP.ligand.clash>
0.0000

> <Gold.PLP.ligand.torsion>
0.7674

> <Gold.PLP.Chemscore.Hbond>
5.2160

> <Gold.PLP.Chemscore.CHOScore>
0.0000

> <Gold.PLP.Chemscore.Metal>
0.0000

> <Gold.Chemscore.Hbonds>
donor molecule, donor type, donor heavy atom, donor atom, acceptor molecule, acceptor atom, score
      L1  H    12    27       P1  7957  1.00
      P1  H  7989  7998       L1     9  0.93
      P1  H  7997  8008       L1    17  1.00
      P1  H  8011  8017       L1    12  0.54
      P1  H 10752 10764       L1     5  0.34
      P1  H 10752 10765       L1     3  1.00

> <Gold.PLP.Chemscore.Internal.Correction>
0.0165

> <Gold.Rescore>
     Score         DG    S(hbond)    S(metal)    S(lipo)     H(rot)  DE(clash)    DE(int)     intcor
      8.47     -10.54       3.84        0.00      22.37       4.06       0.23       1.84       ----

> <Gold.Chemscore.Fitness>
8.4740

> <Gold.Chemscore.DG>
-10.5404

> <Gold.Chemscore.ZeroCoef>
-5.4800

> <Gold.Chemscore.Hbond>
3.8433

> <Gold.Chemscore.Metal>
0.0000

> <Gold.Chemscore.Lipo>
22.3715

> <Gold.Chemscore.Internal_Hbond>
0.0000

> <Gold.Chemscore.DEClash>
0.2267

> <Gold.Chemscore.DEInternal>
1.8397

> <Gold.Chemscore.Rot>
4.0600

> <Gold.Chemscore.Internal.Correction>
   9.000000E+99

> <Gold.Chemscore.Hbonds>
donor molecule, donor type, donor heavy atom, donor atom, acceptor molecule, acceptor atom, score
      L1  H    12    27       P1  7957  0.98
      P1  H  7989  7998       L1     9  0.54
      P1  H  7997  8008       L1    17  0.36
      P1  H  8011  8017       L1    12  0.04
      P1  H 10752 10764       L1     5  0.34
      P1  H 10752 10765       L1     3  0.93

> <Gold.Chemscore.Hbond.Weighted>
-12.8366

> <Gold.Chemscore.Metal.Weighted>
-0.0000

> <Gold.Chemscore.Lipo.Weighted>
-2.6175

> <Gold.Chemscore.Internal_Hbond.Weighted>
0.0000

> <Gold.Chemscore.DEClash.Weighted>
0.2267

> <Gold.Chemscore.DEInternal.Weighted>
1.8397

> <Gold.Chemscore.Rot.Weighted>
10.3936

> <Gold.Chemscore.Internal.Correction.Weighted>
   9.000000E+99

> <Gold.Protein.RotatedTorsions>
[ 6907 6896 6895 6894 ] final   75.43 input  -60.11 | X-H torsion
[ 7974 7965 7964 7962 ] final  -34.13 input  175.53 | X-H torsion
[ 8008 7997 7996 7995 ] final  -79.55 input   59.86 | X-H torsion
[ 10167 10162 10161 10158 ] final   20.87 input  -65.29 | X-H torsion
[ 10718 10713 10712 10709 ] final   20.63 input   66.30 | X-H torsion
[ 10763 10752 10751 10750 ] final  -63.84 input  -60.55 | X-H torsion
[ 11005 11000 10999 10996 ] final -171.44 input  -57.11 | X-H torsion

> <Gold.Protein.ActiveResidues>
 VAL166  LYS551  ARG553  GLY616  TRP617  ASP618  TYR619  PRO620  LYS621  CYS622 
 ASP623  PHE694  ASN695  SER759  ASP760  ASP761  ALA762  ILE779  LEU786  VAL792 
 PHE793  MET794  SER795  GLU796  ALA797  LYS798  CYS799  TRP800  GLU811  SER814 

> <Gold.Protein.RotatedAtoms>
  152.5025  134.4121  159.9452 H   0  0  0  0  0  0  0  0  0  0  0  0  # atno 6907 bound_to 6896
  151.4090  133.3727  159.2749 H   0  0  0  0  0  0  0  0  0  0  0  0  # atno 6908 bound_to 6896
  150.9305  134.8742  159.7607 H   0  0  0  0  0  0  0  0  0  0  0  0  # atno 6909 bound_to 6896
  146.0854  140.6001  142.8889 H   0  0  0  0  0  0  0  0  0  0  0  0  # atno 7974 bound_to 7965
  154.5796  140.0677  156.9084 H   0  0  0  0  0  0  0  0  0  0  0  0  # atno 8008 bound_to 7997
  155.2487  140.3350  155.4266 H   0  0  0  0  0  0  0  0  0  0  0  0  # atno 8009 bound_to 7997
  156.2179  140.1786  156.7531 H   0  0  0  0  0  0  0  0  0  0  0  0  # atno 8010 bound_to 7997
  140.5470  143.9576  150.6554 H   0  0  0  0  0  0  0  0  0  0  0  0  # atno 10167 bound_to 10162
  157.1272  130.6575  149.5941 H   0  0  0  0  0  0  0  0  0  0  0  0  # atno 10718 bound_to 10713
  154.3211  135.6196  153.5508 H   0  0  0  0  0  0  0  0  0  0  0  0  # atno 10763 bound_to 10752
  152.9820  135.5724  154.5068 H   0  0  0  0  0  0  0  0  0  0  0  0  # atno 10764 bound_to 10752
  154.4737  135.2860  155.1600 H   0  0  0  0  0  0  0  0  0  0  0  0  # atno 10765 bound_to 10752
  140.5082  134.5827  157.5010 H   0  0  0  0  0  0  0  0  0  0  0  0  # atno 11005 bound_to 11000
  144.7322  140.4705  143.6929 LP  0  0  0  0  0  0  0  0  0  0  0  0  # atno 17320 bound_to 7965
  145.6139  139.1516  143.3060 LP  0  0  0  0  0  0  0  0  0  0  0  0  # atno 17321 bound_to 7965
  140.2992  143.3272  152.0988 LP  0  0  0  0  0  0  0  0  0  0  0  0  # atno 17342 bound_to 10162
  139.5011  144.6707  151.6249 LP  0  0  0  0  0  0  0  0  0  0  0  0  # atno 17343 bound_to 10162
  155.9815  130.4823  150.6834 LP  0  0  0  0  0  0  0  0  0  0  0  0  # atno 17370 bound_to 10713
  157.4424  131.0863  151.0930 LP  0  0  0  0  0  0  0  0  0  0  0  0  # atno 17371 bound_to 10713
  139.9674  134.7350  156.0110 LP  0  0  0  0  0  0  0  0  0  0  0  0  # atno 17394 bound_to 11000
  141.1400  133.6567  156.3701 LP  0  0  0  0  0  0  0  0  0  0  0  0  # atno 17395 bound_to 11000

$$$$
