AV-unprocessed.smi:110|AV-procd|sdf|1071|dock9
  -GOLD-   2262018153D 1   1.00000     0.00000
 Structure written by MMmdl.
 46 50  0  0  0  0  0  0  0  0  1 V2000
  146.6905  142.5746  155.1423 O   0  0  0  0  0  0  0  0  0  0  0  0
  146.9151  141.1830  155.2124 C   0  0  0  0  0  0  0  0  0  0  0  0
  147.3615  140.6530  153.8288 C   0  0  1  0  0  0  0  0  0  0  0  0
  148.6683  141.1225  153.5125 O   0  0  0  0  0  0  0  0  0  0  0  0
  149.6537  140.2723  154.0248 C   0  0  1  0  0  0  0  0  0  0  0  0
  150.2205  140.8853  155.2763 N   0  0  0  0  0  0  0  0  0  0  0  0
  149.7998  142.0155  155.9468 C   0  0  0  0  0  0  0  0  0  0  0  0
  150.4619  142.3039  157.0330 N   0  0  0  0  0  0  0  0  0  0  0  0
  151.3875  141.2757  157.1530 C   0  0  0  0  0  0  0  0  0  0  0  0
  152.4022  140.9521  158.0988 C   0  0  0  0  0  0  0  0  0  0  0  0
  152.7062  141.6991  159.1856 N   0  0  0  0  0  0  0  0  0  0  0  0
  153.2057  141.0381  160.3995 C   0  0  0  0  0  0  0  0  0  0  0  0
  153.0467  142.0301  161.5673 C   0  0  0  0  0  0  0  0  0  0  0  0
  152.5441  143.2405  160.8483 C   0  0  0  0  0  0  0  0  0  0  0  0
  152.2737  144.5062  161.3967 C   0  0  0  0  0  0  0  0  0  0  0  0
  151.8270  145.5255  160.5288 C   0  0  0  0  0  0  0  0  0  0  0  0
  151.6708  145.2696  159.1467 C   0  0  0  0  0  0  0  0  0  0  0  0
  151.9508  143.9905  158.6176 C   0  0  0  0  0  0  0  0  0  0  0  0
  152.3749  142.9705  159.4940 C   0  0  0  0  0  0  0  0  0  0  0  0
  153.0757  139.7869  157.9259 N   0  0  0  0  0  0  0  0  0  0  0  0
  152.8063  139.0066  156.8765 C   0  0  0  0  0  0  0  0  0  0  0  0
  151.9127  139.1967  155.9050 N   0  0  0  0  0  0  0  0  0  0  0  0
  151.2146  140.3568  156.0789 C   0  0  0  0  0  0  0  0  0  0  0  0
  148.9606  138.9223  154.3118 C   0  0  2  0  0  0  0  0  0  0  0  0
  149.5999  137.8521  153.6465 O   0  0  0  0  0  0  0  0  0  0  0  0
  147.5674  139.1358  153.7315 C   0  0  1  0  0  0  0  0  0  0  0  0
  146.5863  138.3974  154.4334 O   0  0  0  0  0  0  0  0  0  0  0  0
  146.6510  140.9804  153.0686 H   0  0  0  0  0  0  0  0  0  0  0  0
  150.5051  140.2128  153.3457 H   0  0  0  0  0  0  0  0  0  0  0  0
  148.8968  138.7328  155.3833 H   0  0  0  0  0  0  0  0  0  0  0  0
  147.5469  138.8497  152.6783 H   0  0  0  0  0  0  0  0  0  0  0  0
  147.4661  143.0202  155.4472 H   0  0  0  0  0  0  0  0  0  0  0  0
  147.6275  140.9563  156.0037 H   0  0  0  0  0  0  0  0  0  0  0  0
  145.9676  140.7326  155.5070 H   0  0  0  0  0  0  0  0  0  0  0  0
  148.9820  142.6337  155.6070 H   0  0  0  0  0  0  0  0  0  0  0  0
  152.6543  140.1167  160.5920 H   0  0  0  0  0  0  0  0  0  0  0  0
  154.2554  140.7761  160.2614 H   0  0  0  0  0  0  0  0  0  0  0  0
  152.3124  141.6882  162.2973 H   0  0  0  0  0  0  0  0  0  0  0  0
  153.9924  142.2327  162.0702 H   0  0  0  0  0  0  0  0  0  0  0  0
  152.4092  144.6951  162.4511 H   0  0  0  0  0  0  0  0  0  0  0  0
  151.6118  146.5085  160.9207 H   0  0  0  0  0  0  0  0  0  0  0  0
  151.3394  146.0599  158.4894 H   0  0  0  0  0  0  0  0  0  0  0  0
  151.8441  143.8071  157.5588 H   0  0  0  0  0  0  0  0  0  0  0  0
  153.3911  138.1017  156.8029 H   0  0  0  0  0  0  0  0  0  0  0  0
  149.1013  137.6381  152.8727 H   0  0  0  0  0  0  0  0  0  0  0  0
  145.7864  138.9008  154.4439 H   0  0  0  0  0  0  0  0  0  0  0  0
  1  2  1  0  0  0  0
  1 32  1  0  0  0  0
  2  3  1  0  0  0  0
  2 33  1  0  0  0  0
  2 34  1  0  0  0  0
  3 28  1  0  0  0  0
  3 26  1  0  0  0  0
  3  4  1  0  0  0  0
  4  5  1  0  0  0  0
  5 29  1  0  0  0  0
  5  6  1  0  0  0  0
  5 24  1  0  0  0  0
  6 23  1  0  0  0  0
  6  7  1  0  0  0  0
  7  8  2  0  0  0  0
  7 35  1  0  0  0  0
  8  9  1  0  0  0  0
  9 23  2  0  0  0  0
  9 10  1  0  0  0  0
 10 11  1  0  0  0  0
 10 20  2  0  0  0  0
 11 19  1  0  0  0  0
 11 12  1  0  0  0  0
 12 13  1  0  0  0  0
 12 36  1  0  0  0  0
 12 37  1  0  0  0  0
 13 14  1  0  0  0  0
 13 38  1  0  0  0  0
 13 39  1  0  0  0  0
 14 19  2  0  0  0  0
 14 15  1  0  0  0  0
 15 16  2  0  0  0  0
 15 40  1  0  0  0  0
 16 17  1  0  0  0  0
 16 41  1  0  0  0  0
 17 18  2  0  0  0  0
 17 42  1  0  0  0  0
 18 19  1  0  0  0  0
 18 43  1  0  0  0  0
 20 21  1  0  0  0  0
 21 22  2  0  0  0  0
 21 44  1  0  0  0  0
 22 23  1  0  0  0  0
 24 30  1  0  0  0  0
 24 25  1  0  0  0  0
 24 26  1  0  0  0  0
 25 45  1  0  0  0  0
 26 31  1  0  0  0  0
 26 27  1  0  0  0  0
 27 46  1  0  0  0  0
M  END
> <s_m_source_file>
AV-unprocessed.smi

> <i_m_source_file_index>
110

> <i_lp_mmshare_version>
43012

> <i_f3d_flags>
0

> <s_epik_input>
W09IXVtDSDJdW0NASF0xT1tDQEhdKFtDQEhdKFtPSF0pW0NAQEhdMVtPSF0pbihbY0hdbjIpYyhjMjMpbltjSF1uYzNOKFtDSDJdW0NIMl00KWMoYzQ1KVtjSF1bY0hdW2NIXVtjSF01

> <s_epik_cmdline>
J2VwaWtfcHl0aG9uJywgJy1waCcsICc3LjAnLCAnLXRuJywgJzgnLCAnLW1hJywgJzIwMCcsICctbWV0YWxfYmluZGluZycsICctaW1hZScsICc8aW5maWxlLm1hZT4nLCAnLW9tYWUnLCAnPG91dGZpbGUubWFlPic=

> <r_lp_tautomer_probability>
1

> <r_epik_Ionization_Penalty>
0.00068475

> <r_epik_Ionization_Penalty_Charging>
0

> <r_epik_Ionization_Penalty_Neutral>
0.00068475

> <r_epik_State_Penalty>
0.000417442

> <r_epik_Charging_Adjusted_Penalty>
0.000417442

> <i_epik_Tot_Q>
0

> <i_epik_Tot_abs_Q>
0

> <r_epik_Metal_State_Penalty>
-0

> <b_epik_Metal_Only>
0

> <s_epik_Chemistry_Notes>
This compound contains an acetal/aminal-like group ( X-CH(R)-Y where X, Y are N, S, or O) that may be acid/base labile, releasing an aldehyde.

> <s_lp_Force_Field>
OPLS_2005

> <r_lp_Energy>
59.87

> <b_lp_Chiralities_Consistent>
1

> <s_lp_Variant>
AV-unprocessed.smi:110-9

> <Gold.Version>
5.8.1

> <Gold.Id.Protein>
6NUR|6NUR_protein|mol2

> <Gold.PLP.Fitness>
61.3505

> <Gold.PLP.PLP>
-49.7428

> <Gold.PLP.part.hbond>
-3.8783

> <Gold.PLP.part.metal>
0.0000

> <Gold.PLP.part.buried>
0.0094

> <Gold.PLP.part.nonpolar>
-48.4981

> <Gold.PLP.part.repulsive>
2.9645

> <Gold.PLP.ligand.clash>
0.0000

> <Gold.PLP.ligand.torsion>
0.3200

> <Gold.PLP.Chemscore.Hbond>
3.0422

> <Gold.PLP.Chemscore.CHOScore>
1.0000

> <Gold.PLP.Chemscore.Metal>
0.0000

> <Gold.Chemscore.Hbonds>
donor molecule, donor type, donor heavy atom, donor atom, acceptor molecule, acceptor atom, score
      L1  H     1    32       P1  8028  0.60
      L1  H    25    45       P1  7948  0.69
      P1  H  7997  8008       L1    20  0.29
      P1  H  8011  8017       L1     4  0.83
      L1  C     7    35       P1  8028  0.95

> <Gold.PLP.Chemscore.Internal.Correction>
0.1213

> <Gold.Rescore>
     Score         DG    S(hbond)    S(metal)    S(lipo)     H(rot)  DE(clash)    DE(int)     intcor
     11.32     -16.10       1.54        0.00     120.74       3.38       2.91       1.86       ----

> <Gold.Chemscore.Fitness>
11.3249

> <Gold.Chemscore.DG>
-16.0962

> <Gold.Chemscore.ZeroCoef>
-5.4800

> <Gold.Chemscore.Hbond>
1.5424

> <Gold.Chemscore.Metal>
0.0000

> <Gold.Chemscore.Lipo>
120.7410

> <Gold.Chemscore.Internal_Hbond>
0.0000

> <Gold.Chemscore.DEClash>
2.9071

> <Gold.Chemscore.DEInternal>
1.8641

> <Gold.Chemscore.Rot>
3.3837

> <Gold.Chemscore.Internal.Correction>
   9.000000E+99

> <Gold.Chemscore.Hbonds>
donor molecule, donor type, donor heavy atom, donor atom, acceptor molecule, acceptor atom, score
      L1  H     1    32       P1  8028  0.15
      L1  H    25    45       P1  7948  0.70
      P1  H  7997  8008       L1    20  0.01
      P1  H  8011  8017       L1     4  0.27

> <Gold.Chemscore.Hbond.Weighted>
-5.1516

> <Gold.Chemscore.Metal.Weighted>
-0.0000

> <Gold.Chemscore.Lipo.Weighted>
-14.1267

> <Gold.Chemscore.Internal_Hbond.Weighted>
0.0000

> <Gold.Chemscore.DEClash.Weighted>
2.9071

> <Gold.Chemscore.DEInternal.Weighted>
1.8641

> <Gold.Chemscore.Rot.Weighted>
8.6622

> <Gold.Chemscore.Internal.Correction.Weighted>
   9.000000E+99

> <Gold.Protein.RotatedTorsions>
[ 6907 6896 6895 6894 ] final  122.89 input  -60.11 | X-H torsion
[ 7974 7965 7964 7962 ] final   34.31 input  175.53 | X-H torsion
[ 8008 7997 7996 7995 ] final -102.04 input   59.86 | X-H torsion
[ 10167 10162 10161 10158 ] final  -37.52 input  -65.29 | X-H torsion
[ 10718 10713 10712 10709 ] final  169.76 input   66.30 | X-H torsion
[ 10763 10752 10751 10750 ] final  -53.82 input  -60.55 | X-H torsion
[ 11005 11000 10999 10996 ] final   58.43 input  -57.11 | X-H torsion

> <Gold.Protein.ActiveResidues>
 VAL166  LYS551  ARG553  GLY616  TRP617  ASP618  TYR619  PRO620  LYS621  CYS622 
 ASP623  PHE694  ASN695  SER759  ASP760  ASP761  ALA762  ILE779  LEU786  VAL792 
 PHE793  MET794  SER795  GLU796  ALA797  LYS798  CYS799  TRP800  GLU811  SER814 

> <Gold.Protein.RotatedAtoms>
  152.4206  133.7111  159.6478 H   0  0  0  0  0  0  0  0  0  0  0  0  # atno 6907 bound_to 6896
  150.8082  133.8459  159.3201 H   0  0  0  0  0  0  0  0  0  0  0  0  # atno 6908 bound_to 6896
  151.6176  135.1037  160.0146 H   0  0  0  0  0  0  0  0  0  0  0  0  # atno 6909 bound_to 6896
  146.1361  139.6285  142.9194 H   0  0  0  0  0  0  0  0  0  0  0  0  # atno 7974 bound_to 7965
  154.8510  140.0431  157.1604 H   0  0  0  0  0  0  0  0  0  0  0  0  # atno 8008 bound_to 7997
  154.8942  140.2991  155.5333 H   0  0  0  0  0  0  0  0  0  0  0  0  # atno 8009 bound_to 7997
  156.2996  140.2388  156.3962 H   0  0  0  0  0  0  0  0  0  0  0  0  # atno 8010 bound_to 7997
  140.7116  143.3337  151.2512 H   0  0  0  0  0  0  0  0  0  0  0  0  # atno 10167 bound_to 10162
  157.0180  131.0223  151.2783 H   0  0  0  0  0  0  0  0  0  0  0  0  # atno 10718 bound_to 10713
  154.1650  135.6468  153.4995 H   0  0  0  0  0  0  0  0  0  0  0  0  # atno 10763 bound_to 10752
  153.0100  135.5370  154.6671 H   0  0  0  0  0  0  0  0  0  0  0  0  # atno 10764 bound_to 10752
  154.5995  135.2942  155.0522 H   0  0  0  0  0  0  0  0  0  0  0  0  # atno 10765 bound_to 10752
  140.0378  134.5918  155.9421 H   0  0  0  0  0  0  0  0  0  0  0  0  # atno 11005 bound_to 11000
  145.5152  141.0434  143.2466 LP  0  0  0  0  0  0  0  0  0  0  0  0  # atno 17320 bound_to 7965
  144.7742  139.6668  143.7182 LP  0  0  0  0  0  0  0  0  0  0  0  0  # atno 17321 bound_to 7965
  139.6826  143.9829  152.2816 LP  0  0  0  0  0  0  0  0  0  0  0  0  # atno 17342 bound_to 10162
  139.9464  144.6649  150.8215 LP  0  0  0  0  0  0  0  0  0  0  0  0  # atno 17343 bound_to 10162
  157.5271  130.8035  149.7874 LP  0  0  0  0  0  0  0  0  0  0  0  0  # atno 17370 bound_to 10713
  156.0112  130.3832  150.2258 LP  0  0  0  0  0  0  0  0  0  0  0  0  # atno 17371 bound_to 10713
  141.1867  133.6558  156.5249 LP  0  0  0  0  0  0  0  0  0  0  0  0  # atno 17394 bound_to 11000
  140.4119  134.7264  157.4841 LP  0  0  0  0  0  0  0  0  0  0  0  0  # atno 17395 bound_to 11000

$$$$
