AV-unprocessed.smi:266|AV-procd|sdf|2031|dock1
  -GOLD-   2262021233D 1   1.00000     0.00000
 Structure written by MMmdl.
 52 55  0  0  0  0  0  0  0  0  1 V2000
  145.5428  129.7348  151.9858 C   0  0  0  0  0  0  0  0  0  0  0  0
  145.2051  131.2030  151.6831 C   0  0  2  0  0  0  0  0  0  0  0  0
  145.7750  131.5270  150.4177 O   0  0  0  0  0  0  0  0  0  0  0  0
  146.1037  132.9049  150.4037 C   0  0  0  0  0  0  0  0  0  0  0  0
  146.6673  133.1195  151.7997 C   0  0  0  0  0  0  0  0  0  0  0  0
  145.7502  132.2692  152.6760 C   0  0  1  0  0  0  0  0  0  0  0  0
  144.6584  133.0824  153.0738 O   0  0  0  0  0  0  0  0  0  0  0  0
  146.4376  131.7340  153.9602 C   0  0  0  0  0  0  0  0  0  0  0  0
  147.0714  132.7799  154.7488 N   0  0  0  0  0  0  0  0  0  0  0  0
  148.2541  133.4239  154.4679 C   0  0  0  0  0  0  0  0  0  0  0  0
  148.6217  134.3157  155.3456 N   0  0  0  0  0  0  0  0  0  0  0  0
  147.6180  134.2896  156.3080 C   0  0  0  0  0  0  0  0  0  0  0  0
  147.3898  134.9820  157.5344 C   0  0  0  0  0  0  0  0  0  0  0  0
  148.2622  135.8736  158.0798 N   0  0  0  0  0  0  0  0  0  0  0  0
  147.9879  136.3656  159.4277 C   0  0  0  0  0  0  0  0  0  0  0  0
  149.6638  135.8182  157.6597 C   0  0  0  0  0  0  0  0  0  0  0  0
  150.0530  136.9178  156.6474 C   0  0  2  0  0  0  0  0  0  0  0  0
  151.0880  136.4073  155.6258 C   0  0  0  0  0  0  0  0  0  0  0  0
  151.6290  137.6008  154.8335 C   0  0  0  0  0  0  0  0  0  0  0  0
  151.6847  138.9895  156.0235 S   0  0  0  0  0  0  0  0  0  0  0  0
  153.0507  139.1295  156.5503 O   0  0  0  0  0  0  0  0  0  0  0  0
  150.9709  140.1412  155.4516 O   0  0  0  0  0  0  0  0  0  0  0  0
  150.6386  138.1868  157.2956 C   0  0  0  0  0  0  0  0  0  0  0  0
  146.2356  134.6997  158.1976 N   0  0  0  0  0  0  0  0  0  0  0  0
  145.3794  133.7929  157.7203 C   0  0  0  0  0  0  0  0  0  0  0  0
  145.4772  133.0575  156.6128 N   0  0  0  0  0  0  0  0  0  0  0  0
  146.6221  133.3432  155.9303 C   0  0  0  0  0  0  0  0  0  0  0  0
  145.1289  129.4200  152.9439 H   0  0  0  0  0  0  0  0  0  0  0  0
  146.6197  129.5670  152.0058 H   0  0  0  0  0  0  0  0  0  0  0  0
  145.1265  129.0797  151.2202 H   0  0  0  0  0  0  0  0  0  0  0  0
  144.1213  131.2922  151.5865 H   0  0  0  0  0  0  0  0  0  0  0  0
  146.8202  133.1412  149.6169 H   0  0  0  0  0  0  0  0  0  0  0  0
  145.2031  133.5003  150.2453 H   0  0  0  0  0  0  0  0  0  0  0  0
  147.6839  132.7257  151.8273 H   0  0  0  0  0  0  0  0  0  0  0  0
  146.7100  134.1703  152.0912 H   0  0  0  0  0  0  0  0  0  0  0  0
  144.0796  132.5648  153.6123 H   0  0  0  0  0  0  0  0  0  0  0  0
  145.7170  131.2159  154.5946 H   0  0  0  0  0  0  0  0  0  0  0  0
  147.2059  131.0038  153.7063 H   0  0  0  0  0  0  0  0  0  0  0  0
  148.8450  133.2028  153.5909 H   0  0  0  0  0  0  0  0  0  0  0  0
  146.9593  136.7185  159.5115 H   0  0  0  0  0  0  0  0  0  0  0  0
  148.6442  137.2008  159.6731 H   0  0  0  0  0  0  0  0  0  0  0  0
  148.1474  135.5814  160.1685 H   0  0  0  0  0  0  0  0  0  0  0  0
  150.3423  135.8316  158.5093 H   0  0  0  0  0  0  0  0  0  0  0  0
  149.8203  134.8446  157.1942 H   0  0  0  0  0  0  0  0  0  0  0  0
  149.1680  137.2093  156.0801 H   0  0  0  0  0  0  0  0  0  0  0  0
  151.9146  135.9353  156.1588 H   0  0  0  0  0  0  0  0  0  0  0  0
  150.6633  135.6521  154.9637 H   0  0  0  0  0  0  0  0  0  0  0  0
  152.6181  137.4237  154.4106 H   0  0  0  0  0  0  0  0  0  0  0  0
  150.9461  137.8725  154.0285 H   0  0  0  0  0  0  0  0  0  0  0  0
  149.8725  138.8829  157.6373 H   0  0  0  0  0  0  0  0  0  0  0  0
  151.2815  137.9376  158.1401 H   0  0  0  0  0  0  0  0  0  0  0  0
  144.4930  133.6279  158.3148 H   0  0  0  0  0  0  0  0  0  0  0  0
  1  2  1  0  0  0  0
  1 28  1  0  0  0  0
  1 29  1  0  0  0  0
  1 30  1  0  0  0  0
  2  6  1  0  0  0  0
  2  3  1  0  0  0  0
  2 31  1  0  0  0  0
  3  4  1  0  0  0  0
  4  5  1  0  0  0  0
  4 32  1  0  0  0  0
  4 33  1  0  0  0  0
  5  6  1  0  0  0  0
  5 34  1  0  0  0  0
  5 35  1  0  0  0  0
  6  7  1  0  0  0  0
  6  8  1  0  0  0  0
  7 36  1  0  0  0  0
  8  9  1  0  0  0  0
  8 37  1  0  0  0  0
  8 38  1  0  0  0  0
  9 27  1  0  0  0  0
  9 10  1  0  0  0  0
 10 11  2  0  0  0  0
 10 39  1  0  0  0  0
 11 12  1  0  0  0  0
 12 27  2  0  0  0  0
 12 13  1  0  0  0  0
 13 14  1  0  0  0  0
 13 24  2  0  0  0  0
 14 15  1  0  0  0  0
 14 16  1  0  0  0  0
 15 40  1  0  0  0  0
 15 41  1  0  0  0  0
 15 42  1  0  0  0  0
 16 17  1  0  0  0  0
 16 43  1  0  0  0  0
 16 44  1  0  0  0  0
 17 23  1  0  0  0  0
 17 18  1  0  0  0  0
 17 45  1  0  0  0  0
 18 19  1  0  0  0  0
 18 46  1  0  0  0  0
 18 47  1  0  0  0  0
 19 20  1  0  0  0  0
 19 48  1  0  0  0  0
 19 49  1  0  0  0  0
 20 21  2  0  0  0  0
 20 22  2  0  0  0  0
 20 23  1  0  0  0  0
 23 50  1  0  0  0  0
 23 51  1  0  0  0  0
 24 25  1  0  0  0  0
 25 26  2  0  0  0  0
 25 52  1  0  0  0  0
 26 27  1  0  0  0  0
M  END
> <s_m_source_file>
AV-unprocessed.smi

> <i_m_source_file_index>
266

> <i_lp_mmshare_version>
43012

> <i_f3d_flags>
0

> <s_epik_input>
W0NIMl0xW0NIMl1PW0NAQEhdKFtDSDNdKVtDQEBdMShbT0hdKVtDSDJdbihbY0hdbjIpYyhjMjMpbltjSF1uYzNOKFtDSDNdKVtDSDJdW0NAQEhdKFtDSDJdNClbQ0gyXVtDSDJdUzQoPU8pPU8=

> <s_epik_cmdline>
J2VwaWtfcHl0aG9uJywgJy1waCcsICc3LjAnLCAnLXRuJywgJzgnLCAnLW1hJywgJzIwMCcsICctbWV0YWxfYmluZGluZycsICctaW1hZScsICc8aW5maWxlLm1hZT4nLCAnLW9tYWUnLCAnPG91dGZpbGUubWFlPic=

> <r_lp_tautomer_probability>
1

> <r_epik_Ionization_Penalty>
0.00155497

> <r_epik_Ionization_Penalty_Charging>
0

> <r_epik_Ionization_Penalty_Neutral>
0.00155497

> <r_epik_State_Penalty>
-0

> <r_epik_Charging_Adjusted_Penalty>
0

> <i_epik_Tot_Q>
0

> <i_epik_Tot_abs_Q>
0

> <r_epik_Metal_State_Penalty>
-0

> <b_epik_Metal_Only>
0

> <s_lp_Force_Field>
OPLS_2005

> <r_lp_Energy>
29.5809

> <b_lp_Chiralities_Consistent>
1

> <s_lp_Variant>
AV-unprocessed.smi:266-1

> <Gold.Version>
5.8.1

> <Gold.Id.Protein>
6NUR|6NUR_protein|mol2

> <Gold.PLP.Fitness>
38.4012

> <Gold.PLP.PLP>
-30.7579

> <Gold.PLP.part.hbond>
-3.0000

> <Gold.PLP.part.metal>
0.0000

> <Gold.PLP.part.buried>
-7.0388

> <Gold.PLP.part.nonpolar>
-21.7988

> <Gold.PLP.part.repulsive>
0.3835

> <Gold.PLP.ligand.clash>
0.0000

> <Gold.PLP.ligand.torsion>
1.0004

> <Gold.PLP.Chemscore.Hbond>
2.9750

> <Gold.PLP.Chemscore.CHOScore>
0.0000

> <Gold.PLP.Chemscore.Metal>
0.0000

> <Gold.Chemscore.Hbonds>
donor molecule, donor type, donor heavy atom, donor atom, acceptor molecule, acceptor atom, score
      L1  H     7    36       P1 10957  1.00
      P1  H  7989  7998       L1    22  0.62
      P1  H  7997  8009       L1    21  1.00

> <Gold.PLP.Chemscore.Internal.Correction>
0.7192

> <Gold.Rescore>
     Score         DG    S(hbond)    S(metal)    S(lipo)     H(rot)  DE(clash)    DE(int)     intcor
     14.34     -16.62       2.91        0.00      65.65       2.45       0.32       1.96       ----

> <Gold.Chemscore.Fitness>
14.3361

> <Gold.Chemscore.DG>
-16.6174

> <Gold.Chemscore.ZeroCoef>
-5.4800

> <Gold.Chemscore.Hbond>
2.9105

> <Gold.Chemscore.Metal>
0.0000

> <Gold.Chemscore.Lipo>
65.6489

> <Gold.Chemscore.Internal_Hbond>
0.0000

> <Gold.Chemscore.DEClash>
0.3207

> <Gold.Chemscore.DEInternal>
1.9606

> <Gold.Chemscore.Rot>
2.4471

> <Gold.Chemscore.Internal.Correction>
   9.000000E+99

> <Gold.Chemscore.Hbonds>
donor molecule, donor type, donor heavy atom, donor atom, acceptor molecule, acceptor atom, score
      L1  H     7    36       P1 10957  0.43
      P1  H  7989  7998       L1    22  0.56
      P1  H  7997  8009       L1    21  0.99

> <Gold.Chemscore.Hbond.Weighted>
-9.7210

> <Gold.Chemscore.Metal.Weighted>
-0.0000

> <Gold.Chemscore.Lipo.Weighted>
-7.6809

> <Gold.Chemscore.Internal_Hbond.Weighted>
0.0000

> <Gold.Chemscore.DEClash.Weighted>
0.3207

> <Gold.Chemscore.DEInternal.Weighted>
1.9606

> <Gold.Chemscore.Rot.Weighted>
6.2645

> <Gold.Chemscore.Internal.Correction.Weighted>
   9.000000E+99

> <Gold.Protein.RotatedTorsions>
[ 6907 6896 6895 6894 ] final   23.29 input  -60.11 | X-H torsion
[ 7974 7965 7964 7962 ] final -159.27 input  175.53 | X-H torsion
[ 8008 7997 7996 7995 ] final -171.97 input   59.86 | X-H torsion
[ 10167 10162 10161 10158 ] final  123.32 input  -65.29 | X-H torsion
[ 10718 10713 10712 10709 ] final -176.92 input   66.30 | X-H torsion
[ 10763 10752 10751 10750 ] final  -46.75 input  -60.55 | X-H torsion
[ 11005 11000 10999 10996 ] final -175.39 input  -57.11 | X-H torsion

> <Gold.Protein.ActiveResidues>
 VAL166  LYS551  ARG553  GLY616  TRP617  ASP618  TYR619  PRO620  LYS621  CYS622 
 ASP623  PHE694  ASN695  SER759  ASP760  ASP761  ALA762  ILE779  LEU786  VAL792 
 PHE793  MET794  SER795  GLU796  ALA797  LYS798  CYS799  TRP800  GLU811  SER814 

> <Gold.Protein.RotatedAtoms>
  151.9402  135.0217  160.0535 H   0  0  0  0  0  0  0  0  0  0  0  0  # atno 6907 bound_to 6896
  152.2043  133.4859  159.5084 H   0  0  0  0  0  0  0  0  0  0  0  0  # atno 6908 bound_to 6896
  150.6961  134.1467  159.4168 H   0  0  0  0  0  0  0  0  0  0  0  0  # atno 6909 bound_to 6896
  144.7472  140.3709  143.6076 H   0  0  0  0  0  0  0  0  0  0  0  0  # atno 7974 bound_to 7965
  155.9385  140.1104  157.1075 H   0  0  0  0  0  0  0  0  0  0  0  0  # atno 8008 bound_to 7997
  154.4084  140.1223  156.4961 H   0  0  0  0  0  0  0  0  0  0  0  0  # atno 8009 bound_to 7997
  155.6992  140.3472  155.4928 H   0  0  0  0  0  0  0  0  0  0  0  0  # atno 8010 bound_to 7997
  139.5806  144.6984  151.3538 H   0  0  0  0  0  0  0  0  0  0  0  0  # atno 10167 bound_to 10162
  156.8218  130.9622  151.3111 H   0  0  0  0  0  0  0  0  0  0  0  0  # atno 10718 bound_to 10713
  154.0502  135.6632  153.4799 H   0  0  0  0  0  0  0  0  0  0  0  0  # atno 10763 bound_to 10752
  153.0467  135.5110  154.7758 H   0  0  0  0  0  0  0  0  0  0  0  0  # atno 10764 bound_to 10752
  154.6762  135.3037  154.9642 H   0  0  0  0  0  0  0  0  0  0  0  0  # atno 10765 bound_to 10752
  140.4639  134.6229  157.4854 H   0  0  0  0  0  0  0  0  0  0  0  0  # atno 11005 bound_to 11000
  145.7079  139.1677  143.2555 LP  0  0  0  0  0  0  0  0  0  0  0  0  # atno 17320 bound_to 7965
  146.1368  140.7111  142.9386 LP  0  0  0  0  0  0  0  0  0  0  0  0  # atno 17321 bound_to 7965
  140.7085  143.7453  150.7524 LP  0  0  0  0  0  0  0  0  0  0  0  0  # atno 17342 bound_to 10162
  140.0984  143.4811  152.2439 LP  0  0  0  0  0  0  0  0  0  0  0  0  # atno 17343 bound_to 10162
  157.6453  130.8839  149.9526 LP  0  0  0  0  0  0  0  0  0  0  0  0  # atno 17370 bound_to 10713
  156.0984  130.3657  150.0263 LP  0  0  0  0  0  0  0  0  0  0  0  0  # atno 17371 bound_to 10713
  139.9928  134.6958  155.9660 LP  0  0  0  0  0  0  0  0  0  0  0  0  # atno 17394 bound_to 11000
  141.1609  133.6539  156.4314 LP  0  0  0  0  0  0  0  0  0  0  0  0  # atno 17395 bound_to 11000

$$$$
