AV-unprocessed.smi:1897|AV-procd|sdf|7684|dock1
  -GOLD-   22720 9423D 1   1.00000     0.00000
 Structure written by MMmdl.
 39 41  0  0  0  0  0  0  0  0  2 V2000
  152.5301  139.1438  157.9153 C   0  0  0  0  0  0  0  0  0  0  0  0
  152.0795  138.2896  156.7800 C   0  0  0  0  0  0  0  0  0  0  0  0
  152.8267  138.0857  155.6886 N   0  0  0  0  0  0  0  0  0  0  0  0
  152.1997  137.2562  154.7702 N   0  0  0  0  0  0  0  0  0  0  0  0
  150.9968  136.8471  155.1990 C   0  0  0  0  0  0  0  0  0  0  0  0
  150.1199  135.9971  154.4630 N   0  0  0  0  0  0  0  0  0  0  0  0
  149.6390  134.7624  154.7231 C   0  0  0  0  0  0  0  0  0  0  0  0
  149.9501  134.1650  155.7519 O   0  0  0  0  0  0  0  0  0  0  0  0
  148.8173  134.2355  153.8004 N   0  0  0  0  0  0  0  0  0  0  0  0
  148.1776  132.9266  153.8779 C   0  0  2  0  0  0  0  0  0  0  0  0
  149.1673  131.7929  154.1182 C   0  0  0  0  0  0  0  0  0  0  0  0
  148.3720  130.5687  153.6618 C   0  0  0  0  0  0  0  0  0  0  0  0
  147.5201  131.0312  152.5421 N   0  3  1  0  0  0  0  0  0  0  0  0
  146.1911  130.3766  152.4667 C   0  0  0  0  0  0  0  0  0  0  0  0
  145.3889  130.9104  151.2652 C   0  0  0  0  0  0  0  0  0  0  0  0
  145.3446  132.4518  151.2036 C   0  0  0  0  0  0  0  0  0  0  0  0
  146.0816  133.1077  152.3817 C   0  0  0  0  0  0  0  0  0  0  0  0
  147.5012  132.5217  152.5573 C   0  0  1  0  0  0  0  0  0  0  0  0
  150.5246  137.4666  156.7728 S   0  0  0  0  0  0  0  0  0  0  0  0
  153.1057  139.9932  157.5461 H   0  0  0  0  0  0  0  0  0  0  0  0
  153.1557  138.5629  158.5930 H   0  0  0  0  0  0  0  0  0  0  0  0
  151.6703  139.5213  158.4692 H   0  0  0  0  0  0  0  0  0  0  0  0
  149.8255  136.3779  153.5751 H   0  0  0  0  0  0  0  0  0  0  0  0
  148.6165  134.7928  152.9817 H   0  0  0  0  0  0  0  0  0  0  0  0
  147.4472  132.9082  154.6897 H   0  0  0  0  0  0  0  0  0  0  0  0
  150.0526  131.9180  153.4923 H   0  0  0  0  0  0  0  0  0  0  0  0
  149.4922  131.7235  155.1568 H   0  0  0  0  0  0  0  0  0  0  0  0
  149.0147  129.7418  153.3588 H   0  0  0  0  0  0  0  0  0  0  0  0
  147.7469  130.2199  154.4855 H   0  0  0  0  0  0  0  0  0  0  0  0
  146.3219  129.2975  152.3787 H   0  0  0  0  0  0  0  0  0  0  0  0
  145.6409  130.5510  153.3928 H   0  0  0  0  0  0  0  0  0  0  0  0
  145.8288  130.5312  150.3420 H   0  0  0  0  0  0  0  0  0  0  0  0
  144.3747  130.5105  151.2996 H   0  0  0  0  0  0  0  0  0  0  0  0
  145.7987  132.7848  150.2694 H   0  0  0  0  0  0  0  0  0  0  0  0
  144.3107  132.7976  151.1757 H   0  0  0  0  0  0  0  0  0  0  0  0
  146.1361  134.1857  152.2289 H   0  0  0  0  0  0  0  0  0  0  0  0
  145.5008  132.9624  153.2937 H   0  0  0  0  0  0  0  0  0  0  0  0
  148.1231  132.8387  151.7184 H   0  0  0  0  0  0  0  0  0  0  0  0
  148.0051  130.7806  151.6922 H   0  0  0  0  0  0  0  0  0  0  0  0
  1  2  1  0  0  0  0
  1 20  1  0  0  0  0
  1 21  1  0  0  0  0
  1 22  1  0  0  0  0
  2 19  1  0  0  0  0
  2  3  2  0  0  0  0
  3  4  1  0  0  0  0
  4  5  2  0  0  0  0
  5  6  1  0  0  0  0
  5 19  1  0  0  0  0
  6  7  1  0  0  0  0
  6 23  1  0  0  0  0
  7  8  2  0  0  0  0
  7  9  1  0  0  0  0
  9 10  1  0  0  0  0
  9 24  1  0  0  0  0
 10 18  1  0  0  0  0
 10 11  1  0  0  0  0
 10 25  1  0  0  0  0
 11 12  1  0  0  0  0
 11 26  1  0  0  0  0
 11 27  1  0  0  0  0
 12 13  1  0  0  0  0
 12 28  1  0  0  0  0
 12 29  1  0  0  0  0
 13 18  1  0  0  0  0
 13 14  1  0  0  0  0
 13 39  1  0  0  0  0
 14 15  1  0  0  0  0
 14 30  1  0  0  0  0
 14 31  1  0  0  0  0
 15 16  1  0  0  0  0
 15 32  1  0  0  0  0
 15 33  1  0  0  0  0
 16 17  1  0  0  0  0
 16 34  1  0  0  0  0
 16 35  1  0  0  0  0
 17 18  1  0  0  0  0
 17 36  1  0  0  0  0
 17 37  1  0  0  0  0
 18 38  1  0  0  0  0
M  CHG  1  13   1
M  END
> <s_m_source_file>
AV-unprocessed.smi

> <i_m_source_file_index>
1897

> <i_lp_mmshare_version>
43012

> <i_f3d_flags>
0

> <s_epik_input>
W0NIM11jMW5uYyhzMSlbTkhdQyg9TylbTkhdW0NASF0oW0NIMl1bQ0gyXTIpW0NAQEhdKE4yMylbQ0gyXVtDSDJdW0NIMl1bQ0gyXTM=

> <s_epik_cmdline>
J2VwaWtfcHl0aG9uJywgJy1waCcsICc3LjAnLCAnLXRuJywgJzgnLCAnLW1hJywgJzIwMCcsICctbWV0YWxfYmluZGluZycsICctaW1hZScsICc8aW5maWxlLm1hZT4nLCAnLW9tYWUnLCAnPG91dGZpbGUubWFlPic=

> <r_lp_tautomer_probability>
1

> <r_epik_Ionization_Penalty>
0.00228891

> <r_epik_Ionization_Penalty_Charging>
0.00107044

> <r_epik_Ionization_Penalty_Neutral>
0.00121847

> <r_epik_State_Penalty>
-0

> <r_epik_Charging_Adjusted_Penalty>
0.00107044

> <i_epik_Tot_Q>
1

> <i_epik_Tot_abs_Q>
1

> <r_epik_Metal_State_Penalty>
0.304057

> <b_epik_Metal_Only>
0

> <s_lp_Force_Field>
OPLS_2005

> <r_lp_Energy>
41.04

> <b_lp_Chiralities_Consistent>
1

> <s_lp_Variant>
AV-unprocessed.smi:1897-1

> <Gold.Version>
5.8.1

> <Gold.Id.Protein>
6NUR|6NUR_protein|mol2

> <Gold.PLP.Fitness>
39.6836

> <Gold.PLP.PLP>
-29.6075

> <Gold.PLP.part.hbond>
-4.6784

> <Gold.PLP.part.metal>
0.0000

> <Gold.PLP.part.buried>
-3.5654

> <Gold.PLP.part.nonpolar>
-21.3943

> <Gold.PLP.part.repulsive>
0.2015

> <Gold.PLP.ligand.clash>
0.0000

> <Gold.PLP.ligand.torsion>
0.6660

> <Gold.PLP.Chemscore.Hbond>
3.8000

> <Gold.PLP.Chemscore.CHOScore>
0.0000

> <Gold.PLP.Chemscore.Metal>
0.0000

> <Gold.Chemscore.Hbonds>
donor molecule, donor type, donor heavy atom, donor atom, acceptor molecule, acceptor atom, score
      L1  H     6    23       P1  7948  1.00
      L1  H     9    24       P1  7948  1.00
      L1  H    13    39       P1 10747  1.00
      P1  H 10752 10764       L1     4  0.80

> <Gold.PLP.Chemscore.Internal.Correction>
0.0080

> <Gold.Rescore>
     Score         DG    S(hbond)    S(metal)    S(lipo)     H(rot)  DE(clash)    DE(int)     intcor
     19.55     -21.43       3.32        0.00      63.46       1.00       0.02       1.86       ----

> <Gold.Chemscore.Fitness>
19.5471

> <Gold.Chemscore.DG>
-21.4262

> <Gold.Chemscore.ZeroCoef>
-5.4800

> <Gold.Chemscore.Hbond>
3.3179

> <Gold.Chemscore.Metal>
0.0000

> <Gold.Chemscore.Lipo>
63.4562

> <Gold.Chemscore.Internal_Hbond>
0.0000

> <Gold.Chemscore.DEClash>
0.0240

> <Gold.Chemscore.DEInternal>
1.8551

> <Gold.Chemscore.Rot>
1.0000

> <Gold.Chemscore.Internal.Correction>
   9.000000E+99

> <Gold.Chemscore.Hbonds>
donor molecule, donor type, donor heavy atom, donor atom, acceptor molecule, acceptor atom, score
      L1  H     6    23       P1  7948  0.25
      L1  H     9    24       P1  7948  0.33
      L1  H    13    39       P1 10747  1.00
      P1  H 10752 10764       L1     4  0.20

> <Gold.Chemscore.Hbond.Weighted>
-11.0818

> <Gold.Chemscore.Metal.Weighted>
-0.0000

> <Gold.Chemscore.Lipo.Weighted>
-7.4244

> <Gold.Chemscore.Internal_Hbond.Weighted>
0.0000

> <Gold.Chemscore.DEClash.Weighted>
0.0240

> <Gold.Chemscore.DEInternal.Weighted>
1.8551

> <Gold.Chemscore.Rot.Weighted>
2.5600

> <Gold.Chemscore.Internal.Correction.Weighted>
   9.000000E+99

> <Gold.Protein.RotatedTorsions>
[ 6907 6896 6895 6894 ] final   95.77 input  -60.11 | X-H torsion
[ 7974 7965 7964 7962 ] final   58.64 input  175.53 | X-H torsion
[ 8008 7997 7996 7995 ] final  -88.19 input   59.86 | X-H torsion
[ 10167 10162 10161 10158 ] final  -78.43 input  -65.29 | X-H torsion
[ 10718 10713 10712 10709 ] final  -97.68 input   66.30 | X-H torsion
[ 10763 10752 10751 10750 ] final  -72.67 input  -60.55 | X-H torsion
[ 11005 11000 10999 10996 ] final  126.86 input  -57.11 | X-H torsion

> <Gold.Protein.ActiveResidues>
 VAL166  LYS551  ARG553  GLY616  TRP617  ASP618  TYR619  PRO620  LYS621  CYS622 
 ASP623  PHE694  ASN695  SER759  ASP760  ASP761  ALA762  ILE779  LEU786  VAL792 
 PHE793  MET794  SER795  GLU796  ALA797  LYS798  CYS799  TRP800  GLU811  SER814 

> <Gold.Protein.RotatedAtoms>
  152.5441  134.0988  159.8308 H   0  0  0  0  0  0  0  0  0  0  0  0  # atno 6907 bound_to 6896
  151.1068  133.5195  159.2615 H   0  0  0  0  0  0  0  0  0  0  0  0  # atno 6908 bound_to 6896
  151.1929  135.0419  159.8894 H   0  0  0  0  0  0  0  0  0  0  0  0  # atno 6909 bound_to 6896
  145.9159  139.3691  143.0507 H   0  0  0  0  0  0  0  0  0  0  0  0  # atno 7974 bound_to 7965
  154.6719  140.0556  157.0174 H   0  0  0  0  0  0  0  0  0  0  0  0  # atno 8008 bound_to 7997
  155.1076  140.3235  155.4511 H   0  0  0  0  0  0  0  0  0  0  0  0  # atno 8009 bound_to 7997
  156.2661  140.2020  156.6201 H   0  0  0  0  0  0  0  0  0  0  0  0  # atno 8010 bound_to 7997
  140.4683  143.2434  151.8245 H   0  0  0  0  0  0  0  0  0  0  0  0  # atno 10167 bound_to 10162
  156.0089  130.5205  150.6411 H   0  0  0  0  0  0  0  0  0  0  0  0  # atno 10718 bound_to 10713
  154.4488  135.5922  153.6178 H   0  0  0  0  0  0  0  0  0  0  0  0  # atno 10763 bound_to 10752
  152.9812  135.6016  154.3630 H   0  0  0  0  0  0  0  0  0  0  0  0  # atno 10764 bound_to 10752
  154.3489  135.2841  155.2361 H   0  0  0  0  0  0  0  0  0  0  0  0  # atno 10765 bound_to 10752
  139.9477  134.9627  156.8769 H   0  0  0  0  0  0  0  0  0  0  0  0  # atno 11005 bound_to 11000
  145.8612  140.9474  143.0699 LP  0  0  0  0  0  0  0  0  0  0  0  0  # atno 17320 bound_to 7965
  144.6748  140.0533  143.7478 LP  0  0  0  0  0  0  0  0  0  0  0  0  # atno 17321 bound_to 7965
  139.4815  144.4924  151.9168 LP  0  0  0  0  0  0  0  0  0  0  0  0  # atno 17342 bound_to 10162
  140.4009  144.2494  150.5893 LP  0  0  0  0  0  0  0  0  0  0  0  0  # atno 17343 bound_to 10162
  157.4191  131.0834  151.1148 LP  0  0  0  0  0  0  0  0  0  0  0  0  # atno 17370 bound_to 10713
  157.1756  130.6287  149.5655 LP  0  0  0  0  0  0  0  0  0  0  0  0  # atno 17371 bound_to 10713
  140.5793  134.0367  155.7458 LP  0  0  0  0  0  0  0  0  0  0  0  0  # atno 17394 bound_to 11000
  141.1132  133.9582  157.2870 LP  0  0  0  0  0  0  0  0  0  0  0  0  # atno 17395 bound_to 11000

$$$$
