AV-unprocessed.smi:652|AV-procd|sdf|3202|dock2
  -GOLD-   22720 0133D 1   1.00000     0.00000
 Structure written by MMmdl.
 48 49  0  0  0  0  0  0  0  0  2 V2000
  142.8867  140.0841  154.9917 C   0  0  0  0  0  0  0  0  0  0  0  0
  143.7545  141.2015  155.5855 C   0  0  0  0  0  0  0  0  0  0  0  0
  142.9045  142.4043  156.0254 C   0  0  0  0  0  0  0  0  0  0  0  0
  144.7546  141.6128  154.6044 N   0  0  0  0  0  0  0  0  0  0  0  0
  145.7758  142.4514  154.8398 C   0  0  0  0  0  0  0  0  0  0  0  0
  145.9945  142.9609  155.9391 O   0  0  0  0  0  0  0  0  0  0  0  0
  146.6990  142.7522  153.6542 C   0  0  0  0  0  0  0  0  0  0  0  0
  147.4466  141.5060  153.1311 C   0  0  0  0  0  0  0  0  0  0  0  0
  148.3308  140.8315  154.0833 N   0  0  0  0  0  0  0  0  0  0  0  0
  149.1147  139.7665  153.4638 C   0  0  0  0  0  0  0  0  0  0  0  0
  150.0445  139.0796  154.4781 C   0  0  0  0  0  0  0  0  0  0  0  0
  150.8806  140.0524  155.0972 O   0  0  0  0  0  0  0  0  0  0  0  0
  150.1467  141.0779  155.7610 C   0  0  1  0  0  0  0  0  0  0  0  0
  151.1583  142.0350  156.4068 C   0  0  0  0  0  0  0  0  0  0  0  0
  150.5080  143.1974  156.9929 N   0  0  0  0  0  0  0  0  0  0  0  0
  150.9489  143.7215  158.2148 C   0  0  0  0  0  0  0  0  0  0  0  0
  152.0255  143.1902  158.9622 C   0  0  0  0  0  0  0  0  0  0  0  0
  152.3659  143.8135  160.1748 C   0  0  0  0  0  0  0  0  0  0  0  0
  151.6100  144.9321  160.5673 C   0  0  0  0  0  0  0  0  0  0  0  0
  150.5842  145.4255  159.8384 N   0  0  0  0  0  0  0  0  0  0  0  0
  150.2820  144.8063  158.6834 N   0  3  0  0  0  0  0  0  0  0  0  0
  149.2351  141.7742  154.7287 C   0  0  0  0  0  0  0  0  0  0  0  0
  142.1559  139.7287  155.7185 H   0  0  0  0  0  0  0  0  0  0  0  0
  143.4950  139.2298  154.6928 H   0  0  0  0  0  0  0  0  0  0  0  0
  142.3405  140.4289  154.1130 H   0  0  0  0  0  0  0  0  0  0  0  0
  144.2642  140.7961  156.4613 H   0  0  0  0  0  0  0  0  0  0  0  0
  142.1561  142.1064  156.7602 H   0  0  0  0  0  0  0  0  0  0  0  0
  142.3803  142.8504  155.1793 H   0  0  0  0  0  0  0  0  0  0  0  0
  143.5199  143.1799  156.4820 H   0  0  0  0  0  0  0  0  0  0  0  0
  144.6586  141.2347  153.6729 H   0  0  0  0  0  0  0  0  0  0  0  0
  146.1061  143.2048  152.8594 H   0  0  0  0  0  0  0  0  0  0  0  0
  147.4269  143.5107  153.9454 H   0  0  0  0  0  0  0  0  0  0  0  0
  146.7196  140.7922  152.7416 H   0  0  0  0  0  0  0  0  0  0  0  0
  148.0356  141.8211  152.2686 H   0  0  0  0  0  0  0  0  0  0  0  0
  148.4560  139.0155  153.0287 H   0  0  0  0  0  0  0  0  0  0  0  0
  149.7103  140.1734  152.6451 H   0  0  0  0  0  0  0  0  0  0  0  0
  149.4644  138.5517  155.2366 H   0  0  0  0  0  0  0  0  0  0  0  0
  150.6686  138.3380  153.9794 H   0  0  0  0  0  0  0  0  0  0  0  0
  149.5390  140.6183  156.5432 H   0  0  0  0  0  0  0  0  0  0  0  0
  151.6987  141.5074  157.1937 H   0  0  0  0  0  0  0  0  0  0  0  0
  151.8942  142.3558  155.6686 H   0  0  0  0  0  0  0  0  0  0  0  0
  149.8136  143.6923  156.4514 H   0  0  0  0  0  0  0  0  0  0  0  0
  152.5838  142.3284  158.6277 H   0  0  0  0  0  0  0  0  0  0  0  0
  153.1791  143.4469  160.7837 H   0  0  0  0  0  0  0  0  0  0  0  0
  151.8328  145.4469  161.4905 H   0  0  0  0  0  0  0  0  0  0  0  0
  149.8482  142.2728  153.9760 H   0  0  0  0  0  0  0  0  0  0  0  0
  148.6547  142.5535  155.2238 H   0  0  0  0  0  0  0  0  0  0  0  0
  149.5090  145.1728  158.1275 H   0  0  0  0  0  0  0  0  0  0  0  0
  1  2  1  0  0  0  0
  1 23  1  0  0  0  0
  1 24  1  0  0  0  0
  1 25  1  0  0  0  0
  2  3  1  0  0  0  0
  2  4  1  0  0  0  0
  2 26  1  0  0  0  0
  3 27  1  0  0  0  0
  3 28  1  0  0  0  0
  3 29  1  0  0  0  0
  4  5  1  0  0  0  0
  4 30  1  0  0  0  0
  5  6  2  0  0  0  0
  5  7  1  0  0  0  0
  7  8  1  0  0  0  0
  7 31  1  0  0  0  0
  7 32  1  0  0  0  0
  8  9  1  0  0  0  0
  8 33  1  0  0  0  0
  8 34  1  0  0  0  0
  9 22  1  0  0  0  0
  9 10  1  0  0  0  0
 10 11  1  0  0  0  0
 10 35  1  0  0  0  0
 10 36  1  0  0  0  0
 11 12  1  0  0  0  0
 11 37  1  0  0  0  0
 11 38  1  0  0  0  0
 12 13  1  0  0  0  0
 13 14  1  0  0  0  0
 13 22  1  0  0  0  0
 13 39  1  0  0  0  0
 14 15  1  0  0  0  0
 14 40  1  0  0  0  0
 14 41  1  0  0  0  0
 15 16  1  0  0  0  0
 15 42  1  0  0  0  0
 16 21  1  0  0  0  0
 16 17  2  0  0  0  0
 17 18  1  0  0  0  0
 17 43  1  0  0  0  0
 18 19  2  0  0  0  0
 18 44  1  0  0  0  0
 19 20  1  0  0  0  0
 19 45  1  0  0  0  0
 20 21  2  0  0  0  0
 21 48  1  0  0  0  0
 22 46  1  0  0  0  0
 22 47  1  0  0  0  0
M  CHG  1  21   1
M  END
> <s_m_source_file>
AV-unprocessed.smi

> <i_m_source_file_index>
652

> <i_lp_mmshare_version>
43012

> <i_f3d_flags>
0

> <s_epik_input>
W0NIM11bQ0hdKFtDSDNdKVtOSF1DKD1PKVtDSDJdW0NIMl1OMVtDSDJdW0NIMl1PW0NASF0oW0NIMl0xKVtDSDJdW05IXWMyW2NIXVtjSF1bY0hdbm4y

> <s_epik_cmdline>
J2VwaWtfcHl0aG9uJywgJy1waCcsICc3LjAnLCAnLXRuJywgJzgnLCAnLW1hJywgJzIwMCcsICctbWV0YWxfYmluZGluZycsICctaW1hZScsICc8aW5maWxlLm1hZT4nLCAnLW9tYWUnLCAnPG91dGZpbGUubWFlPic=

> <r_epik_Ionization_Penalty>
2.70989

> <r_epik_Ionization_Penalty_Charging>
2.3023

> <r_epik_Ionization_Penalty_Neutral>
0.407592

> <r_epik_State_Penalty>
2.65305

> <r_epik_Charging_Adjusted_Penalty>
4.95534

> <i_epik_Tot_Q>
1

> <i_epik_Tot_abs_Q>
1

> <r_epik_Metal_State_Penalty>
2.66064

> <b_epik_Metal_Only>
0

> <s_lp_Force_Field>
OPLS_2005

> <r_lp_Energy>
26.0263

> <b_lp_Chiralities_Consistent>
1

> <s_lp_Variant>
AV-unprocessed.smi:652-11

> <Gold.Version>
5.8.1

> <Gold.Id.Protein>
6NUR|6NUR_protein|mol2

> <Gold.PLP.Fitness>
56.9730

> <Gold.PLP.PLP>
-39.3266

> <Gold.PLP.part.hbond>
-5.8776

> <Gold.PLP.part.metal>
0.0000

> <Gold.PLP.part.buried>
-2.7460

> <Gold.PLP.part.nonpolar>
-31.7190

> <Gold.PLP.part.repulsive>
0.7235

> <Gold.PLP.ligand.clash>
0.0000

> <Gold.PLP.ligand.torsion>
0.2593

> <Gold.PLP.Chemscore.Hbond>
6.0000

> <Gold.PLP.Chemscore.CHOScore>
0.0000

> <Gold.PLP.Chemscore.Metal>
0.0000

> <Gold.Chemscore.Hbonds>
donor molecule, donor type, donor heavy atom, donor atom, acceptor molecule, acceptor atom, score
      L1  H     4    30       P1 10175  0.98
      L1  H    15    42       P1  8028  2.00
      L1  H    21    48       P1  8029  2.00
      P1  H  7989  7998       L1    12  0.95

> <Gold.PLP.Chemscore.Internal.Correction>
0.1651

> <Gold.Rescore>
     Score         DG    S(hbond)    S(metal)    S(lipo)     H(rot)  DE(clash)    DE(int)     intcor
     16.18     -18.59       2.69        0.00      85.22       2.28       0.39       2.02       ----

> <Gold.Chemscore.Fitness>
16.1810

> <Gold.Chemscore.DG>
-18.5937

> <Gold.Chemscore.ZeroCoef>
-5.4800

> <Gold.Chemscore.Hbond>
2.6860

> <Gold.Chemscore.Metal>
0.0000

> <Gold.Chemscore.Lipo>
85.2241

> <Gold.Chemscore.Internal_Hbond>
0.0000

> <Gold.Chemscore.DEClash>
0.3936

> <Gold.Chemscore.DEInternal>
2.0192

> <Gold.Chemscore.Rot>
2.2768

> <Gold.Chemscore.Internal.Correction>
   9.000000E+99

> <Gold.Chemscore.Hbonds>
donor molecule, donor type, donor heavy atom, donor atom, acceptor molecule, acceptor atom, score
      L1  H     4    30       P1 10175  0.37
      L1  H    15    42       P1  8028  0.98
      L1  H    21    48       P1  8029  0.34
      P1  H  7989  7998       L1    12  0.12

> <Gold.Chemscore.Hbond.Weighted>
-8.9711

> <Gold.Chemscore.Metal.Weighted>
-0.0000

> <Gold.Chemscore.Lipo.Weighted>
-9.9712

> <Gold.Chemscore.Internal_Hbond.Weighted>
0.0000

> <Gold.Chemscore.DEClash.Weighted>
0.3936

> <Gold.Chemscore.DEInternal.Weighted>
2.0192

> <Gold.Chemscore.Rot.Weighted>
5.8286

> <Gold.Chemscore.Internal.Correction.Weighted>
   9.000000E+99

> <Gold.Protein.RotatedTorsions>
[ 6907 6896 6895 6894 ] final -107.13 input  -60.11 | X-H torsion
[ 7974 7965 7964 7962 ] final  -95.86 input  175.53 | X-H torsion
[ 8008 7997 7996 7995 ] final   82.12 input   59.86 | X-H torsion
[ 10167 10162 10161 10158 ] final -135.80 input  -65.29 | X-H torsion
[ 10718 10713 10712 10709 ] final   10.38 input   66.30 | X-H torsion
[ 10763 10752 10751 10750 ] final  137.53 input  -60.55 | X-H torsion
[ 11005 11000 10999 10996 ] final  -71.35 input  -57.11 | X-H torsion

> <Gold.Protein.ActiveResidues>
 VAL166  LYS551  ARG553  GLY616  TRP617  ASP618  TYR619  PRO620  LYS621  CYS622 
 ASP623  PHE694  ASN695  SER759  ASP760  ASP761  ALA762  ILE779  LEU786  VAL792 
 PHE793  MET794  SER795  GLU796  ALA797  LYS798  CYS799  TRP800  GLU811  SER814 

> <Gold.Protein.RotatedAtoms>
  150.7427  133.9873  159.3595 H   0  0  0  0  0  0  0  0  0  0  0  0  # atno 6907 bound_to 6896
  151.7818  135.0757  160.0384 H   0  0  0  0  0  0  0  0  0  0  0  0  # atno 6908 bound_to 6896
  152.3268  133.5878  159.5818 H   0  0  0  0  0  0  0  0  0  0  0  0  # atno 6909 bound_to 6896
  145.3545  140.9482  143.2535 H   0  0  0  0  0  0  0  0  0  0  0  0  # atno 7974 bound_to 7965
  155.9064  140.3430  155.6065 H   0  0  0  0  0  0  0  0  0  0  0  0  # atno 8008 bound_to 7997
  155.7440  140.0811  157.2251 H   0  0  0  0  0  0  0  0  0  0  0  0  # atno 8009 bound_to 7997
  154.4050  140.1565  156.2635 H   0  0  0  0  0  0  0  0  0  0  0  0  # atno 8010 bound_to 7997
  139.8742  143.6919  152.2636 H   0  0  0  0  0  0  0  0  0  0  0  0  # atno 10167 bound_to 10162
  156.9801  130.6002  149.5676 H   0  0  0  0  0  0  0  0  0  0  0  0  # atno 10718 bound_to 10713
  153.8746  135.3051  155.3443 H   0  0  0  0  0  0  0  0  0  0  0  0  # atno 10763 bound_to 10752
  154.7789  135.4846  153.9806 H   0  0  0  0  0  0  0  0  0  0  0  0  # atno 10764 bound_to 10752
  153.1386  135.6819  153.9159 H   0  0  0  0  0  0  0  0  0  0  0  0  # atno 10765 bound_to 10752
  141.1590  133.6815  156.6892 H   0  0  0  0  0  0  0  0  0  0  0  0  # atno 11005 bound_to 11000
  144.8692  139.5063  143.6775 LP  0  0  0  0  0  0  0  0  0  0  0  0  # atno 17320 bound_to 7965
  146.2954  139.7261  142.9131 LP  0  0  0  0  0  0  0  0  0  0  0  0  # atno 17321 bound_to 7965
  139.7255  144.7594  151.0886 LP  0  0  0  0  0  0  0  0  0  0  0  0  # atno 17342 bound_to 10162
  140.7755  143.5153  150.9602 LP  0  0  0  0  0  0  0  0  0  0  0  0  # atno 17343 bound_to 10162
  156.0248  130.5342  150.8376 LP  0  0  0  0  0  0  0  0  0  0  0  0  # atno 17370 bound_to 10713
  157.5532  131.0944  150.9665 LP  0  0  0  0  0  0  0  0  0  0  0  0  # atno 17371 bound_to 10713
  140.3044  134.8138  157.4124 LP  0  0  0  0  0  0  0  0  0  0  0  0  # atno 17394 bound_to 11000
  140.1234  134.5190  155.8165 LP  0  0  0  0  0  0  0  0  0  0  0  0  # atno 17395 bound_to 11000

$$$$
