AV-unprocessed.smi:2387|AV-procd|sdf|9469|dock9
  -GOLD-   2272013 93D 1   1.00000     0.00000
 Structure written by MMmdl.
 47 49  0  0  0  0  0  0  0  0  1 V2000
  153.4578  142.0725  161.3467 C   0  0  0  0  0  0  0  0  0  0  0  0
  152.4684  142.3201  160.2272 C   0  0  0  0  0  0  0  0  0  0  0  0
  152.2083  143.6268  159.7659 C   0  0  0  0  0  0  0  0  0  0  0  0
  151.2772  143.8004  158.7237 C   0  0  0  0  0  0  0  0  0  0  0  0
  150.6329  142.6603  158.1852 C   0  0  0  0  0  0  0  0  0  0  0  0
  149.6901  142.6996  157.1226 N   0  0  0  0  0  0  0  0  0  0  0  0
  148.7815  141.7729  156.7744 C   0  0  0  0  0  0  0  0  0  0  0  0
  148.6260  140.6855  157.3293 O   0  0  0  0  0  0  0  0  0  0  0  0
  148.0567  142.1812  155.7180 N   0  0  0  0  0  0  0  0  0  0  0  0
  146.9901  141.4435  155.0167 C   0  0  0  0  0  0  0  0  0  0  0  0
  145.6475  141.4292  155.7993 C   0  0  0  0  0  0  0  0  0  0  0  0
  145.6058  141.8625  156.9518 O   0  0  0  0  0  0  0  0  0  0  0  0
  144.5647  140.9158  155.1904 N   0  0  0  0  0  0  0  0  0  0  0  0
  143.2381  140.8066  155.7821 C   0  0  0  0  0  0  0  0  0  0  0  0
  142.1648  141.6328  155.0992 C   0  0  0  0  0  0  0  0  0  0  0  0
  140.7384  141.6183  155.5960 C   0  0  0  0  0  0  0  0  0  0  0  0
  141.0866  140.9628  154.2809 C   0  0  0  0  0  0  0  0  0  0  0  0
  146.7653  142.1085  153.6283 C   0  0  0  0  0  0  0  0  0  0  0  0
  147.1747  141.0923  152.5576 C   0  0  0  0  0  0  0  0  0  0  0  0
  147.0138  139.7366  153.2297 C   0  0  0  0  0  0  0  0  0  0  0  0
  147.4534  139.9991  154.6684 C   0  0  0  0  0  0  0  0  0  0  0  0
  150.9799  141.3989  158.7130 C   0  0  0  0  0  0  0  0  0  0  0  0
  151.8707  141.2240  159.7122 N   0  0  0  0  0  0  0  0  0  0  0  0
  153.9259  143.0013  161.6741 H   0  0  0  0  0  0  0  0  0  0  0  0
  154.2446  141.3940  161.0157 H   0  0  0  0  0  0  0  0  0  0  0  0
  152.9551  141.6243  162.2041 H   0  0  0  0  0  0  0  0  0  0  0  0
  152.7122  144.4800  160.1957 H   0  0  0  0  0  0  0  0  0  0  0  0
  151.0891  144.7961  158.3534 H   0  0  0  0  0  0  0  0  0  0  0  0
  149.7531  143.5075  156.5204 H   0  0  0  0  0  0  0  0  0  0  0  0
  148.2707  143.0938  155.3436 H   0  0  0  0  0  0  0  0  0  0  0  0
  144.6713  140.5785  154.2450 H   0  0  0  0  0  0  0  0  0  0  0  0
  142.9252  139.7613  155.7872 H   0  0  0  0  0  0  0  0  0  0  0  0
  143.3104  141.1072  156.8280 H   0  0  0  0  0  0  0  0  0  0  0  0
  142.5257  142.5808  154.7042 H   0  0  0  0  0  0  0  0  0  0  0  0
  140.4993  140.9667  156.4341 H   0  0  0  0  0  0  0  0  0  0  0  0
  140.1862  142.5554  155.5613 H   0  0  0  0  0  0  0  0  0  0  0  0
  140.7651  141.4622  153.3691 H   0  0  0  0  0  0  0  0  0  0  0  0
  141.0779  139.8752  154.2449 H   0  0  0  0  0  0  0  0  0  0  0  0
  145.7177  142.3744  153.4735 H   0  0  0  0  0  0  0  0  0  0  0  0
  147.3275  143.0359  153.5086 H   0  0  0  0  0  0  0  0  0  0  0  0
  146.5833  141.1812  151.6458 H   0  0  0  0  0  0  0  0  0  0  0  0
  148.2214  141.2435  152.2905 H   0  0  0  0  0  0  0  0  0  0  0  0
  145.9669  139.4315  153.2077 H   0  0  0  0  0  0  0  0  0  0  0  0
  147.6012  138.9554  152.7466 H   0  0  0  0  0  0  0  0  0  0  0  0
  148.5412  139.9228  154.7099 H   0  0  0  0  0  0  0  0  0  0  0  0
  147.0666  139.2412  155.3517 H   0  0  0  0  0  0  0  0  0  0  0  0
  150.5251  140.4988  158.3254 H   0  0  0  0  0  0  0  0  0  0  0  0
  1  2  1  0  0  0  0
  1 24  1  0  0  0  0
  1 25  1  0  0  0  0
  1 26  1  0  0  0  0
  2 23  1  0  0  0  0
  2  3  2  0  0  0  0
  3  4  1  0  0  0  0
  3 27  1  0  0  0  0
  4  5  2  0  0  0  0
  4 28  1  0  0  0  0
  5  6  1  0  0  0  0
  5 22  1  0  0  0  0
  6  7  1  0  0  0  0
  6 29  1  0  0  0  0
  7  8  2  0  0  0  0
  7  9  1  0  0  0  0
  9 10  1  0  0  0  0
  9 30  1  0  0  0  0
 10 21  1  0  0  0  0
 10 11  1  0  0  0  0
 10 18  1  0  0  0  0
 11 12  2  0  0  0  0
 11 13  1  0  0  0  0
 13 14  1  0  0  0  0
 13 31  1  0  0  0  0
 14 15  1  0  0  0  0
 14 32  1  0  0  0  0
 14 33  1  0  0  0  0
 15 17  1  0  0  0  0
 15 16  1  0  0  0  0
 15 34  1  0  0  0  0
 16 17  1  0  0  0  0
 16 35  1  0  0  0  0
 16 36  1  0  0  0  0
 17 37  1  0  0  0  0
 17 38  1  0  0  0  0
 18 19  1  0  0  0  0
 18 39  1  0  0  0  0
 18 40  1  0  0  0  0
 19 20  1  0  0  0  0
 19 41  1  0  0  0  0
 19 42  1  0  0  0  0
 20 21  1  0  0  0  0
 20 43  1  0  0  0  0
 20 44  1  0  0  0  0
 21 45  1  0  0  0  0
 21 46  1  0  0  0  0
 22 23  2  0  0  0  0
 22 47  1  0  0  0  0
M  END
> <s_m_source_file>
AV-unprocessed.smi

> <i_m_source_file_index>
2387

> <i_lp_mmshare_version>
43012

> <i_f3d_flags>
0

> <s_epik_input>
W0NIM11jMVtjSF1bY0hdYyhbY0hdbjEpW05IXUMoPU8pW05IXUMyKFtDSDJdW0NIMl1bQ0gyXVtDSDJdMilDKD1PKVtOSF1bQ0gyXVtDSF0zW0NIMl1bQ0gyXTM=

> <s_epik_cmdline>
J2VwaWtfcHl0aG9uJywgJy1waCcsICc3LjAnLCAnLXRuJywgJzgnLCAnLW1hJywgJzIwMCcsICctbWV0YWxfYmluZGluZycsICctaW1hZScsICc8aW5maWxlLm1hZT4nLCAnLW9tYWUnLCAnPG91dGZpbGUubWFlPic=

> <r_epik_Ionization_Penalty>
0.0173464

> <r_epik_Ionization_Penalty_Charging>
0

> <r_epik_Ionization_Penalty_Neutral>
0.0173464

> <r_epik_State_Penalty>
0.0137159

> <r_epik_Charging_Adjusted_Penalty>
0.0137159

> <i_epik_Tot_Q>
0

> <i_epik_Tot_abs_Q>
0

> <r_epik_Metal_State_Penalty>
0.0133255

> <b_epik_Metal_Only>
0

> <s_lp_Force_Field>
OPLS_2005

> <r_lp_Energy>
29.6161

> <b_lp_Chiralities_Consistent>
1

> <s_lp_Variant>
AV-unprocessed.smi:2387-1

> <Gold.Version>
5.8.1

> <Gold.Id.Protein>
6NUR|6NUR_protein|mol2

> <Gold.PLP.Fitness>
40.6631

> <Gold.PLP.PLP>
-33.5539

> <Gold.PLP.part.hbond>
-3.0000

> <Gold.PLP.part.metal>
0.0000

> <Gold.PLP.part.buried>
-3.8839

> <Gold.PLP.part.nonpolar>
-25.8660

> <Gold.PLP.part.repulsive>
0.1323

> <Gold.PLP.ligand.clash>
0.0000

> <Gold.PLP.ligand.torsion>
0.8607

> <Gold.PLP.Chemscore.Hbond>
2.7361

> <Gold.PLP.Chemscore.CHOScore>
0.0000

> <Gold.PLP.Chemscore.Metal>
0.0000

> <Gold.Chemscore.Hbonds>
donor molecule, donor type, donor heavy atom, donor atom, acceptor molecule, acceptor atom, score
      L1  H     6    29       P1  8028  0.93
      L1  H     9    30       P1  8028  0.96
      L1  H    13    31       P1 10175  0.80

> <Gold.PLP.Chemscore.Internal.Correction>
0.6222

> <Gold.Rescore>
     Score         DG    S(hbond)    S(metal)    S(lipo)     H(rot)  DE(clash)    DE(int)     intcor
     17.08     -21.72       2.76        0.00      94.77       1.59       1.72       2.92       ----

> <Gold.Chemscore.Fitness>
17.0805

> <Gold.Chemscore.DG>
-21.7217

> <Gold.Chemscore.ZeroCoef>
-5.4800

> <Gold.Chemscore.Hbond>
2.7649

> <Gold.Chemscore.Metal>
0.0000

> <Gold.Chemscore.Lipo>
94.7683

> <Gold.Chemscore.Internal_Hbond>
0.0000

> <Gold.Chemscore.DEClash>
1.7170

> <Gold.Chemscore.DEInternal>
2.9242

> <Gold.Chemscore.Rot>
1.5941

> <Gold.Chemscore.Internal.Correction>
   9.000000E+99

> <Gold.Chemscore.Hbonds>
donor molecule, donor type, donor heavy atom, donor atom, acceptor molecule, acceptor atom, score
      L1  H     6    29       P1  8028  0.90
      L1  H     9    30       P1  8028  0.90
      L1  H    13    31       P1 10175  0.75

> <Gold.Chemscore.Hbond.Weighted>
-9.2347

> <Gold.Chemscore.Metal.Weighted>
-0.0000

> <Gold.Chemscore.Lipo.Weighted>
-11.0879

> <Gold.Chemscore.Internal_Hbond.Weighted>
0.0000

> <Gold.Chemscore.DEClash.Weighted>
1.7170

> <Gold.Chemscore.DEInternal.Weighted>
2.9242

> <Gold.Chemscore.Rot.Weighted>
4.0809

> <Gold.Chemscore.Internal.Correction.Weighted>
   9.000000E+99

> <Gold.Protein.RotatedTorsions>
[ 6907 6896 6895 6894 ] final  157.83 input  -60.11 | X-H torsion
[ 7974 7965 7964 7962 ] final -136.11 input  175.53 | X-H torsion
[ 8008 7997 7996 7995 ] final   94.76 input   59.86 | X-H torsion
[ 10167 10162 10161 10158 ] final   29.89 input  -65.29 | X-H torsion
[ 10718 10713 10712 10709 ] final  115.88 input   66.30 | X-H torsion
[ 10763 10752 10751 10750 ] final   10.83 input  -60.55 | X-H torsion
[ 11005 11000 10999 10996 ] final  119.08 input  -57.11 | X-H torsion

> <Gold.Protein.ActiveResidues>
 VAL166  LYS551  ARG553  GLY616  TRP617  ASP618  TYR619  PRO620  LYS621  CYS622 
 ASP623  PHE694  ASN695  SER759  ASP760  ASP761  ALA762  ILE779  LEU786  VAL792 
 PHE793  MET794  SER795  GLU796  ALA797  LYS798  CYS799  TRP800  GLU811  SER814 

> <Gold.Protein.RotatedAtoms>
  152.0094  133.3855  159.4213 H   0  0  0  0  0  0  0  0  0  0  0  0  # atno 6907 bound_to 6896
  150.6901  134.3747  159.5017 H   0  0  0  0  0  0  0  0  0  0  0  0  # atno 6908 bound_to 6896
  152.1505  134.8991  160.0599 H   0  0  0  0  0  0  0  0  0  0  0  0  # atno 6909 bound_to 6896
  144.8955  140.6701  143.5118 H   0  0  0  0  0  0  0  0  0  0  0  0  # atno 7974 bound_to 7965
  156.0615  140.3295  155.7467 H   0  0  0  0  0  0  0  0  0  0  0  0  # atno 8008 bound_to 7997
  155.5448  140.0605  157.2880 H   0  0  0  0  0  0  0  0  0  0  0  0  # atno 8009 bound_to 7997
  154.4483  140.1904  156.0615 H   0  0  0  0  0  0  0  0  0  0  0  0  # atno 8010 bound_to 7997
  140.4726  144.0739  150.6241 H   0  0  0  0  0  0  0  0  0  0  0  0  # atno 10167 bound_to 10162
  157.6195  131.1018  150.7392 H   0  0  0  0  0  0  0  0  0  0  0  0  # atno 10718 bound_to 10713
  153.1990  135.6853  153.8255 H   0  0  0  0  0  0  0  0  0  0  0  0  # atno 10763 bound_to 10752
  153.7528  135.3221  155.3325 H   0  0  0  0  0  0  0  0  0  0  0  0  # atno 10764 bound_to 10752
  154.8161  135.4685  154.0748 H   0  0  0  0  0  0  0  0  0  0  0  0  # atno 10765 bound_to 10752
  139.9133  134.9625  156.7601 H   0  0  0  0  0  0  0  0  0  0  0  0  # atno 11005 bound_to 11000
  145.3707  139.1659  143.4333 LP  0  0  0  0  0  0  0  0  0  0  0  0  # atno 17320 bound_to 7965
  146.3079  140.3778  142.8681 LP  0  0  0  0  0  0  0  0  0  0  0  0  # atno 17321 bound_to 7965
  140.3958  143.2729  152.0006 LP  0  0  0  0  0  0  0  0  0  0  0  0  # atno 17342 bound_to 10162
  139.4821  144.6039  151.7556 LP  0  0  0  0  0  0  0  0  0  0  0  0  # atno 17343 bound_to 10162
  156.7753  130.4842  149.5411 LP  0  0  0  0  0  0  0  0  0  0  0  0  # atno 17370 bound_to 10713
  156.1333  130.6193  151.0365 LP  0  0  0  0  0  0  0  0  0  0  0  0  # atno 17371 bound_to 10713
  140.6704  133.9564  155.7853 LP  0  0  0  0  0  0  0  0  0  0  0  0  # atno 17394 bound_to 11000
  141.0581  134.0386  157.3695 LP  0  0  0  0  0  0  0  0  0  0  0  0  # atno 17395 bound_to 11000

$$$$
