AV-unprocessed.smi:35|AV-procd|sdf|276|dock7
  -GOLD-   2262016 43D 1   1.00000     0.00000
 Structure written by MMmdl.
 28 29  0  0  0  0  0  0  0  0  2 V2000
  152.2686  136.7359  159.7902 O   0  0  0  0  0  0  0  0  0  0  0  0
  152.0288  137.6413  158.9933 C   0  0  0  0  0  0  0  0  0  0  0  0
  152.2213  138.9595  159.2892 N   0  5  0  0  0  0  0  0  0  0  0  0
  151.9596  139.9612  158.3986 C   0  0  0  0  0  0  0  0  0  0  0  0
  152.1040  141.1543  158.6658 O   0  0  0  0  0  0  0  0  0  0  0  0
  151.4862  139.6210  157.1017 N   0  0  0  0  0  0  0  0  0  0  0  0
  151.1874  140.7210  156.1087 C   0  0  1  0  0  0  0  0  0  0  0  0
  150.5840  140.1626  154.9767 O   0  0  0  0  0  0  0  0  0  0  0  0
  149.3727  140.8468  154.6732 C   0  0  1  0  0  0  0  0  0  0  0  0
  148.4094  139.8778  153.9690 C   0  0  0  0  0  0  0  0  0  0  0  0
  149.1241  138.8548  153.3086 O   0  0  0  0  0  0  0  0  0  0  0  0
  148.9000  141.3549  156.0369 C   0  0  2  0  0  0  0  0  0  0  0  0
  147.9910  142.4365  155.9591 O   0  0  0  0  0  0  0  0  0  0  0  0
  150.2077  141.7349  156.7202 C   0  0  2  0  0  0  0  0  0  0  0  0
  150.6152  143.0601  156.4321 O   0  0  0  0  0  0  0  0  0  0  0  0
  151.2590  138.2934  156.7802 C   0  0  0  0  0  0  0  0  0  0  0  0
  151.5116  137.3106  157.6679 C   0  0  0  0  0  0  0  0  0  0  0  0
  151.1386  135.4575  157.0733 Br  0  0  0  0  0  0  0  0  0  0  0  0
  152.1522  141.1440  155.8236 H   0  0  0  0  0  0  0  0  0  0  0  0
  149.6246  141.6845  154.0201 H   0  0  0  0  0  0  0  0  0  0  0  0
  147.7518  139.4097  154.7017 H   0  0  0  0  0  0  0  0  0  0  0  0
  147.7731  140.4041  153.2570 H   0  0  0  0  0  0  0  0  0  0  0  0
  149.2413  139.1049  152.4050 H   0  0  0  0  0  0  0  0  0  0  0  0
  148.4328  140.5385  156.5895 H   0  0  0  0  0  0  0  0  0  0  0  0
  148.4715  143.2050  155.6907 H   0  0  0  0  0  0  0  0  0  0  0  0
  150.1449  141.6239  157.8038 H   0  0  0  0  0  0  0  0  0  0  0  0
  149.8638  143.5366  156.1124 H   0  0  0  0  0  0  0  0  0  0  0  0
  150.8684  138.0300  155.8090 H   0  0  0  0  0  0  0  0  0  0  0  0
  1  2  2  0  0  0  0
  2 17  1  0  0  0  0
  2  3  1  0  0  0  0
  3  4  1  0  0  0  0
  4  5  2  0  0  0  0
  4  6  1  0  0  0  0
  6  7  1  0  0  0  0
  6 16  1  0  0  0  0
  7 14  1  0  0  0  0
  7  8  1  0  0  0  0
  7 19  1  0  0  0  0
  8  9  1  0  0  0  0
  9 10  1  0  0  0  0
  9 12  1  0  0  0  0
  9 20  1  0  0  0  0
 10 11  1  0  0  0  0
 10 21  1  0  0  0  0
 10 22  1  0  0  0  0
 11 23  1  0  0  0  0
 12 13  1  0  0  0  0
 12 14  1  0  0  0  0
 12 24  1  0  0  0  0
 13 25  1  0  0  0  0
 14 15  1  0  0  0  0
 14 26  1  0  0  0  0
 15 27  1  0  0  0  0
 16 17  2  0  0  0  0
 16 28  1  0  0  0  0
 17 18  1  0  0  0  0
M  CHG  1   3  -1
M  END
> <s_m_source_file>
AV-unprocessed.smi

> <i_m_source_file_index>
35

> <i_lp_mmshare_version>
43012

> <i_f3d_flags>
0

> <s_epik_input>
Tz1jMVtuSF1jKD1PKW4oW2NIXWMxQnIpW0NAQEhdMk9bQ0BASF0oW0NIMl1bT0hdKVtDQEBIXShbT0hdKVtDQEhdMltPSF0=

> <s_epik_cmdline>
J2VwaWtfcHl0aG9uJywgJy1waCcsICc3LjAnLCAnLXRuJywgJzgnLCAnLW1hJywgJzIwMCcsICctbWV0YWxfYmluZGluZycsICctaW1hZScsICc8aW5maWxlLm1hZT4nLCAnLW9tYWUnLCAnPG91dGZpbGUubWFlPic=

> <r_epik_Ionization_Penalty>
1.06112

> <r_epik_Ionization_Penalty_Charging>
2.1796e-09

> <r_epik_Ionization_Penalty_Neutral>
1.06112

> <r_epik_State_Penalty>
1.11484

> <r_epik_Charging_Adjusted_Penalty>
1.11484

> <i_epik_Tot_Q>
-1

> <i_epik_Tot_abs_Q>
1

> <r_epik_Metal_State_Penalty>
0.0032876

> <b_epik_Metal_Only>
0

> <s_epik_Chemistry_Notes>
This compound contains an acetal/aminal-like group ( X-CH(R)-Y where X, Y are N, S, or O) that may be acid/base labile, releasing an aldehyde.

> <s_lp_Force_Field>
OPLS_2005

> <r_lp_Energy>
40.7288

> <b_lp_Chiralities_Consistent>
1

> <s_lp_Variant>
AV-unprocessed.smi:35-30

> <Gold.Version>
5.8.1

> <Gold.Id.Protein>
6NUR|6NUR_protein|mol2

> <Gold.PLP.Fitness>
39.7980

> <Gold.PLP.PLP>
-25.9001

> <Gold.PLP.part.hbond>
-5.7140

> <Gold.PLP.part.metal>
0.0000

> <Gold.PLP.part.buried>
-4.5493

> <Gold.PLP.part.nonpolar>
-15.9599

> <Gold.PLP.part.repulsive>
0.0589

> <Gold.PLP.ligand.clash>
0.0000

> <Gold.PLP.ligand.torsion>
0.5575

> <Gold.PLP.Chemscore.Hbond>
5.0000

> <Gold.PLP.Chemscore.CHOScore>
0.0000

> <Gold.PLP.Chemscore.Metal>
0.0000

> <Gold.Chemscore.Hbonds>
donor molecule, donor type, donor heavy atom, donor atom, acceptor molecule, acceptor atom, score
      L1  H    11    23       P1  7957  1.00
      L1  H    13    25       P1  8028  1.00
      L1  H    15    27       P1  8028  1.00
      P1  H  6896  6909       L1     1  1.00
      P1  H  7989  7998       L1     8  0.85

> <Gold.PLP.Chemscore.Internal.Correction>
0.0129

> <Gold.Rescore>
     Score         DG    S(hbond)    S(metal)    S(lipo)     H(rot)  DE(clash)    DE(int)     intcor
     12.40     -14.40       4.14        0.00      37.35       3.63       0.00       2.00       ----

> <Gold.Chemscore.Fitness>
12.3975

> <Gold.Chemscore.DG>
-14.4035

> <Gold.Chemscore.ZeroCoef>
-5.4800

> <Gold.Chemscore.Hbond>
4.1426

> <Gold.Chemscore.Metal>
0.0000

> <Gold.Chemscore.Lipo>
37.3496

> <Gold.Chemscore.Internal_Hbond>
0.0000

> <Gold.Chemscore.DEClash>
0.0021

> <Gold.Chemscore.DEInternal>
2.0039

> <Gold.Chemscore.Rot>
3.6261

> <Gold.Chemscore.Internal.Correction>
   9.000000E+99

> <Gold.Chemscore.Hbonds>
donor molecule, donor type, donor heavy atom, donor atom, acceptor molecule, acceptor atom, score
      L1  H    11    23       P1  7957  0.95
      L1  H    13    25       P1  8028  0.93
      L1  H    15    27       P1  8028  0.98
      P1  H  6896  6909       L1     1  1.00
      P1  H  7989  7998       L1     8  0.06

> <Gold.Chemscore.Hbond.Weighted>
-13.8363

> <Gold.Chemscore.Metal.Weighted>
-0.0000

> <Gold.Chemscore.Lipo.Weighted>
-4.3699

> <Gold.Chemscore.Internal_Hbond.Weighted>
0.0000

> <Gold.Chemscore.DEClash.Weighted>
0.0021

> <Gold.Chemscore.DEInternal.Weighted>
2.0039

> <Gold.Chemscore.Rot.Weighted>
9.2828

> <Gold.Chemscore.Internal.Correction.Weighted>
   9.000000E+99

> <Gold.Protein.RotatedTorsions>
[ 6907 6896 6895 6894 ] final  133.37 input  -60.11 | X-H torsion
[ 7974 7965 7964 7962 ] final   51.03 input  175.53 | X-H torsion
[ 8008 7997 7996 7995 ] final  -52.17 input   59.86 | X-H torsion
[ 10167 10162 10161 10158 ] final -175.31 input  -65.29 | X-H torsion
[ 10718 10713 10712 10709 ] final  103.67 input   66.30 | X-H torsion
[ 10763 10752 10751 10750 ] final   18.73 input  -60.55 | X-H torsion
[ 11005 11000 10999 10996 ] final  -19.34 input  -57.11 | X-H torsion

> <Gold.Protein.ActiveResidues>
 VAL166  LYS551  ARG553  GLY616  TRP617  ASP618  TYR619  PRO620  LYS621  CYS622 
 ASP623  PHE694  ASN695  SER759  ASP760  ASP761  ALA762  ILE779  LEU786  VAL792 
 PHE793  MET794  SER795  GLU796  ALA797  LYS798  CYS799  TRP800  GLU811  SER814 

> <Gold.Protein.RotatedAtoms>
  152.3227  133.5871  159.5755 H   0  0  0  0  0  0  0  0  0  0  0  0  # atno 6907 bound_to 6896
  150.7380  133.9987  159.3640 H   0  0  0  0  0  0  0  0  0  0  0  0  # atno 6908 bound_to 6896
  151.7870  135.0747  160.0433 H   0  0  0  0  0  0  0  0  0  0  0  0  # atno 6909 bound_to 6896
  145.9954  139.4383  143.0048 H   0  0  0  0  0  0  0  0  0  0  0  0  # atno 7974 bound_to 7965
  154.4100  140.1230  156.4948 H   0  0  0  0  0  0  0  0  0  0  0  0  # atno 8008 bound_to 7997
  155.6954  140.3495  155.4891 H   0  0  0  0  0  0  0  0  0  0  0  0  # atno 8009 bound_to 7997
  155.9432  140.1091  157.1028 H   0  0  0  0  0  0  0  0  0  0  0  0  # atno 8010 bound_to 7997
  139.5588  144.1922  152.1204 H   0  0  0  0  0  0  0  0  0  0  0  0  # atno 10167 bound_to 10162
  157.6765  131.0785  150.5590 H   0  0  0  0  0  0  0  0  0  0  0  0  # atno 10718 bound_to 10713
  153.1224  135.6722  153.9314 H   0  0  0  0  0  0  0  0  0  0  0  0  # atno 10763 bound_to 10752
  153.8825  135.3056  155.3447 H   0  0  0  0  0  0  0  0  0  0  0  0  # atno 10764 bound_to 10752
  154.7634  135.4976  153.9586 H   0  0  0  0  0  0  0  0  0  0  0  0  # atno 10765 bound_to 10752
  140.8357  133.7964  155.9806 H   0  0  0  0  0  0  0  0  0  0  0  0  # atno 11005 bound_to 11000
  145.7568  140.9951  143.1221 LP  0  0  0  0  0  0  0  0  0  0  0  0  # atno 17320 bound_to 7965
  144.6902  139.9281  143.7470 LP  0  0  0  0  0  0  0  0  0  0  0  0  # atno 17321 bound_to 7965
  140.1431  144.5183  150.6732 LP  0  0  0  0  0  0  0  0  0  0  0  0  # atno 17342 bound_to 10162
  140.6865  143.2352  151.5247 LP  0  0  0  0  0  0  0  0  0  0  0  0  # atno 17343 bound_to 10162
  156.5893  130.4325  149.5943 LP  0  0  0  0  0  0  0  0  0  0  0  0  # atno 17370 bound_to 10713
  156.2596  130.6955  151.1719 LP  0  0  0  0  0  0  0  0  0  0  0  0  # atno 17371 bound_to 10713
  140.8950  134.2448  157.5073 LP  0  0  0  0  0  0  0  0  0  0  0  0  # atno 17394 bound_to 11000
  139.8704  134.9680  156.4615 LP  0  0  0  0  0  0  0  0  0  0  0  0  # atno 17395 bound_to 11000

$$$$
