AV-unprocessed.smi:1671|AV-procd|sdf|6697|dock8
  -GOLD-   22720 7433D 1   1.00000     0.00000
 Structure written by MMmdl.
 44 45  0  0  0  0  0  0  0  0  1 V2000
  151.7809  145.4620  159.7618 C   0  0  0  0  0  0  0  0  0  0  0  0
  151.8495  144.5838  158.1760 S   0  0  0  0  0  0  0  0  0  0  0  0
  151.2959  142.9236  158.6691 C   0  0  2  0  0  0  0  0  0  0  0  0
  152.2481  142.3364  159.7235 C   0  0  0  0  0  0  0  0  0  0  0  0
  151.1548  141.9891  157.4611 C   0  0  0  0  0  0  0  0  0  0  0  0
  151.8607  140.9847  157.3643 O   0  0  0  0  0  0  0  0  0  0  0  0
  150.2503  142.3459  156.5352 N   0  0  0  0  0  0  0  0  0  0  0  0
  149.9911  141.6443  155.2818 C   0  0  0  0  0  0  0  0  0  0  0  0
  150.0063  140.1302  155.4252 C   0  0  0  0  0  0  0  0  0  0  0  0
  149.6144  139.5221  156.6339 C   0  0  0  0  0  0  0  0  0  0  0  0
  149.6383  138.1180  156.7337 C   0  0  0  0  0  0  0  0  0  0  0  0
  150.0616  137.3530  155.6206 C   0  0  0  0  0  0  0  0  0  0  0  0
  150.0901  135.9431  155.6958 N   0  0  0  0  0  0  0  0  0  0  0  0
  149.8634  135.3208  156.9987 C   0  0  0  0  0  0  0  0  0  0  0  0
  150.2197  133.8261  156.9473 C   0  0  0  0  0  0  0  0  0  0  0  0
  149.4917  133.1962  155.8988 O   0  0  0  0  0  0  0  0  0  0  0  0
  149.8119  133.7401  154.6212 C   0  0  1  0  0  0  0  0  0  0  0  0
  149.0558  132.9406  153.5550 C   0  0  0  0  0  0  0  0  0  0  0  0
  149.4385  135.2351  154.5966 C   0  0  0  0  0  0  0  0  0  0  0  0
  150.4405  137.9424  154.4596 N   0  0  0  0  0  0  0  0  0  0  0  0
  150.4180  139.2886  154.3701 C   0  0  0  0  0  0  0  0  0  0  0  0
  152.1395  146.4839  159.6383 H   0  0  0  0  0  0  0  0  0  0  0  0
  152.4074  144.9639  160.5014 H   0  0  0  0  0  0  0  0  0  0  0  0
  150.7599  145.5035  160.1392 H   0  0  0  0  0  0  0  0  0  0  0  0
  150.3178  143.0350  159.1396 H   0  0  0  0  0  0  0  0  0  0  0  0
  151.9407  141.3336  160.0231 H   0  0  0  0  0  0  0  0  0  0  0  0
  152.2608  142.9555  160.6210 H   0  0  0  0  0  0  0  0  0  0  0  0
  153.2720  142.2753  159.3523 H   0  0  0  0  0  0  0  0  0  0  0  0
  149.7163  143.1866  156.7008 H   0  0  0  0  0  0  0  0  0  0  0  0
  149.0367  141.9474  154.8485 H   0  0  0  0  0  0  0  0  0  0  0  0
  150.7578  141.9490  154.5690 H   0  0  0  0  0  0  0  0  0  0  0  0
  149.2906  140.1191  157.4740 H   0  0  0  0  0  0  0  0  0  0  0  0
  149.3174  137.6478  157.6511 H   0  0  0  0  0  0  0  0  0  0  0  0
  150.4686  135.8099  157.7629 H   0  0  0  0  0  0  0  0  0  0  0  0
  148.8169  135.4451  157.2808 H   0  0  0  0  0  0  0  0  0  0  0  0
  151.2914  133.6859  156.7970 H   0  0  0  0  0  0  0  0  0  0  0  0
  149.9663  133.3474  157.8932 H   0  0  0  0  0  0  0  0  0  0  0  0
  150.8830  133.6273  154.4434 H   0  0  0  0  0  0  0  0  0  0  0  0
  149.2801  133.3113  152.5546 H   0  0  0  0  0  0  0  0  0  0  0  0
  147.9776  133.0064  153.7031 H   0  0  0  0  0  0  0  0  0  0  0  0
  149.3329  131.8868  153.5886 H   0  0  0  0  0  0  0  0  0  0  0  0
  148.3588  135.3549  154.6963 H   0  0  0  0  0  0  0  0  0  0  0  0
  149.7142  135.6530  153.6294 H   0  0  0  0  0  0  0  0  0  0  0  0
  150.7372  139.6996  153.4241 H   0  0  0  0  0  0  0  0  0  0  0  0
  1  2  1  0  0  0  0
  1 22  1  0  0  0  0
  1 23  1  0  0  0  0
  1 24  1  0  0  0  0
  2  3  1  0  0  0  0
  3  4  1  0  0  0  0
  3  5  1  0  0  0  0
  3 25  1  0  0  0  0
  4 26  1  0  0  0  0
  4 27  1  0  0  0  0
  4 28  1  0  0  0  0
  5  6  2  0  0  0  0
  5  7  1  0  0  0  0
  7  8  1  0  0  0  0
  7 29  1  0  0  0  0
  8  9  1  0  0  0  0
  8 30  1  0  0  0  0
  8 31  1  0  0  0  0
  9 21  1  0  0  0  0
  9 10  2  0  0  0  0
 10 11  1  0  0  0  0
 10 32  1  0  0  0  0
 11 12  2  0  0  0  0
 11 33  1  0  0  0  0
 12 13  1  0  0  0  0
 12 20  1  0  0  0  0
 13 19  1  0  0  0  0
 13 14  1  0  0  0  0
 14 15  1  0  0  0  0
 14 34  1  0  0  0  0
 14 35  1  0  0  0  0
 15 16  1  0  0  0  0
 15 36  1  0  0  0  0
 15 37  1  0  0  0  0
 16 17  1  0  0  0  0
 17 18  1  0  0  0  0
 17 19  1  0  0  0  0
 17 38  1  0  0  0  0
 18 39  1  0  0  0  0
 18 40  1  0  0  0  0
 18 41  1  0  0  0  0
 19 42  1  0  0  0  0
 19 43  1  0  0  0  0
 20 21  2  0  0  0  0
 21 44  1  0  0  0  0
M  END
> <s_m_source_file>
AV-unprocessed.smi

> <i_m_source_file_index>
1671

> <i_lp_mmshare_version>
43012

> <i_f3d_flags>
0

> <s_epik_input>
W0NIM11TW0NASF0oW0NIM10pQyg9TylbTkhdW0NIMl1jMVtjSF1bY0hdYyhuW2NIXTEpTjJbQ0gyXVtDSDJdT1tDQEBIXShbQ0gzXSlbQ0gyXTI=

> <s_epik_cmdline>
J2VwaWtfcHl0aG9uJywgJy1waCcsICc3LjAnLCAnLXRuJywgJzgnLCAnLW1hJywgJzIwMCcsICctbWV0YWxfYmluZGluZycsICctaW1hZScsICc8aW5maWxlLm1hZT4nLCAnLW9tYWUnLCAnPG91dGZpbGUubWFlPic=

> <r_lp_tautomer_probability>
1

> <r_epik_Ionization_Penalty>
0.00480033

> <r_epik_Ionization_Penalty_Charging>
0

> <r_epik_Ionization_Penalty_Neutral>
0.00480033

> <r_epik_State_Penalty>
0.00347981

> <r_epik_Charging_Adjusted_Penalty>
0.00347981

> <i_epik_Tot_Q>
0

> <i_epik_Tot_abs_Q>
0

> <r_epik_Metal_State_Penalty>
-0

> <b_epik_Metal_Only>
0

> <s_lp_Force_Field>
OPLS_2005

> <r_lp_Energy>
16.3373

> <b_lp_Chiralities_Consistent>
1

> <s_lp_Variant>
AV-unprocessed.smi:1671-1

> <Gold.Version>
5.8.1

> <Gold.Id.Protein>
6NUR|6NUR_protein|mol2

> <Gold.PLP.Fitness>
38.8551

> <Gold.PLP.PLP>
-34.6605

> <Gold.PLP.part.hbond>
-1.0000

> <Gold.PLP.part.metal>
0.0000

> <Gold.PLP.part.buried>
-1.0056

> <Gold.PLP.part.nonpolar>
-31.8075

> <Gold.PLP.part.repulsive>
0.3504

> <Gold.PLP.ligand.clash>
0.0000

> <Gold.PLP.ligand.torsion>
0.7347

> <Gold.PLP.Chemscore.Hbond>
0.7670

> <Gold.PLP.Chemscore.CHOScore>
1.0000

> <Gold.PLP.Chemscore.Metal>
0.0000

> <Gold.Chemscore.Hbonds>
donor molecule, donor type, donor heavy atom, donor atom, acceptor molecule, acceptor atom, score
      L1  H     7    29       P1  8028  0.80
      L1  C    21    44       P1  7957  0.98

> <Gold.PLP.Chemscore.Internal.Correction>
0.3631

> <Gold.Rescore>
     Score         DG    S(hbond)    S(metal)    S(lipo)     H(rot)  DE(clash)    DE(int)     intcor
     10.75     -15.88       0.93        0.00      97.96       1.63       0.42       4.71       ----

> <Gold.Chemscore.Fitness>
10.7524

> <Gold.Chemscore.DG>
-15.8838

> <Gold.Chemscore.ZeroCoef>
-5.4800

> <Gold.Chemscore.Hbond>
0.9305

> <Gold.Chemscore.Metal>
0.0000

> <Gold.Chemscore.Lipo>
97.9625

> <Gold.Chemscore.Internal_Hbond>
0.0000

> <Gold.Chemscore.DEClash>
0.4191

> <Gold.Chemscore.DEInternal>
4.7123

> <Gold.Chemscore.Rot>
1.6272

> <Gold.Chemscore.Internal.Correction>
   9.000000E+99

> <Gold.Chemscore.Hbonds>
donor molecule, donor type, donor heavy atom, donor atom, acceptor molecule, acceptor atom, score
      L1  H     7    29       P1  8028  0.74

> <Gold.Chemscore.Hbond.Weighted>
-3.1079

> <Gold.Chemscore.Metal.Weighted>
-0.0000

> <Gold.Chemscore.Lipo.Weighted>
-11.4616

> <Gold.Chemscore.Internal_Hbond.Weighted>
0.0000

> <Gold.Chemscore.DEClash.Weighted>
0.4191

> <Gold.Chemscore.DEInternal.Weighted>
4.7123

> <Gold.Chemscore.Rot.Weighted>
4.1657

> <Gold.Chemscore.Internal.Correction.Weighted>
   9.000000E+99

> <Gold.Protein.RotatedTorsions>
[ 6907 6896 6895 6894 ] final -151.91 input  -60.11 | X-H torsion
[ 7974 7965 7964 7962 ] final  -59.26 input  175.53 | X-H torsion
[ 8008 7997 7996 7995 ] final  -55.01 input   59.86 | X-H torsion
[ 10167 10162 10161 10158 ] final -178.00 input  -65.29 | X-H torsion
[ 10718 10713 10712 10709 ] final   -1.23 input   66.30 | X-H torsion
[ 10763 10752 10751 10750 ] final  108.66 input  -60.55 | X-H torsion
[ 11005 11000 10999 10996 ] final   16.02 input  -57.11 | X-H torsion

> <Gold.Protein.ActiveResidues>
 VAL166  LYS551  ARG553  GLY616  TRP617  ASP618  TYR619  PRO620  LYS621  CYS622 
 ASP623  PHE694  ASN695  SER759  ASP760  ASP761  ALA762  ILE779  LEU786  VAL792 
 PHE793  MET794  SER795  GLU796  ALA797  LYS798  CYS799  TRP800  GLU811  SER814 

> <Gold.Protein.RotatedAtoms>
  151.2200  133.4507  159.2600 H   0  0  0  0  0  0  0  0  0  0  0  0  # atno 6907 bound_to 6896
  151.0894  134.9907  159.8405 H   0  0  0  0  0  0  0  0  0  0  0  0  # atno 6908 bound_to 6896
  152.5433  134.2135  159.8812 H   0  0  0  0  0  0  0  0  0  0  0  0  # atno 6909 bound_to 6896
  145.8296  140.8488  143.0090 H   0  0  0  0  0  0  0  0  0  0  0  0  # atno 7974 bound_to 7965
  154.4181  140.1163  156.5408 H   0  0  0  0  0  0  0  0  0  0  0  0  # atno 8008 bound_to 7997
  155.6510  140.3496  155.4729 H   0  0  0  0  0  0  0  0  0  0  0  0  # atno 8009 bound_to 7997
  155.9793  140.1157  157.0731 H   0  0  0  0  0  0  0  0  0  0  0  0  # atno 8010 bound_to 7997
  139.5453  144.2252  152.0976 H   0  0  0  0  0  0  0  0  0  0  0  0  # atno 10167 bound_to 10162
  156.8087  130.5417  149.5712 H   0  0  0  0  0  0  0  0  0  0  0  0  # atno 10718 bound_to 10713
  153.4238  135.3805  155.2128 H   0  0  0  0  0  0  0  0  0  0  0  0  # atno 10763 bound_to 10752
  154.8746  135.3823  154.4352 H   0  0  0  0  0  0  0  0  0  0  0  0  # atno 10764 bound_to 10752
  153.4875  135.7088  153.5965 H   0  0  0  0  0  0  0  0  0  0  0  0  # atno 10765 bound_to 10752
  140.4517  134.1217  155.7703 H   0  0  0  0  0  0  0  0  0  0  0  0  # atno 11005 bound_to 11000
  144.6741  140.0652  143.7475 LP  0  0  0  0  0  0  0  0  0  0  0  0  # atno 17320 bound_to 7965
  145.9586  139.2784  143.1169 LP  0  0  0  0  0  0  0  0  0  0  0  0  # atno 17321 bound_to 7965
  140.1738  144.4910  150.6565 LP  0  0  0  0  0  0  0  0  0  0  0  0  # atno 17342 bound_to 10162
  140.6699  143.2281  151.5652 LP  0  0  0  0  0  0  0  0  0  0  0  0  # atno 17343 bound_to 10162
  156.1058  130.6003  150.9968 LP  0  0  0  0  0  0  0  0  0  0  0  0  # atno 17370 bound_to 10713
  157.6517  131.0896  150.8036 LP  0  0  0  0  0  0  0  0  0  0  0  0  # atno 17371 bound_to 10713
  141.1661  133.8700  157.1710 LP  0  0  0  0  0  0  0  0  0  0  0  0  # atno 17394 bound_to 11000
  140.0002  135.0031  157.0173 LP  0  0  0  0  0  0  0  0  0  0  0  0  # atno 17395 bound_to 11000

$$$$
