AV-unprocessed.smi:1776|AV-procd|sdf|7173|dock5
  -GOLD-   22720 8413D 1   1.00000     0.00000
 Structure written by MMmdl.
 31 32  0  0  0  0  0  0  0  0  1 V2000
  150.5423  143.2147  157.9353 O   0  0  0  0  0  0  0  0  0  0  0  0
  150.8489  142.0233  157.9740 C   0  0  0  0  0  0  0  0  0  0  0  0
  150.3859  141.0756  157.1335 N   0  0  0  0  0  0  0  0  0  0  0  0
  149.4828  141.1745  156.0603 C   0  0  0  0  0  0  0  0  0  0  0  0
  148.2754  141.7977  156.1020 C   0  0  0  0  0  0  0  0  0  0  0  0
  147.3932  141.8504  154.9480 C   0  0  0  0  0  0  0  0  0  0  0  0
  146.0783  142.6136  154.9886 C   0  0  0  0  0  0  0  0  0  0  0  0
  145.9618  143.3227  156.1124 F   0  0  0  0  0  0  0  0  0  0  0  0
  146.0117  143.4548  153.9577 F   0  0  0  0  0  0  0  0  0  0  0  0
  145.0408  141.7800  154.9105 F   0  0  0  0  0  0  0  0  0  0  0  0
  147.8382  141.2588  153.8241 C   0  0  0  0  0  0  0  0  0  0  0  0
  149.0698  140.6028  153.7766 N   0  0  0  0  0  0  0  0  0  0  0  0
  149.9263  140.5176  154.8189 C   0  0  0  0  0  0  0  0  0  0  0  0
  150.9955  139.9211  154.6953 O   0  0  0  0  0  0  0  0  0  0  0  0
  151.8231  141.5181  159.0489 C   0  0  2  0  0  0  0  0  0  0  0  0
  152.5344  142.6587  159.8140 C   0  0  0  0  0  0  0  0  0  0  0  0
  153.4413  142.0995  160.7557 O   0  0  0  0  0  0  0  0  0  0  0  0
  154.4243  141.2982  160.1150 C   0  0  0  0  0  0  0  0  0  0  0  0
  153.7219  140.1558  159.3635 C   0  0  0  0  0  0  0  0  0  0  0  0
  152.8153  140.7105  158.4199 O   0  0  0  0  0  0  0  0  0  0  0  0
  149.3264  140.1718  152.9001 H   0  0  0  0  0  0  0  0  0  0  0  0
  150.7567  140.1470  157.2781 H   0  0  0  0  0  0  0  0  0  0  0  0
  147.9167  142.2686  157.0013 H   0  0  0  0  0  0  0  0  0  0  0  0
  147.2992  141.2448  152.8883 H   0  0  0  0  0  0  0  0  0  0  0  0
  151.2523  140.9065  159.7499 H   0  0  0  0  0  0  0  0  0  0  0  0
  153.0692  143.3217  159.1313 H   0  0  0  0  0  0  0  0  0  0  0  0
  151.8111  143.2694  160.3557 H   0  0  0  0  0  0  0  0  0  0  0  0
  155.0213  141.9051  159.4323 H   0  0  0  0  0  0  0  0  0  0  0  0
  155.1037  140.8968  160.8670 H   0  0  0  0  0  0  0  0  0  0  0  0
  154.4532  139.5432  158.8361 H   0  0  0  0  0  0  0  0  0  0  0  0
  153.1919  139.5005  160.0566 H   0  0  0  0  0  0  0  0  0  0  0  0
  1  2  2  0  0  0  0
  2  3  1  0  0  0  0
  2 15  1  0  0  0  0
  3  4  1  0  0  0  0
  3 22  1  0  0  0  0
  4 13  1  0  0  0  0
  4  5  2  0  0  0  0
  5  6  1  0  0  0  0
  5 23  1  0  0  0  0
  6  7  1  0  0  0  0
  6 11  2  0  0  0  0
  7  8  1  0  0  0  0
  7  9  1  0  0  0  0
  7 10  1  0  0  0  0
 11 12  1  0  0  0  0
 11 24  1  0  0  0  0
 12 21  1  0  0  0  0
 12 13  1  0  0  0  0
 13 14  2  0  0  0  0
 15 20  1  0  0  0  0
 15 16  1  0  0  0  0
 15 25  1  0  0  0  0
 16 17  1  0  0  0  0
 16 26  1  0  0  0  0
 16 27  1  0  0  0  0
 17 18  1  0  0  0  0
 18 19  1  0  0  0  0
 18 28  1  0  0  0  0
 18 29  1  0  0  0  0
 19 20  1  0  0  0  0
 19 30  1  0  0  0  0
 19 31  1  0  0  0  0
M  END
> <s_m_source_file>
AV-unprocessed.smi

> <i_m_source_file_index>
1776

> <i_lp_mmshare_version>
43012

> <i_f3d_flags>
0

> <s_epik_input>
TzFbQ0gyXVtDSDJdT1tDSDJdW0NASF0xQyg9TylbTkhdYzJbY0hdYyhDKEYpKEYpRilbY0hdW25IXWMyPU8=

> <s_epik_cmdline>
J2VwaWtfcHl0aG9uJywgJy1waCcsICc3LjAnLCAnLXRuJywgJzgnLCAnLW1hJywgJzIwMCcsICctbWV0YWxfYmluZGluZycsICctaW1hZScsICc8aW5maWxlLm1hZT4nLCAnLW9tYWUnLCAnPG91dGZpbGUubWFlPic=

> <r_lp_tautomer_probability>
0.999

> <r_epik_Ionization_Penalty>
0.0100875

> <r_epik_Ionization_Penalty_Charging>
0.0100873

> <r_epik_Ionization_Penalty_Neutral>
1.79075e-07

> <r_epik_State_Penalty>
0.00769562

> <r_epik_Charging_Adjusted_Penalty>
0.017783

> <i_epik_Tot_Q>
0

> <i_epik_Tot_abs_Q>
0

> <r_epik_Metal_State_Penalty>
0.325451

> <b_epik_Metal_Only>
0

> <s_lp_Force_Field>
OPLS_2005

> <r_lp_Energy>
23.697

> <b_lp_Chiralities_Consistent>
1

> <s_lp_Variant>
AV-unprocessed.smi:1776-1

> <Gold.Version>
5.8.1

> <Gold.Id.Protein>
6NUR|6NUR_protein|mol2

> <Gold.PLP.Fitness>
37.6871

> <Gold.PLP.PLP>
-33.5013

> <Gold.PLP.part.hbond>
-2.5193

> <Gold.PLP.part.metal>
0.0000

> <Gold.PLP.part.buried>
-3.2815

> <Gold.PLP.part.nonpolar>
-27.9944

> <Gold.PLP.part.repulsive>
0.4352

> <Gold.PLP.ligand.clash>
0.0000

> <Gold.PLP.ligand.torsion>
0.9222

> <Gold.PLP.Chemscore.Hbond>
2.0000

> <Gold.PLP.Chemscore.CHOScore>
0.0000

> <Gold.PLP.Chemscore.Metal>
0.0000

> <Gold.Chemscore.Hbonds>
donor molecule, donor type, donor heavy atom, donor atom, acceptor molecule, acceptor atom, score
      L1  H    12    21       P1  7957  1.00
      P1  H  7989  7998       L1    14  0.90

> <Gold.PLP.Chemscore.Internal.Correction>
0.0303

> <Gold.Rescore>
     Score         DG    S(hbond)    S(metal)    S(lipo)     H(rot)  DE(clash)    DE(int)     intcor
     15.16     -16.32       1.95        0.00      58.77       1.00       0.02       1.14       ----

> <Gold.Chemscore.Fitness>
15.1602

> <Gold.Chemscore.DG>
-16.3233

> <Gold.Chemscore.ZeroCoef>
-5.4800

> <Gold.Chemscore.Hbond>
1.9543

> <Gold.Chemscore.Metal>
0.0000

> <Gold.Chemscore.Lipo>
58.7681

> <Gold.Chemscore.Internal_Hbond>
0.0000

> <Gold.Chemscore.DEClash>
0.0204

> <Gold.Chemscore.DEInternal>
1.1427

> <Gold.Chemscore.Rot>
1.0000

> <Gold.Chemscore.Internal.Correction>
   9.000000E+99

> <Gold.Chemscore.Hbonds>
donor molecule, donor type, donor heavy atom, donor atom, acceptor molecule, acceptor atom, score
      L1  H    12    21       P1  7957  0.99
      P1  H  7989  7998       L1    14  0.18

> <Gold.Chemscore.Hbond.Weighted>
-6.5274

> <Gold.Chemscore.Metal.Weighted>
-0.0000

> <Gold.Chemscore.Lipo.Weighted>
-6.8759

> <Gold.Chemscore.Internal_Hbond.Weighted>
0.0000

> <Gold.Chemscore.DEClash.Weighted>
0.0204

> <Gold.Chemscore.DEInternal.Weighted>
1.1427

> <Gold.Chemscore.Rot.Weighted>
2.5600

> <Gold.Chemscore.Internal.Correction.Weighted>
   9.000000E+99

> <Gold.Protein.RotatedTorsions>
[ 6907 6896 6895 6894 ] final  -95.78 input  -60.11 | X-H torsion
[ 7974 7965 7964 7962 ] final -159.12 input  175.53 | X-H torsion
[ 8008 7997 7996 7995 ] final  -87.17 input   59.86 | X-H torsion
[ 10167 10162 10161 10158 ] final   -8.50 input  -65.29 | X-H torsion
[ 10718 10713 10712 10709 ] final   10.35 input   66.30 | X-H torsion
[ 10763 10752 10751 10750 ] final   -0.05 input  -60.55 | X-H torsion
[ 11005 11000 10999 10996 ] final -124.80 input  -57.11 | X-H torsion

> <Gold.Protein.ActiveResidues>
 VAL166  LYS551  ARG553  GLY616  TRP617  ASP618  TYR619  PRO620  LYS621  CYS622 
 ASP623  PHE694  ASN695  SER759  ASP760  ASP761  ALA762  ILE779  LEU786  VAL792 
 PHE793  MET794  SER795  GLU796  ALA797  LYS798  CYS799  TRP800  GLU811  SER814 

> <Gold.Protein.RotatedAtoms>
  150.6972  134.1605  159.4174 H   0  0  0  0  0  0  0  0  0  0  0  0  # atno 6907 bound_to 6896
  151.9585  135.0132  160.0555 H   0  0  0  0  0  0  0  0  0  0  0  0  # atno 6908 bound_to 6896
  152.1947  133.4763  159.5063 H   0  0  0  0  0  0  0  0  0  0  0  0  # atno 6909 bound_to 6896
  144.7478  140.3730  143.6071 H   0  0  0  0  0  0  0  0  0  0  0  0  # atno 7974 bound_to 7965
  154.6602  140.0569  157.0053 H   0  0  0  0  0  0  0  0  0  0  0  0  # atno 8008 bound_to 7997
  155.1240  140.3250  155.4471 H   0  0  0  0  0  0  0  0  0  0  0  0  # atno 8009 bound_to 7997
  156.2615  140.1992  156.6361 H   0  0  0  0  0  0  0  0  0  0  0  0  # atno 8010 bound_to 7997
  140.7061  143.5962  150.8843 H   0  0  0  0  0  0  0  0  0  0  0  0  # atno 10167 bound_to 10162
  156.9797  130.6000  149.5675 H   0  0  0  0  0  0  0  0  0  0  0  0  # atno 10718 bound_to 10713
  153.3269  135.6973  153.6981 H   0  0  0  0  0  0  0  0  0  0  0  0  # atno 10763 bound_to 10752
  153.5799  135.3500  155.2871 H   0  0  0  0  0  0  0  0  0  0  0  0  # atno 10764 bound_to 10752
  154.8610  135.4292  154.2448 H   0  0  0  0  0  0  0  0  0  0  0  0  # atno 10765 bound_to 10752
  140.9812  134.0670  157.3762 H   0  0  0  0  0  0  0  0  0  0  0  0  # atno 11005 bound_to 11000
  145.7057  139.1672  143.2567 LP  0  0  0  0  0  0  0  0  0  0  0  0  # atno 17320 bound_to 7965
  146.1383  140.7092  142.9379 LP  0  0  0  0  0  0  0  0  0  0  0  0  # atno 17321 bound_to 7965
  139.9687  143.6081  152.2980 LP  0  0  0  0  0  0  0  0  0  0  0  0  # atno 17342 bound_to 10162
  139.6660  144.7662  151.1872 LP  0  0  0  0  0  0  0  0  0  0  0  0  # atno 17343 bound_to 10162
  156.0249  130.5343  150.8380 LP  0  0  0  0  0  0  0  0  0  0  0  0  # atno 17370 bound_to 10713
  157.5535  131.0944  150.9662 LP  0  0  0  0  0  0  0  0  0  0  0  0  # atno 17371 bound_to 10713
  139.8951  135.0139  156.6985 LP  0  0  0  0  0  0  0  0  0  0  0  0  # atno 17394 bound_to 11000
  140.7183  133.9163  155.8130 LP  0  0  0  0  0  0  0  0  0  0  0  0  # atno 17395 bound_to 11000

$$$$
