AV-unprocessed.smi:3068|AV-procd|sdf|11706|dock9
  -GOLD-   2272017113D 1   1.00000     0.00000
 Structure written by MMmdl.
 39 41  0  0  0  0  0  0  0  0  1 V2000
  147.0278  141.2714  158.3899 N   0  0  0  0  0  0  0  0  0  0  0  0
  147.0866  141.0979  157.2472 C   0  0  0  0  0  0  0  0  0  0  0  0
  147.1601  140.8795  155.8081 C   0  0  0  0  0  0  0  0  0  0  0  0
  146.0925  140.2827  155.2293 N   0  0  0  0  0  0  0  0  0  0  0  0
  146.1463  140.0772  153.8962 C   0  0  0  0  0  0  0  0  0  0  0  0
  147.2661  140.4639  153.1348 C   0  0  0  0  0  0  0  0  0  0  0  0
  148.3360  141.0579  153.7041 N   0  0  0  0  0  0  0  0  0  0  0  0
  148.2938  141.2747  155.0430 C   0  0  0  0  0  0  0  0  0  0  0  0
  149.4014  141.8940  155.6520 N   0  0  0  0  0  0  0  0  0  0  0  0
  150.6957  141.2292  155.7474 C   0  0  0  0  0  0  0  0  0  0  0  0
  151.1391  141.0111  157.2035 C   0  0  2  0  0  0  0  0  0  0  0  0
  151.3125  142.3467  157.9490 C   0  0  0  0  0  0  0  0  0  0  0  0
  151.8039  142.1507  159.3068 N   0  0  0  0  0  0  0  0  0  0  0  0
  151.9681  143.4257  160.0026 C   0  0  0  0  0  0  0  0  0  0  0  0
  152.4534  143.2453  161.4497 C   0  0  0  0  0  0  0  0  0  0  0  0
  153.7675  142.4519  161.4754 C   0  0  0  0  0  0  0  0  0  0  0  0
  153.6044  141.1367  160.6977 C   0  0  0  0  0  0  0  0  0  0  0  0
  153.0625  141.3994  159.2774 C   0  0  1  0  0  0  0  0  0  0  0  0
  152.8942  140.0751  158.5049 C   0  0  0  0  0  0  0  0  0  0  0  0
  152.3947  140.3362  157.1971 O   0  0  0  0  0  0  0  0  0  0  0  0
  145.2930  139.6024  153.4346 H   0  0  0  0  0  0  0  0  0  0  0  0
  147.3033  140.2965  152.0684 H   0  0  0  0  0  0  0  0  0  0  0  0
  149.3660  142.8866  155.8365 H   0  0  0  0  0  0  0  0  0  0  0  0
  150.6282  140.2694  155.2350 H   0  0  0  0  0  0  0  0  0  0  0  0
  151.4439  141.8086  155.2053 H   0  0  0  0  0  0  0  0  0  0  0  0
  150.4021  140.4022  157.7302 H   0  0  0  0  0  0  0  0  0  0  0  0
  152.0031  142.9847  157.3948 H   0  0  0  0  0  0  0  0  0  0  0  0
  150.3571  142.8719  157.9772 H   0  0  0  0  0  0  0  0  0  0  0  0
  152.6748  144.0552  159.4594 H   0  0  0  0  0  0  0  0  0  0  0  0
  151.0190  143.9627  160.0105 H   0  0  0  0  0  0  0  0  0  0  0  0
  152.5908  144.2170  161.9247 H   0  0  0  0  0  0  0  0  0  0  0  0
  151.6934  142.7187  162.0286 H   0  0  0  0  0  0  0  0  0  0  0  0
  154.5630  143.0470  161.0251 H   0  0  0  0  0  0  0  0  0  0  0  0
  154.0702  142.2505  162.5033 H   0  0  0  0  0  0  0  0  0  0  0  0
  154.5623  140.6180  160.6470 H   0  0  0  0  0  0  0  0  0  0  0  0
  152.9227  140.4775  161.2371 H   0  0  0  0  0  0  0  0  0  0  0  0
  153.8064  141.9946  158.7446 H   0  0  0  0  0  0  0  0  0  0  0  0
  153.8514  139.5607  158.4171 H   0  0  0  0  0  0  0  0  0  0  0  0
  152.2158  139.4002  159.0291 H   0  0  0  0  0  0  0  0  0  0  0  0
  1  2  3  0  0  0  0
  2  3  1  0  0  0  0
  3  8  1  0  0  0  0
  3  4  2  0  0  0  0
  4  5  1  0  0  0  0
  5  6  2  0  0  0  0
  5 21  1  0  0  0  0
  6  7  1  0  0  0  0
  6 22  1  0  0  0  0
  7  8  2  0  0  0  0
  8  9  1  0  0  0  0
  9 10  1  0  0  0  0
  9 23  1  0  0  0  0
 10 11  1  0  0  0  0
 10 24  1  0  0  0  0
 10 25  1  0  0  0  0
 11 20  1  0  0  0  0
 11 12  1  0  0  0  0
 11 26  1  0  0  0  0
 12 13  1  0  0  0  0
 12 27  1  0  0  0  0
 12 28  1  0  0  0  0
 13 18  1  0  0  0  0
 13 14  1  0  0  0  0
 14 15  1  0  0  0  0
 14 29  1  0  0  0  0
 14 30  1  0  0  0  0
 15 16  1  0  0  0  0
 15 31  1  0  0  0  0
 15 32  1  0  0  0  0
 16 17  1  0  0  0  0
 16 33  1  0  0  0  0
 16 34  1  0  0  0  0
 17 18  1  0  0  0  0
 17 35  1  0  0  0  0
 17 36  1  0  0  0  0
 18 19  1  0  0  0  0
 18 37  1  0  0  0  0
 19 20  1  0  0  0  0
 19 38  1  0  0  0  0
 19 39  1  0  0  0  0
M  END
> <s_m_source_file>
AV-unprocessed.smi

> <i_m_source_file_index>
3068

> <i_lp_mmshare_version>
43012

> <i_f3d_flags>
0

> <s_epik_input>
TiNDYzFuW2NIXVtjSF1uYzFbTkhdW0NIMl1bQ0BIXShbQ0gyXTIpT1tDSDJdW0NAQEhdKE4yMylbQ0gyXVtDSDJdW0NIMl1bQ0gyXTM=

> <s_epik_cmdline>
J2VwaWtfcHl0aG9uJywgJy1waCcsICc3LjAnLCAnLXRuJywgJzgnLCAnLW1hJywgJzIwMCcsICctbWV0YWxfYmluZGluZycsICctaW1hZScsICc8aW5maWxlLm1hZT4nLCAnLW9tYWUnLCAnPG91dGZpbGUubWFlPic=

> <r_epik_Ionization_Penalty>
1.22359

> <r_epik_Ionization_Penalty_Charging>
0

> <r_epik_Ionization_Penalty_Neutral>
1.22359

> <r_epik_State_Penalty>
1.29103

> <r_epik_Charging_Adjusted_Penalty>
1.29103

> <i_epik_Tot_Q>
0

> <i_epik_Tot_abs_Q>
0

> <r_epik_Metal_State_Penalty>
1.29103

> <b_epik_Metal_Only>
0

> <s_lp_Force_Field>
OPLS_2005

> <r_lp_Energy>
45.8422

> <b_lp_Chiralities_Consistent>
1

> <s_lp_Variant>
AV-unprocessed.smi:3068-9

> <Gold.Version>
5.8.1

> <Gold.Id.Protein>
6NUR|6NUR_protein|mol2

> <Gold.PLP.Fitness>
47.2113

> <Gold.PLP.PLP>
-35.6845

> <Gold.PLP.part.hbond>
-3.7290

> <Gold.PLP.part.metal>
0.0000

> <Gold.PLP.part.buried>
-1.7069

> <Gold.PLP.part.nonpolar>
-29.0598

> <Gold.PLP.part.repulsive>
0.7375

> <Gold.PLP.ligand.clash>
0.0000

> <Gold.PLP.ligand.torsion>
0.6447

> <Gold.PLP.Chemscore.Hbond>
2.3257

> <Gold.PLP.Chemscore.CHOScore>
1.9459

> <Gold.PLP.Chemscore.Metal>
0.0000

> <Gold.Chemscore.Hbonds>
donor molecule, donor type, donor heavy atom, donor atom, acceptor molecule, acceptor atom, score
      L1  H     9    23       P1  8028  1.00
      P1  H  6934  6946       L1     1  0.08
      P1  H  7997  8010       L1    20  0.09
      P1  H  8011  8017       L1     7  0.03
      L1  C     5    21       P1 10175  0.98
      L1  C     6    22       P1  7957  0.71

> <Gold.PLP.Chemscore.Internal.Correction>
0.0015

> <Gold.Rescore>
     Score         DG    S(hbond)    S(metal)    S(lipo)     H(rot)  DE(clash)    DE(int)     intcor
     17.38     -18.22       1.39        0.00      97.79       1.30       0.06       0.78       ----

> <Gold.Chemscore.Fitness>
17.3815

> <Gold.Chemscore.DG>
-18.2200

> <Gold.Chemscore.ZeroCoef>
-5.4800

> <Gold.Chemscore.Hbond>
1.3865

> <Gold.Chemscore.Metal>
0.0000

> <Gold.Chemscore.Lipo>
97.7916

> <Gold.Chemscore.Internal_Hbond>
0.0000

> <Gold.Chemscore.DEClash>
0.0583

> <Gold.Chemscore.DEInternal>
0.7802

> <Gold.Chemscore.Rot>
1.3019

> <Gold.Chemscore.Internal.Correction>
   9.000000E+99

> <Gold.Chemscore.Hbonds>
donor molecule, donor type, donor heavy atom, donor atom, acceptor molecule, acceptor atom, score
      L1  H     9    23       P1  8028  0.99
      P1  H  6934  6946       L1     1  0.08
      P1  H  8011  8017       L1     7  0.07

> <Gold.Chemscore.Hbond.Weighted>
-4.6311

> <Gold.Chemscore.Metal.Weighted>
-0.0000

> <Gold.Chemscore.Lipo.Weighted>
-11.4416

> <Gold.Chemscore.Internal_Hbond.Weighted>
0.0000

> <Gold.Chemscore.DEClash.Weighted>
0.0583

> <Gold.Chemscore.DEInternal.Weighted>
0.7802

> <Gold.Chemscore.Rot.Weighted>
3.3327

> <Gold.Chemscore.Internal.Correction.Weighted>
   9.000000E+99

> <Gold.Protein.RotatedTorsions>
[ 6907 6896 6895 6894 ] final   31.55 input  -60.11 | X-H torsion
[ 7974 7965 7964 7962 ] final  -58.62 input  175.53 | X-H torsion
[ 8008 7997 7996 7995 ] final   56.28 input   59.86 | X-H torsion
[ 10167 10162 10161 10158 ] final  144.83 input  -65.29 | X-H torsion
[ 10718 10713 10712 10709 ] final  146.05 input   66.30 | X-H torsion
[ 10763 10752 10751 10750 ] final  -76.20 input  -60.55 | X-H torsion
[ 11005 11000 10999 10996 ] final -139.77 input  -57.11 | X-H torsion

> <Gold.Protein.ActiveResidues>
 VAL166  LYS551  ARG553  GLY616  TRP617  ASP618  TYR619  PRO620  LYS621  CYS622 
 ASP623  PHE694  ASN695  SER759  ASP760  ASP761  ALA762  ILE779  LEU786  VAL792 
 PHE793  MET794  SER795  GLU796  ALA797  LYS798  CYS799  TRP800  GLU811  SER814 

> <Gold.Protein.RotatedAtoms>
  152.0619  134.9589  160.0574 H   0  0  0  0  0  0  0  0  0  0  0  0  # atno 6907 bound_to 6896
  152.0949  133.4215  159.4569 H   0  0  0  0  0  0  0  0  0  0  0  0  # atno 6908 bound_to 6896
  150.6837  134.2748  159.4646 H   0  0  0  0  0  0  0  0  0  0  0  0  # atno 6909 bound_to 6896
  145.8372  140.8441  143.0053 H   0  0  0  0  0  0  0  0  0  0  0  0  # atno 7974 bound_to 7965
  155.5149  140.3478  155.4395 H   0  0  0  0  0  0  0  0  0  0  0  0  # atno 8008 bound_to 7997
  156.0824  140.1390  156.9723 H   0  0  0  0  0  0  0  0  0  0  0  0  # atno 8009 bound_to 7997
  154.4587  140.0943  156.6809 H   0  0  0  0  0  0  0  0  0  0  0  0  # atno 8010 bound_to 7997
  139.4938  144.5944  151.6613 H   0  0  0  0  0  0  0  0  0  0  0  0  # atno 10167 bound_to 10162
  157.3379  131.0931  151.1107 H   0  0  0  0  0  0  0  0  0  0  0  0  # atno 10718 bound_to 10713
  154.4967  135.5805  153.6500 H   0  0  0  0  0  0  0  0  0  0  0  0  # atno 10763 bound_to 10752
  152.9871  135.6126  154.3055 H   0  0  0  0  0  0  0  0  0  0  0  0  # atno 10764 bound_to 10752
  154.2959  135.2847  155.2612 H   0  0  0  0  0  0  0  0  0  0  0  0  # atno 10765 bound_to 10752
  140.8487  134.2312  157.4772 H   0  0  0  0  0  0  0  0  0  0  0  0  # atno 11005 bound_to 11000
  144.6736  140.0759  143.7471 LP  0  0  0  0  0  0  0  0  0  0  0  0  # atno 17320 bound_to 7965
  145.9505  139.2731  143.1215 LP  0  0  0  0  0  0  0  0  0  0  0  0  # atno 17321 bound_to 7965
  140.5579  144.0318  150.6156 LP  0  0  0  0  0  0  0  0  0  0  0  0  # atno 17342 bound_to 10162
  140.3394  143.3029  152.0604 LP  0  0  0  0  0  0  0  0  0  0  0  0  # atno 17343 bound_to 10162
  157.2330  130.6534  149.5858 LP  0  0  0  0  0  0  0  0  0  0  0  0  # atno 17370 bound_to 10713
  155.9704  130.4592  150.6029 LP  0  0  0  0  0  0  0  0  0  0  0  0  # atno 17371 bound_to 10713
  139.8704  134.9672  156.4590 LP  0  0  0  0  0  0  0  0  0  0  0  0  # atno 17394 bound_to 11000
  140.8814  133.7915  155.9470 LP  0  0  0  0  0  0  0  0  0  0  0  0  # atno 17395 bound_to 11000

$$$$
