AV-unprocessed.smi:1088|AV-procd|sdf|4728|dock5
  -GOLD-   22720 3263D 1   1.00000     0.00000
 Structure written by MMmdl.
 48 49  0  0  0  0  0  0  0  0  2 V2000
  144.1794  132.0884  151.0246 C   0  0  0  0  0  0  0  0  0  0  0  0
  144.7462  132.6260  152.2067 O   0  0  0  0  0  0  0  0  0  0  0  0
  146.1547  132.4705  152.2546 C   0  0  0  0  0  0  0  0  0  0  0  0
  146.4844  131.1766  153.0125 C   0  0  0  0  0  0  0  0  0  0  0  0
  147.9401  131.0232  153.2515 N   0  3  2  0  0  0  0  0  0  0  0  0
  148.3707  129.6593  153.6242 C   0  0  0  0  0  0  0  0  0  0  0  0
  149.6998  129.8504  154.3418 C   0  0  0  0  0  0  0  0  0  0  0  0
  149.4837  131.1468  155.1127 C   0  0  0  0  0  0  0  0  0  0  0  0
  148.5015  131.9682  154.2503 C   0  0  1  0  0  0  0  0  0  0  0  0
  149.1362  133.1776  153.5334 C   0  0  0  0  0  0  0  0  0  0  0  0
  149.0637  134.3885  154.3451 N   0  0  0  0  0  0  0  0  0  0  0  0
  149.5718  134.5314  155.5784 C   0  0  0  0  0  0  0  0  0  0  0  0
  150.2188  133.6538  156.1511 O   0  0  0  0  0  0  0  0  0  0  0  0
  149.3039  135.8733  156.2704 C   0  0  0  0  0  0  0  0  0  0  0  0
  150.3737  136.8490  156.0249 N   0  0  0  0  0  0  0  0  0  0  0  0
  150.2429  137.7692  155.0008 C   0  0  0  0  0  0  0  0  0  0  0  0
  151.1818  138.6949  154.7071 C   0  0  0  0  0  0  0  0  0  0  0  0
  152.4205  138.7732  155.4718 C   0  0  0  0  0  0  0  0  0  0  0  0
  153.2937  139.6143  155.2548 O   0  0  0  0  0  0  0  0  0  0  0  0
  152.5379  137.8093  156.5010 N   0  0  0  0  0  0  0  0  0  0  0  0
  153.7365  137.8336  157.3138 C   0  0  0  0  0  0  0  0  0  0  0  0
  151.5427  136.8571  156.8177 C   0  0  0  0  0  0  0  0  0  0  0  0
  151.6714  136.0586  157.7496 O   0  0  0  0  0  0  0  0  0  0  0  0
  143.0991  132.2326  151.0377 H   0  0  0  0  0  0  0  0  0  0  0  0
  144.3746  131.0182  150.9443 H   0  0  0  0  0  0  0  0  0  0  0  0
  144.5740  132.5843  150.1369 H   0  0  0  0  0  0  0  0  0  0  0  0
  146.5479  132.4056  151.2390 H   0  0  0  0  0  0  0  0  0  0  0  0
  146.6251  133.3342  152.7266 H   0  0  0  0  0  0  0  0  0  0  0  0
  145.9620  131.1883  153.9701 H   0  0  0  0  0  0  0  0  0  0  0  0
  146.1102  130.3108  152.4645 H   0  0  0  0  0  0  0  0  0  0  0  0
  147.6467  129.2132  154.3082 H   0  0  0  0  0  0  0  0  0  0  0  0
  148.4610  129.0092  152.7536 H   0  0  0  0  0  0  0  0  0  0  0  0
  149.9612  129.0102  154.9859 H   0  0  0  0  0  0  0  0  0  0  0  0
  150.5014  129.9815  153.6135 H   0  0  0  0  0  0  0  0  0  0  0  0
  149.0187  130.9209  156.0734 H   0  0  0  0  0  0  0  0  0  0  0  0
  150.4252  131.6512  155.3261 H   0  0  0  0  0  0  0  0  0  0  0  0
  147.7029  132.3269  154.9025 H   0  0  0  0  0  0  0  0  0  0  0  0
  150.1645  132.9501  153.2472 H   0  0  0  0  0  0  0  0  0  0  0  0
  148.6014  133.3756  152.6039 H   0  0  0  0  0  0  0  0  0  0  0  0
  148.5558  135.1688  153.9538 H   0  0  0  0  0  0  0  0  0  0  0  0
  148.3496  136.2583  155.9089 H   0  0  0  0  0  0  0  0  0  0  0  0
  149.1773  135.7275  157.3450 H   0  0  0  0  0  0  0  0  0  0  0  0
  149.3440  137.7505  154.4017 H   0  0  0  0  0  0  0  0  0  0  0  0
  151.0141  139.3878  153.8956 H   0  0  0  0  0  0  0  0  0  0  0  0
  153.9558  136.8281  157.6755 H   0  0  0  0  0  0  0  0  0  0  0  0
  153.5461  138.5219  158.1384 H   0  0  0  0  0  0  0  0  0  0  0  0
  154.5813  138.1617  156.7063 H   0  0  0  0  0  0  0  0  0  0  0  0
  148.4084  131.2383  152.3825 H   0  0  0  0  0  0  0  0  0  0  0  0
  1  2  1  0  0  0  0
  1 24  1  0  0  0  0
  1 25  1  0  0  0  0
  1 26  1  0  0  0  0
  2  3  1  0  0  0  0
  3  4  1  0  0  0  0
  3 27  1  0  0  0  0
  3 28  1  0  0  0  0
  4  5  1  0  0  0  0
  4 29  1  0  0  0  0
  4 30  1  0  0  0  0
  5  9  1  0  0  0  0
  5  6  1  0  0  0  0
  5 48  1  0  0  0  0
  6  7  1  0  0  0  0
  6 31  1  0  0  0  0
  6 32  1  0  0  0  0
  7  8  1  0  0  0  0
  7 33  1  0  0  0  0
  7 34  1  0  0  0  0
  8  9  1  0  0  0  0
  8 35  1  0  0  0  0
  8 36  1  0  0  0  0
  9 10  1  0  0  0  0
  9 37  1  0  0  0  0
 10 11  1  0  0  0  0
 10 38  1  0  0  0  0
 10 39  1  0  0  0  0
 11 12  1  0  0  0  0
 11 40  1  0  0  0  0
 12 13  2  0  0  0  0
 12 14  1  0  0  0  0
 14 15  1  0  0  0  0
 14 41  1  0  0  0  0
 14 42  1  0  0  0  0
 15 22  1  0  0  0  0
 15 16  1  0  0  0  0
 16 17  2  0  0  0  0
 16 43  1  0  0  0  0
 17 18  1  0  0  0  0
 17 44  1  0  0  0  0
 18 19  2  0  0  0  0
 18 20  1  0  0  0  0
 20 21  1  0  0  0  0
 20 22  1  0  0  0  0
 21 45  1  0  0  0  0
 21 46  1  0  0  0  0
 21 47  1  0  0  0  0
 22 23  2  0  0  0  0
M  CHG  1   5   1
M  END
> <s_m_source_file>
AV-unprocessed.smi

> <i_m_source_file_index>
1088

> <i_lp_mmshare_version>
43012

> <i_f3d_flags>
0

> <s_epik_input>
W0NIM11PW0NIMl1bQ0gyXU4xW0NIMl1bQ0gyXVtDSDJdW0NASF0xW0NIMl1bTkhdQyg9TylbQ0gyXW4yW2NIXVtjSF1jKD1PKW4oW0NIM10pYzI9Tw==

> <s_epik_cmdline>
J2VwaWtfcHl0aG9uJywgJy1waCcsICc3LjAnLCAnLXRuJywgJzgnLCAnLW1hJywgJzIwMCcsICctbWV0YWxfYmluZGluZycsICctaW1hZScsICc8aW5maWxlLm1hZT4nLCAnLW9tYWUnLCAnPG91dGZpbGUubWFlPic=

> <r_lp_tautomer_probability>
1

> <r_epik_Ionization_Penalty>
0.0127388

> <r_epik_Ionization_Penalty_Charging>
0.0127387

> <r_epik_Ionization_Penalty_Neutral>
8.26414e-08

> <r_epik_State_Penalty>
0.00987716

> <r_epik_Charging_Adjusted_Penalty>
0.0226159

> <i_epik_Tot_Q>
1

> <i_epik_Tot_abs_Q>
1

> <r_epik_Metal_State_Penalty>
0.00987836

> <b_epik_Metal_Only>
0

> <s_lp_Force_Field>
OPLS_2005

> <r_lp_Energy>
37.5103

> <b_lp_Chiralities_Consistent>
1

> <s_lp_Variant>
AV-unprocessed.smi:1088-1

> <Gold.Version>
5.8.1

> <Gold.Id.Protein>
6NUR|6NUR_protein|mol2

> <Gold.PLP.Fitness>
46.5660

> <Gold.PLP.PLP>
-38.2887

> <Gold.PLP.part.hbond>
-4.3569

> <Gold.PLP.part.metal>
0.0000

> <Gold.PLP.part.buried>
-5.7242

> <Gold.PLP.part.nonpolar>
-28.2940

> <Gold.PLP.part.repulsive>
0.1419

> <Gold.PLP.ligand.clash>
0.0000

> <Gold.PLP.ligand.torsion>
1.4265

> <Gold.PLP.Chemscore.Hbond>
2.6880

> <Gold.PLP.Chemscore.CHOScore>
0.9808

> <Gold.PLP.Chemscore.Metal>
0.0000

> <Gold.Chemscore.Hbonds>
donor molecule, donor type, donor heavy atom, donor atom, acceptor molecule, acceptor atom, score
      L1  H     5    48       P1 10747  0.59
      L1  H    11    40       P1  7948  0.09
      P1  H  7997  8010       L1    19  0.80

> <Gold.PLP.Chemscore.Internal.Correction>
0.1239

> <Gold.Rescore>
     Score         DG    S(hbond)    S(metal)    S(lipo)     H(rot)  DE(clash)    DE(int)     intcor
     12.35     -15.16       2.39        0.00      70.73       2.57       0.07       2.74       ----

> <Gold.Chemscore.Fitness>
12.3473

> <Gold.Chemscore.DG>
-15.1641

> <Gold.Chemscore.ZeroCoef>
-5.4800

> <Gold.Chemscore.Hbond>
2.3910

> <Gold.Chemscore.Metal>
0.0000

> <Gold.Chemscore.Lipo>
70.7276

> <Gold.Chemscore.Internal_Hbond>
0.0000

> <Gold.Chemscore.DEClash>
0.0742

> <Gold.Chemscore.DEInternal>
2.7425

> <Gold.Chemscore.Rot>
2.5692

> <Gold.Chemscore.Internal.Correction>
   9.000000E+99

> <Gold.Chemscore.Hbonds>
donor molecule, donor type, donor heavy atom, donor atom, acceptor molecule, acceptor atom, score
      L1  H     5    48       P1 10747  0.56
      L1  H    11    40       P1  7948  0.09
      P1  H  6896  6909       L1    23  0.01
      P1  H  7997  8010       L1    19  0.79

> <Gold.Chemscore.Hbond.Weighted>
-7.9861

> <Gold.Chemscore.Metal.Weighted>
-0.0000

> <Gold.Chemscore.Lipo.Weighted>
-8.2751

> <Gold.Chemscore.Internal_Hbond.Weighted>
0.0000

> <Gold.Chemscore.DEClash.Weighted>
0.0742

> <Gold.Chemscore.DEInternal.Weighted>
2.7425

> <Gold.Chemscore.Rot.Weighted>
6.5772

> <Gold.Chemscore.Internal.Correction.Weighted>
   9.000000E+99

> <Gold.Protein.RotatedTorsions>
[ 6907 6896 6895 6894 ] final  137.57 input  -60.11 | X-H torsion
[ 7974 7965 7964 7962 ] final  167.47 input  175.53 | X-H torsion
[ 8008 7997 7996 7995 ] final   96.26 input   59.86 | X-H torsion
[ 10167 10162 10161 10158 ] final  -80.04 input  -65.29 | X-H torsion
[ 10718 10713 10712 10709 ] final   86.40 input   66.30 | X-H torsion
[ 10763 10752 10751 10750 ] final  125.28 input  -60.55 | X-H torsion
[ 11005 11000 10999 10996 ] final  -74.25 input  -57.11 | X-H torsion

> <Gold.Protein.ActiveResidues>
 VAL166  LYS551  ARG553  GLY616  TRP617  ASP618  TYR619  PRO620  LYS621  CYS622 
 ASP623  PHE694  ASN695  SER759  ASP760  ASP761  ALA762  ILE779  LEU786  VAL792 
 PHE793  MET794  SER795  GLU796  ALA797  LYS798  CYS799  TRP800  GLU811  SER814 

> <Gold.Protein.RotatedAtoms>
  152.2765  133.5430  159.5470 H   0  0  0  0  0  0  0  0  0  0  0  0  # atno 6907 bound_to 6896
  150.7179  134.0624  159.3845 H   0  0  0  0  0  0  0  0  0  0  0  0  # atno 6908 bound_to 6896
  151.8537  135.0549  160.0512 H   0  0  0  0  0  0  0  0  0  0  0  0  # atno 6909 bound_to 6896
  144.7423  139.8766  143.6393 H   0  0  0  0  0  0  0  0  0  0  0  0  # atno 7974 bound_to 7965
  156.0777  140.3275  155.7654 H   0  0  0  0  0  0  0  0  0  0  0  0  # atno 8008 bound_to 7997
  155.5203  140.0584  157.2925 H   0  0  0  0  0  0  0  0  0  0  0  0  # atno 8009 bound_to 7997
  154.4564  140.1945  156.0383 H   0  0  0  0  0  0  0  0  0  0  0  0  # atno 8010 bound_to 7997
  140.4539  143.2474  151.8448 H   0  0  0  0  0  0  0  0  0  0  0  0  # atno 10167 bound_to 10162
  157.6928  131.0214  150.2967 H   0  0  0  0  0  0  0  0  0  0  0  0  # atno 10718 bound_to 10713
  153.6748  135.3324  155.3163 H   0  0  0  0  0  0  0  0  0  0  0  0  # atno 10763 bound_to 10752
  154.8481  135.4395  154.1667 H   0  0  0  0  0  0  0  0  0  0  0  0  # atno 10764 bound_to 10752
  153.2668  135.6996  153.7598 H   0  0  0  0  0  0  0  0  0  0  0  0  # atno 10765 bound_to 10752
  141.1633  133.6905  156.7336 H   0  0  0  0  0  0  0  0  0  0  0  0  # atno 11005 bound_to 11000
  146.1242  139.4265  143.0209 LP  0  0  0  0  0  0  0  0  0  0  0  0  # atno 17320 bound_to 7965
  145.7260  141.0059  143.1377 LP  0  0  0  0  0  0  0  0  0  0  0  0  # atno 17321 bound_to 7965
  139.4799  144.5087  151.8962 LP  0  0  0  0  0  0  0  0  0  0  0  0  # atno 17342 bound_to 10162
  140.4174  144.2288  150.5887 LP  0  0  0  0  0  0  0  0  0  0  0  0  # atno 17343 bound_to 10162
  156.3489  130.3827  149.7345 LP  0  0  0  0  0  0  0  0  0  0  0  0  # atno 17370 bound_to 10713
  156.4830  130.8049  151.3063 LP  0  0  0  0  0  0  0  0  0  0  0  0  # atno 17371 bound_to 10713
  140.2727  134.8379  157.3862 LP  0  0  0  0  0  0  0  0  0  0  0  0  # atno 17394 bound_to 11000
  140.1506  134.4854  155.7964 LP  0  0  0  0  0  0  0  0  0  0  0  0  # atno 17395 bound_to 11000

$$$$
