AV-unprocessed.smi:1556|AV-procd|sdf|6268|dock4
  -GOLD-   22720 6453D 1   1.00000     0.00000
 Structure written by MMmdl.
 37 38  0  0  0  0  0  0  0  0  1 V2000
  139.7814  137.6392  153.8027 C   0  0  0  0  0  0  0  0  0  0  0  0
  140.9359  136.7728  153.7011 N   0  0  0  0  0  0  0  0  0  0  0  0
  142.2712  137.1139  153.7071 C   0  0  0  0  0  0  0  0  0  0  0  0
  142.9903  135.9586  153.5843 C   0  0  0  0  0  0  0  0  0  0  0  0
  144.4825  135.7834  153.5361 C   0  0  0  0  0  0  0  0  0  0  0  0
  145.1730  136.9821  152.8657 C   0  0  0  0  0  0  0  0  0  0  0  0
  146.6049  136.9947  153.1398 N   0  0  0  0  0  0  0  0  0  0  0  0
  147.1619  137.3470  154.3110 C   0  0  0  0  0  0  0  0  0  0  0  0
  146.5109  137.7147  155.2871 O   0  0  0  0  0  0  0  0  0  0  0  0
  148.5048  137.2790  154.3407 N   0  0  0  0  0  0  0  0  0  0  0  0
  149.4024  137.5923  155.4532 C   0  0  2  0  0  0  0  0  0  0  0  0
  149.4855  139.1134  155.6810 C   0  0  0  0  0  0  0  0  0  0  0  0
  150.6822  139.4136  156.5929 C   0  0  0  0  0  0  0  0  0  0  0  0
  151.9132  138.0929  156.2735 S   0  0  0  0  0  0  0  0  0  0  0  0
  153.0219  138.6312  155.4711 O   0  0  0  0  0  0  0  0  0  0  0  0
  152.1674  137.3681  157.5277 O   0  0  0  0  0  0  0  0  0  0  0  0
  150.8293  137.0810  155.1989 C   0  0  0  0  0  0  0  0  0  0  0  0
  141.9860  134.9510  153.5117 C   0  0  0  0  0  0  0  0  0  0  0  0
  140.7589  135.4411  153.5804 N   0  0  0  0  0  0  0  0  0  0  0  0
  140.1004  138.6710  153.9529 H   0  0  0  0  0  0  0  0  0  0  0  0
  139.1625  137.3335  154.6466 H   0  0  0  0  0  0  0  0  0  0  0  0
  139.1939  137.5793  152.8862 H   0  0  0  0  0  0  0  0  0  0  0  0
  142.5968  138.1399  153.7964 H   0  0  0  0  0  0  0  0  0  0  0  0
  144.8803  135.6523  154.5432 H   0  0  0  0  0  0  0  0  0  0  0  0
  144.7400  134.8715  152.9961 H   0  0  0  0  0  0  0  0  0  0  0  0
  145.0364  136.9363  151.7850 H   0  0  0  0  0  0  0  0  0  0  0  0
  144.7198  137.9185  153.1961 H   0  0  0  0  0  0  0  0  0  0  0  0
  147.2158  136.7121  152.3875 H   0  0  0  0  0  0  0  0  0  0  0  0
  148.9562  137.0144  153.4768 H   0  0  0  0  0  0  0  0  0  0  0  0
  149.0260  137.1452  156.3751 H   0  0  0  0  0  0  0  0  0  0  0  0
  149.6459  139.6111  154.7234 H   0  0  0  0  0  0  0  0  0  0  0  0
  148.5590  139.5134  156.0939 H   0  0  0  0  0  0  0  0  0  0  0  0
  151.1225  140.3930  156.4052 H   0  0  0  0  0  0  0  0  0  0  0  0
  150.3941  139.3574  157.6428 H   0  0  0  0  0  0  0  0  0  0  0  0
  150.9574  136.0228  155.4272 H   0  0  0  0  0  0  0  0  0  0  0  0
  151.1318  137.2540  154.1654 H   0  0  0  0  0  0  0  0  0  0  0  0
  142.1129  133.8835  153.4087 H   0  0  0  0  0  0  0  0  0  0  0  0
  1  2  1  0  0  0  0
  1 20  1  0  0  0  0
  1 21  1  0  0  0  0
  1 22  1  0  0  0  0
  2 19  1  0  0  0  0
  2  3  1  0  0  0  0
  3  4  2  0  0  0  0
  3 23  1  0  0  0  0
  4  5  1  0  0  0  0
  4 18  1  0  0  0  0
  5  6  1  0  0  0  0
  5 24  1  0  0  0  0
  5 25  1  0  0  0  0
  6  7  1  0  0  0  0
  6 26  1  0  0  0  0
  6 27  1  0  0  0  0
  7  8  1  0  0  0  0
  7 28  1  0  0  0  0
  8  9  2  0  0  0  0
  8 10  1  0  0  0  0
 10 11  1  0  0  0  0
 10 29  1  0  0  0  0
 11 17  1  0  0  0  0
 11 12  1  0  0  0  0
 11 30  1  0  0  0  0
 12 13  1  0  0  0  0
 12 31  1  0  0  0  0
 12 32  1  0  0  0  0
 13 14  1  0  0  0  0
 13 33  1  0  0  0  0
 13 34  1  0  0  0  0
 14 15  2  0  0  0  0
 14 16  2  0  0  0  0
 14 17  1  0  0  0  0
 17 35  1  0  0  0  0
 17 36  1  0  0  0  0
 18 19  2  0  0  0  0
 18 37  1  0  0  0  0
M  END
> <s_m_source_file>
AV-unprocessed.smi

> <i_m_source_file_index>
1556

> <i_lp_mmshare_version>
43012

> <i_f3d_flags>
0

> <s_epik_input>
W0NIM11uMVtjSF1jKFtjSF1uMSlbQ0gyXVtDSDJdW05IXUMoPU8pW05IXVtDQEBIXShbQ0gyXTIpW0NIMl1bQ0gyXVMyKD1PKT1P

> <s_epik_cmdline>
J2VwaWtfcHl0aG9uJywgJy1waCcsICc3LjAnLCAnLXRuJywgJzgnLCAnLW1hJywgJzIwMCcsICctbWV0YWxfYmluZGluZycsICctaW1hZScsICc8aW5maWxlLm1hZT4nLCAnLW9tYWUnLCAnPG91dGZpbGUubWFlPic=

> <r_lp_tautomer_probability>
1

> <r_epik_Ionization_Penalty>
0.000530192

> <r_epik_Ionization_Penalty_Charging>
0

> <r_epik_Ionization_Penalty_Neutral>
0.000530192

> <r_epik_State_Penalty>
-0

> <r_epik_Charging_Adjusted_Penalty>
0

> <i_epik_Tot_Q>
0

> <i_epik_Tot_abs_Q>
0

> <r_epik_Metal_State_Penalty>
-0

> <b_epik_Metal_Only>
0

> <s_lp_Force_Field>
OPLS_2005

> <r_lp_Energy>
8.62968

> <b_lp_Chiralities_Consistent>
1

> <s_lp_Variant>
AV-unprocessed.smi:1556-1

> <Gold.Version>
5.8.1

> <Gold.Id.Protein>
6NUR|6NUR_protein|mol2

> <Gold.PLP.Fitness>
44.8786

> <Gold.PLP.PLP>
-29.9202

> <Gold.PLP.part.hbond>
-4.2355

> <Gold.PLP.part.metal>
0.0000

> <Gold.PLP.part.buried>
-5.9818

> <Gold.PLP.part.nonpolar>
-20.8951

> <Gold.PLP.part.repulsive>
0.2873

> <Gold.PLP.ligand.clash>
0.0000

> <Gold.PLP.ligand.torsion>
0.6749

> <Gold.PLP.Chemscore.Hbond>
3.4350

> <Gold.PLP.Chemscore.CHOScore>
2.0000

> <Gold.PLP.Chemscore.Metal>
0.0000

> <Gold.Chemscore.Hbonds>
donor molecule, donor type, donor heavy atom, donor atom, acceptor molecule, acceptor atom, score
      L1  H     7    28       P1  7948  0.96
      L1  H    10    29       P1  7948  1.00
      P1  H  7997  8010       L1    15  0.53
      L1  C     3    23       P1 10175  0.23
      L1  C    18    37       P1 10957  0.90

> <Gold.PLP.Chemscore.Internal.Correction>
0.0032

> <Gold.Rescore>
     Score         DG    S(hbond)    S(metal)    S(lipo)     H(rot)  DE(clash)    DE(int)     intcor
     15.90     -16.41       2.99        0.00      48.01       1.82       0.01       0.49       ----

> <Gold.Chemscore.Fitness>
15.9040

> <Gold.Chemscore.DG>
-16.4113

> <Gold.Chemscore.ZeroCoef>
-5.4800

> <Gold.Chemscore.Hbond>
2.9876

> <Gold.Chemscore.Metal>
0.0000

> <Gold.Chemscore.Lipo>
48.0083

> <Gold.Chemscore.Internal_Hbond>
0.0000

> <Gold.Chemscore.DEClash>
0.0126

> <Gold.Chemscore.DEInternal>
0.4947

> <Gold.Chemscore.Rot>
1.8220

> <Gold.Chemscore.Internal.Correction>
   9.000000E+99

> <Gold.Chemscore.Hbonds>
donor molecule, donor type, donor heavy atom, donor atom, acceptor molecule, acceptor atom, score
      L1  H     7    28       P1  7948  0.92
      L1  H    10    29       P1  7948  0.97
      P1  H  7997  8010       L1    15  0.52

> <Gold.Chemscore.Hbond.Weighted>
-9.9786

> <Gold.Chemscore.Metal.Weighted>
-0.0000

> <Gold.Chemscore.Lipo.Weighted>
-5.6170

> <Gold.Chemscore.Internal_Hbond.Weighted>
0.0000

> <Gold.Chemscore.DEClash.Weighted>
0.0126

> <Gold.Chemscore.DEInternal.Weighted>
0.4947

> <Gold.Chemscore.Rot.Weighted>
4.6642

> <Gold.Chemscore.Internal.Correction.Weighted>
   9.000000E+99

> <Gold.Protein.RotatedTorsions>
[ 6907 6896 6895 6894 ] final -124.13 input  -60.11 | X-H torsion
[ 7974 7965 7964 7962 ] final  124.63 input  175.53 | X-H torsion
[ 8008 7997 7996 7995 ] final  112.05 input   59.86 | X-H torsion
[ 10167 10162 10161 10158 ] final  164.07 input  -65.29 | X-H torsion
[ 10718 10713 10712 10709 ] final -109.34 input   66.30 | X-H torsion
[ 10763 10752 10751 10750 ] final   96.26 input  -60.55 | X-H torsion
[ 11005 11000 10999 10996 ] final   37.40 input  -57.11 | X-H torsion

> <Gold.Protein.ActiveResidues>
 VAL166  LYS551  ARG553  GLY616  TRP617  ASP618  TYR619  PRO620  LYS621  CYS622 
 ASP623  PHE694  ASN695  SER759  ASP760  ASP761  ALA762  ILE779  LEU786  VAL792 
 PHE793  MET794  SER795  GLU796  ALA797  LYS798  CYS799  TRP800  GLU811  SER814 

> <Gold.Protein.RotatedAtoms>
  150.8738  133.7468  159.2952 H   0  0  0  0  0  0  0  0  0  0  0  0  # atno 6907 bound_to 6896
  151.5072  135.1062  159.9854 H   0  0  0  0  0  0  0  0  0  0  0  0  # atno 6908 bound_to 6896
  152.4713  133.7991  159.6999 H   0  0  0  0  0  0  0  0  0  0  0  0  # atno 6909 bound_to 6896
  145.0822  139.3649  143.4903 H   0  0  0  0  0  0  0  0  0  0  0  0  # atno 7974 bound_to 7965
  156.2166  140.3007  155.9854 H   0  0  0  0  0  0  0  0  0  0  0  0  # atno 8008 bound_to 7997
  155.2589  140.0429  157.3012 H   0  0  0  0  0  0  0  0  0  0  0  0  # atno 8009 bound_to 7997
  154.5777  140.2366  155.8107 H   0  0  0  0  0  0  0  0  0  0  0  0  # atno 8010 bound_to 7997
  139.4883  144.4273  151.9113 H   0  0  0  0  0  0  0  0  0  0  0  0  # atno 10167 bound_to 10162
  156.0532  130.5759  150.8086 H   0  0  0  0  0  0  0  0  0  0  0  0  # atno 10718 bound_to 10713
  153.2629  135.4225  155.0911 H   0  0  0  0  0  0  0  0  0  0  0  0  # atno 10763 bound_to 10752
  154.8427  135.3453  154.6353 H   0  0  0  0  0  0  0  0  0  0  0  0  # atno 10764 bound_to 10752
  153.6773  135.7040  153.5186 H   0  0  0  0  0  0  0  0  0  0  0  0  # atno 10765 bound_to 10752
  140.2229  134.3619  155.7997 H   0  0  0  0  0  0  0  0  0  0  0  0  # atno 11005 bound_to 11000
  146.3531  140.0617  142.8629 LP  0  0  0  0  0  0  0  0  0  0  0  0  # atno 17320 bound_to 7965
  145.1165  140.9437  143.4626 LP  0  0  0  0  0  0  0  0  0  0  0  0  # atno 17321 bound_to 7965
  140.3719  144.2844  150.5919 LP  0  0  0  0  0  0  0  0  0  0  0  0  # atno 17342 bound_to 10162
  140.5311  143.2243  151.8237 LP  0  0  0  0  0  0  0  0  0  0  0  0  # atno 17343 bound_to 10162
  157.5478  131.0943  150.9738 LP  0  0  0  0  0  0  0  0  0  0  0  0  # atno 17370 bound_to 10713
  157.0006  130.5598  149.5311 LP  0  0  0  0  0  0  0  0  0  0  0  0  # atno 17371 bound_to 10713
  141.2222  133.7203  156.8606 LP  0  0  0  0  0  0  0  0  0  0  0  0  # atno 17394 bound_to 11000
  140.1830  134.9019  157.2971 LP  0  0  0  0  0  0  0  0  0  0  0  0  # atno 17395 bound_to 11000

$$$$
