AV-unprocessed.smi:690|AV-procd|sdf|3361|dock10
  -GOLD-   22720 0343D 1   1.00000     0.00000
 Structure written by MMmdl.
 46 48  0  0  0  0  0  0  0  0  1 V2000
  151.5099  137.6022  154.3762 C   0  0  0  0  0  0  0  0  0  0  0  0
  150.8580  138.9477  154.7003 C   0  0  0  0  0  0  0  0  0  0  0  0
  149.6592  138.7108  155.4189 O   0  0  0  0  0  0  0  0  0  0  0  0
  149.0212  139.9050  155.8531 C   0  0  1  0  0  0  0  0  0  0  0  0
  147.6417  139.5707  156.4301 C   0  0  0  0  0  0  0  0  0  0  0  0
  148.2845  139.5217  157.8197 C   0  0  1  0  0  0  0  0  0  0  0  0
  148.6910  138.1593  158.1638 N   0  0  0  0  0  0  0  0  0  0  0  0
  148.0244  137.3464  158.9948 C   0  0  0  0  0  0  0  0  0  0  0  0
  146.9874  137.6748  159.5725 O   0  0  0  0  0  0  0  0  0  0  0  0
  148.6459  135.9626  159.2274 C   0  0  0  0  0  0  0  0  0  0  0  0
  148.0458  135.2493  160.3667 N   0  0  0  0  0  0  0  0  0  0  0  0
  147.7096  133.8943  160.1736 C   0  0  0  0  0  0  0  0  0  0  0  0
  147.1631  133.1525  161.1500 C   0  0  0  0  0  0  0  0  0  0  0  0
  146.9207  133.7784  162.4282 C   0  0  0  0  0  0  0  0  0  0  0  0
  147.2403  135.0730  162.6242 C   0  0  0  0  0  0  0  0  0  0  0  0
  147.8375  135.8877  161.5598 C   0  0  0  0  0  0  0  0  0  0  0  0
  148.1324  137.0711  161.7301 O   0  0  0  0  0  0  0  0  0  0  0  0
  149.4449  140.3883  157.2672 C   0  0  0  0  0  0  0  0  0  0  0  0
  149.3359  141.8961  157.4933 C   0  0  0  0  0  0  0  0  0  0  0  0
  150.7030  142.4962  157.1620 C   0  0  0  0  0  0  0  0  0  0  0  0
  151.7121  141.3726  157.4081 C   0  0  0  0  0  0  0  0  0  0  0  0
  150.8782  140.1319  157.7458 C   0  0  0  0  0  0  0  0  0  0  0  0
  152.4353  137.7413  153.8170 H   0  0  0  0  0  0  0  0  0  0  0  0
  150.8458  136.9799  153.7760 H   0  0  0  0  0  0  0  0  0  0  0  0
  151.7489  137.0554  155.2888 H   0  0  0  0  0  0  0  0  0  0  0  0
  151.5439  139.5607  155.2848 H   0  0  0  0  0  0  0  0  0  0  0  0
  150.6371  139.4900  153.7800 H   0  0  0  0  0  0  0  0  0  0  0  0
  148.9769  140.6847  155.0903 H   0  0  0  0  0  0  0  0  0  0  0  0
  146.9343  140.3947  156.3260 H   0  0  0  0  0  0  0  0  0  0  0  0
  147.2094  138.6319  156.0809 H   0  0  0  0  0  0  0  0  0  0  0  0
  147.6822  140.0187  158.5822 H   0  0  0  0  0  0  0  0  0  0  0  0
  149.5436  137.8185  157.7428 H   0  0  0  0  0  0  0  0  0  0  0  0
  148.5577  135.3606  158.3206 H   0  0  0  0  0  0  0  0  0  0  0  0
  149.7180  136.0957  159.3775 H   0  0  0  0  0  0  0  0  0  0  0  0
  147.9304  133.4999  159.1924 H   0  0  0  0  0  0  0  0  0  0  0  0
  146.9154  132.1141  160.9857 H   0  0  0  0  0  0  0  0  0  0  0  0
  146.4826  133.2053  163.2322 H   0  0  0  0  0  0  0  0  0  0  0  0
  147.0534  135.5238  163.5879 H   0  0  0  0  0  0  0  0  0  0  0  0
  148.5471  142.3566  156.8978 H   0  0  0  0  0  0  0  0  0  0  0  0
  149.0979  142.0978  158.5387 H   0  0  0  0  0  0  0  0  0  0  0  0
  150.7337  142.7928  156.1129 H   0  0  0  0  0  0  0  0  0  0  0  0
  150.9142  143.3822  157.7615 H   0  0  0  0  0  0  0  0  0  0  0  0
  152.3151  141.2068  156.5152 H   0  0  0  0  0  0  0  0  0  0  0  0
  152.3953  141.6161  158.2224 H   0  0  0  0  0  0  0  0  0  0  0  0
  150.8827  139.9923  158.8277 H   0  0  0  0  0  0  0  0  0  0  0  0
  151.3158  139.2287  157.3213 H   0  0  0  0  0  0  0  0  0  0  0  0
  1  2  1  0  0  0  0
  1 23  1  0  0  0  0
  1 24  1  0  0  0  0
  1 25  1  0  0  0  0
  2  3  1  0  0  0  0
  2 26  1  0  0  0  0
  2 27  1  0  0  0  0
  3  4  1  0  0  0  0
  4 18  1  0  0  0  0
  4  5  1  0  0  0  0
  4 28  1  0  0  0  0
  5  6  1  0  0  0  0
  5 29  1  0  0  0  0
  5 30  1  0  0  0  0
  6  7  1  0  0  0  0
  6 18  1  0  0  0  0
  6 31  1  0  0  0  0
  7  8  1  0  0  0  0
  7 32  1  0  0  0  0
  8  9  2  0  0  0  0
  8 10  1  0  0  0  0
 10 11  1  0  0  0  0
 10 33  1  0  0  0  0
 10 34  1  0  0  0  0
 11 16  1  0  0  0  0
 11 12  1  0  0  0  0
 12 13  2  0  0  0  0
 12 35  1  0  0  0  0
 13 14  1  0  0  0  0
 13 36  1  0  0  0  0
 14 15  2  0  0  0  0
 14 37  1  0  0  0  0
 15 16  1  0  0  0  0
 15 38  1  0  0  0  0
 16 17  2  0  0  0  0
 18 22  1  0  0  0  0
 18 19  1  0  0  0  0
 19 20  1  0  0  0  0
 19 39  1  0  0  0  0
 19 40  1  0  0  0  0
 20 21  1  0  0  0  0
 20 41  1  0  0  0  0
 20 42  1  0  0  0  0
 21 22  1  0  0  0  0
 21 43  1  0  0  0  0
 21 44  1  0  0  0  0
 22 45  1  0  0  0  0
 22 46  1  0  0  0  0
M  END
> <s_m_source_file>
AV-unprocessed.smi

> <i_m_source_file_index>
690

> <i_lp_mmshare_version>
43012

> <i_f3d_flags>
0

> <s_epik_input>
W0NIMl0xW0NIMl1bQ0gyXVtDSDJdQzEyW0NASF0oT1tDSDJdW0NIM10pW0NIMl1bQ0BIXTJbTkhdQyg9TylbQ0gyXW4zW2NIXVtjSF1bY0hdW2NIXWMzPU8=

> <s_epik_cmdline>
J2VwaWtfcHl0aG9uJywgJy1waCcsICc3LjAnLCAnLXRuJywgJzgnLCAnLW1hJywgJzIwMCcsICctbWV0YWxfYmluZGluZycsICctaW1hZScsICc8aW5maWxlLm1hZT4nLCAnLW9tYWUnLCAnPG91dGZpbGUubWFlPic=

> <r_lp_tautomer_probability>
1

> <r_epik_Ionization_Penalty>
4.11691e-07

> <r_epik_Ionization_Penalty_Charging>
3.92797e-07

> <r_epik_Ionization_Penalty_Neutral>
1.88943e-08

> <r_epik_State_Penalty>
-0

> <r_epik_Charging_Adjusted_Penalty>
3.92797e-07

> <i_epik_Tot_Q>
0

> <i_epik_Tot_abs_Q>
0

> <r_epik_Metal_State_Penalty>
-0

> <b_epik_Metal_Only>
0

> <s_lp_Force_Field>
OPLS_2005

> <r_lp_Energy>
47.4249

> <b_lp_Chiralities_Consistent>
1

> <s_lp_Variant>
AV-unprocessed.smi:690-2

> <Gold.Version>
5.8.1

> <Gold.Id.Protein>
6NUR|6NUR_protein|mol2

> <Gold.PLP.Fitness>
39.5233

> <Gold.PLP.PLP>
-35.1525

> <Gold.PLP.part.hbond>
-2.9336

> <Gold.PLP.part.metal>
0.0000

> <Gold.PLP.part.buried>
-4.5344

> <Gold.PLP.part.nonpolar>
-29.4160

> <Gold.PLP.part.repulsive>
0.1848

> <Gold.PLP.ligand.clash>
0.0000

> <Gold.PLP.ligand.torsion>
0.7873

> <Gold.PLP.Chemscore.Hbond>
1.8480

> <Gold.PLP.Chemscore.CHOScore>
0.0000

> <Gold.PLP.Chemscore.Metal>
0.0000

> <Gold.Chemscore.Hbonds>
donor molecule, donor type, donor heavy atom, donor atom, acceptor molecule, acceptor atom, score
      P1  H  6931  6943       L1    17  0.91
      P1  H  6934  6947       L1     9  0.86

> <Gold.PLP.Chemscore.Internal.Correction>
0.4015

> <Gold.Rescore>
     Score         DG    S(hbond)    S(metal)    S(lipo)     H(rot)  DE(clash)    DE(int)     intcor
     12.14     -16.27       1.88        0.00      75.60       1.69       0.13       3.99       ----

> <Gold.Chemscore.Fitness>
12.1442

> <Gold.Chemscore.DG>
-16.2725

> <Gold.Chemscore.ZeroCoef>
-5.4800

> <Gold.Chemscore.Hbond>
1.8782

> <Gold.Chemscore.Metal>
0.0000

> <Gold.Chemscore.Lipo>
75.6048

> <Gold.Chemscore.Internal_Hbond>
0.0000

> <Gold.Chemscore.DEClash>
0.1343

> <Gold.Chemscore.DEInternal>
3.9940

> <Gold.Chemscore.Rot>
1.6900

> <Gold.Chemscore.Internal.Correction>
   9.000000E+99

> <Gold.Chemscore.Hbonds>
donor molecule, donor type, donor heavy atom, donor atom, acceptor molecule, acceptor atom, score
      P1  H  6931  6943       L1    17  0.87
      P1  H  6934  6947       L1     9  0.78

> <Gold.Chemscore.Hbond.Weighted>
-6.2732

> <Gold.Chemscore.Metal.Weighted>
-0.0000

> <Gold.Chemscore.Lipo.Weighted>
-8.8458

> <Gold.Chemscore.Internal_Hbond.Weighted>
0.0000

> <Gold.Chemscore.DEClash.Weighted>
0.1343

> <Gold.Chemscore.DEInternal.Weighted>
3.9940

> <Gold.Chemscore.Rot.Weighted>
4.3265

> <Gold.Chemscore.Internal.Correction.Weighted>
   9.000000E+99

> <Gold.Protein.RotatedTorsions>
[ 6907 6896 6895 6894 ] final  -64.57 input  -60.11 | X-H torsion
[ 7974 7965 7964 7962 ] final -139.36 input  175.53 | X-H torsion
[ 8008 7997 7996 7995 ] final  -77.21 input   59.86 | X-H torsion
[ 10167 10162 10161 10158 ] final  -73.57 input  -65.29 | X-H torsion
[ 10718 10713 10712 10709 ] final  143.45 input   66.30 | X-H torsion
[ 10763 10752 10751 10750 ] final    5.94 input  -60.55 | X-H torsion
[ 11005 11000 10999 10996 ] final   30.66 input  -57.11 | X-H torsion

> <Gold.Protein.ActiveResidues>
 VAL166  LYS551  ARG553  GLY616  TRP617  ASP618  TYR619  PRO620  LYS621  CYS622 
 ASP623  PHE694  ASN695  SER759  ASP760  ASP761  ALA762  ILE779  LEU786  VAL792 
 PHE793  MET794  SER795  GLU796  ALA797  LYS798  CYS799  TRP800  GLU811  SER814 

> <Gold.Protein.RotatedAtoms>
  150.7577  134.6280  159.6170 H   0  0  0  0  0  0  0  0  0  0  0  0  # atno 6907 bound_to 6896
  152.3566  134.6928  160.0229 H   0  0  0  0  0  0  0  0  0  0  0  0  # atno 6908 bound_to 6896
  151.7331  133.3282  159.3382 H   0  0  0  0  0  0  0  0  0  0  0  0  # atno 6909 bound_to 6896
  144.8683  140.6328  143.5283 H   0  0  0  0  0  0  0  0  0  0  0  0  # atno 7974 bound_to 7965
  154.5575  140.0714  156.8767 H   0  0  0  0  0  0  0  0  0  0  0  0  # atno 8008 bound_to 7997
  155.2874  140.3375  155.4236 H   0  0  0  0  0  0  0  0  0  0  0  0  # atno 8009 bound_to 7997
  156.2015  140.1723  156.7876 H   0  0  0  0  0  0  0  0  0  0  0  0  # atno 8010 bound_to 7997
  140.5099  143.2346  151.7610 H   0  0  0  0  0  0  0  0  0  0  0  0  # atno 10167 bound_to 10162
  157.3687  131.0976  151.0848 H   0  0  0  0  0  0  0  0  0  0  0  0  # atno 10718 bound_to 10713
  153.2536  135.6916  153.7653 H   0  0  0  0  0  0  0  0  0  0  0  0  # atno 10763 bound_to 10752
  153.6739  135.3340  155.3161 H   0  0  0  0  0  0  0  0  0  0  0  0  # atno 10764 bound_to 10752
  154.8403  135.4506  154.1501 H   0  0  0  0  0  0  0  0  0  0  0  0  # atno 10765 bound_to 10752
  140.2920  134.2853  155.7773 H   0  0  0  0  0  0  0  0  0  0  0  0  # atno 11005 bound_to 11000
  145.4179  139.1569  143.4090 LP  0  0  0  0  0  0  0  0  0  0  0  0  # atno 17320 bound_to 7965
  146.2912  140.4287  142.8739 LP  0  0  0  0  0  0  0  0  0  0  0  0  # atno 17321 bound_to 7965
  139.4893  144.4405  151.9770 LP  0  0  0  0  0  0  0  0  0  0  0  0  # atno 17342 bound_to 10162
  140.3497  144.3104  150.5951 LP  0  0  0  0  0  0  0  0  0  0  0  0  # atno 17343 bound_to 10162
  157.1960  130.6373  149.5721 LP  0  0  0  0  0  0  0  0  0  0  0  0  # atno 17370 bound_to 10713
  155.9751  130.4706  150.6437 LP  0  0  0  0  0  0  0  0  0  0  0  0  # atno 17371 bound_to 10713
  141.2144  133.7591  156.9639 LP  0  0  0  0  0  0  0  0  0  0  0  0  # atno 17394 bound_to 11000
  140.1187  134.9431  157.2171 LP  0  0  0  0  0  0  0  0  0  0  0  0  # atno 17395 bound_to 11000

$$$$
