AV-unprocessed.smi:2658|AV-procd|sdf|10309|dock6
  -GOLD-   2272014323D 1   1.00000     0.00000
 Structure written by MMmdl.
 46 48  0  0  0  0  0  0  0  0  1 V2000
  151.5101  143.7890  158.4471 C   0  0  0  0  0  0  0  0  0  0  0  0
  151.3442  142.4015  157.8526 C   0  0  0  0  0  0  0  0  0  0  0  0
  150.7768  142.2697  156.5653 C   0  0  0  0  0  0  0  0  0  0  0  0
  150.6102  140.9987  155.9738 C   0  0  0  0  0  0  0  0  0  0  0  0
  150.0882  140.6428  154.7420 N   0  0  0  0  0  0  0  0  0  0  0  0
  150.2097  139.3189  154.7727 C   0  0  0  0  0  0  0  0  0  0  0  0
  150.7488  138.7743  155.8805 N   0  0  0  0  0  0  0  0  0  0  0  0
  150.9866  137.3652  156.1373 C   0  0  0  0  0  0  0  0  0  0  0  0
  150.6068  136.4708  154.9410 C   0  0  1  0  0  0  0  0  0  0  0  0
  151.4630  136.7397  153.8481 O   0  0  0  0  0  0  0  0  0  0  0  0
  150.7049  134.9760  155.2786 C   0  0  0  0  0  0  0  0  0  0  0  0
  149.9322  134.2347  154.3384 O   0  0  0  0  0  0  0  0  0  0  0  0
  149.9984  132.8572  154.3743 C   0  0  0  0  0  0  0  0  0  0  0  0
  150.8938  132.2418  155.2694 C   0  0  0  0  0  0  0  0  0  0  0  0
  150.9473  130.8354  155.2820 C   0  0  0  0  0  0  0  0  0  0  0  0
  151.8870  130.1027  156.2212 C   0  0  0  0  0  0  0  0  0  0  0  0
  150.0940  130.1504  154.3881 C   0  0  0  0  0  0  0  0  0  0  0  0
  150.0703  128.6351  154.3103 C   0  0  0  0  0  0  0  0  0  0  0  0
  149.2511  130.7990  153.5512 N   0  0  0  0  0  0  0  0  0  0  0  0
  149.2018  132.1350  153.5443 N   0  0  0  0  0  0  0  0  0  0  0  0
  151.0305  139.8531  156.7111 C   0  0  0  0  0  0  0  0  0  0  0  0
  151.5927  139.9704  157.9945 C   0  0  0  0  0  0  0  0  0  0  0  0
  151.7517  141.2485  158.5709 C   0  0  0  0  0  0  0  0  0  0  0  0
  152.3597  141.3664  159.9573 C   0  0  0  0  0  0  0  0  0  0  0  0
  151.1501  144.5601  157.7655 H   0  0  0  0  0  0  0  0  0  0  0  0
  152.5608  143.9922  158.6550 H   0  0  0  0  0  0  0  0  0  0  0  0
  150.9489  143.8764  159.3777 H   0  0  0  0  0  0  0  0  0  0  0  0
  150.4657  143.1472  156.0179 H   0  0  0  0  0  0  0  0  0  0  0  0
  149.8882  138.7089  153.9413 H   0  0  0  0  0  0  0  0  0  0  0  0
  152.0383  137.2315  156.3950 H   0  0  0  0  0  0  0  0  0  0  0  0
  150.4123  137.0801  157.0195 H   0  0  0  0  0  0  0  0  0  0  0  0
  149.5890  136.6986  154.6217 H   0  0  0  0  0  0  0  0  0  0  0  0
  151.0162  136.5008  153.0506 H   0  0  0  0  0  0  0  0  0  0  0  0
  151.7450  134.6496  155.2214 H   0  0  0  0  0  0  0  0  0  0  0  0
  150.3558  134.8034  156.2987 H   0  0  0  0  0  0  0  0  0  0  0  0
  151.5170  132.8343  155.9232 H   0  0  0  0  0  0  0  0  0  0  0  0
  151.3288  129.4246  156.8675 H   0  0  0  0  0  0  0  0  0  0  0  0
  152.4326  130.8011  156.8565 H   0  0  0  0  0  0  0  0  0  0  0  0
  152.6143  129.5207  155.6546 H   0  0  0  0  0  0  0  0  0  0  0  0
  151.0614  128.2505  154.0699 H   0  0  0  0  0  0  0  0  0  0  0  0
  149.3793  128.2850  153.5421 H   0  0  0  0  0  0  0  0  0  0  0  0
  149.7563  128.2110  155.2642 H   0  0  0  0  0  0  0  0  0  0  0  0
  151.8994  139.0834  158.5291 H   0  0  0  0  0  0  0  0  0  0  0  0
  152.6272  140.3889  160.3596 H   0  0  0  0  0  0  0  0  0  0  0  0
  151.6528  141.8300  160.6455 H   0  0  0  0  0  0  0  0  0  0  0  0
  153.2643  141.9743  159.9275 H   0  0  0  0  0  0  0  0  0  0  0  0
  1  2  1  0  0  0  0
  1 25  1  0  0  0  0
  1 26  1  0  0  0  0
  1 27  1  0  0  0  0
  2 23  1  0  0  0  0
  2  3  2  0  0  0  0
  3  4  1  0  0  0  0
  3 28  1  0  0  0  0
  4 21  2  0  0  0  0
  4  5  1  0  0  0  0
  5  6  2  0  0  0  0
  6  7  1  0  0  0  0
  6 29  1  0  0  0  0
  7  8  1  0  0  0  0
  7 21  1  0  0  0  0
  8  9  1  0  0  0  0
  8 30  1  0  0  0  0
  8 31  1  0  0  0  0
  9 10  1  0  0  0  0
  9 11  1  0  0  0  0
  9 32  1  0  0  0  0
 10 33  1  0  0  0  0
 11 12  1  0  0  0  0
 11 34  1  0  0  0  0
 11 35  1  0  0  0  0
 12 13  1  0  0  0  0
 13 20  1  0  0  0  0
 13 14  2  0  0  0  0
 14 15  1  0  0  0  0
 14 36  1  0  0  0  0
 15 16  1  0  0  0  0
 15 17  2  0  0  0  0
 16 37  1  0  0  0  0
 16 38  1  0  0  0  0
 16 39  1  0  0  0  0
 17 18  1  0  0  0  0
 17 19  1  0  0  0  0
 18 40  1  0  0  0  0
 18 41  1  0  0  0  0
 18 42  1  0  0  0  0
 19 20  2  0  0  0  0
 21 22  1  0  0  0  0
 22 23  2  0  0  0  0
 22 43  1  0  0  0  0
 23 24  1  0  0  0  0
 24 44  1  0  0  0  0
 24 45  1  0  0  0  0
 24 46  1  0  0  0  0
M  END
> <s_m_source_file>
AV-unprocessed.smi

> <i_m_source_file_index>
2658

> <i_lp_mmshare_version>
43012

> <i_f3d_flags>
0

> <s_epik_input>
W0NIM11jKFtjSF0xKWMoW0NIM10pW2NIXWMoYzEyKW4oW2NIXW4yKVtDSDJdW0NASF0oW09IXSlbQ0gyXU9jM1tjSF1jKFtDSDNdKWMoW0NIM10pbm4z

> <s_epik_cmdline>
J2VwaWtfcHl0aG9uJywgJy1waCcsICc3LjAnLCAnLXRuJywgJzgnLCAnLW1hJywgJzIwMCcsICctbWV0YWxfYmluZGluZycsICctaW1hZScsICc8aW5maWxlLm1hZT4nLCAnLW9tYWUnLCAnPG91dGZpbGUubWFlPic=

> <r_lp_tautomer_probability>
1

> <r_epik_Ionization_Penalty>
0.110663

> <r_epik_Ionization_Penalty_Charging>
0

> <r_epik_Ionization_Penalty_Neutral>
0.110663

> <r_epik_State_Penalty>
0.100267

> <r_epik_Charging_Adjusted_Penalty>
0.100267

> <i_epik_Tot_Q>
0

> <i_epik_Tot_abs_Q>
0

> <r_epik_Metal_State_Penalty>
0.0843924

> <b_epik_Metal_Only>
0

> <s_lp_Force_Field>
OPLS_2005

> <r_lp_Energy>
13.1317

> <b_lp_Chiralities_Consistent>
1

> <s_lp_Variant>
AV-unprocessed.smi:2658-2

> <Gold.Version>
5.8.1

> <Gold.Id.Protein>
6NUR|6NUR_protein|mol2

> <Gold.PLP.Fitness>
50.1988

> <Gold.PLP.PLP>
-42.7852

> <Gold.PLP.part.hbond>
-3.3651

> <Gold.PLP.part.metal>
0.0000

> <Gold.PLP.part.buried>
-6.5345

> <Gold.PLP.part.nonpolar>
-33.6773

> <Gold.PLP.part.repulsive>
0.5021

> <Gold.PLP.ligand.clash>
0.3367

> <Gold.PLP.ligand.torsion>
0.2302

> <Gold.PLP.Chemscore.Hbond>
2.6944

> <Gold.PLP.Chemscore.CHOScore>
0.0000

> <Gold.PLP.Chemscore.Metal>
0.0000

> <Gold.Chemscore.Hbonds>
donor molecule, donor type, donor heavy atom, donor atom, acceptor molecule, acceptor atom, score
      L1  H    10    33       P1  7949  0.93
      P1  H  7989  7998       L1     5  0.59
      P1  H 10752 10765       L1    10  0.90

> <Gold.PLP.Chemscore.Internal.Correction>
0.1274

> <Gold.Rescore>
     Score         DG    S(hbond)    S(metal)    S(lipo)     H(rot)  DE(clash)    DE(int)     intcor
     16.09     -17.37       2.11        0.00      93.99       2.40       0.14       1.14       ----

> <Gold.Chemscore.Fitness>
16.0946

> <Gold.Chemscore.DG>
-17.3730

> <Gold.Chemscore.ZeroCoef>
-5.4800

> <Gold.Chemscore.Hbond>
2.1066

> <Gold.Chemscore.Metal>
0.0000

> <Gold.Chemscore.Lipo>
93.9877

> <Gold.Chemscore.Internal_Hbond>
0.0000

> <Gold.Chemscore.DEClash>
0.1394

> <Gold.Chemscore.DEInternal>
1.1390

> <Gold.Chemscore.Rot>
2.3983

> <Gold.Chemscore.Internal.Correction>
   9.000000E+99

> <Gold.Chemscore.Hbonds>
donor molecule, donor type, donor heavy atom, donor atom, acceptor molecule, acceptor atom, score
      L1  H    10    33       P1  7949  0.23
      P1  H  7989  7998       L1     5  0.03
      P1  H 10752 10765       L1    10  0.17

> <Gold.Chemscore.Hbond.Weighted>
-7.0361

> <Gold.Chemscore.Metal.Weighted>
-0.0000

> <Gold.Chemscore.Lipo.Weighted>
-10.9966

> <Gold.Chemscore.Internal_Hbond.Weighted>
0.0000

> <Gold.Chemscore.DEClash.Weighted>
0.1394

> <Gold.Chemscore.DEInternal.Weighted>
1.1390

> <Gold.Chemscore.Rot.Weighted>
6.1397

> <Gold.Chemscore.Internal.Correction.Weighted>
   9.000000E+99

> <Gold.Protein.RotatedTorsions>
[ 6907 6896 6895 6894 ] final  129.05 input  -60.11 | X-H torsion
[ 7974 7965 7964 7962 ] final  -28.42 input  175.53 | X-H torsion
[ 8008 7997 7996 7995 ] final   98.14 input   59.86 | X-H torsion
[ 10167 10162 10161 10158 ] final   -2.38 input  -65.29 | X-H torsion
[ 10718 10713 10712 10709 ] final  -82.78 input   66.30 | X-H torsion
[ 10763 10752 10751 10750 ] final  168.14 input  -60.55 | X-H torsion
[ 11005 11000 10999 10996 ] final  160.31 input  -57.11 | X-H torsion

> <Gold.Protein.ActiveResidues>
 VAL166  LYS551  ARG553  GLY616  TRP617  ASP618  TYR619  PRO620  LYS621  CYS622 
 ASP623  PHE694  ASN695  SER759  ASP760  ASP761  ALA762  ILE779  LEU786  VAL792 
 PHE793  MET794  SER795  GLU796  ALA797  LYS798  CYS799  TRP800  GLU811  SER814 

> <Gold.Protein.RotatedAtoms>
  152.3661  133.6358  159.6051 H   0  0  0  0  0  0  0  0  0  0  0  0  # atno 6907 bound_to 6896
  150.7635  133.9346  159.3446 H   0  0  0  0  0  0  0  0  0  0  0  0  # atno 6908 bound_to 6896
  151.7176  135.0901  160.0330 H   0  0  0  0  0  0  0  0  0  0  0  0  # atno 6909 bound_to 6896
  146.1289  140.5281  142.8702 H   0  0  0  0  0  0  0  0  0  0  0  0  # atno 7974 bound_to 7965
  156.0974  140.3248  155.7896 H   0  0  0  0  0  0  0  0  0  0  0  0  # atno 8008 bound_to 7997
  155.4895  140.0560  157.2973 H   0  0  0  0  0  0  0  0  0  0  0  0  # atno 8009 bound_to 7997
  154.4675  140.1996  156.0096 H   0  0  0  0  0  0  0  0  0  0  0  0  # atno 8010 bound_to 7997
  140.6848  143.6664  150.8222 H   0  0  0  0  0  0  0  0  0  0  0  0  # atno 10167 bound_to 10162
  156.0028  130.4645  150.4157 H   0  0  0  0  0  0  0  0  0  0  0  0  # atno 10718 bound_to 10713
  154.3642  135.2753  155.2303 H   0  0  0  0  0  0  0  0  0  0  0  0  # atno 10763 bound_to 10752
  154.4478  135.5938  153.6175 H   0  0  0  0  0  0  0  0  0  0  0  0  # atno 10764 bound_to 10752
  152.9842  135.6034  154.3866 H   0  0  0  0  0  0  0  0  0  0  0  0  # atno 10765 bound_to 10752
  140.2047  134.8312  157.3056 H   0  0  0  0  0  0  0  0  0  0  0  0  # atno 11005 bound_to 11000
  144.7670  140.5553  143.6696 LP  0  0  0  0  0  0  0  0  0  0  0  0  # atno 17320 bound_to 7965
  145.5304  139.1475  143.3502 LP  0  0  0  0  0  0  0  0  0  0  0  0  # atno 17321 bound_to 7965
  140.0369  143.5385  152.2735 LP  0  0  0  0  0  0  0  0  0  0  0  0  # atno 17342 bound_to 10162
  139.6199  144.7627  151.2764 LP  0  0  0  0  0  0  0  0  0  0  0  0  # atno 17343 bound_to 10162
  157.2217  131.0484  151.2543 LP  0  0  0  0  0  0  0  0  0  0  0  0  # atno 17370 bound_to 10713
  157.3794  130.7223  149.6620 LP  0  0  0  0  0  0  0  0  0  0  0  0  # atno 17371 bound_to 10713
  140.2016  134.4247  155.7659 LP  0  0  0  0  0  0  0  0  0  0  0  0  # atno 17394 bound_to 11000
  141.2227  133.7075  156.8193 LP  0  0  0  0  0  0  0  0  0  0  0  0  # atno 17395 bound_to 11000

$$$$
