AV-unprocessed.smi:118|AV-procd|sdf|1131|dock10
  -GOLD-   2262018263D 1   1.00000     0.00000
 Structure written by MMmdl.
 41 44  0  0  0  0  0  0  0  0  1 V2000
  148.0304  130.6556  160.6477 O   0  0  0  0  0  0  0  0  0  0  0  0
  148.3712  131.2679  159.6347 C   0  0  0  0  0  0  0  0  0  0  0  0
  148.8765  130.5108  158.3960 C   0  0  0  0  0  0  0  0  0  0  0  0
  148.7639  131.2847  157.1398 N   0  0  0  0  0  0  0  0  0  0  0  0
  149.7542  132.2556  156.8484 C   0  0  0  0  0  0  0  0  0  0  0  0
  150.6829  132.4751  157.6274 O   0  0  0  0  0  0  0  0  0  0  0  0
  149.5990  132.9504  155.5756 C   0  0  0  0  0  0  0  0  0  0  0  0
  150.5005  133.8768  155.2082 F   0  0  0  0  0  0  0  0  0  0  0  0
  148.5647  132.6739  154.7553 C   0  0  0  0  0  0  0  0  0  0  0  0
  147.5935  131.7408  155.0606 N   0  0  0  0  0  0  0  0  0  0  0  0
  146.4996  131.4585  154.0567 C   0  0  2  0  0  0  0  0  0  0  0  0
  146.5297  130.0235  153.4971 C   0  0  0  0  0  0  0  0  0  0  0  0
  146.6726  130.2449  152.0002 C   0  0  0  0  0  0  0  0  0  0  0  0
  146.1739  131.6743  151.8192 C   0  0  0  0  0  0  0  0  0  0  0  0
  146.6452  132.3357  152.9827 O   0  0  0  0  0  0  0  0  0  0  0  0
  147.6933  130.9969  156.2592 C   0  0  0  0  0  0  0  0  0  0  0  0
  146.8764  130.1149  156.5294 O   0  0  0  0  0  0  0  0  0  0  0  0
  148.3648  132.6077  159.5187 N   0  0  0  0  0  0  0  0  0  0  0  0
  147.9566  133.5778  160.4755 C   0  0  0  0  0  0  0  0  0  0  0  0
  147.1642  133.2687  161.6111 C   0  0  0  0  0  0  0  0  0  0  0  0
  146.7727  134.2793  162.5176 C   0  0  0  0  0  0  0  0  0  0  0  0
  147.1524  135.6204  162.3079 C   0  0  0  0  0  0  0  0  0  0  0  0
  147.9230  135.9349  161.1742 C   0  0  0  0  0  0  0  0  0  0  0  0
  148.3170  134.9269  160.2637 C   0  0  0  0  0  0  0  0  0  0  0  0
  149.0721  135.4102  159.1962 N   0  0  0  0  0  0  0  0  0  0  0  0
  149.1194  136.8985  159.5426 S   0  0  0  0  0  0  0  0  0  0  0  0
  148.3633  137.2098  160.8341 N   0  0  0  0  0  0  0  0  0  0  0  0
  149.9101  130.2079  158.5713 H   0  0  0  0  0  0  0  0  0  0  0  0
  148.3346  129.5664  158.3256 H   0  0  0  0  0  0  0  0  0  0  0  0
  148.5001  133.2124  153.8211 H   0  0  0  0  0  0  0  0  0  0  0  0
  145.5595  131.6709  154.5677 H   0  0  0  0  0  0  0  0  0  0  0  0
  147.3377  129.4250  153.9189 H   0  0  0  0  0  0  0  0  0  0  0  0
  145.5818  129.5392  153.7335 H   0  0  0  0  0  0  0  0  0  0  0  0
  147.7209  130.1775  151.7084 H   0  0  0  0  0  0  0  0  0  0  0  0
  146.1114  129.5220  151.4077 H   0  0  0  0  0  0  0  0  0  0  0  0
  146.5521  132.1414  150.9097 H   0  0  0  0  0  0  0  0  0  0  0  0
  145.0834  131.7068  151.7972 H   0  0  0  0  0  0  0  0  0  0  0  0
  148.7671  132.9798  158.6707 H   0  0  0  0  0  0  0  0  0  0  0  0
  146.8311  132.2601  161.8009 H   0  0  0  0  0  0  0  0  0  0  0  0
  146.1721  134.0216  163.3774 H   0  0  0  0  0  0  0  0  0  0  0  0
  146.8512  136.3914  163.0018 H   0  0  0  0  0  0  0  0  0  0  0  0
  1  2  2  0  0  0  0
  2  3  1  0  0  0  0
  2 18  1  0  0  0  0
  3  4  1  0  0  0  0
  3 28  1  0  0  0  0
  3 29  1  0  0  0  0
  4 16  1  0  0  0  0
  4  5  1  0  0  0  0
  5  6  2  0  0  0  0
  5  7  1  0  0  0  0
  7  8  1  0  0  0  0
  7  9  2  0  0  0  0
  9 10  1  0  0  0  0
  9 30  1  0  0  0  0
 10 11  1  0  0  0  0
 10 16  1  0  0  0  0
 11 15  1  0  0  0  0
 11 12  1  0  0  0  0
 11 31  1  0  0  0  0
 12 13  1  0  0  0  0
 12 32  1  0  0  0  0
 12 33  1  0  0  0  0
 13 14  1  0  0  0  0
 13 34  1  0  0  0  0
 13 35  1  0  0  0  0
 14 15  1  0  0  0  0
 14 36  1  0  0  0  0
 14 37  1  0  0  0  0
 16 17  2  0  0  0  0
 18 19  1  0  0  0  0
 18 38  1  0  0  0  0
 19 24  1  0  0  0  0
 19 20  2  0  0  0  0
 20 21  1  0  0  0  0
 20 39  1  0  0  0  0
 21 22  2  0  0  0  0
 21 40  1  0  0  0  0
 22 23  1  0  0  0  0
 22 41  1  0  0  0  0
 23 27  1  0  0  0  0
 23 24  2  0  0  0  0
 24 25  1  0  0  0  0
 25 26  2  0  0  0  0
 26 27  2  0  0  0  0
M  END
> <s_m_source_file>
AV-unprocessed.smi

> <i_m_source_file_index>
118

> <i_lp_mmshare_version>
43012

> <i_f3d_flags>
0

> <s_epik_input>
TjE9Uz1OYyhjMTIpYyhbY0hdW2NIXVtjSF0yKVtOSF1DKD1PKVtDSDJdbjNjKD1PKWMoRilbY0hdbihjMz1PKVtDQEBIXTRbQ0gyXVtDSDJdW0NIMl1PNA==

> <s_epik_cmdline>
J2VwaWtfcHl0aG9uJywgJy1waCcsICc3LjAnLCAnLXRuJywgJzgnLCAnLW1hJywgJzIwMCcsICctbWV0YWxfYmluZGluZycsICctaW1hZScsICc8aW5maWxlLm1hZT4nLCAnLW9tYWUnLCAnPG91dGZpbGUubWFlPic=

> <r_lp_tautomer_probability>
1

> <r_epik_Ionization_Penalty>
1.81156e-06

> <r_epik_Ionization_Penalty_Charging>
3.88729e-08

> <r_epik_Ionization_Penalty_Neutral>
1.77269e-06

> <r_epik_State_Penalty>
-0

> <r_epik_Charging_Adjusted_Penalty>
3.88729e-08

> <i_epik_Tot_Q>
0

> <i_epik_Tot_abs_Q>
0

> <r_epik_Metal_State_Penalty>
-0

> <b_epik_Metal_Only>
0

> <s_epik_Chemistry_Notes>
This compound contains an acetal/aminal-like group ( X-CH(R)-Y where X, Y are N, S, or O) that may be acid/base labile, releasing an aldehyde.

> <s_lp_Force_Field>
OPLS_2005

> <r_lp_Energy>
47.7675

> <b_lp_Chiralities_Consistent>
1

> <s_lp_Variant>
AV-unprocessed.smi:118-1

> <Gold.Version>
5.8.1

> <Gold.Id.Protein>
6NUR|6NUR_protein|mol2

> <Gold.PLP.Fitness>
43.6828

> <Gold.PLP.PLP>
-34.5947

> <Gold.PLP.part.hbond>
-4.0000

> <Gold.PLP.part.metal>
0.0000

> <Gold.PLP.part.buried>
-2.5551

> <Gold.PLP.part.nonpolar>
-27.4386

> <Gold.PLP.part.repulsive>
0.2610

> <Gold.PLP.ligand.clash>
0.0000

> <Gold.PLP.ligand.torsion>
0.6671

> <Gold.PLP.Chemscore.Hbond>
3.4646

> <Gold.PLP.Chemscore.CHOScore>
0.0000

> <Gold.PLP.Chemscore.Metal>
0.0000

> <Gold.Chemscore.Hbonds>
donor molecule, donor type, donor heavy atom, donor atom, acceptor molecule, acceptor atom, score
      P1  H  6896  6908       L1     6  0.99
      P1  H  6896  6909       L1    25  1.00
      P1  H  6931  6943       L1    27  0.88
      P1  H  6934  6947       L1    27  0.39

> <Gold.PLP.Chemscore.Internal.Correction>
0.0286

> <Gold.Rescore>
     Score         DG    S(hbond)    S(metal)    S(lipo)     H(rot)  DE(clash)    DE(int)     intcor
     14.53     -17.49       2.34        0.00      75.21       1.80       0.09       2.87       ----

> <Gold.Chemscore.Fitness>
14.5250

> <Gold.Chemscore.DG>
-17.4855

> <Gold.Chemscore.ZeroCoef>
-5.4800

> <Gold.Chemscore.Hbond>
2.3378

> <Gold.Chemscore.Metal>
0.0000

> <Gold.Chemscore.Lipo>
75.2083

> <Gold.Chemscore.Internal_Hbond>
0.0000

> <Gold.Chemscore.DEClash>
0.0899

> <Gold.Chemscore.DEInternal>
2.8705

> <Gold.Chemscore.Rot>
1.7977

> <Gold.Chemscore.Internal.Correction>
   9.000000E+99

> <Gold.Chemscore.Hbonds>
donor molecule, donor type, donor heavy atom, donor atom, acceptor molecule, acceptor atom, score
      P1  H  6896  6908       L1     6  0.92
      P1  H  6896  6909       L1    25  0.12
      P1  H  6931  6943       L1    27  0.82
      P1  H  6934  6947       L1    27  0.38

> <Gold.Chemscore.Hbond.Weighted>
-7.8084

> <Gold.Chemscore.Metal.Weighted>
-0.0000

> <Gold.Chemscore.Lipo.Weighted>
-8.7994

> <Gold.Chemscore.Internal_Hbond.Weighted>
0.0000

> <Gold.Chemscore.DEClash.Weighted>
0.0899

> <Gold.Chemscore.DEInternal.Weighted>
2.8705

> <Gold.Chemscore.Rot.Weighted>
4.6022

> <Gold.Chemscore.Internal.Correction.Weighted>
   9.000000E+99

> <Gold.Protein.RotatedTorsions>
[ 6907 6896 6895 6894 ] final   68.35 input  -60.11 | X-H torsion
[ 7974 7965 7964 7962 ] final  150.25 input  175.53 | X-H torsion
[ 8008 7997 7996 7995 ] final   76.23 input   59.86 | X-H torsion
[ 10167 10162 10161 10158 ] final -164.26 input  -65.29 | X-H torsion
[ 10718 10713 10712 10709 ] final   42.29 input   66.30 | X-H torsion
[ 10763 10752 10751 10750 ] final    8.53 input  -60.55 | X-H torsion
[ 11005 11000 10999 10996 ] final  -49.05 input  -57.11 | X-H torsion

> <Gold.Protein.ActiveResidues>
 VAL166  LYS551  ARG553  GLY616  TRP617  ASP618  TYR619  PRO620  LYS621  CYS622 
 ASP623  PHE694  ASN695  SER759  ASP760  ASP761  ALA762  ILE779  LEU786  VAL792 
 PHE793  MET794  SER795  GLU796  ALA797  LYS798  CYS799  TRP800  GLU811  SER814 

> <Gold.Protein.RotatedAtoms>
  152.4614  134.5175  159.9772 H   0  0  0  0  0  0  0  0  0  0  0  0  # atno 6907 bound_to 6896
  151.5223  133.3458  159.2911 H   0  0  0  0  0  0  0  0  0  0  0  0  # atno 6908 bound_to 6896
  150.8579  134.7952  159.7122 H   0  0  0  0  0  0  0  0  0  0  0  0  # atno 6909 bound_to 6896
  144.8378  139.6384  143.6030 H   0  0  0  0  0  0  0  0  0  0  0  0  # atno 7974 bound_to 7965
  155.8244  140.3468  155.5534 H   0  0  0  0  0  0  0  0  0  0  0  0  # atno 8008 bound_to 7997
  155.8308  140.0927  157.1813 H   0  0  0  0  0  0  0  0  0  0  0  0  # atno 8009 bound_to 7997
  154.4004  140.1412  156.3599 H   0  0  0  0  0  0  0  0  0  0  0  0  # atno 8010 bound_to 7997
  139.6263  144.0526  152.1977 H   0  0  0  0  0  0  0  0  0  0  0  0  # atno 10167 bound_to 10162
  157.4031  130.7871  149.7366 H   0  0  0  0  0  0  0  0  0  0  0  0  # atno 10718 bound_to 10713
  153.2241  135.6884  153.7966 H   0  0  0  0  0  0  0  0  0  0  0  0  # atno 10763 bound_to 10752
  153.7154  135.3275  155.3256 H   0  0  0  0  0  0  0  0  0  0  0  0  # atno 10764 bound_to 10752
  154.8283  135.4600  154.1100 H   0  0  0  0  0  0  0  0  0  0  0  0  # atno 10765 bound_to 10752
  141.0736  133.6672  156.3529 H   0  0  0  0  0  0  0  0  0  0  0  0  # atno 11005 bound_to 11000
  146.2675  139.6554  142.9319 LP  0  0  0  0  0  0  0  0  0  0  0  0  # atno 17320 bound_to 7965
  145.4757  141.0437  143.2673 LP  0  0  0  0  0  0  0  0  0  0  0  0  # atno 17321 bound_to 7965
  140.0181  144.6174  150.7590 LP  0  0  0  0  0  0  0  0  0  0  0  0  # atno 17342 bound_to 10162
  140.7413  143.2816  151.3583 LP  0  0  0  0  0  0  0  0  0  0  0  0  # atno 17343 bound_to 10162
  155.9829  130.4005  150.3392 LP  0  0  0  0  0  0  0  0  0  0  0  0  # atno 17370 bound_to 10713
  157.1522  131.0324  151.2879 LP  0  0  0  0  0  0  0  0  0  0  0  0  # atno 17371 bound_to 10713
  140.5620  134.5925  157.5436 LP  0  0  0  0  0  0  0  0  0  0  0  0  # atno 17394 bound_to 11000
  139.9549  134.7552  156.0364 LP  0  0  0  0  0  0  0  0  0  0  0  0  # atno 17395 bound_to 11000

$$$$
