AV-unprocessed.smi:557|AV-procd|sdf|2917|dock3
  -GOLD-   2262023413D 1   1.00000     0.00000
 Structure written by MMmdl.
 47 49  0  0  0  0  0  0  0  0  2 V2000
  152.0615  138.2930  154.5936 C   0  0  0  0  0  0  0  0  0  0  0  0
  150.7835  138.9699  154.5457 N   0  0  0  0  0  0  0  0  0  0  0  0
  149.5404  138.4429  154.2697 C   0  0  0  0  0  0  0  0  0  0  0  0
  148.6367  139.4653  154.3418 C   0  0  0  0  0  0  0  0  0  0  0  0
  147.1491  139.4218  154.1314 C   0  0  0  0  0  0  0  0  0  0  0  0
  146.7984  139.1453  152.6636 C   0  0  0  0  0  0  0  0  0  0  0  0
  146.9099  137.7198  152.3670 N   0  0  0  0  0  0  0  0  0  0  0  0
  145.9066  136.8334  152.2530 C   0  0  0  0  0  0  0  0  0  0  0  0
  144.7305  137.1588  152.4006 O   0  0  0  0  0  0  0  0  0  0  0  0
  146.2996  135.5793  151.9728 N   0  0  0  0  0  0  0  0  0  0  0  0
  145.4116  134.4332  151.8056 C   0  0  1  0  0  0  0  0  0  0  0  0
  144.5454  134.5265  150.5550 C   0  0  0  0  0  0  0  0  0  0  0  0
  144.1241  133.0715  150.3455 C   0  0  0  0  0  0  0  0  0  0  0  0
  145.2721  132.2498  150.7914 N   0  3  2  0  0  0  0  0  0  0  0  0
  144.9017  130.9521  151.4069 C   0  0  0  0  0  0  0  0  0  0  0  0
  146.1614  130.1744  151.8284 C   0  0  0  0  0  0  0  0  0  0  0  0
  147.1262  131.0123  152.6931 C   0  0  0  0  0  0  0  0  0  0  0  0
  146.6182  132.4445  152.9245 C   0  0  0  0  0  0  0  0  0  0  0  0
  146.1768  133.1136  151.6030 C   0  0  2  0  0  0  0  0  0  0  0  0
  149.4409  140.5943  154.6684 C   0  0  0  0  0  0  0  0  0  0  0  0
  150.7235  140.2948  154.7911 N   0  0  0  0  0  0  0  0  0  0  0  0
  151.9200  137.2177  154.4807 H   0  0  0  0  0  0  0  0  0  0  0  0
  152.5484  138.4872  155.5499 H   0  0  0  0  0  0  0  0  0  0  0  0
  152.6991  138.6540  153.7863 H   0  0  0  0  0  0  0  0  0  0  0  0
  149.4019  137.3946  154.0489 H   0  0  0  0  0  0  0  0  0  0  0  0
  146.6983  138.6535  154.7606 H   0  0  0  0  0  0  0  0  0  0  0  0
  146.6939  140.3633  154.4409 H   0  0  0  0  0  0  0  0  0  0  0  0
  145.7808  139.4802  152.4552 H   0  0  0  0  0  0  0  0  0  0  0  0
  147.4685  139.7077  152.0110 H   0  0  0  0  0  0  0  0  0  0  0  0
  147.8472  137.3653  152.2404 H   0  0  0  0  0  0  0  0  0  0  0  0
  147.2894  135.4095  151.8665 H   0  0  0  0  0  0  0  0  0  0  0  0
  144.7441  134.3455  152.6655 H   0  0  0  0  0  0  0  0  0  0  0  0
  143.6961  135.1999  150.6736 H   0  0  0  0  0  0  0  0  0  0  0  0
  145.1359  134.8700  149.7041 H   0  0  0  0  0  0  0  0  0  0  0  0
  143.2514  132.8583  150.9652 H   0  0  0  0  0  0  0  0  0  0  0  0
  143.8582  132.8573  149.3102 H   0  0  0  0  0  0  0  0  0  0  0  0
  144.2580  131.1220  152.2717 H   0  0  0  0  0  0  0  0  0  0  0  0
  144.3217  130.3651  150.6939 H   0  0  0  0  0  0  0  0  0  0  0  0
  145.8701  129.2708  152.3648 H   0  0  0  0  0  0  0  0  0  0  0  0
  146.6877  129.8353  150.9353 H   0  0  0  0  0  0  0  0  0  0  0  0
  147.2907  130.5224  153.6533 H   0  0  0  0  0  0  0  0  0  0  0  0
  148.1003  131.0519  152.2043 H   0  0  0  0  0  0  0  0  0  0  0  0
  145.7837  132.4193  153.6266 H   0  0  0  0  0  0  0  0  0  0  0  0
  147.3963  133.0374  153.4054 H   0  0  0  0  0  0  0  0  0  0  0  0
  147.0569  133.2943  150.9836 H   0  0  0  0  0  0  0  0  0  0  0  0
  149.1311  141.6175  154.8212 H   0  0  0  0  0  0  0  0  0  0  0  0
  145.7991  132.0240  149.9599 H   0  0  0  0  0  0  0  0  0  0  0  0
  1  2  1  0  0  0  0
  1 22  1  0  0  0  0
  1 23  1  0  0  0  0
  1 24  1  0  0  0  0
  2 21  1  0  0  0  0
  2  3  1  0  0  0  0
  3  4  2  0  0  0  0
  3 25  1  0  0  0  0
  4  5  1  0  0  0  0
  4 20  1  0  0  0  0
  5  6  1  0  0  0  0
  5 26  1  0  0  0  0
  5 27  1  0  0  0  0
  6  7  1  0  0  0  0
  6 28  1  0  0  0  0
  6 29  1  0  0  0  0
  7  8  1  0  0  0  0
  7 30  1  0  0  0  0
  8  9  2  0  0  0  0
  8 10  1  0  0  0  0
 10 11  1  0  0  0  0
 10 31  1  0  0  0  0
 11 19  1  0  0  0  0
 11 12  1  0  0  0  0
 11 32  1  0  0  0  0
 12 13  1  0  0  0  0
 12 33  1  0  0  0  0
 12 34  1  0  0  0  0
 13 14  1  0  0  0  0
 13 35  1  0  0  0  0
 13 36  1  0  0  0  0
 14 19  1  0  0  0  0
 14 15  1  0  0  0  0
 14 47  1  0  0  0  0
 15 16  1  0  0  0  0
 15 37  1  0  0  0  0
 15 38  1  0  0  0  0
 16 17  1  0  0  0  0
 16 39  1  0  0  0  0
 16 40  1  0  0  0  0
 17 18  1  0  0  0  0
 17 41  1  0  0  0  0
 17 42  1  0  0  0  0
 18 19  1  0  0  0  0
 18 43  1  0  0  0  0
 18 44  1  0  0  0  0
 19 45  1  0  0  0  0
 20 21  2  0  0  0  0
 20 46  1  0  0  0  0
M  CHG  1  14   1
M  END
> <s_m_source_file>
AV-unprocessed.smi

> <i_m_source_file_index>
557

> <i_lp_mmshare_version>
43012

> <i_f3d_flags>
0

> <s_epik_input>
W0NIM11uMVtjSF1jKFtjSF1uMSlbQ0gyXVtDSDJdW05IXUMoPU8pW05IXVtDQEhdKFtDSDJdW0NIMl0yKVtDQEhdKE4yMylbQ0gyXVtDSDJdW0NIMl1bQ0gyXTM=

> <s_epik_cmdline>
J2VwaWtfcHl0aG9uJywgJy1waCcsICc3LjAnLCAnLXRuJywgJzgnLCAnLW1hJywgJzIwMCcsICctbWV0YWxfYmluZGluZycsICctaW1hZScsICc8aW5maWxlLm1hZT4nLCAnLW9tYWUnLCAnPG91dGZpbGUubWFlPic=

> <r_lp_tautomer_probability>
1

> <r_epik_Ionization_Penalty>
0.000956547

> <r_epik_Ionization_Penalty_Charging>
0.000435796

> <r_epik_Ionization_Penalty_Neutral>
0.000520752

> <r_epik_State_Penalty>
-0

> <r_epik_Charging_Adjusted_Penalty>
0.000435796

> <i_epik_Tot_Q>
1

> <i_epik_Tot_abs_Q>
1

> <r_epik_Metal_State_Penalty>
-0

> <b_epik_Metal_Only>
0

> <s_lp_Force_Field>
OPLS_2005

> <r_lp_Energy>
44.9241

> <b_lp_Chiralities_Consistent>
1

> <s_lp_Variant>
AV-unprocessed.smi:557-4

> <Gold.Version>
5.8.1

> <Gold.Id.Protein>
6NUR|6NUR_protein|mol2

> <Gold.PLP.Fitness>
50.8137

> <Gold.PLP.PLP>
-39.7749

> <Gold.PLP.part.hbond>
-3.0000

> <Gold.PLP.part.metal>
0.0000

> <Gold.PLP.part.buried>
-4.1304

> <Gold.PLP.part.nonpolar>
-33.7188

> <Gold.PLP.part.repulsive>
1.5133

> <Gold.PLP.ligand.clash>
0.0000

> <Gold.PLP.ligand.torsion>
0.3320

> <Gold.PLP.Chemscore.Hbond>
2.8960

> <Gold.PLP.Chemscore.CHOScore>
1.0000

> <Gold.PLP.Chemscore.Metal>
0.0000

> <Gold.Chemscore.Hbonds>
donor molecule, donor type, donor heavy atom, donor atom, acceptor molecule, acceptor atom, score
      L1  H     7    30       P1  7948  1.00
      L1  H    10    31       P1  7948  0.90
      P1  H  7989  7998       L1    21  1.00
      L1  C     3    25       P1  7948  1.00

> <Gold.PLP.Chemscore.Internal.Correction>
0.0147

> <Gold.Rescore>
     Score         DG    S(hbond)    S(metal)    S(lipo)     H(rot)  DE(clash)    DE(int)     intcor
     19.59     -21.57       2.52        0.00     100.48       1.60       1.63       0.35       ----

> <Gold.Chemscore.Fitness>
19.5853

> <Gold.Chemscore.DG>
-21.5674

> <Gold.Chemscore.ZeroCoef>
-5.4800

> <Gold.Chemscore.Hbond>
2.5246

> <Gold.Chemscore.Metal>
0.0000

> <Gold.Chemscore.Lipo>
100.4764

> <Gold.Chemscore.Internal_Hbond>
0.0000

> <Gold.Chemscore.DEClash>
1.6289

> <Gold.Chemscore.DEInternal>
0.3532

> <Gold.Chemscore.Rot>
1.6018

> <Gold.Chemscore.Internal.Correction>
   9.000000E+99

> <Gold.Chemscore.Hbonds>
donor molecule, donor type, donor heavy atom, donor atom, acceptor molecule, acceptor atom, score
      L1  H     7    30       P1  7948  0.97
      L1  H    10    31       P1  7948  0.88
      P1  H  7989  7998       L1    21  0.21

> <Gold.Chemscore.Hbond.Weighted>
-8.4322

> <Gold.Chemscore.Metal.Weighted>
-0.0000

> <Gold.Chemscore.Lipo.Weighted>
-11.7557

> <Gold.Chemscore.Internal_Hbond.Weighted>
0.0000

> <Gold.Chemscore.DEClash.Weighted>
1.6289

> <Gold.Chemscore.DEInternal.Weighted>
0.3532

> <Gold.Chemscore.Rot.Weighted>
4.1006

> <Gold.Chemscore.Internal.Correction.Weighted>
   9.000000E+99

> <Gold.Protein.RotatedTorsions>
[ 6907 6896 6895 6894 ] final  -19.03 input  -60.11 | X-H torsion
[ 7974 7965 7964 7962 ] final    1.66 input  175.53 | X-H torsion
[ 8008 7997 7996 7995 ] final   81.65 input   59.86 | X-H torsion
[ 10167 10162 10161 10158 ] final  101.32 input  -65.29 | X-H torsion
[ 10718 10713 10712 10709 ] final   97.22 input   66.30 | X-H torsion
[ 10763 10752 10751 10750 ] final   15.75 input  -60.55 | X-H torsion
[ 11005 11000 10999 10996 ] final    4.20 input  -57.11 | X-H torsion

> <Gold.Protein.ActiveResidues>
 VAL166  LYS551  ARG553  GLY616  TRP617  ASP618  TYR619  PRO620  LYS621  CYS622 
 ASP623  PHE694  ASN695  SER759  ASP760  ASP761  ALA762  ILE779  LEU786  VAL792 
 PHE793  MET794  SER795  GLU796  ALA797  LYS798  CYS799  TRP800  GLU811  SER814 

> <Gold.Protein.RotatedAtoms>
  151.2693  135.0679  159.9127 H   0  0  0  0  0  0  0  0  0  0  0  0  # atno 6907 bound_to 6896
  152.5353  134.0148  159.7965 H   0  0  0  0  0  0  0  0  0  0  0  0  # atno 6908 bound_to 6896
  151.0383  133.5678  159.2684 H   0  0  0  0  0  0  0  0  0  0  0  0  # atno 6909 bound_to 6896
  146.2441  140.0953  142.8350 H   0  0  0  0  0  0  0  0  0  0  0  0  # atno 7974 bound_to 7965
  155.9001  140.3434  155.6020 H   0  0  0  0  0  0  0  0  0  0  0  0  # atno 8008 bound_to 7997
  155.7510  140.0820  157.2220 H   0  0  0  0  0  0  0  0  0  0  0  0  # atno 8009 bound_to 7997
  154.4042  140.1553  156.2711 H   0  0  0  0  0  0  0  0  0  0  0  0  # atno 8010 bound_to 7997
  139.7448  144.7001  151.0521 H   0  0  0  0  0  0  0  0  0  0  0  0  # atno 10167 bound_to 10162
  157.6916  131.0602  150.4610 H   0  0  0  0  0  0  0  0  0  0  0  0  # atno 10718 bound_to 10713
  153.1495  135.6776  153.8903 H   0  0  0  0  0  0  0  0  0  0  0  0  # atno 10763 bound_to 10752
  153.8334  135.3114  155.3422 H   0  0  0  0  0  0  0  0  0  0  0  0  # atno 10764 bound_to 10752
  154.7851  135.4866  154.0015 H   0  0  0  0  0  0  0  0  0  0  0  0  # atno 10765 bound_to 10752
  140.5845  133.9981  155.8062 H   0  0  0  0  0  0  0  0  0  0  0  0  # atno 11005 bound_to 11000
  145.0615  140.9091  143.4936 LP  0  0  0  0  0  0  0  0  0  0  0  0  # atno 17320 bound_to 7965
  145.1070  139.2783  143.5657 LP  0  0  0  0  0  0  0  0  0  0  0  0  # atno 17321 bound_to 7965
  140.7790  143.4880  150.9930 LP  0  0  0  0  0  0  0  0  0  0  0  0  # atno 17342 bound_to 10162
  139.8568  143.7366  152.3175 LP  0  0  0  0  0  0  0  0  0  0  0  0  # atno 17343 bound_to 10162
  156.4954  130.4105  149.6383 LP  0  0  0  0  0  0  0  0  0  0  0  0  # atno 17370 bound_to 10713
  156.3377  130.7365  151.2306 LP  0  0  0  0  0  0  0  0  0  0  0  0  # atno 17371 bound_to 10713
  141.0974  133.9821  157.3136 LP  0  0  0  0  0  0  0  0  0  0  0  0  # atno 17394 bound_to 11000
  139.9302  135.0200  156.8373 LP  0  0  0  0  0  0  0  0  0  0  0  0  # atno 17395 bound_to 11000

$$$$
