AV-unprocessed.smi:1739|AV-procd|sdf|7005|dock10
  -GOLD-   22720 8213D 1   1.00000     0.00000
 Structure written by MMmdl.
 41 42  0  0  0  0  0  0  0  0  1 V2000
  143.8843  132.5985  148.6483 C   0  0  0  0  0  0  0  0  0  0  0  0
  143.8555  132.2871  150.1499 C   0  0  0  0  0  0  0  0  0  0  0  0
  144.2523  133.4304  150.9495 N   0  0  0  0  0  0  0  0  0  0  0  0
  145.3856  134.2093  150.8219 C   0  0  0  0  0  0  0  0  0  0  0  0
  145.2948  135.1576  151.8014 C   0  0  0  0  0  0  0  0  0  0  0  0
  146.1927  136.2064  152.1247 N   0  0  0  0  0  0  0  0  0  0  0  0
  145.8948  137.3915  152.6823 C   0  0  0  0  0  0  0  0  0  0  0  0
  144.7700  137.7426  153.0392 O   0  0  0  0  0  0  0  0  0  0  0  0
  146.9874  138.1580  152.8108 N   0  0  0  0  0  0  0  0  0  0  0  0
  147.0106  139.5027  153.3788 C   0  0  0  0  0  0  0  0  0  0  0  0
  148.4578  140.0402  153.3857 C   0  0  0  0  0  0  0  0  0  0  0  0
  148.5535  141.3755  154.1458 C   0  0  0  0  0  0  0  0  0  0  0  0
  148.0322  141.1839  155.5043 N   0  0  0  0  0  0  0  0  0  0  0  0
  148.8291  141.1771  156.6000 C   0  0  0  0  0  0  0  0  0  0  0  0
  150.3232  141.4675  156.4410 C   0  0  0  0  0  0  0  0  0  0  0  0
  148.4017  140.9502  157.7321 O   0  0  0  0  0  0  0  0  0  0  0  0
  146.5998  140.8624  155.4925 C   0  0  0  0  0  0  0  0  0  0  0  0
  146.4016  139.5023  154.7998 C   0  0  0  0  0  0  0  0  0  0  0  0
  144.0799  134.8926  152.4852 C   0  0  0  0  0  0  0  0  0  0  0  0
  143.4536  133.8491  151.9627 N   0  0  0  0  0  0  0  0  0  0  0  0
  143.5639  131.7333  148.0677 H   0  0  0  0  0  0  0  0  0  0  0  0
  144.8887  132.8653  148.3177 H   0  0  0  0  0  0  0  0  0  0  0  0
  143.2191  133.4275  148.4056 H   0  0  0  0  0  0  0  0  0  0  0  0
  142.8518  131.9835  150.4496 H   0  0  0  0  0  0  0  0  0  0  0  0
  144.5205  131.4533  150.3779 H   0  0  0  0  0  0  0  0  0  0  0  0
  146.1316  134.0172  150.0651 H   0  0  0  0  0  0  0  0  0  0  0  0
  147.1625  136.0399  151.8994 H   0  0  0  0  0  0  0  0  0  0  0  0
  147.8697  137.7854  152.4915 H   0  0  0  0  0  0  0  0  0  0  0  0
  146.4167  140.1698  152.7509 H   0  0  0  0  0  0  0  0  0  0  0  0
  149.1215  139.3140  153.8581 H   0  0  0  0  0  0  0  0  0  0  0  0
  148.8155  140.1675  152.3633 H   0  0  0  0  0  0  0  0  0  0  0  0
  149.5826  141.7369  154.1341 H   0  0  0  0  0  0  0  0  0  0  0  0
  147.9657  142.1406  153.6368 H   0  0  0  0  0  0  0  0  0  0  0  0
  150.4817  142.4495  155.9939 H   0  0  0  0  0  0  0  0  0  0  0  0
  150.7998  140.7110  155.8169 H   0  0  0  0  0  0  0  0  0  0  0  0
  150.8209  141.4595  157.4112 H   0  0  0  0  0  0  0  0  0  0  0  0
  146.1476  140.8437  156.4829 H   0  0  0  0  0  0  0  0  0  0  0  0
  146.0636  141.6386  154.9445 H   0  0  0  0  0  0  0  0  0  0  0  0
  145.3389  139.2614  154.7537 H   0  0  0  0  0  0  0  0  0  0  0  0
  146.8693  138.7229  155.4037 H   0  0  0  0  0  0  0  0  0  0  0  0
  143.6399  135.4110  153.3244 H   0  0  0  0  0  0  0  0  0  0  0  0
  1  2  1  0  0  0  0
  1 21  1  0  0  0  0
  1 22  1  0  0  0  0
  1 23  1  0  0  0  0
  2  3  1  0  0  0  0
  2 24  1  0  0  0  0
  2 25  1  0  0  0  0
  3 20  1  0  0  0  0
  3  4  1  0  0  0  0
  4  5  2  0  0  0  0
  4 26  1  0  0  0  0
  5  6  1  0  0  0  0
  5 19  1  0  0  0  0
  6  7  1  0  0  0  0
  6 27  1  0  0  0  0
  7  8  2  0  0  0  0
  7  9  1  0  0  0  0
  9 10  1  0  0  0  0
  9 28  1  0  0  0  0
 10 18  1  0  0  0  0
 10 11  1  0  0  0  0
 10 29  1  0  0  0  0
 11 12  1  0  0  0  0
 11 30  1  0  0  0  0
 11 31  1  0  0  0  0
 12 13  1  0  0  0  0
 12 32  1  0  0  0  0
 12 33  1  0  0  0  0
 13 14  1  0  0  0  0
 13 17  1  0  0  0  0
 14 15  1  0  0  0  0
 14 16  2  0  0  0  0
 15 34  1  0  0  0  0
 15 35  1  0  0  0  0
 15 36  1  0  0  0  0
 17 18  1  0  0  0  0
 17 37  1  0  0  0  0
 17 38  1  0  0  0  0
 18 39  1  0  0  0  0
 18 40  1  0  0  0  0
 19 20  2  0  0  0  0
 19 41  1  0  0  0  0
M  END
> <s_m_source_file>
AV-unprocessed.smi

> <i_m_source_file_index>
1739

> <i_lp_mmshare_version>
43012

> <i_f3d_flags>
0

> <s_epik_input>
W0NIM11bQ0gyXW4xW2NIXWMoW2NIXW4xKVtOSF1DKD1PKVtOSF1bQ0hdMltDSDJdW0NIMl1OKEMoPU8pW0NIM10pW0NIMl1bQ0gyXTI=

> <s_epik_cmdline>
J2VwaWtfcHl0aG9uJywgJy1waCcsICc3LjAnLCAnLXRuJywgJzgnLCAnLW1hJywgJzIwMCcsICctbWV0YWxfYmluZGluZycsICctaW1hZScsICc8aW5maWxlLm1hZT4nLCAnLW9tYWUnLCAnPG91dGZpbGUubWFlPic=

> <r_lp_tautomer_probability>
1

> <r_epik_Ionization_Penalty>
0.000185887

> <r_epik_Ionization_Penalty_Charging>
0

> <r_epik_Ionization_Penalty_Neutral>
0.000185887

> <r_epik_State_Penalty>
-0

> <r_epik_Charging_Adjusted_Penalty>
0

> <i_epik_Tot_Q>
0

> <i_epik_Tot_abs_Q>
0

> <r_epik_Metal_State_Penalty>
-0

> <b_epik_Metal_Only>
0

> <s_lp_Force_Field>
OPLS_2005

> <r_lp_Energy>
25.6807

> <b_lp_Chiralities_Consistent>
1

> <s_lp_Variant>
AV-unprocessed.smi:1739-1

> <Gold.Version>
5.8.1

> <Gold.Id.Protein>
6NUR|6NUR_protein|mol2

> <Gold.PLP.Fitness>
39.6748

> <Gold.PLP.PLP>
-31.2635

> <Gold.PLP.part.hbond>
-2.0000

> <Gold.PLP.part.metal>
0.0000

> <Gold.PLP.part.buried>
-0.9312

> <Gold.PLP.part.nonpolar>
-30.0468

> <Gold.PLP.part.repulsive>
1.6939

> <Gold.PLP.ligand.clash>
0.0000

> <Gold.PLP.ligand.torsion>
0.2541

> <Gold.PLP.Chemscore.Hbond>
1.9920

> <Gold.PLP.Chemscore.CHOScore>
0.9750

> <Gold.PLP.Chemscore.Metal>
0.0000

> <Gold.Chemscore.Hbonds>
donor molecule, donor type, donor heavy atom, donor atom, acceptor molecule, acceptor atom, score
      L1  H     6    27       P1  7948  1.00
      L1  H     9    28       P1  7948  1.00
      L1  C     4    26       P1  7921  0.81

> <Gold.PLP.Chemscore.Internal.Correction>
0.0185

> <Gold.Rescore>
     Score         DG    S(hbond)    S(metal)    S(lipo)     H(rot)  DE(clash)    DE(int)     intcor
     12.80     -17.55       1.95        0.00      74.20       1.22       2.47       2.28       ----

> <Gold.Chemscore.Fitness>
12.7974

> <Gold.Chemscore.DG>
-17.5503

> <Gold.Chemscore.ZeroCoef>
-5.4800

> <Gold.Chemscore.Hbond>
1.9472

> <Gold.Chemscore.Metal>
0.0000

> <Gold.Chemscore.Lipo>
74.1989

> <Gold.Chemscore.Internal_Hbond>
0.0000

> <Gold.Chemscore.DEClash>
2.4696

> <Gold.Chemscore.DEInternal>
2.2833

> <Gold.Chemscore.Rot>
1.2166

> <Gold.Chemscore.Internal.Correction>
   9.000000E+99

> <Gold.Chemscore.Hbonds>
donor molecule, donor type, donor heavy atom, donor atom, acceptor molecule, acceptor atom, score
      L1  H     6    27       P1  7948  1.00
      L1  H     9    28       P1  7948  0.92

> <Gold.Chemscore.Hbond.Weighted>
-6.5035

> <Gold.Chemscore.Metal.Weighted>
-0.0000

> <Gold.Chemscore.Lipo.Weighted>
-8.6813

> <Gold.Chemscore.Internal_Hbond.Weighted>
0.0000

> <Gold.Chemscore.DEClash.Weighted>
2.4696

> <Gold.Chemscore.DEInternal.Weighted>
2.2833

> <Gold.Chemscore.Rot.Weighted>
3.1145

> <Gold.Chemscore.Internal.Correction.Weighted>
   9.000000E+99

> <Gold.Protein.RotatedTorsions>
[ 6907 6896 6895 6894 ] final   26.76 input  -60.11 | X-H torsion
[ 7974 7965 7964 7962 ] final  105.51 input  175.53 | X-H torsion
[ 8008 7997 7996 7995 ] final -140.83 input   59.86 | X-H torsion
[ 10167 10162 10161 10158 ] final -167.18 input  -65.29 | X-H torsion
[ 10718 10713 10712 10709 ] final  -40.84 input   66.30 | X-H torsion
[ 10763 10752 10751 10750 ] final -101.39 input  -60.55 | X-H torsion
[ 11005 11000 10999 10996 ] final  -41.45 input  -57.11 | X-H torsion

> <Gold.Protein.ActiveResidues>
 VAL166  LYS551  ARG553  GLY616  TRP617  ASP618  TYR619  PRO620  LYS621  CYS622 
 ASP623  PHE694  ASN695  SER759  ASP760  ASP761  ALA762  ILE779  LEU786  VAL792 
 PHE793  MET794  SER795  GLU796  ALA797  LYS798  CYS799  TRP800  GLU811  SER814 

> <Gold.Protein.RotatedAtoms>
  151.9923  134.9972  160.0561 H   0  0  0  0  0  0  0  0  0  0  0  0  # atno 6907 bound_to 6896
  152.1597  133.4569  159.4863 H   0  0  0  0  0  0  0  0  0  0  0  0  # atno 6908 bound_to 6896
  150.6886  134.2005  159.4363 H   0  0  0  0  0  0  0  0  0  0  0  0  # atno 6909 bound_to 6896
  145.3187  139.2519  143.3723 H   0  0  0  0  0  0  0  0  0  0  0  0  # atno 7974 bound_to 7965
  155.4678  140.0550  157.2983 H   0  0  0  0  0  0  0  0  0  0  0  0  # atno 8008 bound_to 7997
  154.4710  140.2040  155.9948 H   0  0  0  0  0  0  0  0  0  0  0  0  # atno 8009 bound_to 7997
  156.1056  140.3212  155.8006 H   0  0  0  0  0  0  0  0  0  0  0  0  # atno 8010 bound_to 7997
  139.6066  144.0900  152.1799 H   0  0  0  0  0  0  0  0  0  0  0  0  # atno 10167 bound_to 10162
  156.2769  130.4213  149.8378 H   0  0  0  0  0  0  0  0  0  0  0  0  # atno 10718 bound_to 10713
  154.7654  135.4899  153.9544 H   0  0  0  0  0  0  0  0  0  0  0  0  # atno 10763 bound_to 10752
  153.1301  135.6751  153.9200 H   0  0  0  0  0  0  0  0  0  0  0  0  # atno 10764 bound_to 10752
  153.8906  135.3121  155.3426 H   0  0  0  0  0  0  0  0  0  0  0  0  # atno 10765 bound_to 10752
  141.0247  133.6847  156.2459 H   0  0  0  0  0  0  0  0  0  0  0  0  # atno 11005 bound_to 11000
  146.3090  140.3740  142.8677 LP  0  0  0  0  0  0  0  0  0  0  0  0  # atno 17320 bound_to 7965
  144.8957  140.7579  143.5899 LP  0  0  0  0  0  0  0  0  0  0  0  0  # atno 17321 bound_to 7965
  140.0508  144.5934  150.7337 LP  0  0  0  0  0  0  0  0  0  0  0  0  # atno 17342 bound_to 10162
  140.7289  143.2667  151.4021 LP  0  0  0  0  0  0  0  0  0  0  0  0  # atno 17343 bound_to 10162
  156.5839  130.8477  151.3390 LP  0  0  0  0  0  0  0  0  0  0  0  0  # atno 17370 bound_to 10713
  157.7302  130.9682  150.1822 LP  0  0  0  0  0  0  0  0  0  0  0  0  # atno 17371 bound_to 10713
  140.6512  134.5065  157.5577 LP  0  0  0  0  0  0  0  0  0  0  0  0  # atno 17394 bound_to 11000
  139.9168  134.8230  156.1340 LP  0  0  0  0  0  0  0  0  0  0  0  0  # atno 17395 bound_to 11000

$$$$
