AV-unprocessed.smi:91|AV-procd|sdf|835|dock4
  -GOLD-   2262017263D 1   1.00000     0.00000
 Structure written by MMmdl.
 60 63  0  0  0  0  0  0  0  0  1 V2000
  153.2164  142.5662  162.2586 C   0  0  0  0  0  0  0  0  0  0  0  0
  154.2900  142.0944  161.4639 O   0  0  0  0  0  0  0  0  0  0  0  0
  153.8902  141.0795  160.5563 C   0  0  0  0  0  0  0  0  0  0  0  0
  152.6544  141.5342  159.7674 C   0  0  2  0  0  0  0  0  0  0  0  0
  152.3904  140.6735  158.5196 C   0  0  0  0  0  0  0  0  0  0  0  0
  151.2747  141.2239  157.7606 N   0  0  0  0  0  0  0  0  0  0  0  0
  150.7613  140.3914  156.8194 C   0  0  0  0  0  0  0  0  0  0  0  0
  150.8026  140.7409  155.5053 N   0  0  0  0  0  0  0  0  0  0  0  0
  150.3119  139.9210  154.5711 C   0  0  0  0  0  0  0  0  0  0  0  0
  149.7427  138.7246  154.7268 N   0  0  0  0  0  0  0  0  0  0  0  0
  149.6885  138.3726  156.0429 C   0  0  0  0  0  0  0  0  0  0  0  0
  150.1674  139.1384  157.1432 C   0  0  0  0  0  0  0  0  0  0  0  0
  149.9235  138.4594  158.3319 N   0  0  0  0  0  0  0  0  0  0  0  0
  149.3431  137.3527  157.9551 C   0  0  0  0  0  0  0  0  0  0  0  0
  149.1701  137.2163  156.5967 N   0  0  0  0  0  0  0  0  0  0  0  0
  148.5640  136.0948  155.9019 C   0  0  0  0  0  0  0  0  0  0  0  0
  149.4944  135.4665  154.8349 C   0  0  1  0  0  0  0  0  0  0  0  0
  150.9945  135.6357  155.1777 C   0  0  0  0  0  0  0  0  0  0  0  0
  151.6594  136.4269  154.2141 O   0  0  0  0  0  0  0  0  0  0  0  0
  149.1142  133.9918  154.5494 C   0  0  2  0  0  0  0  0  0  0  0  0
  149.9262  133.3189  153.4568 C   0  0  0  0  0  0  0  0  0  0  0  0
  149.0497  132.1265  153.0902 C   0  0  0  0  0  0  0  0  0  0  0  0
  147.7089  132.5557  153.2979 O   0  0  0  0  0  0  0  0  0  0  0  0
  147.6976  133.7953  153.9988 C   0  0  0  0  0  0  0  0  0  0  0  0
  151.4734  142.6261  157.4023 C   0  0  0  0  0  0  0  0  0  0  0  0
  151.7570  143.4883  158.6531 C   0  0  0  0  0  0  0  0  0  0  0  0
  152.2676  144.8718  158.2213 C   0  0  0  0  0  0  0  0  0  0  0  0
  150.4989  143.6641  159.5301 C   0  0  0  0  0  0  0  0  0  0  0  0
  152.8283  142.9037  159.4020 O   0  0  0  0  0  0  0  0  0  0  0  0
  153.5744  143.3425  162.9347 H   0  0  0  0  0  0  0  0  0  0  0  0
  152.7907  141.7640  162.8629 H   0  0  0  0  0  0  0  0  0  0  0  0
  152.4270  142.9960  161.6404 H   0  0  0  0  0  0  0  0  0  0  0  0
  154.7072  140.8660  159.8650 H   0  0  0  0  0  0  0  0  0  0  0  0
  153.6698  140.1558  161.0937 H   0  0  0  0  0  0  0  0  0  0  0  0
  151.7997  141.4551  160.4390 H   0  0  0  0  0  0  0  0  0  0  0  0
  153.2707  140.6569  157.8756 H   0  0  0  0  0  0  0  0  0  0  0  0
  152.2021  139.6440  158.8225 H   0  0  0  0  0  0  0  0  0  0  0  0
  150.3876  140.2739  153.5530 H   0  0  0  0  0  0  0  0  0  0  0  0
  149.0299  136.5968  158.6610 H   0  0  0  0  0  0  0  0  0  0  0  0
  148.2735  135.3464  156.6401 H   0  0  0  0  0  0  0  0  0  0  0  0
  147.6399  136.4507  155.4460 H   0  0  0  0  0  0  0  0  0  0  0  0
  149.3318  136.0215  153.9096 H   0  0  0  0  0  0  0  0  0  0  0  0
  151.1206  136.0974  156.1566 H   0  0  0  0  0  0  0  0  0  0  0  0
  151.4925  134.6682  155.2405 H   0  0  0  0  0  0  0  0  0  0  0  0
  151.2995  136.2287  153.3630 H   0  0  0  0  0  0  0  0  0  0  0  0
  149.2132  133.4047  155.4640 H   0  0  0  0  0  0  0  0  0  0  0  0
  150.0337  133.9822  152.5973 H   0  0  0  0  0  0  0  0  0  0  0  0
  150.9218  133.0160  153.7822 H   0  0  0  0  0  0  0  0  0  0  0  0
  149.2090  131.7918  152.0650 H   0  0  0  0  0  0  0  0  0  0  0  0
  149.2523  131.2869  153.7563 H   0  0  0  0  0  0  0  0  0  0  0  0
  146.9407  133.7932  154.7836 H   0  0  0  0  0  0  0  0  0  0  0  0
  147.4445  134.5850  153.2895 H   0  0  0  0  0  0  0  0  0  0  0  0
  152.3141  142.6905  156.7096 H   0  0  0  0  0  0  0  0  0  0  0  0
  150.5968  143.0114  156.8791 H   0  0  0  0  0  0  0  0  0  0  0  0
  151.5271  145.3978  157.6178 H   0  0  0  0  0  0  0  0  0  0  0  0
  153.1786  144.7883  157.6276 H   0  0  0  0  0  0  0  0  0  0  0  0
  152.4961  145.4962  159.0854 H   0  0  0  0  0  0  0  0  0  0  0  0
  149.7267  144.2190  158.9967 H   0  0  0  0  0  0  0  0  0  0  0  0
  150.7299  144.2161  160.4416 H   0  0  0  0  0  0  0  0  0  0  0  0
  150.0572  142.7121  159.8227 H   0  0  0  0  0  0  0  0  0  0  0  0
  1  2  1  0  0  0  0
  1 30  1  0  0  0  0
  1 31  1  0  0  0  0
  1 32  1  0  0  0  0
  2  3  1  0  0  0  0
  3  4  1  0  0  0  0
  3 33  1  0  0  0  0
  3 34  1  0  0  0  0
  4 29  1  0  0  0  0
  4  5  1  0  0  0  0
  4 35  1  0  0  0  0
  5  6  1  0  0  0  0
  5 36  1  0  0  0  0
  5 37  1  0  0  0  0
  6  7  1  0  0  0  0
  6 25  1  0  0  0  0
  7 12  1  0  0  0  0
  7  8  2  0  0  0  0
  8  9  1  0  0  0  0
  9 10  2  0  0  0  0
  9 38  1  0  0  0  0
 10 11  1  0  0  0  0
 11 15  1  0  0  0  0
 11 12  2  0  0  0  0
 12 13  1  0  0  0  0
 13 14  2  0  0  0  0
 14 15  1  0  0  0  0
 14 39  1  0  0  0  0
 15 16  1  0  0  0  0
 16 17  1  0  0  0  0
 16 40  1  0  0  0  0
 16 41  1  0  0  0  0
 17 18  1  0  0  0  0
 17 20  1  0  0  0  0
 17 42  1  0  0  0  0
 18 19  1  0  0  0  0
 18 43  1  0  0  0  0
 18 44  1  0  0  0  0
 19 45  1  0  0  0  0
 20 24  1  0  0  0  0
 20 21  1  0  0  0  0
 20 46  1  0  0  0  0
 21 22  1  0  0  0  0
 21 47  1  0  0  0  0
 21 48  1  0  0  0  0
 22 23  1  0  0  0  0
 22 49  1  0  0  0  0
 22 50  1  0  0  0  0
 23 24  1  0  0  0  0
 24 51  1  0  0  0  0
 24 52  1  0  0  0  0
 25 26  1  0  0  0  0
 25 53  1  0  0  0  0
 25 54  1  0  0  0  0
 26 27  1  0  0  0  0
 26 28  1  0  0  0  0
 26 29  1  0  0  0  0
 27 55  1  0  0  0  0
 27 56  1  0  0  0  0
 27 57  1  0  0  0  0
 28 58  1  0  0  0  0
 28 59  1  0  0  0  0
 28 60  1  0  0  0  0
M  END
> <s_m_source_file>
AV-unprocessed.smi

> <i_m_source_file_index>
91

> <i_lp_mmshare_version>
43012

> <i_f3d_flags>
0

> <s_epik_input>
W0NIM11PW0NIMl1bQ0BASF0oTzEpW0NIMl1OKFtDSDJdQzEoW0NIM10pW0NIM10pYyhuW2NIXW4yKWMoYzIzKW5bY0hdbjNbQ0gyXVtDQEhdKFtDSDJdW09IXSlbQ0BASF00W0NIMl1bQ0gyXU9bQ0gyXTQ=

> <s_epik_cmdline>
J2VwaWtfcHl0aG9uJywgJy1waCcsICc3LjAnLCAnLXRuJywgJzgnLCAnLW1hJywgJzIwMCcsICctbWV0YWxfYmluZGluZycsICctaW1hZScsICc8aW5maWxlLm1hZT4nLCAnLW9tYWUnLCAnPG91dGZpbGUubWFlPic=

> <r_lp_tautomer_probability>
1

> <r_epik_Ionization_Penalty>
8.63591e-05

> <r_epik_Ionization_Penalty_Charging>
0

> <r_epik_Ionization_Penalty_Neutral>
8.63591e-05

> <r_epik_State_Penalty>
-0

> <r_epik_Charging_Adjusted_Penalty>
0

> <i_epik_Tot_Q>
0

> <i_epik_Tot_abs_Q>
0

> <r_epik_Metal_State_Penalty>
-0

> <b_epik_Metal_Only>
0

> <s_lp_Force_Field>
OPLS_2005

> <r_lp_Energy>
46.4326

> <b_lp_Chiralities_Consistent>
1

> <s_lp_Variant>
AV-unprocessed.smi:91-3

> <Gold.Version>
5.8.1

> <Gold.Id.Protein>
6NUR|6NUR_protein|mol2

> <Gold.PLP.Fitness>
51.9399

> <Gold.PLP.PLP>
-45.6082

> <Gold.PLP.part.hbond>
-4.0000

> <Gold.PLP.part.metal>
0.0000

> <Gold.PLP.part.buried>
-4.3292

> <Gold.PLP.part.nonpolar>
-36.3892

> <Gold.PLP.part.repulsive>
0.3027

> <Gold.PLP.ligand.clash>
0.0000

> <Gold.PLP.ligand.torsion>
1.5460

> <Gold.PLP.Chemscore.Hbond>
1.9588

> <Gold.PLP.Chemscore.CHOScore>
1.0000

> <Gold.PLP.Chemscore.Metal>
0.0000

> <Gold.Chemscore.Hbonds>
donor molecule, donor type, donor heavy atom, donor atom, acceptor molecule, acceptor atom, score
      L1  H    19    45       P1  7949  1.00
      P1  H 10752 10763       L1    19  0.59
      L1  C     9    38       P1  7957  1.00

> <Gold.PLP.Chemscore.Internal.Correction>
0.5474

> <Gold.Rescore>
     Score         DG    S(hbond)    S(metal)    S(lipo)     H(rot)  DE(clash)    DE(int)     intcor
     12.02     -13.47       0.89        0.00     109.05       3.03       0.01       1.44       ----

> <Gold.Chemscore.Fitness>
12.0178

> <Gold.Chemscore.DG>
-13.4705

> <Gold.Chemscore.ZeroCoef>
-5.4800

> <Gold.Chemscore.Hbond>
0.8936

> <Gold.Chemscore.Metal>
0.0000

> <Gold.Chemscore.Lipo>
109.0478

> <Gold.Chemscore.Internal_Hbond>
0.0000

> <Gold.Chemscore.DEClash>
0.0112

> <Gold.Chemscore.DEInternal>
1.4416

> <Gold.Chemscore.Rot>
3.0284

> <Gold.Chemscore.Internal.Correction>
   9.000000E+99

> <Gold.Chemscore.Hbonds>
donor molecule, donor type, donor heavy atom, donor atom, acceptor molecule, acceptor atom, score
      L1  H    19    45       P1  7949  0.60
      P1  H 10752 10763       L1    19  0.03

> <Gold.Chemscore.Hbond.Weighted>
-2.9847

> <Gold.Chemscore.Metal.Weighted>
-0.0000

> <Gold.Chemscore.Lipo.Weighted>
-12.7586

> <Gold.Chemscore.Internal_Hbond.Weighted>
0.0000

> <Gold.Chemscore.DEClash.Weighted>
0.0112

> <Gold.Chemscore.DEInternal.Weighted>
1.4416

> <Gold.Chemscore.Rot.Weighted>
7.7528

> <Gold.Chemscore.Internal.Correction.Weighted>
   9.000000E+99

> <Gold.Protein.RotatedTorsions>
[ 6907 6896 6895 6894 ] final   87.75 input  -60.11 | X-H torsion
[ 7974 7965 7964 7962 ] final  128.49 input  175.53 | X-H torsion
[ 8008 7997 7996 7995 ] final    5.77 input   59.86 | X-H torsion
[ 10167 10162 10161 10158 ] final -145.04 input  -65.29 | X-H torsion
[ 10718 10713 10712 10709 ] final -101.45 input   66.30 | X-H torsion
[ 10763 10752 10751 10750 ] final   45.17 input  -60.55 | X-H torsion
[ 11005 11000 10999 10996 ] final  177.12 input  -57.11 | X-H torsion

> <Gold.Protein.ActiveResidues>
 VAL166  LYS551  ARG553  GLY616  TRP617  ASP618  TYR619  PRO620  LYS621  CYS622 
 ASP623  PHE694  ASN695  SER759  ASP760  ASP761  ALA762  ILE779  LEU786  VAL792 
 PHE793  MET794  SER795  GLU796  ALA797  LYS798  CYS799  TRP800  GLU811  SER814 

> <Gold.Protein.RotatedAtoms>
  152.5416  134.2227  159.8793 H   0  0  0  0  0  0  0  0  0  0  0  0  # atno 6907 bound_to 6896
  151.2203  133.4499  159.2608 H   0  0  0  0  0  0  0  0  0  0  0  0  # atno 6908 bound_to 6896
  151.0811  134.9872  159.8412 H   0  0  0  0  0  0  0  0  0  0  0  0  # atno 6909 bound_to 6896
  145.0390  139.3979  143.5111 H   0  0  0  0  0  0  0  0  0  0  0  0  # atno 7974 bound_to 7965
  154.7326  140.2733  155.6443 H   0  0  0  0  0  0  0  0  0  0  0  0  # atno 8008 bound_to 7997
  156.2853  140.2713  156.1956 H   0  0  0  0  0  0  0  0  0  0  0  0  # atno 8009 bound_to 7997
  155.0362  140.0371  157.2482 H   0  0  0  0  0  0  0  0  0  0  0  0  # atno 8010 bound_to 7997
  139.7842  143.8057  152.2642 H   0  0  0  0  0  0  0  0  0  0  0  0  # atno 10167 bound_to 10162
  156.0195  130.5374  150.6965 H   0  0  0  0  0  0  0  0  0  0  0  0  # atno 10718 bound_to 10713
  152.9829  135.6048  154.3392 H   0  0  0  0  0  0  0  0  0  0  0  0  # atno 10763 bound_to 10752
  154.3090  135.2771  155.2577 H   0  0  0  0  0  0  0  0  0  0  0  0  # atno 10764 bound_to 10752
  154.4794  135.5921  153.6435 H   0  0  0  0  0  0  0  0  0  0  0  0  # atno 10765 bound_to 10752
  140.3806  134.6949  157.4449 H   0  0  0  0  0  0  0  0  0  0  0  0  # atno 11005 bound_to 11000
  146.3507  139.9981  142.8679 LP  0  0  0  0  0  0  0  0  0  0  0  0  # atno 17320 bound_to 7965
  145.1672  140.9703  143.4343 LP  0  0  0  0  0  0  0  0  0  0  0  0  # atno 17321 bound_to 7965
  139.8129  144.7328  150.9673 LP  0  0  0  0  0  0  0  0  0  0  0  0  # atno 17342 bound_to 10162
  140.7819  143.4233  151.0807 LP  0  0  0  0  0  0  0  0  0  0  0  0  # atno 17343 bound_to 10162
  157.4635  131.0885  151.0720 LP  0  0  0  0  0  0  0  0  0  0  0  0  # atno 17370 bound_to 10713
  157.1201  130.6058  149.5503 LP  0  0  0  0  0  0  0  0  0  0  0  0  # atno 17371 bound_to 10713
  140.0481  134.6170  155.8896 LP  0  0  0  0  0  0  0  0  0  0  0  0  # atno 17394 bound_to 11000
  141.1924  133.6575  156.5502 LP  0  0  0  0  0  0  0  0  0  0  0  0  # atno 17395 bound_to 11000

$$$$
