AV-unprocessed.smi:2533|AV-procd|sdf|9973|dock4
  -GOLD-   2272014 23D 1   1.00000     0.00000
 Structure written by MMmdl.
 35 36  0  0  0  0  0  0  0  0  1 V2000
  143.3559  145.5533  154.0067 C   0  0  0  0  0  0  0  0  0  0  0  0
  143.6014  144.6629  155.0851 O   0  0  0  0  0  0  0  0  0  0  0  0
  144.6778  143.8067  154.9887 C   0  0  0  0  0  0  0  0  0  0  0  0
  145.4662  143.6502  153.8210 C   0  0  0  0  0  0  0  0  0  0  0  0
  146.5549  142.7573  153.8089 C   0  0  0  0  0  0  0  0  0  0  0  0
  146.8741  142.0052  154.9586 C   0  0  0  0  0  0  0  0  0  0  0  0
  148.0802  141.0742  154.9669 C   0  0  1  0  0  0  0  0  0  0  0  0
  148.0388  140.1366  153.9110 O   0  0  0  0  0  0  0  0  0  0  0  0
  149.4245  141.8363  154.8937 C   0  0  0  0  0  0  0  0  0  0  0  0
  150.2698  141.6110  156.0747 N   0  0  0  0  0  0  0  0  0  0  0  0
  150.5416  142.7545  156.8071 N   0  0  0  0  0  0  0  0  0  0  0  0
  151.2158  142.7029  157.9099 C   0  0  0  0  0  0  0  0  0  0  0  0
  151.4312  143.9985  158.6517 C   0  0  0  0  0  0  0  0  0  0  0  0
  152.1177  143.7989  159.7772 F   0  0  0  0  0  0  0  0  0  0  0  0
  152.1087  144.8566  157.8885 F   0  0  0  0  0  0  0  0  0  0  0  0
  150.2561  144.5468  158.9638 F   0  0  0  0  0  0  0  0  0  0  0  0
  151.7182  141.4191  158.3700 C   0  0  0  0  0  0  0  0  0  0  0  0
  151.4656  140.3079  157.6457 C   0  0  0  0  0  0  0  0  0  0  0  0
  150.6900  140.3567  156.4088 C   0  0  0  0  0  0  0  0  0  0  0  0
  150.4266  139.3603  155.7364 O   0  0  0  0  0  0  0  0  0  0  0  0
  146.0894  142.1547  156.1200 C   0  0  0  0  0  0  0  0  0  0  0  0
  145.0022  143.0488  156.1335 C   0  0  0  0  0  0  0  0  0  0  0  0
  144.2659  143.1839  157.2622 F   0  0  0  0  0  0  0  0  0  0  0  0
  142.4808  146.1616  154.2353 H   0  0  0  0  0  0  0  0  0  0  0  0
  143.1493  145.0123  153.0824 H   0  0  0  0  0  0  0  0  0  0  0  0
  144.1965  146.2306  153.8498 H   0  0  0  0  0  0  0  0  0  0  0  0
  145.2600  144.2085  152.9207 H   0  0  0  0  0  0  0  0  0  0  0  0
  147.1535  142.6608  152.9148 H   0  0  0  0  0  0  0  0  0  0  0  0
  148.0555  140.4964  155.8916 H   0  0  0  0  0  0  0  0  0  0  0  0
  148.8288  140.2265  153.3999 H   0  0  0  0  0  0  0  0  0  0  0  0
  149.9644  141.5634  153.9851 H   0  0  0  0  0  0  0  0  0  0  0  0
  149.2261  142.9060  154.7982 H   0  0  0  0  0  0  0  0  0  0  0  0
  152.2907  141.3582  159.2837 H   0  0  0  0  0  0  0  0  0  0  0  0
  151.8418  139.3560  157.9907 H   0  0  0  0  0  0  0  0  0  0  0  0
  146.3279  141.5945  157.0123 H   0  0  0  0  0  0  0  0  0  0  0  0
  1  2  1  0  0  0  0
  1 24  1  0  0  0  0
  1 25  1  0  0  0  0
  1 26  1  0  0  0  0
  2  3  1  0  0  0  0
  3 22  1  0  0  0  0
  3  4  2  0  0  0  0
  4  5  1  0  0  0  0
  4 27  1  0  0  0  0
  5  6  2  0  0  0  0
  5 28  1  0  0  0  0
  6  7  1  0  0  0  0
  6 21  1  0  0  0  0
  7  8  1  0  0  0  0
  7  9  1  0  0  0  0
  7 29  1  0  0  0  0
  8 30  1  0  0  0  0
  9 10  1  0  0  0  0
  9 31  1  0  0  0  0
  9 32  1  0  0  0  0
 10 19  1  0  0  0  0
 10 11  1  0  0  0  0
 11 12  2  0  0  0  0
 12 13  1  0  0  0  0
 12 17  1  0  0  0  0
 13 14  1  0  0  0  0
 13 15  1  0  0  0  0
 13 16  1  0  0  0  0
 17 18  2  0  0  0  0
 17 33  1  0  0  0  0
 18 19  1  0  0  0  0
 18 34  1  0  0  0  0
 19 20  2  0  0  0  0
 21 22  2  0  0  0  0
 21 35  1  0  0  0  0
 22 23  1  0  0  0  0
M  END
> <s_m_source_file>
AV-unprocessed.smi

> <i_m_source_file_index>
2533

> <i_lp_mmshare_version>
43012

> <i_f3d_flags>
0

> <s_epik_input>
W0NIM11PYzFbY0hdW2NIXWMoW2NIXWMxRilbQ0BIXShbT0hdKVtDSDJdbjJuYyhDKEYpKEYpRilbY0hdW2NIXWMyPU8=

> <s_epik_cmdline>
J2VwaWtfcHl0aG9uJywgJy1waCcsICc3LjAnLCAnLXRuJywgJzgnLCAnLW1hJywgJzIwMCcsICctbWV0YWxfYmluZGluZycsICctaW1hZScsICc8aW5maWxlLm1hZT4nLCAnLW9tYWUnLCAnPG91dGZpbGUubWFlPic=

> <r_lp_tautomer_probability>
1

> <r_epik_Ionization_Penalty>
5.00966e-08

> <r_epik_Ionization_Penalty_Charging>
3.92872e-09

> <r_epik_Ionization_Penalty_Neutral>
4.61679e-08

> <r_epik_State_Penalty>
-0

> <r_epik_Charging_Adjusted_Penalty>
3.92872e-09

> <i_epik_Tot_Q>
0

> <i_epik_Tot_abs_Q>
0

> <r_epik_Metal_State_Penalty>
-0

> <b_epik_Metal_Only>
0

> <s_lp_Force_Field>
OPLS_2005

> <r_lp_Energy>
30.5098

> <b_lp_Chiralities_Consistent>
1

> <s_lp_Variant>
AV-unprocessed.smi:2533-2

> <Gold.Version>
5.8.1

> <Gold.Id.Protein>
6NUR|6NUR_protein|mol2

> <Gold.PLP.Fitness>
47.5716

> <Gold.PLP.PLP>
-47.0205

> <Gold.PLP.part.hbond>
-1.0000

> <Gold.PLP.part.metal>
0.0000

> <Gold.PLP.part.buried>
-6.4278

> <Gold.PLP.part.nonpolar>
-39.9020

> <Gold.PLP.part.repulsive>
0.5376

> <Gold.PLP.ligand.clash>
0.0000

> <Gold.PLP.ligand.torsion>
0.9162

> <Gold.PLP.Chemscore.Hbond>
0.7771

> <Gold.PLP.Chemscore.CHOScore>
0.0000

> <Gold.PLP.Chemscore.Metal>
0.0000

> <Gold.Chemscore.Hbonds>
donor molecule, donor type, donor heavy atom, donor atom, acceptor molecule, acceptor atom, score
      L1  H     8    30       P1  7957  0.11

> <Gold.PLP.Chemscore.Internal.Correction>
0.0521

> <Gold.Rescore>
     Score         DG    S(hbond)    S(metal)    S(lipo)     H(rot)  DE(clash)    DE(int)     intcor
      7.36      -8.36       0.00        0.00      79.35       2.50       0.03       0.96       ----

> <Gold.Chemscore.Fitness>
7.3632

> <Gold.Chemscore.DG>
-8.3563

> <Gold.Chemscore.ZeroCoef>
-5.4800

> <Gold.Chemscore.Hbond>
0.0000

> <Gold.Chemscore.Metal>
0.0000

> <Gold.Chemscore.Lipo>
79.3520

> <Gold.Chemscore.Internal_Hbond>
0.0000

> <Gold.Chemscore.DEClash>
0.0300

> <Gold.Chemscore.DEInternal>
0.9631

> <Gold.Chemscore.Rot>
2.5031

> <Gold.Chemscore.Internal.Correction>
   9.000000E+99

> <Gold.Chemscore.Hbonds>
donor molecule, donor type, donor heavy atom, donor atom, acceptor molecule, acceptor atom, score
      L1  H     8    30       P1  7957  0.13

> <Gold.Chemscore.Hbond.Weighted>
-0.0000

> <Gold.Chemscore.Metal.Weighted>
-0.0000

> <Gold.Chemscore.Lipo.Weighted>
-9.2842

> <Gold.Chemscore.Internal_Hbond.Weighted>
0.0000

> <Gold.Chemscore.DEClash.Weighted>
0.0300

> <Gold.Chemscore.DEInternal.Weighted>
0.9631

> <Gold.Chemscore.Rot.Weighted>
6.4079

> <Gold.Chemscore.Internal.Correction.Weighted>
   9.000000E+99

> <Gold.Protein.RotatedTorsions>
[ 6907 6896 6895 6894 ] final   54.58 input  -60.11 | X-H torsion
[ 7974 7965 7964 7962 ] final -140.51 input  175.53 | X-H torsion
[ 8008 7997 7996 7995 ] final -126.37 input   59.86 | X-H torsion
[ 10167 10162 10161 10158 ] final  157.15 input  -65.29 | X-H torsion
[ 10718 10713 10712 10709 ] final -107.64 input   66.30 | X-H torsion
[ 10763 10752 10751 10750 ] final   51.30 input  -60.55 | X-H torsion
[ 11005 11000 10999 10996 ] final   55.31 input  -57.11 | X-H torsion

> <Gold.Protein.ActiveResidues>
 VAL166  LYS551  ARG553  GLY616  TRP617  ASP618  TYR619  PRO620  LYS621  CYS622 
 ASP623  PHE694  ASN695  SER759  ASP760  ASP761  ALA762  ILE779  LEU786  VAL792 
 PHE793  MET794  SER795  GLU796  ALA797  LYS798  CYS799  TRP800  GLU811  SER814 

> <Gold.Protein.RotatedAtoms>
  152.3453  134.7080  160.0251 H   0  0  0  0  0  0  0  0  0  0  0  0  # atno 6907 bound_to 6896
  151.7452  133.3319  159.3384 H   0  0  0  0  0  0  0  0  0  0  0  0  # atno 6908 bound_to 6896
  150.7505  134.6175  159.6163 H   0  0  0  0  0  0  0  0  0  0  0  0  # atno 6909 bound_to 6896
  144.8591  140.6191  143.5340 H   0  0  0  0  0  0  0  0  0  0  0  0  # atno 7974 bound_to 7965
  155.2286  140.0424  157.2959 H   0  0  0  0  0  0  0  0  0  0  0  0  # atno 8008 bound_to 7997
  154.5903  140.2425  155.7900 H   0  0  0  0  0  0  0  0  0  0  0  0  # atno 8009 bound_to 7997
  156.2254  140.2956  156.0064 H   0  0  0  0  0  0  0  0  0  0  0  0  # atno 8010 bound_to 7997
  139.4822  144.4943  151.8262 H   0  0  0  0  0  0  0  0  0  0  0  0  # atno 10167 bound_to 10162
  156.0446  130.5672  150.7849 H   0  0  0  0  0  0  0  0  0  0  0  0  # atno 10718 bound_to 10713
  152.9785  135.5850  154.4393 H   0  0  0  0  0  0  0  0  0  0  0  0  # atno 10763 bound_to 10752
  154.3996  135.2768  155.2106 H   0  0  0  0  0  0  0  0  0  0  0  0  # atno 10764 bound_to 10752
  154.3943  135.6118  153.5915 H   0  0  0  0  0  0  0  0  0  0  0  0  # atno 10765 bound_to 10752
  140.0617  134.5593  155.9145 H   0  0  0  0  0  0  0  0  0  0  0  0  # atno 11005 bound_to 11000
  145.4347  139.1544  143.4003 LP  0  0  0  0  0  0  0  0  0  0  0  0  # atno 17320 bound_to 7965
  146.2846  140.4465  142.8763 LP  0  0  0  0  0  0  0  0  0  0  0  0  # atno 17321 bound_to 7965
  140.4430  144.1960  150.5892 LP  0  0  0  0  0  0  0  0  0  0  0  0  # atno 17342 bound_to 10162
  140.4663  143.2429  151.9151 LP  0  0  0  0  0  0  0  0  0  0  0  0  # atno 17343 bound_to 10162
  157.5306  131.0936  150.9959 LP  0  0  0  0  0  0  0  0  0  0  0  0  # atno 17370 bound_to 10713
  157.0267  130.5695  149.5338 LP  0  0  0  0  0  0  0  0  0  0  0  0  # atno 17371 bound_to 10713
  141.1976  133.6597  156.5748 LP  0  0  0  0  0  0  0  0  0  0  0  0  # atno 17394 bound_to 11000
  140.3760  134.7564  157.4630 LP  0  0  0  0  0  0  0  0  0  0  0  0  # atno 17395 bound_to 11000

$$$$
