AV-unprocessed.smi:851|AV-procd|sdf|3950|dock7
  -GOLD-   22720 1423D 1   1.00000     0.00000
 Structure written by MMmdl.
 34 35  0  0  0  0  0  0  0  0  1 V2000
  146.5089  129.9340  152.8775 C   0  0  0  0  0  0  0  0  0  0  0  0
  146.6479  131.3408  152.7139 O   0  0  0  0  0  0  0  0  0  0  0  0
  145.7985  131.9916  151.8390 C   0  0  0  0  0  0  0  0  0  0  0  0
  144.8522  131.2640  151.1943 N   0  0  0  0  0  0  0  0  0  0  0  0
  144.0268  131.9000  150.3374 C   0  0  0  0  0  0  0  0  0  0  0  0
  144.1038  133.2801  150.0745 C   0  0  0  0  0  0  0  0  0  0  0  0
  145.0842  134.0369  150.7424 C   0  0  0  0  0  0  0  0  0  0  0  0
  145.9483  133.3857  151.6555 C   0  0  0  0  0  0  0  0  0  0  0  0
  146.9853  134.0423  152.3721 N   0  0  0  0  0  0  0  0  0  0  0  0
  147.3736  133.8754  153.6508 C   0  0  0  0  0  0  0  0  0  0  0  0
  146.8430  133.1092  154.4517 O   0  0  0  0  0  0  0  0  0  0  0  0
  148.4403  134.6177  153.9994 N   0  0  0  0  0  0  0  0  0  0  0  0
  149.1141  134.6773  155.2981 C   0  0  1  0  0  0  0  0  0  0  0  0
  150.2485  133.6389  155.3801 C   0  0  0  0  0  0  0  0  0  0  0  0
  151.1301  133.9671  156.5918 C   0  0  0  0  0  0  0  0  0  0  0  0
  151.0484  135.7866  156.8033 S   0  0  0  0  0  0  0  0  0  0  0  0
  150.5263  136.0863  158.1452 O   0  0  0  0  0  0  0  0  0  0  0  0
  152.2962  136.3979  156.3217 O   0  0  0  0  0  0  0  0  0  0  0  0
  149.7289  136.0615  155.5638 C   0  0  0  0  0  0  0  0  0  0  0  0
  147.2466  129.5814  153.5982 H   0  0  0  0  0  0  0  0  0  0  0  0
  146.6830  129.4044  151.9399 H   0  0  0  0  0  0  0  0  0  0  0  0
  145.5215  129.6717  153.2602 H   0  0  0  0  0  0  0  0  0  0  0  0
  143.2866  131.2893  149.8420 H   0  0  0  0  0  0  0  0  0  0  0  0
  143.4289  133.7471  149.3726 H   0  0  0  0  0  0  0  0  0  0  0  0
  145.1610  135.0917  150.5300 H   0  0  0  0  0  0  0  0  0  0  0  0
  147.5630  134.6566  151.8169 H   0  0  0  0  0  0  0  0  0  0  0  0
  148.8410  135.1926  153.2720 H   0  0  0  0  0  0  0  0  0  0  0  0
  148.4049  134.4472  156.0955 H   0  0  0  0  0  0  0  0  0  0  0  0
  149.8635  132.6200  155.4307 H   0  0  0  0  0  0  0  0  0  0  0  0
  150.8595  133.7033  154.4784 H   0  0  0  0  0  0  0  0  0  0  0  0
  150.7318  133.5059  157.4958 H   0  0  0  0  0  0  0  0  0  0  0  0
  152.1643  133.6470  156.4642 H   0  0  0  0  0  0  0  0  0  0  0  0
  150.1966  136.4642  154.6645 H   0  0  0  0  0  0  0  0  0  0  0  0
  149.0103  136.7909  155.9383 H   0  0  0  0  0  0  0  0  0  0  0  0
  1  2  1  0  0  0  0
  1 20  1  0  0  0  0
  1 21  1  0  0  0  0
  1 22  1  0  0  0  0
  2  3  1  0  0  0  0
  3  8  1  0  0  0  0
  3  4  2  0  0  0  0
  4  5  1  0  0  0  0
  5  6  2  0  0  0  0
  5 23  1  0  0  0  0
  6  7  1  0  0  0  0
  6 24  1  0  0  0  0
  7  8  2  0  0  0  0
  7 25  1  0  0  0  0
  8  9  1  0  0  0  0
  9 10  1  0  0  0  0
  9 26  1  0  0  0  0
 10 11  2  0  0  0  0
 10 12  1  0  0  0  0
 12 13  1  0  0  0  0
 12 27  1  0  0  0  0
 13 19  1  0  0  0  0
 13 14  1  0  0  0  0
 13 28  1  0  0  0  0
 14 15  1  0  0  0  0
 14 29  1  0  0  0  0
 14 30  1  0  0  0  0
 15 16  1  0  0  0  0
 15 31  1  0  0  0  0
 15 32  1  0  0  0  0
 16 17  2  0  0  0  0
 16 18  2  0  0  0  0
 16 19  1  0  0  0  0
 19 33  1  0  0  0  0
 19 34  1  0  0  0  0
M  END
> <s_m_source_file>
AV-unprocessed.smi

> <i_m_source_file_index>
851

> <i_lp_mmshare_version>
43012

> <i_f3d_flags>
0

> <s_epik_input>
W0NIM11PYzFuW2NIXVtjSF1bY0hdYzFbTkhdQyg9TylbTkhdW0NAQEhdKFtDSDJdMilbQ0gyXVtDSDJdUzIoPU8pPU8=

> <s_epik_cmdline>
J2VwaWtfcHl0aG9uJywgJy1waCcsICc3LjAnLCAnLXRuJywgJzgnLCAnLW1hJywgJzIwMCcsICctbWV0YWxfYmluZGluZycsICctaW1hZScsICc8aW5maWxlLm1hZT4nLCAnLW9tYWUnLCAnPG91dGZpbGUubWFlPic=

> <r_lp_tautomer_probability>
1

> <r_epik_Ionization_Penalty>
7.64927e-05

> <r_epik_Ionization_Penalty_Charging>
0

> <r_epik_Ionization_Penalty_Neutral>
7.64927e-05

> <r_epik_State_Penalty>
-0

> <r_epik_Charging_Adjusted_Penalty>
0

> <i_epik_Tot_Q>
0

> <i_epik_Tot_abs_Q>
0

> <r_epik_Metal_State_Penalty>
-0

> <b_epik_Metal_Only>
0

> <s_lp_Force_Field>
OPLS_2005

> <r_lp_Energy>
17.9576

> <b_lp_Chiralities_Consistent>
1

> <s_lp_Variant>
AV-unprocessed.smi:851-2

> <Gold.Version>
5.8.1

> <Gold.Id.Protein>
6NUR|6NUR_protein|mol2

> <Gold.PLP.Fitness>
39.3845

> <Gold.PLP.PLP>
-28.5934

> <Gold.PLP.part.hbond>
-4.0000

> <Gold.PLP.part.metal>
0.0000

> <Gold.PLP.part.buried>
-6.2583

> <Gold.PLP.part.nonpolar>
-19.9461

> <Gold.PLP.part.repulsive>
0.3463

> <Gold.PLP.ligand.clash>
0.5194

> <Gold.PLP.ligand.torsion>
0.6981

> <Gold.PLP.Chemscore.Hbond>
3.5757

> <Gold.PLP.Chemscore.CHOScore>
0.6594

> <Gold.PLP.Chemscore.Metal>
0.0000

> <Gold.Chemscore.Hbonds>
donor molecule, donor type, donor heavy atom, donor atom, acceptor molecule, acceptor atom, score
      L1  H     9    26       P1  7948  0.91
      L1  H    12    27       P1  7948  1.00
      P1  H  6896  6908       L1    17  0.75
      P1  H 10752 10765       L1    18  1.00
      L1  C     5    23       P1 10952  0.69

> <Gold.PLP.Chemscore.Internal.Correction>
0.0013

> <Gold.Rescore>
     Score         DG    S(hbond)    S(metal)    S(lipo)     H(rot)  DE(clash)    DE(int)     intcor
     15.42     -20.33       3.48        0.00      56.35       1.31       0.00       4.91       ----

> <Gold.Chemscore.Fitness>
15.4152

> <Gold.Chemscore.DG>
-20.3264

> <Gold.Chemscore.ZeroCoef>
-5.4800

> <Gold.Chemscore.Hbond>
3.4758

> <Gold.Chemscore.Metal>
0.0000

> <Gold.Chemscore.Lipo>
56.3522

> <Gold.Chemscore.Internal_Hbond>
0.0000

> <Gold.Chemscore.DEClash>
0.0019

> <Gold.Chemscore.DEInternal>
4.9093

> <Gold.Chemscore.Rot>
1.3109

> <Gold.Chemscore.Internal.Correction>
   9.000000E+99

> <Gold.Chemscore.Hbonds>
donor molecule, donor type, donor heavy atom, donor atom, acceptor molecule, acceptor atom, score
      L1  H     9    26       P1  7948  0.41
      L1  H    12    27       P1  7948  0.55
      P1  H  6896  6908       L1    17  0.73
      P1  H 10752 10765       L1    18  0.94

> <Gold.Chemscore.Hbond.Weighted>
-11.6091

> <Gold.Chemscore.Metal.Weighted>
-0.0000

> <Gold.Chemscore.Lipo.Weighted>
-6.5932

> <Gold.Chemscore.Internal_Hbond.Weighted>
0.0000

> <Gold.Chemscore.DEClash.Weighted>
0.0019

> <Gold.Chemscore.DEInternal.Weighted>
4.9093

> <Gold.Chemscore.Rot.Weighted>
3.3559

> <Gold.Chemscore.Internal.Correction.Weighted>
   9.000000E+99

> <Gold.Protein.RotatedTorsions>
[ 6907 6896 6895 6894 ] final -169.58 input  -60.11 | X-H torsion
[ 7974 7965 7964 7962 ] final   53.07 input  175.53 | X-H torsion
[ 8008 7997 7996 7995 ] final   79.70 input   59.86 | X-H torsion
[ 10167 10162 10161 10158 ] final   99.41 input  -65.29 | X-H torsion
[ 10718 10713 10712 10709 ] final -174.62 input   66.30 | X-H torsion
[ 10763 10752 10751 10750 ] final -143.84 input  -60.55 | X-H torsion
[ 11005 11000 10999 10996 ] final  -11.39 input  -57.11 | X-H torsion

> <Gold.Protein.ActiveResidues>
 VAL166  LYS551  ARG553  GLY616  TRP617  ASP618  TYR619  PRO620  LYS621  CYS622 
 ASP623  PHE694  ASN695  SER759  ASP760  ASP761  ALA762  ILE779  LEU786  VAL792 
 PHE793  MET794  SER795  GLU796  ALA797  LYS798  CYS799  TRP800  GLU811  SER814 

> <Gold.Protein.RotatedAtoms>
  151.4940  133.3518  159.2857 H   0  0  0  0  0  0  0  0  0  0  0  0  # atno 6907 bound_to 6896
  150.8816  134.8210  159.7240 H   0  0  0  0  0  0  0  0  0  0  0  0  # atno 6908 bound_to 6896
  152.4766  134.4838  159.9726 H   0  0  0  0  0  0  0  0  0  0  0  0  # atno 6909 bound_to 6896
  145.9749  139.4185  143.0167 H   0  0  0  0  0  0  0  0  0  0  0  0  # atno 7974 bound_to 7965
  155.8733  140.3448  155.5836 H   0  0  0  0  0  0  0  0  0  0  0  0  # atno 8008 bound_to 7997
  155.7802  140.0857  157.2082 H   0  0  0  0  0  0  0  0  0  0  0  0  # atno 8009 bound_to 7997
  154.4019  140.1502  156.3031 H   0  0  0  0  0  0  0  0  0  0  0  0  # atno 8010 bound_to 7997
  139.7620  144.6951  151.0279 H   0  0  0  0  0  0  0  0  0  0  0  0  # atno 10167 bound_to 10162
  156.7878  130.9507  151.3120 H   0  0  0  0  0  0  0  0  0  0  0  0  # atno 10718 bound_to 10713
  154.8453  135.3457  154.6251 H   0  0  0  0  0  0  0  0  0  0  0  0  # atno 10763 bound_to 10752
  153.6860  135.6977  153.5108 H   0  0  0  0  0  0  0  0  0  0  0  0  # atno 10764 bound_to 10752
  153.2631  135.4316  155.0870 H   0  0  0  0  0  0  0  0  0  0  0  0  # atno 10765 bound_to 10752
  140.7548  133.8563  155.9074 H   0  0  0  0  0  0  0  0  0  0  0  0  # atno 11005 bound_to 11000
  145.7853  140.9838  143.1077 LP  0  0  0  0  0  0  0  0  0  0  0  0  # atno 17320 bound_to 7965
  144.6846  139.9615  143.7480 LP  0  0  0  0  0  0  0  0  0  0  0  0  # atno 17321 bound_to 7965
  140.7808  143.4686  151.0177 LP  0  0  0  0  0  0  0  0  0  0  0  0  # atno 17342 bound_to 10162
  139.8372  143.7612  152.3180 LP  0  0  0  0  0  0  0  0  0  0  0  0  # atno 17343 bound_to 10162
  157.6615  130.8970  149.9841 LP  0  0  0  0  0  0  0  0  0  0  0  0  # atno 17370 bound_to 10713
  156.1178  130.3647  149.9939 LP  0  0  0  0  0  0  0  0  0  0  0  0  # atno 17371 bound_to 10713
  140.9718  134.1521  157.4570 LP  0  0  0  0  0  0  0  0  0  0  0  0  # atno 17394 bound_to 11000
  139.8781  134.9981  156.5882 LP  0  0  0  0  0  0  0  0  0  0  0  0  # atno 17395 bound_to 11000

$$$$
