AV-unprocessed.smi:1485|AV-procd|sdf|6004|dock4
  -GOLD-   22720 6103D 1   1.00000     0.00000
 Structure written by MMmdl.
 44 45  0  0  0  0  0  0  0  0  1 V2000
  146.3631  142.5468  162.1151 C   0  0  0  0  0  0  0  0  0  0  0  0
  146.9681  142.2883  160.8605 O   0  0  0  0  0  0  0  0  0  0  0  0
  146.6393  143.2665  159.8871 C   0  0  0  0  0  0  0  0  0  0  0  0
  146.1042  142.5733  158.6172 C   0  0  0  0  0  0  0  0  0  0  0  0
  147.0714  141.6593  157.9827 N   0  0  0  0  0  0  0  0  0  0  0  0
  148.3736  142.1318  157.9442 N   0  0  0  0  0  0  0  0  0  0  0  0
  149.3229  141.4046  157.4525 C   0  0  0  0  0  0  0  0  0  0  0  0
  150.7384  141.8639  157.4596 C   0  0  0  0  0  0  0  0  0  0  0  0
  151.6515  141.1751  157.0019 O   0  0  0  0  0  0  0  0  0  0  0  0
  150.9386  143.0677  158.0246 N   0  0  0  0  0  0  0  0  0  0  0  0
  152.2311  143.7005  158.2718 C   0  0  1  0  0  0  0  0  0  0  0  0
  152.0316  145.0651  158.9585 C   0  0  0  0  0  0  0  0  0  0  0  0
  151.5177  144.9188  160.4016 C   0  0  0  0  0  0  0  0  0  0  0  0
  152.4327  144.0051  161.2320 C   0  0  0  0  0  0  0  0  0  0  0  0
  152.6060  142.6245  160.5711 C   0  0  2  0  0  0  0  0  0  0  0  0
  153.5182  141.7136  161.4043 C   0  0  0  0  0  0  0  0  0  0  0  0
  153.1287  142.7804  159.1265 C   0  0  0  0  0  0  0  0  0  0  0  0
  149.0408  140.0966  156.8894 C   0  0  0  0  0  0  0  0  0  0  0  0
  147.7626  139.6594  156.9000 C   0  0  0  0  0  0  0  0  0  0  0  0
  146.6716  140.4580  157.4632 C   0  0  0  0  0  0  0  0  0  0  0  0
  145.5003  140.0804  157.4628 O   0  0  0  0  0  0  0  0  0  0  0  0
  146.6400  141.7662  162.8235 H   0  0  0  0  0  0  0  0  0  0  0  0
  145.2756  142.5588  162.0345 H   0  0  0  0  0  0  0  0  0  0  0  0
  146.6954  143.5026  162.5225 H   0  0  0  0  0  0  0  0  0  0  0  0
  145.8736  143.9325  160.2876 H   0  0  0  0  0  0  0  0  0  0  0  0
  147.5060  143.8893  159.6583 H   0  0  0  0  0  0  0  0  0  0  0  0
  145.1830  142.0559  158.8891 H   0  0  0  0  0  0  0  0  0  0  0  0
  145.8202  143.3290  157.8840 H   0  0  0  0  0  0  0  0  0  0  0  0
  150.1256  143.5603  158.3660 H   0  0  0  0  0  0  0  0  0  0  0  0
  152.7230  143.8780  157.3140 H   0  0  0  0  0  0  0  0  0  0  0  0
  152.9826  145.5992  158.9723 H   0  0  0  0  0  0  0  0  0  0  0  0
  151.3456  145.6832  158.3778 H   0  0  0  0  0  0  0  0  0  0  0  0
  151.4516  145.9009  160.8706 H   0  0  0  0  0  0  0  0  0  0  0  0
  150.5051  144.5137  160.3955 H   0  0  0  0  0  0  0  0  0  0  0  0
  153.4068  144.4808  161.3530 H   0  0  0  0  0  0  0  0  0  0  0  0
  152.0191  143.8902  162.2344 H   0  0  0  0  0  0  0  0  0  0  0  0
  151.6258  142.1474  160.5303 H   0  0  0  0  0  0  0  0  0  0  0  0
  154.5270  142.1210  161.4772 H   0  0  0  0  0  0  0  0  0  0  0  0
  153.5906  140.7203  160.9607 H   0  0  0  0  0  0  0  0  0  0  0  0
  153.1330  141.5937  162.4174 H   0  0  0  0  0  0  0  0  0  0  0  0
  153.2176  141.8021  158.6523 H   0  0  0  0  0  0  0  0  0  0  0  0
  154.1374  143.1949  159.1514 H   0  0  0  0  0  0  0  0  0  0  0  0
  149.8262  139.4861  156.4677 H   0  0  0  0  0  0  0  0  0  0  0  0
  147.5364  138.6892  156.4822 H   0  0  0  0  0  0  0  0  0  0  0  0
  1  2  1  0  0  0  0
  1 22  1  0  0  0  0
  1 23  1  0  0  0  0
  1 24  1  0  0  0  0
  2  3  1  0  0  0  0
  3  4  1  0  0  0  0
  3 25  1  0  0  0  0
  3 26  1  0  0  0  0
  4  5  1  0  0  0  0
  4 27  1  0  0  0  0
  4 28  1  0  0  0  0
  5 20  1  0  0  0  0
  5  6  1  0  0  0  0
  6  7  2  0  0  0  0
  7  8  1  0  0  0  0
  7 18  1  0  0  0  0
  8  9  2  0  0  0  0
  8 10  1  0  0  0  0
 10 11  1  0  0  0  0
 10 29  1  0  0  0  0
 11 17  1  0  0  0  0
 11 12  1  0  0  0  0
 11 30  1  0  0  0  0
 12 13  1  0  0  0  0
 12 31  1  0  0  0  0
 12 32  1  0  0  0  0
 13 14  1  0  0  0  0
 13 33  1  0  0  0  0
 13 34  1  0  0  0  0
 14 15  1  0  0  0  0
 14 35  1  0  0  0  0
 14 36  1  0  0  0  0
 15 16  1  0  0  0  0
 15 17  1  0  0  0  0
 15 37  1  0  0  0  0
 16 38  1  0  0  0  0
 16 39  1  0  0  0  0
 16 40  1  0  0  0  0
 17 41  1  0  0  0  0
 17 42  1  0  0  0  0
 18 19  2  0  0  0  0
 18 43  1  0  0  0  0
 19 20  1  0  0  0  0
 19 44  1  0  0  0  0
 20 21  2  0  0  0  0
M  END
> <s_m_source_file>
AV-unprocessed.smi

> <i_m_source_file_index>
1485

> <i_lp_mmshare_version>
43012

> <i_f3d_flags>
0

> <s_epik_input>
W0NIM11PW0NIMl1bQ0gyXW4xbmMoW2NIXVtjSF1jMT1PKUMoPU8pW05IXVtDQEBIXTJbQ0gyXVtDSDJdW0NIMl1bQ0BASF0oW0NIM10pW0NIMl0y

> <s_epik_cmdline>
J2VwaWtfcHl0aG9uJywgJy1waCcsICc3LjAnLCAnLXRuJywgJzgnLCAnLW1hJywgJzIwMCcsICctbWV0YWxfYmluZGluZycsICctaW1hZScsICc8aW5maWxlLm1hZT4nLCAnLW9tYWUnLCAnPG91dGZpbGUubWFlPic=

> <r_lp_tautomer_probability>
1

> <r_epik_Ionization_Penalty>
6.4688e-07

> <r_epik_Ionization_Penalty_Charging>
6.63567e-09

> <r_epik_Ionization_Penalty_Neutral>
6.40245e-07

> <r_epik_State_Penalty>
-0

> <r_epik_Charging_Adjusted_Penalty>
6.63567e-09

> <i_epik_Tot_Q>
0

> <i_epik_Tot_abs_Q>
0

> <r_epik_Metal_State_Penalty>
-0

> <b_epik_Metal_Only>
0

> <s_lp_Force_Field>
OPLS_2005

> <r_lp_Energy>
30.8996

> <b_lp_Chiralities_Consistent>
1

> <s_lp_Variant>
AV-unprocessed.smi:1485-4

> <Gold.Version>
5.8.1

> <Gold.Id.Protein>
6NUR|6NUR_protein|mol2

> <Gold.PLP.Fitness>
47.0246

> <Gold.PLP.PLP>
-42.7264

> <Gold.PLP.part.hbond>
-2.0000

> <Gold.PLP.part.metal>
0.0000

> <Gold.PLP.part.buried>
-7.9129

> <Gold.PLP.part.nonpolar>
-33.7420

> <Gold.PLP.part.repulsive>
0.1935

> <Gold.PLP.ligand.clash>
0.0000

> <Gold.PLP.ligand.torsion>
0.6386

> <Gold.PLP.Chemscore.Hbond>
1.8479

> <Gold.PLP.Chemscore.CHOScore>
0.0000

> <Gold.PLP.Chemscore.Metal>
0.0000

> <Gold.Chemscore.Hbonds>
donor molecule, donor type, donor heavy atom, donor atom, acceptor molecule, acceptor atom, score
      P1  H  6933  6944       L1     2  0.40
      P1  H  6934  6946       L1     2  0.53

> <Gold.PLP.Chemscore.Internal.Correction>
0.0318

> <Gold.Rescore>
     Score         DG    S(hbond)    S(metal)    S(lipo)     H(rot)  DE(clash)    DE(int)     intcor
     16.24     -18.19       1.37        0.00     103.37       1.55       0.13       1.82       ----

> <Gold.Chemscore.Fitness>
16.2396

> <Gold.Chemscore.DG>
-18.1924

> <Gold.Chemscore.ZeroCoef>
-5.4800

> <Gold.Chemscore.Hbond>
1.3715

> <Gold.Chemscore.Metal>
0.0000

> <Gold.Chemscore.Lipo>
103.3660

> <Gold.Chemscore.Internal_Hbond>
0.0000

> <Gold.Chemscore.DEClash>
0.1280

> <Gold.Chemscore.DEInternal>
1.8248

> <Gold.Chemscore.Rot>
1.5478

> <Gold.Chemscore.Internal.Correction>
   9.000000E+99

> <Gold.Chemscore.Hbonds>
donor molecule, donor type, donor heavy atom, donor atom, acceptor molecule, acceptor atom, score
      P1  H  6933  6944       L1     2  0.04
      P1  H  6934  6946       L1     2  0.23

> <Gold.Chemscore.Hbond.Weighted>
-4.5809

> <Gold.Chemscore.Metal.Weighted>
-0.0000

> <Gold.Chemscore.Lipo.Weighted>
-12.0938

> <Gold.Chemscore.Internal_Hbond.Weighted>
0.0000

> <Gold.Chemscore.DEClash.Weighted>
0.1280

> <Gold.Chemscore.DEInternal.Weighted>
1.8248

> <Gold.Chemscore.Rot.Weighted>
3.9623

> <Gold.Chemscore.Internal.Correction.Weighted>
   9.000000E+99

> <Gold.Protein.RotatedTorsions>
[ 6907 6896 6895 6894 ] final  117.18 input  -60.11 | X-H torsion
[ 7974 7965 7964 7962 ] final   19.73 input  175.53 | X-H torsion
[ 8008 7997 7996 7995 ] final -128.76 input   59.86 | X-H torsion
[ 10167 10162 10161 10158 ] final  -11.65 input  -65.29 | X-H torsion
[ 10718 10713 10712 10709 ] final  -69.17 input   66.30 | X-H torsion
[ 10763 10752 10751 10750 ] final  112.79 input  -60.55 | X-H torsion
[ 11005 11000 10999 10996 ] final  -89.85 input  -57.11 | X-H torsion

> <Gold.Protein.ActiveResidues>
 VAL166  LYS551  ARG553  GLY616  TRP617  ASP618  TYR619  PRO620  LYS621  CYS622 
 ASP623  PHE694  ASN695  SER759  ASP760  ASP761  ALA762  ILE779  LEU786  VAL792 
 PHE793  MET794  SER795  GLU796  ALA797  LYS798  CYS799  TRP800  GLU811  SER814 

> <Gold.Protein.RotatedAtoms>
  152.4629  133.7860  159.6875 H   0  0  0  0  0  0  0  0  0  0  0  0  # atno 6907 bound_to 6896
  150.8580  133.7676  159.3008 H   0  0  0  0  0  0  0  0  0  0  0  0  # atno 6908 bound_to 6896
  151.5251  135.1071  159.9940 H   0  0  0  0  0  0  0  0  0  0  0  0  # atno 6909 bound_to 6896
  146.2138  139.8271  142.8668 H   0  0  0  0  0  0  0  0  0  0  0  0  # atno 7974 bound_to 7965
  155.2680  140.0439  157.3004 H   0  0  0  0  0  0  0  0  0  0  0  0  # atno 8008 bound_to 7997
  154.5670  140.2363  155.8217 H   0  0  0  0  0  0  0  0  0  0  0  0  # atno 8009 bound_to 7997
  156.2093  140.3003  155.9704 H   0  0  0  0  0  0  0  0  0  0  0  0  # atno 8010 bound_to 7997
  140.7143  143.5617  150.9188 H   0  0  0  0  0  0  0  0  0  0  0  0  # atno 10167 bound_to 10162
  156.0469  130.4307  150.2108 H   0  0  0  0  0  0  0  0  0  0  0  0  # atno 10718 bound_to 10713
  153.4830  135.3675  155.2452 H   0  0  0  0  0  0  0  0  0  0  0  0  # atno 10763 bound_to 10752
  154.8754  135.3959  154.3677 H   0  0  0  0  0  0  0  0  0  0  0  0  # atno 10764 bound_to 10752
  153.4284  135.7082  153.6312 H   0  0  0  0  0  0  0  0  0  0  0  0  # atno 10765 bound_to 10752
  141.1577  133.7655  156.9654 H   0  0  0  0  0  0  0  0  0  0  0  0  # atno 11005 bound_to 11000
  145.3036  141.0201  143.3594 LP  0  0  0  0  0  0  0  0  0  0  0  0  # atno 17320 bound_to 7965
  144.8988  139.4677  143.6643 LP  0  0  0  0  0  0  0  0  0  0  0  0  # atno 17321 bound_to 7965
  139.9342  143.6457  152.3069 LP  0  0  0  0  0  0  0  0  0  0  0  0  # atno 17342 bound_to 10162
  139.6919  144.7646  151.1424 LP  0  0  0  0  0  0  0  0  0  0  0  0  # atno 17343 bound_to 10162
  157.0196  130.9975  151.3343 LP  0  0  0  0  0  0  0  0  0  0  0  0  # atno 17370 bound_to 10713
  157.5353  130.8085  149.7965 LP  0  0  0  0  0  0  0  0  0  0  0  0  # atno 17371 bound_to 10713
  140.1165  134.9444  157.2142 LP  0  0  0  0  0  0  0  0  0  0  0  0  # atno 17394 bound_to 11000
  140.3126  134.3006  155.7263 LP  0  0  0  0  0  0  0  0  0  0  0  0  # atno 17395 bound_to 11000

$$$$
