AV-unprocessed.smi:263|AV-procd|sdf|2005|dock10
  -GOLD-   2262021203D 1   1.00000     0.00000
 Structure written by MMmdl.
 57 61  0  0  0  0  0  0  0  0  1 V2000
  149.9197  142.5487  158.4439 O   0  0  0  0  0  0  0  0  0  0  0  0
  151.1463  142.6255  157.7383 C   0  0  0  0  0  0  0  0  0  0  0  0
  150.9221  142.0302  156.3256 C   0  0  0  0  0  0  0  0  0  0  0  0
  150.7193  140.5896  156.3135 N   0  0  0  0  0  0  0  0  0  0  0  0
  149.6947  139.8970  156.9180 C   0  0  0  0  0  0  0  0  0  0  0  0
  149.7324  138.6017  156.7655 N   0  0  0  0  0  0  0  0  0  0  0  0
  150.8611  138.3842  155.9837 C   0  0  0  0  0  0  0  0  0  0  0  0
  151.4876  137.2231  155.4489 C   0  0  0  0  0  0  0  0  0  0  0  0
  150.9927  135.9730  155.6330 N   0  0  0  0  0  0  0  0  0  0  0  0
  151.7505  135.1523  156.5751 C   0  0  0  0  0  0  0  0  0  0  0  0
  151.4033  133.6625  156.4112 C   0  0  0  0  0  0  0  0  0  0  0  0
  149.8795  133.4059  156.4893 C   0  0  2  0  0  0  0  0  0  0  0  0
  149.4701  133.6846  157.8166 O   0  0  0  0  0  0  0  0  0  0  0  0
  149.5129  131.9246  156.2354 C   0  0  0  0  0  0  0  0  0  0  0  0
  149.6577  131.5132  154.7610 C   0  0  0  0  0  0  0  0  0  0  0  0
  148.8492  132.4429  153.8462 C   0  0  0  0  0  0  0  0  0  0  0  0
  149.2557  133.9096  154.0489 C   0  0  0  0  0  0  0  0  0  0  0  0
  149.1102  134.3494  155.5229 C   0  0  2  0  0  0  0  0  0  0  0  0
  149.5384  135.8212  155.7105 C   0  0  0  0  0  0  0  0  0  0  0  0
  152.6246  137.4044  154.7245 N   0  0  0  0  0  0  0  0  0  0  0  0
  153.1097  138.6334  154.5250 C   0  0  0  0  0  0  0  0  0  0  0  0
  152.6270  139.8010  154.9536 N   0  0  0  0  0  0  0  0  0  0  0  0
  151.4938  139.6257  155.6918 C   0  0  0  0  0  0  0  0  0  0  0  0
  151.5880  144.1048  157.6977 C   0  0  0  0  0  0  0  0  0  0  0  0
  152.0087  144.6212  159.0852 C   0  0  0  0  0  0  0  0  0  0  0  0
  153.0255  143.7893  159.6302 O   0  0  0  0  0  0  0  0  0  0  0  0
  152.5832  142.4548  159.8467 C   0  0  0  0  0  0  0  0  0  0  0  0
  152.2017  141.8037  158.5054 C   0  0  0  0  0  0  0  0  0  0  0  0
  149.8018  143.3491  158.9325 H   0  0  0  0  0  0  0  0  0  0  0  0
  150.0497  142.4931  155.8621 H   0  0  0  0  0  0  0  0  0  0  0  0
  151.7671  142.2630  155.6758 H   0  0  0  0  0  0  0  0  0  0  0  0
  148.9168  140.3858  157.4866 H   0  0  0  0  0  0  0  0  0  0  0  0
  152.8241  135.2843  156.4467 H   0  0  0  0  0  0  0  0  0  0  0  0
  151.5188  135.4817  157.5887 H   0  0  0  0  0  0  0  0  0  0  0  0
  151.7918  133.3256  155.4503 H   0  0  0  0  0  0  0  0  0  0  0  0
  151.9273  133.0766  157.1675 H   0  0  0  0  0  0  0  0  0  0  0  0
  148.5710  133.4118  157.9169 H   0  0  0  0  0  0  0  0  0  0  0  0
  150.1207  131.2712  156.8629 H   0  0  0  0  0  0  0  0  0  0  0  0
  148.4778  131.7509  156.5348 H   0  0  0  0  0  0  0  0  0  0  0  0
  150.7073  131.5261  154.4672 H   0  0  0  0  0  0  0  0  0  0  0  0
  149.3192  130.4848  154.6322 H   0  0  0  0  0  0  0  0  0  0  0  0
  148.9964  132.1580  152.8041 H   0  0  0  0  0  0  0  0  0  0  0  0
  147.7844  132.3253  154.0515 H   0  0  0  0  0  0  0  0  0  0  0  0
  150.2837  134.0471  153.7125 H   0  0  0  0  0  0  0  0  0  0  0  0
  148.6416  134.5462  153.4113 H   0  0  0  0  0  0  0  0  0  0  0  0
  148.0471  134.2864  155.7607 H   0  0  0  0  0  0  0  0  0  0  0  0
  149.1989  136.1832  156.6822 H   0  0  0  0  0  0  0  0  0  0  0  0
  149.0529  136.4414  154.9557 H   0  0  0  0  0  0  0  0  0  0  0  0
  154.0143  138.6886  153.9376 H   0  0  0  0  0  0  0  0  0  0  0  0
  152.4334  144.2094  157.0166 H   0  0  0  0  0  0  0  0  0  0  0  0
  150.7930  144.7373  157.3009 H   0  0  0  0  0  0  0  0  0  0  0  0
  152.3950  145.6372  159.0016 H   0  0  0  0  0  0  0  0  0  0  0  0
  151.1550  144.6642  159.7632 H   0  0  0  0  0  0  0  0  0  0  0  0
  153.3890  141.8912  160.3173 H   0  0  0  0  0  0  0  0  0  0  0  0
  151.7438  142.4444  160.5436 H   0  0  0  0  0  0  0  0  0  0  0  0
  151.8493  140.7848  158.6707 H   0  0  0  0  0  0  0  0  0  0  0  0
  153.1037  141.7185  157.8977 H   0  0  0  0  0  0  0  0  0  0  0  0
  1  2  1  0  0  0  0
  1 29  1  0  0  0  0
  2 28  1  0  0  0  0
  2  3  1  0  0  0  0
  2 24  1  0  0  0  0
  3  4  1  0  0  0  0
  3 30  1  0  0  0  0
  3 31  1  0  0  0  0
  4 23  1  0  0  0  0
  4  5  1  0  0  0  0
  5  6  2  0  0  0  0
  5 32  1  0  0  0  0
  6  7  1  0  0  0  0
  7 23  2  0  0  0  0
  7  8  1  0  0  0  0
  8  9  1  0  0  0  0
  8 20  2  0  0  0  0
  9 19  1  0  0  0  0
  9 10  1  0  0  0  0
 10 11  1  0  0  0  0
 10 33  1  0  0  0  0
 10 34  1  0  0  0  0
 11 12  1  0  0  0  0
 11 35  1  0  0  0  0
 11 36  1  0  0  0  0
 12 18  1  0  0  0  0
 12 13  1  0  0  0  0
 12 14  1  0  0  0  0
 13 37  1  0  0  0  0
 14 15  1  0  0  0  0
 14 38  1  0  0  0  0
 14 39  1  0  0  0  0
 15 16  1  0  0  0  0
 15 40  1  0  0  0  0
 15 41  1  0  0  0  0
 16 17  1  0  0  0  0
 16 42  1  0  0  0  0
 16 43  1  0  0  0  0
 17 18  1  0  0  0  0
 17 44  1  0  0  0  0
 17 45  1  0  0  0  0
 18 19  1  0  0  0  0
 18 46  1  0  0  0  0
 19 47  1  0  0  0  0
 19 48  1  0  0  0  0
 20 21  1  0  0  0  0
 21 22  2  0  0  0  0
 21 49  1  0  0  0  0
 22 23  1  0  0  0  0
 24 25  1  0  0  0  0
 24 50  1  0  0  0  0
 24 51  1  0  0  0  0
 25 26  1  0  0  0  0
 25 52  1  0  0  0  0
 25 53  1  0  0  0  0
 26 27  1  0  0  0  0
 27 28  1  0  0  0  0
 27 54  1  0  0  0  0
 27 55  1  0  0  0  0
 28 56  1  0  0  0  0
 28 57  1  0  0  0  0
M  END
> <s_m_source_file>
AV-unprocessed.smi

> <i_m_source_file_index>
263

> <i_lp_mmshare_version>
43012

> <i_f3d_flags>
0

> <s_epik_input>
W0NIMl0xW0NIMl1PW0NIMl1bQ0gyXUMxKFtPSF0pW0NIMl1uKFtjSF1uMiljKGMyMyluW2NIXW5jM04oW0NIMl1bQ0gyXTQpW0NIMl1bQ0BASF0oW0NAXTQ1W09IXSlbQ0gyXVtDSDJdW0NIMl1bQ0gyXTU=

> <s_epik_cmdline>
J2VwaWtfcHl0aG9uJywgJy1waCcsICc3LjAnLCAnLXRuJywgJzgnLCAnLW1hJywgJzIwMCcsICctbWV0YWxfYmluZGluZycsICctaW1hZScsICc8aW5maWxlLm1hZT4nLCAnLW9tYWUnLCAnPG91dGZpbGUubWFlPic=

> <r_lp_tautomer_probability>
1

> <r_epik_Ionization_Penalty>
0.00747493

> <r_epik_Ionization_Penalty_Charging>
0

> <r_epik_Ionization_Penalty_Neutral>
0.00747493

> <r_epik_State_Penalty>
0.00549307

> <r_epik_Charging_Adjusted_Penalty>
0.00549307

> <i_epik_Tot_Q>
0

> <i_epik_Tot_abs_Q>
0

> <r_epik_Metal_State_Penalty>
-0

> <b_epik_Metal_Only>
0

> <s_lp_Force_Field>
OPLS_2005

> <r_lp_Energy>
40.0447

> <b_lp_Chiralities_Consistent>
1

> <s_lp_Variant>
AV-unprocessed.smi:263-3

> <Gold.Version>
5.8.1

> <Gold.Id.Protein>
6NUR|6NUR_protein|mol2

> <Gold.PLP.Fitness>
55.0438

> <Gold.PLP.PLP>
-48.6096

> <Gold.PLP.part.hbond>
-4.0611

> <Gold.PLP.part.metal>
0.0000

> <Gold.PLP.part.buried>
-5.1951

> <Gold.PLP.part.nonpolar>
-40.9157

> <Gold.PLP.part.repulsive>
0.1745

> <Gold.PLP.ligand.clash>
0.0000

> <Gold.PLP.ligand.torsion>
0.6050

> <Gold.PLP.Chemscore.Hbond>
2.4229

> <Gold.PLP.Chemscore.CHOScore>
0.0000

> <Gold.PLP.Chemscore.Metal>
0.0000

> <Gold.Chemscore.Hbonds>
donor molecule, donor type, donor heavy atom, donor atom, acceptor molecule, acceptor atom, score
      P1  H  6896  6909       L1    13  1.00
      P1  H  7989  7998       L1    22  0.39
      P1  H  7997  8008       L1    22  0.43
      P1  H 10752 10763       L1    20  0.48

> <Gold.PLP.Chemscore.Internal.Correction>
0.3754

> <Gold.Rescore>
     Score         DG    S(hbond)    S(metal)    S(lipo)     H(rot)  DE(clash)    DE(int)     intcor
     16.93     -18.72       2.73        0.00      92.53       2.62       0.02       1.76       ----

> <Gold.Chemscore.Fitness>
16.9330

> <Gold.Chemscore.DG>
-18.7158

> <Gold.Chemscore.ZeroCoef>
-5.4800

> <Gold.Chemscore.Hbond>
2.7323

> <Gold.Chemscore.Metal>
0.0000

> <Gold.Chemscore.Lipo>
92.5261

> <Gold.Chemscore.Internal_Hbond>
0.0000

> <Gold.Chemscore.DEClash>
0.0211

> <Gold.Chemscore.DEInternal>
1.7616

> <Gold.Chemscore.Rot>
2.6232

> <Gold.Chemscore.Internal.Correction>
   9.000000E+99

> <Gold.Chemscore.Hbonds>
donor molecule, donor type, donor heavy atom, donor atom, acceptor molecule, acceptor atom, score
      P1  H  6896  6909       L1    13  0.98
      P1  H  7989  7998       L1    22  0.03
      P1  H  7997  8008       L1    22  0.02
      P1  H 10752 10763       L1    20  0.09

> <Gold.Chemscore.Hbond.Weighted>
-9.1257

> <Gold.Chemscore.Metal.Weighted>
-0.0000

> <Gold.Chemscore.Lipo.Weighted>
-10.8256

> <Gold.Chemscore.Internal_Hbond.Weighted>
0.0000

> <Gold.Chemscore.DEClash.Weighted>
0.0211

> <Gold.Chemscore.DEInternal.Weighted>
1.7616

> <Gold.Chemscore.Rot.Weighted>
6.7155

> <Gold.Chemscore.Internal.Correction.Weighted>
   9.000000E+99

> <Gold.Protein.RotatedTorsions>
[ 6907 6896 6895 6894 ] final    6.68 input  -60.11 | X-H torsion
[ 7974 7965 7964 7962 ] final -163.72 input  175.53 | X-H torsion
[ 8008 7997 7996 7995 ] final  -19.42 input   59.86 | X-H torsion
[ 10167 10162 10161 10158 ] final    7.14 input  -65.29 | X-H torsion
[ 10718 10713 10712 10709 ] final  -74.09 input   66.30 | X-H torsion
[ 10763 10752 10751 10750 ] final   45.72 input  -60.55 | X-H torsion
[ 11005 11000 10999 10996 ] final  114.91 input  -57.11 | X-H torsion

> <Gold.Protein.ActiveResidues>
 VAL166  LYS551  ARG553  GLY616  TRP617  ASP618  TYR619  PRO620  LYS621  CYS622 
 ASP623  PHE694  ASN695  SER759  ASP760  ASP761  ALA762  ILE779  LEU786  VAL792 
 PHE793  MET794  SER795  GLU796  ALA797  LYS798  CYS799  TRP800  GLU811  SER814 

> <Gold.Protein.RotatedAtoms>
  151.6777  135.0966  160.0209 H   0  0  0  0  0  0  0  0  0  0  0  0  # atno 6907 bound_to 6896
  152.3854  133.6600  159.6203 H   0  0  0  0  0  0  0  0  0  0  0  0  # atno 6908 bound_to 6896
  150.7781  133.8960  159.3368 H   0  0  0  0  0  0  0  0  0  0  0  0  # atno 6909 bound_to 6896
  144.7317  140.3065  143.6195 H   0  0  0  0  0  0  0  0  0  0  0  0  # atno 7974 bound_to 7965
  154.4838  140.2089  155.9703 H   0  0  0  0  0  0  0  0  0  0  0  0  # atno 8008 bound_to 7997
  156.1205  140.3214  155.8170 H   0  0  0  0  0  0  0  0  0  0  0  0  # atno 8009 bound_to 7997
  155.4476  140.0514  157.2995 H   0  0  0  0  0  0  0  0  0  0  0  0  # atno 8010 bound_to 7997
  140.6388  143.7822  150.7398 H   0  0  0  0  0  0  0  0  0  0  0  0  # atno 10167 bound_to 10162
  156.0255  130.4409  150.2840 H   0  0  0  0  0  0  0  0  0  0  0  0  # atno 10718 bound_to 10713
  152.9820  135.6031  154.3482 H   0  0  0  0  0  0  0  0  0  0  0  0  # atno 10763 bound_to 10752
  154.3174  135.2770  155.2538 H   0  0  0  0  0  0  0  0  0  0  0  0  # atno 10764 bound_to 10752
  154.4720  135.5939  153.6384 H   0  0  0  0  0  0  0  0  0  0  0  0  # atno 10765 bound_to 10752
  139.8994  134.9575  156.6965 H   0  0  0  0  0  0  0  0  0  0  0  0  # atno 11005 bound_to 11000
  145.7708  139.1856  143.2214 LP  0  0  0  0  0  0  0  0  0  0  0  0  # atno 17320 bound_to 7965
  146.0912  140.7653  142.9594 LP  0  0  0  0  0  0  0  0  0  0  0  0  # atno 17321 bound_to 7965
  140.1449  143.4408  152.2169 LP  0  0  0  0  0  0  0  0  0  0  0  0  # atno 17342 bound_to 10162
  139.5598  144.7398  151.4188 LP  0  0  0  0  0  0  0  0  0  0  0  0  # atno 17343 bound_to 10162
  157.0944  131.0178  151.3109 LP  0  0  0  0  0  0  0  0  0  0  0  0  # atno 17370 bound_to 10713
  157.4829  130.7776  149.7432 LP  0  0  0  0  0  0  0  0  0  0  0  0  # atno 17371 bound_to 10713
  140.7184  133.9162  155.8130 LP  0  0  0  0  0  0  0  0  0  0  0  0  # atno 17394 bound_to 11000
  141.0246  134.0841  157.4082 LP  0  0  0  0  0  0  0  0  0  0  0  0  # atno 17395 bound_to 11000

$$$$
