AV-unprocessed.smi:3335|AV-procd|sdf|12842|dock1
  -GOLD-   2272019223D 1   1.00000     0.00000
 Structure written by MMmdl.
 47 48  0  0  0  0  0  0  0  0  2 V2000
  141.5392  136.9125  152.5646 C   0  0  0  0  0  0  0  0  0  0  0  0
  143.0199  136.8976  152.8136 C   0  0  0  0  0  0  0  0  0  0  0  0
  143.7291  136.1914  153.8257 C   0  0  0  0  0  0  0  0  0  0  0  0
  145.0349  136.3963  153.7749 N   0  0  0  0  0  0  0  0  0  0  0  0
  145.2094  137.2294  152.7249 N   0  0  0  0  0  0  0  0  0  0  0  0
  146.5442  137.6949  152.3640 C   0  0  1  0  0  0  0  0  0  0  0  0
  146.4708  138.4844  151.0436 C   0  0  0  0  0  0  0  0  0  0  0  0
  147.2093  138.4927  153.5189 C   0  0  2  0  0  0  0  0  0  0  0  0
  146.5881  139.8911  153.6984 C   0  0  0  0  0  0  0  0  0  0  0  0
  148.6655  138.6244  153.2673 N   0  3  0  0  0  0  0  0  0  0  0  0
  149.5281  138.7975  154.4604 C   0  0  1  0  0  0  0  0  0  0  0  0
  150.8709  138.0670  154.2683 C   0  0  0  0  0  0  0  0  0  0  0  0
  149.7805  140.2952  154.7203 C   0  0  0  0  0  0  0  0  0  0  0  0
  149.5697  141.0990  153.8099 O   0  0  0  0  0  0  0  0  0  0  0  0
  150.2455  140.6944  155.9251 N   0  0  0  0  0  0  0  0  0  0  0  0
  150.4771  139.7700  157.0346 C   0  0  0  0  0  0  0  0  0  0  0  0
  150.6776  140.6448  158.2714 C   0  0  0  0  0  0  0  0  0  0  0  0
  151.2068  141.9570  157.7131 C   0  0  0  0  0  0  0  0  0  0  0  0
  150.5663  142.0652  156.3283 C   0  0  0  0  0  0  0  0  0  0  0  0
  144.0060  137.5555  152.1347 C   0  0  0  0  0  0  0  0  0  0  0  0
  140.9737  136.7290  153.4784 H   0  0  0  0  0  0  0  0  0  0  0  0
  141.2455  136.1480  151.8453 H   0  0  0  0  0  0  0  0  0  0  0  0
  141.2052  137.8721  152.1693 H   0  0  0  0  0  0  0  0  0  0  0  0
  143.3356  135.5412  154.5932 H   0  0  0  0  0  0  0  0  0  0  0  0
  147.1470  136.8039  152.1801 H   0  0  0  0  0  0  0  0  0  0  0  0
  147.4616  138.7028  150.6468 H   0  0  0  0  0  0  0  0  0  0  0  0
  145.9452  139.4311  151.1731 H   0  0  0  0  0  0  0  0  0  0  0  0
  145.9418  137.9155  150.2782 H   0  0  0  0  0  0  0  0  0  0  0  0
  147.0598  137.9353  154.4437 H   0  0  0  0  0  0  0  0  0  0  0  0
  145.5369  139.8312  153.9782 H   0  0  0  0  0  0  0  0  0  0  0  0
  146.6562  140.4756  152.7805 H   0  0  0  0  0  0  0  0  0  0  0  0
  147.0870  140.4559  154.4856 H   0  0  0  0  0  0  0  0  0  0  0  0
  148.9831  137.7922  152.7907 H   0  0  0  0  0  0  0  0  0  0  0  0
  149.0029  138.3677  155.3107 H   0  0  0  0  0  0  0  0  0  0  0  0
  151.5343  138.2165  155.1203 H   0  0  0  0  0  0  0  0  0  0  0  0
  151.3929  138.4219  153.3785 H   0  0  0  0  0  0  0  0  0  0  0  0
  150.7336  136.9913  154.1594 H   0  0  0  0  0  0  0  0  0  0  0  0
  149.6483  139.0742  157.1752 H   0  0  0  0  0  0  0  0  0  0  0  0
  151.3766  139.1882  156.8276 H   0  0  0  0  0  0  0  0  0  0  0  0
  149.7167  140.8164  158.7587 H   0  0  0  0  0  0  0  0  0  0  0  0
  151.3481  140.1944  159.0040 H   0  0  0  0  0  0  0  0  0  0  0  0
  150.9798  142.8110  158.3523 H   0  0  0  0  0  0  0  0  0  0  0  0
  152.2913  141.8965  157.6107 H   0  0  0  0  0  0  0  0  0  0  0  0
  151.2512  142.5543  155.6352 H   0  0  0  0  0  0  0  0  0  0  0  0
  149.6495  142.6533  156.3796 H   0  0  0  0  0  0  0  0  0  0  0  0
  143.9501  138.2221  151.2864 H   0  0  0  0  0  0  0  0  0  0  0  0
  148.8054  139.4120  152.6506 H   0  0  0  0  0  0  0  0  0  0  0  0
  1  2  1  0  0  0  0
  1 21  1  0  0  0  0
  1 22  1  0  0  0  0
  1 23  1  0  0  0  0
  2 20  2  0  0  0  0
  2  3  1  0  0  0  0
  3  4  2  0  0  0  0
  3 24  1  0  0  0  0
  4  5  1  0  0  0  0
  5  6  1  0  0  0  0
  5 20  1  0  0  0  0
  6  7  1  0  0  0  0
  6  8  1  0  0  0  0
  6 25  1  0  0  0  0
  7 26  1  0  0  0  0
  7 27  1  0  0  0  0
  7 28  1  0  0  0  0
  8  9  1  0  0  0  0
  8 10  1  0  0  0  0
  8 29  1  0  0  0  0
  9 30  1  0  0  0  0
  9 31  1  0  0  0  0
  9 32  1  0  0  0  0
 10 11  1  0  0  0  0
 10 33  1  0  0  0  0
 10 47  1  0  0  0  0
 11 12  1  0  0  0  0
 11 13  1  0  0  0  0
 11 34  1  0  0  0  0
 12 35  1  0  0  0  0
 12 36  1  0  0  0  0
 12 37  1  0  0  0  0
 13 14  2  0  0  0  0
 13 15  1  0  0  0  0
 15 19  1  0  0  0  0
 15 16  1  0  0  0  0
 16 17  1  0  0  0  0
 16 38  1  0  0  0  0
 16 39  1  0  0  0  0
 17 18  1  0  0  0  0
 17 40  1  0  0  0  0
 17 41  1  0  0  0  0
 18 19  1  0  0  0  0
 18 42  1  0  0  0  0
 18 43  1  0  0  0  0
 19 44  1  0  0  0  0
 19 45  1  0  0  0  0
 20 46  1  0  0  0  0
M  CHG  1  10   1
M  END
> <s_m_source_file>
AV-unprocessed.smi

> <i_m_source_file_index>
3335

> <i_lp_mmshare_version>
43012

> <i_f3d_flags>
0

> <s_epik_input>
W0NIM11jMVtjSF1ubihbY0hdMSlbQ0BIXShbQ0gzXSlbQ0BIXShbQ0gzXSlbTkhdW0NASF0oW0NIM10pQyg9TylOMltDSDJdW0NIMl1bQ0gyXVtDSDJdMg==

> <s_epik_cmdline>
J2VwaWtfcHl0aG9uJywgJy1waCcsICc3LjAnLCAnLXRuJywgJzgnLCAnLW1hJywgJzIwMCcsICctbWV0YWxfYmluZGluZycsICctaW1hZScsICc8aW5maWxlLm1hZT4nLCAnLW9tYWUnLCAnPG91dGZpbGUubWFlPic=

> <r_lp_tautomer_probability>
1

> <r_epik_Ionization_Penalty>
0.14175

> <r_epik_Ionization_Penalty_Charging>
0.141731

> <r_epik_Ionization_Penalty_Neutral>
1.91261e-05

> <r_epik_State_Penalty>
0.131043

> <r_epik_Charging_Adjusted_Penalty>
0.272773

> <i_epik_Tot_Q>
1

> <i_epik_Tot_abs_Q>
1

> <r_epik_Metal_State_Penalty>
0.131408

> <b_epik_Metal_Only>
0

> <s_lp_Force_Field>
OPLS_2005

> <r_lp_Energy>
36.2431

> <b_lp_Chiralities_Consistent>
1

> <s_lp_Variant>
AV-unprocessed.smi:3335-6

> <Gold.Version>
5.8.1

> <Gold.Id.Protein>
6NUR|6NUR_protein|mol2

> <Gold.PLP.Fitness>
44.9833

> <Gold.PLP.PLP>
-30.9516

> <Gold.PLP.part.hbond>
-4.0000

> <Gold.PLP.part.metal>
0.0000

> <Gold.PLP.part.buried>
1.0414

> <Gold.PLP.part.nonpolar>
-28.8123

> <Gold.PLP.part.repulsive>
1.8049

> <Gold.PLP.ligand.clash>
0.0000

> <Gold.PLP.ligand.torsion>
1.3774

> <Gold.PLP.Chemscore.Hbond>
3.7200

> <Gold.PLP.Chemscore.CHOScore>
1.7711

> <Gold.PLP.Chemscore.Metal>
0.0000

> <Gold.Chemscore.Hbonds>
donor molecule, donor type, donor heavy atom, donor atom, acceptor molecule, acceptor atom, score
      L1  H    10    33       P1  7948  2.00
      L1  H    10    47       P1  7957  0.93
      P1  H  7989  7998       L1    14  0.06
      P1  H  8011  8017       L1    14  0.91
      L1  C    20    46       P1 10175  0.43

> <Gold.PLP.Chemscore.Internal.Correction>
0.3131

> <Gold.Rescore>
     Score         DG    S(hbond)    S(metal)    S(lipo)     H(rot)  DE(clash)    DE(int)     intcor
     16.36     -18.49       2.59        0.00      73.86       1.68       0.56       1.57       ----

> <Gold.Chemscore.Fitness>
16.3572

> <Gold.Chemscore.DG>
-18.4871

> <Gold.Chemscore.ZeroCoef>
-5.4800

> <Gold.Chemscore.Hbond>
2.5931

> <Gold.Chemscore.Metal>
0.0000

> <Gold.Chemscore.Lipo>
73.8564

> <Gold.Chemscore.Internal_Hbond>
0.0000

> <Gold.Chemscore.DEClash>
0.5580

> <Gold.Chemscore.DEInternal>
1.5720

> <Gold.Chemscore.Rot>
1.6778

> <Gold.Chemscore.Internal.Correction>
   9.000000E+99

> <Gold.Chemscore.Hbonds>
donor molecule, donor type, donor heavy atom, donor atom, acceptor molecule, acceptor atom, score
      L1  H    10    33       P1  7948  1.00
      L1  H    10    47       P1  7957  0.90
      P1  H  8011  8017       L1    14  0.85

> <Gold.Chemscore.Hbond.Weighted>
-8.6611

> <Gold.Chemscore.Metal.Weighted>
-0.0000

> <Gold.Chemscore.Lipo.Weighted>
-8.6412

> <Gold.Chemscore.Internal_Hbond.Weighted>
0.0000

> <Gold.Chemscore.DEClash.Weighted>
0.5580

> <Gold.Chemscore.DEInternal.Weighted>
1.5720

> <Gold.Chemscore.Rot.Weighted>
4.2952

> <Gold.Chemscore.Internal.Correction.Weighted>
   9.000000E+99

> <Gold.Protein.RotatedTorsions>
[ 6907 6896 6895 6894 ] final  -80.03 input  -60.11 | X-H torsion
[ 7974 7965 7964 7962 ] final  -96.35 input  175.53 | X-H torsion
[ 8008 7997 7996 7995 ] final  -46.77 input   59.86 | X-H torsion
[ 10167 10162 10161 10158 ] final   91.45 input  -65.29 | X-H torsion
[ 10718 10713 10712 10709 ] final -176.48 input   66.30 | X-H torsion
[ 10763 10752 10751 10750 ] final  163.76 input  -60.55 | X-H torsion
[ 11005 11000 10999 10996 ] final  -80.94 input  -57.11 | X-H torsion

> <Gold.Protein.ActiveResidues>
 VAL166  LYS551  ARG553  GLY616  TRP617  ASP618  TYR619  PRO620  LYS621  CYS622 
 ASP623  PHE694  ASN695  SER759  ASP760  ASP761  ALA762  ILE779  LEU786  VAL792 
 PHE793  MET794  SER795  GLU796  ALA797  LYS798  CYS799  TRP800  GLU811  SER814 

> <Gold.Protein.RotatedAtoms>
  150.6937  134.4031  159.5127 H   0  0  0  0  0  0  0  0  0  0  0  0  # atno 6907 bound_to 6896
  152.1801  134.8758  160.0536 H   0  0  0  0  0  0  0  0  0  0  0  0  # atno 6908 bound_to 6896
  151.9752  133.3704  159.4123 H   0  0  0  0  0  0  0  0  0  0  0  0  # atno 6909 bound_to 6896
  145.3480  140.9471  143.2570 H   0  0  0  0  0  0  0  0  0  0  0  0  # atno 7974 bound_to 7965
  154.4010  140.1363  156.4066 H   0  0  0  0  0  0  0  0  0  0  0  0  # atno 8008 bound_to 7997
  155.7773  140.3482  155.5258 H   0  0  0  0  0  0  0  0  0  0  0  0  # atno 8009 bound_to 7997
  155.8708  140.0971  157.1542 H   0  0  0  0  0  0  0  0  0  0  0  0  # atno 8010 bound_to 7997
  139.8373  144.6658  150.9326 H   0  0  0  0  0  0  0  0  0  0  0  0  # atno 10167 bound_to 10162
  156.8153  130.9601  151.3114 H   0  0  0  0  0  0  0  0  0  0  0  0  # atno 10718 bound_to 10713
  154.2987  135.2759  155.2621 H   0  0  0  0  0  0  0  0  0  0  0  0  # atno 10763 bound_to 10752
  154.5068  135.5793  153.6577 H   0  0  0  0  0  0  0  0  0  0  0  0  # atno 10764 bound_to 10752
  152.9903  135.6171  154.3156 H   0  0  0  0  0  0  0  0  0  0  0  0  # atno 10765 bound_to 10752
  141.1667  133.7173  156.8349 H   0  0  0  0  0  0  0  0  0  0  0  0  # atno 11005 bound_to 11000
  144.8739  139.4999  143.6755 LP  0  0  0  0  0  0  0  0  0  0  0  0  # atno 17320 bound_to 7965
  146.2980  139.7336  142.9112 LP  0  0  0  0  0  0  0  0  0  0  0  0  # atno 17321 bound_to 7965
  140.7801  143.3945  151.1254 LP  0  0  0  0  0  0  0  0  0  0  0  0  # atno 17342 bound_to 10162
  139.7594  143.8659  152.3096 LP  0  0  0  0  0  0  0  0  0  0  0  0  # atno 17343 bound_to 10162
  157.6485  130.8864  149.9585 LP  0  0  0  0  0  0  0  0  0  0  0  0  # atno 17370 bound_to 10713
  156.1020  130.3655  150.0201 LP  0  0  0  0  0  0  0  0  0  0  0  0  # atno 17371 bound_to 10713
  140.2025  134.8887  157.3185 LP  0  0  0  0  0  0  0  0  0  0  0  0  # atno 17394 bound_to 11000
  140.2172  134.4067  155.7583 LP  0  0  0  0  0  0  0  0  0  0  0  0  # atno 17395 bound_to 11000

$$$$
