AV-unprocessed.smi:1044|AV-procd|sdf|4543|dock4
  -GOLD-   22720 2573D 1   1.00000     0.00000
 Structure written by MMmdl.
 45 46  0  0  0  0  0  0  0  0  1 V2000
  146.0286  133.5978  150.9148 C   0  0  0  0  0  0  0  0  0  0  0  0
  146.6116  132.6508  151.9666 C   0  0  0  0  0  0  0  0  0  0  0  0
  147.6851  133.3115  152.6298 O   0  0  0  0  0  0  0  0  0  0  0  0
  148.5079  132.5743  153.4601 C   0  0  0  0  0  0  0  0  0  0  0  0
  148.3712  131.2245  153.4712 N   0  0  0  0  0  0  0  0  0  0  0  0
  149.1773  130.5031  154.2764 C   0  0  0  0  0  0  0  0  0  0  0  0
  150.1584  131.0818  155.1018 C   0  0  0  0  0  0  0  0  0  0  0  0
  150.3016  132.4819  155.0931 C   0  0  0  0  0  0  0  0  0  0  0  0
  149.4533  133.2544  154.2629 C   0  0  0  0  0  0  0  0  0  0  0  0
  149.5230  134.6716  154.1585 N   0  0  0  0  0  0  0  0  0  0  0  0
  150.1241  135.5497  154.9792 C   0  0  0  0  0  0  0  0  0  0  0  0
  150.7163  135.2650  156.0200 O   0  0  0  0  0  0  0  0  0  0  0  0
  149.9828  136.8044  154.5288 N   0  0  0  0  0  0  0  0  0  0  0  0
  150.5127  137.9974  155.1813 C   0  0  1  0  0  0  0  0  0  0  0  0
  149.8950  139.2533  154.5510 C   0  0  0  0  0  0  0  0  0  0  0  0
  150.4323  140.5027  155.2575 C   0  0  0  0  0  0  0  0  0  0  0  0
  150.1689  140.4435  156.7720 C   0  0  0  0  0  0  0  0  0  0  0  0
  150.6845  139.1942  157.3692 N   0  0  0  0  0  0  0  0  0  0  0  0
  152.1861  139.2026  158.2487 S   0  0  0  0  0  0  0  0  0  0  0  0
  152.1366  140.7720  159.2061 C   0  0  0  0  0  0  0  0  0  0  0  0
  152.1570  138.0817  159.2006 O   0  0  0  0  0  0  0  0  0  0  0  0
  153.2793  139.2985  157.2695 O   0  0  0  0  0  0  0  0  0  0  0  0
  150.2335  137.9574  156.6996 C   0  0  0  0  0  0  0  0  0  0  0  0
  145.2015  133.1269  150.3833 H   0  0  0  0  0  0  0  0  0  0  0  0
  146.7827  133.8782  150.1790 H   0  0  0  0  0  0  0  0  0  0  0  0
  145.6528  134.5114  151.3762 H   0  0  0  0  0  0  0  0  0  0  0  0
  145.8339  132.3748  152.6805 H   0  0  0  0  0  0  0  0  0  0  0  0
  146.9664  131.7396  151.4823 H   0  0  0  0  0  0  0  0  0  0  0  0
  149.0402  129.4321  154.2574 H   0  0  0  0  0  0  0  0  0  0  0  0
  150.7902  130.4658  155.7244 H   0  0  0  0  0  0  0  0  0  0  0  0
  151.0662  132.9287  155.7093 H   0  0  0  0  0  0  0  0  0  0  0  0
  149.0044  135.0692  153.3889 H   0  0  0  0  0  0  0  0  0  0  0  0
  149.4737  136.9457  153.6686 H   0  0  0  0  0  0  0  0  0  0  0  0
  151.5887  138.0339  155.0103 H   0  0  0  0  0  0  0  0  0  0  0  0
  150.1282  139.2989  153.4866 H   0  0  0  0  0  0  0  0  0  0  0  0
  148.8076  139.2218  154.6343 H   0  0  0  0  0  0  0  0  0  0  0  0
  151.5000  140.6023  155.0660 H   0  0  0  0  0  0  0  0  0  0  0  0
  149.9640  141.3932  154.8376 H   0  0  0  0  0  0  0  0  0  0  0  0
  150.6045  141.3112  157.2667 H   0  0  0  0  0  0  0  0  0  0  0  0
  149.0952  140.4935  156.9560 H   0  0  0  0  0  0  0  0  0  0  0  0
  153.0374  140.8453  159.8144 H   0  0  0  0  0  0  0  0  0  0  0  0
  151.2662  140.7825  159.8597 H   0  0  0  0  0  0  0  0  0  0  0  0
  152.1031  141.6206  158.5244 H   0  0  0  0  0  0  0  0  0  0  0  0
  149.1630  137.8444  156.8760 H   0  0  0  0  0  0  0  0  0  0  0  0
  150.7117  137.0905  157.1559 H   0  0  0  0  0  0  0  0  0  0  0  0
  1  2  1  0  0  0  0
  1 24  1  0  0  0  0
  1 25  1  0  0  0  0
  1 26  1  0  0  0  0
  2  3  1  0  0  0  0
  2 27  1  0  0  0  0
  2 28  1  0  0  0  0
  3  4  1  0  0  0  0
  4  9  1  0  0  0  0
  4  5  2  0  0  0  0
  5  6  1  0  0  0  0
  6  7  2  0  0  0  0
  6 29  1  0  0  0  0
  7  8  1  0  0  0  0
  7 30  1  0  0  0  0
  8  9  2  0  0  0  0
  8 31  1  0  0  0  0
  9 10  1  0  0  0  0
 10 11  1  0  0  0  0
 10 32  1  0  0  0  0
 11 12  2  0  0  0  0
 11 13  1  0  0  0  0
 13 14  1  0  0  0  0
 13 33  1  0  0  0  0
 14 23  1  0  0  0  0
 14 15  1  0  0  0  0
 14 34  1  0  0  0  0
 15 16  1  0  0  0  0
 15 35  1  0  0  0  0
 15 36  1  0  0  0  0
 16 17  1  0  0  0  0
 16 37  1  0  0  0  0
 16 38  1  0  0  0  0
 17 18  1  0  0  0  0
 17 39  1  0  0  0  0
 17 40  1  0  0  0  0
 18 19  1  0  0  0  0
 18 23  1  0  0  0  0
 19 20  1  0  0  0  0
 19 21  2  0  0  0  0
 19 22  2  0  0  0  0
 20 41  1  0  0  0  0
 20 42  1  0  0  0  0
 20 43  1  0  0  0  0
 23 44  1  0  0  0  0
 23 45  1  0  0  0  0
M  END
> <s_m_source_file>
AV-unprocessed.smi

> <i_m_source_file_index>
1044

> <i_lp_mmshare_version>
43012

> <i_f3d_flags>
0

> <s_epik_input>
W0NIM11bQ0gyXU9jMW5bY0hdW2NIXVtjSF1jMVtOSF1DKD1PKVtOSF1bQ0BASF0yW0NIMl1bQ0gyXVtDSDJdTihbQ0gyXTIpUyg9TykoPU8pW0NIM10=

> <s_epik_cmdline>
J2VwaWtfcHl0aG9uJywgJy1waCcsICc3LjAnLCAnLXRuJywgJzgnLCAnLW1hJywgJzIwMCcsICctbWV0YWxfYmluZGluZycsICctaW1hZScsICc8aW5maWxlLm1hZT4nLCAnLW9tYWUnLCAnPG91dGZpbGUubWFlPic=

> <r_lp_tautomer_probability>
1

> <r_epik_Ionization_Penalty>
0.000106941

> <r_epik_Ionization_Penalty_Charging>
0

> <r_epik_Ionization_Penalty_Neutral>
0.000106941

> <r_epik_State_Penalty>
-0

> <r_epik_Charging_Adjusted_Penalty>
0

> <i_epik_Tot_Q>
0

> <i_epik_Tot_abs_Q>
0

> <r_epik_Metal_State_Penalty>
-0

> <b_epik_Metal_Only>
0

> <s_lp_Force_Field>
OPLS_2005

> <r_lp_Energy>
2.58549

> <b_lp_Chiralities_Consistent>
1

> <s_lp_Variant>
AV-unprocessed.smi:1044-2

> <Gold.Version>
5.8.1

> <Gold.Id.Protein>
6NUR|6NUR_protein|mol2

> <Gold.PLP.Fitness>
43.0837

> <Gold.PLP.PLP>
-35.0132

> <Gold.PLP.part.hbond>
-3.0000

> <Gold.PLP.part.metal>
0.0000

> <Gold.PLP.part.buried>
-4.7591

> <Gold.PLP.part.nonpolar>
-28.1725

> <Gold.PLP.part.repulsive>
0.4126

> <Gold.PLP.ligand.clash>
0.0000

> <Gold.PLP.ligand.torsion>
1.5018

> <Gold.PLP.Chemscore.Hbond>
2.9920

> <Gold.PLP.Chemscore.CHOScore>
0.0000

> <Gold.PLP.Chemscore.Metal>
0.0000

> <Gold.Chemscore.Hbonds>
donor molecule, donor type, donor heavy atom, donor atom, acceptor molecule, acceptor atom, score
      L1  H    10    32       P1  7948  0.96
      L1  H    13    33       P1  7948  0.94
      P1  H  7997  8009       L1    22  0.83

> <Gold.PLP.Chemscore.Internal.Correction>
2.0982

> <Gold.Rescore>
     Score         DG    S(hbond)    S(metal)    S(lipo)     H(rot)  DE(clash)    DE(int)     intcor
     13.01     -17.11       2.38        0.00      63.22       1.45       0.00       4.09       ----

> <Gold.Chemscore.Fitness>
13.0104

> <Gold.Chemscore.DG>
-17.1083

> <Gold.Chemscore.ZeroCoef>
-5.4800

> <Gold.Chemscore.Hbond>
2.3820

> <Gold.Chemscore.Metal>
0.0000

> <Gold.Chemscore.Lipo>
63.2217

> <Gold.Chemscore.Internal_Hbond>
0.0000

> <Gold.Chemscore.DEClash>
0.0038

> <Gold.Chemscore.DEInternal>
4.0942

> <Gold.Chemscore.Rot>
1.4549

> <Gold.Chemscore.Internal.Correction>
   9.000000E+99

> <Gold.Chemscore.Hbonds>
donor molecule, donor type, donor heavy atom, donor atom, acceptor molecule, acceptor atom, score
      L1  H    10    32       P1  7948  0.32
      L1  H    13    33       P1  7948  0.80
      P1  H  7997  8009       L1    22  0.80

> <Gold.Chemscore.Hbond.Weighted>
-7.9558

> <Gold.Chemscore.Metal.Weighted>
-0.0000

> <Gold.Chemscore.Lipo.Weighted>
-7.3969

> <Gold.Chemscore.Internal_Hbond.Weighted>
0.0000

> <Gold.Chemscore.DEClash.Weighted>
0.0038

> <Gold.Chemscore.DEInternal.Weighted>
4.0942

> <Gold.Chemscore.Rot.Weighted>
3.7244

> <Gold.Chemscore.Internal.Correction.Weighted>
   9.000000E+99

> <Gold.Protein.RotatedTorsions>
[ 6907 6896 6895 6894 ] final  172.16 input  -60.11 | X-H torsion
[ 7974 7965 7964 7962 ] final   -1.29 input  175.53 | X-H torsion
[ 8008 7997 7996 7995 ] final  171.20 input   59.86 | X-H torsion
[ 10167 10162 10161 10158 ] final   92.58 input  -65.29 | X-H torsion
[ 10718 10713 10712 10709 ] final   -3.25 input   66.30 | X-H torsion
[ 10763 10752 10751 10750 ] final -104.54 input  -60.55 | X-H torsion
[ 11005 11000 10999 10996 ] final   35.57 input  -57.11 | X-H torsion

> <Gold.Protein.ActiveResidues>
 VAL166  LYS551  ARG553  GLY616  TRP617  ASP618  TYR619  PRO620  LYS621  CYS622 
 ASP623  PHE694  ASN695  SER759  ASP760  ASP761  ALA762  ILE779  LEU786  VAL792 
 PHE793  MET794  SER795  GLU796  ALA797  LYS798  CYS799  TRP800  GLU811  SER814 

> <Gold.Protein.RotatedAtoms>
  151.7887  133.3357  159.3492 H   0  0  0  0  0  0  0  0  0  0  0  0  # atno 6907 bound_to 6896
  150.7399  134.5863  159.5974 H   0  0  0  0  0  0  0  0  0  0  0  0  # atno 6908 bound_to 6896
  152.3225  134.7363  160.0361 H   0  0  0  0  0  0  0  0  0  0  0  0  # atno 6909 bound_to 6896
  146.2418  140.1398  142.8336 H   0  0  0  0  0  0  0  0  0  0  0  0  # atno 7974 bound_to 7965
  156.1294  140.1518  156.9088 H   0  0  0  0  0  0  0  0  0  0  0  0  # atno 8008 bound_to 7997
  154.4897  140.0855  156.7606 H   0  0  0  0  0  0  0  0  0  0  0  0  # atno 8009 bound_to 7997
  155.4284  140.3426  155.4280 H   0  0  0  0  0  0  0  0  0  0  0  0  # atno 8010 bound_to 7997
  139.8263  144.6708  150.9455 H   0  0  0  0  0  0  0  0  0  0  0  0  # atno 10167 bound_to 10162
  156.7788  130.5324  149.5754 H   0  0  0  0  0  0  0  0  0  0  0  0  # atno 10718 bound_to 10713
  154.7885  135.4782  153.9999 H   0  0  0  0  0  0  0  0  0  0  0  0  # atno 10763 bound_to 10752
  153.1596  135.6806  153.8769 H   0  0  0  0  0  0  0  0  0  0  0  0  # atno 10764 bound_to 10752
  153.8387  135.3182  155.3402 H   0  0  0  0  0  0  0  0  0  0  0  0  # atno 10765 bound_to 10752
  140.2413  134.3411  155.7924 H   0  0  0  0  0  0  0  0  0  0  0  0  # atno 11005 bound_to 11000
  145.0256  140.8829  143.5140 LP  0  0  0  0  0  0  0  0  0  0  0  0  # atno 17320 bound_to 7965
  145.1453  139.2547  143.5469 LP  0  0  0  0  0  0  0  0  0  0  0  0  # atno 17321 bound_to 7965
  140.7810  143.4043  151.1097 LP  0  0  0  0  0  0  0  0  0  0  0  0  # atno 17342 bound_to 10162
  139.7700  143.8508  152.3118 LP  0  0  0  0  0  0  0  0  0  0  0  0  # atno 17343 bound_to 10162
  156.1231  130.6124  151.0223 LP  0  0  0  0  0  0  0  0  0  0  0  0  # atno 17370 bound_to 10713
  157.6656  131.0872  150.7735 LP  0  0  0  0  0  0  0  0  0  0  0  0  # atno 17371 bound_to 10713
  141.2210  133.7300  156.8890 LP  0  0  0  0  0  0  0  0  0  0  0  0  # atno 17394 bound_to 11000
  140.1650  134.9139  157.2763 LP  0  0  0  0  0  0  0  0  0  0  0  0  # atno 17395 bound_to 11000

$$$$
