AV-unprocessed.smi:397|AV-procd|sdf|2488|dock10
  -GOLD-   2262022433D 1   1.00000     0.00000
 Structure written by MMmdl.
 37 38  0  0  0  0  0  0  0  0  1 V2000
  147.7273  135.8875  161.1870 C   0  0  0  0  0  0  0  0  0  0  0  0
  147.9531  137.1664  160.6216 O   0  0  0  0  0  0  0  0  0  0  0  0
  148.4859  137.0960  159.3091 C   0  0  0  0  0  0  0  0  0  0  0  0
  150.0070  137.3040  159.3523 C   0  0  0  0  0  0  0  0  0  0  0  0
  150.3868  138.5956  158.7908 N   0  0  0  0  0  0  0  0  0  0  0  0
  151.0301  138.7759  157.6277 C   0  0  0  0  0  0  0  0  0  0  0  0
  151.4008  137.8458  156.9099 O   0  0  0  0  0  0  0  0  0  0  0  0
  151.2924  140.2362  157.2293 C   0  0  0  0  0  0  0  0  0  0  0  0
  151.9115  141.0394  158.3075 N   0  0  0  0  0  0  0  0  0  0  0  0
  153.1043  140.5585  158.9032 C   0  0  0  0  0  0  0  0  0  0  0  0
  153.6205  139.5032  158.5303 O   0  0  0  0  0  0  0  0  0  0  0  0
  153.6524  141.3900  159.9697 C   0  0  0  0  0  0  0  0  0  0  0  0
  154.8559  140.9426  160.5893 C   0  0  0  0  0  0  0  0  0  0  0  0
  155.8212  140.5782  161.1135 N   0  0  0  0  0  0  0  0  0  0  0  0
  153.0415  142.5319  160.3461 C   0  0  0  0  0  0  0  0  0  0  0  0
  151.8720  142.9847  159.7630 N   0  0  0  0  0  0  0  0  0  0  0  0
  151.2078  144.2074  160.1686 C   0  0  0  0  0  0  0  0  0  0  0  0
  150.8580  145.2552  159.1329 C   0  0  0  0  0  0  0  0  0  0  0  0
  151.9566  145.5232  160.1369 C   0  0  0  0  0  0  0  0  0  0  0  0
  151.2735  142.2345  158.7222 C   0  0  0  0  0  0  0  0  0  0  0  0
  150.2243  142.5992  158.1857 O   0  0  0  0  0  0  0  0  0  0  0  0
  147.3182  135.9991  162.1910 H   0  0  0  0  0  0  0  0  0  0  0  0
  148.6564  135.3210  161.2631 H   0  0  0  0  0  0  0  0  0  0  0  0
  147.0145  135.3133  160.5941 H   0  0  0  0  0  0  0  0  0  0  0  0
  148.2483  136.1355  158.8491 H   0  0  0  0  0  0  0  0  0  0  0  0
  148.0303  137.8727  158.6931 H   0  0  0  0  0  0  0  0  0  0  0  0
  150.3421  137.2893  160.3895 H   0  0  0  0  0  0  0  0  0  0  0  0
  150.5245  136.4845  158.8505 H   0  0  0  0  0  0  0  0  0  0  0  0
  150.1249  139.4157  159.3182 H   0  0  0  0  0  0  0  0  0  0  0  0
  151.9177  140.2491  156.3347 H   0  0  0  0  0  0  0  0  0  0  0  0
  150.3505  140.6739  156.8952 H   0  0  0  0  0  0  0  0  0  0  0  0
  153.4960  143.1055  161.1396 H   0  0  0  0  0  0  0  0  0  0  0  0
  150.4853  144.1418  160.9801 H   0  0  0  0  0  0  0  0  0  0  0  0
  151.1472  145.0844  158.0983 H   0  0  0  0  0  0  0  0  0  0  0  0
  149.9199  145.7907  159.2644 H   0  0  0  0  0  0  0  0  0  0  0  0
  151.7437  146.2353  160.9316 H   0  0  0  0  0  0  0  0  0  0  0  0
  152.9819  145.5354  159.7742 H   0  0  0  0  0  0  0  0  0  0  0  0
  1  2  1  0  0  0  0
  1 22  1  0  0  0  0
  1 23  1  0  0  0  0
  1 24  1  0  0  0  0
  2  3  1  0  0  0  0
  3  4  1  0  0  0  0
  3 25  1  0  0  0  0
  3 26  1  0  0  0  0
  4  5  1  0  0  0  0
  4 27  1  0  0  0  0
  4 28  1  0  0  0  0
  5  6  1  0  0  0  0
  5 29  1  0  0  0  0
  6  7  2  0  0  0  0
  6  8  1  0  0  0  0
  8  9  1  0  0  0  0
  8 30  1  0  0  0  0
  8 31  1  0  0  0  0
  9 20  1  0  0  0  0
  9 10  1  0  0  0  0
 10 11  2  0  0  0  0
 10 12  1  0  0  0  0
 12 13  1  0  0  0  0
 12 15  2  0  0  0  0
 13 14  3  0  0  0  0
 15 16  1  0  0  0  0
 15 32  1  0  0  0  0
 16 17  1  0  0  0  0
 16 20  1  0  0  0  0
 17 19  1  0  0  0  0
 17 18  1  0  0  0  0
 17 33  1  0  0  0  0
 18 19  1  0  0  0  0
 18 34  1  0  0  0  0
 18 35  1  0  0  0  0
 19 36  1  0  0  0  0
 19 37  1  0  0  0  0
 20 21  2  0  0  0  0
M  END
> <s_m_source_file>
AV-unprocessed.smi

> <i_m_source_file_index>
397

> <i_lp_mmshare_version>
43012

> <i_f3d_flags>
0

> <s_epik_input>
W0NIM11PW0NIMl1bQ0gyXVtOSF1DKD1PKVtDSDJdbjFjKD1PKWMoQyNOKVtjSF1uKGMxPU8pW0NIXTJbQ0gyXVtDSDJdMg==

> <s_epik_cmdline>
J2VwaWtfcHl0aG9uJywgJy1waCcsICc3LjAnLCAnLXRuJywgJzgnLCAnLW1hJywgJzIwMCcsICctbWV0YWxfYmluZGluZycsICctaW1hZScsICc8aW5maWxlLm1hZT4nLCAnLW9tYWUnLCAnPG91dGZpbGUubWFlPic=

> <r_lp_tautomer_probability>
1

> <r_epik_Ionization_Penalty>
2.64697e-08

> <r_epik_Ionization_Penalty_Charging>
8.39351e-11

> <r_epik_Ionization_Penalty_Neutral>
2.63858e-08

> <r_epik_State_Penalty>
-0

> <r_epik_Charging_Adjusted_Penalty>
8.39351e-11

> <i_epik_Tot_Q>
0

> <i_epik_Tot_abs_Q>
0

> <r_epik_Metal_State_Penalty>
-0

> <b_epik_Metal_Only>
0

> <s_lp_Force_Field>
OPLS_2005

> <r_lp_Energy>
30.955

> <b_lp_Chiralities_Consistent>
1

> <s_lp_Variant>
AV-unprocessed.smi:397-1

> <Gold.Version>
5.8.1

> <Gold.Id.Protein>
6NUR|6NUR_protein|mol2

> <Gold.PLP.Fitness>
48.3275

> <Gold.PLP.PLP>
-42.0167

> <Gold.PLP.part.hbond>
-4.0000

> <Gold.PLP.part.metal>
0.0000

> <Gold.PLP.part.buried>
-4.8130

> <Gold.PLP.part.nonpolar>
-33.4348

> <Gold.PLP.part.repulsive>
0.3131

> <Gold.PLP.ligand.clash>
0.0000

> <Gold.PLP.ligand.torsion>
0.8464

> <Gold.PLP.Chemscore.Hbond>
2.6160

> <Gold.PLP.Chemscore.CHOScore>
0.0000

> <Gold.PLP.Chemscore.Metal>
0.0000

> <Gold.Chemscore.Hbonds>
donor molecule, donor type, donor heavy atom, donor atom, acceptor molecule, acceptor atom, score
      P1  H  6931  6943       L1     2  0.82
      P1  H  6934  6947       L1     2  0.78
      P1  H  7997  8008       L1    11  1.00

> <Gold.PLP.Chemscore.Internal.Correction>
0.1556

> <Gold.Rescore>
     Score         DG    S(hbond)    S(metal)    S(lipo)     H(rot)  DE(clash)    DE(int)     intcor
     10.22     -14.17       1.90        0.00      73.99       2.46       0.44       3.51       ----

> <Gold.Chemscore.Fitness>
10.2195

> <Gold.Chemscore.DG>
-14.1716

> <Gold.Chemscore.ZeroCoef>
-5.4800

> <Gold.Chemscore.Hbond>
1.8978

> <Gold.Chemscore.Metal>
0.0000

> <Gold.Chemscore.Lipo>
73.9937

> <Gold.Chemscore.Internal_Hbond>
0.0000

> <Gold.Chemscore.DEClash>
0.4450

> <Gold.Chemscore.DEInternal>
3.5071

> <Gold.Chemscore.Rot>
2.4626

> <Gold.Chemscore.Internal.Correction>
   9.000000E+99

> <Gold.Chemscore.Hbonds>
donor molecule, donor type, donor heavy atom, donor atom, acceptor molecule, acceptor atom, score
      P1  H  6931  6943       L1     2  0.49
      P1  H  6934  6947       L1     2  0.52
      P1  H  7997  8008       L1    11  0.35

> <Gold.Chemscore.Hbond.Weighted>
-6.3387

> <Gold.Chemscore.Metal.Weighted>
-0.0000

> <Gold.Chemscore.Lipo.Weighted>
-8.6573

> <Gold.Chemscore.Internal_Hbond.Weighted>
0.0000

> <Gold.Chemscore.DEClash.Weighted>
0.4450

> <Gold.Chemscore.DEInternal.Weighted>
3.5071

> <Gold.Chemscore.Rot.Weighted>
6.3043

> <Gold.Chemscore.Internal.Correction.Weighted>
   9.000000E+99

> <Gold.Protein.RotatedTorsions>
[ 6907 6896 6895 6894 ] final   92.69 input  -60.11 | X-H torsion
[ 7974 7965 7964 7962 ] final   38.88 input  175.53 | X-H torsion
[ 8008 7997 7996 7995 ] final  -84.92 input   59.86 | X-H torsion
[ 10167 10162 10161 10158 ] final -128.62 input  -65.29 | X-H torsion
[ 10718 10713 10712 10709 ] final -105.80 input   66.30 | X-H torsion
[ 10763 10752 10751 10750 ] final   35.89 input  -60.55 | X-H torsion
[ 11005 11000 10999 10996 ] final  -79.44 input  -57.11 | X-H torsion

> <Gold.Protein.ActiveResidues>
 VAL166  LYS551  ARG553  GLY616  TRP617  ASP618  TYR619  PRO620  LYS621  CYS622 
 ASP623  PHE694  ASN695  SER759  ASP760  ASP761  ALA762  ILE779  LEU786  VAL792 
 PHE793  MET794  SER795  GLU796  ALA797  LYS798  CYS799  TRP800  GLU811  SER814 

> <Gold.Protein.RotatedAtoms>
  152.5453  134.1463  159.8499 H   0  0  0  0  0  0  0  0  0  0  0  0  # atno 6907 bound_to 6896
  151.1494  133.4910  159.2603 H   0  0  0  0  0  0  0  0  0  0  0  0  # atno 6908 bound_to 6896
  151.1488  135.0227  159.8714 H   0  0  0  0  0  0  0  0  0  0  0  0  # atno 6909 bound_to 6896
  146.1028  139.5719  142.9403 H   0  0  0  0  0  0  0  0  0  0  0  0  # atno 7974 bound_to 7965
  154.6350  140.0598  156.9778 H   0  0  0  0  0  0  0  0  0  0  0  0  # atno 8008 bound_to 7997
  155.1605  140.3282  155.4394 H   0  0  0  0  0  0  0  0  0  0  0  0  # atno 8009 bound_to 7997
  156.2502  140.1931  156.6713 H   0  0  0  0  0  0  0  0  0  0  0  0  # atno 8010 bound_to 7997
  139.9484  143.6084  152.2483 H   0  0  0  0  0  0  0  0  0  0  0  0  # atno 10167 bound_to 10162
  156.0362  130.5581  150.7591 H   0  0  0  0  0  0  0  0  0  0  0  0  # atno 10718 bound_to 10713
  153.0100  135.6321  154.1898 H   0  0  0  0  0  0  0  0  0  0  0  0  # atno 10763 bound_to 10752
  154.1641  135.2822  155.3102 H   0  0  0  0  0  0  0  0  0  0  0  0  # atno 10764 bound_to 10752
  154.5959  135.5603  153.7385 H   0  0  0  0  0  0  0  0  0  0  0  0  # atno 10765 bound_to 10752
  141.1667  133.7106  156.8123 H   0  0  0  0  0  0  0  0  0  0  0  0  # atno 11005 bound_to 11000
  145.5821  141.0381  143.2116 LP  0  0  0  0  0  0  0  0  0  0  0  0  # atno 17320 bound_to 7965
  144.7446  139.7355  143.7297 LP  0  0  0  0  0  0  0  0  0  0  0  0  # atno 17321 bound_to 7965
  139.6648  144.7662  151.1894 LP  0  0  0  0  0  0  0  0  0  0  0  0  # atno 17342 bound_to 10162
  140.7590  143.5954  150.8753 LP  0  0  0  0  0  0  0  0  0  0  0  0  # atno 17343 bound_to 10162
  157.5115  131.0926  151.0192 LP  0  0  0  0  0  0  0  0  0  0  0  0  # atno 17370 bound_to 10713
  157.0546  130.5801  149.5376 LP  0  0  0  0  0  0  0  0  0  0  0  0  # atno 17371 bound_to 10713
  140.2179  134.8779  157.3345 LP  0  0  0  0  0  0  0  0  0  0  0  0  # atno 17394 bound_to 11000
  140.2018  134.4245  155.7658 LP  0  0  0  0  0  0  0  0  0  0  0  0  # atno 17395 bound_to 11000

$$$$
