AV-unprocessed.smi:1645|AV-procd|sdf|6605|dock1
  -GOLD-   22720 7303D 1   1.00000     0.00000
 Structure written by MMmdl.
 55 58  0  0  0  0  0  0  0  0  2 V2000
  145.8650  137.7622  154.5988 O   0  0  0  0  0  0  0  0  0  0  0  0
  146.7079  137.2667  153.8508 C   0  0  0  0  0  0  0  0  0  0  0  0
  148.0179  137.5660  153.8538 N   0  0  0  0  0  0  0  0  0  0  0  0
  148.7102  138.4513  154.7232 C   0  0  0  0  0  0  0  0  0  0  0  0
  148.3199  138.7168  156.0560 C   0  0  0  0  0  0  0  0  0  0  0  0
  149.0966  139.5987  156.8308 C   0  0  0  0  0  0  0  0  0  0  0  0
  150.2477  140.1903  156.2609 C   0  0  0  0  0  0  0  0  0  0  0  0
  151.0353  141.0771  157.0248 N   0  0  0  0  0  0  0  0  0  0  0  0
  150.5133  142.4411  157.1258 C   0  0  0  0  0  0  0  0  0  0  0  0
  151.5994  143.4171  157.6101 C   0  0  0  0  0  0  0  0  0  0  0  0
  152.2397  142.9280  158.9176 C   0  0  0  0  0  0  0  0  0  0  0  0
  152.7705  141.4979  158.7410 C   0  0  0  0  0  0  0  0  0  0  0  0
  151.6615  140.5561  158.2420 C   0  0  0  0  0  0  0  0  0  0  0  0
  150.6254  139.9257  154.9861 N   0  0  0  0  0  0  0  0  0  0  0  0
  149.8805  139.0760  154.2483 C   0  0  0  0  0  0  0  0  0  0  0  0
  146.4146  136.3604  152.9071 N   0  0  0  0  0  0  0  0  0  0  0  0
  145.0759  135.8456  152.6293 C   0  0  1  0  0  0  0  0  0  0  0  0
  145.0391  134.8819  151.4351 C   0  0  0  0  0  0  0  0  0  0  0  0
  143.9834  133.8190  151.8012 C   0  0  0  0  0  0  0  0  0  0  0  0
  143.4384  134.1962  153.1263 N   0  3  2  0  0  0  0  0  0  0  0  0
  142.1350  134.9083  153.0105 C   0  0  0  0  0  0  0  0  0  0  0  0
  141.6811  135.5137  154.3454 C   0  0  0  0  0  0  0  0  0  0  0  0
  142.7490  136.4685  154.8850 C   0  0  0  0  0  0  0  0  0  0  0  0
  144.0659  135.7065  155.0585 C   0  0  0  0  0  0  0  0  0  0  0  0
  144.5186  134.9829  153.7699 C   0  0  2  0  0  0  0  0  0  0  0  0
  148.5738  137.1592  153.1158 H   0  0  0  0  0  0  0  0  0  0  0  0
  147.4522  138.2553  156.5009 H   0  0  0  0  0  0  0  0  0  0  0  0
  148.7982  139.8194  157.8448 H   0  0  0  0  0  0  0  0  0  0  0  0
  150.1204  142.7928  156.1726 H   0  0  0  0  0  0  0  0  0  0  0  0
  149.6769  142.4406  157.8257 H   0  0  0  0  0  0  0  0  0  0  0  0
  152.3678  143.5165  156.8420 H   0  0  0  0  0  0  0  0  0  0  0  0
  151.1716  144.4097  157.7511 H   0  0  0  0  0  0  0  0  0  0  0  0
  153.0475  143.5969  159.2155 H   0  0  0  0  0  0  0  0  0  0  0  0
  151.5014  142.9499  159.7202 H   0  0  0  0  0  0  0  0  0  0  0  0
  153.5951  141.5003  158.0270 H   0  0  0  0  0  0  0  0  0  0  0  0
  153.1774  141.1293  159.6827 H   0  0  0  0  0  0  0  0  0  0  0  0
  150.8996  140.4365  159.0133 H   0  0  0  0  0  0  0  0  0  0  0  0
  152.0879  139.5702  158.0527 H   0  0  0  0  0  0  0  0  0  0  0  0
  150.2288  138.8961  153.2417 H   0  0  0  0  0  0  0  0  0  0  0  0
  147.1681  136.0106  152.3333 H   0  0  0  0  0  0  0  0  0  0  0  0
  144.3923  136.6703  152.4199 H   0  0  0  0  0  0  0  0  0  0  0  0
  144.7860  135.4063  150.5130 H   0  0  0  0  0  0  0  0  0  0  0  0
  146.0062  134.4004  151.2830 H   0  0  0  0  0  0  0  0  0  0  0  0
  143.2055  133.7293  151.0415 H   0  0  0  0  0  0  0  0  0  0  0  0
  144.4602  132.8420  151.8892 H   0  0  0  0  0  0  0  0  0  0  0  0
  142.2085  135.7005  152.2636 H   0  0  0  0  0  0  0  0  0  0  0  0
  141.3807  134.2098  152.6468 H   0  0  0  0  0  0  0  0  0  0  0  0
  140.7398  136.0472  154.2104 H   0  0  0  0  0  0  0  0  0  0  0  0
  141.4888  134.7205  155.0691 H   0  0  0  0  0  0  0  0  0  0  0  0
  142.8848  137.3087  154.2030 H   0  0  0  0  0  0  0  0  0  0  0  0
  142.4310  136.8896  155.8391 H   0  0  0  0  0  0  0  0  0  0  0  0
  144.8461  136.3760  155.4191 H   0  0  0  0  0  0  0  0  0  0  0  0
  143.9315  134.9627  155.8449 H   0  0  0  0  0  0  0  0  0  0  0  0
  145.2956  134.2705  154.0550 H   0  0  0  0  0  0  0  0  0  0  0  0
  143.2764  133.3623  153.6723 H   0  0  0  0  0  0  0  0  0  0  0  0
  1  2  2  0  0  0  0
  2  3  1  0  0  0  0
  2 16  1  0  0  0  0
  3  4  1  0  0  0  0
  3 26  1  0  0  0  0
  4 15  1  0  0  0  0
  4  5  2  0  0  0  0
  5  6  1  0  0  0  0
  5 27  1  0  0  0  0
  6  7  2  0  0  0  0
  6 28  1  0  0  0  0
  7  8  1  0  0  0  0
  7 14  1  0  0  0  0
  8 13  1  0  0  0  0
  8  9  1  0  0  0  0
  9 10  1  0  0  0  0
  9 29  1  0  0  0  0
  9 30  1  0  0  0  0
 10 11  1  0  0  0  0
 10 31  1  0  0  0  0
 10 32  1  0  0  0  0
 11 12  1  0  0  0  0
 11 33  1  0  0  0  0
 11 34  1  0  0  0  0
 12 13  1  0  0  0  0
 12 35  1  0  0  0  0
 12 36  1  0  0  0  0
 13 37  1  0  0  0  0
 13 38  1  0  0  0  0
 14 15  2  0  0  0  0
 15 39  1  0  0  0  0
 16 17  1  0  0  0  0
 16 40  1  0  0  0  0
 17 25  1  0  0  0  0
 17 18  1  0  0  0  0
 17 41  1  0  0  0  0
 18 19  1  0  0  0  0
 18 42  1  0  0  0  0
 18 43  1  0  0  0  0
 19 20  1  0  0  0  0
 19 44  1  0  0  0  0
 19 45  1  0  0  0  0
 20 25  1  0  0  0  0
 20 21  1  0  0  0  0
 20 55  1  0  0  0  0
 21 22  1  0  0  0  0
 21 46  1  0  0  0  0
 21 47  1  0  0  0  0
 22 23  1  0  0  0  0
 22 48  1  0  0  0  0
 22 49  1  0  0  0  0
 23 24  1  0  0  0  0
 23 50  1  0  0  0  0
 23 51  1  0  0  0  0
 24 25  1  0  0  0  0
 24 52  1  0  0  0  0
 24 53  1  0  0  0  0
 25 54  1  0  0  0  0
M  CHG  1  20   1
M  END
> <s_m_source_file>
AV-unprocessed.smi

> <i_m_source_file_index>
1645

> <i_lp_mmshare_version>
43012

> <i_f3d_flags>
0

> <s_epik_input>
W0NIMl0xW0NIMl1bQ0gyXVtDSDJdW0NASF0oTjEyKVtDQEBIXShbQ0gyXVtDSDJdMilbTkhdQyg9TylbTkhdYzNbY0hdW2NIXWMobltjSF0zKU40W0NIMl1bQ0gyXVtDSDJdW0NIMl1bQ0gyXTQ=

> <s_epik_cmdline>
J2VwaWtfcHl0aG9uJywgJy1waCcsICc3LjAnLCAnLXRuJywgJzgnLCAnLW1hJywgJzIwMCcsICctbWV0YWxfYmluZGluZycsICctaW1hZScsICc8aW5maWxlLm1hZT4nLCAnLW9tYWUnLCAnPG91dGZpbGUubWFlPic=

> <r_lp_tautomer_probability>
1

> <r_epik_Ionization_Penalty>
0.0808019

> <r_epik_Ionization_Penalty_Charging>
0.000974069

> <r_epik_Ionization_Penalty_Neutral>
0.0798278

> <r_epik_State_Penalty>
0.0653665

> <r_epik_Charging_Adjusted_Penalty>
0.0663406

> <i_epik_Tot_Q>
1

> <i_epik_Tot_abs_Q>
1

> <r_epik_Metal_State_Penalty>
0.0585673

> <b_epik_Metal_Only>
0

> <s_lp_Force_Field>
OPLS_2005

> <r_lp_Energy>
54.666

> <b_lp_Chiralities_Consistent>
1

> <s_lp_Variant>
AV-unprocessed.smi:1645-6

> <Gold.Version>
5.8.1

> <Gold.Id.Protein>
6NUR|6NUR_protein|mol2

> <Gold.PLP.Fitness>
47.6586

> <Gold.PLP.PLP>
-30.4665

> <Gold.PLP.part.hbond>
-3.9701

> <Gold.PLP.part.metal>
0.0000

> <Gold.PLP.part.buried>
-3.4198

> <Gold.PLP.part.nonpolar>
-24.2737

> <Gold.PLP.part.repulsive>
0.1740

> <Gold.PLP.ligand.clash>
0.0000

> <Gold.PLP.ligand.torsion>
0.4832

> <Gold.PLP.Chemscore.Hbond>
4.9105

> <Gold.PLP.Chemscore.CHOScore>
1.0000

> <Gold.PLP.Chemscore.Metal>
0.0000

> <Gold.Chemscore.Hbonds>
donor molecule, donor type, donor heavy atom, donor atom, acceptor molecule, acceptor atom, score
      L1  H     3    26       P1  7948  1.00
      L1  H    16    40       P1  7948  0.93
      L1  H    20    55       P1 10957  1.98
      P1  H  7989  7998       L1    14  1.00
      L1  C    15    39       P1  7957  1.00

> <Gold.PLP.Chemscore.Internal.Correction>
0.4269

> <Gold.Rescore>
     Score         DG    S(hbond)    S(metal)    S(lipo)     H(rot)  DE(clash)    DE(int)     intcor
     20.34     -23.68       3.22        0.00      89.44       1.17       0.39       2.95       ----

> <Gold.Chemscore.Fitness>
20.3379

> <Gold.Chemscore.DG>
-23.6846

> <Gold.Chemscore.ZeroCoef>
-5.4800

> <Gold.Chemscore.Hbond>
3.2167

> <Gold.Chemscore.Metal>
0.0000

> <Gold.Chemscore.Lipo>
89.4370

> <Gold.Chemscore.Internal_Hbond>
0.0000

> <Gold.Chemscore.DEClash>
0.3921

> <Gold.Chemscore.DEInternal>
2.9546

> <Gold.Chemscore.Rot>
1.1731

> <Gold.Chemscore.Internal.Correction>
   9.000000E+99

> <Gold.Chemscore.Hbonds>
donor molecule, donor type, donor heavy atom, donor atom, acceptor molecule, acceptor atom, score
      L1  H     3    26       P1  7948  0.98
      L1  H    16    40       P1  7948  0.90
      L1  H    20    55       P1 10957  0.92
      P1  H  7989  7998       L1    14  0.24

> <Gold.Chemscore.Hbond.Weighted>
-10.7437

> <Gold.Chemscore.Metal.Weighted>
-0.0000

> <Gold.Chemscore.Lipo.Weighted>
-10.4641

> <Gold.Chemscore.Internal_Hbond.Weighted>
0.0000

> <Gold.Chemscore.DEClash.Weighted>
0.3921

> <Gold.Chemscore.DEInternal.Weighted>
2.9546

> <Gold.Chemscore.Rot.Weighted>
3.0032

> <Gold.Chemscore.Internal.Correction.Weighted>
   9.000000E+99

> <Gold.Protein.RotatedTorsions>
[ 6907 6896 6895 6894 ] final  -97.74 input  -60.11 | X-H torsion
[ 7974 7965 7964 7962 ] final   11.47 input  175.53 | X-H torsion
[ 8008 7997 7996 7995 ] final -140.62 input   59.86 | X-H torsion
[ 10167 10162 10161 10158 ] final  150.28 input  -65.29 | X-H torsion
[ 10718 10713 10712 10709 ] final -126.19 input   66.30 | X-H torsion
[ 10763 10752 10751 10750 ] final  -33.10 input  -60.55 | X-H torsion
[ 11005 11000 10999 10996 ] final  162.89 input  -57.11 | X-H torsion

> <Gold.Protein.ActiveResidues>
 VAL166  LYS551  ARG553  GLY616  TRP617  ASP618  TYR619  PRO620  LYS621  CYS622 
 ASP623  PHE694  ASN695  SER759  ASP760  ASP761  ALA762  ILE779  LEU786  VAL792 
 PHE793  MET794  SER795  GLU796  ALA797  LYS798  CYS799  TRP800  GLU811  SER814 

> <Gold.Protein.RotatedAtoms>
  150.7025  134.1302  159.4066 H   0  0  0  0  0  0  0  0  0  0  0  0  # atno 6907 bound_to 6896
  151.9288  135.0263  160.0537 H   0  0  0  0  0  0  0  0  0  0  0  0  # atno 6908 bound_to 6896
  152.2193  133.4936  159.5190 H   0  0  0  0  0  0  0  0  0  0  0  0  # atno 6909 bound_to 6896
  146.2370  139.9480  142.8474 H   0  0  0  0  0  0  0  0  0  0  0  0  # atno 7974 bound_to 7965
  155.4643  140.0548  157.2987 H   0  0  0  0  0  0  0  0  0  0  0  0  # atno 8008 bound_to 7997
  154.4724  140.2046  155.9915 H   0  0  0  0  0  0  0  0  0  0  0  0  # atno 8009 bound_to 7997
  156.1078  140.3209  155.8035 H   0  0  0  0  0  0  0  0  0  0  0  0  # atno 8010 bound_to 7997
  139.4852  144.5534  151.7360 H   0  0  0  0  0  0  0  0  0  0  0  0  # atno 10167 bound_to 10162
  156.1743  130.6689  151.0221 H   0  0  0  0  0  0  0  0  0  0  0  0  # atno 10718 bound_to 10713
  153.8247  135.6871  153.4822 H   0  0  0  0  0  0  0  0  0  0  0  0  # atno 10763 bound_to 10752
  153.1548  135.4603  154.9686 H   0  0  0  0  0  0  0  0  0  0  0  0  # atno 10764 bound_to 10752
  154.7913  135.3302  154.7715 H   0  0  0  0  0  0  0  0  0  0  0  0  # atno 10765 bound_to 10752
  140.2303  134.8129  157.3310 H   0  0  0  0  0  0  0  0  0  0  0  0  # atno 11005 bound_to 11000
  145.1889  140.9802  143.4222 LP  0  0  0  0  0  0  0  0  0  0  0  0  # atno 17320 bound_to 7965
  144.9875  139.3722  143.6231 LP  0  0  0  0  0  0  0  0  0  0  0  0  # atno 17321 bound_to 7965
  140.5092  144.1051  150.5990 LP  0  0  0  0  0  0  0  0  0  0  0  0  # atno 17342 bound_to 10162
  140.3971  143.2723  151.9992 LP  0  0  0  0  0  0  0  0  0  0  0  0  # atno 17343 bound_to 10162
  157.6824  131.0834  150.7333 LP  0  0  0  0  0  0  0  0  0  0  0  0  # atno 17370 bound_to 10713
  156.7391  130.4733  149.5481 LP  0  0  0  0  0  0  0  0  0  0  0  0  # atno 17371 bound_to 10713
  140.1757  134.4552  155.7803 LP  0  0  0  0  0  0  0  0  0  0  0  0  # atno 17394 bound_to 11000
  141.2218  133.6961  156.7784 LP  0  0  0  0  0  0  0  0  0  0  0  0  # atno 17395 bound_to 11000

$$$$
