AV-unprocessed.smi:1947|AV-procd|sdf|7867|dock6
  -GOLD-   2272010 13D 1   1.00000     0.00000
 Structure written by MMmdl.
 39 40  0  0  0  0  0  0  0  0  1 V2000
  145.6626  130.3666  152.7591 C   0  0  0  0  0  0  0  0  0  0  0  0
  145.2127  131.7699  152.3208 C   0  0  2  0  0  0  0  0  0  0  0  0
  145.4172  131.9922  150.8092 C   0  0  0  0  0  0  0  0  0  0  0  0
  144.9395  133.3878  150.3768 C   0  0  0  0  0  0  0  0  0  0  0  0
  145.6328  134.4923  151.1892 C   0  0  0  0  0  0  0  0  0  0  0  0
  145.4393  134.2811  152.7005 C   0  0  0  0  0  0  0  0  0  0  0  0
  145.9009  132.8803  153.1450 C   0  0  2  0  0  0  0  0  0  0  0  0
  147.3069  132.7832  152.9566 O   0  0  0  0  0  0  0  0  0  0  0  0
  148.0576  132.7476  154.1596 C   0  0  0  0  0  0  0  0  0  0  0  0
  147.6146  133.9154  155.0552 C   0  0  0  0  0  0  0  0  0  0  0  0
  148.2160  135.1780  154.6374 N   0  0  0  0  0  0  0  0  0  0  0  0
  148.9263  135.9986  155.4235 C   0  0  0  0  0  0  0  0  0  0  0  0
  149.0931  135.8104  156.6285 O   0  0  0  0  0  0  0  0  0  0  0  0
  149.4259  137.0271  154.7200 N   0  0  0  0  0  0  0  0  0  0  0  0
  150.3054  138.0435  155.1679 C   0  0  0  0  0  0  0  0  0  0  0  0
  150.4274  139.1442  154.4167 N   0  0  0  0  0  0  0  0  0  0  0  0
  151.3256  140.0517  154.9652 N   0  0  0  0  0  0  0  0  0  0  0  0
  151.8475  139.5979  156.1088 C   0  0  0  0  0  0  0  0  0  0  0  0
  151.2948  138.0162  156.6304 S   0  0  0  0  0  0  0  0  0  0  0  0
  146.7250  130.2096  152.5713 H   0  0  0  0  0  0  0  0  0  0  0  0
  145.1146  129.5931  152.2206 H   0  0  0  0  0  0  0  0  0  0  0  0
  145.4881  130.2132  153.8244 H   0  0  0  0  0  0  0  0  0  0  0  0
  144.1416  131.8354  152.5179 H   0  0  0  0  0  0  0  0  0  0  0  0
  146.4713  131.8719  150.5556 H   0  0  0  0  0  0  0  0  0  0  0  0
  144.8772  131.2315  150.2446 H   0  0  0  0  0  0  0  0  0  0  0  0
  145.1318  133.5330  149.3134 H   0  0  0  0  0  0  0  0  0  0  0  0
  143.8593  133.4610  150.5083 H   0  0  0  0  0  0  0  0  0  0  0  0
  146.6978  134.5039  150.9539 H   0  0  0  0  0  0  0  0  0  0  0  0
  145.2433  135.4679  150.8981 H   0  0  0  0  0  0  0  0  0  0  0  0
  145.9800  135.0479  153.2558 H   0  0  0  0  0  0  0  0  0  0  0  0
  144.3851  134.4088  152.9491 H   0  0  0  0  0  0  0  0  0  0  0  0
  145.6379  132.7395  154.1954 H   0  0  0  0  0  0  0  0  0  0  0  0
  147.8999  131.7976  154.6721 H   0  0  0  0  0  0  0  0  0  0  0  0
  149.1230  132.8263  153.9382 H   0  0  0  0  0  0  0  0  0  0  0  0
  146.5312  134.0260  155.0044 H   0  0  0  0  0  0  0  0  0  0  0  0
  147.8604  133.7108  156.0983 H   0  0  0  0  0  0  0  0  0  0  0  0
  148.1290  135.4158  153.6602 H   0  0  0  0  0  0  0  0  0  0  0  0
  149.1808  137.0660  153.7416 H   0  0  0  0  0  0  0  0  0  0  0  0
  152.5644  140.1989  156.6483 H   0  0  0  0  0  0  0  0  0  0  0  0
  1  2  1  0  0  0  0
  1 20  1  0  0  0  0
  1 21  1  0  0  0  0
  1 22  1  0  0  0  0
  2  7  1  0  0  0  0
  2  3  1  0  0  0  0
  2 23  1  0  0  0  0
  3  4  1  0  0  0  0
  3 24  1  0  0  0  0
  3 25  1  0  0  0  0
  4  5  1  0  0  0  0
  4 26  1  0  0  0  0
  4 27  1  0  0  0  0
  5  6  1  0  0  0  0
  5 28  1  0  0  0  0
  5 29  1  0  0  0  0
  6  7  1  0  0  0  0
  6 30  1  0  0  0  0
  6 31  1  0  0  0  0
  7  8  1  0  0  0  0
  7 32  1  0  0  0  0
  8  9  1  0  0  0  0
  9 10  1  0  0  0  0
  9 33  1  0  0  0  0
  9 34  1  0  0  0  0
 10 11  1  0  0  0  0
 10 35  1  0  0  0  0
 10 36  1  0  0  0  0
 11 12  1  0  0  0  0
 11 37  1  0  0  0  0
 12 13  2  0  0  0  0
 12 14  1  0  0  0  0
 14 15  1  0  0  0  0
 14 38  1  0  0  0  0
 15 19  1  0  0  0  0
 15 16  2  0  0  0  0
 16 17  1  0  0  0  0
 17 18  2  0  0  0  0
 18 19  1  0  0  0  0
 18 39  1  0  0  0  0
M  END
> <s_m_source_file>
AV-unprocessed.smi

> <i_m_source_file_index>
1947

> <i_lp_mmshare_version>
43012

> <i_f3d_flags>
0

> <s_epik_input>
W0NIM11bQ0BASF0xW0NIMl1bQ0gyXVtDSDJdW0NIMl1bQ0BIXTFPW0NIMl1bQ0gyXVtOSF1DKD1PKVtOSF1jMm5uW2NIXXMy

> <s_epik_cmdline>
J2VwaWtfcHl0aG9uJywgJy1waCcsICc3LjAnLCAnLXRuJywgJzgnLCAnLW1hJywgJzIwMCcsICctbWV0YWxfYmluZGluZycsICctaW1hZScsICc8aW5maWxlLm1hZT4nLCAnLW9tYWUnLCAnPG91dGZpbGUubWFlPic=

> <r_lp_tautomer_probability>
1

> <r_epik_Ionization_Penalty>
0.00220897

> <r_epik_Ionization_Penalty_Charging>
0

> <r_epik_Ionization_Penalty_Neutral>
0.00220897

> <r_epik_State_Penalty>
-0

> <r_epik_Charging_Adjusted_Penalty>
0

> <i_epik_Tot_Q>
0

> <i_epik_Tot_abs_Q>
0

> <r_epik_Metal_State_Penalty>
0.345002

> <b_epik_Metal_Only>
0

> <s_lp_Force_Field>
OPLS_2005

> <r_lp_Energy>
8.93842

> <b_lp_Chiralities_Consistent>
1

> <s_lp_Variant>
AV-unprocessed.smi:1947-3

> <Gold.Version>
5.8.1

> <Gold.Id.Protein>
6NUR|6NUR_protein|mol2

> <Gold.PLP.Fitness>
38.4988

> <Gold.PLP.PLP>
-31.4222

> <Gold.PLP.part.hbond>
-3.6529

> <Gold.PLP.part.metal>
0.0000

> <Gold.PLP.part.buried>
-6.0836

> <Gold.PLP.part.nonpolar>
-23.8036

> <Gold.PLP.part.repulsive>
1.6920

> <Gold.PLP.ligand.clash>
0.0000

> <Gold.PLP.ligand.torsion>
0.8887

> <Gold.PLP.Chemscore.Hbond>
2.9440

> <Gold.PLP.Chemscore.CHOScore>
0.0000

> <Gold.PLP.Chemscore.Metal>
0.0000

> <Gold.Chemscore.Hbonds>
donor molecule, donor type, donor heavy atom, donor atom, acceptor molecule, acceptor atom, score
      L1  H    11    37       P1  7948  0.76
      L1  H    14    38       P1  7948  0.96
      P1  H  7989  7998       L1    17  0.80

> <Gold.PLP.Chemscore.Internal.Correction>
0.0221

> <Gold.Rescore>
     Score         DG    S(hbond)    S(metal)    S(lipo)     H(rot)  DE(clash)    DE(int)     intcor
     15.72     -16.69       2.47        0.00      67.73       1.94       0.14       0.84       ----

> <Gold.Chemscore.Fitness>
15.7192

> <Gold.Chemscore.DG>
-16.6947

> <Gold.Chemscore.ZeroCoef>
-5.4800

> <Gold.Chemscore.Hbond>
2.4709

> <Gold.Chemscore.Metal>
0.0000

> <Gold.Chemscore.Lipo>
67.7288

> <Gold.Chemscore.Internal_Hbond>
0.0000

> <Gold.Chemscore.DEClash>
0.1372

> <Gold.Chemscore.DEInternal>
0.8383

> <Gold.Chemscore.Rot>
1.9385

> <Gold.Chemscore.Internal.Correction>
   9.000000E+99

> <Gold.Chemscore.Hbonds>
donor molecule, donor type, donor heavy atom, donor atom, acceptor molecule, acceptor atom, score
      L1  H    11    37       P1  7948  0.71
      L1  H    14    38       P1  7948  0.87
      P1  H  7989  7998       L1    17  0.12

> <Gold.Chemscore.Hbond.Weighted>
-8.2530

> <Gold.Chemscore.Metal.Weighted>
-0.0000

> <Gold.Chemscore.Lipo.Weighted>
-7.9243

> <Gold.Chemscore.Internal_Hbond.Weighted>
0.0000

> <Gold.Chemscore.DEClash.Weighted>
0.1372

> <Gold.Chemscore.DEInternal.Weighted>
0.8383

> <Gold.Chemscore.Rot.Weighted>
4.9625

> <Gold.Chemscore.Internal.Correction.Weighted>
   9.000000E+99

> <Gold.Protein.RotatedTorsions>
[ 6907 6896 6895 6894 ] final  166.23 input  -60.11 | X-H torsion
[ 7974 7965 7964 7962 ] final  -94.82 input  175.53 | X-H torsion
[ 8008 7997 7996 7995 ] final   -3.10 input   59.86 | X-H torsion
[ 10167 10162 10161 10158 ] final -170.81 input  -65.29 | X-H torsion
[ 10718 10713 10712 10709 ] final -144.68 input   66.30 | X-H torsion
[ 10763 10752 10751 10750 ] final -127.31 input  -60.55 | X-H torsion
[ 11005 11000 10999 10996 ] final -108.82 input  -57.11 | X-H torsion

> <Gold.Protein.ActiveResidues>
 VAL166  LYS551  ARG553  GLY616  TRP617  ASP618  TYR619  PRO620  LYS621  CYS622 
 ASP623  PHE694  ASN695  SER759  ASP760  ASP761  ALA762  ILE779  LEU786  VAL792 
 PHE793  MET794  SER795  GLU796  ALA797  LYS798  CYS799  TRP800  GLU811  SER814 

> <Gold.Protein.RotatedAtoms>
  151.8821  133.3497  159.3769 H   0  0  0  0  0  0  0  0  0  0  0  0  # atno 6907 bound_to 6896
  150.7125  134.5008  159.5569 H   0  0  0  0  0  0  0  0  0  0  0  0  # atno 6908 bound_to 6896
  152.2562  134.8082  160.0489 H   0  0  0  0  0  0  0  0  0  0  0  0  # atno 6909 bound_to 6896
  145.3682  140.9501  143.2462 H   0  0  0  0  0  0  0  0  0  0  0  0  # atno 7974 bound_to 7965
  154.6285  140.2518  155.7462 H   0  0  0  0  0  0  0  0  0  0  0  0  # atno 8008 bound_to 7997
  156.2466  140.2912  156.0546 H   0  0  0  0  0  0  0  0  0  0  0  0  # atno 8009 bound_to 7997
  155.1782  140.0388  157.2867 H   0  0  0  0  0  0  0  0  0  0  0  0  # atno 8010 bound_to 7997
  139.5839  144.1361  152.1551 H   0  0  0  0  0  0  0  0  0  0  0  0  # atno 10167 bound_to 10162
  156.3732  130.7798  151.1982 H   0  0  0  0  0  0  0  0  0  0  0  0  # atno 10718 bound_to 10713
  154.8751  135.3966  154.3573 H   0  0  0  0  0  0  0  0  0  0  0  0  # atno 10763 bound_to 10752
  153.4350  135.7026  153.6211 H   0  0  0  0  0  0  0  0  0  0  0  0  # atno 10764 bound_to 10752
  153.4816  135.3768  155.2414 H   0  0  0  0  0  0  0  0  0  0  0  0  # atno 10765 bound_to 10752
  141.0881  133.9103  157.2139 H   0  0  0  0  0  0  0  0  0  0  0  0  # atno 11005 bound_to 11000
  144.8596  139.5197  143.6818 LP  0  0  0  0  0  0  0  0  0  0  0  0  # atno 17320 bound_to 7965
  146.2897  139.7105  142.9170 LP  0  0  0  0  0  0  0  0  0  0  0  0  # atno 17321 bound_to 7965
  140.0920  144.5612  150.7048 LP  0  0  0  0  0  0  0  0  0  0  0  0  # atno 17342 bound_to 10162
  140.7114  143.2508  151.4570 LP  0  0  0  0  0  0  0  0  0  0  0  0  # atno 17343 bound_to 10162
  157.7486  131.0366  150.4417 LP  0  0  0  0  0  0  0  0  0  0  0  0  # atno 17370 bound_to 10713
  156.4648  130.4040  149.6554 LP  0  0  0  0  0  0  0  0  0  0  0  0  # atno 17371 bound_to 10713
  139.9702  135.0130  156.9492 LP  0  0  0  0  0  0  0  0  0  0  0  0  # atno 17394 bound_to 11000
  140.5316  134.0808  155.7317 LP  0  0  0  0  0  0  0  0  0  0  0  0  # atno 17395 bound_to 11000

$$$$
