AV-unprocessed.smi:1579|AV-procd|sdf|6355|dock6
  -GOLD-   22720 6573D 1   1.00000     0.00000
 Structure written by MMmdl.
 47 48  0  0  0  0  0  0  0  0  2 V2000
  148.3884  135.1269  155.4109 C   0  0  0  0  0  0  0  0  0  0  0  0
  149.1369  136.4154  155.2007 C   0  0  0  0  0  0  0  0  0  0  0  0
  148.4804  137.3862  154.6548 N   0  0  0  0  0  0  0  0  0  0  0  0
  149.0719  138.6112  154.4199 N   0  0  0  0  0  0  0  0  0  0  0  0
  148.1796  139.5950  153.7946 C   0  0  0  0  0  0  0  0  0  0  0  0
  146.7700  139.0187  153.5362 C   0  0  1  0  0  0  0  0  0  0  0  0
  145.8207  140.0246  153.8322 O   0  0  0  0  0  0  0  0  0  0  0  0
  146.5801  138.6249  152.0571 C   0  0  0  0  0  0  0  0  0  0  0  0
  146.1215  137.2210  151.8970 N   0  3  2  0  0  0  0  0  0  0  0  0
  145.6491  136.9083  150.5219 C   0  0  0  0  0  0  0  0  0  0  0  0
  145.3239  135.4124  150.3761 C   0  0  0  0  0  0  0  0  0  0  0  0
  144.2828  134.9623  151.4150 C   0  0  1  0  0  0  0  0  0  0  0  0
  143.9781  133.4622  151.3003 C   0  0  0  0  0  0  0  0  0  0  0  0
  144.7771  135.3362  152.8226 C   0  0  0  0  0  0  0  0  0  0  0  0
  145.1146  136.8338  152.9178 C   0  0  0  0  0  0  0  0  0  0  0  0
  150.3656  138.9203  154.7218 C   0  0  0  0  0  0  0  0  0  0  0  0
  150.8541  140.0258  154.4819 O   0  0  0  0  0  0  0  0  0  0  0  0
  151.1036  137.8171  155.3404 C   0  0  0  0  0  0  0  0  0  0  0  0
  152.4617  138.0994  155.6774 C   0  0  0  0  0  0  0  0  0  0  0  0
  153.5685  138.3125  155.9411 N   0  0  0  0  0  0  0  0  0  0  0  0
  150.5343  136.6084  155.5753 C   0  0  0  0  0  0  0  0  0  0  0  0
  151.2583  135.4308  156.2137 C   0  0  0  0  0  0  0  0  0  0  0  0
  148.4504  134.8068  156.4512 H   0  0  0  0  0  0  0  0  0  0  0  0
  148.8027  134.3342  154.7875 H   0  0  0  0  0  0  0  0  0  0  0  0
  147.3309  135.2249  155.1610 H   0  0  0  0  0  0  0  0  0  0  0  0
  148.1186  140.5074  154.3916 H   0  0  0  0  0  0  0  0  0  0  0  0
  148.6288  139.9120  152.8516 H   0  0  0  0  0  0  0  0  0  0  0  0
  146.5908  138.1596  154.1815 H   0  0  0  0  0  0  0  0  0  0  0  0
  145.0882  139.9298  153.2417 H   0  0  0  0  0  0  0  0  0  0  0  0
  145.8566  139.3076  151.6080 H   0  0  0  0  0  0  0  0  0  0  0  0
  147.5087  138.7603  151.5002 H   0  0  0  0  0  0  0  0  0  0  0  0
  144.7659  137.5070  150.2938 H   0  0  0  0  0  0  0  0  0  0  0  0
  146.4072  137.1762  149.7870 H   0  0  0  0  0  0  0  0  0  0  0  0
  144.9559  135.2144  149.3686 H   0  0  0  0  0  0  0  0  0  0  0  0
  146.2389  134.8292  150.4909 H   0  0  0  0  0  0  0  0  0  0  0  0
  143.3556  135.5051  151.2248 H   0  0  0  0  0  0  0  0  0  0  0  0
  144.8705  132.8607  151.4768 H   0  0  0  0  0  0  0  0  0  0  0  0
  143.5997  133.2132  150.3086 H   0  0  0  0  0  0  0  0  0  0  0  0
  143.2234  133.1585  152.0263 H   0  0  0  0  0  0  0  0  0  0  0  0
  144.0189  135.0836  153.5647 H   0  0  0  0  0  0  0  0  0  0  0  0
  145.6613  134.7481  153.0733 H   0  0  0  0  0  0  0  0  0  0  0  0
  145.4998  137.0480  153.9155 H   0  0  0  0  0  0  0  0  0  0  0  0
  144.2126  137.4342  152.7895 H   0  0  0  0  0  0  0  0  0  0  0  0
  152.3225  135.6241  156.3456 H   0  0  0  0  0  0  0  0  0  0  0  0
  151.1667  134.5375  155.5950 H   0  0  0  0  0  0  0  0  0  0  0  0
  150.8371  135.2142  157.1959 H   0  0  0  0  0  0  0  0  0  0  0  0
  146.9314  136.6428  152.0714 H   0  0  0  0  0  0  0  0  0  0  0  0
  1  2  1  0  0  0  0
  1 23  1  0  0  0  0
  1 24  1  0  0  0  0
  1 25  1  0  0  0  0
  2 21  1  0  0  0  0
  2  3  2  0  0  0  0
  3  4  1  0  0  0  0
  4  5  1  0  0  0  0
  4 16  1  0  0  0  0
  5  6  1  0  0  0  0
  5 26  1  0  0  0  0
  5 27  1  0  0  0  0
  6  7  1  0  0  0  0
  6  8  1  0  0  0  0
  6 28  1  0  0  0  0
  7 29  1  0  0  0  0
  8  9  1  0  0  0  0
  8 30  1  0  0  0  0
  8 31  1  0  0  0  0
  9 15  1  0  0  0  0
  9 10  1  0  0  0  0
  9 47  1  0  0  0  0
 10 11  1  0  0  0  0
 10 32  1  0  0  0  0
 10 33  1  0  0  0  0
 11 12  1  0  0  0  0
 11 34  1  0  0  0  0
 11 35  1  0  0  0  0
 12 13  1  0  0  0  0
 12 14  1  0  0  0  0
 12 36  1  0  0  0  0
 13 37  1  0  0  0  0
 13 38  1  0  0  0  0
 13 39  1  0  0  0  0
 14 15  1  0  0  0  0
 14 40  1  0  0  0  0
 14 41  1  0  0  0  0
 15 42  1  0  0  0  0
 15 43  1  0  0  0  0
 16 17  2  0  0  0  0
 16 18  1  0  0  0  0
 18 19  1  0  0  0  0
 18 21  2  0  0  0  0
 19 20  3  0  0  0  0
 21 22  1  0  0  0  0
 22 44  1  0  0  0  0
 22 45  1  0  0  0  0
 22 46  1  0  0  0  0
M  CHG  1   9   1
M  END
> <s_m_source_file>
AV-unprocessed.smi

> <i_m_source_file_index>
1579

> <i_lp_mmshare_version>
43012

> <i_f3d_flags>
0

> <s_epik_input>
TiNDYyhjMVtDSDNdKWMoPU8pbihuYzFbQ0gzXSlbQ0gyXVtDQEhdKFtPSF0pW0NIMl1OMltDSDJdW0NIMl1bQ0hdKFtDSDNdKVtDSDJdW0NIMl0y

> <s_epik_cmdline>
J2VwaWtfcHl0aG9uJywgJy1waCcsICc3LjAnLCAnLXRuJywgJzgnLCAnLW1hJywgJzIwMCcsICctbWV0YWxfYmluZGluZycsICctaW1hZScsICc8aW5maWxlLm1hZT4nLCAnLW9tYWUnLCAnPG91dGZpbGUubWFlPic=

> <r_epik_Ionization_Penalty>
0.00136816

> <r_epik_Ionization_Penalty_Charging>
0.00136813

> <r_epik_Ionization_Penalty_Neutral>
3.19884e-08

> <r_epik_State_Penalty>
0.000910892

> <r_epik_Charging_Adjusted_Penalty>
0.00227902

> <i_epik_Tot_Q>
1

> <i_epik_Tot_abs_Q>
1

> <r_epik_Metal_State_Penalty>
-0

> <b_epik_Metal_Only>
0

> <s_lp_Force_Field>
OPLS_2005

> <r_lp_Energy>
37.5904

> <b_lp_Chiralities_Consistent>
1

> <s_lp_Variant>
AV-unprocessed.smi:1579-2

> <Gold.Version>
5.8.1

> <Gold.Id.Protein>
6NUR|6NUR_protein|mol2

> <Gold.PLP.Fitness>
42.2431

> <Gold.PLP.PLP>
-30.8225

> <Gold.PLP.part.hbond>
-3.9756

> <Gold.PLP.part.metal>
0.0000

> <Gold.PLP.part.buried>
0.2504

> <Gold.PLP.part.nonpolar>
-29.4543

> <Gold.PLP.part.repulsive>
0.5009

> <Gold.PLP.ligand.clash>
0.0000

> <Gold.PLP.ligand.torsion>
1.4407

> <Gold.PLP.Chemscore.Hbond>
4.7593

> <Gold.PLP.Chemscore.CHOScore>
0.0000

> <Gold.PLP.Chemscore.Metal>
0.0000

> <Gold.Chemscore.Hbonds>
donor molecule, donor type, donor heavy atom, donor atom, acceptor molecule, acceptor atom, score
      L1  H     7    29       P1 10175  1.00
      L1  H     9    47       P1  7948  1.89
      P1  H  7989  7998       L1    17  0.96
      P1  H  7997  8010       L1    20  0.74

> <Gold.PLP.Chemscore.Internal.Correction>
0.0242

> <Gold.Rescore>
     Score         DG    S(hbond)    S(metal)    S(lipo)     H(rot)  DE(clash)    DE(int)     intcor
     17.35     -21.35       3.80        0.00      74.65       2.17       2.57       1.43       ----

> <Gold.Chemscore.Fitness>
17.3461

> <Gold.Chemscore.DG>
-21.3454

> <Gold.Chemscore.ZeroCoef>
-5.4800

> <Gold.Chemscore.Hbond>
3.7994

> <Gold.Chemscore.Metal>
0.0000

> <Gold.Chemscore.Lipo>
74.6538

> <Gold.Chemscore.Internal_Hbond>
0.0000

> <Gold.Chemscore.DEClash>
2.5688

> <Gold.Chemscore.DEInternal>
1.4305

> <Gold.Chemscore.Rot>
2.1715

> <Gold.Chemscore.Internal.Correction>
   9.000000E+99

> <Gold.Chemscore.Hbonds>
donor molecule, donor type, donor heavy atom, donor atom, acceptor molecule, acceptor atom, score
      L1  H     7    29       P1 10175  0.97
      L1  H     9    47       P1  7948  0.86
      P1  H  7989  7998       L1    17  0.90
      P1  H  7997  8010       L1    20  0.72

> <Gold.Chemscore.Hbond.Weighted>
-12.6900

> <Gold.Chemscore.Metal.Weighted>
-0.0000

> <Gold.Chemscore.Lipo.Weighted>
-8.7345

> <Gold.Chemscore.Internal_Hbond.Weighted>
0.0000

> <Gold.Chemscore.DEClash.Weighted>
2.5688

> <Gold.Chemscore.DEInternal.Weighted>
1.4305

> <Gold.Chemscore.Rot.Weighted>
5.5591

> <Gold.Chemscore.Internal.Correction.Weighted>
   9.000000E+99

> <Gold.Protein.RotatedTorsions>
[ 6907 6896 6895 6894 ] final  122.75 input  -60.11 | X-H torsion
[ 7974 7965 7964 7962 ] final   52.84 input  175.53 | X-H torsion
[ 8008 7997 7996 7995 ] final   77.39 input   59.86 | X-H torsion
[ 10167 10162 10161 10158 ] final  128.85 input  -65.29 | X-H torsion
[ 10718 10713 10712 10709 ] final -100.54 input   66.30 | X-H torsion
[ 10763 10752 10751 10750 ] final -171.53 input  -60.55 | X-H torsion
[ 11005 11000 10999 10996 ] final   21.45 input  -57.11 | X-H torsion

> <Gold.Protein.ActiveResidues>
 VAL166  LYS551  ARG553  GLY616  TRP617  ASP618  TYR619  PRO620  LYS621  CYS622 
 ASP623  PHE694  ASN695  SER759  ASP760  ASP761  ALA762  ILE779  LEU786  VAL792 
 PHE793  MET794  SER795  GLU796  ALA797  LYS798  CYS799  TRP800  GLU811  SER814 

> <Gold.Protein.RotatedAtoms>
  152.4218  133.7129  159.6488 H   0  0  0  0  0  0  0  0  0  0  0  0  # atno 6907 bound_to 6896
  150.8094  133.8439  159.3195 H   0  0  0  0  0  0  0  0  0  0  0  0  # atno 6908 bound_to 6896
  151.6153  135.1039  160.0141 H   0  0  0  0  0  0  0  0  0  0  0  0  # atno 6909 bound_to 6896
  145.9772  139.4206  143.0154 H   0  0  0  0  0  0  0  0  0  0  0  0  # atno 7974 bound_to 7965
  155.8409  140.3462  155.5631 H   0  0  0  0  0  0  0  0  0  0  0  0  # atno 8008 bound_to 7997
  155.8141  140.0903  157.1906 H   0  0  0  0  0  0  0  0  0  0  0  0  # atno 8009 bound_to 7997
  154.4005  140.1442  156.3409 H   0  0  0  0  0  0  0  0  0  0  0  0  # atno 8010 bound_to 7997
  139.5507  144.6810  151.4334 H   0  0  0  0  0  0  0  0  0  0  0  0  # atno 10167 bound_to 10162
  156.0166  130.5332  150.6831 H   0  0  0  0  0  0  0  0  0  0  0  0  # atno 10718 bound_to 10713
  154.6295  135.2885  155.0233 H   0  0  0  0  0  0  0  0  0  0  0  0  # atno 10763 bound_to 10752
  154.1398  135.6520  153.4943 H   0  0  0  0  0  0  0  0  0  0  0  0  # atno 10764 bound_to 10752
  153.0273  135.5330  154.7117 H   0  0  0  0  0  0  0  0  0  0  0  0  # atno 10765 bound_to 10752
  140.3914  134.1815  155.7662 H   0  0  0  0  0  0  0  0  0  0  0  0  # atno 11005 bound_to 11000
  145.7822  140.9851  143.1093 LP  0  0  0  0  0  0  0  0  0  0  0  0  # atno 17320 bound_to 7965
  144.6852  139.9578  143.7479 LP  0  0  0  0  0  0  0  0  0  0  0  0  # atno 17321 bound_to 7965
  140.6768  143.8172  150.7069 LP  0  0  0  0  0  0  0  0  0  0  0  0  # atno 17342 bound_to 10162
  140.1613  143.4273  152.2065 LP  0  0  0  0  0  0  0  0  0  0  0  0  # atno 17343 bound_to 10162
  157.4529  131.0874  151.0827 LP  0  0  0  0  0  0  0  0  0  0  0  0  # atno 17370 bound_to 10713
  157.1337  130.6113  149.5536 LP  0  0  0  0  0  0  0  0  0  0  0  0  # atno 17371 bound_to 10713
  141.1889  133.8249  157.0976 LP  0  0  0  0  0  0  0  0  0  0  0  0  # atno 17394 bound_to 11000
  140.0404  134.9857  157.0950 LP  0  0  0  0  0  0  0  0  0  0  0  0  # atno 17395 bound_to 11000

$$$$
