AV-unprocessed.smi:3280|AV-procd|sdf|12552|dock8
  -GOLD-   2272018473D 1   1.00000     0.00000
 Structure written by MMmdl.
 39 40  0  0  0  0  0  0  0  0  2 V2000
  143.6076  142.4805  155.7963 C   0  0  0  0  0  0  0  0  0  0  0  0
  144.7301  143.5233  155.6846 C   0  0  0  0  0  0  0  0  0  0  0  0
  144.3497  144.7200  154.8003 C   0  0  0  0  0  0  0  0  0  0  0  0
  146.0240  142.9049  155.2509 C   0  0  0  0  0  0  0  0  0  0  0  0
  146.6244  143.2812  154.1273 N   0  0  0  0  0  0  0  0  0  0  0  0
  147.7623  142.4643  154.0759 O   0  0  0  0  0  0  0  0  0  0  0  0
  147.7178  141.6995  155.1922 C   0  0  0  0  0  0  0  0  0  0  0  0
  148.7810  140.6751  155.4062 C   0  0  0  0  0  0  0  0  0  0  0  0
  150.1664  141.3050  155.5981 C   0  0  0  0  0  0  0  0  0  0  0  0
  150.1379  142.3341  156.6595 N   0  3  0  0  0  0  0  0  0  0  0  0
  151.3759  142.4590  157.4619 C   0  0  2  0  0  0  0  0  0  0  0  0
  151.4642  141.2718  158.4415 C   0  0  0  0  0  0  0  0  0  0  0  0
  152.7657  141.2620  159.2598 C   0  0  0  0  0  0  0  0  0  0  0  0
  152.9192  142.5157  160.1307 C   0  0  0  0  0  0  0  0  0  0  0  0
  152.9902  144.0115  159.1105 S   0  0  0  0  0  0  0  0  0  0  0  0
  151.4277  143.8067  158.2126 C   0  0  0  0  0  0  0  0  0  0  0  0
  146.6465  141.9139  155.9502 N   0  0  0  0  0  0  0  0  0  0  0  0
  143.8819  141.6801  156.4842 H   0  0  0  0  0  0  0  0  0  0  0  0
  143.3875  142.0281  154.8288 H   0  0  0  0  0  0  0  0  0  0  0  0
  142.6879  142.9337  156.1669 H   0  0  0  0  0  0  0  0  0  0  0  0
  144.8807  143.9191  156.6906 H   0  0  0  0  0  0  0  0  0  0  0  0
  145.1370  145.4747  154.8025 H   0  0  0  0  0  0  0  0  0  0  0  0
  143.4357  145.1959  155.1563 H   0  0  0  0  0  0  0  0  0  0  0  0
  144.1834  144.4137  153.7672 H   0  0  0  0  0  0  0  0  0  0  0  0
  148.5149  140.0763  156.2783 H   0  0  0  0  0  0  0  0  0  0  0  0
  148.7890  139.9985  154.5505 H   0  0  0  0  0  0  0  0  0  0  0  0
  150.8876  140.5304  155.8630 H   0  0  0  0  0  0  0  0  0  0  0  0
  150.4981  141.7498  154.6599 H   0  0  0  0  0  0  0  0  0  0  0  0
  149.9206  143.2311  156.2488 H   0  0  0  0  0  0  0  0  0  0  0  0
  152.2244  142.3980  156.7784 H   0  0  0  0  0  0  0  0  0  0  0  0
  150.6096  141.2853  159.1196 H   0  0  0  0  0  0  0  0  0  0  0  0
  151.3953  140.3361  157.8852 H   0  0  0  0  0  0  0  0  0  0  0  0
  152.7807  140.3786  159.8988 H   0  0  0  0  0  0  0  0  0  0  0  0
  153.6232  141.1694  158.5921 H   0  0  0  0  0  0  0  0  0  0  0  0
  152.0868  142.5996  160.8303 H   0  0  0  0  0  0  0  0  0  0  0  0
  153.8314  142.4542  160.7248 H   0  0  0  0  0  0  0  0  0  0  0  0
  151.3401  144.6468  157.5246 H   0  0  0  0  0  0  0  0  0  0  0  0
  150.6006  143.8855  158.9190 H   0  0  0  0  0  0  0  0  0  0  0  0
  149.3929  142.0853  157.2947 H   0  0  0  0  0  0  0  0  0  0  0  0
  1  2  1  0  0  0  0
  1 18  1  0  0  0  0
  1 19  1  0  0  0  0
  1 20  1  0  0  0  0
  2  3  1  0  0  0  0
  2  4  1  0  0  0  0
  2 21  1  0  0  0  0
  3 22  1  0  0  0  0
  3 23  1  0  0  0  0
  3 24  1  0  0  0  0
  4 17  1  0  0  0  0
  4  5  2  0  0  0  0
  5  6  1  0  0  0  0
  6  7  1  0  0  0  0
  7  8  1  0  0  0  0
  7 17  2  0  0  0  0
  8  9  1  0  0  0  0
  8 25  1  0  0  0  0
  8 26  1  0  0  0  0
  9 10  1  0  0  0  0
  9 27  1  0  0  0  0
  9 28  1  0  0  0  0
 10 11  1  0  0  0  0
 10 29  1  0  0  0  0
 10 39  1  0  0  0  0
 11 16  1  0  0  0  0
 11 12  1  0  0  0  0
 11 30  1  0  0  0  0
 12 13  1  0  0  0  0
 12 31  1  0  0  0  0
 12 32  1  0  0  0  0
 13 14  1  0  0  0  0
 13 33  1  0  0  0  0
 13 34  1  0  0  0  0
 14 15  1  0  0  0  0
 14 35  1  0  0  0  0
 14 36  1  0  0  0  0
 15 16  1  0  0  0  0
 16 37  1  0  0  0  0
 16 38  1  0  0  0  0
M  CHG  1  10   1
M  END
> <s_m_source_file>
AV-unprocessed.smi

> <i_m_source_file_index>
3280

> <i_lp_mmshare_version>
43012

> <i_f3d_flags>
0

> <s_epik_input>
W0NIM11bQ0hdKFtDSDNdKWMxbm9jKG4xKVtDSDJdW0NIMl1bTkhdW0NAQEhdMltDSDJdW0NIMl1bQ0gyXVNbQ0gyXTI=

> <s_epik_cmdline>
J2VwaWtfcHl0aG9uJywgJy1waCcsICc3LjAnLCAnLXRuJywgJzgnLCAnLW1hJywgJzIwMCcsICctbWV0YWxfYmluZGluZycsICctaW1hZScsICc8aW5maWxlLm1hZT4nLCAnLW9tYWUnLCAnPG91dGZpbGUubWFlPic=

> <r_lp_tautomer_probability>
1

> <r_epik_Ionization_Penalty>
0.0103043

> <r_epik_Ionization_Penalty_Charging>
0.0103043

> <r_epik_Ionization_Penalty_Neutral>
2.61801e-13

> <r_epik_State_Penalty>
0.0078728

> <r_epik_Charging_Adjusted_Penalty>
0.0181771

> <i_epik_Tot_Q>
1

> <i_epik_Tot_abs_Q>
1

> <r_epik_Metal_State_Penalty>
0.0078728

> <b_epik_Metal_Only>
0

> <s_lp_Force_Field>
OPLS_2005

> <r_lp_Energy>
0.790669

> <b_lp_Chiralities_Consistent>
1

> <s_lp_Variant>
AV-unprocessed.smi:3280-1

> <Gold.Version>
5.8.1

> <Gold.Id.Protein>
6NUR|6NUR_protein|mol2

> <Gold.PLP.Fitness>
39.1462

> <Gold.PLP.PLP>
-33.9315

> <Gold.PLP.part.hbond>
-3.0000

> <Gold.PLP.part.metal>
0.0000

> <Gold.PLP.part.buried>
-2.5937

> <Gold.PLP.part.nonpolar>
-29.0575

> <Gold.PLP.part.repulsive>
0.5642

> <Gold.PLP.ligand.clash>
0.0000

> <Gold.PLP.ligand.torsion>
0.4349

> <Gold.PLP.Chemscore.Hbond>
2.0000

> <Gold.PLP.Chemscore.CHOScore>
0.0000

> <Gold.PLP.Chemscore.Metal>
0.0000

> <Gold.Chemscore.Hbonds>
donor molecule, donor type, donor heavy atom, donor atom, acceptor molecule, acceptor atom, score
      L1  H    10    29       P1  8028  2.00

> <Gold.PLP.Chemscore.Internal.Correction>
0.0846

> <Gold.Rescore>
     Score         DG    S(hbond)    S(metal)    S(lipo)     H(rot)  DE(clash)    DE(int)     intcor
     14.27     -14.77       1.00        0.00      89.27       1.76       0.06       0.44       ----

> <Gold.Chemscore.Fitness>
14.2696

> <Gold.Chemscore.DG>
-14.7668

> <Gold.Chemscore.ZeroCoef>
-5.4800

> <Gold.Chemscore.Hbond>
1.0000

> <Gold.Chemscore.Metal>
0.0000

> <Gold.Chemscore.Lipo>
89.2749

> <Gold.Chemscore.Internal_Hbond>
0.0000

> <Gold.Chemscore.DEClash>
0.0551

> <Gold.Chemscore.DEInternal>
0.4421

> <Gold.Chemscore.Rot>
1.7572

> <Gold.Chemscore.Internal.Correction>
   9.000000E+99

> <Gold.Chemscore.Hbonds>
donor molecule, donor type, donor heavy atom, donor atom, acceptor molecule, acceptor atom, score
      L1  H    10    29       P1  8028  0.99

> <Gold.Chemscore.Hbond.Weighted>
-3.3400

> <Gold.Chemscore.Metal.Weighted>
-0.0000

> <Gold.Chemscore.Lipo.Weighted>
-10.4452

> <Gold.Chemscore.Internal_Hbond.Weighted>
0.0000

> <Gold.Chemscore.DEClash.Weighted>
0.0551

> <Gold.Chemscore.DEInternal.Weighted>
0.4421

> <Gold.Chemscore.Rot.Weighted>
4.4984

> <Gold.Chemscore.Internal.Correction.Weighted>
   9.000000E+99

> <Gold.Protein.RotatedTorsions>
[ 6907 6896 6895 6894 ] final  -46.07 input  -60.11 | X-H torsion
[ 7974 7965 7964 7962 ] final  -25.76 input  175.53 | X-H torsion
[ 8008 7997 7996 7995 ] final  -78.61 input   59.86 | X-H torsion
[ 10167 10162 10161 10158 ] final  166.04 input  -65.29 | X-H torsion
[ 10718 10713 10712 10709 ] final -140.38 input   66.30 | X-H torsion
[ 10763 10752 10751 10750 ] final -144.89 input  -60.55 | X-H torsion
[ 11005 11000 10999 10996 ] final   37.50 input  -57.11 | X-H torsion

> <Gold.Protein.ActiveResidues>
 VAL166  LYS551  ARG553  GLY616  TRP617  ASP618  TYR619  PRO620  LYS621  CYS622 
 ASP623  PHE694  ASN695  SER759  ASP760  ASP761  ALA762  ILE779  LEU786  VAL792 
 PHE793  MET794  SER795  GLU796  ALA797  LYS798  CYS799  TRP800  GLU811  SER814 

> <Gold.Protein.RotatedAtoms>
  150.9151  134.8569  159.7451 H   0  0  0  0  0  0  0  0  0  0  0  0  # atno 6907 bound_to 6896
  152.4964  134.4301  159.9519 H   0  0  0  0  0  0  0  0  0  0  0  0  # atno 6908 bound_to 6896
  151.4340  133.3622  159.2808 H   0  0  0  0  0  0  0  0  0  0  0  0  # atno 6909 bound_to 6896
  146.1470  140.4929  142.8627 H   0  0  0  0  0  0  0  0  0  0  0  0  # atno 7974 bound_to 7965
  154.5706  140.0691  156.8958 H   0  0  0  0  0  0  0  0  0  0  0  0  # atno 8008 bound_to 7997
  155.2642  140.3360  155.4252 H   0  0  0  0  0  0  0  0  0  0  0  0  # atno 8009 bound_to 7997
  156.2115  140.1761  156.7670 H   0  0  0  0  0  0  0  0  0  0  0  0  # atno 8010 bound_to 7997
  139.4917  144.4069  151.9344 H   0  0  0  0  0  0  0  0  0  0  0  0  # atno 10167 bound_to 10162
  156.3216  130.7537  151.1636 H   0  0  0  0  0  0  0  0  0  0  0  0  # atno 10718 bound_to 10713
  154.8408  135.3428  154.6418 H   0  0  0  0  0  0  0  0  0  0  0  0  # atno 10763 bound_to 10752
  153.7029  135.6968  153.5062 H   0  0  0  0  0  0  0  0  0  0  0  0  # atno 10764 bound_to 10752
  153.2509  135.4354  155.0751 H   0  0  0  0  0  0  0  0  0  0  0  0  # atno 10765 bound_to 10752
  140.2219  134.3631  155.8001 H   0  0  0  0  0  0  0  0  0  0  0  0  # atno 11005 bound_to 11000
  144.7858  140.5933  143.6575 LP  0  0  0  0  0  0  0  0  0  0  0  0  # atno 17320 bound_to 7965
  145.4914  139.1488  143.3708 LP  0  0  0  0  0  0  0  0  0  0  0  0  # atno 17321 bound_to 7965
  140.3510  144.3089  150.5949 LP  0  0  0  0  0  0  0  0  0  0  0  0  # atno 17342 bound_to 10162
  140.5485  143.2210  151.7966 LP  0  0  0  0  0  0  0  0  0  0  0  0  # atno 17343 bound_to 10162
  157.7413  131.0506  150.5107 LP  0  0  0  0  0  0  0  0  0  0  0  0  # atno 17370 bound_to 10713
  156.5260  130.4173  149.6226 LP  0  0  0  0  0  0  0  0  0  0  0  0  # atno 17371 bound_to 10713
  141.2222  133.7198  156.8590 LP  0  0  0  0  0  0  0  0  0  0  0  0  # atno 17394 bound_to 11000
  140.1841  134.9013  157.2983 LP  0  0  0  0  0  0  0  0  0  0  0  0  # atno 17395 bound_to 11000

$$$$
