AV-unprocessed.smi:1254|AV-procd|sdf|5269|dock6
  -GOLD-   22720 4383D 1   1.00000     0.00000
 Structure written by MMmdl.
 46 47  0  0  0  0  0  0  0  0  2 V2000
  151.9264  145.3557  159.7722 C   0  0  0  0  0  0  0  0  0  0  0  0
  151.6019  144.0675  159.0961 C   0  0  0  0  0  0  0  0  0  0  0  0
  151.7999  143.6097  157.8237 C   0  0  0  0  0  0  0  0  0  0  0  0
  151.2416  142.3042  157.8632 C   0  0  0  0  0  0  0  0  0  0  0  0
  151.2410  141.4765  156.7113 N   0  0  0  0  0  0  0  0  0  0  0  0
  151.9108  140.3255  156.5312 C   0  0  0  0  0  0  0  0  0  0  0  0
  152.6639  139.8048  157.3545 O   0  0  0  0  0  0  0  0  0  0  0  0
  151.6636  139.8002  155.3226 N   0  0  0  0  0  0  0  0  0  0  0  0
  152.2250  138.5488  154.8216 C   0  0  0  0  0  0  0  0  0  0  0  0
  151.1483  137.4984  154.4837 C   0  0  2  0  0  0  0  0  0  0  0  0
  149.7085  138.0020  154.7218 C   0  0  0  0  0  0  0  0  0  0  0  0
  148.7284  136.9225  154.4464 N   0  3  2  0  0  0  0  0  0  0  0  0
  147.3120  137.3424  154.6022 C   0  0  0  0  0  0  0  0  0  0  0  0
  146.9979  138.7017  153.9388 C   0  0  0  0  0  0  0  0  0  0  0  0
  145.9138  139.4480  154.7307 C   0  0  0  0  0  0  0  0  0  0  0  0
  146.5745  138.5423  152.4688 C   0  0  0  0  0  0  0  0  0  0  0  0
  149.0500  135.7182  155.2477 C   0  0  0  0  0  0  0  0  0  0  0  0
  150.5041  135.2842  155.0041 C   0  0  0  0  0  0  0  0  0  0  0  0
  151.3795  136.3623  155.3097 O   0  0  0  0  0  0  0  0  0  0  0  0
  150.7516  141.9914  159.0531 N   0  0  0  0  0  0  0  0  0  0  0  0
  150.9783  143.1205  159.8488 O   0  0  0  0  0  0  0  0  0  0  0  0
  152.7812  145.8387  159.2984 H   0  0  0  0  0  0  0  0  0  0  0  0
  152.1695  145.1946  160.8229 H   0  0  0  0  0  0  0  0  0  0  0  0
  151.0798  146.0406  159.7215 H   0  0  0  0  0  0  0  0  0  0  0  0
  152.2663  144.1291  156.9996 H   0  0  0  0  0  0  0  0  0  0  0  0
  150.6586  141.7890  155.9487 H   0  0  0  0  0  0  0  0  0  0  0  0
  151.0281  140.2910  154.7106 H   0  0  0  0  0  0  0  0  0  0  0  0
  152.8389  138.7530  153.9427 H   0  0  0  0  0  0  0  0  0  0  0  0
  152.8997  138.1553  155.5824 H   0  0  0  0  0  0  0  0  0  0  0  0
  151.2603  137.1981  153.4404 H   0  0  0  0  0  0  0  0  0  0  0  0
  149.5952  138.3471  155.7509 H   0  0  0  0  0  0  0  0  0  0  0  0
  149.5124  138.8557  154.0752 H   0  0  0  0  0  0  0  0  0  0  0  0
  146.6645  136.5869  154.1540 H   0  0  0  0  0  0  0  0  0  0  0  0
  147.0609  137.3664  155.6638 H   0  0  0  0  0  0  0  0  0  0  0  0
  147.8884  139.3289  153.9656 H   0  0  0  0  0  0  0  0  0  0  0  0
  144.9765  138.8904  154.7433 H   0  0  0  0  0  0  0  0  0  0  0  0
  145.7117  140.4273  154.2957 H   0  0  0  0  0  0  0  0  0  0  0  0
  146.2202  139.6070  155.7652 H   0  0  0  0  0  0  0  0  0  0  0  0
  145.6861  137.9163  152.3770 H   0  0  0  0  0  0  0  0  0  0  0  0
  147.3654  138.0883  151.8713 H   0  0  0  0  0  0  0  0  0  0  0  0
  146.3461  139.5095  152.0198 H   0  0  0  0  0  0  0  0  0  0  0  0
  148.8943  135.9309  156.3066 H   0  0  0  0  0  0  0  0  0  0  0  0
  148.3766  134.9026  154.9815 H   0  0  0  0  0  0  0  0  0  0  0  0
  150.7539  134.4347  155.6402 H   0  0  0  0  0  0  0  0  0  0  0  0
  150.6481  134.9619  153.9717 H   0  0  0  0  0  0  0  0  0  0  0  0
  148.8447  136.6572  153.4787 H   0  0  0  0  0  0  0  0  0  0  0  0
  1  2  1  0  0  0  0
  1 22  1  0  0  0  0
  1 23  1  0  0  0  0
  1 24  1  0  0  0  0
  2 21  1  0  0  0  0
  2  3  2  0  0  0  0
  3  4  1  0  0  0  0
  3 25  1  0  0  0  0
  4  5  1  0  0  0  0
  4 20  2  0  0  0  0
  5  6  1  0  0  0  0
  5 26  1  0  0  0  0
  6  7  2  0  0  0  0
  6  8  1  0  0  0  0
  8  9  1  0  0  0  0
  8 27  1  0  0  0  0
  9 10  1  0  0  0  0
  9 28  1  0  0  0  0
  9 29  1  0  0  0  0
 10 19  1  0  0  0  0
 10 11  1  0  0  0  0
 10 30  1  0  0  0  0
 11 12  1  0  0  0  0
 11 31  1  0  0  0  0
 11 32  1  0  0  0  0
 12 13  1  0  0  0  0
 12 17  1  0  0  0  0
 12 46  1  0  0  0  0
 13 14  1  0  0  0  0
 13 33  1  0  0  0  0
 13 34  1  0  0  0  0
 14 15  1  0  0  0  0
 14 16  1  0  0  0  0
 14 35  1  0  0  0  0
 15 36  1  0  0  0  0
 15 37  1  0  0  0  0
 15 38  1  0  0  0  0
 16 39  1  0  0  0  0
 16 40  1  0  0  0  0
 16 41  1  0  0  0  0
 17 18  1  0  0  0  0
 17 42  1  0  0  0  0
 17 43  1  0  0  0  0
 18 19  1  0  0  0  0
 18 44  1  0  0  0  0
 18 45  1  0  0  0  0
 20 21  1  0  0  0  0
M  CHG  1  12   1
M  END
> <s_m_source_file>
AV-unprocessed.smi

> <i_m_source_file_index>
1254

> <i_lp_mmshare_version>
43012

> <i_f3d_flags>
0

> <s_epik_input>
W0NIM11jMVtjSF1jKG5vMSlbTkhdQyg9TylbTkhdW0NIMl1bQ0BASF0yW0NIMl1OKFtDSDJdW0NIMl1PMilbQ0gyXVtDSF0oW0NIM10pW0NIM10=

> <s_epik_cmdline>
J2VwaWtfcHl0aG9uJywgJy1waCcsICc3LjAnLCAnLXRuJywgJzgnLCAnLW1hJywgJzIwMCcsICctbWV0YWxfYmluZGluZycsICctaW1hZScsICc8aW5maWxlLm1hZT4nLCAnLW9tYWUnLCAnPG91dGZpbGUubWFlPic=

> <r_epik_Ionization_Penalty>
0.0986825

> <r_epik_Ionization_Penalty_Charging>
0.0986478

> <r_epik_Ionization_Penalty_Neutral>
3.46838e-05

> <r_epik_State_Penalty>
0.0887259

> <r_epik_Charging_Adjusted_Penalty>
0.187374

> <i_epik_Tot_Q>
1

> <i_epik_Tot_abs_Q>
1

> <r_epik_Metal_State_Penalty>
0.103424

> <b_epik_Metal_Only>
0

> <s_lp_Force_Field>
OPLS_2005

> <r_lp_Energy>
15.3676

> <b_lp_Chiralities_Consistent>
1

> <s_lp_Variant>
AV-unprocessed.smi:1254-1

> <Gold.Version>
5.8.1

> <Gold.Id.Protein>
6NUR|6NUR_protein|mol2

> <Gold.PLP.Fitness>
45.1159

> <Gold.PLP.PLP>
-37.6976

> <Gold.PLP.part.hbond>
-4.2036

> <Gold.PLP.part.metal>
0.0000

> <Gold.PLP.part.buried>
-6.7162

> <Gold.PLP.part.nonpolar>
-28.8252

> <Gold.PLP.part.repulsive>
1.2285

> <Gold.PLP.ligand.clash>
0.9638

> <Gold.PLP.ligand.torsion>
1.8322

> <Gold.PLP.Chemscore.Hbond>
4.0000

> <Gold.PLP.Chemscore.CHOScore>
0.0000

> <Gold.PLP.Chemscore.Metal>
0.0000

> <Gold.Chemscore.Hbonds>
donor molecule, donor type, donor heavy atom, donor atom, acceptor molecule, acceptor atom, score
      L1  H    12    46       P1  7948  2.00
      P1  H  7997  8009       L1     7  1.00
      P1  H 10752 10765       L1    19  1.00

> <Gold.PLP.Chemscore.Internal.Correction>
0.0465

> <Gold.Rescore>
     Score         DG    S(hbond)    S(metal)    S(lipo)     H(rot)  DE(clash)    DE(int)     intcor
     16.71     -18.79       2.43        0.00      82.31       1.73       0.31       1.78       ----

> <Gold.Chemscore.Fitness>
16.7068

> <Gold.Chemscore.DG>
-18.7928

> <Gold.Chemscore.ZeroCoef>
-5.4800

> <Gold.Chemscore.Hbond>
2.4277

> <Gold.Chemscore.Metal>
0.0000

> <Gold.Chemscore.Lipo>
82.3146

> <Gold.Chemscore.Internal_Hbond>
0.0000

> <Gold.Chemscore.DEClash>
0.3056

> <Gold.Chemscore.DEInternal>
1.7804

> <Gold.Chemscore.Rot>
1.7291

> <Gold.Chemscore.Internal.Correction>
   9.000000E+99

> <Gold.Chemscore.Hbonds>
donor molecule, donor type, donor heavy atom, donor atom, acceptor molecule, acceptor atom, score
      L1  H    12    46       P1  7948  1.00
      P1  H  7997  8009       L1     7  0.50
      P1  H 10752 10765       L1    19  0.21

> <Gold.Chemscore.Hbond.Weighted>
-8.1084

> <Gold.Chemscore.Metal.Weighted>
-0.0000

> <Gold.Chemscore.Lipo.Weighted>
-9.6308

> <Gold.Chemscore.Internal_Hbond.Weighted>
0.0000

> <Gold.Chemscore.DEClash.Weighted>
0.3056

> <Gold.Chemscore.DEInternal.Weighted>
1.7804

> <Gold.Chemscore.Rot.Weighted>
4.4265

> <Gold.Chemscore.Internal.Correction.Weighted>
   9.000000E+99

> <Gold.Protein.RotatedTorsions>
[ 6907 6896 6895 6894 ] final -161.17 input  -60.11 | X-H torsion
[ 7974 7965 7964 7962 ] final  116.15 input  175.53 | X-H torsion
[ 8008 7997 7996 7995 ] final  177.42 input   59.86 | X-H torsion
[ 10167 10162 10161 10158 ] final   12.62 input  -65.29 | X-H torsion
[ 10718 10713 10712 10709 ] final  -72.13 input   66.30 | X-H torsion
[ 10763 10752 10751 10750 ] final -153.70 input  -60.55 | X-H torsion
[ 11005 11000 10999 10996 ] final   22.12 input  -57.11 | X-H torsion

> <Gold.Protein.ActiveResidues>
 VAL166  LYS551  ARG553  GLY616  TRP617  ASP618  TYR619  PRO620  LYS621  CYS622 
 ASP623  PHE694  ASN695  SER759  ASP760  ASP761  ALA762  ILE779  LEU786  VAL792 
 PHE793  MET794  SER795  GLU796  ALA797  LYS798  CYS799  TRP800  GLU811  SER814 

> <Gold.Protein.RotatedAtoms>
  151.3605  133.3891  159.2689 H   0  0  0  0  0  0  0  0  0  0  0  0  # atno 6907 bound_to 6896
  150.9729  134.9099  159.7809 H   0  0  0  0  0  0  0  0  0  0  0  0  # atno 6908 bound_to 6896
  152.5191  134.3568  159.9323 H   0  0  0  0  0  0  0  0  0  0  0  0  # atno 6909 bound_to 6896
  145.1832  139.3039  143.4407 H   0  0  0  0  0  0  0  0  0  0  0  0  # atno 7974 bound_to 7965
  156.0659  140.1359  156.9887 H   0  0  0  0  0  0  0  0  0  0  0  0  # atno 8008 bound_to 7997
  154.4505  140.0982  156.6657 H   0  0  0  0  0  0  0  0  0  0  0  0  # atno 8009 bound_to 7997
  155.5305  140.3458  155.4427 H   0  0  0  0  0  0  0  0  0  0  0  0  # atno 8010 bound_to 7997
  140.6056  143.8515  150.7010 H   0  0  0  0  0  0  0  0  0  0  0  0  # atno 10167 bound_to 10162
  156.0333  130.4366  150.2547 H   0  0  0  0  0  0  0  0  0  0  0  0  # atno 10718 bound_to 10713
  154.7909  135.3207  154.7778 H   0  0  0  0  0  0  0  0  0  0  0  0  # atno 10763 bound_to 10752
  153.8467  135.6866  153.4801 H   0  0  0  0  0  0  0  0  0  0  0  0  # atno 10764 bound_to 10752
  153.1579  135.4672  154.9671 H   0  0  0  0  0  0  0  0  0  0  0  0  # atno 10765 bound_to 10752
  140.3841  134.1889  155.7663 H   0  0  0  0  0  0  0  0  0  0  0  0  # atno 11005 bound_to 11000
  146.3449  140.2019  142.8589 LP  0  0  0  0  0  0  0  0  0  0  0  0  # atno 17320 bound_to 7965
  145.0115  140.8718  143.5221 LP  0  0  0  0  0  0  0  0  0  0  0  0  # atno 17321 bound_to 7965
  140.2071  143.3912  152.1746 LP  0  0  0  0  0  0  0  0  0  0  0  0  # atno 17342 bound_to 10162
  139.5322  144.7172  151.5016 LP  0  0  0  0  0  0  0  0  0  0  0  0  # atno 17343 bound_to 10162
  157.0648  131.0100  151.3210 LP  0  0  0  0  0  0  0  0  0  0  0  0  # atno 17370 bound_to 10713
  157.5043  130.7899  149.7638 LP  0  0  0  0  0  0  0  0  0  0  0  0  # atno 17371 bound_to 10713
  141.1913  133.8197  157.0883 LP  0  0  0  0  0  0  0  0  0  0  0  0  # atno 17394 bound_to 11000
  140.0456  134.9832  157.1043 LP  0  0  0  0  0  0  0  0  0  0  0  0  # atno 17395 bound_to 11000

$$$$
