AV-unprocessed.smi:21|AV-procd|sdf|167|dock2
  -GOLD-   2262015413D 1   1.00000     0.00000
 Structure written by MMmdl.
 61 64  0  0  0  0  0  0  0  0  1 V2000
  153.0824  144.6639  157.5156 C   0  0  0  0  0  0  0  0  0  0  0  0
  152.4752  145.0937  158.7234 O   0  0  0  0  0  0  0  0  0  0  0  0
  151.9974  144.0245  159.5274 C   0  0  1  0  0  0  0  0  0  0  0  0
  151.1120  143.0843  158.6947 C   0  0  0  0  0  0  0  0  0  0  0  0
  151.8465  141.7339  158.7182 C   0  0  2  0  0  0  0  0  0  0  0  0
  150.9063  140.5181  158.5736 C   0  0  0  0  0  0  0  0  0  0  0  0
  150.3555  140.3945  157.2215 N   0  0  0  0  0  0  0  0  0  0  0  0
  150.7599  141.3822  156.2288 C   0  0  0  0  0  0  0  0  0  0  0  0
  149.2809  139.5884  156.9843 C   0  0  0  0  0  0  0  0  0  0  0  0
  148.7920  138.8503  158.0165 N   0  0  0  0  0  0  0  0  0  0  0  0
  147.7414  138.0441  157.8484 C   0  0  0  0  0  0  0  0  0  0  0  0
  147.0338  137.8195  156.7423 N   0  0  0  0  0  0  0  0  0  0  0  0
  147.5125  138.5482  155.6952 C   0  0  0  0  0  0  0  0  0  0  0  0
  148.6166  139.4510  155.7252 C   0  0  0  0  0  0  0  0  0  0  0  0
  148.7786  140.0176  154.4642 N   0  0  0  0  0  0  0  0  0  0  0  0
  147.8378  139.4814  153.7378 C   0  0  0  0  0  0  0  0  0  0  0  0
  147.0449  138.5682  154.3921 N   0  0  0  0  0  0  0  0  0  0  0  0
  145.9247  137.8347  153.8280 C   0  0  0  0  0  0  0  0  0  0  0  0
  146.2767  136.4378  153.2423 C   0  0  1  0  0  0  0  0  0  0  0  0
  146.4901  135.4406  154.4074 C   0  0  0  0  0  0  0  0  0  0  0  0
  147.3518  134.3852  154.0331 O   0  0  0  0  0  0  0  0  0  0  0  0
  145.2178  135.9057  152.2296 C   0  0  1  0  0  0  0  0  0  0  0  0
  145.5958  134.6356  151.4766 C   0  0  0  0  0  0  0  0  0  0  0  0
  144.2547  134.0434  151.0457 C   0  0  0  0  0  0  0  0  0  0  0  0
  143.2678  134.6458  151.8722 O   0  0  0  0  0  0  0  0  0  0  0  0
  143.9029  135.4378  152.8635 C   0  0  0  0  0  0  0  0  0  0  0  0
  152.6189  141.7600  159.9502 N   0  0  0  0  0  0  0  0  0  0  0  0
  153.6819  140.7648  160.0009 C   0  0  0  0  0  0  0  0  0  0  0  0
  153.1354  143.1133  160.0067 C   0  0  0  0  0  0  0  0  0  0  0  0
  151.4193  144.4023  160.3726 H   0  0  0  0  0  0  0  0  0  0  0  0
  152.5472  141.7295  157.8811 H   0  0  0  0  0  0  0  0  0  0  0  0
  153.4378  145.5305  156.9584 H   0  0  0  0  0  0  0  0  0  0  0  0
  152.3779  144.1251  156.8811 H   0  0  0  0  0  0  0  0  0  0  0  0
  153.9390  144.0188  157.7135 H   0  0  0  0  0  0  0  0  0  0  0  0
  150.1326  143.0008  159.1672 H   0  0  0  0  0  0  0  0  0  0  0  0
  150.9557  143.4416  157.6761 H   0  0  0  0  0  0  0  0  0  0  0  0
  151.4602  139.6017  158.7760 H   0  0  0  0  0  0  0  0  0  0  0  0
  150.1295  140.5500  159.3375 H   0  0  0  0  0  0  0  0  0  0  0  0
  150.8359  140.9309  155.2391 H   0  0  0  0  0  0  0  0  0  0  0  0
  151.7360  141.8005  156.4747 H   0  0  0  0  0  0  0  0  0  0  0  0
  150.0454  142.2048  156.1902 H   0  0  0  0  0  0  0  0  0  0  0  0
  147.4243  137.4994  158.7254 H   0  0  0  0  0  0  0  0  0  0  0  0
  147.7045  139.7314  152.6953 H   0  0  0  0  0  0  0  0  0  0  0  0
  145.1851  137.7404  154.6234 H   0  0  0  0  0  0  0  0  0  0  0  0
  145.4611  138.4506  153.0562 H   0  0  0  0  0  0  0  0  0  0  0  0
  147.2278  136.5108  152.7139 H   0  0  0  0  0  0  0  0  0  0  0  0
  146.8981  135.9477  155.2822 H   0  0  0  0  0  0  0  0  0  0  0  0
  145.5541  134.9758  154.7139 H   0  0  0  0  0  0  0  0  0  0  0  0
  147.9071  134.6851  153.3296 H   0  0  0  0  0  0  0  0  0  0  0  0
  144.9864  136.6875  151.5045 H   0  0  0  0  0  0  0  0  0  0  0  0
  146.2369  134.8161  150.6157 H   0  0  0  0  0  0  0  0  0  0  0  0
  146.1086  133.9391  152.1413 H   0  0  0  0  0  0  0  0  0  0  0  0
  144.0350  134.2857  150.0058 H   0  0  0  0  0  0  0  0  0  0  0  0
  144.2424  132.9582  151.1503 H   0  0  0  0  0  0  0  0  0  0  0  0
  144.0928  134.8185  153.7417 H   0  0  0  0  0  0  0  0  0  0  0  0
  143.2549  136.2631  153.1593 H   0  0  0  0  0  0  0  0  0  0  0  0
  154.2623  140.8717  160.9177 H   0  0  0  0  0  0  0  0  0  0  0  0
  154.3633  140.8681  159.1553 H   0  0  0  0  0  0  0  0  0  0  0  0
  153.2742  139.7544  159.9880 H   0  0  0  0  0  0  0  0  0  0  0  0
  153.9858  143.2115  159.3295 H   0  0  0  0  0  0  0  0  0  0  0  0
  153.4798  143.3710  161.0086 H   0  0  0  0  0  0  0  0  0  0  0  0
  1  2  1  0  0  0  0
  1 32  1  0  0  0  0
  1 33  1  0  0  0  0
  1 34  1  0  0  0  0
  2  3  1  0  0  0  0
  3 30  1  0  0  0  0
  3 29  1  0  0  0  0
  3  4  1  0  0  0  0
  4  5  1  0  0  0  0
  4 35  1  0  0  0  0
  4 36  1  0  0  0  0
  5 31  1  0  0  0  0
  5  6  1  0  0  0  0
  5 27  1  0  0  0  0
  6  7  1  0  0  0  0
  6 37  1  0  0  0  0
  6 38  1  0  0  0  0
  7  8  1  0  0  0  0
  7  9  1  0  0  0  0
  8 39  1  0  0  0  0
  8 40  1  0  0  0  0
  8 41  1  0  0  0  0
  9 14  1  0  0  0  0
  9 10  2  0  0  0  0
 10 11  1  0  0  0  0
 11 12  2  0  0  0  0
 11 42  1  0  0  0  0
 12 13  1  0  0  0  0
 13 17  1  0  0  0  0
 13 14  2  0  0  0  0
 14 15  1  0  0  0  0
 15 16  2  0  0  0  0
 16 17  1  0  0  0  0
 16 43  1  0  0  0  0
 17 18  1  0  0  0  0
 18 19  1  0  0  0  0
 18 44  1  0  0  0  0
 18 45  1  0  0  0  0
 19 20  1  0  0  0  0
 19 22  1  0  0  0  0
 19 46  1  0  0  0  0
 20 21  1  0  0  0  0
 20 47  1  0  0  0  0
 20 48  1  0  0  0  0
 21 49  1  0  0  0  0
 22 26  1  0  0  0  0
 22 23  1  0  0  0  0
 22 50  1  0  0  0  0
 23 24  1  0  0  0  0
 23 51  1  0  0  0  0
 23 52  1  0  0  0  0
 24 25  1  0  0  0  0
 24 53  1  0  0  0  0
 24 54  1  0  0  0  0
 25 26  1  0  0  0  0
 26 55  1  0  0  0  0
 26 56  1  0  0  0  0
 27 28  1  0  0  0  0
 27 29  1  0  0  0  0
 28 57  1  0  0  0  0
 28 58  1  0  0  0  0
 28 59  1  0  0  0  0
 29 60  1  0  0  0  0
 29 61  1  0  0  0  0
M  END
> <s_m_source_file>
AV-unprocessed.smi

> <i_m_source_file_index>
21

> <i_lp_mmshare_version>
43012

> <i_f3d_flags>
0

> <s_epik_input>
W0NIM11PW0NASF0xW0NIMl1bQ0BIXShOKFtDSDNdKVtDSDJdMSlbQ0gyXU4oW0NIM10pYyhuW2NIXW4yKWMoYzIzKW5bY0hdbjNbQ0gyXVtDQEhdKFtDSDJdW09IXSlbQ0BASF00W0NIMl1bQ0gyXU9bQ0gyXTQ=

> <s_epik_cmdline>
J2VwaWtfcHl0aG9uJywgJy1waCcsICc3LjAnLCAnLXRuJywgJzgnLCAnLW1hJywgJzIwMCcsICctbWV0YWxfYmluZGluZycsICctaW1hZScsICc8aW5maWxlLm1hZT4nLCAnLW9tYWUnLCAnPG91dGZpbGUubWFlPic=

> <r_lp_tautomer_probability>
1

> <r_epik_Ionization_Penalty>
2.17574

> <r_epik_Ionization_Penalty_Charging>
0

> <r_epik_Ionization_Penalty_Neutral>
2.17574

> <r_epik_State_Penalty>
2.31336

> <r_epik_Charging_Adjusted_Penalty>
2.31336

> <i_epik_Tot_Q>
0

> <i_epik_Tot_abs_Q>
0

> <r_epik_Metal_State_Penalty>
2.31025

> <b_epik_Metal_Only>
0

> <s_lp_Force_Field>
OPLS_2005

> <r_lp_Energy>
70.7714

> <b_lp_Chiralities_Consistent>
1

> <s_lp_Variant>
AV-unprocessed.smi:21-47

> <Gold.Version>
5.8.1

> <Gold.Id.Protein>
6NUR|6NUR_protein|mol2

> <Gold.PLP.Fitness>
42.4421

> <Gold.PLP.PLP>
-38.8548

> <Gold.PLP.part.hbond>
-1.0126

> <Gold.PLP.part.metal>
0.0000

> <Gold.PLP.part.buried>
-5.3282

> <Gold.PLP.part.nonpolar>
-32.9837

> <Gold.PLP.part.repulsive>
0.4328

> <Gold.PLP.ligand.clash>
0.4038

> <Gold.PLP.ligand.torsion>
1.0805

> <Gold.PLP.Chemscore.Hbond>
1.0000

> <Gold.PLP.Chemscore.CHOScore>
0.8282

> <Gold.PLP.Chemscore.Metal>
0.0000

> <Gold.Chemscore.Hbonds>
donor molecule, donor type, donor heavy atom, donor atom, acceptor molecule, acceptor atom, score
      L1  H    21    49       P1  7948  0.21
      L1  C    16    43       P1  7957  0.87

> <Gold.PLP.Chemscore.Internal.Correction>
0.6673

> <Gold.Rescore>
     Score         DG    S(hbond)    S(metal)    S(lipo)     H(rot)  DE(clash)    DE(int)     intcor
     11.01     -13.27       0.99        0.00     104.08       3.00       0.08       2.18       ----

> <Gold.Chemscore.Fitness>
11.0091

> <Gold.Chemscore.DG>
-13.2710

> <Gold.Chemscore.ZeroCoef>
-5.4800

> <Gold.Chemscore.Hbond>
0.9884

> <Gold.Chemscore.Metal>
0.0000

> <Gold.Chemscore.Lipo>
104.0833

> <Gold.Chemscore.Internal_Hbond>
0.0000

> <Gold.Chemscore.DEClash>
0.0811

> <Gold.Chemscore.DEInternal>
2.1808

> <Gold.Chemscore.Rot>
3.0031

> <Gold.Chemscore.Internal.Correction>
   9.000000E+99

> <Gold.Chemscore.Hbonds>
donor molecule, donor type, donor heavy atom, donor atom, acceptor molecule, acceptor atom, score
      L1  H    21    49       P1  7948  0.20

> <Gold.Chemscore.Hbond.Weighted>
-3.3012

> <Gold.Chemscore.Metal.Weighted>
-0.0000

> <Gold.Chemscore.Lipo.Weighted>
-12.1777

> <Gold.Chemscore.Internal_Hbond.Weighted>
0.0000

> <Gold.Chemscore.DEClash.Weighted>
0.0811

> <Gold.Chemscore.DEInternal.Weighted>
2.1808

> <Gold.Chemscore.Rot.Weighted>
7.6880

> <Gold.Chemscore.Internal.Correction.Weighted>
   9.000000E+99

> <Gold.Protein.RotatedTorsions>
[ 6907 6896 6895 6894 ] final   57.22 input  -60.11 | X-H torsion
[ 7974 7965 7964 7962 ] final  -84.55 input  175.53 | X-H torsion
[ 8008 7997 7996 7995 ] final -165.00 input   59.86 | X-H torsion
[ 10167 10162 10161 10158 ] final -166.38 input  -65.29 | X-H torsion
[ 10718 10713 10712 10709 ] final  157.41 input   66.30 | X-H torsion
[ 10763 10752 10751 10750 ] final  154.45 input  -60.55 | X-H torsion
[ 11005 11000 10999 10996 ] final -177.98 input  -57.11 | X-H torsion

> <Gold.Protein.ActiveResidues>
 VAL166  LYS551  ARG553  GLY616  TRP617  ASP618  TYR619  PRO620  LYS621  CYS622 
 ASP623  PHE694  ASN695  SER759  ASP760  ASP761  ALA762  ILE779  LEU786  VAL792 
 PHE793  MET794  SER795  GLU796  ALA797  LYS798  CYS799  TRP800  GLU811  SER814 

> <Gold.Protein.RotatedAtoms>
  152.3710  134.6733  160.0175 H   0  0  0  0  0  0  0  0  0  0  0  0  # atno 6907 bound_to 6896
  151.7026  133.3306  159.3278 H   0  0  0  0  0  0  0  0  0  0  0  0  # atno 6908 bound_to 6896
  150.7674  134.6537  159.6346 H   0  0  0  0  0  0  0  0  0  0  0  0  # atno 6909 bound_to 6896
  145.5051  140.9544  143.1738 H   0  0  0  0  0  0  0  0  0  0  0  0  # atno 7974 bound_to 7965
  155.8436  140.0952  157.1719 H   0  0  0  0  0  0  0  0  0  0  0  0  # atno 8008 bound_to 7997
  154.3982  140.1396  156.3819 H   0  0  0  0  0  0  0  0  0  0  0  0  # atno 8009 bound_to 7997
  155.8038  140.3452  155.5420 H   0  0  0  0  0  0  0  0  0  0  0  0  # atno 8010 bound_to 7997
  139.6119  144.0798  152.1850 H   0  0  0  0  0  0  0  0  0  0  0  0  # atno 10167 bound_to 10162
  157.1918  131.0656  151.2075 H   0  0  0  0  0  0  0  0  0  0  0  0  # atno 10718 bound_to 10713
  154.1525  135.2814  155.3131 H   0  0  0  0  0  0  0  0  0  0  0  0  # atno 10763 bound_to 10752
  154.6207  135.5468  153.7575 H   0  0  0  0  0  0  0  0  0  0  0  0  # atno 10764 bound_to 10752
  153.0217  135.6438  154.1669 H   0  0  0  0  0  0  0  0  0  0  0  0  # atno 10765 bound_to 10752
  140.4348  134.6485  157.4729 H   0  0  0  0  0  0  0  0  0  0  0  0  # atno 11005 bound_to 11000
  144.7758  139.6633  143.7175 LP  0  0  0  0  0  0  0  0  0  0  0  0  # atno 17320 bound_to 7965
  146.2201  139.5621  142.9624 LP  0  0  0  0  0  0  0  0  0  0  0  0  # atno 17321 bound_to 7965
  140.0418  144.6001  150.7405 LP  0  0  0  0  0  0  0  0  0  0  0  0  # atno 17342 bound_to 10162
  140.7325  143.2706  151.3901 LP  0  0  0  0  0  0  0  0  0  0  0  0  # atno 17343 bound_to 10162
  157.3853  130.7253  149.6659 LP  0  0  0  0  0  0  0  0  0  0  0  0  # atno 17370 bound_to 10713
  155.9711  130.4161  150.4215 LP  0  0  0  0  0  0  0  0  0  0  0  0  # atno 17371 bound_to 10713
  140.0109  134.6691  155.9382 LP  0  0  0  0  0  0  0  0  0  0  0  0  # atno 17394 bound_to 11000
  141.1730  133.6538  156.4723 LP  0  0  0  0  0  0  0  0  0  0  0  0  # atno 17395 bound_to 11000

$$$$
