AV-unprocessed.smi:2375|AV-procd|sdf|9443|dock4
  -GOLD-   2272013 73D 1   1.00000     0.00000
 Structure written by MMmdl.
 37 38  0  0  0  0  0  0  0  0  1 V2000
  145.5523  136.7537  152.3441 C   0  0  0  0  0  0  0  0  0  0  0  0
  146.2081  138.0894  152.4359 C   0  0  0  0  0  0  0  0  0  0  0  0
  146.4832  138.9623  151.4129 C   0  0  0  0  0  0  0  0  0  0  0  0
  147.0928  140.1471  151.8308 N   0  0  0  0  0  0  0  0  0  0  0  0
  147.2795  140.1871  153.1531 C   0  0  0  0  0  0  0  0  0  0  0  0
  147.8733  141.3584  153.8764 C   0  0  1  0  0  0  0  0  0  0  0  0
  146.8065  142.2076  154.5811 C   0  0  0  0  0  0  0  0  0  0  0  0
  149.0417  140.9659  154.8072 C   0  0  0  0  0  0  0  0  0  0  0  0
  149.5936  142.1118  155.5229 N   0  0  0  0  0  0  0  0  0  0  0  0
  150.6617  142.0797  156.3360 C   0  0  0  0  0  0  0  0  0  0  0  0
  151.3569  141.0794  156.5031 O   0  0  0  0  0  0  0  0  0  0  0  0
  150.9190  143.2404  156.9652 N   0  0  0  0  0  0  0  0  0  0  0  0
  152.0020  143.5278  157.9082 C   0  0  0  0  0  0  0  0  0  0  0  0
  152.0317  142.5144  159.0777 C   0  0  0  0  0  0  0  0  0  0  0  0
  152.2461  143.3782  160.2916 C   0  0  0  0  0  0  0  0  0  0  0  0
  152.1658  144.6774  160.0112 C   0  0  0  0  0  0  0  0  0  0  0  0
  151.8811  144.9311  158.5570 C   0  0  0  0  0  0  0  0  0  0  0  0
  146.7250  138.7314  153.9726 S   0  0  0  0  0  0  0  0  0  0  0  0
  145.3992  136.4620  151.3048 H   0  0  0  0  0  0  0  0  0  0  0  0
  144.5799  136.7681  152.8366 H   0  0  0  0  0  0  0  0  0  0  0  0
  146.1634  135.9881  152.8221 H   0  0  0  0  0  0  0  0  0  0  0  0
  146.2731  138.8258  150.3624 H   0  0  0  0  0  0  0  0  0  0  0  0
  148.3017  141.9982  153.1038 H   0  0  0  0  0  0  0  0  0  0  0  0
  146.0507  142.5526  153.8749 H   0  0  0  0  0  0  0  0  0  0  0  0
  147.2513  143.0878  155.0460 H   0  0  0  0  0  0  0  0  0  0  0  0
  146.2999  141.6394  155.3617 H   0  0  0  0  0  0  0  0  0  0  0  0
  148.7333  140.1882  155.5078 H   0  0  0  0  0  0  0  0  0  0  0  0
  149.8519  140.5407  154.2139 H   0  0  0  0  0  0  0  0  0  0  0  0
  149.0907  142.9832  155.4393 H   0  0  0  0  0  0  0  0  0  0  0  0
  150.3319  144.0245  156.7201 H   0  0  0  0  0  0  0  0  0  0  0  0
  152.9621  143.4612  157.3931 H   0  0  0  0  0  0  0  0  0  0  0  0
  151.0907  141.9733  159.1864 H   0  0  0  0  0  0  0  0  0  0  0  0
  152.8382  141.7890  158.9657 H   0  0  0  0  0  0  0  0  0  0  0  0
  152.4200  142.9618  161.2727 H   0  0  0  0  0  0  0  0  0  0  0  0
  152.2631  145.4796  160.7281 H   0  0  0  0  0  0  0  0  0  0  0  0
  152.5935  145.6389  158.1326 H   0  0  0  0  0  0  0  0  0  0  0  0
  150.8777  145.3473  158.4627 H   0  0  0  0  0  0  0  0  0  0  0  0
  1  2  1  0  0  0  0
  1 19  1  0  0  0  0
  1 20  1  0  0  0  0
  1 21  1  0  0  0  0
  2 18  1  0  0  0  0
  2  3  2  0  0  0  0
  3  4  1  0  0  0  0
  3 22  1  0  0  0  0
  4  5  2  0  0  0  0
  5  6  1  0  0  0  0
  5 18  1  0  0  0  0
  6  7  1  0  0  0  0
  6  8  1  0  0  0  0
  6 23  1  0  0  0  0
  7 24  1  0  0  0  0
  7 25  1  0  0  0  0
  7 26  1  0  0  0  0
  8  9  1  0  0  0  0
  8 27  1  0  0  0  0
  8 28  1  0  0  0  0
  9 10  1  0  0  0  0
  9 29  1  0  0  0  0
 10 11  2  0  0  0  0
 10 12  1  0  0  0  0
 12 13  1  0  0  0  0
 12 30  1  0  0  0  0
 13 17  1  0  0  0  0
 13 14  1  0  0  0  0
 13 31  1  0  0  0  0
 14 15  1  0  0  0  0
 14 32  1  0  0  0  0
 14 33  1  0  0  0  0
 15 16  2  0  0  0  0
 15 34  1  0  0  0  0
 16 17  1  0  0  0  0
 16 35  1  0  0  0  0
 17 36  1  0  0  0  0
 17 37  1  0  0  0  0
M  END
> <s_m_source_file>
AV-unprocessed.smi

> <i_m_source_file_index>
2375

> <i_lp_mmshare_version>
43012

> <i_f3d_flags>
0

> <s_epik_input>
W0NIM11jMVtjSF1uYyhzMSlbQ0BIXShbQ0gzXSlbQ0gyXVtOSF1DKD1PKVtOSF1bQ0hdMltDSDJdW0NIXT1bQ0hdW0NIMl0y

> <s_epik_cmdline>
J2VwaWtfcHl0aG9uJywgJy1waCcsICc3LjAnLCAnLXRuJywgJzgnLCAnLW1hJywgJzIwMCcsICctbWV0YWxfYmluZGluZycsICctaW1hZScsICc8aW5maWxlLm1hZT4nLCAnLW9tYWUnLCAnPG91dGZpbGUubWFlPic=

> <r_epik_Ionization_Penalty>
0.000644205

> <r_epik_Ionization_Penalty_Charging>
0

> <r_epik_Ionization_Penalty_Neutral>
0.000644205

> <r_epik_State_Penalty>
0.000370883

> <r_epik_Charging_Adjusted_Penalty>
0.000370883

> <i_epik_Tot_Q>
0

> <i_epik_Tot_abs_Q>
0

> <r_epik_Metal_State_Penalty>
-0

> <b_epik_Metal_Only>
0

> <s_lp_Force_Field>
OPLS_2005

> <r_lp_Energy>
15.8173

> <b_lp_Chiralities_Consistent>
1

> <s_lp_Variant>
AV-unprocessed.smi:2375-2

> <Gold.Version>
5.8.1

> <Gold.Id.Protein>
6NUR|6NUR_protein|mol2

> <Gold.PLP.Fitness>
47.9934

> <Gold.PLP.PLP>
-40.5640

> <Gold.PLP.part.hbond>
-2.0000

> <Gold.PLP.part.metal>
0.0000

> <Gold.PLP.part.buried>
-3.2385

> <Gold.PLP.part.nonpolar>
-39.3683

> <Gold.PLP.part.repulsive>
4.1141

> <Gold.PLP.ligand.clash>
0.0000

> <Gold.PLP.ligand.torsion>
0.3623

> <Gold.PLP.Chemscore.Hbond>
1.9920

> <Gold.PLP.Chemscore.CHOScore>
0.6873

> <Gold.PLP.Chemscore.Metal>
0.0000

> <Gold.Chemscore.Hbonds>
donor molecule, donor type, donor heavy atom, donor atom, acceptor molecule, acceptor atom, score
      L1  H     9    29       P1  8028  1.00
      L1  H    12    30       P1  8028  0.99
      L1  C     3    22       P1 10171  0.71

> <Gold.PLP.Chemscore.Internal.Correction>
0.1162

> <Gold.Rescore>
     Score         DG    S(hbond)    S(metal)    S(lipo)     H(rot)  DE(clash)    DE(int)     intcor
     18.55     -21.54       1.90        0.00     115.84       1.50       1.62       1.37       ----

> <Gold.Chemscore.Fitness>
18.5491

> <Gold.Chemscore.DG>
-21.5375

> <Gold.Chemscore.ZeroCoef>
-5.4800

> <Gold.Chemscore.Hbond>
1.9004

> <Gold.Chemscore.Metal>
0.0000

> <Gold.Chemscore.Lipo>
115.8396

> <Gold.Chemscore.Internal_Hbond>
0.0000

> <Gold.Chemscore.DEClash>
1.6169

> <Gold.Chemscore.DEInternal>
1.3715

> <Gold.Chemscore.Rot>
1.5012

> <Gold.Chemscore.Internal.Correction>
   9.000000E+99

> <Gold.Chemscore.Hbonds>
donor molecule, donor type, donor heavy atom, donor atom, acceptor molecule, acceptor atom, score
      L1  H     9    29       P1  8028  0.98
      L1  H    12    30       P1  8028  0.94

> <Gold.Chemscore.Hbond.Weighted>
-6.3472

> <Gold.Chemscore.Metal.Weighted>
-0.0000

> <Gold.Chemscore.Lipo.Weighted>
-13.5532

> <Gold.Chemscore.Internal_Hbond.Weighted>
0.0000

> <Gold.Chemscore.DEClash.Weighted>
1.6169

> <Gold.Chemscore.DEInternal.Weighted>
1.3715

> <Gold.Chemscore.Rot.Weighted>
3.8429

> <Gold.Chemscore.Internal.Correction.Weighted>
   9.000000E+99

> <Gold.Protein.RotatedTorsions>
[ 6907 6896 6895 6894 ] final  101.75 input  -60.11 | X-H torsion
[ 7974 7965 7964 7962 ] final -143.82 input  175.53 | X-H torsion
[ 8008 7997 7996 7995 ] final  -80.52 input   59.86 | X-H torsion
[ 10167 10162 10161 10158 ] final  122.53 input  -65.29 | X-H torsion
[ 10718 10713 10712 10709 ] final  168.94 input   66.30 | X-H torsion
[ 10763 10752 10751 10750 ] final   40.39 input  -60.55 | X-H torsion
[ 11005 11000 10999 10996 ] final -167.17 input  -57.11 | X-H torsion

> <Gold.Protein.ActiveResidues>
 VAL166  LYS551  ARG553  GLY616  TRP617  ASP618  TYR619  PRO620  LYS621  CYS622 
 ASP623  PHE694  ASN695  SER759  ASP760  ASP761  ALA762  ILE779  LEU786  VAL792 
 PHE793  MET794  SER795  GLU796  ALA797  LYS798  CYS799  TRP800  GLU811  SER814 

> <Gold.Protein.RotatedAtoms>
  152.5341  134.0079  159.7924 H   0  0  0  0  0  0  0  0  0  0  0  0  # atno 6907 bound_to 6896
  151.0287  133.5802  159.2670 H   0  0  0  0  0  0  0  0  0  0  0  0  # atno 6908 bound_to 6896
  151.2815  135.0722  159.9224 H   0  0  0  0  0  0  0  0  0  0  0  0  # atno 6909 bound_to 6896
  144.8342  140.5787  143.5495 H   0  0  0  0  0  0  0  0  0  0  0  0  # atno 7974 bound_to 7965
  154.5892  140.0661  156.9214 H   0  0  0  0  0  0  0  0  0  0  0  0  # atno 8008 bound_to 7997
  155.2326  140.3338  155.4283 H   0  0  0  0  0  0  0  0  0  0  0  0  # atno 8009 bound_to 7997
  156.2244  140.1812  156.7384 H   0  0  0  0  0  0  0  0  0  0  0  0  # atno 8010 bound_to 7997
  139.5853  144.7004  151.3424 H   0  0  0  0  0  0  0  0  0  0  0  0  # atno 10167 bound_to 10162
  157.0299  131.0256  151.2748 H   0  0  0  0  0  0  0  0  0  0  0  0  # atno 10718 bound_to 10713
  152.9938  135.6192  154.2619 H   0  0  0  0  0  0  0  0  0  0  0  0  # atno 10763 bound_to 10752
  154.2355  135.2790  155.2875 H   0  0  0  0  0  0  0  0  0  0  0  0  # atno 10764 bound_to 10752
  154.5414  135.5760  153.6900 H   0  0  0  0  0  0  0  0  0  0  0  0  # atno 10765 bound_to 10752
  140.5563  134.5378  157.5133 H   0  0  0  0  0  0  0  0  0  0  0  0  # atno 11005 bound_to 11000
  145.4831  139.1494  143.3751 LP  0  0  0  0  0  0  0  0  0  0  0  0  # atno 17320 bound_to 7965
  146.2642  140.4968  142.8841 LP  0  0  0  0  0  0  0  0  0  0  0  0  # atno 17321 bound_to 7965
  140.7126  143.7351  150.7594 LP  0  0  0  0  0  0  0  0  0  0  0  0  # atno 17342 bound_to 10162
  140.0894  143.4892  152.2487 LP  0  0  0  0  0  0  0  0  0  0  0  0  # atno 17343 bound_to 10162
  157.5186  130.7983  149.7783 LP  0  0  0  0  0  0  0  0  0  0  0  0  # atno 17370 bound_to 10713
  156.0073  130.3849  150.2386 LP  0  0  0  0  0  0  0  0  0  0  0  0  # atno 17371 bound_to 10713
  139.9430  134.7753  156.0631 LP  0  0  0  0  0  0  0  0  0  0  0  0  # atno 17394 bound_to 11000
  141.1141  133.6633  156.3051 LP  0  0  0  0  0  0  0  0  0  0  0  0  # atno 17395 bound_to 11000

$$$$
