AV-unprocessed.smi:1196|AV-procd|sdf|5002|dock3
  -GOLD-   22720 4 13D 1   1.00000     0.00000
 Structure written by MMmdl.
 36 37  0  0  0  0  0  0  0  0  2 V2000
  149.4293  141.5256  155.1374 C   0  0  0  0  0  0  0  0  0  0  0  0
  149.7515  141.7121  156.6284 C   0  0  2  0  0  0  0  0  0  0  0  0
  151.2662  141.8756  156.8609 C   0  0  0  0  0  0  0  0  0  0  0  0
  151.5627  142.7586  157.9752 N   0  0  0  0  0  0  0  0  0  0  0  0
  151.3591  144.1192  158.0684 C   0  0  0  0  0  0  0  0  0  0  0  0
  151.8013  144.5130  159.2986 C   0  0  0  0  0  0  0  0  0  0  0  0
  152.2644  143.3060  159.8930 C   0  0  0  0  0  0  0  0  0  0  0  0
  152.1191  142.2574  159.0991 N   0  0  0  0  0  0  0  0  0  0  0  0
  149.2484  140.5746  157.3958 N   0  0  0  0  0  0  0  0  0  0  0  0
  149.6150  139.2956  157.2248 C   0  0  0  0  0  0  0  0  0  0  0  0
  150.4617  138.9413  156.4034 O   0  0  0  0  0  0  0  0  0  0  0  0
  148.9092  138.2777  158.1261 C   0  0  0  0  0  0  0  0  0  0  0  0
  149.8263  137.6570  159.1987 C   0  0  0  0  0  0  0  0  0  0  0  0
  149.1078  136.6079  160.0730 C   0  0  1  0  0  0  0  0  0  0  0  0
  147.9773  137.1870  160.7782 N   0  5  0  0  0  0  0  0  0  0  0  0
  146.8567  136.5195  160.4148 C   0  0  0  0  0  0  0  0  0  0  0  0
  145.7069  136.7145  160.8021 O   0  0  0  0  0  0  0  0  0  0  0  0
  147.1435  135.5611  159.5276 N   0  0  0  0  0  0  0  0  0  0  0  0
  148.4410  135.5287  159.2415 C   0  0  0  0  0  0  0  0  0  0  0  0
  149.0150  134.7755  158.4562 O   0  0  0  0  0  0  0  0  0  0  0  0
  149.7872  142.3725  154.5517 H   0  0  0  0  0  0  0  0  0  0  0  0
  148.3546  141.4453  154.9710 H   0  0  0  0  0  0  0  0  0  0  0  0
  149.8965  140.6240  154.7396 H   0  0  0  0  0  0  0  0  0  0  0  0
  149.2561  142.6228  156.9711 H   0  0  0  0  0  0  0  0  0  0  0  0
  151.7340  140.9077  157.0472 H   0  0  0  0  0  0  0  0  0  0  0  0
  151.7421  142.2830  155.9677 H   0  0  0  0  0  0  0  0  0  0  0  0
  150.9256  144.6876  157.2589 H   0  0  0  0  0  0  0  0  0  0  0  0
  151.7970  145.5114  159.7100 H   0  0  0  0  0  0  0  0  0  0  0  0
  152.6987  143.1618  160.8713 H   0  0  0  0  0  0  0  0  0  0  0  0
  148.5483  140.7721  158.0960 H   0  0  0  0  0  0  0  0  0  0  0  0
  148.0611  138.7680  158.6050 H   0  0  0  0  0  0  0  0  0  0  0  0
  148.4987  137.4905  157.4923 H   0  0  0  0  0  0  0  0  0  0  0  0
  150.7029  137.2103  158.7254 H   0  0  0  0  0  0  0  0  0  0  0  0
  150.2034  138.4553  159.8405 H   0  0  0  0  0  0  0  0  0  0  0  0
  149.8202  136.1299  160.7468 H   0  0  0  0  0  0  0  0  0  0  0  0
  146.4568  134.9464  159.1171 H   0  0  0  0  0  0  0  0  0  0  0  0
  1  2  1  0  0  0  0
  1 21  1  0  0  0  0
  1 22  1  0  0  0  0
  1 23  1  0  0  0  0
  2  3  1  0  0  0  0
  2  9  1  0  0  0  0
  2 24  1  0  0  0  0
  3  4  1  0  0  0  0
  3 25  1  0  0  0  0
  3 26  1  0  0  0  0
  4  8  1  0  0  0  0
  4  5  1  0  0  0  0
  5  6  2  0  0  0  0
  5 27  1  0  0  0  0
  6  7  1  0  0  0  0
  6 28  1  0  0  0  0
  7  8  2  0  0  0  0
  7 29  1  0  0  0  0
  9 10  1  0  0  0  0
  9 30  1  0  0  0  0
 10 11  2  0  0  0  0
 10 12  1  0  0  0  0
 12 13  1  0  0  0  0
 12 31  1  0  0  0  0
 12 32  1  0  0  0  0
 13 14  1  0  0  0  0
 13 33  1  0  0  0  0
 13 34  1  0  0  0  0
 14 19  1  0  0  0  0
 14 15  1  0  0  0  0
 14 35  1  0  0  0  0
 15 16  1  0  0  0  0
 16 17  2  0  0  0  0
 16 18  1  0  0  0  0
 18 19  1  0  0  0  0
 18 36  1  0  0  0  0
 19 20  2  0  0  0  0
M  CHG  1  15  -1
M  END
> <s_m_source_file>
AV-unprocessed.smi

> <i_m_source_file_index>
1196

> <i_lp_mmshare_version>
43012

> <i_f3d_flags>
0

> <s_epik_input>
bjFbY0hdW2NIXVtjSF1uMVtDSDJdW0NAQEhdKFtDSDNdKVtOSF1DKD1PKVtDSDJdW0NIMl1bQ0BASF0yW05IXUMoPU8pW05IXUMyPU8=

> <s_epik_cmdline>
J2VwaWtfcHl0aG9uJywgJy1waCcsICc3LjAnLCAnLXRuJywgJzgnLCAnLW1hJywgJzIwMCcsICctbWV0YWxfYmluZGluZycsICctaW1hZScsICc8aW5maWxlLm1hZT4nLCAnLW9tYWUnLCAnPG91dGZpbGUubWFlPic=

> <r_lp_tautomer_probability>
1

> <r_epik_Ionization_Penalty>
5.79547

> <r_epik_Ionization_Penalty_Charging>
5.79516

> <r_epik_Ionization_Penalty_Neutral>
0.000313087

> <r_epik_State_Penalty>
5.80096

> <r_epik_Charging_Adjusted_Penalty>
11.5961

> <i_epik_Tot_Q>
-1

> <i_epik_Tot_abs_Q>
1

> <r_epik_Metal_State_Penalty>
2.14443

> <b_epik_Metal_Only>
1

> <s_lp_Force_Field>
OPLS_2005

> <r_lp_Energy>
10.7967

> <b_lp_Chiralities_Consistent>
1

> <s_lp_Variant>
AV-unprocessed.smi:1196-7

> <Gold.Version>
5.8.1

> <Gold.Id.Protein>
6NUR|6NUR_protein|mol2

> <Gold.PLP.Fitness>
44.5847

> <Gold.PLP.PLP>
-31.0038

> <Gold.PLP.part.hbond>
-3.0000

> <Gold.PLP.part.metal>
0.0000

> <Gold.PLP.part.buried>
-4.0343

> <Gold.PLP.part.nonpolar>
-24.5907

> <Gold.PLP.part.repulsive>
0.0941

> <Gold.PLP.ligand.clash>
0.0000

> <Gold.PLP.ligand.torsion>
0.5816

> <Gold.PLP.Chemscore.Hbond>
3.8851

> <Gold.PLP.Chemscore.CHOScore>
1.0000

> <Gold.PLP.Chemscore.Metal>
0.0000

> <Gold.Chemscore.Hbonds>
donor molecule, donor type, donor heavy atom, donor atom, acceptor molecule, acceptor atom, score
      P1  H  6896  6909       L1    20  1.00
      P1  H  6931  6943       L1    15  1.21
      P1  H  6934  6947       L1    15  1.46
      L1  C     5    27       P1  8028  0.95

> <Gold.PLP.Chemscore.Internal.Correction>
0.0889

> <Gold.Rescore>
     Score         DG    S(hbond)    S(metal)    S(lipo)     H(rot)  DE(clash)    DE(int)     intcor
      8.37     -10.05       1.19        0.00      68.52       2.89       0.32       1.37       ----

> <Gold.Chemscore.Fitness>
8.3684

> <Gold.Chemscore.DG>
-10.0547

> <Gold.Chemscore.ZeroCoef>
-5.4800

> <Gold.Chemscore.Hbond>
1.1879

> <Gold.Chemscore.Metal>
0.0000

> <Gold.Chemscore.Lipo>
68.5224

> <Gold.Chemscore.Internal_Hbond>
0.0000

> <Gold.Chemscore.DEClash>
0.3189

> <Gold.Chemscore.DEInternal>
1.3674

> <Gold.Chemscore.Rot>
2.8946

> <Gold.Chemscore.Internal.Correction>
   9.000000E+99

> <Gold.Chemscore.Hbonds>
donor molecule, donor type, donor heavy atom, donor atom, acceptor molecule, acceptor atom, score
      P1  H  6896  6909       L1    20  0.54
      P1  H  6931  6943       L1    15  0.06
      P1  H  6934  6947       L1    15  0.16

> <Gold.Chemscore.Hbond.Weighted>
-3.9677

> <Gold.Chemscore.Metal.Weighted>
-0.0000

> <Gold.Chemscore.Lipo.Weighted>
-8.0171

> <Gold.Chemscore.Internal_Hbond.Weighted>
0.0000

> <Gold.Chemscore.DEClash.Weighted>
0.3189

> <Gold.Chemscore.DEInternal.Weighted>
1.3674

> <Gold.Chemscore.Rot.Weighted>
7.4101

> <Gold.Chemscore.Internal.Correction.Weighted>
   9.000000E+99

> <Gold.Protein.RotatedTorsions>
[ 6907 6896 6895 6894 ] final   24.04 input  -60.11 | X-H torsion
[ 7974 7965 7964 7962 ] final -159.14 input  175.53 | X-H torsion
[ 8008 7997 7996 7995 ] final   93.69 input   59.86 | X-H torsion
[ 10167 10162 10161 10158 ] final   57.02 input  -65.29 | X-H torsion
[ 10718 10713 10712 10709 ] final -127.31 input   66.30 | X-H torsion
[ 10763 10752 10751 10750 ] final   14.42 input  -60.55 | X-H torsion
[ 11005 11000 10999 10996 ] final  -42.16 input  -57.11 | X-H torsion

> <Gold.Protein.ActiveResidues>
 VAL166  LYS551  ARG553  GLY616  TRP617  ASP618  TYR619  PRO620  LYS621  CYS622 
 ASP623  PHE694  ASN695  SER759  ASP760  ASP761  ALA762  ILE779  LEU786  VAL792 
 PHE793  MET794  SER795  GLU796  ALA797  LYS798  CYS799  TRP800  GLU811  SER814 

> <Gold.Protein.RotatedAtoms>
  151.9515  135.0167  160.0541 H   0  0  0  0  0  0  0  0  0  0  0  0  # atno 6907 bound_to 6896
  152.1949  133.4795  159.5036 H   0  0  0  0  0  0  0  0  0  0  0  0  # atno 6908 bound_to 6896
  150.6942  134.1582  159.4209 H   0  0  0  0  0  0  0  0  0  0  0  0  # atno 6909 bound_to 6896
  144.7477  140.3727  143.6072 H   0  0  0  0  0  0  0  0  0  0  0  0  # atno 7974 bound_to 7965
  156.0496  140.3309  155.7336 H   0  0  0  0  0  0  0  0  0  0  0  0  # atno 8008 bound_to 7997
  155.5621  140.0620  157.2844 H   0  0  0  0  0  0  0  0  0  0  0  0  # atno 8009 bound_to 7997
  154.4429  140.1875  156.0782 H   0  0  0  0  0  0  0  0  0  0  0  0  # atno 8010 bound_to 7997
  140.2024  144.3974  150.6523 H   0  0  0  0  0  0  0  0  0  0  0  0  # atno 10167 bound_to 10162
  156.1846  130.6754  151.0347 H   0  0  0  0  0  0  0  0  0  0  0  0  # atno 10718 bound_to 10713
  153.1624  135.6798  153.8723 H   0  0  0  0  0  0  0  0  0  0  0  0  # atno 10763 bound_to 10752
  153.8114  135.3142  155.3402 H   0  0  0  0  0  0  0  0  0  0  0  0  # atno 10764 bound_to 10752
  154.7942  135.4817  154.0211 H   0  0  0  0  0  0  0  0  0  0  0  0  # atno 10765 bound_to 10752
  141.0296  133.6826  156.2556 H   0  0  0  0  0  0  0  0  0  0  0  0  # atno 11005 bound_to 11000
  145.7060  139.1673  143.2565 LP  0  0  0  0  0  0  0  0  0  0  0  0  # atno 17320 bound_to 7965
  146.1381  140.7095  142.9380 LP  0  0  0  0  0  0  0  0  0  0  0  0  # atno 17321 bound_to 7965
  140.6381  143.2198  151.6351 LP  0  0  0  0  0  0  0  0  0  0  0  0  # atno 17342 bound_to 10162
  139.5212  144.3201  152.0918 LP  0  0  0  0  0  0  0  0  0  0  0  0  # atno 17343 bound_to 10162
  157.6890  131.0816  150.7161 LP  0  0  0  0  0  0  0  0  0  0  0  0  # atno 17370 bound_to 10713
  156.7218  130.4683  149.5521 LP  0  0  0  0  0  0  0  0  0  0  0  0  # atno 17371 bound_to 10713
  140.6430  134.5146  157.5571 LP  0  0  0  0  0  0  0  0  0  0  0  0  # atno 17394 bound_to 11000
  139.9199  134.8170  156.1245 LP  0  0  0  0  0  0  0  0  0  0  0  0  # atno 17395 bound_to 11000

$$$$
