AV-unprocessed.smi:881|AV-procd|sdf|4036|dock4
  -GOLD-   22720 1533D 1   1.00000     0.00000
 Structure written by MMmdl.
 31 32  0  0  0  0  0  0  0  0  2 V2000
  150.7936  141.2433  156.7002 O   0  0  0  0  0  0  0  0  0  0  0  0
  151.8575  140.8282  157.1655 C   0  0  0  0  0  0  0  0  0  0  0  0
  152.6336  139.8517  156.6418 N   0  5  0  0  0  0  0  0  0  0  0  0
  152.0870  138.9053  155.8611 C   0  0  0  0  0  0  0  0  0  0  0  0
  152.6502  137.6978  155.6948 N   0  0  0  0  0  0  0  0  0  0  0  0
  151.9234  136.8675  154.8524 N   0  0  0  0  0  0  0  0  0  0  0  0
  150.8200  137.4701  154.4099 C   0  0  0  0  0  0  0  0  0  0  0  0
  150.5669  139.1047  154.9842 S   0  0  0  0  0  0  0  0  0  0  0  0
  152.3462  141.3553  158.2981 N   0  0  0  0  0  0  0  0  0  0  0  0
  151.7355  142.4172  159.0966 C   0  0  0  0  0  0  0  0  0  0  0  0
  151.4819  143.6468  158.1996 C   0  0  0  0  0  0  0  0  0  0  0  0
  150.8814  144.8695  158.9147 C   0  0  0  0  0  0  0  0  0  0  0  0
  151.9061  145.6100  159.7888 C   0  0  0  0  0  0  0  0  0  0  0  0
  152.0633  145.0715  161.2216 C   0  0  0  0  0  0  0  0  0  0  0  0
  151.9523  143.5470  161.3990 C   0  0  0  0  0  0  0  0  0  0  0  0
  152.6397  142.6999  160.3146 C   0  0  0  0  0  0  0  0  0  0  0  0
  150.1495  136.9480  153.7439 H   0  0  0  0  0  0  0  0  0  0  0  0
  153.2211  140.9827  158.6362 H   0  0  0  0  0  0  0  0  0  0  0  0
  150.7765  142.0547  159.4712 H   0  0  0  0  0  0  0  0  0  0  0  0
  152.4060  143.9363  157.6970 H   0  0  0  0  0  0  0  0  0  0  0  0
  150.7970  143.3558  157.4020 H   0  0  0  0  0  0  0  0  0  0  0  0
  150.5357  145.5615  158.1462 H   0  0  0  0  0  0  0  0  0  0  0  0
  149.9951  144.5963  159.4885 H   0  0  0  0  0  0  0  0  0  0  0  0
  152.8758  145.6064  159.2897 H   0  0  0  0  0  0  0  0  0  0  0  0
  151.6234  146.6611  159.8549 H   0  0  0  0  0  0  0  0  0  0  0  0
  153.0262  145.4081  161.6072 H   0  0  0  0  0  0  0  0  0  0  0  0
  151.3138  145.5394  161.8611 H   0  0  0  0  0  0  0  0  0  0  0  0
  152.3825  143.2935  162.3688 H   0  0  0  0  0  0  0  0  0  0  0  0
  150.9021  143.2616  161.4709 H   0  0  0  0  0  0  0  0  0  0  0  0
  152.9024  141.7429  160.7683 H   0  0  0  0  0  0  0  0  0  0  0  0
  153.5839  143.1522  160.0084 H   0  0  0  0  0  0  0  0  0  0  0  0
  1  2  2  0  0  0  0
  2  3  1  0  0  0  0
  2  9  1  0  0  0  0
  3  4  1  0  0  0  0
  4  8  1  0  0  0  0
  4  5  2  0  0  0  0
  5  6  1  0  0  0  0
  6  7  2  0  0  0  0
  7  8  1  0  0  0  0
  7 17  1  0  0  0  0
  9 10  1  0  0  0  0
  9 18  1  0  0  0  0
 10 16  1  0  0  0  0
 10 11  1  0  0  0  0
 10 19  1  0  0  0  0
 11 12  1  0  0  0  0
 11 20  1  0  0  0  0
 11 21  1  0  0  0  0
 12 13  1  0  0  0  0
 12 22  1  0  0  0  0
 12 23  1  0  0  0  0
 13 14  1  0  0  0  0
 13 24  1  0  0  0  0
 13 25  1  0  0  0  0
 14 15  1  0  0  0  0
 14 26  1  0  0  0  0
 14 27  1  0  0  0  0
 15 16  1  0  0  0  0
 15 28  1  0  0  0  0
 15 29  1  0  0  0  0
 16 30  1  0  0  0  0
 16 31  1  0  0  0  0
M  CHG  1   3  -1
M  END
> <s_m_source_file>
AV-unprocessed.smi

> <i_m_source_file_index>
881

> <i_lp_mmshare_version>
43012

> <i_f3d_flags>
0

> <s_epik_input>
czFbY0hdbm5jMVtOSF1DKD1PKVtOSF1bQ0hdMltDSDJdW0NIMl1bQ0gyXVtDSDJdW0NIMl1bQ0gyXTI=

> <s_epik_cmdline>
J2VwaWtfcHl0aG9uJywgJy1waCcsICc3LjAnLCAnLXRuJywgJzgnLCAnLW1hJywgJzIwMCcsICctbWV0YWxfYmluZGluZycsICctaW1hZScsICc8aW5maWxlLm1hZT4nLCAnLW9tYWUnLCAnPG91dGZpbGUubWFlPic=

> <r_lp_tautomer_probability>
1

> <r_epik_Ionization_Penalty>
4.55263

> <r_epik_Ionization_Penalty_Charging>
4.50588

> <r_epik_Ionization_Penalty_Neutral>
0.0467569

> <r_epik_State_Penalty>
4.50558

> <r_epik_Charging_Adjusted_Penalty>
9.01146

> <i_epik_Tot_Q>
-1

> <i_epik_Tot_abs_Q>
1

> <r_epik_Metal_State_Penalty>
0.822218

> <b_epik_Metal_Only>
1

> <s_lp_Force_Field>
OPLS_2005

> <r_lp_Energy>
12.3928

> <b_lp_Chiralities_Consistent>
1

> <s_lp_Variant>
AV-unprocessed.smi:881-2

> <Gold.Version>
5.8.1

> <Gold.Id.Protein>
6NUR|6NUR_protein|mol2

> <Gold.PLP.Fitness>
45.7332

> <Gold.PLP.PLP>
-34.1565

> <Gold.PLP.part.hbond>
-2.9072

> <Gold.PLP.part.metal>
0.0000

> <Gold.PLP.part.buried>
-2.8888

> <Gold.PLP.part.nonpolar>
-29.8659

> <Gold.PLP.part.repulsive>
0.2634

> <Gold.PLP.ligand.clash>
0.0000

> <Gold.PLP.ligand.torsion>
0.2678

> <Gold.PLP.Chemscore.Hbond>
2.9920

> <Gold.PLP.Chemscore.CHOScore>
1.0408

> <Gold.PLP.Chemscore.Metal>
0.0000

> <Gold.Chemscore.Hbonds>
donor molecule, donor type, donor heavy atom, donor atom, acceptor molecule, acceptor atom, score
      P1  H  7997  8009       L1     3  2.00
      P1  H 10752 10765       L1     6  0.99
      L1  C     7    17       P1  7948  0.96
      L1  C     7    17       P1  7949  0.08

> <Gold.PLP.Chemscore.Internal.Correction>
0.0138

> <Gold.Rescore>
     Score         DG    S(hbond)    S(metal)    S(lipo)     H(rot)  DE(clash)    DE(int)     intcor
     16.09     -19.37       1.64        0.00      93.91       1.00       0.31       2.97       ----

> <Gold.Chemscore.Fitness>
16.0905

> <Gold.Chemscore.DG>
-19.3702

> <Gold.Chemscore.ZeroCoef>
-5.4800

> <Gold.Chemscore.Hbond>
1.6354

> <Gold.Chemscore.Metal>
0.0000

> <Gold.Chemscore.Lipo>
93.9150

> <Gold.Chemscore.Internal_Hbond>
0.0000

> <Gold.Chemscore.DEClash>
0.3145

> <Gold.Chemscore.DEInternal>
2.9652

> <Gold.Chemscore.Rot>
1.0000

> <Gold.Chemscore.Internal.Correction>
   9.000000E+99

> <Gold.Chemscore.Hbonds>
donor molecule, donor type, donor heavy atom, donor atom, acceptor molecule, acceptor atom, score
      P1  H  7997  8009       L1     3  0.93
      P1  H 10752 10765       L1     6  0.57

> <Gold.Chemscore.Hbond.Weighted>
-5.4622

> <Gold.Chemscore.Metal.Weighted>
-0.0000

> <Gold.Chemscore.Lipo.Weighted>
-10.9881

> <Gold.Chemscore.Internal_Hbond.Weighted>
0.0000

> <Gold.Chemscore.DEClash.Weighted>
0.3145

> <Gold.Chemscore.DEInternal.Weighted>
2.9652

> <Gold.Chemscore.Rot.Weighted>
2.5600

> <Gold.Chemscore.Internal.Correction.Weighted>
   9.000000E+99

> <Gold.Protein.RotatedTorsions>
[ 6907 6896 6895 6894 ] final  -35.25 input  -60.11 | X-H torsion
[ 7974 7965 7964 7962 ] final   73.61 input  175.53 | X-H torsion
[ 8008 7997 7996 7995 ] final  179.82 input   59.86 | X-H torsion
[ 10167 10162 10161 10158 ] final   50.38 input  -65.29 | X-H torsion
[ 10718 10713 10712 10709 ] final  -58.22 input   66.30 | X-H torsion
[ 10763 10752 10751 10750 ] final  162.99 input  -60.55 | X-H torsion
[ 11005 11000 10999 10996 ] final  -13.36 input  -57.11 | X-H torsion

> <Gold.Protein.ActiveResidues>
 VAL166  LYS551  ARG553  GLY616  TRP617  ASP618  TYR619  PRO620  LYS621  CYS622 
 ASP623  PHE694  ASN695  SER759  ASP760  ASP761  ALA762  ILE779  LEU786  VAL792 
 PHE793  MET794  SER795  GLU796  ALA797  LYS798  CYS799  TRP800  GLU811  SER814 

> <Gold.Protein.RotatedAtoms>
  151.0422  134.9615  159.8167 H   0  0  0  0  0  0  0  0  0  0  0  0  # atno 6907 bound_to 6896
  152.5366  134.2644  159.8957 H   0  0  0  0  0  0  0  0  0  0  0  0  # atno 6908 bound_to 6896
  151.2656  133.4237  159.2652 H   0  0  0  0  0  0  0  0  0  0  0  0  # atno 6909 bound_to 6896
  145.7387  139.2712  143.1499 H   0  0  0  0  0  0  0  0  0  0  0  0  # atno 7974 bound_to 7965
  156.0391  140.1299  157.0176 H   0  0  0  0  0  0  0  0  0  0  0  0  # atno 8008 bound_to 7997
  154.4383  140.1034  156.6281 H   0  0  0  0  0  0  0  0  0  0  0  0  # atno 8009 bound_to 7997
  155.5694  140.3466  155.4513 H   0  0  0  0  0  0  0  0  0  0  0  0  # atno 8010 bound_to 7997
  140.2731  144.3243  150.6284 H   0  0  0  0  0  0  0  0  0  0  0  0  # atno 10167 bound_to 10162
  156.1151  130.4171  150.0548 H   0  0  0  0  0  0  0  0  0  0  0  0  # atno 10718 bound_to 10713
  154.2869  135.2762  155.2672 H   0  0  0  0  0  0  0  0  0  0  0  0  # atno 10763 bound_to 10752
  154.5169  135.5767  153.6652 H   0  0  0  0  0  0  0  0  0  0  0  0  # atno 10764 bound_to 10752
  152.9920  135.6195  154.3031 H   0  0  0  0  0  0  0  0  0  0  0  0  # atno 10765 bound_to 10752
  140.7753  133.8406  155.9243 H   0  0  0  0  0  0  0  0  0  0  0  0  # atno 11005 bound_to 11000
  146.0468  140.8109  142.9801 LP  0  0  0  0  0  0  0  0  0  0  0  0  # atno 17320 bound_to 7965
  144.6875  140.2993  143.7266 LP  0  0  0  0  0  0  0  0  0  0  0  0  # atno 17321 bound_to 7965
  140.5874  143.2169  151.7317 LP  0  0  0  0  0  0  0  0  0  0  0  0  # atno 17342 bound_to 10162
  139.4983  144.3991  152.0200 LP  0  0  0  0  0  0  0  0  0  0  0  0  # atno 17343 bound_to 10162
  156.8501  130.9456  151.3626 LP  0  0  0  0  0  0  0  0  0  0  0  0  # atno 17370 bound_to 10713
  157.6334  130.8747  149.9315 LP  0  0  0  0  0  0  0  0  0  0  0  0  # atno 17371 bound_to 10713
  140.9535  134.1748  157.4710 LP  0  0  0  0  0  0  0  0  0  0  0  0  # atno 17394 bound_to 11000
  139.8750  134.9918  156.5566 LP  0  0  0  0  0  0  0  0  0  0  0  0  # atno 17395 bound_to 11000

$$$$
