AV-unprocessed.smi:652|AV-procd|sdf|3203|dock5
  -GOLD-   22720 0133D 1   1.00000     0.00000
 Structure written by MMmdl.
 48 49  0  0  0  0  0  0  0  0  2 V2000
  147.7077  136.3871  162.8176 C   0  0  0  0  0  0  0  0  0  0  0  0
  147.1242  135.4266  161.7694 C   0  0  0  0  0  0  0  0  0  0  0  0
  147.5180  133.9710  162.0537 C   0  0  0  0  0  0  0  0  0  0  0  0
  147.5729  135.7985  160.4305 N   0  0  0  0  0  0  0  0  0  0  0  0
  147.1788  136.8865  159.7500 C   0  0  0  0  0  0  0  0  0  0  0  0
  146.3769  137.7084  160.1944 O   0  0  0  0  0  0  0  0  0  0  0  0
  147.7817  137.0643  158.3535 C   0  0  0  0  0  0  0  0  0  0  0  0
  149.0805  137.8953  158.3671 C   0  0  0  0  0  0  0  0  0  0  0  0
  149.3029  138.7106  157.1733 N   0  0  0  0  0  0  0  0  0  0  0  0
  149.7407  137.8853  156.0529 C   0  0  0  0  0  0  0  0  0  0  0  0
  149.9700  138.7176  154.7800 C   0  0  0  0  0  0  0  0  0  0  0  0
  150.9197  139.7451  155.0440 O   0  0  0  0  0  0  0  0  0  0  0  0
  150.5290  140.6016  156.1145 C   0  0  2  0  0  0  0  0  0  0  0  0
  151.5886  141.7015  156.2865 C   0  0  0  0  0  0  0  0  0  0  0  0
  150.9971  142.9957  156.5948 N   0  0  0  0  0  0  0  0  0  0  0  0
  151.3478  143.6770  157.7675 C   0  0  0  0  0  0  0  0  0  0  0  0
  152.2699  143.1890  158.7219 C   0  0  0  0  0  0  0  0  0  0  0  0
  152.5302  143.9736  159.8584 C   0  0  0  0  0  0  0  0  0  0  0  0
  151.8521  145.2001  159.9725 C   0  0  0  0  0  0  0  0  0  0  0  0
  150.9741  145.6495  159.0482 N   0  0  0  0  0  0  0  0  0  0  0  0
  150.7467  144.8757  157.9719 N   0  3  0  0  0  0  0  0  0  0  0  0
  150.2832  139.7711  157.3927 C   0  0  0  0  0  0  0  0  0  0  0  0
  147.3717  136.1221  163.8204 H   0  0  0  0  0  0  0  0  0  0  0  0
  147.3968  137.4153  162.6300 H   0  0  0  0  0  0  0  0  0  0  0  0
  148.7980  136.3631  162.8152 H   0  0  0  0  0  0  0  0  0  0  0  0
  146.0351  135.4886  161.8099 H   0  0  0  0  0  0  0  0  0  0  0  0
  147.1661  133.6555  163.0365 H   0  0  0  0  0  0  0  0  0  0  0  0
  148.6003  133.8390  162.0299 H   0  0  0  0  0  0  0  0  0  0  0  0
  147.0832  133.2950  161.3168 H   0  0  0  0  0  0  0  0  0  0  0  0
  148.2352  135.1790  159.9864 H   0  0  0  0  0  0  0  0  0  0  0  0
  147.9840  136.0825  157.9226 H   0  0  0  0  0  0  0  0  0  0  0  0
  147.0262  137.5363  157.7257 H   0  0  0  0  0  0  0  0  0  0  0  0
  149.1005  138.5324  159.2529 H   0  0  0  0  0  0  0  0  0  0  0  0
  149.9176  137.2039  158.4773 H   0  0  0  0  0  0  0  0  0  0  0  0
  150.6636  137.3651  156.3143 H   0  0  0  0  0  0  0  0  0  0  0  0
  148.9966  137.1148  155.8478 H   0  0  0  0  0  0  0  0  0  0  0  0
  150.3446  138.0852  153.9752 H   0  0  0  0  0  0  0  0  0  0  0  0
  149.0340  139.1579  154.4331 H   0  0  0  0  0  0  0  0  0  0  0  0
  149.5931  141.0867  155.8317 H   0  0  0  0  0  0  0  0  0  0  0  0
  152.2763  141.4225  157.0859 H   0  0  0  0  0  0  0  0  0  0  0  0
  152.1759  141.7865  155.3713 H   0  0  0  0  0  0  0  0  0  0  0  0
  150.1982  143.3007  156.0572 H   0  0  0  0  0  0  0  0  0  0  0  0
  152.7724  142.2412  158.5991 H   0  0  0  0  0  0  0  0  0  0  0  0
  153.2254  143.6472  160.6176 H   0  0  0  0  0  0  0  0  0  0  0  0
  152.0170  145.8388  160.8278 H   0  0  0  0  0  0  0  0  0  0  0  0
  149.9429  140.4408  158.1818 H   0  0  0  0  0  0  0  0  0  0  0  0
  151.2210  139.3327  157.7370 H   0  0  0  0  0  0  0  0  0  0  0  0
  150.0845  145.2075  157.2703 H   0  0  0  0  0  0  0  0  0  0  0  0
  1  2  1  0  0  0  0
  1 23  1  0  0  0  0
  1 24  1  0  0  0  0
  1 25  1  0  0  0  0
  2  3  1  0  0  0  0
  2  4  1  0  0  0  0
  2 26  1  0  0  0  0
  3 27  1  0  0  0  0
  3 28  1  0  0  0  0
  3 29  1  0  0  0  0
  4  5  1  0  0  0  0
  4 30  1  0  0  0  0
  5  6  2  0  0  0  0
  5  7  1  0  0  0  0
  7  8  1  0  0  0  0
  7 31  1  0  0  0  0
  7 32  1  0  0  0  0
  8  9  1  0  0  0  0
  8 33  1  0  0  0  0
  8 34  1  0  0  0  0
  9 22  1  0  0  0  0
  9 10  1  0  0  0  0
 10 11  1  0  0  0  0
 10 35  1  0  0  0  0
 10 36  1  0  0  0  0
 11 12  1  0  0  0  0
 11 37  1  0  0  0  0
 11 38  1  0  0  0  0
 12 13  1  0  0  0  0
 13 14  1  0  0  0  0
 13 22  1  0  0  0  0
 13 39  1  0  0  0  0
 14 15  1  0  0  0  0
 14 40  1  0  0  0  0
 14 41  1  0  0  0  0
 15 16  1  0  0  0  0
 15 42  1  0  0  0  0
 16 21  1  0  0  0  0
 16 17  2  0  0  0  0
 17 18  1  0  0  0  0
 17 43  1  0  0  0  0
 18 19  2  0  0  0  0
 18 44  1  0  0  0  0
 19 20  1  0  0  0  0
 19 45  1  0  0  0  0
 20 21  2  0  0  0  0
 21 48  1  0  0  0  0
 22 46  1  0  0  0  0
 22 47  1  0  0  0  0
M  CHG  1  21   1
M  END
> <s_m_source_file>
AV-unprocessed.smi

> <i_m_source_file_index>
652

> <i_lp_mmshare_version>
43012

> <i_f3d_flags>
0

> <s_epik_input>
W0NIM11bQ0hdKFtDSDNdKVtOSF1DKD1PKVtDSDJdW0NIMl1OMVtDSDJdW0NIMl1PW0NASF0oW0NIMl0xKVtDSDJdW05IXWMyW2NIXVtjSF1bY0hdbm4y

> <s_epik_cmdline>
J2VwaWtfcHl0aG9uJywgJy1waCcsICc3LjAnLCAnLXRuJywgJzgnLCAnLW1hJywgJzIwMCcsICctbWV0YWxfYmluZGluZycsICctaW1hZScsICc8aW5maWxlLm1hZT4nLCAnLW9tYWUnLCAnPG91dGZpbGUubWFlPic=

> <r_epik_Ionization_Penalty>
2.70989

> <r_epik_Ionization_Penalty_Charging>
2.3023

> <r_epik_Ionization_Penalty_Neutral>
0.407592

> <r_epik_State_Penalty>
2.65305

> <r_epik_Charging_Adjusted_Penalty>
4.95534

> <i_epik_Tot_Q>
1

> <i_epik_Tot_abs_Q>
1

> <r_epik_Metal_State_Penalty>
2.66064

> <b_epik_Metal_Only>
0

> <s_lp_Force_Field>
OPLS_2005

> <r_lp_Energy>
34.9838

> <b_lp_Chiralities_Consistent>
1

> <s_lp_Variant>
AV-unprocessed.smi:652-12

> <Gold.Version>
5.8.1

> <Gold.Id.Protein>
6NUR|6NUR_protein|mol2

> <Gold.PLP.Fitness>
52.4726

> <Gold.PLP.PLP>
-40.4895

> <Gold.PLP.part.hbond>
-6.0010

> <Gold.PLP.part.metal>
0.0000

> <Gold.PLP.part.buried>
-5.9937

> <Gold.PLP.part.nonpolar>
-28.5510

> <Gold.PLP.part.repulsive>
0.5516

> <Gold.PLP.ligand.clash>
0.0000

> <Gold.PLP.ligand.torsion>
1.3778

> <Gold.PLP.Chemscore.Hbond>
4.8873

> <Gold.PLP.Chemscore.CHOScore>
0.0000

> <Gold.PLP.Chemscore.Metal>
0.0000

> <Gold.Chemscore.Hbonds>
donor molecule, donor type, donor heavy atom, donor atom, acceptor molecule, acceptor atom, score
      L1  H    15    42       P1  8028  1.92
      L1  H    21    48       P1  8028  0.98
      P1  H  6934  6947       L1     6  1.00
      P1  H  7989  7998       L1    12  0.98

> <Gold.PLP.Chemscore.Internal.Correction>
0.0770

> <Gold.Rescore>
     Score         DG    S(hbond)    S(metal)    S(lipo)     H(rot)  DE(clash)    DE(int)     intcor
     19.20     -20.71       3.09        0.00      91.64       2.28       0.36       1.16       ----

> <Gold.Chemscore.Fitness>
19.1957

> <Gold.Chemscore.DG>
-20.7060

> <Gold.Chemscore.ZeroCoef>
-5.4800

> <Gold.Chemscore.Hbond>
3.0937

> <Gold.Chemscore.Metal>
0.0000

> <Gold.Chemscore.Lipo>
91.6378

> <Gold.Chemscore.Internal_Hbond>
0.0000

> <Gold.Chemscore.DEClash>
0.3552

> <Gold.Chemscore.DEInternal>
1.1551

> <Gold.Chemscore.Rot>
2.2768

> <Gold.Chemscore.Internal.Correction>
   9.000000E+99

> <Gold.Chemscore.Hbonds>
donor molecule, donor type, donor heavy atom, donor atom, acceptor molecule, acceptor atom, score
      L1  H    15    42       P1  8028  0.91
      L1  H    21    48       P1  8028  0.02
      P1  H  6934  6947       L1     6  0.82
      P1  H  7989  7998       L1    12  0.67

> <Gold.Chemscore.Hbond.Weighted>
-10.3331

> <Gold.Chemscore.Metal.Weighted>
-0.0000

> <Gold.Chemscore.Lipo.Weighted>
-10.7216

> <Gold.Chemscore.Internal_Hbond.Weighted>
0.0000

> <Gold.Chemscore.DEClash.Weighted>
0.3552

> <Gold.Chemscore.DEInternal.Weighted>
1.1551

> <Gold.Chemscore.Rot.Weighted>
5.8286

> <Gold.Chemscore.Internal.Correction.Weighted>
   9.000000E+99

> <Gold.Protein.RotatedTorsions>
[ 6907 6896 6895 6894 ] final  116.86 input  -60.11 | X-H torsion
[ 7974 7965 7964 7962 ] final   15.85 input  175.53 | X-H torsion
[ 8008 7997 7996 7995 ] final  -16.58 input   59.86 | X-H torsion
[ 10167 10162 10161 10158 ] final  -82.51 input  -65.29 | X-H torsion
[ 10718 10713 10712 10709 ] final -157.39 input   66.30 | X-H torsion
[ 10763 10752 10751 10750 ] final  -74.37 input  -60.55 | X-H torsion
[ 11005 11000 10999 10996 ] final   49.92 input  -57.11 | X-H torsion

> <Gold.Protein.ActiveResidues>
 VAL166  LYS551  ARG553  GLY616  TRP617  ASP618  TYR619  PRO620  LYS621  CYS622 
 ASP623  PHE694  ASN695  SER759  ASP760  ASP761  ALA762  ILE779  LEU786  VAL792 
 PHE793  MET794  SER795  GLU796  ALA797  LYS798  CYS799  TRP800  GLU811  SER814 

> <Gold.Protein.RotatedAtoms>
  152.4650  133.7903  159.6898 H   0  0  0  0  0  0  0  0  0  0  0  0  # atno 6907 bound_to 6896
  150.8610  133.7633  159.2998 H   0  0  0  0  0  0  0  0  0  0  0  0  # atno 6908 bound_to 6896
  151.5199  135.1070  159.9927 H   0  0  0  0  0  0  0  0  0  0  0  0  # atno 6909 bound_to 6896
  146.2267  139.8834  142.8567 H   0  0  0  0  0  0  0  0  0  0  0  0  # atno 7974 bound_to 7965
  154.5042  140.2166  155.9284 H   0  0  0  0  0  0  0  0  0  0  0  0  # atno 8008 bound_to 7997
  156.1473  140.3168  155.8558 H   0  0  0  0  0  0  0  0  0  0  0  0  # atno 8009 bound_to 7997
  155.4006  140.0484  157.3027 H   0  0  0  0  0  0  0  0  0  0  0  0  # atno 8010 bound_to 7997
  140.4313  143.2548  151.8756 H   0  0  0  0  0  0  0  0  0  0  0  0  # atno 10167 bound_to 10162
  156.5396  130.8557  151.2744 H   0  0  0  0  0  0  0  0  0  0  0  0  # atno 10718 bound_to 10713
  154.4722  135.5866  153.6329 H   0  0  0  0  0  0  0  0  0  0  0  0  # atno 10763 bound_to 10752
  152.9836  135.6069  154.3352 H   0  0  0  0  0  0  0  0  0  0  0  0  # atno 10764 bound_to 10752
  154.3235  135.2843  155.2487 H   0  0  0  0  0  0  0  0  0  0  0  0  # atno 10765 bound_to 10752
  140.1061  134.5016  155.8718 H   0  0  0  0  0  0  0  0  0  0  0  0  # atno 11005 bound_to 11000
  145.2489  141.0037  143.3892 LP  0  0  0  0  0  0  0  0  0  0  0  0  # atno 17320 bound_to 7965
  144.9390  139.4210  143.6458 LP  0  0  0  0  0  0  0  0  0  0  0  0  # atno 17321 bound_to 7965
  139.4785  144.5332  151.8637 LP  0  0  0  0  0  0  0  0  0  0  0  0  # atno 17342 bound_to 10162
  140.4424  144.1968  150.5892 LP  0  0  0  0  0  0  0  0  0  0  0  0  # atno 17343 bound_to 10162
  157.7407  130.9856  150.2399 LP  0  0  0  0  0  0  0  0  0  0  0  0  # atno 17370 bound_to 10713
  156.2983  130.3755  149.7774 LP  0  0  0  0  0  0  0  0  0  0  0  0  # atno 17371 bound_to 10713
  141.2118  133.6712  156.6614 LP  0  0  0  0  0  0  0  0  0  0  0  0  # atno 17394 bound_to 11000
  140.3153  134.8052  157.4209 LP  0  0  0  0  0  0  0  0  0  0  0  0  # atno 17395 bound_to 11000

$$$$
