AV-unprocessed.smi:243|AV-procd|sdf|1862|dock4
  -GOLD-   2262020493D 1   1.00000     0.00000
 Structure written by MMmdl.
 58 61  0  0  0  0  0  0  0  0  2 V2000
  143.8234  132.6510  148.6059 C   0  0  0  0  0  0  0  0  0  0  0  0
  144.6929  132.8627  149.8540 C   0  0  0  0  0  0  0  0  0  0  0  0
  144.3883  134.1361  150.5550 N   0  3  2  0  0  0  0  0  0  0  0  0
  145.6054  134.8889  150.9497 C   0  0  0  0  0  0  0  0  0  0  0  0
  145.2494  136.2531  151.5720 C   0  0  0  0  0  0  0  0  0  0  0  0
  144.2487  136.1703  152.7464 C   0  0  2  0  0  0  0  0  0  0  0  0
  144.8680  135.9121  154.0606 N   0  0  0  0  0  0  0  0  0  0  0  0
  144.8294  134.5681  154.6284 C   0  0  0  0  0  0  0  0  0  0  0  0
  145.9048  136.6598  154.5014 C   0  0  0  0  0  0  0  0  0  0  0  0
  145.7793  138.0109  154.5484 N   0  0  0  0  0  0  0  0  0  0  0  0
  146.7952  138.7625  154.9832 C   0  0  0  0  0  0  0  0  0  0  0  0
  148.0020  138.3735  155.4001 N   0  0  0  0  0  0  0  0  0  0  0  0
  148.1418  137.0191  155.3210 C   0  0  0  0  0  0  0  0  0  0  0  0
  147.1529  136.0961  154.8800 C   0  0  0  0  0  0  0  0  0  0  0  0
  147.6528  134.8016  154.9329 N   0  0  0  0  0  0  0  0  0  0  0  0
  148.8661  134.9490  155.3904 C   0  0  0  0  0  0  0  0  0  0  0  0
  149.2440  136.2481  155.6462 N   0  0  0  0  0  0  0  0  0  0  0  0
  150.5295  136.6980  156.1576 C   0  0  0  0  0  0  0  0  0  0  0  0
  151.3768  137.4594  155.1117 C   0  0  2  0  0  0  0  0  0  0  0  0
  151.7239  136.5726  154.0626 O   0  0  0  0  0  0  0  0  0  0  0  0
  152.6580  138.0718  155.6717 C   0  0  0  0  0  0  0  0  0  0  0  0
  152.8278  139.3316  154.8342 C   0  0  0  0  0  0  0  0  0  0  0  0
  151.4953  139.7965  154.7075 O   0  0  0  0  0  0  0  0  0  0  0  0
  150.6450  138.6728  154.5037 C   0  0  0  0  0  0  0  0  0  0  0  0
  143.0455  135.2697  152.3431 C   0  0  2  0  0  0  0  0  0  0  0  0
  141.9826  135.0729  153.4357 C   0  0  0  0  0  0  0  0  0  0  0  0
  143.4751  133.9305  151.7075 C   0  0  0  0  0  0  0  0  0  0  0  0
  144.0058  131.6657  148.1762 H   0  0  0  0  0  0  0  0  0  0  0  0
  144.0345  133.3838  147.8277 H   0  0  0  0  0  0  0  0  0  0  0  0
  142.7623  132.7122  148.8497 H   0  0  0  0  0  0  0  0  0  0  0  0
  144.5067  132.0276  150.5306 H   0  0  0  0  0  0  0  0  0  0  0  0
  145.7526  132.8200  149.5980 H   0  0  0  0  0  0  0  0  0  0  0  0
  146.1964  134.2794  151.6303 H   0  0  0  0  0  0  0  0  0  0  0  0
  146.2350  135.0665  150.0790 H   0  0  0  0  0  0  0  0  0  0  0  0
  146.1500  136.7892  151.8701 H   0  0  0  0  0  0  0  0  0  0  0  0
  144.7993  136.8648  150.7890 H   0  0  0  0  0  0  0  0  0  0  0  0
  143.8463  137.1787  152.8497 H   0  0  0  0  0  0  0  0  0  0  0  0
  145.7395  134.0086  154.4130 H   0  0  0  0  0  0  0  0  0  0  0  0
  143.9843  134.0012  154.2380 H   0  0  0  0  0  0  0  0  0  0  0  0
  144.7179  134.6238  155.7118 H   0  0  0  0  0  0  0  0  0  0  0  0
  146.6159  139.8275  154.9995 H   0  0  0  0  0  0  0  0  0  0  0  0
  149.5236  134.1073  155.5528 H   0  0  0  0  0  0  0  0  0  0  0  0
  150.3532  137.3262  157.0319 H   0  0  0  0  0  0  0  0  0  0  0  0
  151.0744  135.8236  156.5158 H   0  0  0  0  0  0  0  0  0  0  0  0
  151.1260  136.7095  153.3438 H   0  0  0  0  0  0  0  0  0  0  0  0
  152.5135  138.3635  156.7128 H   0  0  0  0  0  0  0  0  0  0  0  0
  153.5214  137.4062  155.6300 H   0  0  0  0  0  0  0  0  0  0  0  0
  153.4705  140.0727  155.3096 H   0  0  0  0  0  0  0  0  0  0  0  0
  153.2344  139.0989  153.8488 H   0  0  0  0  0  0  0  0  0  0  0  0
  150.4582  138.5472  153.4359 H   0  0  0  0  0  0  0  0  0  0  0  0
  149.6831  138.8611  154.9815 H   0  0  0  0  0  0  0  0  0  0  0  0
  142.5360  135.8159  151.5475 H   0  0  0  0  0  0  0  0  0  0  0  0
  142.3467  134.4371  154.2423 H   0  0  0  0  0  0  0  0  0  0  0  0
  141.0909  134.5960  153.0282 H   0  0  0  0  0  0  0  0  0  0  0  0
  141.6736  136.0266  153.8640 H   0  0  0  0  0  0  0  0  0  0  0  0
  142.5831  133.4075  151.3602 H   0  0  0  0  0  0  0  0  0  0  0  0
  143.9466  133.2733  152.4349 H   0  0  0  0  0  0  0  0  0  0  0  0
  143.8842  134.7131  149.8967 H   0  0  0  0  0  0  0  0  0  0  0  0
  1  2  1  0  0  0  0
  1 28  1  0  0  0  0
  1 29  1  0  0  0  0
  1 30  1  0  0  0  0
  2  3  1  0  0  0  0
  2 31  1  0  0  0  0
  2 32  1  0  0  0  0
  3 27  1  0  0  0  0
  3  4  1  0  0  0  0
  3 58  1  0  0  0  0
  4  5  1  0  0  0  0
  4 33  1  0  0  0  0
  4 34  1  0  0  0  0
  5  6  1  0  0  0  0
  5 35  1  0  0  0  0
  5 36  1  0  0  0  0
  6  7  1  0  0  0  0
  6 25  1  0  0  0  0
  6 37  1  0  0  0  0
  7  8  1  0  0  0  0
  7  9  1  0  0  0  0
  8 38  1  0  0  0  0
  8 39  1  0  0  0  0
  8 40  1  0  0  0  0
  9 14  1  0  0  0  0
  9 10  2  0  0  0  0
 10 11  1  0  0  0  0
 11 12  2  0  0  0  0
 11 41  1  0  0  0  0
 12 13  1  0  0  0  0
 13 17  1  0  0  0  0
 13 14  2  0  0  0  0
 14 15  1  0  0  0  0
 15 16  2  0  0  0  0
 16 17  1  0  0  0  0
 16 42  1  0  0  0  0
 17 18  1  0  0  0  0
 18 19  1  0  0  0  0
 18 43  1  0  0  0  0
 18 44  1  0  0  0  0
 19 24  1  0  0  0  0
 19 20  1  0  0  0  0
 19 21  1  0  0  0  0
 20 45  1  0  0  0  0
 21 22  1  0  0  0  0
 21 46  1  0  0  0  0
 21 47  1  0  0  0  0
 22 23  1  0  0  0  0
 22 48  1  0  0  0  0
 22 49  1  0  0  0  0
 23 24  1  0  0  0  0
 24 50  1  0  0  0  0
 24 51  1  0  0  0  0
 25 26  1  0  0  0  0
 25 27  1  0  0  0  0
 25 52  1  0  0  0  0
 26 53  1  0  0  0  0
 26 54  1  0  0  0  0
 26 55  1  0  0  0  0
 27 56  1  0  0  0  0
 27 57  1  0  0  0  0
M  CHG  1   3   1
M  END
> <s_m_source_file>
AV-unprocessed.smi

> <i_m_source_file_index>
243

> <i_lp_mmshare_version>
43012

> <i_f3d_flags>
0

> <s_epik_input>
W0NIM11bQ0gyXU4xW0NIMl1bQ0gyXVtDQEhdKFtDQEBIXShbQ0gzXSlbQ0gyXTEpTihbQ0gzXSljKG5bY0hdbjIpYyhjMjMpbltjSF1uM1tDSDJdW0NAQF00KFtPSF0pW0NIMl1bQ0gyXU9bQ0gyXTQ=

> <s_epik_cmdline>
J2VwaWtfcHl0aG9uJywgJy1waCcsICc3LjAnLCAnLXRuJywgJzgnLCAnLW1hJywgJzIwMCcsICctbWV0YWxfYmluZGluZycsICctaW1hZScsICc8aW5maWxlLm1hZT4nLCAnLW9tYWUnLCAnPG91dGZpbGUubWFlPic=

> <r_lp_tautomer_probability>
1

> <r_epik_Ionization_Penalty>
0.00253099

> <r_epik_Ionization_Penalty_Charging>
0.00137877

> <r_epik_Ionization_Penalty_Neutral>
0.00115221

> <r_epik_State_Penalty>
-0

> <r_epik_Charging_Adjusted_Penalty>
0.00137877

> <i_epik_Tot_Q>
1

> <i_epik_Tot_abs_Q>
1

> <r_epik_Metal_State_Penalty>
-0

> <b_epik_Metal_Only>
0

> <s_lp_Force_Field>
OPLS_2005

> <r_lp_Energy>
52.4668

> <b_lp_Chiralities_Consistent>
1

> <s_lp_Variant>
AV-unprocessed.smi:243-15

> <Gold.Version>
5.8.1

> <Gold.Id.Protein>
6NUR|6NUR_protein|mol2

> <Gold.PLP.Fitness>
43.7408

> <Gold.PLP.PLP>
-38.5587

> <Gold.PLP.part.hbond>
-3.0000

> <Gold.PLP.part.metal>
0.0000

> <Gold.PLP.part.buried>
-4.4921

> <Gold.PLP.part.nonpolar>
-31.3104

> <Gold.PLP.part.repulsive>
0.2804

> <Gold.PLP.ligand.clash>
0.0000

> <Gold.PLP.ligand.torsion>
1.7516

> <Gold.PLP.Chemscore.Hbond>
2.5760

> <Gold.PLP.Chemscore.CHOScore>
0.0000

> <Gold.PLP.Chemscore.Metal>
0.0000

> <Gold.Chemscore.Hbonds>
donor molecule, donor type, donor heavy atom, donor atom, acceptor molecule, acceptor atom, score
      L1  H    20    45       P1  7949  0.59
      P1  H  7989  7998       L1    23  1.00
      P1  H 10752 10765       L1    20  1.00

> <Gold.PLP.Chemscore.Internal.Correction>
0.9574

> <Gold.Rescore>
     Score         DG    S(hbond)    S(metal)    S(lipo)     H(rot)  DE(clash)    DE(int)     intcor
     13.27     -17.48       2.03        0.00      93.59       2.24       0.14       4.07       ----

> <Gold.Chemscore.Fitness>
13.2739

> <Gold.Chemscore.DG>
-17.4846

> <Gold.Chemscore.ZeroCoef>
-5.4800

> <Gold.Chemscore.Hbond>
2.0309

> <Gold.Chemscore.Metal>
0.0000

> <Gold.Chemscore.Lipo>
93.5943

> <Gold.Chemscore.Internal_Hbond>
0.0000

> <Gold.Chemscore.DEClash>
0.1408

> <Gold.Chemscore.DEInternal>
4.0698

> <Gold.Chemscore.Rot>
2.2379

> <Gold.Chemscore.Internal.Correction>
   9.000000E+99

> <Gold.Chemscore.Hbonds>
donor molecule, donor type, donor heavy atom, donor atom, acceptor molecule, acceptor atom, score
      L1  H    20    45       P1  7949  0.26
      P1  H  7989  7998       L1    23  0.28
      P1  H 10752 10765       L1    20  0.93

> <Gold.Chemscore.Hbond.Weighted>
-6.7831

> <Gold.Chemscore.Metal.Weighted>
-0.0000

> <Gold.Chemscore.Lipo.Weighted>
-10.9505

> <Gold.Chemscore.Internal_Hbond.Weighted>
0.0000

> <Gold.Chemscore.DEClash.Weighted>
0.1408

> <Gold.Chemscore.DEInternal.Weighted>
4.0698

> <Gold.Chemscore.Rot.Weighted>
5.7291

> <Gold.Chemscore.Internal.Correction.Weighted>
   9.000000E+99

> <Gold.Protein.RotatedTorsions>
[ 6907 6896 6895 6894 ] final  -91.36 input  -60.11 | X-H torsion
[ 7974 7965 7964 7962 ] final  166.48 input  175.53 | X-H torsion
[ 8008 7997 7996 7995 ] final  -23.66 input   59.86 | X-H torsion
[ 10167 10162 10161 10158 ] final   86.44 input  -65.29 | X-H torsion
[ 10718 10713 10712 10709 ] final    9.98 input   66.30 | X-H torsion
[ 10763 10752 10751 10750 ] final  138.58 input  -60.55 | X-H torsion
[ 11005 11000 10999 10996 ] final -145.27 input  -57.11 | X-H torsion

> <Gold.Protein.ActiveResidues>
 VAL166  LYS551  ARG553  GLY616  TRP617  ASP618  TYR619  PRO620  LYS621  CYS622 
 ASP623  PHE694  ASN695  SER759  ASP760  ASP761  ALA762  ILE779  LEU786  VAL792 
 PHE793  MET794  SER795  GLU796  ALA797  LYS798  CYS799  TRP800  GLU811  SER814 

> <Gold.Protein.RotatedAtoms>
  150.6891  134.2290  159.4426 H   0  0  0  0  0  0  0  0  0  0  0  0  # atno 6907 bound_to 6896
  152.0241  134.9803  160.0580 H   0  0  0  0  0  0  0  0  0  0  0  0  # atno 6908 bound_to 6896
  152.1368  133.4405  159.4784 H   0  0  0  0  0  0  0  0  0  0  0  0  # atno 6909 bound_to 6896
  144.7461  139.8621  143.6381 H   0  0  0  0  0  0  0  0  0  0  0  0  # atno 7974 bound_to 7965
  154.4572  140.1974  156.0345 H   0  0  0  0  0  0  0  0  0  0  0  0  # atno 8008 bound_to 7997
  156.0770  140.3277  155.7618 H   0  0  0  0  0  0  0  0  0  0  0  0  # atno 8009 bound_to 7997
  155.5172  140.0567  157.2904 H   0  0  0  0  0  0  0  0  0  0  0  0  # atno 8010 bound_to 7997
  139.8875  144.6405  150.8775 H   0  0  0  0  0  0  0  0  0  0  0  0  # atno 10167 bound_to 10162
  156.9743  130.5981  149.5671 H   0  0  0  0  0  0  0  0  0  0  0  0  # atno 10718 bound_to 10713
  153.8919  135.3032  155.3447 H   0  0  0  0  0  0  0  0  0  0  0  0  # atno 10763 bound_to 10752
  154.7712  135.4885  153.9656 H   0  0  0  0  0  0  0  0  0  0  0  0  # atno 10764 bound_to 10752
  153.1293  135.6800  153.9304 H   0  0  0  0  0  0  0  0  0  0  0  0  # atno 10765 bound_to 10752
  140.7940  134.2935  157.5003 H   0  0  0  0  0  0  0  0  0  0  0  0  # atno 11005 bound_to 11000
  146.1341  139.4383  143.0150 LP  0  0  0  0  0  0  0  0  0  0  0  0  # atno 17320 bound_to 7965
  145.7118  141.0103  143.1449 LP  0  0  0  0  0  0  0  0  0  0  0  0  # atno 17321 bound_to 7965
  140.7733  143.3537  151.1964 LP  0  0  0  0  0  0  0  0  0  0  0  0  # atno 17342 bound_to 10162
  139.7140  143.9330  152.2959 LP  0  0  0  0  0  0  0  0  0  0  0  0  # atno 17343 bound_to 10162
  156.0270  130.5363  150.8433 LP  0  0  0  0  0  0  0  0  0  0  0  0  # atno 17370 bound_to 10713
  157.5570  131.0945  150.9613 LP  0  0  0  0  0  0  0  0  0  0  0  0  # atno 17371 bound_to 10713
  139.8728  134.9391  156.3732 LP  0  0  0  0  0  0  0  0  0  0  0  0  # atno 17394 bound_to 11000
  140.9361  133.7546  156.0087 LP  0  0  0  0  0  0  0  0  0  0  0  0  # atno 17395 bound_to 11000

$$$$
