AV-unprocessed.smi:229|AV-procd|sdf|1753|dock1
  -GOLD-   2262020273D 1   1.00000     0.00000
 Structure written by MMmdl.
 58 62  0  0  0  0  0  0  0  0  1 V2000
  147.7572  136.3191  163.0938 C   0  0  0  0  0  0  0  0  0  0  0  0
  147.2836  135.2115  162.1448 C   0  0  0  0  0  0  0  0  0  0  0  0
  148.1923  135.0440  160.9179 C   0  0  2  0  0  0  0  0  0  0  0  0
  148.8328  136.3777  160.4959 C   0  0  0  0  0  0  0  0  0  0  0  0
  149.5965  136.1971  159.2657 N   0  0  0  0  0  0  0  0  0  0  0  0
  150.4730  137.1677  158.9012 C   0  0  0  0  0  0  0  0  0  0  0  0
  151.8056  136.9913  159.1087 N   0  0  0  0  0  0  0  0  0  0  0  0
  152.6771  137.9383  158.7503 C   0  0  0  0  0  0  0  0  0  0  0  0
  152.4369  139.1187  158.1775 N   0  0  0  0  0  0  0  0  0  0  0  0
  151.1026  139.3046  157.9647 C   0  0  0  0  0  0  0  0  0  0  0  0
  150.0634  138.3868  158.2890 C   0  0  0  0  0  0  0  0  0  0  0  0
  148.8364  138.9085  157.8979 N   0  0  0  0  0  0  0  0  0  0  0  0
  149.1319  140.0697  157.3819 C   0  0  0  0  0  0  0  0  0  0  0  0
  150.4700  140.3980  157.3959 N   0  0  0  0  0  0  0  0  0  0  0  0
  151.0859  141.6127  156.8758 C   0  0  0  0  0  0  0  0  0  0  0  0
  151.0287  142.8271  157.8345 C   0  0  1  0  0  0  0  0  0  0  0  0
  149.6949  143.2951  157.8713 O   0  0  0  0  0  0  0  0  0  0  0  0
  151.4693  142.5377  159.2861 C   0  0  1  0  0  0  0  0  0  0  0  0
  152.9248  142.0763  159.4395 C   0  0  0  0  0  0  0  0  0  0  0  0
  153.3765  142.6549  160.7734 C   0  0  0  0  0  0  0  0  0  0  0  0
  152.1955  143.5109  161.2236 C   0  0  0  0  0  0  0  0  0  0  0  0
  151.4742  143.7498  160.0272 O   0  0  0  0  0  0  0  0  0  0  0  0
  148.7964  135.6394  158.1816 C   0  0  0  0  0  0  0  0  0  0  0  0
  148.1233  134.3188  158.6206 C   0  0  1  0  0  0  0  0  0  0  0  0
  147.1269  133.8378  157.5708 C   0  0  0  0  0  0  0  0  0  0  0  0
  147.9388  132.8495  156.7472 C   0  0  0  0  0  0  0  0  0  0  0  0
  148.6869  132.1740  157.7401 O   0  0  0  0  0  0  0  0  0  0  0  0
  149.1113  133.1311  158.7037 C   0  0  0  0  0  0  0  0  0  0  0  0
  147.4051  134.5351  159.8389 O   0  0  0  0  0  0  0  0  0  0  0  0
  147.0790  136.4191  163.9414 H   0  0  0  0  0  0  0  0  0  0  0  0
  147.7984  137.2827  162.5854 H   0  0  0  0  0  0  0  0  0  0  0  0
  148.7510  136.1051  163.4878 H   0  0  0  0  0  0  0  0  0  0  0  0
  147.2208  134.2679  162.6880 H   0  0  0  0  0  0  0  0  0  0  0  0
  146.2705  135.4438  161.8148 H   0  0  0  0  0  0  0  0  0  0  0  0
  148.9839  134.3376  161.1693 H   0  0  0  0  0  0  0  0  0  0  0  0
  148.0622  137.1333  160.3358 H   0  0  0  0  0  0  0  0  0  0  0  0
  149.4837  136.7380  161.2937 H   0  0  0  0  0  0  0  0  0  0  0  0
  153.7154  137.7184  158.9505 H   0  0  0  0  0  0  0  0  0  0  0  0
  148.3716  140.7187  156.9734 H   0  0  0  0  0  0  0  0  0  0  0  0
  152.1264  141.3937  156.6357 H   0  0  0  0  0  0  0  0  0  0  0  0
  150.6091  141.8569  155.9257 H   0  0  0  0  0  0  0  0  0  0  0  0
  151.6496  143.6226  157.4208 H   0  0  0  0  0  0  0  0  0  0  0  0
  149.5001  143.7099  157.0451 H   0  0  0  0  0  0  0  0  0  0  0  0
  150.8024  141.8189  159.7673 H   0  0  0  0  0  0  0  0  0  0  0  0
  153.0137  140.9911  159.4172 H   0  0  0  0  0  0  0  0  0  0  0  0
  153.5461  142.4798  158.6390 H   0  0  0  0  0  0  0  0  0  0  0  0
  153.6091  141.8811  161.5055 H   0  0  0  0  0  0  0  0  0  0  0  0
  154.2688  143.2663  160.6348 H   0  0  0  0  0  0  0  0  0  0  0  0
  151.5627  142.9629  161.9235 H   0  0  0  0  0  0  0  0  0  0  0  0
  152.5057  144.4426  161.6972 H   0  0  0  0  0  0  0  0  0  0  0  0
  148.0333  136.3731  157.9176 H   0  0  0  0  0  0  0  0  0  0  0  0
  149.3874  135.4738  157.2819 H   0  0  0  0  0  0  0  0  0  0  0  0
  146.3029  133.3067  158.0498 H   0  0  0  0  0  0  0  0  0  0  0  0
  146.6980  134.6405  156.9705 H   0  0  0  0  0  0  0  0  0  0  0  0
  147.3159  132.1631  156.1737 H   0  0  0  0  0  0  0  0  0  0  0  0
  148.6131  133.3656  156.0617 H   0  0  0  0  0  0  0  0  0  0  0  0
  150.1310  133.4435  158.4750 H   0  0  0  0  0  0  0  0  0  0  0  0
  149.1230  132.6550  159.6836 H   0  0  0  0  0  0  0  0  0  0  0  0
  1  2  1  0  0  0  0
  1 30  1  0  0  0  0
  1 31  1  0  0  0  0
  1 32  1  0  0  0  0
  2  3  1  0  0  0  0
  2 33  1  0  0  0  0
  2 34  1  0  0  0  0
  3 29  1  0  0  0  0
  3  4  1  0  0  0  0
  3 35  1  0  0  0  0
  4  5  1  0  0  0  0
  4 36  1  0  0  0  0
  4 37  1  0  0  0  0
  5  6  1  0  0  0  0
  5 23  1  0  0  0  0
  6 11  1  0  0  0  0
  6  7  2  0  0  0  0
  7  8  1  0  0  0  0
  8  9  2  0  0  0  0
  8 38  1  0  0  0  0
  9 10  1  0  0  0  0
 10 14  1  0  0  0  0
 10 11  2  0  0  0  0
 11 12  1  0  0  0  0
 12 13  2  0  0  0  0
 13 14  1  0  0  0  0
 13 39  1  0  0  0  0
 14 15  1  0  0  0  0
 15 16  1  0  0  0  0
 15 40  1  0  0  0  0
 15 41  1  0  0  0  0
 16 17  1  0  0  0  0
 16 18  1  0  0  0  0
 16 42  1  0  0  0  0
 17 43  1  0  0  0  0
 18 22  1  0  0  0  0
 18 19  1  0  0  0  0
 18 44  1  0  0  0  0
 19 20  1  0  0  0  0
 19 45  1  0  0  0  0
 19 46  1  0  0  0  0
 20 21  1  0  0  0  0
 20 47  1  0  0  0  0
 20 48  1  0  0  0  0
 21 22  1  0  0  0  0
 21 49  1  0  0  0  0
 21 50  1  0  0  0  0
 23 24  1  0  0  0  0
 23 51  1  0  0  0  0
 23 52  1  0  0  0  0
 24 28  1  0  0  0  0
 24 25  1  0  0  0  0
 24 29  1  0  0  0  0
 25 26  1  0  0  0  0
 25 53  1  0  0  0  0
 25 54  1  0  0  0  0
 26 27  1  0  0  0  0
 26 55  1  0  0  0  0
 26 56  1  0  0  0  0
 27 28  1  0  0  0  0
 28 57  1  0  0  0  0
 28 58  1  0  0  0  0
M  END
> <s_m_source_file>
AV-unprocessed.smi

> <i_m_source_file_index>
229

> <i_lp_mmshare_version>
43012

> <i_f3d_flags>
0

> <s_epik_input>
W0NIMl0xT1tDSDJdW0NIMl1bQ0BdMTJbQ0gyXU4oW0NIMl1bQ0BIXShPMilbQ0gyXVtDSDNdKWMobltjSF1uMyljKGMzNCluW2NIXW40W0NIMl1bQ0BIXShbT0hdKVtDQEBIXTVbQ0gyXVtDSDJdW0NIMl1PNQ==

> <s_epik_cmdline>
J2VwaWtfcHl0aG9uJywgJy1waCcsICc3LjAnLCAnLXRuJywgJzgnLCAnLW1hJywgJzIwMCcsICctbWV0YWxfYmluZGluZycsICctaW1hZScsICc8aW5maWxlLm1hZT4nLCAnLW9tYWUnLCAnPG91dGZpbGUubWFlPic=

> <r_lp_tautomer_probability>
1

> <r_epik_Ionization_Penalty>
0.00318402

> <r_epik_Ionization_Penalty_Charging>
0

> <r_epik_Ionization_Penalty_Neutral>
0.00318402

> <r_epik_State_Penalty>
0.00215642

> <r_epik_Charging_Adjusted_Penalty>
0.00215642

> <i_epik_Tot_Q>
0

> <i_epik_Tot_abs_Q>
0

> <r_epik_Metal_State_Penalty>
-0

> <b_epik_Metal_Only>
0

> <s_lp_Force_Field>
OPLS_2005

> <r_lp_Energy>
56.4777

> <b_lp_Chiralities_Consistent>
1

> <s_lp_Variant>
AV-unprocessed.smi:229-7

> <Gold.Version>
5.8.1

> <Gold.Id.Protein>
6NUR|6NUR_protein|mol2

> <Gold.PLP.Fitness>
48.3611

> <Gold.PLP.PLP>
-44.0019

> <Gold.PLP.part.hbond>
-2.7800

> <Gold.PLP.part.metal>
0.0000

> <Gold.PLP.part.buried>
-7.4968

> <Gold.PLP.part.nonpolar>
-33.6041

> <Gold.PLP.part.repulsive>
0.0429

> <Gold.PLP.ligand.clash>
0.0000

> <Gold.PLP.ligand.torsion>
0.9688

> <Gold.PLP.Chemscore.Hbond>
1.9675

> <Gold.PLP.Chemscore.CHOScore>
0.0000

> <Gold.PLP.Chemscore.Metal>
0.0000

> <Gold.Chemscore.Hbonds>
donor molecule, donor type, donor heavy atom, donor atom, acceptor molecule, acceptor atom, score
      L1  H    17    43       P1  8028  1.00
      P1  H  6896  6907       L1     7  0.49

> <Gold.PLP.Chemscore.Internal.Correction>
0.3944

> <Gold.Rescore>
     Score         DG    S(hbond)    S(metal)    S(lipo)     H(rot)  DE(clash)    DE(int)     intcor
     15.94     -17.16       1.81        0.00     101.90       2.46       0.04       1.18       ----

> <Gold.Chemscore.Fitness>
15.9399

> <Gold.Chemscore.DG>
-17.1554

> <Gold.Chemscore.ZeroCoef>
-5.4800

> <Gold.Chemscore.Hbond>
1.8109

> <Gold.Chemscore.Metal>
0.0000

> <Gold.Chemscore.Lipo>
101.9005

> <Gold.Chemscore.Internal_Hbond>
0.0000

> <Gold.Chemscore.DEClash>
0.0358

> <Gold.Chemscore.DEInternal>
1.1798

> <Gold.Chemscore.Rot>
2.4591

> <Gold.Chemscore.Internal.Correction>
   9.000000E+99

> <Gold.Chemscore.Hbonds>
donor molecule, donor type, donor heavy atom, donor atom, acceptor molecule, acceptor atom, score
      L1  H    17    43       P1  8028  0.85
      P1  H  6896  6907       L1     7  0.02

> <Gold.Chemscore.Hbond.Weighted>
-6.0484

> <Gold.Chemscore.Metal.Weighted>
-0.0000

> <Gold.Chemscore.Lipo.Weighted>
-11.9224

> <Gold.Chemscore.Internal_Hbond.Weighted>
0.0000

> <Gold.Chemscore.DEClash.Weighted>
0.0358

> <Gold.Chemscore.DEInternal.Weighted>
1.1798

> <Gold.Chemscore.Rot.Weighted>
6.2953

> <Gold.Chemscore.Internal.Correction.Weighted>
   9.000000E+99

> <Gold.Protein.RotatedTorsions>
[ 6907 6896 6895 6894 ] final   -8.18 input  -60.11 | X-H torsion
[ 7974 7965 7964 7962 ] final  -34.25 input  175.53 | X-H torsion
[ 8008 7997 7996 7995 ] final -131.79 input   59.86 | X-H torsion
[ 10167 10162 10161 10158 ] final -155.00 input  -65.29 | X-H torsion
[ 10718 10713 10712 10709 ] final  161.56 input   66.30 | X-H torsion
[ 10763 10752 10751 10750 ] final  136.38 input  -60.55 | X-H torsion
[ 11005 11000 10999 10996 ] final -142.93 input  -57.11 | X-H torsion

> <Gold.Protein.ActiveResidues>
 VAL166  LYS551  ARG553  GLY616  TRP617  ASP618  TYR619  PRO620  LYS621  CYS622 
 ASP623  PHE694  ASN695  SER759  ASP760  ASP761  ALA762  ILE779  LEU786  VAL792 
 PHE793  MET794  SER795  GLU796  ALA797  LYS798  CYS799  TRP800  GLU811  SER814 

> <Gold.Protein.RotatedAtoms>
  151.4377  135.1017  159.9660 H   0  0  0  0  0  0  0  0  0  0  0  0  # atno 6907 bound_to 6896
  152.4934  133.8558  159.7235 H   0  0  0  0  0  0  0  0  0  0  0  0  # atno 6908 bound_to 6896
  150.9110  133.6939  159.2882 H   0  0  0  0  0  0  0  0  0  0  0  0  # atno 6909 bound_to 6896
  146.0845  140.6015  142.8893 H   0  0  0  0  0  0  0  0  0  0  0  0  # atno 7974 bound_to 7965
  155.3181  140.0460  157.3038 H   0  0  0  0  0  0  0  0  0  0  0  0  # atno 8008 bound_to 7997
  154.5395  140.2283  155.8631 H   0  0  0  0  0  0  0  0  0  0  0  0  # atno 8009 bound_to 7997
  156.1867  140.3060  155.9259 H   0  0  0  0  0  0  0  0  0  0  0  0  # atno 8010 bound_to 7997
  139.6967  143.9331  152.2410 H   0  0  0  0  0  0  0  0  0  0  0  0  # atno 10167 bound_to 10162
  157.1348  131.0525  151.2354 H   0  0  0  0  0  0  0  0  0  0  0  0  # atno 10718 bound_to 10713
  153.8556  135.3074  155.3435 H   0  0  0  0  0  0  0  0  0  0  0  0  # atno 10763 bound_to 10752
  154.7872  135.4803  153.9975 H   0  0  0  0  0  0  0  0  0  0  0  0  # atno 10764 bound_to 10752
  153.1492  135.6840  153.9001 H   0  0  0  0  0  0  0  0  0  0  0  0  # atno 10765 bound_to 10752
  140.8176  134.2669  157.4914 H   0  0  0  0  0  0  0  0  0  0  0  0  # atno 11005 bound_to 11000
  144.7316  140.4688  143.6934 LP  0  0  0  0  0  0  0  0  0  0  0  0  # atno 17320 bound_to 7965
  145.6156  139.1518  143.3051 LP  0  0  0  0  0  0  0  0  0  0  0  0  # atno 17321 bound_to 7965
  139.9162  144.6827  150.8510 LP  0  0  0  0  0  0  0  0  0  0  0  0  # atno 17342 bound_to 10162
  140.7698  143.3408  151.2213 LP  0  0  0  0  0  0  0  0  0  0  0  0  # atno 17343 bound_to 10162
  157.4360  130.7517  149.7029 LP  0  0  0  0  0  0  0  0  0  0  0  0  # atno 17370 bound_to 10713
  155.9800  130.4034  150.3551 LP  0  0  0  0  0  0  0  0  0  0  0  0  # atno 17371 bound_to 10713
  139.8710  134.9518  156.4095 LP  0  0  0  0  0  0  0  0  0  0  0  0  # atno 17394 bound_to 11000
  140.9132  133.7697  155.9817 LP  0  0  0  0  0  0  0  0  0  0  0  0  # atno 17395 bound_to 11000

$$$$
