AV-unprocessed.smi:607|AV-procd|sdf|3043|dock6
  -GOLD-   2262023563D 1   1.00000     0.00000
 Structure written by MMmdl.
 42 43  0  0  0  0  0  0  0  0  1 V2000
  151.7947  139.9964  156.6089 C   0  0  0  0  0  0  0  0  0  0  0  0
  152.2403  140.7020  157.8581 C   0  0  0  0  0  0  0  0  0  0  0  0
  153.2216  140.1837  158.5759 N   0  0  0  0  0  0  0  0  0  0  0  0
  153.3831  141.0385  159.6044 N   0  0  0  0  0  0  0  0  0  0  0  0
  154.3985  140.7640  160.6025 C   0  0  0  0  0  0  0  0  0  0  0  0
  152.5046  142.1024  159.5356 C   0  0  0  0  0  0  0  0  0  0  0  0
  152.5056  143.1853  160.5685 C   0  0  0  0  0  0  0  0  0  0  0  0
  151.7394  141.9184  158.4104 C   0  0  0  0  0  0  0  0  0  0  0  0
  150.6267  142.7756  157.8398 C   0  0  1  0  0  0  0  0  0  0  0  0
  151.0704  143.5093  156.5599 C   0  0  0  0  0  0  0  0  0  0  0  0
  149.3598  141.9259  157.6471 C   0  0  0  0  0  0  0  0  0  0  0  0
  149.3165  140.7578  158.0338 O   0  0  0  0  0  0  0  0  0  0  0  0
  148.3261  142.5375  157.0445 N   0  0  0  0  0  0  0  0  0  0  0  0
  146.9942  141.9771  156.8070 C   0  0  0  0  0  0  0  0  0  0  0  0
  146.3258  141.6543  158.0821 C   0  0  0  0  0  0  0  0  0  0  0  0
  145.8024  141.4019  159.0827 N   0  0  0  0  0  0  0  0  0  0  0  0
  146.1723  142.9936  156.0007 C   0  0  0  0  0  0  0  0  0  0  0  0
  146.4994  142.7449  154.5218 C   0  0  0  0  0  0  0  0  0  0  0  0
  147.1473  141.3564  154.4469 C   0  0  0  0  0  0  0  0  0  0  0  0
  147.0542  140.7684  155.8576 C   0  0  0  0  0  0  0  0  0  0  0  0
  152.0487  140.5787  155.7231 H   0  0  0  0  0  0  0  0  0  0  0  0
  150.7153  139.8457  156.6103 H   0  0  0  0  0  0  0  0  0  0  0  0
  152.2632  139.0166  156.5074 H   0  0  0  0  0  0  0  0  0  0  0  0
  155.1406  141.5628  160.5993 H   0  0  0  0  0  0  0  0  0  0  0  0
  154.8993  139.8173  160.3941 H   0  0  0  0  0  0  0  0  0  0  0  0
  153.9373  140.7086  161.5889 H   0  0  0  0  0  0  0  0  0  0  0  0
  151.8918  144.0325  160.2658 H   0  0  0  0  0  0  0  0  0  0  0  0
  153.5151  143.5600  160.7391 H   0  0  0  0  0  0  0  0  0  0  0  0
  152.1174  142.8130  161.5168 H   0  0  0  0  0  0  0  0  0  0  0  0
  150.3519  143.5489  158.5580 H   0  0  0  0  0  0  0  0  0  0  0  0
  151.3651  142.8174  155.7709 H   0  0  0  0  0  0  0  0  0  0  0  0
  151.9234  144.1573  156.7633 H   0  0  0  0  0  0  0  0  0  0  0  0
  150.2715  144.1392  156.1668 H   0  0  0  0  0  0  0  0  0  0  0  0
  148.4609  143.4974  156.7618 H   0  0  0  0  0  0  0  0  0  0  0  0
  145.1090  142.8055  156.1586 H   0  0  0  0  0  0  0  0  0  0  0  0
  146.3576  144.0260  156.3006 H   0  0  0  0  0  0  0  0  0  0  0  0
  145.5989  142.8020  153.9097 H   0  0  0  0  0  0  0  0  0  0  0  0
  147.1933  143.5002  154.1511 H   0  0  0  0  0  0  0  0  0  0  0  0
  146.6663  140.7150  153.7077 H   0  0  0  0  0  0  0  0  0  0  0  0
  148.1946  141.4570  154.1596 H   0  0  0  0  0  0  0  0  0  0  0  0
  147.8687  140.0768  156.0740 H   0  0  0  0  0  0  0  0  0  0  0  0
  146.1265  140.2001  155.9408 H   0  0  0  0  0  0  0  0  0  0  0  0
  1  2  1  0  0  0  0
  1 21  1  0  0  0  0
  1 22  1  0  0  0  0
  1 23  1  0  0  0  0
  2  8  1  0  0  0  0
  2  3  2  0  0  0  0
  3  4  1  0  0  0  0
  4  5  1  0  0  0  0
  4  6  1  0  0  0  0
  5 24  1  0  0  0  0
  5 25  1  0  0  0  0
  5 26  1  0  0  0  0
  6  7  1  0  0  0  0
  6  8  2  0  0  0  0
  7 27  1  0  0  0  0
  7 28  1  0  0  0  0
  7 29  1  0  0  0  0
  8  9  1  0  0  0  0
  9 10  1  0  0  0  0
  9 11  1  0  0  0  0
  9 30  1  0  0  0  0
 10 31  1  0  0  0  0
 10 32  1  0  0  0  0
 10 33  1  0  0  0  0
 11 12  2  0  0  0  0
 11 13  1  0  0  0  0
 13 14  1  0  0  0  0
 13 34  1  0  0  0  0
 14 20  1  0  0  0  0
 14 15  1  0  0  0  0
 14 17  1  0  0  0  0
 15 16  3  0  0  0  0
 17 18  1  0  0  0  0
 17 35  1  0  0  0  0
 17 36  1  0  0  0  0
 18 19  1  0  0  0  0
 18 37  1  0  0  0  0
 18 38  1  0  0  0  0
 19 20  1  0  0  0  0
 19 39  1  0  0  0  0
 19 40  1  0  0  0  0
 20 41  1  0  0  0  0
 20 42  1  0  0  0  0
M  END
> <s_m_source_file>
AV-unprocessed.smi

> <i_m_source_file_index>
607

> <i_lp_mmshare_version>
43012

> <i_f3d_flags>
0

> <s_epik_input>
W0NIM11jMW5uKFtDSDNdKWMoW0NIM10pYzFbQ0BIXShbQ0gzXSlDKD1PKVtOSF1DMihDI04pW0NIMl1bQ0gyXVtDSDJdW0NIMl0y

> <s_epik_cmdline>
J2VwaWtfcHl0aG9uJywgJy1waCcsICc3LjAnLCAnLXRuJywgJzgnLCAnLW1hJywgJzIwMCcsICctbWV0YWxfYmluZGluZycsICctaW1hZScsICc8aW5maWxlLm1hZT4nLCAnLW9tYWUnLCAnPG91dGZpbGUubWFlPic=

> <r_lp_tautomer_probability>
1

> <r_epik_Ionization_Penalty>
0.00342632

> <r_epik_Ionization_Penalty_Charging>
0

> <r_epik_Ionization_Penalty_Neutral>
0.00342632

> <r_epik_State_Penalty>
0.00242724

> <r_epik_Charging_Adjusted_Penalty>
0.00242724

> <i_epik_Tot_Q>
0

> <i_epik_Tot_abs_Q>
0

> <r_epik_Metal_State_Penalty>
-0

> <b_epik_Metal_Only>
0

> <s_lp_Force_Field>
OPLS_2005

> <r_lp_Energy>
13.7926

> <b_lp_Chiralities_Consistent>
1

> <s_lp_Variant>
AV-unprocessed.smi:607-2

> <Gold.Version>
5.8.1

> <Gold.Id.Protein>
6NUR|6NUR_protein|mol2

> <Gold.PLP.Fitness>
40.0323

> <Gold.PLP.PLP>
-32.6124

> <Gold.PLP.part.hbond>
-3.0000

> <Gold.PLP.part.metal>
0.0000

> <Gold.PLP.part.buried>
-0.1584

> <Gold.PLP.part.nonpolar>
-29.0729

> <Gold.PLP.part.repulsive>
0.0280

> <Gold.PLP.ligand.clash>
0.0000

> <Gold.PLP.ligand.torsion>
0.3077

> <Gold.PLP.Chemscore.Hbond>
2.6399

> <Gold.PLP.Chemscore.CHOScore>
0.0000

> <Gold.PLP.Chemscore.Metal>
0.0000

> <Gold.Chemscore.Hbonds>
donor molecule, donor type, donor heavy atom, donor atom, acceptor molecule, acceptor atom, score
      L1  H    13    34       P1  8028  1.00
      P1  H  6934  6946       L1    16  0.82
      P1  H  7997  8008       L1     3  0.81

> <Gold.PLP.Chemscore.Internal.Correction>
0.1156

> <Gold.Rescore>
     Score         DG    S(hbond)    S(metal)    S(lipo)     H(rot)  DE(clash)    DE(int)     intcor
     15.60     -19.44       2.02        0.00      91.79       1.37       1.61       2.22       ----

> <Gold.Chemscore.Fitness>
15.6019

> <Gold.Chemscore.DG>
-19.4384

> <Gold.Chemscore.ZeroCoef>
-5.4800

> <Gold.Chemscore.Hbond>
2.0154

> <Gold.Chemscore.Metal>
0.0000

> <Gold.Chemscore.Lipo>
91.7892

> <Gold.Chemscore.Internal_Hbond>
0.0000

> <Gold.Chemscore.DEClash>
1.6134

> <Gold.Chemscore.DEInternal>
2.2232

> <Gold.Chemscore.Rot>
1.3720

> <Gold.Chemscore.Internal.Correction>
   9.000000E+99

> <Gold.Chemscore.Hbonds>
donor molecule, donor type, donor heavy atom, donor atom, acceptor molecule, acceptor atom, score
      L1  H    13    34       P1  8028  0.25
      P1  H  6934  6946       L1    16  0.74
      P1  H  7997  8008       L1     3  0.25

> <Gold.Chemscore.Hbond.Weighted>
-6.7313

> <Gold.Chemscore.Metal.Weighted>
-0.0000

> <Gold.Chemscore.Lipo.Weighted>
-10.7393

> <Gold.Chemscore.Internal_Hbond.Weighted>
0.0000

> <Gold.Chemscore.DEClash.Weighted>
1.6134

> <Gold.Chemscore.DEInternal.Weighted>
2.2232

> <Gold.Chemscore.Rot.Weighted>
3.5123

> <Gold.Chemscore.Internal.Correction.Weighted>
   9.000000E+99

> <Gold.Protein.RotatedTorsions>
[ 6907 6896 6895 6894 ] final   46.66 input  -60.11 | X-H torsion
[ 7974 7965 7964 7962 ] final  112.20 input  175.53 | X-H torsion
[ 8008 7997 7996 7995 ] final  -98.73 input   59.86 | X-H torsion
[ 10167 10162 10161 10158 ] final  -80.55 input  -65.29 | X-H torsion
[ 10718 10713 10712 10709 ] final -124.77 input   66.30 | X-H torsion
[ 10763 10752 10751 10750 ] final   86.20 input  -60.55 | X-H torsion
[ 11005 11000 10999 10996 ] final -144.41 input  -57.11 | X-H torsion

> <Gold.Protein.ActiveResidues>
 VAL166  LYS551  ARG553  GLY616  TRP617  ASP618  TYR619  PRO620  LYS621  CYS622 
 ASP623  PHE694  ASN695  SER759  ASP760  ASP761  ALA762  ILE779  LEU786  VAL792 
 PHE793  MET794  SER795  GLU796  ALA797  LYS798  CYS799  TRP800  GLU811  SER814 

> <Gold.Protein.RotatedAtoms>
  152.2591  134.8053  160.0433 H   0  0  0  0  0  0  0  0  0  0  0  0  # atno 6907 bound_to 6896
  151.8706  133.3470  159.3742 H   0  0  0  0  0  0  0  0  0  0  0  0  # atno 6908 bound_to 6896
  150.7110  134.5043  159.5621 H   0  0  0  0  0  0  0  0  0  0  0  0  # atno 6909 bound_to 6896
  145.2325  139.2813  143.4160 H   0  0  0  0  0  0  0  0  0  0  0  0  # atno 7974 bound_to 7965
  154.8052  140.0453  157.1302 H   0  0  0  0  0  0  0  0  0  0  0  0  # atno 8008 bound_to 7997
  154.9432  140.3055  155.5090 H   0  0  0  0  0  0  0  0  0  0  0  0  # atno 8009 bound_to 7997
  156.2966  140.2301  156.4503 H   0  0  0  0  0  0  0  0  0  0  0  0  # atno 8010 bound_to 7997
  140.4493  143.2488  151.8512 H   0  0  0  0  0  0  0  0  0  0  0  0  # atno 10167 bound_to 10162
  156.1616  130.6606  151.0058 H   0  0  0  0  0  0  0  0  0  0  0  0  # atno 10718 bound_to 10713
  153.1548  135.4589  154.9688 H   0  0  0  0  0  0  0  0  0  0  0  0  # atno 10763 bound_to 10752
  154.7852  135.3202  154.7904 H   0  0  0  0  0  0  0  0  0  0  0  0  # atno 10764 bound_to 10752
  153.8403  135.6930  153.4858 H   0  0  0  0  0  0  0  0  0  0  0  0  # atno 10765 bound_to 10752
  140.8027  134.2838  157.4972 H   0  0  0  0  0  0  0  0  0  0  0  0  # atno 11005 bound_to 11000
  146.3349  140.2664  142.8604 LP  0  0  0  0  0  0  0  0  0  0  0  0  # atno 17320 bound_to 7965
  144.9663  140.8325  143.5482 LP  0  0  0  0  0  0  0  0  0  0  0  0  # atno 17321 bound_to 7965
  139.4795  144.5138  151.8896 LP  0  0  0  0  0  0  0  0  0  0  0  0  # atno 17342 bound_to 10162
  140.4226  144.2223  150.5887 LP  0  0  0  0  0  0  0  0  0  0  0  0  # atno 17343 bound_to 10162
  157.6737  131.0855  150.7549 LP  0  0  0  0  0  0  0  0  0  0  0  0  # atno 17370 bound_to 10713
  156.7611  130.4799  149.5437 LP  0  0  0  0  0  0  0  0  0  0  0  0  # atno 17371 bound_to 10713
  139.8720  134.9439  156.3865 LP  0  0  0  0  0  0  0  0  0  0  0  0  # atno 17394 bound_to 11000
  140.9278  133.7600  155.9986 LP  0  0  0  0  0  0  0  0  0  0  0  0  # atno 17395 bound_to 11000

$$$$
