AV-unprocessed.smi:767|AV-procd|sdf|3663|dock9
  -GOLD-   22720 1 73D 1   1.00000     0.00000
 Structure written by MMmdl.
 47 49  0  0  0  0  0  0  0  0  1 V2000
  152.1500  143.2635  158.9594 C   0  0  0  0  0  0  0  0  0  0  0  0
  151.6892  142.2924  157.8924 C   0  0  0  0  0  0  0  0  0  0  0  0
  151.9219  140.9081  158.0316 C   0  0  0  0  0  0  0  0  0  0  0  0
  151.4841  140.0479  157.0060 C   0  0  0  0  0  0  0  0  0  0  0  0
  150.8366  140.6029  155.8835 C   0  0  0  0  0  0  0  0  0  0  0  0
  150.3711  139.7220  154.7363 C   0  0  0  0  0  0  0  0  0  0  0  0
  150.9986  138.3130  154.7483 C   0  0  0  0  0  0  0  0  0  0  0  0
  150.0756  137.2756  154.2971 N   0  0  0  0  0  0  0  0  0  0  0  0
  149.3827  136.4590  155.1019 C   0  0  0  0  0  0  0  0  0  0  0  0
  149.4695  136.4621  156.3297 O   0  0  0  0  0  0  0  0  0  0  0  0
  148.5672  135.6545  154.4083 N   0  0  0  0  0  0  0  0  0  0  0  0
  147.6531  134.6801  155.0122 C   0  0  2  0  0  0  0  0  0  0  0  0
  148.3557  133.7418  155.9971 C   0  0  2  0  0  0  0  0  0  0  0  0
  149.6419  133.7472  156.7415 C   0  0  0  0  0  0  0  0  0  0  0  0
  149.9964  132.2507  156.5253 C   0  0  0  0  0  0  0  0  0  0  0  0
  149.0499  131.7532  155.5445 O   0  0  0  0  0  0  0  0  0  0  0  0
  148.7106  132.8991  154.7895 C   0  0  1  0  0  0  0  0  0  0  0  0
  147.3852  133.3776  154.1570 C   0  0  0  0  0  0  0  0  0  0  0  0
  146.1171  132.5694  154.4850 C   0  0  0  0  0  0  0  0  0  0  0  0
  147.4049  133.5253  152.6319 C   0  0  0  0  0  0  0  0  0  0  0  0
  150.6477  142.0009  155.8452 C   0  0  0  0  0  0  0  0  0  0  0  0
  151.0653  142.8334  156.8227 N   0  0  0  0  0  0  0  0  0  0  0  0
  152.1621  142.7851  159.9393 H   0  0  0  0  0  0  0  0  0  0  0  0
  151.4882  144.1285  159.0145 H   0  0  0  0  0  0  0  0  0  0  0  0
  153.1574  143.6155  158.7368 H   0  0  0  0  0  0  0  0  0  0  0  0
  152.4272  140.5134  158.9008 H   0  0  0  0  0  0  0  0  0  0  0  0
  151.6512  138.9831  157.0765 H   0  0  0  0  0  0  0  0  0  0  0  0
  149.2844  139.6416  154.7713 H   0  0  0  0  0  0  0  0  0  0  0  0
  150.6050  140.2170  153.7928 H   0  0  0  0  0  0  0  0  0  0  0  0
  151.8546  138.2941  154.0732 H   0  0  0  0  0  0  0  0  0  0  0  0
  151.3844  138.0743  155.7405 H   0  0  0  0  0  0  0  0  0  0  0  0
  149.9323  137.1972  153.3010 H   0  0  0  0  0  0  0  0  0  0  0  0
  148.5622  135.7272  153.4015 H   0  0  0  0  0  0  0  0  0  0  0  0
  146.7447  135.1220  155.4252 H   0  0  0  0  0  0  0  0  0  0  0  0
  147.5933  133.2771  156.6272 H   0  0  0  0  0  0  0  0  0  0  0  0
  150.3792  134.4118  156.2892 H   0  0  0  0  0  0  0  0  0  0  0  0
  149.5235  134.0037  157.7944 H   0  0  0  0  0  0  0  0  0  0  0  0
  151.0171  132.1435  156.1563 H   0  0  0  0  0  0  0  0  0  0  0  0
  149.9060  131.6725  157.4452 H   0  0  0  0  0  0  0  0  0  0  0  0
  149.5826  133.2594  154.2338 H   0  0  0  0  0  0  0  0  0  0  0  0
  146.1676  131.5667  154.0594 H   0  0  0  0  0  0  0  0  0  0  0  0
  145.2267  133.0505  154.0789 H   0  0  0  0  0  0  0  0  0  0  0  0
  145.9428  132.4473  155.5526 H   0  0  0  0  0  0  0  0  0  0  0  0
  147.2948  132.5629  152.1315 H   0  0  0  0  0  0  0  0  0  0  0  0
  148.3424  133.9540  152.2785 H   0  0  0  0  0  0  0  0  0  0  0  0
  146.6005  134.1735  152.2828 H   0  0  0  0  0  0  0  0  0  0  0  0
  150.1604  142.4676  155.0017 H   0  0  0  0  0  0  0  0  0  0  0  0
  1  2  1  0  0  0  0
  1 23  1  0  0  0  0
  1 24  1  0  0  0  0
  1 25  1  0  0  0  0
  2 22  1  0  0  0  0
  2  3  2  0  0  0  0
  3  4  1  0  0  0  0
  3 26  1  0  0  0  0
  4  5  2  0  0  0  0
  4 27  1  0  0  0  0
  5  6  1  0  0  0  0
  5 21  1  0  0  0  0
  6  7  1  0  0  0  0
  6 28  1  0  0  0  0
  6 29  1  0  0  0  0
  7  8  1  0  0  0  0
  7 30  1  0  0  0  0
  7 31  1  0  0  0  0
  8  9  1  0  0  0  0
  8 32  1  0  0  0  0
  9 10  2  0  0  0  0
  9 11  1  0  0  0  0
 11 12  1  0  0  0  0
 11 33  1  0  0  0  0
 12 18  1  0  0  0  0
 12 13  1  0  0  0  0
 12 34  1  0  0  0  0
 13 17  1  0  0  0  0
 13 14  1  0  0  0  0
 13 35  1  0  0  0  0
 14 15  1  0  0  0  0
 14 36  1  0  0  0  0
 14 37  1  0  0  0  0
 15 16  1  0  0  0  0
 15 38  1  0  0  0  0
 15 39  1  0  0  0  0
 16 17  1  0  0  0  0
 17 18  1  0  0  0  0
 17 40  1  0  0  0  0
 18 19  1  0  0  0  0
 18 20  1  0  0  0  0
 19 41  1  0  0  0  0
 19 42  1  0  0  0  0
 19 43  1  0  0  0  0
 20 44  1  0  0  0  0
 20 45  1  0  0  0  0
 20 46  1  0  0  0  0
 21 22  2  0  0  0  0
 21 47  1  0  0  0  0
M  END
> <s_m_source_file>
AV-unprocessed.smi

> <i_m_source_file_index>
767

> <i_lp_mmshare_version>
43012

> <i_f3d_flags>
0

> <s_epik_input>
W0NIM11jMVtjSF1bY0hdYyhbY0hdbjEpW0NIMl1bQ0gyXVtOSF1DKD1PKVtOSF1bQ0BIXTJDKFtDSDNdKShbQ0gzXSlbQ0BIXShbQ0BASF0yMylPW0NIMl1bQ0gyXTM=

> <s_epik_cmdline>
J2VwaWtfcHl0aG9uJywgJy1waCcsICc3LjAnLCAnLXRuJywgJzgnLCAnLW1hJywgJzIwMCcsICctbWV0YWxfYmluZGluZycsICctaW1hZScsICc8aW5maWxlLm1hZT4nLCAnLW9tYWUnLCAnPG91dGZpbGUubWFlPic=

> <r_epik_Ionization_Penalty>
0.0567523

> <r_epik_Ionization_Penalty_Charging>
0

> <r_epik_Ionization_Penalty_Neutral>
0.0567523

> <r_epik_State_Penalty>
0.0489186

> <r_epik_Charging_Adjusted_Penalty>
0.0489186

> <i_epik_Tot_Q>
0

> <i_epik_Tot_abs_Q>
0

> <r_epik_Metal_State_Penalty>
0.044622

> <b_epik_Metal_Only>
0

> <s_lp_Force_Field>
OPLS_2005

> <r_lp_Energy>
58.7335

> <b_lp_Chiralities_Consistent>
1

> <s_lp_Variant>
AV-unprocessed.smi:767-7

> <Gold.Version>
5.8.1

> <Gold.Id.Protein>
6NUR|6NUR_protein|mol2

> <Gold.PLP.Fitness>
44.8659

> <Gold.PLP.PLP>
-37.7818

> <Gold.PLP.part.hbond>
-2.5995

> <Gold.PLP.part.metal>
0.0000

> <Gold.PLP.part.buried>
-3.8134

> <Gold.PLP.part.nonpolar>
-30.8359

> <Gold.PLP.part.repulsive>
0.2191

> <Gold.PLP.ligand.clash>
0.0000

> <Gold.PLP.ligand.torsion>
0.8094

> <Gold.PLP.Chemscore.Hbond>
1.9280

> <Gold.PLP.Chemscore.CHOScore>
0.8836

> <Gold.PLP.Chemscore.Metal>
0.0000

> <Gold.Chemscore.Hbonds>
donor molecule, donor type, donor heavy atom, donor atom, acceptor molecule, acceptor atom, score
      L1  H     8    32       P1  7948  0.93
      L1  H    11    33       P1  7948  1.00
      L1  C    21    47       P1  8028  0.45

> <Gold.PLP.Chemscore.Internal.Correction>
0.2682

> <Gold.Rescore>
     Score         DG    S(hbond)    S(metal)    S(lipo)     H(rot)  DE(clash)    DE(int)     intcor
     15.44     -18.45       1.64        0.00      95.70       1.45       0.00       3.01       ----

> <Gold.Chemscore.Fitness>
15.4380

> <Gold.Chemscore.DG>
-18.4523

> <Gold.Chemscore.ZeroCoef>
-5.4800

> <Gold.Chemscore.Hbond>
1.6426

> <Gold.Chemscore.Metal>
0.0000

> <Gold.Chemscore.Lipo>
95.7031

> <Gold.Chemscore.Internal_Hbond>
0.0000

> <Gold.Chemscore.DEClash>
0.0000

> <Gold.Chemscore.DEInternal>
3.0143

> <Gold.Chemscore.Rot>
1.4497

> <Gold.Chemscore.Internal.Correction>
   9.000000E+99

> <Gold.Chemscore.Hbonds>
donor molecule, donor type, donor heavy atom, donor atom, acceptor molecule, acceptor atom, score
      L1  H     8    32       P1  7948  0.31
      L1  H    11    33       P1  7948  0.99

> <Gold.Chemscore.Hbond.Weighted>
-5.4863

> <Gold.Chemscore.Metal.Weighted>
-0.0000

> <Gold.Chemscore.Lipo.Weighted>
-11.1973

> <Gold.Chemscore.Internal_Hbond.Weighted>
0.0000

> <Gold.Chemscore.DEClash.Weighted>
0.0000

> <Gold.Chemscore.DEInternal.Weighted>
3.0143

> <Gold.Chemscore.Rot.Weighted>
3.7112

> <Gold.Chemscore.Internal.Correction.Weighted>
   9.000000E+99

> <Gold.Protein.RotatedTorsions>
[ 6907 6896 6895 6894 ] final -151.93 input  -60.11 | X-H torsion
[ 7974 7965 7964 7962 ] final    5.04 input  175.53 | X-H torsion
[ 8008 7997 7996 7995 ] final -132.80 input   59.86 | X-H torsion
[ 10167 10162 10161 10158 ] final -151.13 input  -65.29 | X-H torsion
[ 10718 10713 10712 10709 ] final -173.94 input   66.30 | X-H torsion
[ 10763 10752 10751 10750 ] final -179.76 input  -60.55 | X-H torsion
[ 11005 11000 10999 10996 ] final  -67.17 input  -57.11 | X-H torsion

> <Gold.Protein.ActiveResidues>
 VAL166  LYS551  ARG553  GLY616  TRP617  ASP618  TYR619  PRO620  LYS621  CYS622 
 ASP623  PHE694  ASN695  SER759  ASP760  ASP761  ALA762  ILE779  LEU786  VAL792 
 PHE793  MET794  SER795  GLU796  ALA797  LYS798  CYS799  TRP800  GLU811  SER814 

> <Gold.Protein.RotatedAtoms>
  151.2203  133.4506  159.2600 H   0  0  0  0  0  0  0  0  0  0  0  0  # atno 6907 bound_to 6896
  151.0891  134.9905  159.8404 H   0  0  0  0  0  0  0  0  0  0  0  0  # atno 6908 bound_to 6896
  152.5432  134.2138  159.8813 H   0  0  0  0  0  0  0  0  0  0  0  0  # atno 6909 bound_to 6896
  146.2442  140.0444  142.8379 H   0  0  0  0  0  0  0  0  0  0  0  0  # atno 7974 bound_to 7965
  155.3348  140.0469  157.3043 H   0  0  0  0  0  0  0  0  0  0  0  0  # atno 8008 bound_to 7997
  154.5308  140.2256  155.8772 H   0  0  0  0  0  0  0  0  0  0  0  0  # atno 8009 bound_to 7997
  156.1787  140.3079  155.9113 H   0  0  0  0  0  0  0  0  0  0  0  0  # atno 8010 bound_to 7997
  139.7294  143.8832  152.2530 H   0  0  0  0  0  0  0  0  0  0  0  0  # atno 10167 bound_to 10162
  156.7778  130.9472  151.3120 H   0  0  0  0  0  0  0  0  0  0  0  0  # atno 10718 bound_to 10713
  154.5309  135.2800  155.1181 H   0  0  0  0  0  0  0  0  0  0  0  0  # atno 10763 bound_to 10752
  154.2701  135.6305  153.5310 H   0  0  0  0  0  0  0  0  0  0  0  0  # atno 10764 bound_to 10752
  152.9957  135.5626  154.5823 H   0  0  0  0  0  0  0  0  0  0  0  0  # atno 10765 bound_to 10752
  141.1501  133.6714  156.6252 H   0  0  0  0  0  0  0  0  0  0  0  0  # atno 11005 bound_to 11000
  145.1040  140.9364  143.4695 LP  0  0  0  0  0  0  0  0  0  0  0  0  # atno 17320 bound_to 7965
  145.0643  139.3081  143.5864 LP  0  0  0  0  0  0  0  0  0  0  0  0  # atno 17321 bound_to 7965
  139.8751  144.7048  150.8942 LP  0  0  0  0  0  0  0  0  0  0  0  0  # atno 17342 bound_to 10162
  140.7768  143.3706  151.1656 LP  0  0  0  0  0  0  0  0  0  0  0  0  # atno 17343 bound_to 10162
  157.6661  130.9008  149.9934 LP  0  0  0  0  0  0  0  0  0  0  0  0  # atno 17370 bound_to 10713
  156.1237  130.3645  149.9845 LP  0  0  0  0  0  0  0  0  0  0  0  0  # atno 17371 bound_to 10713
  140.3510  134.7769  157.4466 LP  0  0  0  0  0  0  0  0  0  0  0  0  # atno 17394 bound_to 11000
  140.0861  134.5665  155.8491 LP  0  0  0  0  0  0  0  0  0  0  0  0  # atno 17395 bound_to 11000

$$$$
