AV-unprocessed.smi:292|AV-procd|sdf|2250|dock8
  -GOLD-   2262022133D 1   1.00000     0.00000
 Structure written by MMmdl.
 33 34  0  0  0  0  0  0  0  0  1 V2000
  147.6521  135.7521  162.1770 N   0  0  0  0  0  0  0  0  0  0  0  0
  148.1654  136.2343  161.2586 C   0  0  0  0  0  0  0  0  0  0  0  0
  148.8102  136.8397  160.1056 C   0  0  0  0  0  0  0  0  0  0  0  0
  148.0909  137.4998  159.1518 N   0  0  0  0  0  0  0  0  0  0  0  0
  149.0880  137.8524  158.3498 C   0  0  0  0  0  0  0  0  0  0  0  0
  150.2921  137.4485  158.7690 N   0  0  0  0  0  0  0  0  0  0  0  0
  151.6060  137.6228  158.1745 C   0  0  0  0  0  0  0  0  0  0  0  0
  151.9893  139.1018  158.0989 C   0  0  0  0  0  0  0  0  0  0  0  0
  152.9874  139.4473  157.4671 O   0  0  0  0  0  0  0  0  0  0  0  0
  151.1864  139.9619  158.7459 N   0  0  0  0  0  0  0  0  0  0  0  0
  151.3838  141.4073  158.8532 C   0  0  1  0  0  0  0  0  0  0  0  0
  152.8495  141.7185  159.2281 C   0  0  0  0  0  0  0  0  0  0  0  0
  153.0458  143.0929  159.8879 C   0  0  0  0  0  0  0  0  0  0  0  0
  152.6862  144.2933  158.9992 C   0  0  0  0  0  0  0  0  0  0  0  0
  151.1924  144.3713  158.6387 C   0  0  0  0  0  0  0  0  0  0  0  0
  150.8264  143.4584  157.5626 N   0  0  0  0  0  0  0  0  0  0  0  0
  150.8899  142.1184  157.5790 C   0  0  0  0  0  0  0  0  0  0  0  0
  150.5634  141.4656  156.5877 O   0  0  0  0  0  0  0  0  0  0  0  0
  150.1290  136.7762  159.9347 N   0  0  0  0  0  0  0  0  0  0  0  0
  148.9384  138.4092  157.4363 H   0  0  0  0  0  0  0  0  0  0  0  0
  152.3347  137.0758  158.7744 H   0  0  0  0  0  0  0  0  0  0  0  0
  151.6179  137.1871  157.1741 H   0  0  0  0  0  0  0  0  0  0  0  0
  150.3909  139.5823  159.2396 H   0  0  0  0  0  0  0  0  0  0  0  0
  150.7395  141.7546  159.6633 H   0  0  0  0  0  0  0  0  0  0  0  0
  153.2130  140.9681  159.9314 H   0  0  0  0  0  0  0  0  0  0  0  0
  153.4888  141.6302  158.3484 H   0  0  0  0  0  0  0  0  0  0  0  0
  152.4672  143.1375  160.8116 H   0  0  0  0  0  0  0  0  0  0  0  0
  154.0900  143.1850  160.1889 H   0  0  0  0  0  0  0  0  0  0  0  0
  152.9546  145.2019  159.5389 H   0  0  0  0  0  0  0  0  0  0  0  0
  153.2961  144.2929  158.0948 H   0  0  0  0  0  0  0  0  0  0  0  0
  150.5655  144.1989  159.5146 H   0  0  0  0  0  0  0  0  0  0  0  0
  150.9612  145.3790  158.2922 H   0  0  0  0  0  0  0  0  0  0  0  0
  150.4963  143.8881  156.7104 H   0  0  0  0  0  0  0  0  0  0  0  0
  1  2  3  0  0  0  0
  2  3  1  0  0  0  0
  3 19  2  0  0  0  0
  3  4  1  0  0  0  0
  4  5  2  0  0  0  0
  5  6  1  0  0  0  0
  5 20  1  0  0  0  0
  6  7  1  0  0  0  0
  6 19  1  0  0  0  0
  7  8  1  0  0  0  0
  7 21  1  0  0  0  0
  7 22  1  0  0  0  0
  8  9  2  0  0  0  0
  8 10  1  0  0  0  0
 10 11  1  0  0  0  0
 10 23  1  0  0  0  0
 11 17  1  0  0  0  0
 11 12  1  0  0  0  0
 11 24  1  0  0  0  0
 12 13  1  0  0  0  0
 12 25  1  0  0  0  0
 12 26  1  0  0  0  0
 13 14  1  0  0  0  0
 13 27  1  0  0  0  0
 13 28  1  0  0  0  0
 14 15  1  0  0  0  0
 14 29  1  0  0  0  0
 14 30  1  0  0  0  0
 15 16  1  0  0  0  0
 15 31  1  0  0  0  0
 15 32  1  0  0  0  0
 16 17  1  0  0  0  0
 16 33  1  0  0  0  0
 17 18  2  0  0  0  0
M  END
> <s_m_source_file>
AV-unprocessed.smi

> <i_m_source_file_index>
292

> <i_lp_mmshare_version>
43012

> <i_f3d_flags>
0

> <s_epik_input>
TiNDYzFuW2NIXW4objEpW0NIMl1DKD1PKVtOSF1bQ0BASF0yW0NIMl1bQ0gyXVtDSDJdW0NIMl1bTkhdQzI9Tw==

> <s_epik_cmdline>
J2VwaWtfcHl0aG9uJywgJy1waCcsICc3LjAnLCAnLXRuJywgJzgnLCAnLW1hJywgJzIwMCcsICctbWV0YWxfYmluZGluZycsICctaW1hZScsICc8aW5maWxlLm1hZT4nLCAnLW9tYWUnLCAnPG91dGZpbGUubWFlPic=

> <r_lp_tautomer_probability>
1

> <r_epik_Ionization_Penalty>
1.99744e-07

> <r_epik_Ionization_Penalty_Charging>
0

> <r_epik_Ionization_Penalty_Neutral>
1.99744e-07

> <r_epik_State_Penalty>
-0

> <r_epik_Charging_Adjusted_Penalty>
0

> <i_epik_Tot_Q>
0

> <i_epik_Tot_abs_Q>
0

> <r_epik_Metal_State_Penalty>
-0

> <b_epik_Metal_Only>
0

> <s_lp_Force_Field>
OPLS_2005

> <r_lp_Energy>
14.2569

> <b_lp_Chiralities_Consistent>
1

> <s_lp_Variant>
AV-unprocessed.smi:292-2

> <Gold.Version>
5.8.1

> <Gold.Id.Protein>
6NUR|6NUR_protein|mol2

> <Gold.PLP.Fitness>
41.3117

> <Gold.PLP.PLP>
-33.2750

> <Gold.PLP.part.hbond>
-3.6120

> <Gold.PLP.part.metal>
0.0000

> <Gold.PLP.part.buried>
-5.8005

> <Gold.PLP.part.nonpolar>
-25.1816

> <Gold.PLP.part.repulsive>
0.2380

> <Gold.PLP.ligand.clash>
0.0000

> <Gold.PLP.ligand.torsion>
0.3245

> <Gold.PLP.Chemscore.Hbond>
2.8858

> <Gold.PLP.Chemscore.CHOScore>
0.0000

> <Gold.PLP.Chemscore.Metal>
0.0000

> <Gold.Chemscore.Hbonds>
donor molecule, donor type, donor heavy atom, donor atom, acceptor molecule, acceptor atom, score
      L1  H    16    33       P1  8028  0.84
      P1  H  6896  6908       L1    19  0.95
      P1  H  7997  8009       L1     9  0.98

> <Gold.PLP.Chemscore.Internal.Correction>
0.0286

> <Gold.Rescore>
     Score         DG    S(hbond)    S(metal)    S(lipo)     H(rot)  DE(clash)    DE(int)     intcor
     13.67     -16.25       2.93        0.00      55.27       2.14       0.00       2.58       ----

> <Gold.Chemscore.Fitness>
13.6679

> <Gold.Chemscore.DG>
-16.2518

> <Gold.Chemscore.ZeroCoef>
-5.4800

> <Gold.Chemscore.Hbond>
2.9325

> <Gold.Chemscore.Metal>
0.0000

> <Gold.Chemscore.Lipo>
55.2723

> <Gold.Chemscore.Internal_Hbond>
0.0000

> <Gold.Chemscore.DEClash>
0.0000

> <Gold.Chemscore.DEInternal>
2.5839

> <Gold.Chemscore.Rot>
2.1444

> <Gold.Chemscore.Internal.Correction>
   9.000000E+99

> <Gold.Chemscore.Hbonds>
donor molecule, donor type, donor heavy atom, donor atom, acceptor molecule, acceptor atom, score
      L1  H    16    33       P1  8028  0.79
      P1  H  6896  6908       L1    19  0.53
      P1  H  7997  8009       L1     9  0.93

> <Gold.Chemscore.Hbond.Weighted>
-9.7945

> <Gold.Chemscore.Metal.Weighted>
-0.0000

> <Gold.Chemscore.Lipo.Weighted>
-6.4669

> <Gold.Chemscore.Internal_Hbond.Weighted>
0.0000

> <Gold.Chemscore.DEClash.Weighted>
0.0000

> <Gold.Chemscore.DEInternal.Weighted>
2.5839

> <Gold.Chemscore.Rot.Weighted>
5.4896

> <Gold.Chemscore.Internal.Correction.Weighted>
   9.000000E+99

> <Gold.Protein.RotatedTorsions>
[ 6907 6896 6895 6894 ] final -170.93 input  -60.11 | X-H torsion
[ 7974 7965 7964 7962 ] final   67.04 input  175.53 | X-H torsion
[ 8008 7997 7996 7995 ] final -169.08 input   59.86 | X-H torsion
[ 10167 10162 10161 10158 ] final -165.91 input  -65.29 | X-H torsion
[ 10718 10713 10712 10709 ] final  104.65 input   66.30 | X-H torsion
[ 10763 10752 10751 10750 ] final  -90.01 input  -60.55 | X-H torsion
[ 11005 11000 10999 10996 ] final  -22.81 input  -57.11 | X-H torsion

> <Gold.Protein.ActiveResidues>
 VAL166  LYS551  ARG553  GLY616  TRP617  ASP618  TYR619  PRO620  LYS621  CYS622 
 ASP623  PHE694  ASN695  SER759  ASP760  ASP761  ALA762  ILE779  LEU786  VAL792 
 PHE793  MET794  SER795  GLU796  ALA797  LYS798  CYS799  TRP800  GLU811  SER814 

> <Gold.Protein.RotatedAtoms>
  151.5157  133.3476  159.2892 H   0  0  0  0  0  0  0  0  0  0  0  0  # atno 6907 bound_to 6896
  150.8684  134.8055  159.7147 H   0  0  0  0  0  0  0  0  0  0  0  0  # atno 6908 bound_to 6896
  152.4681  134.5037  159.9784 H   0  0  0  0  0  0  0  0  0  0  0  0  # atno 6909 bound_to 6896
  145.8194  139.3076  143.1052 H   0  0  0  0  0  0  0  0  0  0  0  0  # atno 7974 bound_to 7965
  155.9001  140.1039  157.1356 H   0  0  0  0  0  0  0  0  0  0  0  0  # atno 8008 bound_to 7997
  154.4025  140.1294  156.4489 H   0  0  0  0  0  0  0  0  0  0  0  0  # atno 8009 bound_to 7997
  155.7433  140.3466  155.5117 H   0  0  0  0  0  0  0  0  0  0  0  0  # atno 8010 bound_to 7997
  139.6150  144.0737  152.1879 H   0  0  0  0  0  0  0  0  0  0  0  0  # atno 10167 bound_to 10162
  157.6733  131.0809  150.5738 H   0  0  0  0  0  0  0  0  0  0  0  0  # atno 10718 bound_to 10713
  154.6613  135.5320  153.8021 H   0  0  0  0  0  0  0  0  0  0  0  0  # atno 10763 bound_to 10752
  153.0443  135.6506  154.0868 H   0  0  0  0  0  0  0  0  0  0  0  0  # atno 10764 bound_to 10752
  154.0776  135.2949  155.3276 H   0  0  0  0  0  0  0  0  0  0  0  0  # atno 10765 bound_to 10752
  140.8692  133.7733  156.0166 H   0  0  0  0  0  0  0  0  0  0  0  0  # atno 11005 bound_to 11000
  145.9691  140.8775  143.0172 LP  0  0  0  0  0  0  0  0  0  0  0  0  # atno 17320 bound_to 7965
  144.6749  140.1920  143.7395 LP  0  0  0  0  0  0  0  0  0  0  0  0  # atno 17321 bound_to 7965
  140.0365  144.6040  150.7445 LP  0  0  0  0  0  0  0  0  0  0  0  0  # atno 17342 bound_to 10162
  140.7345  143.2729  151.3830 LP  0  0  0  0  0  0  0  0  0  0  0  0  # atno 17343 bound_to 10162
  156.6039  130.4362  149.5886 LP  0  0  0  0  0  0  0  0  0  0  0  0  # atno 17370 bound_to 10713
  156.2484  130.6892  151.1622 LP  0  0  0  0  0  0  0  0  0  0  0  0  # atno 17371 bound_to 10713
  140.8593  134.2860  157.5241 LP  0  0  0  0  0  0  0  0  0  0  0  0  # atno 17394 bound_to 11000
  139.8711  134.9509  156.4070 LP  0  0  0  0  0  0  0  0  0  0  0  0  # atno 17395 bound_to 11000

$$$$
