AV-unprocessed.smi:2896|AV-procd|sdf|11138|dock9
  -GOLD-   2272016 13D 1   1.00000     0.00000
 Structure written by MMmdl.
 49 50  0  0  0  0  0  0  0  0  1 V2000
  150.4530  140.1181  155.0834 C   0  0  0  0  0  0  0  0  0  0  0  0
  150.5645  140.6659  156.5175 C   0  0  2  0  0  0  0  0  0  0  0  0
  149.2482  140.4947  157.3094 C   0  0  0  0  0  0  0  0  0  0  0  0
  148.9348  139.0924  157.5687 N   0  0  0  0  0  0  0  0  0  0  0  0
  147.7207  138.5962  157.8642 C   0  0  0  0  0  0  0  0  0  0  0  0
  146.7226  139.3126  157.9568 O   0  0  0  0  0  0  0  0  0  0  0  0
  147.5959  137.0706  158.1112 C   0  0  0  0  0  0  0  0  0  0  0  0
  146.6553  136.4881  157.0265 C   0  0  0  0  0  0  0  0  0  0  0  0
  148.9541  136.3370  157.9674 C   0  0  0  0  0  0  0  0  0  0  0  0
  147.0563  136.8757  159.5413 C   0  0  0  0  0  0  0  0  0  0  0  0
  147.8357  136.2063  160.5161 C   0  0  0  0  0  0  0  0  0  0  0  0
  147.3283  136.0368  161.8178 C   0  0  0  0  0  0  0  0  0  0  0  0
  146.0485  136.5443  162.1074 C   0  0  0  0  0  0  0  0  0  0  0  0
  145.2867  137.1847  161.1977 N   0  0  0  0  0  0  0  0  0  0  0  0
  145.7823  137.3439  159.9517 C   0  0  0  0  0  0  0  0  0  0  0  0
  151.0036  142.1466  156.4743 C   0  0  0  0  0  0  0  0  0  0  0  0
  151.2377  142.7855  157.7709 N   0  0  0  0  0  0  0  0  0  0  0  0
  151.9940  141.9405  158.6932 C   0  0  0  0  0  0  0  0  0  0  0  0
  152.2508  142.6447  160.0371 C   0  0  0  0  0  0  0  0  0  0  0  0
  152.9223  143.8797  159.8121 O   0  0  0  0  0  0  0  0  0  0  0  0
  152.1932  144.7512  158.9545 C   0  0  0  0  0  0  0  0  0  0  0  0
  151.9409  144.0536  157.6070 C   0  0  0  0  0  0  0  0  0  0  0  0
  149.6502  140.6103  154.5333 H   0  0  0  0  0  0  0  0  0  0  0  0
  150.2542  139.0464  155.0751 H   0  0  0  0  0  0  0  0  0  0  0  0
  151.3792  140.2743  154.5297 H   0  0  0  0  0  0  0  0  0  0  0  0
  151.3403  140.0813  157.0111 H   0  0  0  0  0  0  0  0  0  0  0  0
  149.3335  140.9813  158.2812 H   0  0  0  0  0  0  0  0  0  0  0  0
  148.4269  140.9966  156.7952 H   0  0  0  0  0  0  0  0  0  0  0  0
  149.7050  138.4414  157.5163 H   0  0  0  0  0  0  0  0  0  0  0  0
  145.6632  136.9414  157.0451 H   0  0  0  0  0  0  0  0  0  0  0  0
  146.5273  135.4116  157.1462 H   0  0  0  0  0  0  0  0  0  0  0  0
  147.0593  136.6500  156.0260 H   0  0  0  0  0  0  0  0  0  0  0  0
  149.7037  136.6905  158.6759 H   0  0  0  0  0  0  0  0  0  0  0  0
  149.3698  136.4568  156.9658 H   0  0  0  0  0  0  0  0  0  0  0  0
  148.8362  135.2666  158.1403 H   0  0  0  0  0  0  0  0  0  0  0  0
  148.8178  135.8268  160.2758 H   0  0  0  0  0  0  0  0  0  0  0  0
  147.9073  135.5313  162.5764 H   0  0  0  0  0  0  0  0  0  0  0  0
  145.6264  136.4335  163.0952 H   0  0  0  0  0  0  0  0  0  0  0  0
  145.1203  137.8635  159.2769 H   0  0  0  0  0  0  0  0  0  0  0  0
  151.9049  142.2372  155.8661 H   0  0  0  0  0  0  0  0  0  0  0  0
  150.2322  142.7039  155.9407 H   0  0  0  0  0  0  0  0  0  0  0  0
  151.4564  141.0137  158.8886 H   0  0  0  0  0  0  0  0  0  0  0  0
  152.9479  141.6618  158.2432 H   0  0  0  0  0  0  0  0  0  0  0  0
  151.3122  142.8245  160.5637 H   0  0  0  0  0  0  0  0  0  0  0  0
  152.8651  142.0171  160.6827 H   0  0  0  0  0  0  0  0  0  0  0  0
  151.2508  145.0336  159.4262 H   0  0  0  0  0  0  0  0  0  0  0  0
  152.7654  145.6669  158.8064 H   0  0  0  0  0  0  0  0  0  0  0  0
  152.8953  143.8852  157.1057 H   0  0  0  0  0  0  0  0  0  0  0  0
  151.3631  144.7171  156.9626 H   0  0  0  0  0  0  0  0  0  0  0  0
  1  2  1  0  0  0  0
  1 23  1  0  0  0  0
  1 24  1  0  0  0  0
  1 25  1  0  0  0  0
  2  3  1  0  0  0  0
  2 16  1  0  0  0  0
  2 26  1  0  0  0  0
  3  4  1  0  0  0  0
  3 27  1  0  0  0  0
  3 28  1  0  0  0  0
  4  5  1  0  0  0  0
  4 29  1  0  0  0  0
  5  6  2  0  0  0  0
  5  7  1  0  0  0  0
  7  8  1  0  0  0  0
  7  9  1  0  0  0  0
  7 10  1  0  0  0  0
  8 30  1  0  0  0  0
  8 31  1  0  0  0  0
  8 32  1  0  0  0  0
  9 33  1  0  0  0  0
  9 34  1  0  0  0  0
  9 35  1  0  0  0  0
 10 15  1  0  0  0  0
 10 11  2  0  0  0  0
 11 12  1  0  0  0  0
 11 36  1  0  0  0  0
 12 13  2  0  0  0  0
 12 37  1  0  0  0  0
 13 14  1  0  0  0  0
 13 38  1  0  0  0  0
 14 15  2  0  0  0  0
 15 39  1  0  0  0  0
 16 17  1  0  0  0  0
 16 40  1  0  0  0  0
 16 41  1  0  0  0  0
 17 22  1  0  0  0  0
 17 18  1  0  0  0  0
 18 19  1  0  0  0  0
 18 42  1  0  0  0  0
 18 43  1  0  0  0  0
 19 20  1  0  0  0  0
 19 44  1  0  0  0  0
 19 45  1  0  0  0  0
 20 21  1  0  0  0  0
 21 22  1  0  0  0  0
 21 46  1  0  0  0  0
 21 47  1  0  0  0  0
 22 48  1  0  0  0  0
 22 49  1  0  0  0  0
M  END
> <s_m_source_file>
AV-unprocessed.smi

> <i_m_source_file_index>
2896

> <i_lp_mmshare_version>
43012

> <i_f3d_flags>
0

> <s_epik_input>
W0NIMl0xW0NIMl1PW0NIMl1bQ0gyXU4xW0NIMl1bQ0BIXShbQ0gzXSlbQ0gyXVtOSF1DKD1PKUMoW0NIM10pKFtDSDNdKWMyW2NIXVtjSF1bY0hdbltjSF0y

> <s_epik_cmdline>
J2VwaWtfcHl0aG9uJywgJy1waCcsICc3LjAnLCAnLXRuJywgJzgnLCAnLW1hJywgJzIwMCcsICctbWV0YWxfYmluZGluZycsICctaW1hZScsICc8aW5maWxlLm1hZT4nLCAnLW9tYWUnLCAnPG91dGZpbGUubWFlPic=

> <r_epik_Ionization_Penalty>
0.458454

> <r_epik_Ionization_Penalty_Charging>
0

> <r_epik_Ionization_Penalty_Neutral>
0.458454

> <r_epik_State_Penalty>
0.453234

> <r_epik_Charging_Adjusted_Penalty>
0.453234

> <i_epik_Tot_Q>
0

> <i_epik_Tot_abs_Q>
0

> <r_epik_Metal_State_Penalty>
0.448418

> <b_epik_Metal_Only>
0

> <s_lp_Force_Field>
OPLS_2005

> <r_lp_Energy>
34.6302

> <b_lp_Chiralities_Consistent>
1

> <s_lp_Variant>
AV-unprocessed.smi:2896-3

> <Gold.Version>
5.8.1

> <Gold.Id.Protein>
6NUR|6NUR_protein|mol2

> <Gold.PLP.Fitness>
36.1268

> <Gold.PLP.PLP>
-36.7297

> <Gold.PLP.part.hbond>
-0.9378

> <Gold.PLP.part.metal>
0.0000

> <Gold.PLP.part.buried>
-4.3724

> <Gold.PLP.part.nonpolar>
-31.8761

> <Gold.PLP.part.repulsive>
0.2212

> <Gold.PLP.ligand.clash>
0.0000

> <Gold.PLP.ligand.torsion>
0.3498

> <Gold.PLP.Chemscore.Hbond>
0.0000

> <Gold.PLP.Chemscore.CHOScore>
0.0000

> <Gold.PLP.Chemscore.Metal>
0.0000

> <Gold.PLP.Chemscore.Internal.Correction>
0.0968

> <Gold.Rescore>
     Score         DG    S(hbond)    S(metal)    S(lipo)     H(rot)  DE(clash)    DE(int)     intcor
     12.73     -14.22       0.00        0.00     111.55       1.68       0.05       1.45       ----

> <Gold.Chemscore.Fitness>
12.7276

> <Gold.Chemscore.DG>
-14.2224

> <Gold.Chemscore.ZeroCoef>
-5.4800

> <Gold.Chemscore.Hbond>
0.0000

> <Gold.Chemscore.Metal>
0.0000

> <Gold.Chemscore.Lipo>
111.5505

> <Gold.Chemscore.Internal_Hbond>
0.0000

> <Gold.Chemscore.DEClash>
0.0468

> <Gold.Chemscore.DEInternal>
1.4480

> <Gold.Chemscore.Rot>
1.6832

> <Gold.Chemscore.Internal.Correction>
   9.000000E+99

> <Gold.Chemscore.Hbond.Weighted>
-0.0000

> <Gold.Chemscore.Metal.Weighted>
-0.0000

> <Gold.Chemscore.Lipo.Weighted>
-13.0514

> <Gold.Chemscore.Internal_Hbond.Weighted>
0.0000

> <Gold.Chemscore.DEClash.Weighted>
0.0468

> <Gold.Chemscore.DEInternal.Weighted>
1.4480

> <Gold.Chemscore.Rot.Weighted>
4.3090

> <Gold.Chemscore.Internal.Correction.Weighted>
   9.000000E+99

> <Gold.Protein.RotatedTorsions>
[ 6907 6896 6895 6894 ] final  -92.51 input  -60.11 | X-H torsion
[ 7974 7965 7964 7962 ] final -147.52 input  175.53 | X-H torsion
[ 8008 7997 7996 7995 ] final -116.08 input   59.86 | X-H torsion
[ 10167 10162 10161 10158 ] final   83.86 input  -65.29 | X-H torsion
[ 10718 10713 10712 10709 ] final  -14.35 input   66.30 | X-H torsion
[ 10763 10752 10751 10750 ] final  145.96 input  -60.55 | X-H torsion
[ 11005 11000 10999 10996 ] final  132.76 input  -57.11 | X-H torsion

> <Gold.Protein.ActiveResidues>
 VAL166  LYS551  ARG553  GLY616  TRP617  ASP618  TYR619  PRO620  LYS621  CYS622 
 ASP623  PHE694  ASN695  SER759  ASP760  ASP761  ALA762  ILE779  LEU786  VAL792 
 PHE793  MET794  SER795  GLU796  ALA797  LYS798  CYS799  TRP800  GLU811  SER814 

> <Gold.Protein.RotatedAtoms>
  150.6907  134.2112  159.4359 H   0  0  0  0  0  0  0  0  0  0  0  0  # atno 6907 bound_to 6896
  152.0073  134.9893  160.0576 H   0  0  0  0  0  0  0  0  0  0  0  0  # atno 6908 bound_to 6896
  152.1522  133.4494  159.4856 H   0  0  0  0  0  0  0  0  0  0  0  0  # atno 6909 bound_to 6896
  144.8088  140.5317  143.5656 H   0  0  0  0  0  0  0  0  0  0  0  0  # atno 7974 bound_to 7965
  155.0621  140.0393  157.2580 H   0  0  0  0  0  0  0  0  0  0  0  0  # atno 8008 bound_to 7997
  154.7051  140.2681  155.6658 H   0  0  0  0  0  0  0  0  0  0  0  0  # atno 8009 bound_to 7997
  156.2772  140.2733  156.1674 H   0  0  0  0  0  0  0  0  0  0  0  0  # atno 8010 bound_to 7997
  139.9140  144.6254  150.8507 H   0  0  0  0  0  0  0  0  0  0  0  0  # atno 10167 bound_to 10162
  156.6172  130.4865  149.6178 H   0  0  0  0  0  0  0  0  0  0  0  0  # atno 10718 bound_to 10713
  154.0140  135.2912  155.3389 H   0  0  0  0  0  0  0  0  0  0  0  0  # atno 10763 bound_to 10752
  154.7086  135.5159  153.8635 H   0  0  0  0  0  0  0  0  0  0  0  0  # atno 10764 bound_to 10752
  153.0710  135.6648  154.0369 H   0  0  0  0  0  0  0  0  0  0  0  0  # atno 10765 bound_to 10752
  139.9810  134.9548  156.9629 H   0  0  0  0  0  0  0  0  0  0  0  0  # atno 11005 bound_to 11000
  145.5373  139.1475  143.3466 LP  0  0  0  0  0  0  0  0  0  0  0  0  # atno 17320 bound_to 7965
  146.2384  140.5513  142.8945 LP  0  0  0  0  0  0  0  0  0  0  0  0  # atno 17321 bound_to 7965
  140.7678  143.3344  151.2340 LP  0  0  0  0  0  0  0  0  0  0  0  0  # atno 17342 bound_to 10162
  139.6918  143.9680  152.2863 LP  0  0  0  0  0  0  0  0  0  0  0  0  # atno 17343 bound_to 10162
  156.2341  130.6812  151.1492 LP  0  0  0  0  0  0  0  0  0  0  0  0  # atno 17370 bound_to 10713
  157.7238  131.0664  150.6023 LP  0  0  0  0  0  0  0  0  0  0  0  0  # atno 17371 bound_to 10713
  140.5097  134.1015  155.7267 LP  0  0  0  0  0  0  0  0  0  0  0  0  # atno 17394 bound_to 11000
  141.1482  133.9017  157.2164 LP  0  0  0  0  0  0  0  0  0  0  0  0  # atno 17395 bound_to 11000

$$$$
