AV-unprocessed.smi:197|AV-procd|sdf|1546|dock9
  -GOLD-   2262019403D 1   1.00000     0.00000
 Structure written by MMmdl.
 54 57  0  0  0  0  0  0  0  0  1 V2000
  151.1175  145.2543  159.8566 C   0  0  0  0  0  0  0  0  0  0  0  0
  151.8106  144.2336  160.5576 O   0  0  0  0  0  0  0  0  0  0  0  0
  152.6705  143.4433  159.7463 C   0  0  0  0  0  0  0  0  0  0  0  0
  153.1801  142.1829  160.4718 C   0  0  0  0  0  0  0  0  0  0  0  0
  153.7117  141.0696  159.5301 C   0  0  2  0  0  0  0  0  0  0  0  0
  152.6392  140.6435  158.4995 C   0  0  0  0  0  0  0  0  0  0  0  0
  153.1333  139.6023  157.6642 O   0  0  0  0  0  0  0  0  0  0  0  0
  153.4647  138.4368  158.4068 C   0  0  0  0  0  0  0  0  0  0  0  0
  154.5780  138.7819  159.4046 C   0  0  0  0  0  0  0  0  0  0  0  0
  154.1598  139.8806  160.2673 N   0  0  0  0  0  0  0  0  0  0  0  0
  155.0594  140.0801  161.2567 C   0  0  0  0  0  0  0  0  0  0  0  0
  155.6665  141.2912  161.2994 N   0  0  0  0  0  0  0  0  0  0  0  0
  156.5765  141.5492  162.2432 C   0  0  0  0  0  0  0  0  0  0  0  0
  157.0166  140.7521  163.2191 N   0  0  0  0  0  0  0  0  0  0  0  0
  156.4016  139.5351  163.1826 C   0  0  0  0  0  0  0  0  0  0  0  0
  155.4117  139.1203  162.2482 C   0  0  0  0  0  0  0  0  0  0  0  0
  155.0059  137.8225  162.5336 N   0  0  0  0  0  0  0  0  0  0  0  0
  155.7279  137.4828  163.5659 C   0  0  0  0  0  0  0  0  0  0  0  0
  156.6015  138.4475  164.0149 N   0  0  0  0  0  0  0  0  0  0  0  0
  157.5249  138.3307  165.1331 C   0  0  0  0  0  0  0  0  0  0  0  0
  158.6157  137.2511  164.9251 C   0  0  2  0  0  0  0  0  0  0  0  0
  159.2380  137.4819  163.6718 O   0  0  0  0  0  0  0  0  0  0  0  0
  158.0293  135.8349  164.9134 C   0  0  0  0  0  0  0  0  0  0  0  0
  158.5820  135.1914  166.1800 C   0  0  0  0  0  0  0  0  0  0  0  0
  159.8466  135.8116  166.3238 O   0  0  0  0  0  0  0  0  0  0  0  0
  159.6571  137.1961  166.0732 C   0  0  1  0  0  0  0  0  0  0  0  0
  161.0061  137.8948  165.8365 C   0  0  0  0  0  0  0  0  0  0  0  0
  150.5466  145.8556  160.5639 H   0  0  0  0  0  0  0  0  0  0  0  0
  150.4132  144.8417  159.1362 H   0  0  0  0  0  0  0  0  0  0  0  0
  151.8073  145.9176  159.3339 H   0  0  0  0  0  0  0  0  0  0  0  0
  152.1634  143.1681  158.8203 H   0  0  0  0  0  0  0  0  0  0  0  0
  153.5133  144.0650  159.4461 H   0  0  0  0  0  0  0  0  0  0  0  0
  153.9507  142.4936  161.1763 H   0  0  0  0  0  0  0  0  0  0  0  0
  152.3761  141.7790  161.0878 H   0  0  0  0  0  0  0  0  0  0  0  0
  154.5633  141.4606  158.9740 H   0  0  0  0  0  0  0  0  0  0  0  0
  151.7250  140.3168  158.9978 H   0  0  0  0  0  0  0  0  0  0  0  0
  152.3689  141.4790  157.8552 H   0  0  0  0  0  0  0  0  0  0  0  0
  152.5829  138.0511  158.9207 H   0  0  0  0  0  0  0  0  0  0  0  0
  153.8011  137.6602  157.7200 H   0  0  0  0  0  0  0  0  0  0  0  0
  154.8190  137.9034  160.0054 H   0  0  0  0  0  0  0  0  0  0  0  0
  155.4842  139.0629  158.8659 H   0  0  0  0  0  0  0  0  0  0  0  0
  157.0178  142.5342  162.2098 H   0  0  0  0  0  0  0  0  0  0  0  0
  155.6487  136.5091  164.0270 H   0  0  0  0  0  0  0  0  0  0  0  0
  157.9877  139.3045  165.2996 H   0  0  0  0  0  0  0  0  0  0  0  0
  156.9444  138.1138  166.0310 H   0  0  0  0  0  0  0  0  0  0  0  0
  159.7237  138.2908  163.7256 H   0  0  0  0  0  0  0  0  0  0  0  0
  156.9392  135.8163  164.8897 H   0  0  0  0  0  0  0  0  0  0  0  0
  158.3799  135.2699  164.0479 H   0  0  0  0  0  0  0  0  0  0  0  0
  157.9569  135.4250  167.0433 H   0  0  0  0  0  0  0  0  0  0  0  0
  158.6698  134.1077  166.0996 H   0  0  0  0  0  0  0  0  0  0  0  0
  159.2124  137.6054  166.9810 H   0  0  0  0  0  0  0  0  0  0  0  0
  160.8683  138.9574  165.6406 H   0  0  0  0  0  0  0  0  0  0  0  0
  161.5450  137.4612  164.9941 H   0  0  0  0  0  0  0  0  0  0  0  0
  161.6448  137.8035  166.7151 H   0  0  0  0  0  0  0  0  0  0  0  0
  1  2  1  0  0  0  0
  1 28  1  0  0  0  0
  1 29  1  0  0  0  0
  1 30  1  0  0  0  0
  2  3  1  0  0  0  0
  3  4  1  0  0  0  0
  3 31  1  0  0  0  0
  3 32  1  0  0  0  0
  4  5  1  0  0  0  0
  4 33  1  0  0  0  0
  4 34  1  0  0  0  0
  5 10  1  0  0  0  0
  5  6  1  0  0  0  0
  5 35  1  0  0  0  0
  6  7  1  0  0  0  0
  6 36  1  0  0  0  0
  6 37  1  0  0  0  0
  7  8  1  0  0  0  0
  8  9  1  0  0  0  0
  8 38  1  0  0  0  0
  8 39  1  0  0  0  0
  9 10  1  0  0  0  0
  9 40  1  0  0  0  0
  9 41  1  0  0  0  0
 10 11  1  0  0  0  0
 11 16  1  0  0  0  0
 11 12  2  0  0  0  0
 12 13  1  0  0  0  0
 13 14  2  0  0  0  0
 13 42  1  0  0  0  0
 14 15  1  0  0  0  0
 15 19  1  0  0  0  0
 15 16  2  0  0  0  0
 16 17  1  0  0  0  0
 17 18  2  0  0  0  0
 18 19  1  0  0  0  0
 18 43  1  0  0  0  0
 19 20  1  0  0  0  0
 20 21  1  0  0  0  0
 20 44  1  0  0  0  0
 20 45  1  0  0  0  0
 21 26  1  0  0  0  0
 21 22  1  0  0  0  0
 21 23  1  0  0  0  0
 22 46  1  0  0  0  0
 23 24  1  0  0  0  0
 23 47  1  0  0  0  0
 23 48  1  0  0  0  0
 24 25  1  0  0  0  0
 24 49  1  0  0  0  0
 24 50  1  0  0  0  0
 25 26  1  0  0  0  0
 26 27  1  0  0  0  0
 26 51  1  0  0  0  0
 27 52  1  0  0  0  0
 27 53  1  0  0  0  0
 27 54  1  0  0  0  0
M  END
> <s_m_source_file>
AV-unprocessed.smi

> <i_m_source_file_index>
197

> <i_lp_mmshare_version>
43012

> <i_f3d_flags>
0

> <s_epik_input>
W0NIM11PW0NIMl1bQ0gyXVtDQEBIXTFbQ0gyXU9bQ0gyXVtDSDJdTjFjKG5bY0hdbjIpYyhjMjMpbltjSF1uM1tDSDJdW0NAQF00KFtPSF0pW0NIMl1bQ0gyXU9bQ0BIXTRbQ0gzXQ==

> <s_epik_cmdline>
J2VwaWtfcHl0aG9uJywgJy1waCcsICc3LjAnLCAnLXRuJywgJzgnLCAnLW1hJywgJzIwMCcsICctbWV0YWxfYmluZGluZycsICctaW1hZScsICc8aW5maWxlLm1hZT4nLCAnLW9tYWUnLCAnPG91dGZpbGUubWFlPic=

> <r_lp_tautomer_probability>
1

> <r_epik_Ionization_Penalty>
0.000106218

> <r_epik_Ionization_Penalty_Charging>
0

> <r_epik_Ionization_Penalty_Neutral>
0.000106218

> <r_epik_State_Penalty>
-0

> <r_epik_Charging_Adjusted_Penalty>
0

> <i_epik_Tot_Q>
0

> <i_epik_Tot_abs_Q>
0

> <r_epik_Metal_State_Penalty>
-0

> <b_epik_Metal_Only>
0

> <s_lp_Force_Field>
OPLS_2005

> <r_lp_Energy>
42.2513

> <b_lp_Chiralities_Consistent>
1

> <s_lp_Variant>
AV-unprocessed.smi:197-3

> <Gold.Version>
5.8.1

> <Gold.Id.Protein>
6NUR|6NUR_protein|mol2

> <Gold.PLP.Fitness>
38.4128

> <Gold.PLP.PLP>
-35.8007

> <Gold.PLP.part.hbond>
-1.8978

> <Gold.PLP.part.metal>
0.0000

> <Gold.PLP.part.buried>
-2.0768

> <Gold.PLP.part.nonpolar>
-31.8187

> <Gold.PLP.part.repulsive>
0.1715

> <Gold.PLP.ligand.clash>
0.0000

> <Gold.PLP.ligand.torsion>
0.3276

> <Gold.PLP.Chemscore.Hbond>
1.0000

> <Gold.PLP.Chemscore.CHOScore>
0.0000

> <Gold.PLP.Chemscore.Metal>
0.0000

> <Gold.Chemscore.Hbonds>
donor molecule, donor type, donor heavy atom, donor atom, acceptor molecule, acceptor atom, score
      P1  H  7997  8010       L1     7  1.00

> <Gold.PLP.Chemscore.Internal.Correction>
0.2674

> <Gold.Rescore>
     Score         DG    S(hbond)    S(metal)    S(lipo)     H(rot)  DE(clash)    DE(int)     intcor
      7.31     -10.73       0.67        0.00      87.71       2.84       1.48       1.94       ----

> <Gold.Chemscore.Fitness>
7.3069

> <Gold.Chemscore.DG>
-10.7293

> <Gold.Chemscore.ZeroCoef>
-5.4800

> <Gold.Chemscore.Hbond>
0.6728

> <Gold.Chemscore.Metal>
0.0000

> <Gold.Chemscore.Lipo>
87.7064

> <Gold.Chemscore.Internal_Hbond>
0.0000

> <Gold.Chemscore.DEClash>
1.4839

> <Gold.Chemscore.DEInternal>
1.9385

> <Gold.Chemscore.Rot>
2.8358

> <Gold.Chemscore.Internal.Correction>
   9.000000E+99

> <Gold.Chemscore.Hbonds>
donor molecule, donor type, donor heavy atom, donor atom, acceptor molecule, acceptor atom, score
      P1  H  7997  8010       L1     7  0.39

> <Gold.Chemscore.Hbond.Weighted>
-2.2472

> <Gold.Chemscore.Metal.Weighted>
-0.0000

> <Gold.Chemscore.Lipo.Weighted>
-10.2617

> <Gold.Chemscore.Internal_Hbond.Weighted>
0.0000

> <Gold.Chemscore.DEClash.Weighted>
1.4839

> <Gold.Chemscore.DEInternal.Weighted>
1.9385

> <Gold.Chemscore.Rot.Weighted>
7.2596

> <Gold.Chemscore.Internal.Correction.Weighted>
   9.000000E+99

> <Gold.Protein.RotatedTorsions>
[ 6907 6896 6895 6894 ] final   63.55 input  -60.11 | X-H torsion
[ 7974 7965 7964 7962 ] final  152.68 input  175.53 | X-H torsion
[ 8008 7997 7996 7995 ] final   41.26 input   59.86 | X-H torsion
[ 10167 10162 10161 10158 ] final   51.48 input  -65.29 | X-H torsion
[ 10718 10713 10712 10709 ] final  -99.08 input   66.30 | X-H torsion
[ 10763 10752 10751 10750 ] final -158.28 input  -60.55 | X-H torsion
[ 11005 11000 10999 10996 ] final  151.15 input  -57.11 | X-H torsion

> <Gold.Protein.ActiveResidues>
 VAL166  LYS551  ARG553  GLY616  TRP617  ASP618  TYR619  PRO620  LYS621  CYS622 
 ASP623  PHE694  ASN695  SER759  ASP760  ASP761  ALA762  ILE779  LEU786  VAL792 
 PHE793  MET794  SER795  GLU796  ALA797  LYS798  CYS799  TRP800  GLU811  SER814 

> <Gold.Protein.RotatedAtoms>
  152.4261  134.5865  159.9962 H   0  0  0  0  0  0  0  0  0  0  0  0  # atno 6907 bound_to 6896
  151.6001  133.3351  159.3053 H   0  0  0  0  0  0  0  0  0  0  0  0  # atno 6908 bound_to 6896
  150.8151  134.7365  159.6788 H   0  0  0  0  0  0  0  0  0  0  0  0  # atno 6909 bound_to 6896
  144.8206  139.6700  143.6102 H   0  0  0  0  0  0  0  0  0  0  0  0  # atno 7974 bound_to 7965
  155.2666  140.3363  155.4268 H   0  0  0  0  0  0  0  0  0  0  0  0  # atno 8008 bound_to 7997
  156.2151  140.1786  156.7649 H   0  0  0  0  0  0  0  0  0  0  0  0  # atno 8009 bound_to 7997
  154.5742  140.0665  156.8994 H   0  0  0  0  0  0  0  0  0  0  0  0  # atno 8010 bound_to 7997
  140.2615  144.3367  150.6316 H   0  0  0  0  0  0  0  0  0  0  0  0  # atno 10167 bound_to 10162
  156.0124  130.5266  150.6617 H   0  0  0  0  0  0  0  0  0  0  0  0  # atno 10718 bound_to 10713
  154.7569  135.3107  154.8453 H   0  0  0  0  0  0  0  0  0  0  0  0  # atno 10763 bound_to 10752
  153.9225  135.6794  153.4751 H   0  0  0  0  0  0  0  0  0  0  0  0  # atno 10764 bound_to 10752
  153.1167  135.4841  154.9057 H   0  0  0  0  0  0  0  0  0  0  0  0  # atno 10765 bound_to 10752
  140.1194  134.8873  157.2050 H   0  0  0  0  0  0  0  0  0  0  0  0  # atno 11005 bound_to 11000
  146.2511  139.6202  142.9426 LP  0  0  0  0  0  0  0  0  0  0  0  0  # atno 17320 bound_to 7965
  145.5114  141.0435  143.2486 LP  0  0  0  0  0  0  0  0  0  0  0  0  # atno 17321 bound_to 7965
  140.5962  143.2167  151.7160 LP  0  0  0  0  0  0  0  0  0  0  0  0  # atno 17342 bound_to 10162
  139.5015  144.3864  152.0325 LP  0  0  0  0  0  0  0  0  0  0  0  0  # atno 17343 bound_to 10162
  157.4358  131.0855  151.0993 LP  0  0  0  0  0  0  0  0  0  0  0  0  # atno 17370 bound_to 10713
  157.1552  130.6201  149.5594 LP  0  0  0  0  0  0  0  0  0  0  0  0  # atno 17371 bound_to 10713
  140.2985  134.3158  155.7296 LP  0  0  0  0  0  0  0  0  0  0  0  0  # atno 17394 bound_to 11000
  141.2148  133.7578  156.9607 LP  0  0  0  0  0  0  0  0  0  0  0  0  # atno 17395 bound_to 11000

$$$$
