AV-unprocessed.smi:2801|AV-procd|sdf|10801|dock5
  -GOLD-   2272015233D 1   1.00000     0.00000
 Structure written by MMmdl.
 31 31  0  0  0  0  0  0  0  0  2 V2000
  152.9658  142.6526  162.1486 C   0  0  0  0  0  0  0  0  0  0  0  0
  152.7995  143.4927  160.8807 C   0  0  0  0  0  0  0  0  0  0  0  0
  152.0051  142.7628  159.9532 O   0  0  0  0  0  0  0  0  0  0  0  0
  152.3469  142.9436  158.5804 C   0  0  2  0  0  0  0  0  0  0  0  0
  152.4114  144.4579  158.3048 C   0  0  0  0  0  0  0  0  0  0  0  0
  151.2229  145.2219  158.9018 C   0  0  0  0  0  0  0  0  0  0  0  0
  151.3047  142.2581  157.6808 C   0  0  0  0  0  0  0  0  0  0  0  0
  150.1206  142.5827  157.7691 O   0  0  0  0  0  0  0  0  0  0  0  0
  151.7850  141.3045  156.8620 N   0  0  0  0  0  0  0  0  0  0  0  0
  151.1048  140.4880  155.9143 C   0  0  0  0  0  0  0  0  0  0  0  0
  149.8070  140.7638  155.4189 C   0  0  0  0  0  0  0  0  0  0  0  0
  149.2461  139.8896  154.4673 C   0  0  0  0  0  0  0  0  0  0  0  0
  149.8807  138.7991  153.9900 N   0  0  0  0  0  0  0  0  0  0  0  0
  151.1218  138.5436  154.4538 C   0  0  0  0  0  0  0  0  0  0  0  0
  151.7775  139.3507  155.4068 C   0  0  0  0  0  0  0  0  0  0  0  0
  153.0394  139.0211  155.8197 O   0  5  0  0  0  0  0  0  0  0  0  0
  153.5718  143.1778  162.8870 H   0  0  0  0  0  0  0  0  0  0  0  0
  153.4553  141.7039  161.9273 H   0  0  0  0  0  0  0  0  0  0  0  0
  151.9993  142.4335  162.6027 H   0  0  0  0  0  0  0  0  0  0  0  0
  152.3148  144.4390  161.1253 H   0  0  0  0  0  0  0  0  0  0  0  0
  153.7811  143.7227  160.4650 H   0  0  0  0  0  0  0  0  0  0  0  0
  153.3328  142.5142  158.3896 H   0  0  0  0  0  0  0  0  0  0  0  0
  153.3322  144.8686  158.7217 H   0  0  0  0  0  0  0  0  0  0  0  0
  152.4537  144.6409  157.2300 H   0  0  0  0  0  0  0  0  0  0  0  0
  151.3065  146.2896  158.6988 H   0  0  0  0  0  0  0  0  0  0  0  0
  151.1743  145.0917  159.9832 H   0  0  0  0  0  0  0  0  0  0  0  0
  150.2786  144.8772  158.4795 H   0  0  0  0  0  0  0  0  0  0  0  0
  152.7689  141.0969  156.9577 H   0  0  0  0  0  0  0  0  0  0  0  0
  149.2371  141.6232  155.7325 H   0  0  0  0  0  0  0  0  0  0  0  0
  148.2585  140.0768  154.0727 H   0  0  0  0  0  0  0  0  0  0  0  0
  151.6072  137.6677  154.0487 H   0  0  0  0  0  0  0  0  0  0  0  0
  1  2  1  0  0  0  0
  1 17  1  0  0  0  0
  1 18  1  0  0  0  0
  1 19  1  0  0  0  0
  2  3  1  0  0  0  0
  2 20  1  0  0  0  0
  2 21  1  0  0  0  0
  3  4  1  0  0  0  0
  4  5  1  0  0  0  0
  4  7  1  0  0  0  0
  4 22  1  0  0  0  0
  5  6  1  0  0  0  0
  5 23  1  0  0  0  0
  5 24  1  0  0  0  0
  6 25  1  0  0  0  0
  6 26  1  0  0  0  0
  6 27  1  0  0  0  0
  7  8  2  0  0  0  0
  7  9  1  0  0  0  0
  9 28  1  0  0  0  0
  9 10  1  0  0  0  0
 10 11  2  0  0  0  0
 10 15  1  0  0  0  0
 11 12  1  0  0  0  0
 11 29  1  0  0  0  0
 12 13  2  0  0  0  0
 12 30  1  0  0  0  0
 13 14  1  0  0  0  0
 14 15  2  0  0  0  0
 14 31  1  0  0  0  0
 15 16  1  0  0  0  0
M  CHG  1  16  -1
M  END
> <s_m_source_file>
AV-unprocessed.smi

> <i_m_source_file_index>
2801

> <i_lp_mmshare_version>
43012

> <i_f3d_flags>
0

> <s_epik_input>
W0NIM11bQ0gyXU9bQ0BIXShbQ0gyXVtDSDNdKUMoPU8pW05IXWMxW2NIXVtjSF1uW2NIXWMxW09IXQ==

> <s_epik_cmdline>
J2VwaWtfcHl0aG9uJywgJy1waCcsICc3LjAnLCAnLXRuJywgJzgnLCAnLW1hJywgJzIwMCcsICctbWV0YWxfYmluZGluZycsICctaW1hZScsICc8aW5maWxlLm1hZT4nLCAnLW9tYWUnLCAnPG91dGZpbGUubWFlPic=

> <r_lp_tautomer_probability>
0.56342

> <r_epik_Ionization_Penalty>
4.38321

> <r_epik_Ionization_Penalty_Charging>
2.0641

> <r_epik_Ionization_Penalty_Neutral>
2.31912

> <r_epik_State_Penalty>
2.63873

> <r_epik_Charging_Adjusted_Penalty>
4.70283

> <i_epik_Tot_Q>
-1

> <i_epik_Tot_abs_Q>
1

> <r_epik_Metal_State_Penalty>
0.606608

> <b_epik_Metal_Only>
1

> <s_lp_Force_Field>
OPLS_2005

> <r_lp_Energy>
9.76409

> <b_lp_Chiralities_Consistent>
1

> <s_lp_Variant>
AV-unprocessed.smi:2801-5

> <Gold.Version>
5.8.1

> <Gold.Id.Protein>
6NUR|6NUR_protein|mol2

> <Gold.PLP.Fitness>
43.4665

> <Gold.PLP.PLP>
-38.3123

> <Gold.PLP.part.hbond>
-1.0000

> <Gold.PLP.part.metal>
0.0000

> <Gold.PLP.part.buried>
-4.2125

> <Gold.PLP.part.nonpolar>
-33.4039

> <Gold.PLP.part.repulsive>
1.0619

> <Gold.PLP.ligand.clash>
0.0000

> <Gold.PLP.ligand.torsion>
0.4367

> <Gold.PLP.Chemscore.Hbond>
2.0000

> <Gold.PLP.Chemscore.CHOScore>
0.0000

> <Gold.PLP.Chemscore.Metal>
0.0000

> <Gold.Chemscore.Hbonds>
donor molecule, donor type, donor heavy atom, donor atom, acceptor molecule, acceptor atom, score
      P1  H  7997  8009       L1    16  2.00

> <Gold.PLP.Chemscore.Internal.Correction>
0.0277

> <Gold.Rescore>
     Score         DG    S(hbond)    S(metal)    S(lipo)     H(rot)  DE(clash)    DE(int)     intcor
     14.50     -16.02       0.99        0.00      95.62       1.55       0.03       1.49       ----

> <Gold.Chemscore.Fitness>
14.5028

> <Gold.Chemscore.DG>
-16.0245

> <Gold.Chemscore.ZeroCoef>
-5.4800

> <Gold.Chemscore.Hbond>
0.9925

> <Gold.Chemscore.Metal>
0.0000

> <Gold.Chemscore.Lipo>
95.6237

> <Gold.Chemscore.Internal_Hbond>
0.0000

> <Gold.Chemscore.DEClash>
0.0315

> <Gold.Chemscore.DEInternal>
1.4902

> <Gold.Chemscore.Rot>
1.5462

> <Gold.Chemscore.Internal.Correction>
   9.000000E+99

> <Gold.Chemscore.Hbonds>
donor molecule, donor type, donor heavy atom, donor atom, acceptor molecule, acceptor atom, score
      P1  H  7997  8009       L1    16  0.99

> <Gold.Chemscore.Hbond.Weighted>
-3.3149

> <Gold.Chemscore.Metal.Weighted>
-0.0000

> <Gold.Chemscore.Lipo.Weighted>
-11.1880

> <Gold.Chemscore.Internal_Hbond.Weighted>
0.0000

> <Gold.Chemscore.DEClash.Weighted>
0.0315

> <Gold.Chemscore.DEInternal.Weighted>
1.4902

> <Gold.Chemscore.Rot.Weighted>
3.9583

> <Gold.Chemscore.Internal.Correction.Weighted>
   9.000000E+99

> <Gold.Protein.RotatedTorsions>
[ 6907 6896 6895 6894 ] final  -87.20 input  -60.11 | X-H torsion
[ 7974 7965 7964 7962 ] final -138.97 input  175.53 | X-H torsion
[ 8008 7997 7996 7995 ] final -144.52 input   59.86 | X-H torsion
[ 10167 10162 10161 10158 ] final  100.25 input  -65.29 | X-H torsion
[ 10718 10713 10712 10709 ] final  102.38 input   66.30 | X-H torsion
[ 10763 10752 10751 10750 ] final   75.82 input  -60.55 | X-H torsion
[ 11005 11000 10999 10996 ] final -116.37 input  -57.11 | X-H torsion

> <Gold.Protein.ActiveResidues>
 VAL166  LYS551  ARG553  GLY616  TRP617  ASP618  TYR619  PRO620  LYS621  CYS622 
 ASP623  PHE694  ASN695  SER759  ASP760  ASP761  ALA762  ILE779  LEU786  VAL792 
 PHE793  MET794  SER795  GLU796  ALA797  LYS798  CYS799  TRP800  GLU811  SER814 

> <Gold.Protein.RotatedAtoms>
  150.6866  134.2933  159.4675 H   0  0  0  0  0  0  0  0  0  0  0  0  # atno 6907 bound_to 6896
  152.0836  134.9452  160.0582 H   0  0  0  0  0  0  0  0  0  0  0  0  # atno 6908 bound_to 6896
  152.0796  133.4111  159.4532 H   0  0  0  0  0  0  0  0  0  0  0  0  # atno 6909 bound_to 6896
  144.8715  140.6373  143.5264 H   0  0  0  0  0  0  0  0  0  0  0  0  # atno 7974 bound_to 7965
  155.5282  140.0597  157.2894 H   0  0  0  0  0  0  0  0  0  0  0  0  # atno 8008 bound_to 7997
  154.4493  140.1940  156.0512 H   0  0  0  0  0  0  0  0  0  0  0  0  # atno 8009 bound_to 7997
  156.0671  140.3265  155.7535 H   0  0  0  0  0  0  0  0  0  0  0  0  # atno 8010 bound_to 7997
  139.7543  144.6974  151.0385 H   0  0  0  0  0  0  0  0  0  0  0  0  # atno 10167 bound_to 10162
  157.6803  131.0751  150.5396 H   0  0  0  0  0  0  0  0  0  0  0  0  # atno 10718 bound_to 10713
  153.0682  135.4974  154.8246 H   0  0  0  0  0  0  0  0  0  0  0  0  # atno 10763 bound_to 10752
  154.6984  135.2997  154.9380 H   0  0  0  0  0  0  0  0  0  0  0  0  # atno 10764 bound_to 10752
  154.0112  135.6754  153.4818 H   0  0  0  0  0  0  0  0  0  0  0  0  # atno 10765 bound_to 10752
  141.0426  133.9811  157.2969 H   0  0  0  0  0  0  0  0  0  0  0  0  # atno 11005 bound_to 11000
  145.4122  139.1578  143.4119 LP  0  0  0  0  0  0  0  0  0  0  0  0  # atno 17320 bound_to 7965
  146.2933  140.4227  142.8731 LP  0  0  0  0  0  0  0  0  0  0  0  0  # atno 17321 bound_to 7965
  140.7801  143.4771  151.0068 LP  0  0  0  0  0  0  0  0  0  0  0  0  # atno 17342 bound_to 10162
  139.8458  143.7503  152.3179 LP  0  0  0  0  0  0  0  0  0  0  0  0  # atno 17343 bound_to 10162
  156.5703  130.4278  149.6022 LP  0  0  0  0  0  0  0  0  0  0  0  0  # atno 17370 bound_to 10713
  156.2746  130.7036  151.1844 LP  0  0  0  0  0  0  0  0  0  0  0  0  # atno 17371 bound_to 10713
  139.9287  135.0201  156.8327 LP  0  0  0  0  0  0  0  0  0  0  0  0  # atno 17394 bound_to 11000
  140.6205  133.9998  155.7616 LP  0  0  0  0  0  0  0  0  0  0  0  0  # atno 17395 bound_to 11000

$$$$
