AV-unprocessed.smi:2760|AV-procd|sdf|10629|dock5
  -GOLD-   2272015 73D 1   1.00000     0.00000
 Structure written by MMmdl.
 32 33  0  0  0  0  0  0  0  0  1 V2000
  151.4749  139.9119  154.8133 O   0  0  0  0  0  0  0  0  0  0  0  0
  150.3525  139.9503  155.3129 C   0  0  0  0  0  0  0  0  0  0  0  0
  149.4039  141.0131  154.9574 C   0  0  0  0  0  0  0  0  0  0  0  0
  148.1782  141.0312  155.5184 C   0  0  0  0  0  0  0  0  0  0  0  0
  147.1486  142.0694  155.2190 C   0  0  0  0  0  0  0  0  0  0  0  0
  145.7158  141.7123  154.8865 C   0  0  0  0  0  0  0  0  0  0  0  0
  146.6143  142.2946  153.8209 C   0  0  0  0  0  0  0  0  0  0  0  0
  147.8173  140.0507  156.4269 N   0  0  0  0  0  0  0  0  0  0  0  0
  148.7311  139.0536  156.7520 C   0  0  0  0  0  0  0  0  0  0  0  0
  148.0648  137.8621  157.9673 S   0  0  0  0  0  0  0  0  0  0  0  0
  146.2829  138.2267  158.0219 C   0  0  0  0  0  0  0  0  0  0  0  0
  145.5772  137.3964  159.0972 C   0  0  0  0  0  0  0  0  0  0  0  0
  146.3340  137.4636  160.2938 O   0  0  0  0  0  0  0  0  0  0  0  0
  145.8650  136.5704  161.2915 C   0  0  0  0  0  0  0  0  0  0  0  0
  147.0501  135.8049  161.8930 C   0  0  0  0  0  0  0  0  0  0  0  0
  147.6019  136.5381  162.8590 F   0  0  0  0  0  0  0  0  0  0  0  0
  146.6363  134.6507  162.4154 F   0  0  0  0  0  0  0  0  0  0  0  0
  147.9687  135.5696  160.9566 F   0  0  0  0  0  0  0  0  0  0  0  0
  149.9268  138.9862  156.2414 N   0  0  0  0  0  0  0  0  0  0  0  0
  146.8910  140.0974  156.8254 H   0  0  0  0  0  0  0  0  0  0  0  0
  149.6931  141.7747  154.2478 H   0  0  0  0  0  0  0  0  0  0  0  0
  147.2845  142.9638  155.8245 H   0  0  0  0  0  0  0  0  0  0  0  0
  145.4516  140.6602  154.7988 H   0  0  0  0  0  0  0  0  0  0  0  0
  144.9342  142.3537  155.2884 H   0  0  0  0  0  0  0  0  0  0  0  0
  146.4304  143.3228  153.5160 H   0  0  0  0  0  0  0  0  0  0  0  0
  146.9446  141.6285  153.0263 H   0  0  0  0  0  0  0  0  0  0  0  0
  145.8413  138.0139  157.0476 H   0  0  0  0  0  0  0  0  0  0  0  0
  146.1374  139.2880  158.2266 H   0  0  0  0  0  0  0  0  0  0  0  0
  144.5708  137.7818  159.2682 H   0  0  0  0  0  0  0  0  0  0  0  0
  145.4848  136.3596  158.7701 H   0  0  0  0  0  0  0  0  0  0  0  0
  145.3457  137.1248  162.0749 H   0  0  0  0  0  0  0  0  0  0  0  0
  145.1505  135.8683  160.8586 H   0  0  0  0  0  0  0  0  0  0  0  0
  1  2  2  0  0  0  0
  2 19  1  0  0  0  0
  2  3  1  0  0  0  0
  3 21  1  0  0  0  0
  3  4  2  0  0  0  0
  4  5  1  0  0  0  0
  4  8  1  0  0  0  0
  5  7  1  0  0  0  0
  5  6  1  0  0  0  0
  5 22  1  0  0  0  0
  6  7  1  0  0  0  0
  6 23  1  0  0  0  0
  6 24  1  0  0  0  0
  7 25  1  0  0  0  0
  7 26  1  0  0  0  0
  8  9  1  0  0  0  0
  8 20  1  0  0  0  0
  9 10  1  0  0  0  0
  9 19  2  0  0  0  0
 10 11  1  0  0  0  0
 11 12  1  0  0  0  0
 11 27  1  0  0  0  0
 11 28  1  0  0  0  0
 12 13  1  0  0  0  0
 12 29  1  0  0  0  0
 12 30  1  0  0  0  0
 13 14  1  0  0  0  0
 14 15  1  0  0  0  0
 14 31  1  0  0  0  0
 14 32  1  0  0  0  0
 15 16  1  0  0  0  0
 15 17  1  0  0  0  0
 15 18  1  0  0  0  0
M  END
> <s_m_source_file>
AV-unprocessed.smi

> <i_m_source_file_index>
2760

> <i_lp_mmshare_version>
43012

> <i_f3d_flags>
0

> <s_epik_input>
W09IXWMxW2NIXWMoW0NIXTJbQ0gyXVtDSDJdMiluYyhuMSlTW0NIMl1bQ0gyXU9bQ0gyXUMoRikoRilG

> <s_epik_cmdline>
J2VwaWtfcHl0aG9uJywgJy1waCcsICc3LjAnLCAnLXRuJywgJzgnLCAnLW1hJywgJzIwMCcsICctbWV0YWxfYmluZGluZycsICctaW1hZScsICc8aW5maWxlLm1hZT4nLCAnLW9tYWUnLCAnPG91dGZpbGUubWFlPic=

> <r_lp_tautomer_probability>
0.273662

> <r_epik_Ionization_Penalty>
0.0792867

> <r_epik_Ionization_Penalty_Charging>
0.0792819

> <r_epik_Ionization_Penalty_Neutral>
4.79647e-06

> <r_epik_State_Penalty>
1.03359

> <r_epik_Charging_Adjusted_Penalty>
1.11287

> <i_epik_Tot_Q>
0

> <i_epik_Tot_abs_Q>
0

> <r_epik_Metal_State_Penalty>
1.68441

> <b_epik_Metal_Only>
0

> <s_lp_Force_Field>
OPLS_2005

> <r_lp_Energy>
16.1148

> <b_lp_Chiralities_Consistent>
1

> <s_lp_Variant>
AV-unprocessed.smi:2760-2

> <Gold.Version>
5.8.1

> <Gold.Id.Protein>
6NUR|6NUR_protein|mol2

> <Gold.PLP.Fitness>
36.9509

> <Gold.PLP.PLP>
-32.8853

> <Gold.PLP.part.hbond>
-1.9963

> <Gold.PLP.part.metal>
0.0000

> <Gold.PLP.part.buried>
-3.0406

> <Gold.PLP.part.nonpolar>
-28.0071

> <Gold.PLP.part.repulsive>
0.0843

> <Gold.PLP.ligand.clash>
0.0000

> <Gold.PLP.ligand.torsion>
1.0692

> <Gold.PLP.Chemscore.Hbond>
2.0000

> <Gold.PLP.Chemscore.CHOScore>
0.0000

> <Gold.PLP.Chemscore.Metal>
0.0000

> <Gold.Chemscore.Hbonds>
donor molecule, donor type, donor heavy atom, donor atom, acceptor molecule, acceptor atom, score
      P1  H  6934  6947       L1    13  1.00
      P1  H  7989  7998       L1     1  1.00

> <Gold.PLP.Chemscore.Internal.Correction>
0.2040

> <Gold.Rescore>
     Score         DG    S(hbond)    S(metal)    S(lipo)     H(rot)  DE(clash)    DE(int)     intcor
      9.61     -10.61       1.97        0.00      43.85       2.57       0.01       0.99       ----

> <Gold.Chemscore.Fitness>
9.6052

> <Gold.Chemscore.DG>
-10.6123

> <Gold.Chemscore.ZeroCoef>
-5.4800

> <Gold.Chemscore.Hbond>
1.9688

> <Gold.Chemscore.Metal>
0.0000

> <Gold.Chemscore.Lipo>
43.8524

> <Gold.Chemscore.Internal_Hbond>
0.0000

> <Gold.Chemscore.DEClash>
0.0123

> <Gold.Chemscore.DEInternal>
0.9949

> <Gold.Chemscore.Rot>
2.5680

> <Gold.Chemscore.Internal.Correction>
   9.000000E+99

> <Gold.Chemscore.Hbonds>
donor molecule, donor type, donor heavy atom, donor atom, acceptor molecule, acceptor atom, score
      P1  H  6934  6947       L1    13  0.92
      P1  H  7989  7998       L1     1  0.87

> <Gold.Chemscore.Hbond.Weighted>
-6.5757

> <Gold.Chemscore.Metal.Weighted>
-0.0000

> <Gold.Chemscore.Lipo.Weighted>
-5.1307

> <Gold.Chemscore.Internal_Hbond.Weighted>
0.0000

> <Gold.Chemscore.DEClash.Weighted>
0.0123

> <Gold.Chemscore.DEInternal.Weighted>
0.9949

> <Gold.Chemscore.Rot.Weighted>
6.5741

> <Gold.Chemscore.Internal.Correction.Weighted>
   9.000000E+99

> <Gold.Protein.RotatedTorsions>
[ 6907 6896 6895 6894 ] final  157.16 input  -60.11 | X-H torsion
[ 7974 7965 7964 7962 ] final  177.96 input  175.53 | X-H torsion
[ 8008 7997 7996 7995 ] final   71.71 input   59.86 | X-H torsion
[ 10167 10162 10161 10158 ] final  -40.65 input  -65.29 | X-H torsion
[ 10718 10713 10712 10709 ] final  143.90 input   66.30 | X-H torsion
[ 10763 10752 10751 10750 ] final  179.25 input  -60.55 | X-H torsion
[ 11005 11000 10999 10996 ] final   81.62 input  -57.11 | X-H torsion

> <Gold.Protein.ActiveResidues>
 VAL166  LYS551  ARG553  GLY616  TRP617  ASP618  TYR619  PRO620  LYS621  CYS622 
 ASP623  PHE694  ASN695  SER759  ASP760  ASP761  ALA762  ILE779  LEU786  VAL792 
 PHE793  MET794  SER795  GLU796  ALA797  LYS798  CYS799  TRP800  GLU811  SER814 

> <Gold.Protein.RotatedAtoms>
  152.0191  133.3891  159.4250 H   0  0  0  0  0  0  0  0  0  0  0  0  # atno 6907 bound_to 6896
  150.6892  134.3645  159.4974 H   0  0  0  0  0  0  0  0  0  0  0  0  # atno 6908 bound_to 6896
  152.1417  134.9057  160.0604 H   0  0  0  0  0  0  0  0  0  0  0  0  # atno 6909 bound_to 6896
  144.7162  140.0325  143.6439 H   0  0  0  0  0  0  0  0  0  0  0  0  # atno 7974 bound_to 7965
  155.7580  140.3487  155.5183 H   0  0  0  0  0  0  0  0  0  0  0  0  # atno 8008 bound_to 7997
  155.8941  140.1023  157.1418 H   0  0  0  0  0  0  0  0  0  0  0  0  # atno 8009 bound_to 7997
  154.4036  140.1298  156.4340 H   0  0  0  0  0  0  0  0  0  0  0  0  # atno 8010 bound_to 7997
  140.7028  143.3141  151.2954 H   0  0  0  0  0  0  0  0  0  0  0  0  # atno 10167 bound_to 10162
  157.3635  131.0968  151.0894 H   0  0  0  0  0  0  0  0  0  0  0  0  # atno 10718 bound_to 10713
  154.5183  135.2792  155.1284 H   0  0  0  0  0  0  0  0  0  0  0  0  # atno 10763 bound_to 10752
  154.2852  135.6277  153.5366 H   0  0  0  0  0  0  0  0  0  0  0  0  # atno 10764 bound_to 10752
  152.9932  135.5661  154.5665 H   0  0  0  0  0  0  0  0  0  0  0  0  # atno 10765 bound_to 10752
  139.9091  134.8010  156.2066 H   0  0  0  0  0  0  0  0  0  0  0  0  # atno 11005 bound_to 11000
  146.0090  139.3154  143.0881 LP  0  0  0  0  0  0  0  0  0  0  0  0  # atno 17320 bound_to 7965
  145.8704  140.9423  143.0654 LP  0  0  0  0  0  0  0  0  0  0  0  0  # atno 17321 bound_to 7965
  139.6574  144.0252  152.2669 LP  0  0  0  0  0  0  0  0  0  0  0  0  # atno 17342 bound_to 10162
  139.9808  144.6430  150.7903 LP  0  0  0  0  0  0  0  0  0  0  0  0  # atno 17343 bound_to 10162
  157.2024  130.6401  149.5743 LP  0  0  0  0  0  0  0  0  0  0  0  0  # atno 17370 bound_to 10713
  155.9742  130.4686  150.6367 LP  0  0  0  0  0  0  0  0  0  0  0  0  # atno 17371 bound_to 10713
  141.0492  133.6898  156.1739 LP  0  0  0  0  0  0  0  0  0  0  0  0  # atno 17394 bound_to 11000
  140.6837  134.4740  157.5589 LP  0  0  0  0  0  0  0  0  0  0  0  0  # atno 17395 bound_to 11000

$$$$
