AV-unprocessed.smi:288|AV-procd|sdf|2209|dock10
  -GOLD-   2262022 43D 1   1.00000     0.00000
 Structure written by MMmdl.
 33 34  0  0  0  0  0  0  0  0  1 V2000
  155.8931  138.6731  161.6460 O   0  0  0  0  0  0  0  0  0  0  0  0
  155.1462  139.5877  161.2937 C   0  0  0  0  0  0  0  0  0  0  0  0
  154.9878  140.8292  162.0420 C   0  0  0  0  0  0  0  0  0  0  0  0
  155.6726  141.0070  163.1846 F   0  0  0  0  0  0  0  0  0  0  0  0
  154.1693  141.8104  161.6045 C   0  0  0  0  0  0  0  0  0  0  0  0
  153.4348  141.7192  160.4311 N   0  0  0  0  0  0  0  0  0  0  0  0
  152.4996  142.8128  159.9527 C   0  0  2  0  0  0  0  0  0  0  0  0
  153.0096  143.6513  158.7767 C   0  0  0  0  0  0  0  0  0  0  0  0
  152.1544  144.8849  158.9470 C   0  0  0  0  0  0  0  0  0  0  0  0
  152.1460  145.0386  160.4674 C   0  0  0  0  0  0  0  0  0  0  0  0
  152.3163  143.7238  160.9959 O   0  0  0  0  0  0  0  0  0  0  0  0
  153.5419  140.5556  159.6356 C   0  0  0  0  0  0  0  0  0  0  0  0
  152.9312  140.4635  158.5680 O   0  0  0  0  0  0  0  0  0  0  0  0
  154.3792  139.5171  160.1056 N   0  0  0  0  0  0  0  0  0  0  0  0
  154.4898  138.3117  159.3001 C   0  0  0  0  0  0  0  0  0  0  0  0
  153.1312  137.6226  159.0411 C   0  0  2  0  0  0  0  0  0  0  0  0
  152.8342  136.7856  160.1423 O   0  0  0  0  0  0  0  0  0  0  0  0
  153.1480  136.7483  157.7717 C   0  0  0  0  0  0  0  0  0  0  0  0
  154.0336  135.7603  157.9037 F   0  0  0  0  0  0  0  0  0  0  0  0
  151.9463  136.1985  157.5959 F   0  0  0  0  0  0  0  0  0  0  0  0
  153.4458  137.4753  156.6939 F   0  0  0  0  0  0  0  0  0  0  0  0
  154.1245  142.7002  162.2107 H   0  0  0  0  0  0  0  0  0  0  0  0
  151.5595  142.3103  159.7157 H   0  0  0  0  0  0  0  0  0  0  0  0
  154.0526  143.9348  158.9174 H   0  0  0  0  0  0  0  0  0  0  0  0
  152.8796  143.1380  157.8237 H   0  0  0  0  0  0  0  0  0  0  0  0
  152.5520  145.7599  158.4322 H   0  0  0  0  0  0  0  0  0  0  0  0
  151.1448  144.6971  158.5783 H   0  0  0  0  0  0  0  0  0  0  0  0
  152.9833  145.6551  160.7965 H   0  0  0  0  0  0  0  0  0  0  0  0
  151.2252  145.4961  160.8300 H   0  0  0  0  0  0  0  0  0  0  0  0
  154.9664  138.6102  158.3649 H   0  0  0  0  0  0  0  0  0  0  0  0
  155.2187  137.6434  159.7621 H   0  0  0  0  0  0  0  0  0  0  0  0
  152.3371  138.3639  158.9435 H   0  0  0  0  0  0  0  0  0  0  0  0
  153.2475  137.1448  160.9125 H   0  0  0  0  0  0  0  0  0  0  0  0
  1  2  2  0  0  0  0
  2 14  1  0  0  0  0
  2  3  1  0  0  0  0
  3  4  1  0  0  0  0
  3  5  2  0  0  0  0
  5  6  1  0  0  0  0
  5 22  1  0  0  0  0
  6  7  1  0  0  0  0
  6 12  1  0  0  0  0
  7 11  1  0  0  0  0
  7  8  1  0  0  0  0
  7 23  1  0  0  0  0
  8  9  1  0  0  0  0
  8 24  1  0  0  0  0
  8 25  1  0  0  0  0
  9 10  1  0  0  0  0
  9 26  1  0  0  0  0
  9 27  1  0  0  0  0
 10 11  1  0  0  0  0
 10 28  1  0  0  0  0
 10 29  1  0  0  0  0
 12 13  2  0  0  0  0
 12 14  1  0  0  0  0
 14 15  1  0  0  0  0
 15 16  1  0  0  0  0
 15 30  1  0  0  0  0
 15 31  1  0  0  0  0
 16 17  1  0  0  0  0
 16 18  1  0  0  0  0
 16 32  1  0  0  0  0
 17 33  1  0  0  0  0
 18 19  1  0  0  0  0
 18 20  1  0  0  0  0
 18 21  1  0  0  0  0
M  END
> <s_m_source_file>
AV-unprocessed.smi

> <i_m_source_file_index>
288

> <i_lp_mmshare_version>
43012

> <i_f3d_flags>
0

> <s_epik_input>
TzFbQ0gyXVtDSDJdW0NIMl1bQ0BIXTFuKFtjSF1jKEYpYzI9TyljKD1PKW4yW0NIMl1bQ0BIXShbT0hdKUMoRikoRilG

> <s_epik_cmdline>
J2VwaWtfcHl0aG9uJywgJy1waCcsICc3LjAnLCAnLXRuJywgJzgnLCAnLW1hJywgJzIwMCcsICctbWV0YWxfYmluZGluZycsICctaW1hZScsICc8aW5maWxlLm1hZT4nLCAnLW9tYWUnLCAnPG91dGZpbGUubWFlPic=

> <r_lp_tautomer_probability>
1

> <r_epik_Ionization_Penalty>
0.000551119

> <r_epik_Ionization_Penalty_Charging>
2.51184e-08

> <r_epik_Ionization_Penalty_Neutral>
0.000551094

> <r_epik_State_Penalty>
0.000345115

> <r_epik_Charging_Adjusted_Penalty>
0.00034514

> <i_epik_Tot_Q>
0

> <i_epik_Tot_abs_Q>
0

> <r_epik_Metal_State_Penalty>
-0

> <b_epik_Metal_Only>
0

> <s_epik_Chemistry_Notes>
This compound contains an acetal/aminal-like group ( X-CH(R)-Y where X, Y are N, S, or O) that may be acid/base labile, releasing an aldehyde.

> <s_lp_Force_Field>
OPLS_2005

> <r_lp_Energy>
36.863

> <b_lp_Chiralities_Consistent>
1

> <s_lp_Variant>
AV-unprocessed.smi:288-1

> <Gold.Version>
5.8.1

> <Gold.Id.Protein>
6NUR|6NUR_protein|mol2

> <Gold.PLP.Fitness>
43.0198

> <Gold.PLP.PLP>
-38.7299

> <Gold.PLP.part.hbond>
-2.0000

> <Gold.PLP.part.metal>
0.0000

> <Gold.PLP.part.buried>
-0.2042

> <Gold.PLP.part.nonpolar>
-35.0368

> <Gold.PLP.part.repulsive>
0.1026

> <Gold.PLP.ligand.clash>
0.0000

> <Gold.PLP.ligand.torsion>
0.6010

> <Gold.PLP.Chemscore.Hbond>
1.8268

> <Gold.PLP.Chemscore.CHOScore>
0.0000

> <Gold.PLP.Chemscore.Metal>
0.0000

> <Gold.Chemscore.Hbonds>
donor molecule, donor type, donor heavy atom, donor atom, acceptor molecule, acceptor atom, score
      P1  H  6896  6909       L1    17  1.00
      P1  H  7997  8010       L1    13  0.25

> <Gold.PLP.Chemscore.Internal.Correction>
0.0116

> <Gold.Rescore>
     Score         DG    S(hbond)    S(metal)    S(lipo)     H(rot)  DE(clash)    DE(int)     intcor
     11.61     -13.54       1.90        0.00      70.64       2.57       0.09       1.84       ----

> <Gold.Chemscore.Fitness>
11.6097

> <Gold.Chemscore.DG>
-13.5374

> <Gold.Chemscore.ZeroCoef>
-5.4800

> <Gold.Chemscore.Hbond>
1.9045

> <Gold.Chemscore.Metal>
0.0000

> <Gold.Chemscore.Lipo>
70.6361

> <Gold.Chemscore.Internal_Hbond>
0.0000

> <Gold.Chemscore.DEClash>
0.0858

> <Gold.Chemscore.DEInternal>
1.8420

> <Gold.Chemscore.Rot>
2.5656

> <Gold.Chemscore.Internal.Correction>
   9.000000E+99

> <Gold.Chemscore.Hbonds>
donor molecule, donor type, donor heavy atom, donor atom, acceptor molecule, acceptor atom, score
      P1  H  6896  6909       L1    17  0.98
      P1  H  7997  8010       L1    13  0.08

> <Gold.Chemscore.Hbond.Weighted>
-6.3609

> <Gold.Chemscore.Metal.Weighted>
-0.0000

> <Gold.Chemscore.Lipo.Weighted>
-8.2644

> <Gold.Chemscore.Internal_Hbond.Weighted>
0.0000

> <Gold.Chemscore.DEClash.Weighted>
0.0858

> <Gold.Chemscore.DEInternal.Weighted>
1.8420

> <Gold.Chemscore.Rot.Weighted>
6.5679

> <Gold.Chemscore.Internal.Correction.Weighted>
   9.000000E+99

> <Gold.Protein.RotatedTorsions>
[ 6907 6896 6895 6894 ] final  157.09 input  -60.11 | X-H torsion
[ 7974 7965 7964 7962 ] final -127.73 input  175.53 | X-H torsion
[ 8008 7997 7996 7995 ] final   27.61 input   59.86 | X-H torsion
[ 10167 10162 10161 10158 ] final  171.63 input  -65.29 | X-H torsion
[ 10718 10713 10712 10709 ] final -165.56 input   66.30 | X-H torsion
[ 10763 10752 10751 10750 ] final   16.42 input  -60.55 | X-H torsion
[ 11005 11000 10999 10996 ] final   24.67 input  -57.11 | X-H torsion

> <Gold.Protein.ActiveResidues>
 VAL166  LYS551  ARG553  GLY616  TRP617  ASP618  TYR619  PRO620  LYS621  CYS622 
 ASP623  PHE694  ASN695  SER759  ASP760  ASP761  ALA762  ILE779  LEU786  VAL792 
 PHE793  MET794  SER795  GLU796  ALA797  LYS798  CYS799  TRP800  GLU811  SER814 

> <Gold.Protein.RotatedAtoms>
  152.0201  133.3895  159.4254 H   0  0  0  0  0  0  0  0  0  0  0  0  # atno 6907 bound_to 6896
  150.6891  134.3635  159.4970 H   0  0  0  0  0  0  0  0  0  0  0  0  # atno 6908 bound_to 6896
  152.1408  134.9064  160.0604 H   0  0  0  0  0  0  0  0  0  0  0  0  # atno 6909 bound_to 6896
  144.9741  140.7575  143.4652 H   0  0  0  0  0  0  0  0  0  0  0  0  # atno 7974 bound_to 7965
  155.0457  140.3174  155.4709 H   0  0  0  0  0  0  0  0  0  0  0  0  # atno 8008 bound_to 7997
  156.2845  140.2155  156.5525 H   0  0  0  0  0  0  0  0  0  0  0  0  # atno 8009 bound_to 7997
  154.7252  140.0486  157.0664 H   0  0  0  0  0  0  0  0  0  0  0  0  # atno 8010 bound_to 7997
  139.5052  144.3464  151.9967 H   0  0  0  0  0  0  0  0  0  0  0  0  # atno 10167 bound_to 10162
  156.6552  130.9023  151.3020 H   0  0  0  0  0  0  0  0  0  0  0  0  # atno 10718 bound_to 10713
  153.1433  135.6764  153.8994 H   0  0  0  0  0  0  0  0  0  0  0  0  # atno 10763 bound_to 10752
  153.8444  135.3101  155.3429 H   0  0  0  0  0  0  0  0  0  0  0  0  # atno 10764 bound_to 10752
  154.7805  135.4891  153.9918 H   0  0  0  0  0  0  0  0  0  0  0  0  # atno 10765 bound_to 10752
  140.3562  134.2175  155.7676 H   0  0  0  0  0  0  0  0  0  0  0  0  # atno 11005 bound_to 11000
  145.2516  139.2029  143.4939 LP  0  0  0  0  0  0  0  0  0  0  0  0  # atno 17320 bound_to 7965
  146.3390  140.2430  142.8596 LP  0  0  0  0  0  0  0  0  0  0  0  0  # atno 17321 bound_to 7965
  140.2901  144.3763  150.6091 LP  0  0  0  0  0  0  0  0  0  0  0  0  # atno 17342 bound_to 10162
  140.5953  143.2167  151.7176 LP  0  0  0  0  0  0  0  0  0  0  0  0  # atno 17343 bound_to 10162
  157.7128  130.9460  150.1148 LP  0  0  0  0  0  0  0  0  0  0  0  0  # atno 17370 bound_to 10713
  156.2053  130.3663  149.8737 LP  0  0  0  0  0  0  0  0  0  0  0  0  # atno 17371 bound_to 10713
  141.1998  133.8003  157.0521 LP  0  0  0  0  0  0  0  0  0  0  0  0  # atno 17394 bound_to 11000
  140.0663  134.9727  157.1392 LP  0  0  0  0  0  0  0  0  0  0  0  0  # atno 17395 bound_to 11000

$$$$
