AV-unprocessed.smi:977|AV-procd|sdf|4304|dock1
  -GOLD-   22720 2213D 1   1.00000     0.00000
 Structure written by MMmdl.
 37 38  0  0  0  0  0  0  0  0  1 V2000
  152.6492  138.3061  155.7464 C   0  0  0  0  0  0  0  0  0  0  0  0
  151.5252  139.1429  155.2014 C   0  0  0  0  0  0  0  0  0  0  0  0
  151.5912  140.4614  155.3160 N   0  0  0  0  0  0  0  0  0  0  0  0
  150.3937  140.9724  154.7915 O   0  0  0  0  0  0  0  0  0  0  0  0
  149.6226  139.9377  154.3667 C   0  0  0  0  0  0  0  0  0  0  0  0
  148.2901  140.2767  153.7886 C   0  0  0  0  0  0  0  0  0  0  0  0
  150.2989  138.7721  154.5751 C   0  0  0  0  0  0  0  0  0  0  0  0
  149.7919  137.4825  154.2787 N   0  0  0  0  0  0  0  0  0  0  0  0
  149.6843  136.4468  155.1241 C   0  0  0  0  0  0  0  0  0  0  0  0
  150.0623  136.4540  156.2953 O   0  0  0  0  0  0  0  0  0  0  0  0
  149.1244  135.3856  154.5261 N   0  0  0  0  0  0  0  0  0  0  0  0
  148.8630  134.0894  155.1507 C   0  0  2  0  0  0  0  0  0  0  0  0
  150.1095  133.6646  155.9408 C   0  0  0  0  0  0  0  0  0  0  0  0
  148.4744  133.0418  154.0861 C   0  0  2  0  0  0  0  0  0  0  0  0
  147.2073  133.3614  153.2902 C   0  0  0  0  0  0  0  0  0  0  0  0
  146.8025  131.9909  152.7995 C   0  0  0  0  0  0  0  0  0  0  0  0
  147.1477  131.1120  153.9986 C   0  0  0  0  0  0  0  0  0  0  0  0
  148.1930  131.7849  154.6974 O   0  0  0  0  0  0  0  0  0  0  0  0
  152.2809  137.3612  156.1459 H   0  0  0  0  0  0  0  0  0  0  0  0
  153.1717  138.8178  156.5552 H   0  0  0  0  0  0  0  0  0  0  0  0
  153.3817  138.0816  154.9714 H   0  0  0  0  0  0  0  0  0  0  0  0
  147.6728  139.3853  153.6757 H   0  0  0  0  0  0  0  0  0  0  0  0
  148.4027  140.7368  152.8068 H   0  0  0  0  0  0  0  0  0  0  0  0
  147.7563  140.9768  154.4313 H   0  0  0  0  0  0  0  0  0  0  0  0
  149.5644  137.3066  153.3109 H   0  0  0  0  0  0  0  0  0  0  0  0
  148.8520  135.4803  153.5587 H   0  0  0  0  0  0  0  0  0  0  0  0
  148.0403  134.1825  155.8620 H   0  0  0  0  0  0  0  0  0  0  0  0
  149.9447  132.7195  156.4589 H   0  0  0  0  0  0  0  0  0  0  0  0
  150.3685  134.4087  156.6947 H   0  0  0  0  0  0  0  0  0  0  0  0
  150.9725  133.5382  155.2862 H   0  0  0  0  0  0  0  0  0  0  0  0
  149.3008  132.8928  153.3887 H   0  0  0  0  0  0  0  0  0  0  0  0
  146.4332  133.7662  153.9438 H   0  0  0  0  0  0  0  0  0  0  0  0
  147.3782  134.0708  152.4799 H   0  0  0  0  0  0  0  0  0  0  0  0
  145.7523  131.9295  152.5128 H   0  0  0  0  0  0  0  0  0  0  0  0
  147.4100  131.7090  151.9385 H   0  0  0  0  0  0  0  0  0  0  0  0
  146.2905  131.0205  154.6666 H   0  0  0  0  0  0  0  0  0  0  0  0
  147.4523  130.1091  153.6991 H   0  0  0  0  0  0  0  0  0  0  0  0
  1  2  1  0  0  0  0
  1 19  1  0  0  0  0
  1 20  1  0  0  0  0
  1 21  1  0  0  0  0
  2  7  1  0  0  0  0
  2  3  2  0  0  0  0
  3  4  1  0  0  0  0
  4  5  1  0  0  0  0
  5  6  1  0  0  0  0
  5  7  2  0  0  0  0
  6 22  1  0  0  0  0
  6 23  1  0  0  0  0
  6 24  1  0  0  0  0
  7  8  1  0  0  0  0
  8  9  1  0  0  0  0
  8 25  1  0  0  0  0
  9 10  2  0  0  0  0
  9 11  1  0  0  0  0
 11 12  1  0  0  0  0
 11 26  1  0  0  0  0
 12 13  1  0  0  0  0
 12 14  1  0  0  0  0
 12 27  1  0  0  0  0
 13 28  1  0  0  0  0
 13 29  1  0  0  0  0
 13 30  1  0  0  0  0
 14 18  1  0  0  0  0
 14 15  1  0  0  0  0
 14 31  1  0  0  0  0
 15 16  1  0  0  0  0
 15 32  1  0  0  0  0
 15 33  1  0  0  0  0
 16 17  1  0  0  0  0
 16 34  1  0  0  0  0
 16 35  1  0  0  0  0
 17 18  1  0  0  0  0
 17 36  1  0  0  0  0
 17 37  1  0  0  0  0
M  END
> <s_m_source_file>
AV-unprocessed.smi

> <i_m_source_file_index>
977

> <i_lp_mmshare_version>
43012

> <i_f3d_flags>
0

> <s_epik_input>
W0NIM11jMW5vYyhbQ0gzXSljMVtOSF1DKD1PKVtOSF1bQ0BIXShbQ0gzXSlbQ0BASF0yW0NIMl1bQ0gyXVtDSDJdTzI=

> <s_epik_cmdline>
J2VwaWtfcHl0aG9uJywgJy1waCcsICc3LjAnLCAnLXRuJywgJzgnLCAnLW1hJywgJzIwMCcsICctbWV0YWxfYmluZGluZycsICctaW1hZScsICc8aW5maWxlLm1hZT4nLCAnLW9tYWUnLCAnPG91dGZpbGUubWFlPic=

> <r_lp_tautomer_probability>
1

> <r_epik_Ionization_Penalty>
3.41601e-05

> <r_epik_Ionization_Penalty_Charging>
0

> <r_epik_Ionization_Penalty_Neutral>
3.41601e-05

> <r_epik_State_Penalty>
-0

> <r_epik_Charging_Adjusted_Penalty>
0

> <i_epik_Tot_Q>
0

> <i_epik_Tot_abs_Q>
0

> <r_epik_Metal_State_Penalty>
-0

> <b_epik_Metal_Only>
0

> <s_lp_Force_Field>
OPLS_2005

> <r_lp_Energy>
19.4667

> <b_lp_Chiralities_Consistent>
1

> <s_lp_Variant>
AV-unprocessed.smi:977-1

> <Gold.Version>
5.8.1

> <Gold.Id.Protein>
6NUR|6NUR_protein|mol2

> <Gold.PLP.Fitness>
37.1166

> <Gold.PLP.PLP>
-31.9885

> <Gold.PLP.part.hbond>
-4.0000

> <Gold.PLP.part.metal>
0.0000

> <Gold.PLP.part.buried>
-1.6013

> <Gold.PLP.part.nonpolar>
-25.2252

> <Gold.PLP.part.repulsive>
0.2621

> <Gold.PLP.ligand.clash>
0.0000

> <Gold.PLP.ligand.torsion>
0.6270

> <Gold.PLP.Chemscore.Hbond>
2.0000

> <Gold.PLP.Chemscore.CHOScore>
0.0000

> <Gold.PLP.Chemscore.Metal>
0.0000

> <Gold.Chemscore.Hbonds>
donor molecule, donor type, donor heavy atom, donor atom, acceptor molecule, acceptor atom, score
      L1  H     8    25       P1  7948  1.00
      L1  H    11    26       P1  7948  1.00

> <Gold.PLP.Chemscore.Internal.Correction>
0.3822

> <Gold.Rescore>
     Score         DG    S(hbond)    S(metal)    S(lipo)     H(rot)  DE(clash)    DE(int)     intcor
     14.12     -15.96       1.72        0.00      67.25       1.22       0.01       1.83       ----

> <Gold.Chemscore.Fitness>
14.1214

> <Gold.Chemscore.DG>
-15.9645

> <Gold.Chemscore.ZeroCoef>
-5.4800

> <Gold.Chemscore.Hbond>
1.7184

> <Gold.Chemscore.Metal>
0.0000

> <Gold.Chemscore.Lipo>
67.2481

> <Gold.Chemscore.Internal_Hbond>
0.0000

> <Gold.Chemscore.DEClash>
0.0110

> <Gold.Chemscore.DEInternal>
1.8321

> <Gold.Chemscore.Rot>
1.2200

> <Gold.Chemscore.Internal.Correction>
   9.000000E+99

> <Gold.Chemscore.Hbonds>
donor molecule, donor type, donor heavy atom, donor atom, acceptor molecule, acceptor atom, score
      L1  H     8    25       P1  7948  0.80
      L1  H    11    26       P1  7948  0.83

> <Gold.Chemscore.Hbond.Weighted>
-5.7396

> <Gold.Chemscore.Metal.Weighted>
-0.0000

> <Gold.Chemscore.Lipo.Weighted>
-7.8680

> <Gold.Chemscore.Internal_Hbond.Weighted>
0.0000

> <Gold.Chemscore.DEClash.Weighted>
0.0110

> <Gold.Chemscore.DEInternal.Weighted>
1.8321

> <Gold.Chemscore.Rot.Weighted>
3.1232

> <Gold.Chemscore.Internal.Correction.Weighted>
   9.000000E+99

> <Gold.Protein.RotatedTorsions>
[ 6907 6896 6895 6894 ] final  -59.76 input  -60.11 | X-H torsion
[ 7974 7965 7964 7962 ] final  -95.69 input  175.53 | X-H torsion
[ 8008 7997 7996 7995 ] final   92.76 input   59.86 | X-H torsion
[ 10167 10162 10161 10158 ] final  118.00 input  -65.29 | X-H torsion
[ 10718 10713 10712 10709 ] final  114.26 input   66.30 | X-H torsion
[ 10763 10752 10751 10750 ] final  127.56 input  -60.55 | X-H torsion
[ 11005 11000 10999 10996 ] final  -35.04 input  -57.11 | X-H torsion

> <Gold.Protein.ActiveResidues>
 VAL166  LYS551  ARG553  GLY616  TRP617  ASP618  TYR619  PRO620  LYS621  CYS622 
 ASP623  PHE694  ASN695  SER759  ASP760  ASP761  ALA762  ILE779  LEU786  VAL792 
 PHE793  MET794  SER795  GLU796  ALA797  LYS798  CYS799  TRP800  GLU811  SER814 

> <Gold.Protein.RotatedAtoms>
  150.7906  134.6927  159.6505 H   0  0  0  0  0  0  0  0  0  0  0  0  # atno 6907 bound_to 6896
  152.4011  134.6281  160.0078 H   0  0  0  0  0  0  0  0  0  0  0  0  # atno 6908 bound_to 6896
  151.6552  133.3282  159.3197 H   0  0  0  0  0  0  0  0  0  0  0  0  # atno 6909 bound_to 6896
  145.3567  140.9485  143.2524 H   0  0  0  0  0  0  0  0  0  0  0  0  # atno 7974 bound_to 7965
  156.0390  140.3321  155.7223 H   0  0  0  0  0  0  0  0  0  0  0  0  # atno 8008 bound_to 7997
  155.5772  140.0633  157.2809 H   0  0  0  0  0  0  0  0  0  0  0  0  # atno 8009 bound_to 7997
  154.4385  140.1850  156.0928 H   0  0  0  0  0  0  0  0  0  0  0  0  # atno 8010 bound_to 7997
  139.6140  144.7088  151.2780 H   0  0  0  0  0  0  0  0  0  0  0  0  # atno 10167 bound_to 10162
  157.6291  131.0996  150.7160 H   0  0  0  0  0  0  0  0  0  0  0  0  # atno 10718 bound_to 10713
  153.7114  135.3268  155.3247 H   0  0  0  0  0  0  0  0  0  0  0  0  # atno 10763 bound_to 10752
  154.8384  135.4477  154.1310 H   0  0  0  0  0  0  0  0  0  0  0  0  # atno 10764 bound_to 10752
  153.2405  135.6970  153.7868 H   0  0  0  0  0  0  0  0  0  0  0  0  # atno 10765 bound_to 10752
  140.9764  133.7080  156.1610 H   0  0  0  0  0  0  0  0  0  0  0  0  # atno 11005 bound_to 11000
  144.8677  139.5084  143.6782 LP  0  0  0  0  0  0  0  0  0  0  0  0  # atno 17320 bound_to 7965
  146.2945  139.7236  142.9137 LP  0  0  0  0  0  0  0  0  0  0  0  0  # atno 17321 bound_to 7965
  140.7339  143.6782  150.8023 LP  0  0  0  0  0  0  0  0  0  0  0  0  # atno 17342 bound_to 10162
  140.0382  143.5373  152.2730 LP  0  0  0  0  0  0  0  0  0  0  0  0  # atno 17343 bound_to 10162
  156.7502  130.4766  149.5458 LP  0  0  0  0  0  0  0  0  0  0  0  0  # atno 17370 bound_to 10713
  156.1483  130.6292  151.0561 LP  0  0  0  0  0  0  0  0  0  0  0  0  # atno 17371 bound_to 10713
  140.7252  134.4315  157.5571 LP  0  0  0  0  0  0  0  0  0  0  0  0  # atno 17394 bound_to 11000
  139.8932  134.8735  156.2233 LP  0  0  0  0  0  0  0  0  0  0  0  0  # atno 17395 bound_to 11000

$$$$
