AV-unprocessed.smi:21|AV-procd|sdf|121|dock10
  -GOLD-   2262015293D 1   1.00000     0.00000
 Structure written by MMmdl.
 62 65  0  0  0  0  0  0  0  0  2 V2000
  145.5499  132.4015  149.5499 C   0  0  0  0  0  0  0  0  0  0  0  0
  146.3551  132.5968  150.7010 O   0  0  0  0  0  0  0  0  0  0  0  0
  145.8306  133.5605  151.6020 C   0  0  1  0  0  0  0  0  0  0  0  0
  146.6829  133.6303  152.8614 C   0  0  0  0  0  0  0  0  0  0  0  0
  146.3587  135.0187  153.4196 C   0  0  1  0  0  0  0  0  0  0  0  0
  147.4613  135.5812  154.3414 C   0  0  0  0  0  0  0  0  0  0  0  0
  146.9617  136.0541  155.6308 N   0  0  0  0  0  0  0  0  0  0  0  0
  146.6718  135.0182  156.6118 C   0  0  0  0  0  0  0  0  0  0  0  0
  147.6690  137.0712  156.1695 C   0  0  0  0  0  0  0  0  0  0  0  0
  147.9572  136.9947  157.4917 N   0  0  0  0  0  0  0  0  0  0  0  0
  148.6455  137.9769  158.0820 C   0  0  0  0  0  0  0  0  0  0  0  0
  149.1288  139.0988  157.5431 N   0  0  0  0  0  0  0  0  0  0  0  0
  148.8404  139.1750  156.2121 C   0  0  0  0  0  0  0  0  0  0  0  0
  148.1195  138.2136  155.4505 C   0  0  0  0  0  0  0  0  0  0  0  0
  148.0192  138.6315  154.1288 N   0  0  0  0  0  0  0  0  0  0  0  0
  148.6558  139.7709  154.1073 C   0  0  0  0  0  0  0  0  0  0  0  0
  149.1837  140.1705  155.3142 N   0  0  0  0  0  0  0  0  0  0  0  0
  149.9343  141.3884  155.5678 C   0  0  0  0  0  0  0  0  0  0  0  0
  151.3521  141.1272  156.1370 C   0  0  2  0  0  0  0  0  0  0  0  0
  151.8470  139.7048  155.7662 C   0  0  0  0  0  0  0  0  0  0  0  0
  152.8043  139.7314  154.7289 O   0  0  0  0  0  0  0  0  0  0  0  0
  151.3764  141.3754  157.6712 C   0  0  2  0  0  0  0  0  0  0  0  0
  151.4402  142.8378  158.0830 C   0  0  0  0  0  0  0  0  0  0  0  0
  151.9072  142.7558  159.5320 C   0  0  0  0  0  0  0  0  0  0  0  0
  152.7211  141.5926  159.6105 O   0  0  0  0  0  0  0  0  0  0  0  0
  152.6100  140.8400  158.4073 C   0  0  0  0  0  0  0  0  0  0  0  0
  146.1606  135.8763  152.2278 N   0  3  2  0  0  0  0  0  0  0  0  0
  145.1521  136.9426  152.4130 C   0  0  0  0  0  0  0  0  0  0  0  0
  145.8972  134.9963  151.0643 C   0  0  0  0  0  0  0  0  0  0  0  0
  144.8060  133.3117  151.8855 H   0  0  0  0  0  0  0  0  0  0  0  0
  145.4064  134.9575  153.9503 H   0  0  0  0  0  0  0  0  0  0  0  0
  146.0001  131.6375  148.9160 H   0  0  0  0  0  0  0  0  0  0  0  0
  145.4646  133.3149  148.9604 H   0  0  0  0  0  0  0  0  0  0  0  0
  144.5487  132.0643  149.8212 H   0  0  0  0  0  0  0  0  0  0  0  0
  146.4625  132.8266  153.5648 H   0  0  0  0  0  0  0  0  0  0  0  0
  147.7400  133.5658  152.5982 H   0  0  0  0  0  0  0  0  0  0  0  0
  148.2111  134.8100  154.5219 H   0  0  0  0  0  0  0  0  0  0  0  0
  147.9844  136.3964  153.8409 H   0  0  0  0  0  0  0  0  0  0  0  0
  146.3178  135.4511  157.5486 H   0  0  0  0  0  0  0  0  0  0  0  0
  147.5581  134.4184  156.8225 H   0  0  0  0  0  0  0  0  0  0  0  0
  145.8938  134.3527  156.2370 H   0  0  0  0  0  0  0  0  0  0  0  0
  148.8386  137.8445  159.1365 H   0  0  0  0  0  0  0  0  0  0  0  0
  148.7624  140.3547  153.2043 H   0  0  0  0  0  0  0  0  0  0  0  0
  149.9877  141.9284  154.6229 H   0  0  0  0  0  0  0  0  0  0  0  0
  149.3638  142.0192  156.2506 H   0  0  0  0  0  0  0  0  0  0  0  0
  152.0224  141.8482  155.6657 H   0  0  0  0  0  0  0  0  0  0  0  0
  152.2643  139.2003  156.6381 H   0  0  0  0  0  0  0  0  0  0  0  0
  151.0336  139.0788  155.4031 H   0  0  0  0  0  0  0  0  0  0  0  0
  152.9147  138.8525  154.3995 H   0  0  0  0  0  0  0  0  0  0  0  0
  150.4864  140.9323  158.1218 H   0  0  0  0  0  0  0  0  0  0  0  0
  152.1789  143.3705  157.4822 H   0  0  0  0  0  0  0  0  0  0  0  0
  150.4858  143.3569  157.9912 H   0  0  0  0  0  0  0  0  0  0  0  0
  152.4525  143.6464  159.8446 H   0  0  0  0  0  0  0  0  0  0  0  0
  151.0547  142.6278  160.2000 H   0  0  0  0  0  0  0  0  0  0  0  0
  152.5379  139.7744  158.6254 H   0  0  0  0  0  0  0  0  0  0  0  0
  153.5135  141.0055  157.8190 H   0  0  0  0  0  0  0  0  0  0  0  0
  144.1609  136.5212  152.5859 H   0  0  0  0  0  0  0  0  0  0  0  0
  145.1040  137.5785  151.5285 H   0  0  0  0  0  0  0  0  0  0  0  0
  145.4096  137.5726  153.2650 H   0  0  0  0  0  0  0  0  0  0  0  0
  146.7344  135.1048  150.3738 H   0  0  0  0  0  0  0  0  0  0  0  0
  144.9890  135.2650  150.5227 H   0  0  0  0  0  0  0  0  0  0  0  0
  147.0451  136.3280  152.0433 H   0  0  0  0  0  0  0  0  0  0  0  0
  1  2  1  0  0  0  0
  1 32  1  0  0  0  0
  1 33  1  0  0  0  0
  1 34  1  0  0  0  0
  2  3  1  0  0  0  0
  3 30  1  0  0  0  0
  3 29  1  0  0  0  0
  3  4  1  0  0  0  0
  4  5  1  0  0  0  0
  4 35  1  0  0  0  0
  4 36  1  0  0  0  0
  5 31  1  0  0  0  0
  5  6  1  0  0  0  0
  5 27  1  0  0  0  0
  6  7  1  0  0  0  0
  6 37  1  0  0  0  0
  6 38  1  0  0  0  0
  7  8  1  0  0  0  0
  7  9  1  0  0  0  0
  8 39  1  0  0  0  0
  8 40  1  0  0  0  0
  8 41  1  0  0  0  0
  9 14  1  0  0  0  0
  9 10  2  0  0  0  0
 10 11  1  0  0  0  0
 11 12  2  0  0  0  0
 11 42  1  0  0  0  0
 12 13  1  0  0  0  0
 13 17  1  0  0  0  0
 13 14  2  0  0  0  0
 14 15  1  0  0  0  0
 15 16  2  0  0  0  0
 16 17  1  0  0  0  0
 16 43  1  0  0  0  0
 17 18  1  0  0  0  0
 18 19  1  0  0  0  0
 18 44  1  0  0  0  0
 18 45  1  0  0  0  0
 19 20  1  0  0  0  0
 19 22  1  0  0  0  0
 19 46  1  0  0  0  0
 20 21  1  0  0  0  0
 20 47  1  0  0  0  0
 20 48  1  0  0  0  0
 21 49  1  0  0  0  0
 22 26  1  0  0  0  0
 22 23  1  0  0  0  0
 22 50  1  0  0  0  0
 23 24  1  0  0  0  0
 23 51  1  0  0  0  0
 23 52  1  0  0  0  0
 24 25  1  0  0  0  0
 24 53  1  0  0  0  0
 24 54  1  0  0  0  0
 25 26  1  0  0  0  0
 26 55  1  0  0  0  0
 26 56  1  0  0  0  0
 27 28  1  0  0  0  0
 27 29  1  0  0  0  0
 27 62  1  0  0  0  0
 28 57  1  0  0  0  0
 28 58  1  0  0  0  0
 28 59  1  0  0  0  0
 29 60  1  0  0  0  0
 29 61  1  0  0  0  0
M  CHG  1  27   1
M  END
> <s_m_source_file>
AV-unprocessed.smi

> <i_m_source_file_index>
21

> <i_lp_mmshare_version>
43012

> <i_f3d_flags>
0

> <s_epik_input>
W0NIM11PW0NASF0xW0NIMl1bQ0BIXShOKFtDSDNdKVtDSDJdMSlbQ0gyXU4oW0NIM10pYyhuW2NIXW4yKWMoYzIzKW5bY0hdbjNbQ0gyXVtDQEhdKFtDSDJdW09IXSlbQ0BASF00W0NIMl1bQ0gyXU9bQ0gyXTQ=

> <s_epik_cmdline>
J2VwaWtfcHl0aG9uJywgJy1waCcsICc3LjAnLCAnLXRuJywgJzgnLCAnLW1hJywgJzIwMCcsICctbWV0YWxfYmluZGluZycsICctaW1hZScsICc8aW5maWxlLm1hZT4nLCAnLW9tYWUnLCAnPG91dGZpbGUubWFlPic=

> <r_lp_tautomer_probability>
1

> <r_epik_Ionization_Penalty>
0.0157465

> <r_epik_Ionization_Penalty_Charging>
0.015354

> <r_epik_Ionization_Penalty_Neutral>
0.000392529

> <r_epik_State_Penalty>
0.0120612

> <r_epik_Charging_Adjusted_Penalty>
0.0274152

> <i_epik_Tot_Q>
1

> <i_epik_Tot_abs_Q>
1

> <r_epik_Metal_State_Penalty>
0.0121253

> <b_epik_Metal_Only>
0

> <s_lp_Force_Field>
OPLS_2005

> <r_lp_Energy>
60.2547

> <b_lp_Chiralities_Consistent>
1

> <s_lp_Variant>
AV-unprocessed.smi:21-1

> <Gold.Version>
5.8.1

> <Gold.Id.Protein>
6NUR|6NUR_protein|mol2

> <Gold.PLP.Fitness>
44.4804

> <Gold.PLP.PLP>
-36.3311

> <Gold.PLP.part.hbond>
-2.9694

> <Gold.PLP.part.metal>
0.0000

> <Gold.PLP.part.buried>
-5.5890

> <Gold.PLP.part.nonpolar>
-28.8929

> <Gold.PLP.part.repulsive>
0.7454

> <Gold.PLP.ligand.clash>
0.0000

> <Gold.PLP.ligand.torsion>
2.7478

> <Gold.PLP.Chemscore.Hbond>
3.2841

> <Gold.PLP.Chemscore.CHOScore>
1.0000

> <Gold.PLP.Chemscore.Metal>
0.0000

> <Gold.Chemscore.Hbonds>
donor molecule, donor type, donor heavy atom, donor atom, acceptor molecule, acceptor atom, score
      L1  H    27    62       P1  7948  1.98
      P1  H  7989  7998       L1    21  0.34
      P1  H  7997  8010       L1    21  0.82
      L1  C    16    43       P1  7957  1.00

> <Gold.PLP.Chemscore.Internal.Correction>
0.7926

> <Gold.Rescore>
     Score         DG    S(hbond)    S(metal)    S(lipo)     H(rot)  DE(clash)    DE(int)     intcor
     10.53     -13.31       1.92        0.00      85.37       3.35       0.01       2.77       ----

> <Gold.Chemscore.Fitness>
10.5323

> <Gold.Chemscore.DG>
-13.3083

> <Gold.Chemscore.ZeroCoef>
-5.4800

> <Gold.Chemscore.Hbond>
1.9172

> <Gold.Chemscore.Metal>
0.0000

> <Gold.Chemscore.Lipo>
85.3707

> <Gold.Chemscore.Internal_Hbond>
0.0000

> <Gold.Chemscore.DEClash>
0.0089

> <Gold.Chemscore.DEInternal>
2.7671

> <Gold.Chemscore.Rot>
3.3452

> <Gold.Chemscore.Internal.Correction>
   9.000000E+99

> <Gold.Chemscore.Hbonds>
donor molecule, donor type, donor heavy atom, donor atom, acceptor molecule, acceptor atom, score
      L1  H    27    62       P1  7948  0.94
      P1  H  7989  7998       L1    21  0.03
      P1  H  7997  8010       L1    21  0.10

> <Gold.Chemscore.Hbond.Weighted>
-6.4035

> <Gold.Chemscore.Metal.Weighted>
-0.0000

> <Gold.Chemscore.Lipo.Weighted>
-9.9884

> <Gold.Chemscore.Internal_Hbond.Weighted>
0.0000

> <Gold.Chemscore.DEClash.Weighted>
0.0089

> <Gold.Chemscore.DEInternal.Weighted>
2.7671

> <Gold.Chemscore.Rot.Weighted>
8.5636

> <Gold.Chemscore.Internal.Correction.Weighted>
   9.000000E+99

> <Gold.Protein.RotatedTorsions>
[ 6907 6896 6895 6894 ] final -105.50 input  -60.11 | X-H torsion
[ 7974 7965 7964 7962 ] final  117.92 input  175.53 | X-H torsion
[ 8008 7997 7996 7995 ] final  105.60 input   59.86 | X-H torsion
[ 10167 10162 10161 10158 ] final -136.80 input  -65.29 | X-H torsion
[ 10718 10713 10712 10709 ] final  132.94 input   66.30 | X-H torsion
[ 10763 10752 10751 10750 ] final  164.34 input  -60.55 | X-H torsion
[ 11005 11000 10999 10996 ] final  126.77 input  -57.11 | X-H torsion

> <Gold.Protein.ActiveResidues>
 VAL166  LYS551  ARG553  GLY616  TRP617  ASP618  TYR619  PRO620  LYS621  CYS622 
 ASP623  PHE694  ASN695  SER759  ASP760  ASP761  ALA762  ILE779  LEU786  VAL792 
 PHE793  MET794  SER795  GLU796  ALA797  LYS798  CYS799  TRP800  GLU811  SER814 

> <Gold.Protein.RotatedAtoms>
  150.7340  134.0117  159.3671 H   0  0  0  0  0  0  0  0  0  0  0  0  # atno 6907 bound_to 6896
  151.8077  135.0688  160.0418 H   0  0  0  0  0  0  0  0  0  0  0  0  # atno 6908 bound_to 6896
  152.3095  133.5702  159.5708 H   0  0  0  0  0  0  0  0  0  0  0  0  # atno 6909 bound_to 6896
  145.1615  139.3152  143.4514 H   0  0  0  0  0  0  0  0  0  0  0  0  # atno 7974 bound_to 7965
  156.1673  140.3127  155.8911 H   0  0  0  0  0  0  0  0  0  0  0  0  # atno 8008 bound_to 7997
  155.3660  140.0479  157.3063 H   0  0  0  0  0  0  0  0  0  0  0  0  # atno 8009 bound_to 7997
  154.5205  140.2196  155.8996 H   0  0  0  0  0  0  0  0  0  0  0  0  # atno 8010 bound_to 7997
  139.8641  143.7039  152.2647 H   0  0  0  0  0  0  0  0  0  0  0  0  # atno 10167 bound_to 10162
  157.4822  131.1086  150.9667 H   0  0  0  0  0  0  0  0  0  0  0  0  # atno 10718 bound_to 10713
  154.3074  135.2758  155.2582 H   0  0  0  0  0  0  0  0  0  0  0  0  # atno 10763 bound_to 10752
  154.4993  135.5812  153.6522 H   0  0  0  0  0  0  0  0  0  0  0  0  # atno 10764 bound_to 10752
  152.9892  135.6154  154.3248 H   0  0  0  0  0  0  0  0  0  0  0  0  # atno 10765 bound_to 10752
  139.9473  134.9628  156.8755 H   0  0  0  0  0  0  0  0  0  0  0  0  # atno 11005 bound_to 11000
  146.3481  140.1727  142.8589 LP  0  0  0  0  0  0  0  0  0  0  0  0  # atno 17320 bound_to 7965
  145.0326  140.8883  143.5100 LP  0  0  0  0  0  0  0  0  0  0  0  0  # atno 17321 bound_to 7965
  139.7345  144.7574  151.0749 LP  0  0  0  0  0  0  0  0  0  0  0  0  # atno 17342 bound_to 10162
  140.7771  143.5047  150.9727 LP  0  0  0  0  0  0  0  0  0  0  0  0  # atno 17343 bound_to 10162
  157.0396  130.5744  149.5354 LP  0  0  0  0  0  0  0  0  0  0  0  0  # atno 17370 bound_to 10713
  156.0127  130.5220  150.8040 LP  0  0  0  0  0  0  0  0  0  0  0  0  # atno 17371 bound_to 10713
  140.5804  134.0358  155.7462 LP  0  0  0  0  0  0  0  0  0  0  0  0  # atno 17394 bound_to 11000
  141.1127  133.9591  157.2881 LP  0  0  0  0  0  0  0  0  0  0  0  0  # atno 17395 bound_to 11000

$$$$
