AV-unprocessed.smi:169|AV-procd|sdf|1404|dock1
  -GOLD-   2262019153D 1   1.00000     0.00000
 Structure written by MMmdl.
 56 60  0  0  0  0  0  0  0  0  2 V2000
  147.9844  145.0994  160.9480 C   0  0  0  0  0  0  0  0  0  0  0  0
  146.5413  145.3585  160.4791 C   0  0  0  0  0  0  0  0  0  0  0  0
  146.1094  144.5028  159.3428 N   0  3  2  0  0  0  0  0  0  0  0  0
  144.6950  144.7101  158.9414 C   0  0  0  0  0  0  0  0  0  0  0  0
  144.5340  144.6718  157.4098 C   0  0  0  0  0  0  0  0  0  0  0  0
  144.8717  143.3295  156.7268 C   0  0  2  0  0  0  0  0  0  0  0  0
  144.0061  142.1626  157.2147 C   0  0  0  0  0  0  0  0  0  0  0  0
  144.8413  141.4879  158.3091 C   0  0  0  0  0  0  0  0  0  0  0  0
  146.2201  142.1785  158.2680 C   0  0  2  0  0  0  0  0  0  0  0  0
  146.5011  143.0747  159.5001 C   0  0  0  0  0  0  0  0  0  0  0  0
  146.2453  142.9190  157.0085 N   0  0  0  0  0  0  0  0  0  0  0  0
  147.0283  142.3854  156.0358 C   0  0  0  0  0  0  0  0  0  0  0  0
  146.5705  142.2686  154.7614 N   0  0  0  0  0  0  0  0  0  0  0  0
  147.3450  141.7330  153.8129 C   0  0  0  0  0  0  0  0  0  0  0  0
  148.5873  141.2577  153.9203 N   0  0  0  0  0  0  0  0  0  0  0  0
  149.0523  141.3717  155.1972 C   0  0  0  0  0  0  0  0  0  0  0  0
  148.3467  141.9228  156.3030 C   0  0  0  0  0  0  0  0  0  0  0  0
  149.1449  141.8908  157.4399 N   0  0  0  0  0  0  0  0  0  0  0  0
  150.2573  141.3447  157.0302 C   0  0  0  0  0  0  0  0  0  0  0  0
  150.2830  140.9857  155.7004 N   0  0  0  0  0  0  0  0  0  0  0  0
  151.3854  140.3636  154.9802 C   0  0  0  0  0  0  0  0  0  0  0  0
  151.7164  138.9167  155.4208 C   0  0  0  0  0  0  0  0  0  0  0  0
  150.5944  137.9975  154.9187 C   0  0  0  0  0  0  0  0  0  0  0  0
  150.4265  138.1076  153.5197 O   0  0  0  0  0  0  0  0  0  0  0  0
  153.1441  138.4335  155.1138 C   0  0  0  0  0  0  0  0  0  0  0  0
  153.5653  138.6470  156.4773 O   0  0  0  0  0  0  0  0  0  0  0  0
  152.1780  138.6963  156.8723 C   0  0  0  0  0  0  0  0  0  0  0  0
  148.2212  145.7274  161.8072 H   0  0  0  0  0  0  0  0  0  0  0  0
  148.7138  145.3305  160.1724 H   0  0  0  0  0  0  0  0  0  0  0  0
  148.1333  144.0636  161.2535 H   0  0  0  0  0  0  0  0  0  0  0  0
  145.8559  145.2002  161.3128 H   0  0  0  0  0  0  0  0  0  0  0  0
  146.4300  146.4066  160.1984 H   0  0  0  0  0  0  0  0  0  0  0  0
  144.0401  143.9951  159.4400 H   0  0  0  0  0  0  0  0  0  0  0  0
  144.3648  145.6957  159.2722 H   0  0  0  0  0  0  0  0  0  0  0  0
  143.5063  144.9387  157.1613 H   0  0  0  0  0  0  0  0  0  0  0  0
  145.1530  145.4549  156.9699 H   0  0  0  0  0  0  0  0  0  0  0  0
  144.7063  143.4749  155.6589 H   0  0  0  0  0  0  0  0  0  0  0  0
  143.0240  142.4804  157.5664 H   0  0  0  0  0  0  0  0  0  0  0  0
  143.8464  141.4585  156.3970 H   0  0  0  0  0  0  0  0  0  0  0  0
  144.3626  141.5703  159.2851 H   0  0  0  0  0  0  0  0  0  0  0  0
  144.9413  140.4236  158.0930 H   0  0  0  0  0  0  0  0  0  0  0  0
  146.9693  141.3849  158.2683 H   0  0  0  0  0  0  0  0  0  0  0  0
  147.5777  143.0628  159.6754 H   0  0  0  0  0  0  0  0  0  0  0  0
  146.0515  142.6403  160.3927 H   0  0  0  0  0  0  0  0  0  0  0  0
  146.9060  141.6751  152.8276 H   0  0  0  0  0  0  0  0  0  0  0  0
  151.0949  141.1884  157.6939 H   0  0  0  0  0  0  0  0  0  0  0  0
  151.1403  140.4002  153.9183 H   0  0  0  0  0  0  0  0  0  0  0  0
  152.2610  141.0026  155.1018 H   0  0  0  0  0  0  0  0  0  0  0  0
  150.7959  136.9560  155.1716 H   0  0  0  0  0  0  0  0  0  0  0  0
  149.6429  138.2510  155.3874 H   0  0  0  0  0  0  0  0  0  0  0  0
  150.0376  137.3084  153.1983 H   0  0  0  0  0  0  0  0  0  0  0  0
  153.2067  137.3798  154.8363 H   0  0  0  0  0  0  0  0  0  0  0  0
  153.6885  139.0463  154.3970 H   0  0  0  0  0  0  0  0  0  0  0  0
  151.9576  139.5148  157.5555 H   0  0  0  0  0  0  0  0  0  0  0  0
  151.8487  137.7468  157.2983 H   0  0  0  0  0  0  0  0  0  0  0  0
  146.6500  144.8377  158.5578 H   0  0  0  0  0  0  0  0  0  0  0  0
  1  2  1  0  0  0  0
  1 28  1  0  0  0  0
  1 29  1  0  0  0  0
  1 30  1  0  0  0  0
  2  3  1  0  0  0  0
  2 31  1  0  0  0  0
  2 32  1  0  0  0  0
  3 10  1  0  0  0  0
  3  4  1  0  0  0  0
  3 56  1  0  0  0  0
  4  5  1  0  0  0  0
  4 33  1  0  0  0  0
  4 34  1  0  0  0  0
  5  6  1  0  0  0  0
  5 35  1  0  0  0  0
  5 36  1  0  0  0  0
  6 11  1  0  0  0  0
  6  7  1  0  0  0  0
  6 37  1  0  0  0  0
  7  8  1  0  0  0  0
  7 38  1  0  0  0  0
  7 39  1  0  0  0  0
  8  9  1  0  0  0  0
  8 40  1  0  0  0  0
  8 41  1  0  0  0  0
  9 10  1  0  0  0  0
  9 11  1  0  0  0  0
  9 42  1  0  0  0  0
 10 43  1  0  0  0  0
 10 44  1  0  0  0  0
 11 12  1  0  0  0  0
 12 17  1  0  0  0  0
 12 13  2  0  0  0  0
 13 14  1  0  0  0  0
 14 15  2  0  0  0  0
 14 45  1  0  0  0  0
 15 16  1  0  0  0  0
 16 20  1  0  0  0  0
 16 17  2  0  0  0  0
 17 18  1  0  0  0  0
 18 19  2  0  0  0  0
 19 20  1  0  0  0  0
 19 46  1  0  0  0  0
 20 21  1  0  0  0  0
 21 22  1  0  0  0  0
 21 47  1  0  0  0  0
 21 48  1  0  0  0  0
 22 27  1  0  0  0  0
 22 23  1  0  0  0  0
 22 25  1  0  0  0  0
 23 24  1  0  0  0  0
 23 49  1  0  0  0  0
 23 50  1  0  0  0  0
 24 51  1  0  0  0  0
 25 26  1  0  0  0  0
 25 52  1  0  0  0  0
 25 53  1  0  0  0  0
 26 27  1  0  0  0  0
 27 54  1  0  0  0  0
 27 55  1  0  0  0  0
M  CHG  1   3   1
M  END
> <s_m_source_file>
AV-unprocessed.smi

> <i_m_source_file_index>
169

> <i_lp_mmshare_version>
43012

> <i_f3d_flags>
0

> <s_epik_input>
W0NASF0xMltDSDJdW0NIMl1OKFtDSDJdW0NIM10pW0NIMl1bQ0BIXShbQ0gyXVtDSDJdMSlOMmMobltjSF1uMyljKGMzNCluW2NIXW40W0NIMl1DNShbQ0gyXVtPSF0pW0NIMl1PW0NIMl01

> <s_epik_cmdline>
J2VwaWtfcHl0aG9uJywgJy1waCcsICc3LjAnLCAnLXRuJywgJzgnLCAnLW1hJywgJzIwMCcsICctbWV0YWxfYmluZGluZycsICctaW1hZScsICc8aW5maWxlLm1hZT4nLCAnLW9tYWUnLCAnPG91dGZpbGUubWFlPic=

> <r_lp_tautomer_probability>
1

> <r_epik_Ionization_Penalty>
0.00274162

> <r_epik_Ionization_Penalty_Charging>
0.00243722

> <r_epik_Ionization_Penalty_Neutral>
0.000304399

> <r_epik_State_Penalty>
-0

> <r_epik_Charging_Adjusted_Penalty>
0.00243722

> <i_epik_Tot_Q>
1

> <i_epik_Tot_abs_Q>
1

> <r_epik_Metal_State_Penalty>
-0

> <b_epik_Metal_Only>
0

> <s_lp_Force_Field>
OPLS_2005

> <r_lp_Energy>
74.1365

> <b_lp_Chiralities_Consistent>
1

> <s_lp_Variant>
AV-unprocessed.smi:169-7

> <Gold.Version>
5.8.1

> <Gold.Id.Protein>
6NUR|6NUR_protein|mol2

> <Gold.PLP.Fitness>
46.0210

> <Gold.PLP.PLP>
-33.9973

> <Gold.PLP.part.hbond>
-5.4208

> <Gold.PLP.part.metal>
0.0000

> <Gold.PLP.part.buried>
1.1215

> <Gold.PLP.part.nonpolar>
-29.7232

> <Gold.PLP.part.repulsive>
0.6293

> <Gold.PLP.ligand.clash>
0.0000

> <Gold.PLP.ligand.torsion>
0.5313

> <Gold.PLP.Chemscore.Hbond>
4.1570

> <Gold.PLP.Chemscore.CHOScore>
0.0000

> <Gold.PLP.Chemscore.Metal>
0.0000

> <Gold.Chemscore.Hbonds>
donor molecule, donor type, donor heavy atom, donor atom, acceptor molecule, acceptor atom, score
      L1  H     3    56       P1  8029  1.79
      L1  H    24    51       P1  7948  0.95
      P1  H  7997  8008       L1    26  0.85
      P1  H  8011  8017       L1    15  0.25

> <Gold.PLP.Chemscore.Internal.Correction>
0.6152

> <Gold.Rescore>
     Score         DG    S(hbond)    S(metal)    S(lipo)     H(rot)  DE(clash)    DE(int)     intcor
     12.18     -14.16       2.57        0.00      58.12       2.62       1.41       0.57       ----

> <Gold.Chemscore.Fitness>
12.1826

> <Gold.Chemscore.DG>
-14.1556

> <Gold.Chemscore.ZeroCoef>
-5.4800

> <Gold.Chemscore.Hbond>
2.5705

> <Gold.Chemscore.Metal>
0.0000

> <Gold.Chemscore.Lipo>
58.1233

> <Gold.Chemscore.Internal_Hbond>
0.0000

> <Gold.Chemscore.DEClash>
1.4078

> <Gold.Chemscore.DEInternal>
0.5652

> <Gold.Chemscore.Rot>
2.6212

> <Gold.Chemscore.Internal.Correction>
   9.000000E+99

> <Gold.Chemscore.Hbonds>
donor molecule, donor type, donor heavy atom, donor atom, acceptor molecule, acceptor atom, score
      L1  H     3    56       P1  8029  0.85
      L1  H    24    51       P1  7948  0.20
      P1  H  7997  8008       L1    26  0.60
      P1  H  8011  8017       L1    15  0.10

> <Gold.Chemscore.Hbond.Weighted>
-8.5854

> <Gold.Chemscore.Metal.Weighted>
-0.0000

> <Gold.Chemscore.Lipo.Weighted>
-6.8004

> <Gold.Chemscore.Internal_Hbond.Weighted>
0.0000

> <Gold.Chemscore.DEClash.Weighted>
1.4078

> <Gold.Chemscore.DEInternal.Weighted>
0.5652

> <Gold.Chemscore.Rot.Weighted>
6.7102

> <Gold.Chemscore.Internal.Correction.Weighted>
   9.000000E+99

> <Gold.Protein.RotatedTorsions>
[ 6907 6896 6895 6894 ] final -137.35 input  -60.11 | X-H torsion
[ 7974 7965 7964 7962 ] final  170.33 input  175.53 | X-H torsion
[ 8008 7997 7996 7995 ] final  -60.63 input   59.86 | X-H torsion
[ 10167 10162 10161 10158 ] final  175.73 input  -65.29 | X-H torsion
[ 10718 10713 10712 10709 ] final  161.32 input   66.30 | X-H torsion
[ 10763 10752 10751 10750 ] final -179.70 input  -60.55 | X-H torsion
[ 11005 11000 10999 10996 ] final  -25.19 input  -57.11 | X-H torsion

> <Gold.Protein.ActiveResidues>
 VAL166  LYS551  ARG553  GLY616  TRP617  ASP618  TYR619  PRO620  LYS621  CYS622 
 ASP623  PHE694  ASN695  SER759  ASP760  ASP761  ALA762  ILE779  LEU786  VAL792 
 PHE793  MET794  SER795  GLU796  ALA797  LYS798  CYS799  TRP800  GLU811  SER814 

> <Gold.Protein.RotatedAtoms>
  151.0214  133.5873  159.2670 H   0  0  0  0  0  0  0  0  0  0  0  0  # atno 6907 bound_to 6896
  151.2988  135.0762  159.9241 H   0  0  0  0  0  0  0  0  0  0  0  0  # atno 6908 bound_to 6896
  152.5324  133.9900  159.7900 H   0  0  0  0  0  0  0  0  0  0  0  0  # atno 6909 bound_to 6896
  144.7327  139.9186  143.6419 H   0  0  0  0  0  0  0  0  0  0  0  0  # atno 7974 bound_to 7965
  154.4408  140.1035  156.6304 H   0  0  0  0  0  0  0  0  0  0  0  0  # atno 8008 bound_to 7997
  155.5611  140.3487  155.4473 H   0  0  0  0  0  0  0  0  0  0  0  0  # atno 8009 bound_to 7997
  156.0459  140.1292  157.0094 H   0  0  0  0  0  0  0  0  0  0  0  0  # atno 8010 bound_to 7997
  139.5188  144.2998  152.0389 H   0  0  0  0  0  0  0  0  0  0  0  0  # atno 10167 bound_to 10162
  157.1382  131.0534  151.2339 H   0  0  0  0  0  0  0  0  0  0  0  0  # atno 10718 bound_to 10713
  154.5318  135.2800  155.1174 H   0  0  0  0  0  0  0  0  0  0  0  0  # atno 10763 bound_to 10752
  154.2691  135.6307  153.5307 H   0  0  0  0  0  0  0  0  0  0  0  0  # atno 10764 bound_to 10752
  152.9958  135.5624  154.5833 H   0  0  0  0  0  0  0  0  0  0  0  0  # atno 10765 bound_to 10752
  140.8915  133.7585  156.0427 H   0  0  0  0  0  0  0  0  0  0  0  0  # atno 11005 bound_to 11000
  146.0946  139.3938  143.0384 LP  0  0  0  0  0  0  0  0  0  0  0  0  # atno 17320 bound_to 7965
  145.7663  140.9915  143.1173 LP  0  0  0  0  0  0  0  0  0  0  0  0  # atno 17321 bound_to 7965
  140.2446  144.4234  150.6246 LP  0  0  0  0  0  0  0  0  0  0  0  0  # atno 17342 bound_to 10162
  140.6267  143.2182  151.6581 LP  0  0  0  0  0  0  0  0  0  0  0  0  # atno 17343 bound_to 10162
  157.4331  130.7501  149.7006 LP  0  0  0  0  0  0  0  0  0  0  0  0  # atno 17370 bound_to 10713
  155.9794  130.4041  150.3591 LP  0  0  0  0  0  0  0  0  0  0  0  0  # atno 17371 bound_to 10713
  140.8341  134.3144  157.5338 LP  0  0  0  0  0  0  0  0  0  0  0  0  # atno 17394 bound_to 11000
  139.8730  134.9379  156.3701 LP  0  0  0  0  0  0  0  0  0  0  0  0  # atno 17395 bound_to 11000

$$$$
