AV-unprocessed.smi:148|AV-procd|sdf|1205|dock3
  -GOLD-   2262018373D 1   1.00000     0.00000
 Structure written by MMmdl.
 63 67  0  0  0  0  0  0  0  0  1 V2000
  155.3895  139.1427  159.9619 O   0  0  0  0  0  0  0  0  0  0  0  0
  154.3990  139.9591  160.5511 C   0  0  0  0  0  0  0  0  0  0  0  0
  153.5071  140.6067  159.4657 C   0  0  1  0  0  0  0  0  0  0  0  0
  152.9721  139.5257  158.4923 C   0  0  0  0  0  0  0  0  0  0  0  0
  152.0904  138.5604  159.1248 N   0  0  0  0  0  0  0  0  0  0  0  0
  152.3806  137.7639  160.2103 C   0  0  0  0  0  0  0  0  0  0  0  0
  151.4135  136.9776  160.5973 N   0  0  0  0  0  0  0  0  0  0  0  0
  150.3843  137.2465  159.7043 C   0  0  0  0  0  0  0  0  0  0  0  0
  149.0639  136.7506  159.5433 C   0  0  0  0  0  0  0  0  0  0  0  0
  148.5448  135.8175  160.3768 N   0  0  0  0  0  0  0  0  0  0  0  0
  148.0808  136.4832  161.5959 C   0  0  0  0  0  0  0  0  0  0  0  0
  147.6732  135.4752  162.6770 C   0  0  0  0  0  0  0  0  0  0  0  0
  146.6272  134.5029  162.1254 C   0  0  0  0  0  0  0  0  0  0  0  0
  147.1854  133.8060  160.8794 C   0  0  0  0  0  0  0  0  0  0  0  0
  147.6212  134.8243  159.7921 C   0  0  2  0  0  0  0  0  0  0  0  0
  148.1863  134.1326  158.5071 C   0  0  2  0  0  0  0  0  0  0  0  0
  147.1712  133.2610  157.7479 C   0  0  0  0  0  0  0  0  0  0  0  0
  147.9942  132.2363  156.9497 C   0  0  0  0  0  0  0  0  0  0  0  0
  149.4598  132.4555  157.3424 C   0  0  0  0  0  0  0  0  0  0  0  0
  149.4031  133.2067  158.6731 C   0  0  1  0  0  0  0  0  0  0  0  0
  150.6037  133.9118  158.9085 O   0  0  0  0  0  0  0  0  0  0  0  0
  148.3086  137.2708  158.5387 N   0  0  0  0  0  0  0  0  0  0  0  0
  148.8244  138.1990  157.7270 C   0  0  0  0  0  0  0  0  0  0  0  0
  150.0431  138.7436  157.7492 N   0  0  0  0  0  0  0  0  0  0  0  0
  150.7941  138.2354  158.7682 C   0  0  0  0  0  0  0  0  0  0  0  0
  152.3770  141.5036  160.0455 C   0  0  2  0  0  0  0  0  0  0  0  0
  151.6625  142.4082  159.0398 C   0  0  0  0  0  0  0  0  0  0  0  0
  151.6393  143.7782  159.7189 C   0  0  0  0  0  0  0  0  0  0  0  0
  151.8223  143.4898  161.0958 O   0  0  0  0  0  0  0  0  0  0  0  0
  152.7944  142.4613  161.1677 C   0  0  0  0  0  0  0  0  0  0  0  0
  155.2488  138.2505  160.2399 H   0  0  0  0  0  0  0  0  0  0  0  0
  153.8084  139.3511  161.2364 H   0  0  0  0  0  0  0  0  0  0  0  0
  154.9100  140.7085  161.1536 H   0  0  0  0  0  0  0  0  0  0  0  0
  154.1458  141.2754  158.8864 H   0  0  0  0  0  0  0  0  0  0  0  0
  152.4215  139.9882  157.6723 H   0  0  0  0  0  0  0  0  0  0  0  0
  153.8039  138.9858  158.0379 H   0  0  0  0  0  0  0  0  0  0  0  0
  153.3352  137.7901  160.7155 H   0  0  0  0  0  0  0  0  0  0  0  0
  148.8636  137.1330  161.9908 H   0  0  0  0  0  0  0  0  0  0  0  0
  147.2310  137.1237  161.3536 H   0  0  0  0  0  0  0  0  0  0  0  0
  148.5513  134.9233  163.0152 H   0  0  0  0  0  0  0  0  0  0  0  0
  147.2786  135.9998  163.5475 H   0  0  0  0  0  0  0  0  0  0  0  0
  146.3633  133.7655  162.8838 H   0  0  0  0  0  0  0  0  0  0  0  0
  145.7116  135.0396  161.8743 H   0  0  0  0  0  0  0  0  0  0  0  0
  148.0337  133.1974  161.1906 H   0  0  0  0  0  0  0  0  0  0  0  0
  146.4347  133.1172  160.4958 H   0  0  0  0  0  0  0  0  0  0  0  0
  146.7272  135.3743  159.4936 H   0  0  0  0  0  0  0  0  0  0  0  0
  148.4735  134.8966  157.7845 H   0  0  0  0  0  0  0  0  0  0  0  0
  146.5071  132.7285  158.4269 H   0  0  0  0  0  0  0  0  0  0  0  0
  146.5392  133.8670  157.0977 H   0  0  0  0  0  0  0  0  0  0  0  0
  147.6787  131.2247  157.2084 H   0  0  0  0  0  0  0  0  0  0  0  0
  147.8549  132.3559  155.8745 H   0  0  0  0  0  0  0  0  0  0  0  0
  150.0201  131.5227  157.4106 H   0  0  0  0  0  0  0  0  0  0  0  0
  149.9427  133.0745  156.5842 H   0  0  0  0  0  0  0  0  0  0  0  0
  149.2480  132.4826  159.4720 H   0  0  0  0  0  0  0  0  0  0  0  0
  150.8086  134.4229  158.1406 H   0  0  0  0  0  0  0  0  0  0  0  0
  148.1658  138.5596  156.9506 H   0  0  0  0  0  0  0  0  0  0  0  0
  151.5956  140.8617  160.4533 H   0  0  0  0  0  0  0  0  0  0  0  0
  152.1421  142.4559  158.0628 H   0  0  0  0  0  0  0  0  0  0  0  0
  150.6456  142.0480  158.8776 H   0  0  0  0  0  0  0  0  0  0  0  0
  152.4677  144.3954  159.3675 H   0  0  0  0  0  0  0  0  0  0  0  0
  150.7102  144.3205  159.5418 H   0  0  0  0  0  0  0  0  0  0  0  0
  152.7986  141.9825  162.1471 H   0  0  0  0  0  0  0  0  0  0  0  0
  153.7790  142.8970  160.9978 H   0  0  0  0  0  0  0  0  0  0  0  0
  1  2  1  0  0  0  0
  1 31  1  0  0  0  0
  2  3  1  0  0  0  0
  2 32  1  0  0  0  0
  2 33  1  0  0  0  0
  3  4  1  0  0  0  0
  3 26  1  0  0  0  0
  3 34  1  0  0  0  0
  4  5  1  0  0  0  0
  4 35  1  0  0  0  0
  4 36  1  0  0  0  0
  5 25  1  0  0  0  0
  5  6  1  0  0  0  0
  6  7  2  0  0  0  0
  6 37  1  0  0  0  0
  7  8  1  0  0  0  0
  8 25  2  0  0  0  0
  8  9  1  0  0  0  0
  9 10  1  0  0  0  0
  9 22  2  0  0  0  0
 10 15  1  0  0  0  0
 10 11  1  0  0  0  0
 11 12  1  0  0  0  0
 11 38  1  0  0  0  0
 11 39  1  0  0  0  0
 12 13  1  0  0  0  0
 12 40  1  0  0  0  0
 12 41  1  0  0  0  0
 13 14  1  0  0  0  0
 13 42  1  0  0  0  0
 13 43  1  0  0  0  0
 14 15  1  0  0  0  0
 14 44  1  0  0  0  0
 14 45  1  0  0  0  0
 15 16  1  0  0  0  0
 15 46  1  0  0  0  0
 16 20  1  0  0  0  0
 16 17  1  0  0  0  0
 16 47  1  0  0  0  0
 17 18  1  0  0  0  0
 17 48  1  0  0  0  0
 17 49  1  0  0  0  0
 18 19  1  0  0  0  0
 18 50  1  0  0  0  0
 18 51  1  0  0  0  0
 19 20  1  0  0  0  0
 19 52  1  0  0  0  0
 19 53  1  0  0  0  0
 20 21  1  0  0  0  0
 20 54  1  0  0  0  0
 21 55  1  0  0  0  0
 22 23  1  0  0  0  0
 23 24  2  0  0  0  0
 23 56  1  0  0  0  0
 24 25  1  0  0  0  0
 26 30  1  0  0  0  0
 26 27  1  0  0  0  0
 26 57  1  0  0  0  0
 27 28  1  0  0  0  0
 27 58  1  0  0  0  0
 27 59  1  0  0  0  0
 28 29  1  0  0  0  0
 28 60  1  0  0  0  0
 28 61  1  0  0  0  0
 29 30  1  0  0  0  0
 30 62  1  0  0  0  0
 30 63  1  0  0  0  0
M  END
> <s_m_source_file>
AV-unprocessed.smi

> <i_m_source_file_index>
148

> <i_lp_mmshare_version>
43012

> <i_f3d_flags>
0

> <s_epik_input>
W0NIMl0xT1tDSDJdW0NIMl1bQ0BIXTFbQ0BIXShbQ0gyXVtPSF0pW0NIMl1uKFtjSF1uMiljKGMyMyluW2NIXW5jM040W0NIMl1bQ0gyXVtDSDJdW0NIMl1bQ0BIXTRbQ0BASF01W0NIMl1bQ0gyXVtDSDJdW0NASF01W09IXQ==

> <s_epik_cmdline>
J2VwaWtfcHl0aG9uJywgJy1waCcsICc3LjAnLCAnLXRuJywgJzgnLCAnLW1hJywgJzIwMCcsICctbWV0YWxfYmluZGluZycsICctaW1hZScsICc8aW5maWxlLm1hZT4nLCAnLW9tYWUnLCAnPG91dGZpbGUubWFlPic=

> <r_lp_tautomer_probability>
1

> <r_epik_Ionization_Penalty>
0.00556303

> <r_epik_Ionization_Penalty_Charging>
0

> <r_epik_Ionization_Penalty_Neutral>
0.00556303

> <r_epik_State_Penalty>
0.00401767

> <r_epik_Charging_Adjusted_Penalty>
0.00401767

> <i_epik_Tot_Q>
0

> <i_epik_Tot_abs_Q>
0

> <r_epik_Metal_State_Penalty>
-0

> <b_epik_Metal_Only>
0

> <s_lp_Force_Field>
OPLS_2005

> <r_lp_Energy>
67.6364

> <b_lp_Chiralities_Consistent>
1

> <s_lp_Variant>
AV-unprocessed.smi:148-4

> <Gold.Version>
5.8.1

> <Gold.Id.Protein>
6NUR|6NUR_protein|mol2

> <Gold.PLP.Fitness>
48.7209

> <Gold.PLP.PLP>
-40.7369

> <Gold.PLP.part.hbond>
-3.2560

> <Gold.PLP.part.metal>
0.0000

> <Gold.PLP.part.buried>
-4.8085

> <Gold.PLP.part.nonpolar>
-32.6410

> <Gold.PLP.part.repulsive>
0.0968

> <Gold.PLP.ligand.clash>
0.0000

> <Gold.PLP.ligand.torsion>
0.8551

> <Gold.PLP.Chemscore.Hbond>
3.0000

> <Gold.PLP.Chemscore.CHOScore>
0.0000

> <Gold.PLP.Chemscore.Metal>
0.0000

> <Gold.Chemscore.Hbonds>
donor molecule, donor type, donor heavy atom, donor atom, acceptor molecule, acceptor atom, score
      P1  H  6896  6908       L1     7  0.65

> <Gold.PLP.Chemscore.Internal.Correction>
0.6942

> <Gold.Rescore>
     Score         DG    S(hbond)    S(metal)    S(lipo)     H(rot)  DE(clash)    DE(int)     intcor
     16.41     -18.69       2.80        0.00     105.69       3.32       0.01       2.27       ----

> <Gold.Chemscore.Fitness>
16.4094

> <Gold.Chemscore.DG>
-18.6920

> <Gold.Chemscore.ZeroCoef>
-5.4800

> <Gold.Chemscore.Hbond>
2.7982

> <Gold.Chemscore.Metal>
0.0000

> <Gold.Chemscore.Lipo>
105.6920

> <Gold.Chemscore.Internal_Hbond>
0.0000

> <Gold.Chemscore.DEClash>
0.0084

> <Gold.Chemscore.DEInternal>
2.2742

> <Gold.Chemscore.Rot>
3.3203

> <Gold.Chemscore.Internal.Correction>
   9.000000E+99

> <Gold.Chemscore.Hbonds>
donor molecule, donor type, donor heavy atom, donor atom, acceptor molecule, acceptor atom, score
      P1  H  6896  6908       L1     7  0.05

> <Gold.Chemscore.Hbond.Weighted>
-9.3460

> <Gold.Chemscore.Metal.Weighted>
-0.0000

> <Gold.Chemscore.Lipo.Weighted>
-12.3660

> <Gold.Chemscore.Internal_Hbond.Weighted>
0.0000

> <Gold.Chemscore.DEClash.Weighted>
0.0084

> <Gold.Chemscore.DEInternal.Weighted>
2.2742

> <Gold.Chemscore.Rot.Weighted>
8.5000

> <Gold.Chemscore.Internal.Correction.Weighted>
   9.000000E+99

> <Gold.Protein.RotatedTorsions>
[ 6907 6896 6895 6894 ] final -120.11 input  -60.11 | X-H torsion
[ 7974 7965 7964 7962 ] final  111.95 input  175.53 | X-H torsion
[ 8008 7997 7996 7995 ] final   -9.74 input   59.86 | X-H torsion
[ 10167 10162 10161 10158 ] final -143.10 input  -65.29 | X-H torsion
[ 10718 10713 10712 10709 ] final -166.07 input   66.30 | X-H torsion
[ 10763 10752 10751 10750 ] final  -47.94 input  -60.55 | X-H torsion
[ 11005 11000 10999 10996 ] final -134.14 input  -57.11 | X-H torsion

> <Gold.Protein.ActiveResidues>
 VAL166  LYS551  ARG553  GLY616  TRP617  ASP618  TYR619  PRO620  LYS621  CYS622 
 ASP623  PHE694  ASN695  SER759  ASP760  ASP761  ALA762  ILE779  LEU786  VAL792 
 PHE793  MET794  SER795  GLU796  ALA797  LYS798  CYS799  TRP800  GLU811  SER814 

> <Gold.Protein.RotatedAtoms>
  150.8364  133.8007  159.3077 H   0  0  0  0  0  0  0  0  0  0  0  0  # atno 6907 bound_to 6896
  151.5721  135.1060  160.0007 H   0  0  0  0  0  0  0  0  0  0  0  0  # atno 6908 bound_to 6896
  152.4435  133.7451  159.6719 H   0  0  0  0  0  0  0  0  0  0  0  0  # atno 6909 bound_to 6896
  145.2357  139.2800  143.4144 H   0  0  0  0  0  0  0  0  0  0  0  0  # atno 7974 bound_to 7965
  154.5619  140.2347  155.8322 H   0  0  0  0  0  0  0  0  0  0  0  0  # atno 8008 bound_to 7997
  156.2036  140.3045  155.9539 H   0  0  0  0  0  0  0  0  0  0  0  0  # atno 8009 bound_to 7997
  155.2873  140.0425  157.3011 H   0  0  0  0  0  0  0  0  0  0  0  0  # atno 8010 bound_to 7997
  139.8026  143.7813  152.2659 H   0  0  0  0  0  0  0  0  0  0  0  0  # atno 10167 bound_to 10162
  156.6625  130.9051  151.3031 H   0  0  0  0  0  0  0  0  0  0  0  0  # atno 10718 bound_to 10713
  154.0697  135.6606  153.4822 H   0  0  0  0  0  0  0  0  0  0  0  0  # atno 10763 bound_to 10752
  153.0395  135.5154  154.7579 H   0  0  0  0  0  0  0  0  0  0  0  0  # atno 10764 bound_to 10752
  154.6641  135.3019  154.9796 H   0  0  0  0  0  0  0  0  0  0  0  0  # atno 10765 bound_to 10752
  140.9017  134.1681  157.4455 H   0  0  0  0  0  0  0  0  0  0  0  0  # atno 11005 bound_to 11000
  146.3341  140.2705  142.8605 LP  0  0  0  0  0  0  0  0  0  0  0  0  # atno 17320 bound_to 7965
  144.9635  140.8299  143.5499 LP  0  0  0  0  0  0  0  0  0  0  0  0  # atno 17321 bound_to 7965
  139.7937  144.7400  150.9919 LP  0  0  0  0  0  0  0  0  0  0  0  0  # atno 17342 bound_to 10162
  140.7820  143.4415  151.0544 LP  0  0  0  0  0  0  0  0  0  0  0  0  # atno 17343 bound_to 10162
  157.7105  130.9434  150.1072 LP  0  0  0  0  0  0  0  0  0  0  0  0  # atno 17370 bound_to 10713
  156.2000  130.3659  149.8800 LP  0  0  0  0  0  0  0  0  0  0  0  0  # atno 17371 bound_to 10713
  139.8743  134.9901  156.5486 LP  0  0  0  0  0  0  0  0  0  0  0  0  # atno 17394 bound_to 11000
  140.8221  133.8345  155.8905 LP  0  0  0  0  0  0  0  0  0  0  0  0  # atno 17395 bound_to 11000

$$$$
