AV-unprocessed.smi:3085|AV-procd|sdf|11762|dock3
  -GOLD-   2272017143D 1   1.00000     0.00000
 Structure written by MMmdl.
 26 27  0  0  0  0  0  0  0  0  2 V2000
  153.4911  142.3823  159.7476 C   0  0  0  0  0  0  0  0  0  0  0  0
  153.0713  140.9091  159.7815 C   0  0  0  0  0  0  0  0  0  0  0  0
  152.5870  140.4237  158.4329 C   0  0  0  0  0  0  0  0  0  0  0  0
  151.6446  140.9983  157.6928 N   0  0  0  0  0  0  0  0  0  0  0  0
  151.5548  140.2598  156.5766 C   0  0  0  0  0  0  0  0  0  0  0  0
  150.6223  140.5501  155.4171 C   0  0  2  0  0  0  0  0  0  0  0  0
  149.9214  141.9122  155.5966 C   0  0  0  0  0  0  0  0  0  0  0  0
  149.0177  142.1798  154.4776 N   0  0  0  0  0  0  0  0  0  0  0  0
  148.0615  141.0900  154.2966 C   0  0  0  0  0  0  0  0  0  0  0  0
  148.8020  139.7503  154.1457 C   0  0  0  0  0  0  0  0  0  0  0  0
  149.6290  139.5352  155.2834 O   0  0  0  0  0  0  0  0  0  0  0  0
  152.4451  139.2557  156.6007 N   0  0  0  0  0  0  0  0  0  0  0  0
  153.0739  139.3707  157.7529 N   0  5  0  0  0  0  0  0  0  0  0  0
  153.8302  142.7133  160.7291 H   0  0  0  0  0  0  0  0  0  0  0  0
  152.6580  143.0191  159.4491 H   0  0  0  0  0  0  0  0  0  0  0  0
  154.3055  142.5419  159.0405 H   0  0  0  0  0  0  0  0  0  0  0  0
  153.9098  140.2885  160.0991 H   0  0  0  0  0  0  0  0  0  0  0  0
  152.2767  140.7642  160.5142 H   0  0  0  0  0  0  0  0  0  0  0  0
  151.2313  140.5669  154.5109 H   0  0  0  0  0  0  0  0  0  0  0  0
  149.3624  141.9163  156.5334 H   0  0  0  0  0  0  0  0  0  0  0  0
  150.6629  142.7078  155.6718 H   0  0  0  0  0  0  0  0  0  0  0  0
  148.5176  143.0465  154.6471 H   0  0  0  0  0  0  0  0  0  0  0  0
  147.3877  141.0415  155.1527 H   0  0  0  0  0  0  0  0  0  0  0  0
  147.4421  141.2773  153.4194 H   0  0  0  0  0  0  0  0  0  0  0  0
  148.0852  138.9325  154.0719 H   0  0  0  0  0  0  0  0  0  0  0  0
  149.4006  139.7324  153.2335 H   0  0  0  0  0  0  0  0  0  0  0  0
  1  2  1  0  0  0  0
  1 14  1  0  0  0  0
  1 15  1  0  0  0  0
  1 16  1  0  0  0  0
  2  3  1  0  0  0  0
  2 17  1  0  0  0  0
  2 18  1  0  0  0  0
  3 13  1  0  0  0  0
  3  4  2  0  0  0  0
  4  5  1  0  0  0  0
  5  6  1  0  0  0  0
  5 12  2  0  0  0  0
  6 11  1  0  0  0  0
  6  7  1  0  0  0  0
  6 19  1  0  0  0  0
  7  8  1  0  0  0  0
  7 20  1  0  0  0  0
  7 21  1  0  0  0  0
  8  9  1  0  0  0  0
  8 22  1  0  0  0  0
  9 10  1  0  0  0  0
  9 23  1  0  0  0  0
  9 24  1  0  0  0  0
 10 11  1  0  0  0  0
 10 25  1  0  0  0  0
 10 26  1  0  0  0  0
 12 13  1  0  0  0  0
M  CHG  1  13  -1
M  END
> <s_m_source_file>
AV-unprocessed.smi

> <i_m_source_file_index>
3085

> <i_lp_mmshare_version>
43012

> <i_f3d_flags>
0

> <s_epik_input>
W0NIM11bQ0gyXWMxbmMobltuSF0xKVtDQEBIXTJbQ0gyXVtOSF1bQ0gyXVtDSDJdTzI=

> <s_epik_cmdline>
J2VwaWtfcHl0aG9uJywgJy1waCcsICc3LjAnLCAnLXRuJywgJzgnLCAnLW1hJywgJzIwMCcsICctbWV0YWxfYmluZGluZycsICctaW1hZScsICc8aW5maWxlLm1hZT4nLCAnLW9tYWUnLCAnPG91dGZpbGUubWFlPic=

> <r_lp_tautomer_probability>
0.948284

> <r_epik_Ionization_Penalty>
17.858

> <r_epik_Ionization_Penalty_Charging>
16.2847

> <r_epik_Ionization_Penalty_Neutral>
1.5733

> <r_epik_State_Penalty>
7.01418

> <r_epik_Charging_Adjusted_Penalty>
23.2989

> <i_epik_Tot_Q>
-1

> <i_epik_Tot_abs_Q>
1

> <r_epik_Metal_State_Penalty>
3.17281

> <b_epik_Metal_Only>
1

> <s_lp_Force_Field>
OPLS_2005

> <r_lp_Energy>
10.8419

> <b_lp_Chiralities_Consistent>
1

> <s_lp_Variant>
AV-unprocessed.smi:3085-13

> <Gold.Version>
5.8.1

> <Gold.Id.Protein>
6NUR|6NUR_protein|mol2

> <Gold.PLP.Fitness>
31.3058

> <Gold.PLP.PLP>
-22.8547

> <Gold.PLP.part.hbond>
-3.7708

> <Gold.PLP.part.metal>
0.0000

> <Gold.PLP.part.buried>
0.1771

> <Gold.PLP.part.nonpolar>
-18.7015

> <Gold.PLP.part.repulsive>
0.0462

> <Gold.PLP.ligand.clash>
0.0000

> <Gold.PLP.ligand.torsion>
0.1758

> <Gold.PLP.Chemscore.Hbond>
2.9291

> <Gold.PLP.Chemscore.CHOScore>
0.0000

> <Gold.PLP.Chemscore.Metal>
0.0000

> <Gold.Chemscore.Hbonds>
donor molecule, donor type, donor heavy atom, donor atom, acceptor molecule, acceptor atom, score
      L1  H     8    22       P1  8028  0.74
      P1  H  7997  8009       L1    13  1.90
      P1  H  8011  8017       L1     8  0.10

> <Gold.PLP.Chemscore.Internal.Correction>
0.0154

> <Gold.Rescore>
     Score         DG    S(hbond)    S(metal)    S(lipo)     H(rot)  DE(clash)    DE(int)     intcor
      9.76     -10.49       0.90        0.00      44.83       1.26       0.37       0.36       ----

> <Gold.Chemscore.Fitness>
9.7598

> <Gold.Chemscore.DG>
-10.4922

> <Gold.Chemscore.ZeroCoef>
-5.4800

> <Gold.Chemscore.Hbond>
0.8983

> <Gold.Chemscore.Metal>
0.0000

> <Gold.Chemscore.Lipo>
44.8307

> <Gold.Chemscore.Internal_Hbond>
0.0000

> <Gold.Chemscore.DEClash>
0.3703

> <Gold.Chemscore.DEInternal>
0.3620

> <Gold.Chemscore.Rot>
1.2630

> <Gold.Chemscore.Internal.Correction>
   9.000000E+99

> <Gold.Chemscore.Hbonds>
donor molecule, donor type, donor heavy atom, donor atom, acceptor molecule, acceptor atom, score
      L1  H     8    22       P1  8028  0.73
      P1  H  7997  8009       L1    13  0.07
      P1  H  8011  8017       L1     8  0.01

> <Gold.Chemscore.Hbond.Weighted>
-3.0002

> <Gold.Chemscore.Metal.Weighted>
-0.0000

> <Gold.Chemscore.Lipo.Weighted>
-5.2452

> <Gold.Chemscore.Internal_Hbond.Weighted>
0.0000

> <Gold.Chemscore.DEClash.Weighted>
0.3703

> <Gold.Chemscore.DEInternal.Weighted>
0.3620

> <Gold.Chemscore.Rot.Weighted>
3.2333

> <Gold.Chemscore.Internal.Correction.Weighted>
   9.000000E+99

> <Gold.Protein.RotatedTorsions>
[ 6907 6896 6895 6894 ] final   40.42 input  -60.11 | X-H torsion
[ 7974 7965 7964 7962 ] final  -28.95 input  175.53 | X-H torsion
[ 8008 7997 7996 7995 ] final  144.37 input   59.86 | X-H torsion
[ 10167 10162 10161 10158 ] final  -58.18 input  -65.29 | X-H torsion
[ 10718 10713 10712 10709 ] final  -98.26 input   66.30 | X-H torsion
[ 10763 10752 10751 10750 ] final -159.16 input  -60.55 | X-H torsion
[ 11005 11000 10999 10996 ] final -100.05 input  -57.11 | X-H torsion

> <Gold.Protein.ActiveResidues>
 VAL166  LYS551  ARG553  GLY616  TRP617  ASP618  TYR619  PRO620  LYS621  CYS622 
 ASP623  PHE694  ASN695  SER759  ASP760  ASP761  ALA762  ILE779  LEU786  VAL792 
 PHE793  MET794  SER795  GLU796  ALA797  LYS798  CYS799  TRP800  GLU811  SER814 

> <Gold.Protein.RotatedAtoms>
  152.1823  134.8744  160.0525 H   0  0  0  0  0  0  0  0  0  0  0  0  # atno 6907 bound_to 6896
  151.9663  133.3706  159.4062 H   0  0  0  0  0  0  0  0  0  0  0  0  # atno 6908 bound_to 6896
  150.6919  134.4110  159.5206 H   0  0  0  0  0  0  0  0  0  0  0  0  # atno 6909 bound_to 6896
  146.1251  140.5350  142.8718 H   0  0  0  0  0  0  0  0  0  0  0  0  # atno 7974 bound_to 7965
  156.2909  140.2237  156.5043 H   0  0  0  0  0  0  0  0  0  0  0  0  # atno 8008 bound_to 7997
  154.7663  140.0470  157.1036 H   0  0  0  0  0  0  0  0  0  0  0  0  # atno 8009 bound_to 7997
  154.9929  140.3092  155.4902 H   0  0  0  0  0  0  0  0  0  0  0  0  # atno 8010 bound_to 7997
  140.6213  143.2421  151.5473 H   0  0  0  0  0  0  0  0  0  0  0  0  # atno 10167 bound_to 10162
  156.0103  130.5230  150.6496 H   0  0  0  0  0  0  0  0  0  0  0  0  # atno 10718 bound_to 10713
  154.7498  135.3089  154.8578 H   0  0  0  0  0  0  0  0  0  0  0  0  # atno 10763 bound_to 10752
  153.9369  135.6779  153.4749 H   0  0  0  0  0  0  0  0  0  0  0  0  # atno 10764 bound_to 10752
  153.1094  135.4873  154.8936 H   0  0  0  0  0  0  0  0  0  0  0  0  # atno 10765 bound_to 10752
  141.1286  133.8368  157.1051 H   0  0  0  0  0  0  0  0  0  0  0  0  # atno 11005 bound_to 11000
  144.7635  140.5476  143.6719 LP  0  0  0  0  0  0  0  0  0  0  0  0  # atno 17320 bound_to 7965
  145.5382  139.1475  143.3461 LP  0  0  0  0  0  0  0  0  0  0  0  0  # atno 17321 bound_to 7965
  139.5441  144.2568  152.1409 LP  0  0  0  0  0  0  0  0  0  0  0  0  # atno 17342 bound_to 10162
  140.1789  144.4864  150.6539 LP  0  0  0  0  0  0  0  0  0  0  0  0  # atno 17343 bound_to 10162
  157.4260  131.0843  151.1085 LP  0  0  0  0  0  0  0  0  0  0  0  0  # atno 17370 bound_to 10713
  157.1673  130.6252  149.5629 LP  0  0  0  0  0  0  0  0  0  0  0  0  # atno 17371 bound_to 10713
  140.0309  134.9901  157.0779 LP  0  0  0  0  0  0  0  0  0  0  0  0  # atno 17394 bound_to 11000
  140.4286  134.1804  155.7167 LP  0  0  0  0  0  0  0  0  0  0  0  0  # atno 17395 bound_to 11000

$$$$
