AV-unprocessed.smi:746|AV-procd|sdf|3576|dock3
  -GOLD-   22720 0563D 1   1.00000     0.00000
 Structure written by MMmdl.
 48 50  0  0  0  0  0  0  0  0  1 V2000
  148.4789  133.0114  153.0480 C   0  0  0  0  0  0  0  0  0  0  0  0
  148.9350  133.8931  154.0590 O   0  0  0  0  0  0  0  0  0  0  0  0
  149.8168  133.2621  154.9725 C   0  0  0  0  0  0  0  0  0  0  0  0
  150.7256  134.3215  155.6019 C   0  0  0  0  0  0  0  0  0  0  0  0
  150.0751  134.8605  156.7489 O   0  0  0  0  0  0  0  0  0  0  0  0
  150.5528  136.0394  157.2839 C   0  0  0  0  0  0  0  0  0  0  0  0
  151.3691  136.8615  156.4819 C   0  0  0  0  0  0  0  0  0  0  0  0
  151.8630  138.0652  157.0205 C   0  0  0  0  0  0  0  0  0  0  0  0
  151.5299  138.4048  158.3533 C   0  0  0  0  0  0  0  0  0  0  0  0
  151.9468  139.5965  159.0048 N   0  0  0  0  0  0  0  0  0  0  0  0
  152.0375  140.8451  158.5046 C   0  0  0  0  0  0  0  0  0  0  0  0
  151.6323  141.1553  157.3851 O   0  0  0  0  0  0  0  0  0  0  0  0
  152.5152  141.7447  159.4019 N   0  0  0  0  0  0  0  0  0  0  0  0
  153.4588  141.3817  160.4836 C   0  0  0  0  0  0  0  0  0  0  0  0
  153.0015  141.9699  161.8356 C   0  0  0  0  0  0  0  0  0  0  0  0
  152.8045  143.4949  161.7493 C   0  0  0  0  0  0  0  0  0  0  0  0
  151.8978  143.8200  160.5562 C   0  0  1  0  0  0  0  0  0  0  0  0
  151.7030  145.2968  160.2077 C   0  0  0  0  0  0  0  0  0  0  0  0
  151.3232  145.2965  158.7149 C   0  0  0  0  0  0  0  0  0  0  0  0
  151.5162  143.8522  158.2183 C   0  0  0  0  0  0  0  0  0  0  0  0
  152.4467  143.2143  159.2635 C   0  0  2  0  0  0  0  0  0  0  0  0
  150.6920  137.5226  159.0657 C   0  0  0  0  0  0  0  0  0  0  0  0
  150.2166  136.3670  158.5560 N   0  0  0  0  0  0  0  0  0  0  0  0
  147.8073  133.5429  152.3739 H   0  0  0  0  0  0  0  0  0  0  0  0
  147.9306  132.1711  153.4759 H   0  0  0  0  0  0  0  0  0  0  0  0
  149.3103  132.6237  152.4577 H   0  0  0  0  0  0  0  0  0  0  0  0
  149.2489  132.7486  155.7499 H   0  0  0  0  0  0  0  0  0  0  0  0
  150.4196  132.5144  154.4547 H   0  0  0  0  0  0  0  0  0  0  0  0
  151.6771  133.8671  155.8830 H   0  0  0  0  0  0  0  0  0  0  0  0
  150.9282  135.1100  154.8751 H   0  0  0  0  0  0  0  0  0  0  0  0
  151.6092  136.5763  155.4683 H   0  0  0  0  0  0  0  0  0  0  0  0
  152.4700  138.7051  156.3993 H   0  0  0  0  0  0  0  0  0  0  0  0
  152.3281  139.4709  159.9311 H   0  0  0  0  0  0  0  0  0  0  0  0
  153.6055  140.3070  160.5947 H   0  0  0  0  0  0  0  0  0  0  0  0
  154.4440  141.7761  160.2303 H   0  0  0  0  0  0  0  0  0  0  0  0
  152.0650  141.4977  162.1357 H   0  0  0  0  0  0  0  0  0  0  0  0
  153.7293  141.7331  162.6122 H   0  0  0  0  0  0  0  0  0  0  0  0
  152.3730  143.8775  162.6747 H   0  0  0  0  0  0  0  0  0  0  0  0
  153.7723  143.9827  161.6257 H   0  0  0  0  0  0  0  0  0  0  0  0
  150.9128  143.3890  160.7491 H   0  0  0  0  0  0  0  0  0  0  0  0
  150.9422  145.7678  160.8311 H   0  0  0  0  0  0  0  0  0  0  0  0
  152.6347  145.8459  160.3501 H   0  0  0  0  0  0  0  0  0  0  0  0
  150.2941  145.6234  158.5624 H   0  0  0  0  0  0  0  0  0  0  0  0
  151.9682  145.9831  158.1655 H   0  0  0  0  0  0  0  0  0  0  0  0
  150.5486  143.3482  158.2051 H   0  0  0  0  0  0  0  0  0  0  0  0
  151.9290  143.8178  157.2096 H   0  0  0  0  0  0  0  0  0  0  0  0
  153.4573  143.5875  159.0841 H   0  0  0  0  0  0  0  0  0  0  0  0
  150.3974  137.7465  160.0805 H   0  0  0  0  0  0  0  0  0  0  0  0
  1  2  1  0  0  0  0
  1 24  1  0  0  0  0
  1 25  1  0  0  0  0
  1 26  1  0  0  0  0
  2  3  1  0  0  0  0
  3  4  1  0  0  0  0
  3 27  1  0  0  0  0
  3 28  1  0  0  0  0
  4  5  1  0  0  0  0
  4 29  1  0  0  0  0
  4 30  1  0  0  0  0
  5  6  1  0  0  0  0
  6 23  1  0  0  0  0
  6  7  2  0  0  0  0
  7  8  1  0  0  0  0
  7 31  1  0  0  0  0
  8  9  2  0  0  0  0
  8 32  1  0  0  0  0
  9 10  1  0  0  0  0
  9 22  1  0  0  0  0
 10 11  1  0  0  0  0
 10 33  1  0  0  0  0
 11 12  2  0  0  0  0
 11 13  1  0  0  0  0
 13 21  1  0  0  0  0
 13 14  1  0  0  0  0
 14 15  1  0  0  0  0
 14 34  1  0  0  0  0
 14 35  1  0  0  0  0
 15 16  1  0  0  0  0
 15 36  1  0  0  0  0
 15 37  1  0  0  0  0
 16 17  1  0  0  0  0
 16 38  1  0  0  0  0
 16 39  1  0  0  0  0
 17 21  1  0  0  0  0
 17 18  1  0  0  0  0
 17 40  1  0  0  0  0
 18 19  1  0  0  0  0
 18 41  1  0  0  0  0
 18 42  1  0  0  0  0
 19 20  1  0  0  0  0
 19 43  1  0  0  0  0
 19 44  1  0  0  0  0
 20 21  1  0  0  0  0
 20 45  1  0  0  0  0
 20 46  1  0  0  0  0
 21 47  1  0  0  0  0
 22 23  2  0  0  0  0
 22 48  1  0  0  0  0
M  END
> <s_m_source_file>
AV-unprocessed.smi

> <i_m_source_file_index>
746

> <i_lp_mmshare_version>
43012

> <i_f3d_flags>
0

> <s_epik_input>
W0NIM11PW0NIMl1bQ0gyXU9jMVtjSF1bY0hdYyhbY0hdbjEpW05IXUMoPU8pTihbQ0gyXVtDSDJdW0NIMl0yKVtDQEhdKFtDQEBIXTIzKVtDSDJdW0NIMl1bQ0gyXTM=

> <s_epik_cmdline>
J2VwaWtfcHl0aG9uJywgJy1waCcsICc3LjAnLCAnLXRuJywgJzgnLCAnLW1hJywgJzIwMCcsICctbWV0YWxfYmluZGluZycsICctaW1hZScsICc8aW5maWxlLm1hZT4nLCAnLW9tYWUnLCAnPG91dGZpbGUubWFlPic=

> <r_lp_tautomer_probability>
1

> <r_epik_Ionization_Penalty>
8.29966e-05

> <r_epik_Ionization_Penalty_Charging>
0

> <r_epik_Ionization_Penalty_Neutral>
8.29966e-05

> <r_epik_State_Penalty>
-0

> <r_epik_Charging_Adjusted_Penalty>
0

> <i_epik_Tot_Q>
0

> <i_epik_Tot_abs_Q>
0

> <r_epik_Metal_State_Penalty>
-0

> <b_epik_Metal_Only>
0

> <s_lp_Force_Field>
OPLS_2005

> <r_lp_Energy>
59.0162

> <b_lp_Chiralities_Consistent>
1

> <s_lp_Variant>
AV-unprocessed.smi:746-1

> <Gold.Version>
5.8.1

> <Gold.Id.Protein>
6NUR|6NUR_protein|mol2

> <Gold.PLP.Fitness>
48.9368

> <Gold.PLP.PLP>
-47.9719

> <Gold.PLP.part.hbond>
-1.0000

> <Gold.PLP.part.metal>
0.0000

> <Gold.PLP.part.buried>
-7.3495

> <Gold.PLP.part.nonpolar>
-39.8637

> <Gold.PLP.part.repulsive>
0.2960

> <Gold.PLP.ligand.clash>
0.0000

> <Gold.PLP.ligand.torsion>
1.1304

> <Gold.PLP.Chemscore.Hbond>
0.9600

> <Gold.PLP.Chemscore.CHOScore>
0.0000

> <Gold.PLP.Chemscore.Metal>
0.0000

> <Gold.Chemscore.Hbonds>
donor molecule, donor type, donor heavy atom, donor atom, acceptor molecule, acceptor atom, score
      P1  H  6896  6907       L1    23  0.94

> <Gold.PLP.Chemscore.Internal.Correction>
0.3458

> <Gold.Rescore>
     Score         DG    S(hbond)    S(metal)    S(lipo)     H(rot)  DE(clash)    DE(int)     intcor
     15.57     -17.98       0.64        0.00     121.79       1.52       0.08       2.32       ----

> <Gold.Chemscore.Fitness>
15.5747

> <Gold.Chemscore.DG>
-17.9762

> <Gold.Chemscore.ZeroCoef>
-5.4800

> <Gold.Chemscore.Hbond>
0.6379

> <Gold.Chemscore.Metal>
0.0000

> <Gold.Chemscore.Lipo>
121.7919

> <Gold.Chemscore.Internal_Hbond>
0.0000

> <Gold.Chemscore.DEClash>
0.0843

> <Gold.Chemscore.DEInternal>
2.3172

> <Gold.Chemscore.Rot>
1.5172

> <Gold.Chemscore.Internal.Correction>
   9.000000E+99

> <Gold.Chemscore.Hbonds>
donor molecule, donor type, donor heavy atom, donor atom, acceptor molecule, acceptor atom, score
      P1  H  6896  6907       L1    23  0.29

> <Gold.Chemscore.Hbond.Weighted>
-2.1307

> <Gold.Chemscore.Metal.Weighted>
-0.0000

> <Gold.Chemscore.Lipo.Weighted>
-14.2496

> <Gold.Chemscore.Internal_Hbond.Weighted>
0.0000

> <Gold.Chemscore.DEClash.Weighted>
0.0843

> <Gold.Chemscore.DEInternal.Weighted>
2.3172

> <Gold.Chemscore.Rot.Weighted>
3.8841

> <Gold.Chemscore.Internal.Correction.Weighted>
   9.000000E+99

> <Gold.Protein.RotatedTorsions>
[ 6907 6896 6895 6894 ] final  -60.12 input  -60.11 | X-H torsion
[ 7974 7965 7964 7962 ] final  -74.83 input  175.53 | X-H torsion
[ 8008 7997 7996 7995 ] final  143.67 input   59.86 | X-H torsion
[ 10167 10162 10161 10158 ] final   67.04 input  -65.29 | X-H torsion
[ 10718 10713 10712 10709 ] final   -7.51 input   66.30 | X-H torsion
[ 10763 10752 10751 10750 ] final   47.35 input  -60.55 | X-H torsion
[ 11005 11000 10999 10996 ] final  169.63 input  -57.11 | X-H torsion

> <Gold.Protein.ActiveResidues>
 VAL166  LYS551  ARG553  GLY616  TRP617  ASP618  TYR619  PRO620  LYS621  CYS622 
 ASP623  PHE694  ASN695  SER759  ASP760  ASP761  ALA762  ILE779  LEU786  VAL792 
 PHE793  MET794  SER795  GLU796  ALA797  LYS798  CYS799  TRP800  GLU811  SER814 

> <Gold.Protein.RotatedAtoms>
  150.7879  134.6878  159.6479 H   0  0  0  0  0  0  0  0  0  0  0  0  # atno 6907 bound_to 6896
  152.3979  134.6332  160.0090 H   0  0  0  0  0  0  0  0  0  0  0  0  # atno 6908 bound_to 6896
  151.6612  133.3280  159.3210 H   0  0  0  0  0  0  0  0  0  0  0  0  # atno 6909 bound_to 6896
  145.6340  140.9330  143.1071 H   0  0  0  0  0  0  0  0  0  0  0  0  # atno 7974 bound_to 7965
  156.2925  140.2256  156.4928 H   0  0  0  0  0  0  0  0  0  0  0  0  # atno 8008 bound_to 7997
  154.7756  140.0463  157.1108 H   0  0  0  0  0  0  0  0  0  0  0  0  # atno 8009 bound_to 7997
  154.9821  140.3079  155.4945 H   0  0  0  0  0  0  0  0  0  0  0  0  # atno 8010 bound_to 7997
  140.0939  144.4964  150.7081 H   0  0  0  0  0  0  0  0  0  0  0  0  # atno 10167 bound_to 10162
  156.7162  130.5137  149.5879 H   0  0  0  0  0  0  0  0  0  0  0  0  # atno 10718 bound_to 10713
  152.9801  135.5979  154.3748 H   0  0  0  0  0  0  0  0  0  0  0  0  # atno 10763 bound_to 10752
  154.3418  135.2767  155.2420 H   0  0  0  0  0  0  0  0  0  0  0  0  # atno 10764 bound_to 10752
  154.4499  135.5992  153.6240 H   0  0  0  0  0  0  0  0  0  0  0  0  # atno 10765 bound_to 10752
  140.2998  134.7604  157.3907 H   0  0  0  0  0  0  0  0  0  0  0  0  # atno 11005 bound_to 11000
  144.7182  139.8120  143.7391 LP  0  0  0  0  0  0  0  0  0  0  0  0  # atno 17320 bound_to 7965
  146.1334  139.4374  143.0154 LP  0  0  0  0  0  0  0  0  0  0  0  0  # atno 17321 bound_to 7965
  140.7014  143.2437  151.4853 LP  0  0  0  0  0  0  0  0  0  0  0  0  # atno 17342 bound_to 10162
  139.5709  144.1930  152.1835 LP  0  0  0  0  0  0  0  0  0  0  0  0  # atno 17343 bound_to 10162
  156.1626  130.6384  151.0738 LP  0  0  0  0  0  0  0  0  0  0  0  0  # atno 17370 bound_to 10713
  157.6916  131.0808  150.7090 LP  0  0  0  0  0  0  0  0  0  0  0  0  # atno 17371 bound_to 10713
  140.1119  134.5334  155.8258 LP  0  0  0  0  0  0  0  0  0  0  0  0  # atno 17394 bound_to 11000
  141.2130  133.6727  156.6705 LP  0  0  0  0  0  0  0  0  0  0  0  0  # atno 17395 bound_to 11000

$$$$
