AV-unprocessed.smi:921|AV-procd|sdf|4170|dock3
  -GOLD-   22720 2 73D 1   1.00000     0.00000
 Structure written by MMmdl.
 39 41  0  0  0  0  0  0  0  0  1 V2000
  153.3074  138.1751  160.6676 N   0  0  0  0  0  0  0  0  0  0  0  0
  152.4235  137.9240  159.6981 C   0  0  0  0  0  0  0  0  0  0  0  0
  151.4864  137.1435  159.8535 O   0  0  0  0  0  0  0  0  0  0  0  0
  152.6194  138.6570  158.3649 C   0  0  0  0  0  0  0  0  0  0  0  0
  152.3879  140.1354  158.5623 C   0  0  0  0  0  0  0  0  0  0  0  0
  153.1586  140.8678  159.3733 N   0  0  0  0  0  0  0  0  0  0  0  0
  152.6187  142.1322  159.2593 C   0  0  0  0  0  0  0  0  0  0  0  0
  153.0017  143.3525  159.8608 C   0  0  0  0  0  0  0  0  0  0  0  0
  152.2856  144.5369  159.5904 C   0  0  0  0  0  0  0  0  0  0  0  0
  151.1779  144.5175  158.7184 C   0  0  0  0  0  0  0  0  0  0  0  0
  150.7791  143.3115  158.1107 C   0  0  0  0  0  0  0  0  0  0  0  0
  151.4991  142.1322  158.3826 C   0  0  0  0  0  0  0  0  0  0  0  0
  151.3707  140.8119  157.9622 N   0  0  0  0  0  0  0  0  0  0  0  0
  150.3324  140.3182  157.0657 C   0  0  0  0  0  0  0  0  0  0  0  0
  150.4723  140.8657  155.6310 C   0  0  1  0  0  0  0  0  0  0  0  0
  151.5166  140.2036  154.9474 O   0  0  0  0  0  0  0  0  0  0  0  0
  149.1534  140.7968  154.8741 C   0  0  0  0  0  0  0  0  0  0  0  0
  148.3801  141.9676  154.7173 C   0  0  0  0  0  0  0  0  0  0  0  0
  147.1549  141.9250  154.0247 C   0  0  0  0  0  0  0  0  0  0  0  0
  146.4206  143.0533  153.8794 F   0  0  0  0  0  0  0  0  0  0  0  0
  146.6931  140.7102  153.4843 C   0  0  0  0  0  0  0  0  0  0  0  0
  147.4564  139.5376  153.6399 C   0  0  0  0  0  0  0  0  0  0  0  0
  148.6819  139.5772  154.3335 C   0  0  0  0  0  0  0  0  0  0  0  0
  149.3976  138.4362  154.4789 F   0  0  0  0  0  0  0  0  0  0  0  0
  153.2197  137.7070  161.5580 H   0  0  0  0  0  0  0  0  0  0  0  0
  154.0638  138.8240  160.5055 H   0  0  0  0  0  0  0  0  0  0  0  0
  153.6255  138.4445  158.0093 H   0  0  0  0  0  0  0  0  0  0  0  0
  151.9253  138.2850  157.6104 H   0  0  0  0  0  0  0  0  0  0  0  0
  153.8486  143.3769  160.5304 H   0  0  0  0  0  0  0  0  0  0  0  0
  152.5875  145.4643  160.0544 H   0  0  0  0  0  0  0  0  0  0  0  0
  150.6343  145.4287  158.5163 H   0  0  0  0  0  0  0  0  0  0  0  0
  149.9309  143.2938  157.4427 H   0  0  0  0  0  0  0  0  0  0  0  0
  150.3117  139.2297  157.0825 H   0  0  0  0  0  0  0  0  0  0  0  0
  149.3699  140.6278  157.4748 H   0  0  0  0  0  0  0  0  0  0  0  0
  150.7713  141.9127  155.6948 H   0  0  0  0  0  0  0  0  0  0  0  0
  151.4636  139.2794  155.1368 H   0  0  0  0  0  0  0  0  0  0  0  0
  148.7230  142.9055  155.1293 H   0  0  0  0  0  0  0  0  0  0  0  0
  145.7535  140.6775  152.9527 H   0  0  0  0  0  0  0  0  0  0  0  0
  147.1009  138.6048  153.2280 H   0  0  0  0  0  0  0  0  0  0  0  0
  1  2  1  0  0  0  0
  1 25  1  0  0  0  0
  1 26  1  0  0  0  0
  2  3  2  0  0  0  0
  2  4  1  0  0  0  0
  4  5  1  0  0  0  0
  4 27  1  0  0  0  0
  4 28  1  0  0  0  0
  5 13  1  0  0  0  0
  5  6  2  0  0  0  0
  6  7  1  0  0  0  0
  7 12  2  0  0  0  0
  7  8  1  0  0  0  0
  8  9  2  0  0  0  0
  8 29  1  0  0  0  0
  9 10  1  0  0  0  0
  9 30  1  0  0  0  0
 10 11  2  0  0  0  0
 10 31  1  0  0  0  0
 11 12  1  0  0  0  0
 11 32  1  0  0  0  0
 12 13  1  0  0  0  0
 13 14  1  0  0  0  0
 14 15  1  0  0  0  0
 14 33  1  0  0  0  0
 14 34  1  0  0  0  0
 15 16  1  0  0  0  0
 15 17  1  0  0  0  0
 15 35  1  0  0  0  0
 16 36  1  0  0  0  0
 17 23  1  0  0  0  0
 17 18  2  0  0  0  0
 18 19  1  0  0  0  0
 18 37  1  0  0  0  0
 19 20  1  0  0  0  0
 19 21  2  0  0  0  0
 21 22  1  0  0  0  0
 21 38  1  0  0  0  0
 22 23  2  0  0  0  0
 22 39  1  0  0  0  0
 23 24  1  0  0  0  0
M  END
> <s_m_source_file>
AV-unprocessed.smi

> <i_m_source_file_index>
921

> <i_lp_mmshare_version>
43012

> <i_f3d_flags>
0

> <s_epik_input>
W2NIXTFbY0hdW2NIXVtjSF1jKGMxMiluKGMobjIpW0NIMl1DKD1PKVtOSDJdKVtDSDJdW0NASF0oW09IXSljM1tjSF1jKEYpW2NIXVtjSF1jM0Y=

> <s_epik_cmdline>
J2VwaWtfcHl0aG9uJywgJy1waCcsICc3LjAnLCAnLXRuJywgJzgnLCAnLW1hJywgJzIwMCcsICctbWV0YWxfYmluZGluZycsICctaW1hZScsICc8aW5maWxlLm1hZT4nLCAnLW9tYWUnLCAnPG91dGZpbGUubWFlPic=

> <r_epik_Ionization_Penalty>
0.0366909

> <r_epik_Ionization_Penalty_Charging>
0

> <r_epik_Ionization_Penalty_Neutral>
0.0366909

> <r_epik_State_Penalty>
0.0306642

> <r_epik_Charging_Adjusted_Penalty>
0.0306642

> <i_epik_Tot_Q>
0

> <i_epik_Tot_abs_Q>
0

> <r_epik_Metal_State_Penalty>
0.028853

> <b_epik_Metal_Only>
0

> <s_lp_Force_Field>
OPLS_2005

> <r_lp_Energy>
12.6205

> <b_lp_Chiralities_Consistent>
1

> <s_lp_Variant>
AV-unprocessed.smi:921-2

> <Gold.Version>
5.8.1

> <Gold.Id.Protein>
6NUR|6NUR_protein|mol2

> <Gold.PLP.Fitness>
56.4588

> <Gold.PLP.PLP>
-52.1767

> <Gold.PLP.part.hbond>
-1.8428

> <Gold.PLP.part.metal>
0.0000

> <Gold.PLP.part.buried>
-4.3902

> <Gold.PLP.part.nonpolar>
-45.1808

> <Gold.PLP.part.repulsive>
0.0335

> <Gold.PLP.ligand.clash>
0.0000

> <Gold.PLP.ligand.torsion>
0.6811

> <Gold.PLP.Chemscore.Hbond>
1.8480

> <Gold.PLP.Chemscore.CHOScore>
0.0000

> <Gold.PLP.Chemscore.Metal>
0.0000

> <Gold.Chemscore.Hbonds>
donor molecule, donor type, donor heavy atom, donor atom, acceptor molecule, acceptor atom, score
      P1  H  6896  6907       L1     3  1.00
      P1  H  7989  7998       L1    16  1.00

> <Gold.PLP.Chemscore.Internal.Correction>
0.1003

> <Gold.Rescore>
     Score         DG    S(hbond)    S(metal)    S(lipo)     H(rot)  DE(clash)    DE(int)     intcor
     14.88     -16.63       1.72        0.00     114.37       3.11       0.01       1.74       ----

> <Gold.Chemscore.Fitness>
14.8757

> <Gold.Chemscore.DG>
-16.6257

> <Gold.Chemscore.ZeroCoef>
-5.4800

> <Gold.Chemscore.Hbond>
1.7160

> <Gold.Chemscore.Metal>
0.0000

> <Gold.Chemscore.Lipo>
114.3691

> <Gold.Chemscore.Internal_Hbond>
0.0000

> <Gold.Chemscore.DEClash>
0.0141

> <Gold.Chemscore.DEInternal>
1.7359

> <Gold.Chemscore.Rot>
3.1121

> <Gold.Chemscore.Internal.Correction>
   9.000000E+99

> <Gold.Chemscore.Hbonds>
donor molecule, donor type, donor heavy atom, donor atom, acceptor molecule, acceptor atom, score
      P1  H  6896  6907       L1     3  0.97
      P1  H  7989  7998       L1    16  0.62

> <Gold.Chemscore.Hbond.Weighted>
-5.7315

> <Gold.Chemscore.Metal.Weighted>
-0.0000

> <Gold.Chemscore.Lipo.Weighted>
-13.3812

> <Gold.Chemscore.Internal_Hbond.Weighted>
0.0000

> <Gold.Chemscore.DEClash.Weighted>
0.0141

> <Gold.Chemscore.DEInternal.Weighted>
1.7359

> <Gold.Chemscore.Rot.Weighted>
7.9670

> <Gold.Chemscore.Internal.Correction.Weighted>
   9.000000E+99

> <Gold.Protein.RotatedTorsions>
[ 6907 6896 6895 6894 ] final    4.35 input  -60.11 | X-H torsion
[ 7974 7965 7964 7962 ] final  163.75 input  175.53 | X-H torsion
[ 8008 7997 7996 7995 ] final   10.54 input   59.86 | X-H torsion
[ 10167 10162 10161 10158 ] final  104.74 input  -65.29 | X-H torsion
[ 10718 10713 10712 10709 ] final   35.77 input   66.30 | X-H torsion
[ 10763 10752 10751 10750 ] final  150.65 input  -60.55 | X-H torsion
[ 11005 11000 10999 10996 ] final  -44.68 input  -57.11 | X-H torsion

> <Gold.Protein.ActiveResidues>
 VAL166  LYS551  ARG553  GLY616  TRP617  ASP618  TYR619  PRO620  LYS621  CYS622 
 ASP623  PHE694  ASN695  SER759  ASP760  ASP761  ALA762  ILE779  LEU786  VAL792 
 PHE793  MET794  SER795  GLU796  ALA797  LYS798  CYS799  TRP800  GLU811  SER814 

> <Gold.Protein.RotatedAtoms>
  151.6399  135.1014  160.0138 H   0  0  0  0  0  0  0  0  0  0  0  0  # atno 6907 bound_to 6896
  152.4060  133.6885  159.6365 H   0  0  0  0  0  0  0  0  0  0  0  0  # atno 6908 bound_to 6896
  150.7954  133.8625  159.3277 H   0  0  0  0  0  0  0  0  0  0  0  0  # atno 6909 bound_to 6896
  144.7576  139.8227  143.6344 H   0  0  0  0  0  0  0  0  0  0  0  0  # atno 7974 bound_to 7965
  154.7948  140.2842  155.5965 H   0  0  0  0  0  0  0  0  0  0  0  0  # atno 8008 bound_to 7997
  156.2969  140.2598  156.2732 H   0  0  0  0  0  0  0  0  0  0  0  0  # atno 8009 bound_to 7997
  154.9628  140.0377  157.2187 H   0  0  0  0  0  0  0  0  0  0  0  0  # atno 8010 bound_to 7997
  139.7151  144.7070  151.0963 H   0  0  0  0  0  0  0  0  0  0  0  0  # atno 10167 bound_to 10162
  157.3268  130.7477  149.6821 H   0  0  0  0  0  0  0  0  0  0  0  0  # atno 10718 bound_to 10713
  154.0910  135.2852  155.3271 H   0  0  0  0  0  0  0  0  0  0  0  0  # atno 10763 bound_to 10752
  154.6620  135.5331  153.8033 H   0  0  0  0  0  0  0  0  0  0  0  0  # atno 10764 bound_to 10752
  153.0413  135.6536  154.1079 H   0  0  0  0  0  0  0  0  0  0  0  0  # atno 10765 bound_to 10752
  141.0466  133.6759  156.2906 H   0  0  0  0  0  0  0  0  0  0  0  0  # atno 11005 bound_to 11000
  146.1603  139.4715  142.9992 LP  0  0  0  0  0  0  0  0  0  0  0  0  # atno 17320 bound_to 7965
  145.6728  141.0212  143.1648 LP  0  0  0  0  0  0  0  0  0  0  0  0  # atno 17321 bound_to 7965
  140.7742  143.5240  150.9502 LP  0  0  0  0  0  0  0  0  0  0  0  0  # atno 17342 bound_to 10162
  139.8926  143.6934  152.3143 LP  0  0  0  0  0  0  0  0  0  0  0  0  # atno 17343 bound_to 10162
  155.9691  130.4207  150.4434 LP  0  0  0  0  0  0  0  0  0  0  0  0  # atno 17370 bound_to 10713
  157.2459  131.0536  151.2408 LP  0  0  0  0  0  0  0  0  0  0  0  0  # atno 17371 bound_to 10713
  140.6134  134.5435  157.5537 LP  0  0  0  0  0  0  0  0  0  0  0  0  # atno 17394 bound_to 11000
  139.9317  134.7952  156.0913 LP  0  0  0  0  0  0  0  0  0  0  0  0  # atno 17395 bound_to 11000

$$$$
