AV-unprocessed.smi:2061|AV-procd|sdf|8368|dock3
  -GOLD-   2272011 43D 1   1.00000     0.00000
 Structure written by MMmdl.
 46 47  0  0  0  0  0  0  0  0  2 V2000
  153.4683  141.8372  160.3606 C   0  0  0  0  0  0  0  0  0  0  0  0
  152.6378  142.3067  159.2157 C   0  0  0  0  0  0  0  0  0  0  0  0
  151.6915  141.6967  158.4416 C   0  0  0  0  0  0  0  0  0  0  0  0
  151.3095  142.7272  157.5336 C   0  0  0  0  0  0  0  0  0  0  0  0
  150.3410  142.6226  156.5020 N   0  0  0  0  0  0  0  0  0  0  0  0
  150.1297  141.6006  155.6556 C   0  0  0  0  0  0  0  0  0  0  0  0
  150.7573  140.5418  155.6439 O   0  0  0  0  0  0  0  0  0  0  0  0
  149.1282  141.8741  154.8059 N   0  0  0  0  0  0  0  0  0  0  0  0
  148.6712  141.0038  153.7242 C   0  0  0  0  0  0  0  0  0  0  0  0
  147.2201  141.3067  153.2530 C   0  0  2  0  0  0  0  0  0  0  0  0
  146.8441  142.7787  153.5560 C   0  0  0  0  0  0  0  0  0  0  0  0
  146.2215  140.3488  153.8413 N   0  3  1  0  0  0  0  0  0  0  0  0
  146.5661  138.9157  153.6188 C   0  0  0  0  0  0  0  0  0  0  0  0
  145.5089  137.9601  154.2054 C   0  0  2  0  0  0  0  0  0  0  0  0
  144.2036  137.9064  153.3901 C   0  0  0  0  0  0  0  0  0  0  0  0
  145.2832  138.2588  155.5786 O   0  0  0  0  0  0  0  0  0  0  0  0
  144.8796  139.5993  155.8233 C   0  0  1  0  0  0  0  0  0  0  0  0
  144.6707  139.7542  157.3337 C   0  0  0  0  0  0  0  0  0  0  0  0
  145.9470  140.5709  155.2885 C   0  0  0  0  0  0  0  0  0  0  0  0
  151.9608  143.8566  157.7426 N   0  0  0  0  0  0  0  0  0  0  0  0
  152.8170  143.5952  158.8185 O   0  0  0  0  0  0  0  0  0  0  0  0
  153.1533  140.8471  160.6905 H   0  0  0  0  0  0  0  0  0  0  0  0
  153.3810  142.5187  161.2070 H   0  0  0  0  0  0  0  0  0  0  0  0
  154.5195  141.7810  160.0775 H   0  0  0  0  0  0  0  0  0  0  0  0
  151.3425  140.6787  158.5259 H   0  0  0  0  0  0  0  0  0  0  0  0
  149.7504  143.4326  156.3846 H   0  0  0  0  0  0  0  0  0  0  0  0
  148.6659  142.7676  154.8937 H   0  0  0  0  0  0  0  0  0  0  0  0
  149.3857  141.1827  152.9229 H   0  0  0  0  0  0  0  0  0  0  0  0
  148.7691  139.9513  153.9963 H   0  0  0  0  0  0  0  0  0  0  0  0
  147.1949  141.1782  152.1697 H   0  0  0  0  0  0  0  0  0  0  0  0
  147.5850  143.4788  153.1736 H   0  0  0  0  0  0  0  0  0  0  0  0
  146.7520  142.9517  154.6289 H   0  0  0  0  0  0  0  0  0  0  0  0
  145.9126  143.0800  153.0803 H   0  0  0  0  0  0  0  0  0  0  0  0
  146.6585  138.6839  152.5598 H   0  0  0  0  0  0  0  0  0  0  0  0
  147.5360  138.7116  154.0751 H   0  0  0  0  0  0  0  0  0  0  0  0
  145.9286  136.9539  154.1861 H   0  0  0  0  0  0  0  0  0  0  0  0
  144.3921  137.5293  152.3846 H   0  0  0  0  0  0  0  0  0  0  0  0
  143.7384  138.8861  153.2840 H   0  0  0  0  0  0  0  0  0  0  0  0
  143.4795  137.2399  153.8595 H   0  0  0  0  0  0  0  0  0  0  0  0
  143.9267  139.7959  155.3318 H   0  0  0  0  0  0  0  0  0  0  0  0
  144.3502  140.7656  157.5855 H   0  0  0  0  0  0  0  0  0  0  0  0
  145.5899  139.5477  157.8830 H   0  0  0  0  0  0  0  0  0  0  0  0
  143.9062  139.0651  157.6934 H   0  0  0  0  0  0  0  0  0  0  0  0
  146.8747  140.4683  155.8542 H   0  0  0  0  0  0  0  0  0  0  0  0
  145.5672  141.5750  155.4653 H   0  0  0  0  0  0  0  0  0  0  0  0
  145.3496  140.5125  153.3582 H   0  0  0  0  0  0  0  0  0  0  0  0
  1  2  1  0  0  0  0
  1 22  1  0  0  0  0
  1 23  1  0  0  0  0
  1 24  1  0  0  0  0
  2 21  1  0  0  0  0
  2  3  2  0  0  0  0
  3  4  1  0  0  0  0
  3 25  1  0  0  0  0
  4  5  1  0  0  0  0
  4 20  2  0  0  0  0
  5  6  1  0  0  0  0
  5 26  1  0  0  0  0
  6  7  2  0  0  0  0
  6  8  1  0  0  0  0
  8  9  1  0  0  0  0
  8 27  1  0  0  0  0
  9 10  1  0  0  0  0
  9 28  1  0  0  0  0
  9 29  1  0  0  0  0
 10 11  1  0  0  0  0
 10 12  1  0  0  0  0
 10 30  1  0  0  0  0
 11 31  1  0  0  0  0
 11 32  1  0  0  0  0
 11 33  1  0  0  0  0
 12 19  1  0  0  0  0
 12 13  1  0  0  0  0
 12 46  1  0  0  0  0
 13 14  1  0  0  0  0
 13 34  1  0  0  0  0
 13 35  1  0  0  0  0
 14 15  1  0  0  0  0
 14 16  1  0  0  0  0
 14 36  1  0  0  0  0
 15 37  1  0  0  0  0
 15 38  1  0  0  0  0
 15 39  1  0  0  0  0
 16 17  1  0  0  0  0
 17 18  1  0  0  0  0
 17 19  1  0  0  0  0
 17 40  1  0  0  0  0
 18 41  1  0  0  0  0
 18 42  1  0  0  0  0
 18 43  1  0  0  0  0
 19 44  1  0  0  0  0
 19 45  1  0  0  0  0
 20 21  1  0  0  0  0
M  CHG  1  12   1
M  END
> <s_m_source_file>
AV-unprocessed.smi

> <i_m_source_file_index>
2061

> <i_lp_mmshare_version>
43012

> <i_f3d_flags>
0

> <s_epik_input>
W0NIM11jMVtjSF1jKG5vMSlbTkhdQyg9TylbTkhdW0NIMl1bQ0BIXShbQ0gzXSlOMltDSDJdW0NAQEhdKFtDSDNdKU9bQ0BASF0oW0NIM10pW0NIMl0y

> <s_epik_cmdline>
J2VwaWtfcHl0aG9uJywgJy1waCcsICc3LjAnLCAnLXRuJywgJzgnLCAnLW1hJywgJzIwMCcsICctbWV0YWxfYmluZGluZycsICctaW1hZScsICc8aW5maWxlLm1hZT4nLCAnLW9tYWUnLCAnPG91dGZpbGUubWFlPic=

> <r_epik_Ionization_Penalty>
0.707076

> <r_epik_Ionization_Penalty_Charging>
0.707039

> <r_epik_Ionization_Penalty_Neutral>
3.6548e-05

> <r_epik_State_Penalty>
0.730276

> <r_epik_Charging_Adjusted_Penalty>
1.43732

> <i_epik_Tot_Q>
1

> <i_epik_Tot_abs_Q>
1

> <r_epik_Metal_State_Penalty>
0.743132

> <b_epik_Metal_Only>
0

> <s_lp_Force_Field>
OPLS_2005

> <r_lp_Energy>
23.7206

> <b_lp_Chiralities_Consistent>
1

> <s_lp_Variant>
AV-unprocessed.smi:2061-9

> <Gold.Version>
5.8.1

> <Gold.Id.Protein>
6NUR|6NUR_protein|mol2

> <Gold.PLP.Fitness>
43.4179

> <Gold.PLP.PLP>
-32.8844

> <Gold.PLP.part.hbond>
-4.0000

> <Gold.PLP.part.metal>
0.0000

> <Gold.PLP.part.buried>
-4.5667

> <Gold.PLP.part.nonpolar>
-23.0902

> <Gold.PLP.part.repulsive>
0.4413

> <Gold.PLP.ligand.clash>
0.0000

> <Gold.PLP.ligand.torsion>
1.0564

> <Gold.PLP.Chemscore.Hbond>
4.1945

> <Gold.PLP.Chemscore.CHOScore>
0.0000

> <Gold.PLP.Chemscore.Metal>
0.0000

> <Gold.Chemscore.Hbonds>
donor molecule, donor type, donor heavy atom, donor atom, acceptor molecule, acceptor atom, score
      L1  H     5    26       P1  8028  1.00
      L1  H     8    27       P1  8028  0.76
      L1  H    12    46       P1 10175  2.00
      P1  H  7989  7998       L1     7  0.16

> <Gold.PLP.Chemscore.Internal.Correction>
0.0628

> <Gold.Rescore>
     Score         DG    S(hbond)    S(metal)    S(lipo)     H(rot)  DE(clash)    DE(int)     intcor
     16.76     -17.91       2.81        0.00      60.70       1.58       0.16       0.99       ----

> <Gold.Chemscore.Fitness>
16.7615

> <Gold.Chemscore.DG>
-17.9102

> <Gold.Chemscore.ZeroCoef>
-5.4800

> <Gold.Chemscore.Hbond>
2.8090

> <Gold.Chemscore.Metal>
0.0000

> <Gold.Chemscore.Lipo>
60.6986

> <Gold.Chemscore.Internal_Hbond>
0.0000

> <Gold.Chemscore.DEClash>
0.1599

> <Gold.Chemscore.DEInternal>
0.9888

> <Gold.Chemscore.Rot>
1.5834

> <Gold.Chemscore.Internal.Correction>
   9.000000E+99

> <Gold.Chemscore.Hbonds>
donor molecule, donor type, donor heavy atom, donor atom, acceptor molecule, acceptor atom, score
      L1  H     5    26       P1  8028  1.00
      L1  H     8    27       P1  8028  0.74
      L1  H    12    46       P1 10175  0.97
      P1  H  7989  7998       L1     7  0.02

> <Gold.Chemscore.Hbond.Weighted>
-9.3819

> <Gold.Chemscore.Metal.Weighted>
-0.0000

> <Gold.Chemscore.Lipo.Weighted>
-7.1017

> <Gold.Chemscore.Internal_Hbond.Weighted>
0.0000

> <Gold.Chemscore.DEClash.Weighted>
0.1599

> <Gold.Chemscore.DEInternal.Weighted>
0.9888

> <Gold.Chemscore.Rot.Weighted>
4.0535

> <Gold.Chemscore.Internal.Correction.Weighted>
   9.000000E+99

> <Gold.Protein.RotatedTorsions>
[ 6907 6896 6895 6894 ] final -173.21 input  -60.11 | X-H torsion
[ 7974 7965 7964 7962 ] final  139.21 input  175.53 | X-H torsion
[ 8008 7997 7996 7995 ] final   43.33 input   59.86 | X-H torsion
[ 10167 10162 10161 10158 ] final   99.91 input  -65.29 | X-H torsion
[ 10718 10713 10712 10709 ] final   19.45 input   66.30 | X-H torsion
[ 10763 10752 10751 10750 ] final  176.48 input  -60.55 | X-H torsion
[ 11005 11000 10999 10996 ] final -117.69 input  -57.11 | X-H torsion

> <Gold.Protein.ActiveResidues>
 VAL166  LYS551  ARG553  GLY616  TRP617  ASP618  TYR619  PRO620  LYS621  CYS622 
 ASP623  PHE694  ASN695  SER759  ASP760  ASP761  ALA762  ILE779  LEU786  VAL792 
 PHE793  MET794  SER795  GLU796  ALA797  LYS798  CYS799  TRP800  GLU811  SER814 

> <Gold.Protein.RotatedAtoms>
  151.5525  133.3415  159.2955 H   0  0  0  0  0  0  0  0  0  0  0  0  # atno 6907 bound_to 6896
  150.8470  134.7785  159.6989 H   0  0  0  0  0  0  0  0  0  0  0  0  # atno 6908 bound_to 6896
  152.4525  134.5370  159.9879 H   0  0  0  0  0  0  0  0  0  0  0  0  # atno 6909 bound_to 6896
  144.9299  139.5060  143.5622 H   0  0  0  0  0  0  0  0  0  0  0  0  # atno 7974 bound_to 7965
  155.3009  140.3385  155.4248 H   0  0  0  0  0  0  0  0  0  0  0  0  # atno 8008 bound_to 7997
  156.2002  140.1730  156.7955 H   0  0  0  0  0  0  0  0  0  0  0  0  # atno 8009 bound_to 7997
  154.5549  140.0698  156.8711 H   0  0  0  0  0  0  0  0  0  0  0  0  # atno 8010 bound_to 7997
  139.7575  144.6965  151.0341 H   0  0  0  0  0  0  0  0  0  0  0  0  # atno 10167 bound_to 10162
  157.1107  130.6507  149.5896 H   0  0  0  0  0  0  0  0  0  0  0  0  # atno 10718 bound_to 10713
  154.4817  135.2775  155.1565 H   0  0  0  0  0  0  0  0  0  0  0  0  # atno 10763 bound_to 10752
  154.3273  135.6197  153.5539 H   0  0  0  0  0  0  0  0  0  0  0  0  # atno 10764 bound_to 10752
  152.9876  135.5757  154.5219 H   0  0  0  0  0  0  0  0  0  0  0  0  # atno 10765 bound_to 10752
  141.0337  133.9941  157.3103 H   0  0  0  0  0  0  0  0  0  0  0  0  # atno 11005 bound_to 11000
  146.3242  139.8242  142.8921 LP  0  0  0  0  0  0  0  0  0  0  0  0  # atno 17320 bound_to 7965
  145.3158  141.0231  143.3528 LP  0  0  0  0  0  0  0  0  0  0  0  0  # atno 17321 bound_to 7965
  140.7804  143.4736  151.0112 LP  0  0  0  0  0  0  0  0  0  0  0  0  # atno 17342 bound_to 10162
  139.8423  143.7548  152.3180 LP  0  0  0  0  0  0  0  0  0  0  0  0  # atno 17343 bound_to 10162
  155.9851  130.4879  150.7016 LP  0  0  0  0  0  0  0  0  0  0  0  0  # atno 17370 bound_to 10713
  157.4562  131.0878  151.0794 LP  0  0  0  0  0  0  0  0  0  0  0  0  # atno 17371 bound_to 10713
  139.9226  135.0201  156.8119 LP  0  0  0  0  0  0  0  0  0  0  0  0  # atno 17394 bound_to 11000
  140.6360  133.9862  155.7684 LP  0  0  0  0  0  0  0  0  0  0  0  0  # atno 17395 bound_to 11000

$$$$
