AV-unprocessed.smi:3181|AV-procd|sdf|12149|dock2
  -GOLD-   2272017583D 1   1.00000     0.00000
 Structure written by MMmdl.
 42 43  0  0  0  0  0  0  0  0  2 V2000
  146.3714  138.8072  154.2659 C   0  0  0  0  0  0  0  0  0  0  0  0
  147.0654  139.0473  152.9144 C   0  0  2  0  0  0  0  0  0  0  0  0
  146.5682  138.1013  151.8031 C   0  0  0  0  0  0  0  0  0  0  0  0
  145.6726  137.0718  152.2972 N   0  0  0  0  0  0  0  0  0  0  0  0
  144.3407  137.0010  152.2802 C   0  0  0  0  0  0  0  0  0  0  0  0
  143.8565  135.8965  152.8302 N   0  0  0  0  0  0  0  0  0  0  0  0
  145.0264  135.2865  153.1857 C   0  0  0  0  0  0  0  0  0  0  0  0
  146.1444  135.9490  152.8878 N   0  0  0  0  0  0  0  0  0  0  0  0
  148.5305  138.8975  153.0678 N   0  3  0  0  0  0  0  0  0  0  0  0
  149.0909  139.3259  154.3689 C   0  0  1  0  0  0  0  0  0  0  0  0
  150.5076  138.7576  154.5883 C   0  0  0  0  0  0  0  0  0  0  0  0
  151.1157  139.2515  155.9107 C   0  0  0  0  0  0  0  0  0  0  0  0
  151.1266  140.7911  155.9912 C   0  0  2  0  0  0  0  0  0  0  0  0
  151.8040  141.2906  157.2779 C   0  0  0  0  0  0  0  0  0  0  0  0
  149.7112  141.3844  155.7717 C   0  0  2  0  0  0  0  0  0  0  0  0
  148.7438  141.1681  156.9533 C   0  0  0  0  0  0  0  0  0  0  0  0
  149.1170  140.8651  154.4452 C   0  0  0  0  0  0  0  0  0  0  0  0
  145.2983  138.9891  154.2032 H   0  0  0  0  0  0  0  0  0  0  0  0
  146.7647  139.4724  155.0349 H   0  0  0  0  0  0  0  0  0  0  0  0
  146.5149  137.7820  154.6085 H   0  0  0  0  0  0  0  0  0  0  0  0
  146.8377  140.0682  152.6036 H   0  0  0  0  0  0  0  0  0  0  0  0
  146.0359  138.6690  151.0387 H   0  0  0  0  0  0  0  0  0  0  0  0
  147.4127  137.6229  151.3035 H   0  0  0  0  0  0  0  0  0  0  0  0
  143.7129  137.7731  151.8598 H   0  0  0  0  0  0  0  0  0  0  0  0
  145.0550  134.3260  153.6792 H   0  0  0  0  0  0  0  0  0  0  0  0
  148.7840  137.9341  152.9015 H   0  0  0  0  0  0  0  0  0  0  0  0
  148.4286  138.9573  155.1533 H   0  0  0  0  0  0  0  0  0  0  0  0
  150.4886  137.6675  154.5894 H   0  0  0  0  0  0  0  0  0  0  0  0
  151.1553  139.0522  153.7611 H   0  0  0  0  0  0  0  0  0  0  0  0
  150.5583  138.8344  156.7499 H   0  0  0  0  0  0  0  0  0  0  0  0
  152.1329  138.8694  156.0032 H   0  0  0  0  0  0  0  0  0  0  0  0
  151.7457  141.1459  155.1656 H   0  0  0  0  0  0  0  0  0  0  0  0
  151.3086  140.9100  158.1711 H   0  0  0  0  0  0  0  0  0  0  0  0
  151.7987  142.3798  157.3286 H   0  0  0  0  0  0  0  0  0  0  0  0
  152.8439  140.9658  157.3206 H   0  0  0  0  0  0  0  0  0  0  0  0
  149.8242  142.4644  155.6654 H   0  0  0  0  0  0  0  0  0  0  0  0
  148.6146  140.1135  157.1945 H   0  0  0  0  0  0  0  0  0  0  0  0
  147.7580  141.5753  156.7276 H   0  0  0  0  0  0  0  0  0  0  0  0
  149.0948  141.6715  157.8538 H   0  0  0  0  0  0  0  0  0  0  0  0
  149.7094  141.2554  153.6160 H   0  0  0  0  0  0  0  0  0  0  0  0
  148.1111  141.2643  154.3085 H   0  0  0  0  0  0  0  0  0  0  0  0
  148.9633  139.4642  152.3525 H   0  0  0  0  0  0  0  0  0  0  0  0
  1  2  1  0  0  0  0
  1 18  1  0  0  0  0
  1 19  1  0  0  0  0
  1 20  1  0  0  0  0
  2  3  1  0  0  0  0
  2  9  1  0  0  0  0
  2 21  1  0  0  0  0
  3  4  1  0  0  0  0
  3 22  1  0  0  0  0
  3 23  1  0  0  0  0
  4  8  1  0  0  0  0
  4  5  1  0  0  0  0
  5  6  2  0  0  0  0
  5 24  1  0  0  0  0
  6  7  1  0  0  0  0
  7  8  2  0  0  0  0
  7 25  1  0  0  0  0
  9 10  1  0  0  0  0
  9 26  1  0  0  0  0
  9 42  1  0  0  0  0
 10 17  1  0  0  0  0
 10 11  1  0  0  0  0
 10 27  1  0  0  0  0
 11 12  1  0  0  0  0
 11 28  1  0  0  0  0
 11 29  1  0  0  0  0
 12 13  1  0  0  0  0
 12 30  1  0  0  0  0
 12 31  1  0  0  0  0
 13 14  1  0  0  0  0
 13 15  1  0  0  0  0
 13 32  1  0  0  0  0
 14 33  1  0  0  0  0
 14 34  1  0  0  0  0
 14 35  1  0  0  0  0
 15 16  1  0  0  0  0
 15 17  1  0  0  0  0
 15 36  1  0  0  0  0
 16 37  1  0  0  0  0
 16 38  1  0  0  0  0
 16 39  1  0  0  0  0
 17 40  1  0  0  0  0
 17 41  1  0  0  0  0
M  CHG  1   9   1
M  END
> <s_m_source_file>
AV-unprocessed.smi

> <i_m_source_file_index>
3181

> <i_lp_mmshare_version>
43012

> <i_f3d_flags>
0

> <s_epik_input>
bjFbY0hdbltjSF1uMVtDSDJdW0NAQEhdKFtDSDNdKVtOSF1bQ0BASF0yW0NIMl1bQ0gyXVtDQEBIXShbQ0gzXSlbQ0BASF0oW0NIM10pW0NIMl0y

> <s_epik_cmdline>
J2VwaWtfcHl0aG9uJywgJy1waCcsICc3LjAnLCAnLXRuJywgJzgnLCAnLW1hJywgJzIwMCcsICctbWV0YWxfYmluZGluZycsICctaW1hZScsICc8aW5maWxlLm1hZT4nLCAnLW9tYWUnLCAnPG91dGZpbGUubWFlPic=

> <r_lp_tautomer_probability>
1

> <r_epik_Ionization_Penalty>
0.000617007

> <r_epik_Ionization_Penalty_Charging>
0.000616215

> <r_epik_Ionization_Penalty_Neutral>
7.92544e-07

> <r_epik_State_Penalty>
0.000388807

> <r_epik_Charging_Adjusted_Penalty>
0.00100502

> <i_epik_Tot_Q>
1

> <i_epik_Tot_abs_Q>
1

> <r_epik_Metal_State_Penalty>
-0

> <b_epik_Metal_Only>
0

> <s_lp_Force_Field>
OPLS_2005

> <r_lp_Energy>
22.4909

> <b_lp_Chiralities_Consistent>
1

> <s_lp_Variant>
AV-unprocessed.smi:3181-15

> <Gold.Version>
5.8.1

> <Gold.Id.Protein>
6NUR|6NUR_protein|mol2

> <Gold.PLP.Fitness>
39.8137

> <Gold.PLP.PLP>
-28.0456

> <Gold.PLP.part.hbond>
-2.0000

> <Gold.PLP.part.metal>
0.0000

> <Gold.PLP.part.buried>
-2.1769

> <Gold.PLP.part.nonpolar>
-24.8735

> <Gold.PLP.part.repulsive>
0.2911

> <Gold.PLP.ligand.clash>
0.0000

> <Gold.PLP.ligand.torsion>
1.4106

> <Gold.PLP.Chemscore.Hbond>
3.0000

> <Gold.PLP.Chemscore.CHOScore>
1.8445

> <Gold.PLP.Chemscore.Metal>
0.0000

> <Gold.Chemscore.Hbonds>
donor molecule, donor type, donor heavy atom, donor atom, acceptor molecule, acceptor atom, score
      L1  H     9    26       P1  7948  2.00
      L1  H     9    42       P1  7957  0.84
      L1  C     5    24       P1 10171  0.93
      L1  C     5    24       P1 10175  0.52

> <Gold.PLP.Chemscore.Internal.Correction>
0.0557

> <Gold.Rescore>
     Score         DG    S(hbond)    S(metal)    S(lipo)     H(rot)  DE(clash)    DE(int)     intcor
     12.72     -14.64       1.99        0.00      67.72       2.11       0.55       1.38       ----

> <Gold.Chemscore.Fitness>
12.7153

> <Gold.Chemscore.DG>
-14.6423

> <Gold.Chemscore.ZeroCoef>
-5.4800

> <Gold.Chemscore.Hbond>
1.9878

> <Gold.Chemscore.Metal>
0.0000

> <Gold.Chemscore.Lipo>
67.7212

> <Gold.Chemscore.Internal_Hbond>
0.0000

> <Gold.Chemscore.DEClash>
0.5451

> <Gold.Chemscore.DEInternal>
1.3819

> <Gold.Chemscore.Rot>
2.1095

> <Gold.Chemscore.Internal.Correction>
   9.000000E+99

> <Gold.Chemscore.Hbonds>
donor molecule, donor type, donor heavy atom, donor atom, acceptor molecule, acceptor atom, score
      L1  H     9    26       P1  7948  0.96
      L1  H     9    42       P1  7957  0.82

> <Gold.Chemscore.Hbond.Weighted>
-6.6393

> <Gold.Chemscore.Metal.Weighted>
-0.0000

> <Gold.Chemscore.Lipo.Weighted>
-7.9234

> <Gold.Chemscore.Internal_Hbond.Weighted>
0.0000

> <Gold.Chemscore.DEClash.Weighted>
0.5451

> <Gold.Chemscore.DEInternal.Weighted>
1.3819

> <Gold.Chemscore.Rot.Weighted>
5.4003

> <Gold.Chemscore.Internal.Correction.Weighted>
   9.000000E+99

> <Gold.Protein.RotatedTorsions>
[ 6907 6896 6895 6894 ] final  178.02 input  -60.11 | X-H torsion
[ 7974 7965 7964 7962 ] final   72.69 input  175.53 | X-H torsion
[ 8008 7997 7996 7995 ] final  164.57 input   59.86 | X-H torsion
[ 10167 10162 10161 10158 ] final -135.34 input  -65.29 | X-H torsion
[ 10718 10713 10712 10709 ] final  -96.77 input   66.30 | X-H torsion
[ 10763 10752 10751 10750 ] final -148.99 input  -60.55 | X-H torsion
[ 11005 11000 10999 10996 ] final -108.26 input  -57.11 | X-H torsion

> <Gold.Protein.ActiveResidues>
 VAL166  LYS551  ARG553  GLY616  TRP617  ASP618  TYR619  PRO620  LYS621  CYS622 
 ASP623  PHE694  ASN695  SER759  ASP760  ASP761  ALA762  ILE779  LEU786  VAL792 
 PHE793  MET794  SER795  GLU796  ALA797  LYS798  CYS799  TRP800  GLU811  SER814 

> <Gold.Protein.RotatedAtoms>
  151.6946  133.3311  159.3251 H   0  0  0  0  0  0  0  0  0  0  0  0  # atno 6907 bound_to 6896
  150.7763  134.6669  159.6379 H   0  0  0  0  0  0  0  0  0  0  0  0  # atno 6908 bound_to 6896
  152.3806  134.6598  160.0196 H   0  0  0  0  0  0  0  0  0  0  0  0  # atno 6909 bound_to 6896
  145.7502  139.2757  143.1436 H   0  0  0  0  0  0  0  0  0  0  0  0  # atno 7974 bound_to 7965
  156.1870  140.1693  156.8166 H   0  0  0  0  0  0  0  0  0  0  0  0  # atno 8008 bound_to 7997
  154.5425  140.0734  156.8567 H   0  0  0  0  0  0  0  0  0  0  0  0  # atno 8009 bound_to 7997
  155.3186  140.3372  155.4244 H   0  0  0  0  0  0  0  0  0  0  0  0  # atno 8010 bound_to 7997
  139.8788  143.6865  152.2630 H   0  0  0  0  0  0  0  0  0  0  0  0  # atno 10167 bound_to 10162
  156.0069  130.5165  150.6275 H   0  0  0  0  0  0  0  0  0  0  0  0  # atno 10718 bound_to 10713
  154.8202  135.3320  154.7060 H   0  0  0  0  0  0  0  0  0  0  0  0  # atno 10763 bound_to 10752
  153.7694  135.6927  153.4914 H   0  0  0  0  0  0  0  0  0  0  0  0  # atno 10764 bound_to 10752
  153.2055  135.4501  155.0267 H   0  0  0  0  0  0  0  0  0  0  0  0  # atno 10765 bound_to 10752
  141.0911  133.9053  157.2073 H   0  0  0  0  0  0  0  0  0  0  0  0  # atno 11005 bound_to 11000
  146.0364  140.8208  142.9850 LP  0  0  0  0  0  0  0  0  0  0  0  0  # atno 17320 bound_to 7965
  144.6851  140.2845  143.7287 LP  0  0  0  0  0  0  0  0  0  0  0  0  # atno 17321 bound_to 7965
  139.7215  144.7601  151.0947 LP  0  0  0  0  0  0  0  0  0  0  0  0  # atno 17342 bound_to 10162
  140.7748  143.5202  150.9546 LP  0  0  0  0  0  0  0  0  0  0  0  0  # atno 17343 bound_to 10162
  157.4079  131.0819  151.1248 LP  0  0  0  0  0  0  0  0  0  0  0  0  # atno 17370 bound_to 10713
  157.1889  130.6343  149.5697 LP  0  0  0  0  0  0  0  0  0  0  0  0  # atno 17371 bound_to 10713
  139.9737  135.0120  156.9577 LP  0  0  0  0  0  0  0  0  0  0  0  0  # atno 17394 bound_to 11000
  140.5250  134.0870  155.7301 LP  0  0  0  0  0  0  0  0  0  0  0  0  # atno 17395 bound_to 11000

$$$$
