AV-unprocessed.smi:1868|AV-procd|sdf|7585|dock5
  -GOLD-   22720 9293D 1   1.00000     0.00000
 Structure written by MMmdl.
 47 49  0  0  0  0  0  0  0  0  2 V2000
  151.2783  139.1165  154.6571 C   0  0  0  0  0  0  0  0  0  0  0  0
  151.3721  140.0619  155.8125 C   0  0  0  0  0  0  0  0  0  0  0  0
  152.3066  139.9420  156.7550 N   0  0  0  0  0  0  0  0  0  0  0  0
  152.0288  141.0037  157.5945 C   0  0  0  0  0  0  0  0  0  0  0  0
  152.6632  141.4239  158.7852 C   0  0  0  0  0  0  0  0  0  0  0  0
  152.1930  142.5556  159.4832 C   0  0  0  0  0  0  0  0  0  0  0  0
  151.0848  143.2822  159.0016 C   0  0  0  0  0  0  0  0  0  0  0  0
  150.4380  142.8806  157.8172 C   0  0  0  0  0  0  0  0  0  0  0  0
  150.9102  141.7494  157.1248 C   0  0  0  0  0  0  0  0  0  0  0  0
  150.5091  141.0968  155.9628 N   0  0  0  0  0  0  0  0  0  0  0  0
  149.3931  141.4642  155.1017 C   0  0  0  0  0  0  0  0  0  0  0  0
  148.4843  140.2652  154.7665 C   0  0  1  0  0  0  0  0  0  0  0  0
  148.2744  139.4926  155.9330 O   0  0  0  0  0  0  0  0  0  0  0  0
  147.1140  140.7202  154.2272 C   0  0  0  0  0  0  0  0  0  0  0  0
  146.4357  139.6634  153.4335 N   0  3  2  0  0  0  0  0  0  0  0  0
  145.9856  138.5070  154.2532 C   0  0  0  0  0  0  0  0  0  0  0  0
  145.1707  137.5132  153.4087 C   0  0  0  0  0  0  0  0  0  0  0  0
  145.9716  137.0260  152.1896 C   0  0  1  0  0  0  0  0  0  0  0  0
  145.1535  136.0594  151.3217 C   0  0  0  0  0  0  0  0  0  0  0  0
  146.4570  138.2426  151.3841 C   0  0  0  0  0  0  0  0  0  0  0  0
  147.2460  139.2217  152.2695 C   0  0  0  0  0  0  0  0  0  0  0  0
  152.0322  138.3331  154.7422 H   0  0  0  0  0  0  0  0  0  0  0  0
  151.4437  139.6489  153.7203 H   0  0  0  0  0  0  0  0  0  0  0  0
  150.2963  138.6447  154.6284 H   0  0  0  0  0  0  0  0  0  0  0  0
  153.5128  140.8743  159.1626 H   0  0  0  0  0  0  0  0  0  0  0  0
  152.6850  142.8674  160.3930 H   0  0  0  0  0  0  0  0  0  0  0  0
  150.7313  144.1479  159.5426 H   0  0  0  0  0  0  0  0  0  0  0  0
  149.5880  143.4348  157.4478 H   0  0  0  0  0  0  0  0  0  0  0  0
  148.8187  142.2505  155.5934 H   0  0  0  0  0  0  0  0  0  0  0  0
  149.7868  141.9084  154.1873 H   0  0  0  0  0  0  0  0  0  0  0  0
  148.9919  139.6384  154.0347 H   0  0  0  0  0  0  0  0  0  0  0  0
  147.8266  138.6958  155.6896 H   0  0  0  0  0  0  0  0  0  0  0  0
  146.4894  141.0053  155.0754 H   0  0  0  0  0  0  0  0  0  0  0  0
  147.2196  141.6172  153.6149 H   0  0  0  0  0  0  0  0  0  0  0  0
  146.8530  138.0063  154.6865 H   0  0  0  0  0  0  0  0  0  0  0  0
  145.3711  138.8459  155.0862 H   0  0  0  0  0  0  0  0  0  0  0  0
  144.8760  136.6637  154.0260 H   0  0  0  0  0  0  0  0  0  0  0  0
  144.2461  137.9896  153.0788 H   0  0  0  0  0  0  0  0  0  0  0  0
  146.8479  136.4860  152.5516 H   0  0  0  0  0  0  0  0  0  0  0  0
  144.2543  136.5382  150.9327 H   0  0  0  0  0  0  0  0  0  0  0  0
  144.8438  135.1842  151.8937 H   0  0  0  0  0  0  0  0  0  0  0  0
  145.7371  135.7063  150.4710 H   0  0  0  0  0  0  0  0  0  0  0  0
  147.0826  137.9152  150.5529 H   0  0  0  0  0  0  0  0  0  0  0  0
  145.6033  138.7590  150.9425 H   0  0  0  0  0  0  0  0  0  0  0  0
  147.5350  140.0870  151.6715 H   0  0  0  0  0  0  0  0  0  0  0  0
  148.1682  138.7559  152.6209 H   0  0  0  0  0  0  0  0  0  0  0  0
  145.6069  140.0946  153.0486 H   0  0  0  0  0  0  0  0  0  0  0  0
  1  2  1  0  0  0  0
  1 22  1  0  0  0  0
  1 23  1  0  0  0  0
  1 24  1  0  0  0  0
  2 10  1  0  0  0  0
  2  3  2  0  0  0  0
  3  4  1  0  0  0  0
  4  9  2  0  0  0  0
  4  5  1  0  0  0  0
  5  6  2  0  0  0  0
  5 25  1  0  0  0  0
  6  7  1  0  0  0  0
  6 26  1  0  0  0  0
  7  8  2  0  0  0  0
  7 27  1  0  0  0  0
  8  9  1  0  0  0  0
  8 28  1  0  0  0  0
  9 10  1  0  0  0  0
 10 11  1  0  0  0  0
 11 12  1  0  0  0  0
 11 29  1  0  0  0  0
 11 30  1  0  0  0  0
 12 13  1  0  0  0  0
 12 14  1  0  0  0  0
 12 31  1  0  0  0  0
 13 32  1  0  0  0  0
 14 15  1  0  0  0  0
 14 33  1  0  0  0  0
 14 34  1  0  0  0  0
 15 21  1  0  0  0  0
 15 16  1  0  0  0  0
 15 47  1  0  0  0  0
 16 17  1  0  0  0  0
 16 35  1  0  0  0  0
 16 36  1  0  0  0  0
 17 18  1  0  0  0  0
 17 37  1  0  0  0  0
 17 38  1  0  0  0  0
 18 19  1  0  0  0  0
 18 20  1  0  0  0  0
 18 39  1  0  0  0  0
 19 40  1  0  0  0  0
 19 41  1  0  0  0  0
 19 42  1  0  0  0  0
 20 21  1  0  0  0  0
 20 43  1  0  0  0  0
 20 44  1  0  0  0  0
 21 45  1  0  0  0  0
 21 46  1  0  0  0  0
M  CHG  1  15   1
M  END
> <s_m_source_file>
AV-unprocessed.smi

> <i_m_source_file_index>
1868

> <i_lp_mmshare_version>
43012

> <i_f3d_flags>
0

> <s_epik_input>
W2NIXTFbY0hdW2NIXVtjSF1jKGMxMiluKGMobjIpW0NIM10pW0NIMl1bQ0BIXShbT0hdKVtDSDJdTjNbQ0gyXVtDSDJdW0NIXShbQ0gzXSlbQ0gyXVtDSDJdMw==

> <s_epik_cmdline>
J2VwaWtfcHl0aG9uJywgJy1waCcsICc3LjAnLCAnLXRuJywgJzgnLCAnLW1hJywgJzIwMCcsICctbWV0YWxfYmluZGluZycsICctaW1hZScsICc8aW5maWxlLm1hZT4nLCAnLW9tYWUnLCAnPG91dGZpbGUubWFlPic=

> <r_epik_Ionization_Penalty>
0.101157

> <r_epik_Ionization_Penalty_Charging>
0.00181365

> <r_epik_Ionization_Penalty_Neutral>
0.0993436

> <r_epik_State_Penalty>
0.0871902

> <r_epik_Charging_Adjusted_Penalty>
0.0890039

> <i_epik_Tot_Q>
1

> <i_epik_Tot_abs_Q>
1

> <r_epik_Metal_State_Penalty>
9.24346e-05

> <b_epik_Metal_Only>
0

> <s_lp_Force_Field>
OPLS_2005

> <r_lp_Energy>
21.7142

> <b_lp_Chiralities_Consistent>
1

> <s_lp_Variant>
AV-unprocessed.smi:1868-2

> <Gold.Version>
5.8.1

> <Gold.Id.Protein>
6NUR|6NUR_protein|mol2

> <Gold.PLP.Fitness>
45.3813

> <Gold.PLP.PLP>
-37.3789

> <Gold.PLP.part.hbond>
-2.0000

> <Gold.PLP.part.metal>
0.0000

> <Gold.PLP.part.buried>
2.2802

> <Gold.PLP.part.nonpolar>
-38.0387

> <Gold.PLP.part.repulsive>
0.0000

> <Gold.PLP.ligand.clash>
0.0000

> <Gold.PLP.ligand.torsion>
0.4842

> <Gold.PLP.Chemscore.Hbond>
2.9738

> <Gold.PLP.Chemscore.CHOScore>
0.0000

> <Gold.PLP.Chemscore.Metal>
0.0000

> <Gold.Chemscore.Hbonds>
donor molecule, donor type, donor heavy atom, donor atom, acceptor molecule, acceptor atom, score
      L1  H    15    47       P1 10175  1.95
      P1  H  7997  8009       L1     3  0.94

> <Gold.PLP.Chemscore.Internal.Correction>
0.0496

> <Gold.Rescore>
     Score         DG    S(hbond)    S(metal)    S(lipo)     H(rot)  DE(clash)    DE(int)     intcor
     16.91     -17.47       1.50        0.00     101.59       1.92       0.06       0.50       ----

> <Gold.Chemscore.Fitness>
16.9146

> <Gold.Chemscore.DG>
-17.4715

> <Gold.Chemscore.ZeroCoef>
-5.4800

> <Gold.Chemscore.Hbond>
1.5030

> <Gold.Chemscore.Metal>
0.0000

> <Gold.Chemscore.Lipo>
101.5910

> <Gold.Chemscore.Internal_Hbond>
0.0000

> <Gold.Chemscore.DEClash>
0.0605

> <Gold.Chemscore.DEInternal>
0.4964

> <Gold.Chemscore.Rot>
1.9198

> <Gold.Chemscore.Internal.Correction>
   9.000000E+99

> <Gold.Chemscore.Hbonds>
donor molecule, donor type, donor heavy atom, donor atom, acceptor molecule, acceptor atom, score
      L1  H    15    47       P1 10175  0.90
      P1  H  7997  8009       L1     3  0.31

> <Gold.Chemscore.Hbond.Weighted>
-5.0201

> <Gold.Chemscore.Metal.Weighted>
-0.0000

> <Gold.Chemscore.Lipo.Weighted>
-11.8862

> <Gold.Chemscore.Internal_Hbond.Weighted>
0.0000

> <Gold.Chemscore.DEClash.Weighted>
0.0605

> <Gold.Chemscore.DEInternal.Weighted>
0.4964

> <Gold.Chemscore.Rot.Weighted>
4.9147

> <Gold.Chemscore.Internal.Correction.Weighted>
   9.000000E+99

> <Gold.Protein.RotatedTorsions>
[ 6907 6896 6895 6894 ] final -123.16 input  -60.11 | X-H torsion
[ 7974 7965 7964 7962 ] final   75.39 input  175.53 | X-H torsion
[ 8008 7997 7996 7995 ] final -173.25 input   59.86 | X-H torsion
[ 10167 10162 10161 10158 ] final  -83.37 input  -65.29 | X-H torsion
[ 10718 10713 10712 10709 ] final  100.35 input   66.30 | X-H torsion
[ 10763 10752 10751 10750 ] final   91.57 input  -60.55 | X-H torsion
[ 11005 11000 10999 10996 ] final   -4.66 input  -57.11 | X-H torsion

> <Gold.Protein.ActiveResidues>
 VAL166  LYS551  ARG553  GLY616  TRP617  ASP618  TYR619  PRO620  LYS621  CYS622 
 ASP623  PHE694  ASN695  SER759  ASP760  ASP761  ALA762  ILE779  LEU786  VAL792 
 PHE793  MET794  SER795  GLU796  ALA797  LYS798  CYS799  TRP800  GLU811  SER814 

> <Gold.Protein.RotatedAtoms>
  150.8645  133.7595  159.2981 H   0  0  0  0  0  0  0  0  0  0  0  0  # atno 6907 bound_to 6896
  151.5227  135.1066  159.9892 H   0  0  0  0  0  0  0  0  0  0  0  0  # atno 6908 bound_to 6896
  152.4650  133.7860  159.6932 H   0  0  0  0  0  0  0  0  0  0  0  0  # atno 6909 bound_to 6896
  145.7162  139.2632  143.1622 H   0  0  0  0  0  0  0  0  0  0  0  0  # atno 7974 bound_to 7965
  155.9551  140.1133  157.0944 H   0  0  0  0  0  0  0  0  0  0  0  0  # atno 8008 bound_to 7997
  154.4118  140.1193  156.5170 H   0  0  0  0  0  0  0  0  0  0  0  0  # atno 8009 bound_to 7997
  155.6793  140.3473  155.4851 H   0  0  0  0  0  0  0  0  0  0  0  0  # atno 8010 bound_to 7997
  140.4233  143.2576  151.8860 H   0  0  0  0  0  0  0  0  0  0  0  0  # atno 10167 bound_to 10162
  157.6856  131.0696  150.5087 H   0  0  0  0  0  0  0  0  0  0  0  0  # atno 10718 bound_to 10713
  153.2097  135.4393  155.0365 H   0  0  0  0  0  0  0  0  0  0  0  0  # atno 10763 bound_to 10752
  154.8193  135.3330  154.7087 H   0  0  0  0  0  0  0  0  0  0  0  0  # atno 10764 bound_to 10752
  153.7526  135.6997  153.4998 H   0  0  0  0  0  0  0  0  0  0  0  0  # atno 10765 bound_to 10752
  140.6827  133.9140  155.8565 H   0  0  0  0  0  0  0  0  0  0  0  0  # atno 11005 bound_to 11000
  146.0668  140.7912  142.9708 LP  0  0  0  0  0  0  0  0  0  0  0  0  # atno 17320 bound_to 7965
  144.6929  140.3280  143.7221 LP  0  0  0  0  0  0  0  0  0  0  0  0  # atno 17321 bound_to 7965
  139.4783  144.5414  151.8522 LP  0  0  0  0  0  0  0  0  0  0  0  0  # atno 17342 bound_to 10162
  140.4510  144.1856  150.5897 LP  0  0  0  0  0  0  0  0  0  0  0  0  # atno 17343 bound_to 10162
  156.5405  130.4207  149.6156 LP  0  0  0  0  0  0  0  0  0  0  0  0  # atno 17370 bound_to 10713
  156.2990  130.7166  151.2033 LP  0  0  0  0  0  0  0  0  0  0  0  0  # atno 17371 bound_to 10713
  141.0305  134.0763  157.4020 LP  0  0  0  0  0  0  0  0  0  0  0  0  # atno 17394 bound_to 11000
  139.8947  135.0137  156.6963 LP  0  0  0  0  0  0  0  0  0  0  0  0  # atno 17395 bound_to 11000

$$$$
