AV-unprocessed.smi:3147|AV-procd|sdf|11988|dock9
  -GOLD-   2272017393D 1   1.00000     0.00000
 Structure written by MMmdl.
 37 38  0  0  0  0  0  0  0  0  2 V2000
  151.2916  145.1111  159.3877 C   0  0  0  0  0  0  0  0  0  0  0  0
  151.2571  143.7712  158.7320 C   0  0  0  0  0  0  0  0  0  0  0  0
  150.5170  143.5397  157.6024 N   0  3  0  0  0  0  0  0  0  0  0  0
  150.6490  142.2734  157.2057 C   0  0  0  0  0  0  0  0  0  0  0  0
  151.4727  141.6802  158.0764 N   0  0  0  0  0  0  0  0  0  0  0  0
  151.8554  140.2663  157.9384 C   0  0  0  0  0  0  0  0  0  0  0  0
  151.5564  139.7036  156.5437 C   0  0  0  0  0  0  0  0  0  0  0  0
  152.3111  139.9241  155.5952 O   0  0  0  0  0  0  0  0  0  0  0  0
  150.4377  138.9718  156.4357 N   0  0  0  0  0  0  0  0  0  0  0  0
  149.9539  138.3574  155.2044 C   0  0  0  0  0  0  0  0  0  0  0  0
  149.1273  139.3448  154.3633 C   0  0  1  0  0  0  0  0  0  0  0  0
  147.7424  139.6321  154.9373 C   0  0  0  0  0  0  0  0  0  0  0  0
  147.4224  140.9638  154.2977 C   0  0  0  0  0  0  0  0  0  0  0  0
  148.7828  141.6575  154.3027 C   0  0  0  0  0  0  0  0  0  0  0  0
  149.7612  140.6198  154.3118 O   0  0  0  0  0  0  0  0  0  0  0  0
  151.8742  142.5795  159.0395 C   0  0  0  0  0  0  0  0  0  0  0  0
  152.8055  142.2147  160.1506 C   0  0  0  0  0  0  0  0  0  0  0  0
  151.9437  145.0990  160.2607 H   0  0  0  0  0  0  0  0  0  0  0  0
  150.2904  145.3990  159.7090 H   0  0  0  0  0  0  0  0  0  0  0  0
  151.6638  145.8616  158.6899 H   0  0  0  0  0  0  0  0  0  0  0  0
  150.1851  141.8205  156.3477 H   0  0  0  0  0  0  0  0  0  0  0  0
  152.9198  140.1716  158.1555 H   0  0  0  0  0  0  0  0  0  0  0  0
  151.3197  139.6901  158.6947 H   0  0  0  0  0  0  0  0  0  0  0  0
  149.8723  138.8388  157.2618 H   0  0  0  0  0  0  0  0  0  0  0  0
  150.7978  137.9808  154.6238 H   0  0  0  0  0  0  0  0  0  0  0  0
  149.3483  137.4897  155.4678 H   0  0  0  0  0  0  0  0  0  0  0  0
  149.0161  138.9801  153.3408 H   0  0  0  0  0  0  0  0  0  0  0  0
  147.0137  138.8567  154.6993 H   0  0  0  0  0  0  0  0  0  0  0  0
  147.7879  139.7394  156.0220 H   0  0  0  0  0  0  0  0  0  0  0  0
  147.0821  140.8121  153.2726 H   0  0  0  0  0  0  0  0  0  0  0  0
  146.6552  141.5246  154.8323 H   0  0  0  0  0  0  0  0  0  0  0  0
  148.9100  142.3148  153.4420 H   0  0  0  0  0  0  0  0  0  0  0  0
  148.9052  142.2562  155.2059 H   0  0  0  0  0  0  0  0  0  0  0  0
  153.1304  143.1033  160.6907 H   0  0  0  0  0  0  0  0  0  0  0  0
  153.6904  141.7143  159.7567 H   0  0  0  0  0  0  0  0  0  0  0  0
  152.3088  141.5456  160.8532 H   0  0  0  0  0  0  0  0  0  0  0  0
  149.9504  144.2324  157.1291 H   0  0  0  0  0  0  0  0  0  0  0  0
  1  2  1  0  0  0  0
  1 18  1  0  0  0  0
  1 19  1  0  0  0  0
  1 20  1  0  0  0  0
  2 16  2  0  0  0  0
  2  3  1  0  0  0  0
  3  4  2  0  0  0  0
  3 37  1  0  0  0  0
  4  5  1  0  0  0  0
  4 21  1  0  0  0  0
  5  6  1  0  0  0  0
  5 16  1  0  0  0  0
  6  7  1  0  0  0  0
  6 22  1  0  0  0  0
  6 23  1  0  0  0  0
  7  8  2  0  0  0  0
  7  9  1  0  0  0  0
  9 10  1  0  0  0  0
  9 24  1  0  0  0  0
 10 11  1  0  0  0  0
 10 25  1  0  0  0  0
 10 26  1  0  0  0  0
 11 15  1  0  0  0  0
 11 12  1  0  0  0  0
 11 27  1  0  0  0  0
 12 13  1  0  0  0  0
 12 28  1  0  0  0  0
 12 29  1  0  0  0  0
 13 14  1  0  0  0  0
 13 30  1  0  0  0  0
 13 31  1  0  0  0  0
 14 15  1  0  0  0  0
 14 32  1  0  0  0  0
 14 33  1  0  0  0  0
 16 17  1  0  0  0  0
 17 34  1  0  0  0  0
 17 35  1  0  0  0  0
 17 36  1  0  0  0  0
M  CHG  1   3   1
M  END
> <s_m_source_file>
AV-unprocessed.smi

> <i_m_source_file_index>
3147

> <i_lp_mmshare_version>
43012

> <i_f3d_flags>
0

> <s_epik_input>
W0NIM11jMW5bY0hdbihjMVtDSDNdKVtDSDJdQyg9TylbTkhdW0NIMl1bQ0BASF0yW0NIMl1bQ0gyXVtDSDJdTzI=

> <s_epik_cmdline>
J2VwaWtfcHl0aG9uJywgJy1waCcsICc3LjAnLCAnLXRuJywgJzgnLCAnLW1hJywgJzIwMCcsICctbWV0YWxfYmluZGluZycsICctaW1hZScsICc8aW5maWxlLm1hZT4nLCAnLW9tYWUnLCAnPG91dGZpbGUubWFlPic=

> <r_lp_tautomer_probability>
1

> <r_epik_Ionization_Penalty>
0.131257

> <r_epik_Ionization_Penalty_Charging>
0

> <r_epik_Ionization_Penalty_Neutral>
0.131257

> <r_epik_State_Penalty>
0.12065

> <r_epik_Charging_Adjusted_Penalty>
0.12065

> <i_epik_Tot_Q>
1

> <i_epik_Tot_abs_Q>
1

> <r_epik_Metal_State_Penalty>
0.448684

> <b_epik_Metal_Only>
0

> <s_lp_Force_Field>
OPLS_2005

> <r_lp_Energy>
19.5729

> <b_lp_Chiralities_Consistent>
1

> <s_lp_Variant>
AV-unprocessed.smi:3147-2

> <Gold.Version>
5.8.1

> <Gold.Id.Protein>
6NUR|6NUR_protein|mol2

> <Gold.PLP.Fitness>
45.7438

> <Gold.PLP.PLP>
-36.1411

> <Gold.PLP.part.hbond>
-3.8827

> <Gold.PLP.part.metal>
0.0000

> <Gold.PLP.part.buried>
-3.6872

> <Gold.PLP.part.nonpolar>
-29.3813

> <Gold.PLP.part.repulsive>
0.1561

> <Gold.PLP.ligand.clash>
0.0000

> <Gold.PLP.ligand.torsion>
0.7800

> <Gold.PLP.Chemscore.Hbond>
3.7200

> <Gold.PLP.Chemscore.CHOScore>
0.0000

> <Gold.PLP.Chemscore.Metal>
0.0000

> <Gold.Chemscore.Hbonds>
donor molecule, donor type, donor heavy atom, donor atom, acceptor molecule, acceptor atom, score
      L1  H     3    37       P1  8028  2.00
      P1  H  7989  7998       L1    15  0.70
      P1  H  7997  8008       L1     8  0.75

> <Gold.PLP.Chemscore.Internal.Correction>
0.0026

> <Gold.Rescore>
     Score         DG    S(hbond)    S(metal)    S(lipo)     H(rot)  DE(clash)    DE(int)     intcor
     18.00     -18.75       2.68        0.00      75.42       1.76       0.06       0.69       ----

> <Gold.Chemscore.Fitness>
17.9969

> <Gold.Chemscore.DG>
-18.7462

> <Gold.Chemscore.ZeroCoef>
-5.4800

> <Gold.Chemscore.Hbond>
2.6773

> <Gold.Chemscore.Metal>
0.0000

> <Gold.Chemscore.Lipo>
75.4163

> <Gold.Chemscore.Internal_Hbond>
0.0000

> <Gold.Chemscore.DEClash>
0.0593

> <Gold.Chemscore.DEInternal>
0.6899

> <Gold.Chemscore.Rot>
1.7577

> <Gold.Chemscore.Internal.Correction>
   9.000000E+99

> <Gold.Chemscore.Hbonds>
donor molecule, donor type, donor heavy atom, donor atom, acceptor molecule, acceptor atom, score
      L1  H     3    37       P1  8028  0.67
      P1  H  7989  7998       L1    15  0.64
      P1  H  7997  8008       L1     8  0.68

> <Gold.Chemscore.Hbond.Weighted>
-8.9423

> <Gold.Chemscore.Metal.Weighted>
-0.0000

> <Gold.Chemscore.Lipo.Weighted>
-8.8237

> <Gold.Chemscore.Internal_Hbond.Weighted>
0.0000

> <Gold.Chemscore.DEClash.Weighted>
0.0593

> <Gold.Chemscore.DEInternal.Weighted>
0.6899

> <Gold.Chemscore.Rot.Weighted>
4.4998

> <Gold.Chemscore.Internal.Correction.Weighted>
   9.000000E+99

> <Gold.Protein.RotatedTorsions>
[ 6907 6896 6895 6894 ] final  164.24 input  -60.11 | X-H torsion
[ 7974 7965 7964 7962 ] final   77.14 input  175.53 | X-H torsion
[ 8008 7997 7996 7995 ] final  -29.53 input   59.86 | X-H torsion
[ 10167 10162 10161 10158 ] final   67.22 input  -65.29 | X-H torsion
[ 10718 10713 10712 10709 ] final  -14.23 input   66.30 | X-H torsion
[ 10763 10752 10751 10750 ] final  113.33 input  -60.55 | X-H torsion
[ 11005 11000 10999 10996 ] final  115.19 input  -57.11 | X-H torsion

> <Gold.Protein.ActiveResidues>
 VAL166  LYS551  ARG553  GLY616  TRP617  ASP618  TYR619  PRO620  LYS621  CYS622 
 ASP623  PHE694  ASN695  SER759  ASP760  ASP761  ALA762  ILE779  LEU786  VAL792 
 PHE793  MET794  SER795  GLU796  ALA797  LYS798  CYS799  TRP800  GLU811  SER814 

> <Gold.Protein.RotatedAtoms>
  151.9129  133.3566  159.3869 H   0  0  0  0  0  0  0  0  0  0  0  0  # atno 6907 bound_to 6896
  150.7054  134.4713  159.5436 H   0  0  0  0  0  0  0  0  0  0  0  0  # atno 6908 bound_to 6896
  152.2323  134.8310  160.0523 H   0  0  0  0  0  0  0  0  0  0  0  0  # atno 6909 bound_to 6896
  145.6939  139.2561  143.1744 H   0  0  0  0  0  0  0  0  0  0  0  0  # atno 7974 bound_to 7965
  154.4286  140.1816  156.1262 H   0  0  0  0  0  0  0  0  0  0  0  0  # atno 8008 bound_to 7997
  156.0104  140.3351  155.6910 H   0  0  0  0  0  0  0  0  0  0  0  0  # atno 8009 bound_to 7997
  155.6119  140.0651  157.2694 H   0  0  0  0  0  0  0  0  0  0  0  0  # atno 8010 bound_to 7997
  140.0919  144.4981  150.7093 H   0  0  0  0  0  0  0  0  0  0  0  0  # atno 10167 bound_to 10162
  156.6189  130.4870  149.6172 H   0  0  0  0  0  0  0  0  0  0  0  0  # atno 10718 bound_to 10713
  153.4908  135.3659  155.2491 H   0  0  0  0  0  0  0  0  0  0  0  0  # atno 10763 bound_to 10752
  154.8752  135.3977  154.3590 H   0  0  0  0  0  0  0  0  0  0  0  0  # atno 10764 bound_to 10752
  153.4210  135.7080  153.6360 H   0  0  0  0  0  0  0  0  0  0  0  0  # atno 10765 bound_to 10752
  139.9002  134.9580  156.7008 H   0  0  0  0  0  0  0  0  0  0  0  0  # atno 11005 bound_to 11000
  146.0858  140.7712  142.9619 LP  0  0  0  0  0  0  0  0  0  0  0  0  # atno 17320 bound_to 7965
  144.6988  140.3560  143.7173 LP  0  0  0  0  0  0  0  0  0  0  0  0  # atno 17321 bound_to 7965
  140.7024  143.2444  151.4825 LP  0  0  0  0  0  0  0  0  0  0  0  0  # atno 17342 bound_to 10162
  139.5720  144.1906  152.1850 LP  0  0  0  0  0  0  0  0  0  0  0  0  # atno 17343 bound_to 10162
  156.2328  130.6804  151.1480 LP  0  0  0  0  0  0  0  0  0  0  0  0  # atno 17370 bound_to 10713
  157.7233  131.0667  150.6042 LP  0  0  0  0  0  0  0  0  0  0  0  0  # atno 17371 bound_to 10713
  140.7152  133.9188  155.8110 LP  0  0  0  0  0  0  0  0  0  0  0  0  # atno 17394 bound_to 11000
  141.0270  134.0810  157.4058 LP  0  0  0  0  0  0  0  0  0  0  0  0  # atno 17395 bound_to 11000

$$$$
