AV-unprocessed.smi:1294|AV-procd|sdf|5400|dock10
  -GOLD-   22720 4563D 1   1.00000     0.00000
 Structure written by MMmdl.
 45 46  0  0  0  0  0  0  0  0  1 V2000
  150.1190  145.2734  160.0858 C   0  0  0  0  0  0  0  0  0  0  0  0
  151.2604  144.3382  160.3657 C   0  0  0  0  0  0  0  0  0  0  0  0
  151.6439  144.1365  161.6157 N   0  0  0  0  0  0  0  0  0  0  0  0
  152.6643  143.2602  161.5253 N   0  0  0  0  0  0  0  0  0  0  0  0
  153.3255  142.8110  162.7350 C   0  0  0  0  0  0  0  0  0  0  0  0
  152.9267  142.9086  160.2154 C   0  0  0  0  0  0  0  0  0  0  0  0
  154.0099  141.9459  159.8500 C   0  0  0  0  0  0  0  0  0  0  0  0
  152.0363  143.5919  159.4309 C   0  0  0  0  0  0  0  0  0  0  0  0
  151.8911  143.5703  157.9301 C   0  0  0  0  0  0  0  0  0  0  0  0
  151.2441  142.2570  157.4851 C   0  0  0  0  0  0  0  0  0  0  0  0
  151.7752  141.1818  157.7643 O   0  0  0  0  0  0  0  0  0  0  0  0
  150.1001  142.3606  156.7907 N   0  0  0  0  0  0  0  0  0  0  0  0
  149.3247  141.2459  156.2550 C   0  0  0  0  0  0  0  0  0  0  0  0
  149.7110  140.9210  154.8030 C   0  0  0  0  0  0  0  0  0  0  0  0
  149.1588  139.2694  154.2869 S   0  0  0  0  0  0  0  0  0  0  0  0
  150.5441  138.2575  154.8807 C   0  0  0  0  0  0  0  0  0  0  0  0
  150.4790  138.0079  156.3867 C   0  0  0  0  0  0  0  0  0  0  0  0
  151.9072  137.6145  156.7711 C   0  0  0  0  0  0  0  0  0  0  0  0
  152.8261  138.2921  155.7427 C   0  0  0  0  0  0  0  0  0  0  0  0
  151.9083  138.9254  154.6880 C   0  0  0  0  0  0  0  0  0  0  0  0
  149.3916  144.8109  159.4184 H   0  0  0  0  0  0  0  0  0  0  0  0
  150.4733  146.1871  159.6088 H   0  0  0  0  0  0  0  0  0  0  0  0
  149.5943  145.5571  160.9989 H   0  0  0  0  0  0  0  0  0  0  0  0
  154.4017  142.9587  162.6428 H   0  0  0  0  0  0  0  0  0  0  0  0
  153.1224  141.7511  162.8895 H   0  0  0  0  0  0  0  0  0  0  0  0
  152.9669  143.3694  163.6007 H   0  0  0  0  0  0  0  0  0  0  0  0
  153.9574  141.6730  158.7962 H   0  0  0  0  0  0  0  0  0  0  0  0
  153.9286  141.0288  160.4337 H   0  0  0  0  0  0  0  0  0  0  0  0
  154.9918  142.3809  160.0358 H   0  0  0  0  0  0  0  0  0  0  0  0
  151.2686  144.3936  157.5786 H   0  0  0  0  0  0  0  0  0  0  0  0
  152.8581  143.6963  157.4410 H   0  0  0  0  0  0  0  0  0  0  0  0
  149.7409  143.2877  156.6141 H   0  0  0  0  0  0  0  0  0  0  0  0
  149.5346  140.3791  156.8817 H   0  0  0  0  0  0  0  0  0  0  0  0
  148.2512  141.4248  156.3370 H   0  0  0  0  0  0  0  0  0  0  0  0
  149.3017  141.6688  154.1228 H   0  0  0  0  0  0  0  0  0  0  0  0
  150.7954  140.9620  154.7020 H   0  0  0  0  0  0  0  0  0  0  0  0
  150.5311  137.2976  154.3625 H   0  0  0  0  0  0  0  0  0  0  0  0
  150.2041  138.9277  156.9056 H   0  0  0  0  0  0  0  0  0  0  0  0
  149.7481  137.2443  156.6552 H   0  0  0  0  0  0  0  0  0  0  0  0
  152.1462  137.9053  157.7943 H   0  0  0  0  0  0  0  0  0  0  0  0
  152.0207  136.5317  156.7042 H   0  0  0  0  0  0  0  0  0  0  0  0
  153.4596  139.0480  156.2084 H   0  0  0  0  0  0  0  0  0  0  0  0
  153.4847  137.5526  155.2855 H   0  0  0  0  0  0  0  0  0  0  0  0
  152.2950  138.7995  153.6764 H   0  0  0  0  0  0  0  0  0  0  0  0
  151.8275  139.9967  154.8782 H   0  0  0  0  0  0  0  0  0  0  0  0
  1  2  1  0  0  0  0
  1 21  1  0  0  0  0
  1 22  1  0  0  0  0
  1 23  1  0  0  0  0
  2  8  1  0  0  0  0
  2  3  2  0  0  0  0
  3  4  1  0  0  0  0
  4  5  1  0  0  0  0
  4  6  1  0  0  0  0
  5 24  1  0  0  0  0
  5 25  1  0  0  0  0
  5 26  1  0  0  0  0
  6  7  1  0  0  0  0
  6  8  2  0  0  0  0
  7 27  1  0  0  0  0
  7 28  1  0  0  0  0
  7 29  1  0  0  0  0
  8  9  1  0  0  0  0
  9 10  1  0  0  0  0
  9 30  1  0  0  0  0
  9 31  1  0  0  0  0
 10 11  2  0  0  0  0
 10 12  1  0  0  0  0
 12 13  1  0  0  0  0
 12 32  1  0  0  0  0
 13 14  1  0  0  0  0
 13 33  1  0  0  0  0
 13 34  1  0  0  0  0
 14 15  1  0  0  0  0
 14 35  1  0  0  0  0
 14 36  1  0  0  0  0
 15 16  1  0  0  0  0
 16 20  1  0  0  0  0
 16 17  1  0  0  0  0
 16 37  1  0  0  0  0
 17 18  1  0  0  0  0
 17 38  1  0  0  0  0
 17 39  1  0  0  0  0
 18 19  1  0  0  0  0
 18 40  1  0  0  0  0
 18 41  1  0  0  0  0
 19 20  1  0  0  0  0
 19 42  1  0  0  0  0
 19 43  1  0  0  0  0
 20 44  1  0  0  0  0
 20 45  1  0  0  0  0
M  END
> <s_m_source_file>
AV-unprocessed.smi

> <i_m_source_file_index>
1294

> <i_lp_mmshare_version>
43012

> <i_f3d_flags>
0

> <s_epik_input>
W0NIM11jMW5uKFtDSDNdKWMoW0NIM10pYzFbQ0gyXUMoPU8pW05IXVtDSDJdW0NIMl1TW0NIXTJbQ0gyXVtDSDJdW0NIMl1bQ0gyXTI=

> <s_epik_cmdline>
J2VwaWtfcHl0aG9uJywgJy1waCcsICc3LjAnLCAnLXRuJywgJzgnLCAnLW1hJywgJzIwMCcsICctbWV0YWxfYmluZGluZycsICctaW1hZScsICc8aW5maWxlLm1hZT4nLCAnLW9tYWUnLCAnPG91dGZpbGUubWFlPic=

> <r_lp_tautomer_probability>
1

> <r_epik_Ionization_Penalty>
0.00302432

> <r_epik_Ionization_Penalty_Charging>
0

> <r_epik_Ionization_Penalty_Neutral>
0.00302432

> <r_epik_State_Penalty>
0.0021246

> <r_epik_Charging_Adjusted_Penalty>
0.0021246

> <i_epik_Tot_Q>
0

> <i_epik_Tot_abs_Q>
0

> <r_epik_Metal_State_Penalty>
-0

> <b_epik_Metal_Only>
0

> <s_lp_Force_Field>
OPLS_2005

> <r_lp_Energy>
15.1488

> <b_lp_Chiralities_Consistent>
1

> <s_lp_Variant>
AV-unprocessed.smi:1294-1

> <Gold.Version>
5.8.1

> <Gold.Id.Protein>
6NUR|6NUR_protein|mol2

> <Gold.PLP.Fitness>
48.2136

> <Gold.PLP.PLP>
-46.6855

> <Gold.PLP.part.hbond>
-1.0000

> <Gold.PLP.part.metal>
0.0000

> <Gold.PLP.part.buried>
-4.6994

> <Gold.PLP.part.nonpolar>
-40.0731

> <Gold.PLP.part.repulsive>
0.2232

> <Gold.PLP.ligand.clash>
0.0000

> <Gold.PLP.ligand.torsion>
0.7587

> <Gold.PLP.Chemscore.Hbond>
1.0000

> <Gold.PLP.Chemscore.CHOScore>
0.0000

> <Gold.PLP.Chemscore.Metal>
0.0000

> <Gold.Chemscore.Hbonds>
donor molecule, donor type, donor heavy atom, donor atom, acceptor molecule, acceptor atom, score
      L1  H    12    32       P1  8028  1.00

> <Gold.PLP.Chemscore.Internal.Correction>
0.0454

> <Gold.Rescore>
     Score         DG    S(hbond)    S(metal)    S(lipo)     H(rot)  DE(clash)    DE(int)     intcor
     18.43     -19.37       0.99        0.00     124.90       1.58       0.04       0.90       ----

> <Gold.Chemscore.Fitness>
18.4282

> <Gold.Chemscore.DG>
-19.3655

> <Gold.Chemscore.ZeroCoef>
-5.4800

> <Gold.Chemscore.Hbond>
0.9915

> <Gold.Chemscore.Metal>
0.0000

> <Gold.Chemscore.Lipo>
124.8951

> <Gold.Chemscore.Internal_Hbond>
0.0000

> <Gold.Chemscore.DEClash>
0.0405

> <Gold.Chemscore.DEInternal>
0.8968

> <Gold.Chemscore.Rot>
1.5776

> <Gold.Chemscore.Internal.Correction>
   9.000000E+99

> <Gold.Chemscore.Hbonds>
donor molecule, donor type, donor heavy atom, donor atom, acceptor molecule, acceptor atom, score
      L1  H    12    32       P1  8028  0.99

> <Gold.Chemscore.Hbond.Weighted>
-3.3115

> <Gold.Chemscore.Metal.Weighted>
-0.0000

> <Gold.Chemscore.Lipo.Weighted>
-14.6127

> <Gold.Chemscore.Internal_Hbond.Weighted>
0.0000

> <Gold.Chemscore.DEClash.Weighted>
0.0405

> <Gold.Chemscore.DEInternal.Weighted>
0.8968

> <Gold.Chemscore.Rot.Weighted>
4.0387

> <Gold.Chemscore.Internal.Correction.Weighted>
   9.000000E+99

> <Gold.Protein.RotatedTorsions>
[ 6907 6896 6895 6894 ] final  -44.78 input  -60.11 | X-H torsion
[ 7974 7965 7964 7962 ] final -169.23 input  175.53 | X-H torsion
[ 8008 7997 7996 7995 ] final  139.47 input   59.86 | X-H torsion
[ 10167 10162 10161 10158 ] final  154.47 input  -65.29 | X-H torsion
[ 10718 10713 10712 10709 ] final  -21.25 input   66.30 | X-H torsion
[ 10763 10752 10751 10750 ] final   83.13 input  -60.55 | X-H torsion
[ 11005 11000 10999 10996 ] final  -27.14 input  -57.11 | X-H torsion

> <Gold.Protein.ActiveResidues>
 VAL166  LYS551  ARG553  GLY616  TRP617  ASP618  TYR619  PRO620  LYS621  CYS622 
 ASP623  PHE694  ASN695  SER759  ASP760  ASP761  ALA762  ILE779  LEU786  VAL792 
 PHE793  MET794  SER795  GLU796  ALA797  LYS798  CYS799  TRP800  GLU811  SER814 

> <Gold.Protein.RotatedAtoms>
  150.9291  134.8706  159.7538 H   0  0  0  0  0  0  0  0  0  0  0  0  # atno 6907 bound_to 6896
  152.5029  134.4106  159.9457 H   0  0  0  0  0  0  0  0  0  0  0  0  # atno 6908 bound_to 6896
  151.4134  133.3680  159.2782 H   0  0  0  0  0  0  0  0  0  0  0  0  # atno 6909 bound_to 6896
  144.7189  140.2252  143.6311 H   0  0  0  0  0  0  0  0  0  0  0  0  # atno 7974 bound_to 7965
  156.2989  140.2367  156.4243 H   0  0  0  0  0  0  0  0  0  0  0  0  # atno 8008 bound_to 7997
  154.8328  140.0432  157.1508 H   0  0  0  0  0  0  0  0  0  0  0  0  # atno 8009 bound_to 7997
  154.9189  140.3001  155.5230 H   0  0  0  0  0  0  0  0  0  0  0  0  # atno 8010 bound_to 7997
  139.4823  144.5183  151.7916 H   0  0  0  0  0  0  0  0  0  0  0  0  # atno 10167 bound_to 10162
  156.5207  130.4631  149.6598 H   0  0  0  0  0  0  0  0  0  0  0  0  # atno 10718 bound_to 10713
  153.1264  135.4702  154.9279 H   0  0  0  0  0  0  0  0  0  0  0  0  # atno 10763 bound_to 10752
  154.7624  135.3135  154.8355 H   0  0  0  0  0  0  0  0  0  0  0  0  # atno 10764 bound_to 10752
  153.8907  135.6885  153.4814 H   0  0  0  0  0  0  0  0  0  0  0  0  # atno 10765 bound_to 10752
  140.9092  133.7472  156.0647 H   0  0  0  0  0  0  0  0  0  0  0  0  # atno 11005 bound_to 11000
  145.8463  139.2154  143.1798 LP  0  0  0  0  0  0  0  0  0  0  0  0  # atno 17320 bound_to 7965
  146.0301  140.8266  142.9880 LP  0  0  0  0  0  0  0  0  0  0  0  0  # atno 17321 bound_to 7965
  140.4695  144.1608  150.5916 LP  0  0  0  0  0  0  0  0  0  0  0  0  # atno 17342 bound_to 10162
  140.4398  143.2531  151.9488 LP  0  0  0  0  0  0  0  0  0  0  0  0  # atno 17343 bound_to 10162
  156.3152  130.7251  151.2152 LP  0  0  0  0  0  0  0  0  0  0  0  0  # atno 17370 bound_to 10713
  157.7437  131.0470  150.4924 LP  0  0  0  0  0  0  0  0  0  0  0  0  # atno 17371 bound_to 10713
  140.8132  134.3375  157.5405 LP  0  0  0  0  0  0  0  0  0  0  0  0  # atno 17394 bound_to 11000
  139.8754  134.9266  156.3404 LP  0  0  0  0  0  0  0  0  0  0  0  0  # atno 17395 bound_to 11000

$$$$
