AV-unprocessed.smi:2409|AV-procd|sdf|9525|dock1
  -GOLD-   2272013153D 1   1.00000     0.00000
 Structure written by MMmdl.
 35 36  0  0  0  0  0  0  0  0  1 V2000
  152.4919  138.9842  157.2237 C   0  0  0  0  0  0  0  0  0  0  0  0
  152.5749  140.0626  156.3077 O   0  0  0  0  0  0  0  0  0  0  0  0
  151.4671  140.2121  155.5504 C   0  0  0  0  0  0  0  0  0  0  0  0
  150.5268  141.2030  155.4912 C   0  0  0  0  0  0  0  0  0  0  0  0
  150.4219  142.4069  156.2324 N   0  0  0  0  0  0  0  0  0  0  0  0
  151.1622  142.7887  157.2895 C   0  0  0  0  0  0  0  0  0  0  0  0
  152.0989  142.1401  157.7504 O   0  0  0  0  0  0  0  0  0  0  0  0
  150.8374  143.9954  157.7864 N   0  0  0  0  0  0  0  0  0  0  0  0
  151.4332  144.6748  158.8972 C   0  0  1  0  0  0  0  0  0  0  0  0
  150.4844  145.2645  159.9172 C   0  0  0  0  0  0  0  0  0  0  0  0
  151.3053  144.0534  160.2727 C   0  0  2  0  0  0  0  0  0  0  0  0
  152.4270  144.1685  161.2816 C   0  0  0  0  0  0  0  0  0  0  0  0
  149.5758  140.7525  154.5345 C   0  0  0  0  0  0  0  0  0  0  0  0
  148.3070  141.4103  154.0725 C   0  0  0  0  0  0  0  0  0  0  0  0
  149.9377  139.5867  154.0110 N   0  0  0  0  0  0  0  0  0  0  0  0
  151.0997  139.2568  154.6258 N   0  0  0  0  0  0  0  0  0  0  0  0
  151.7596  138.0134  154.2848 C   0  0  0  0  0  0  0  0  0  0  0  0
  153.4180  138.9177  157.7942 H   0  0  0  0  0  0  0  0  0  0  0  0
  152.3497  138.0375  156.7004 H   0  0  0  0  0  0  0  0  0  0  0  0
  151.6718  139.1182  157.9299 H   0  0  0  0  0  0  0  0  0  0  0  0
  149.7616  143.0841  155.8796 H   0  0  0  0  0  0  0  0  0  0  0  0
  150.1404  144.5182  157.2759 H   0  0  0  0  0  0  0  0  0  0  0  0
  152.3234  145.2722  158.7057 H   0  0  0  0  0  0  0  0  0  0  0  0
  150.7628  146.2162  160.3656 H   0  0  0  0  0  0  0  0  0  0  0  0
  149.4163  145.1182  159.7668 H   0  0  0  0  0  0  0  0  0  0  0  0
  150.7648  143.1099  160.3270 H   0  0  0  0  0  0  0  0  0  0  0  0
  152.9312  145.1314  161.1937 H   0  0  0  0  0  0  0  0  0  0  0  0
  153.1591  143.3776  161.1176 H   0  0  0  0  0  0  0  0  0  0  0  0
  152.0320  144.0736  162.2931 H   0  0  0  0  0  0  0  0  0  0  0  0
  148.1430  142.3624  154.5777 H   0  0  0  0  0  0  0  0  0  0  0  0
  147.4425  140.7771  154.2728 H   0  0  0  0  0  0  0  0  0  0  0  0
  148.3359  141.6066  153.0007 H   0  0  0  0  0  0  0  0  0  0  0  0
  152.8091  138.0526  154.5777 H   0  0  0  0  0  0  0  0  0  0  0  0
  151.7018  137.8423  153.2093 H   0  0  0  0  0  0  0  0  0  0  0  0
  151.2752  137.1875  154.8060 H   0  0  0  0  0  0  0  0  0  0  0  0
  1  2  1  0  0  0  0
  1 18  1  0  0  0  0
  1 19  1  0  0  0  0
  1 20  1  0  0  0  0
  2  3  1  0  0  0  0
  3 16  1  0  0  0  0
  3  4  2  0  0  0  0
  4  5  1  0  0  0  0
  4 13  1  0  0  0  0
  5  6  1  0  0  0  0
  5 21  1  0  0  0  0
  6  7  2  0  0  0  0
  6  8  1  0  0  0  0
  8  9  1  0  0  0  0
  8 22  1  0  0  0  0
  9 11  1  0  0  0  0
  9 10  1  0  0  0  0
  9 23  1  0  0  0  0
 10 11  1  0  0  0  0
 10 24  1  0  0  0  0
 10 25  1  0  0  0  0
 11 12  1  0  0  0  0
 11 26  1  0  0  0  0
 12 27  1  0  0  0  0
 12 28  1  0  0  0  0
 12 29  1  0  0  0  0
 13 14  1  0  0  0  0
 13 15  2  0  0  0  0
 14 30  1  0  0  0  0
 14 31  1  0  0  0  0
 14 32  1  0  0  0  0
 15 16  1  0  0  0  0
 16 17  1  0  0  0  0
 17 33  1  0  0  0  0
 17 34  1  0  0  0  0
 17 35  1  0  0  0  0
M  END
> <s_m_source_file>
AV-unprocessed.smi

> <i_m_source_file_index>
2409

> <i_lp_mmshare_version>
43012

> <i_f3d_flags>
0

> <s_epik_input>
W0NIM11uMW5jKFtDSDNdKWMoYzFPW0NIM10pW05IXUMoPU8pW05IXVtDQEBIXTJbQ0gyXVtDQEhdMltDSDNd

> <s_epik_cmdline>
J2VwaWtfcHl0aG9uJywgJy1waCcsICc3LjAnLCAnLXRuJywgJzgnLCAnLW1hJywgJzIwMCcsICctbWV0YWxfYmluZGluZycsICctaW1hZScsICc8aW5maWxlLm1hZT4nLCAnLW9tYWUnLCAnPG91dGZpbGUubWFlPic=

> <r_lp_tautomer_probability>
1

> <r_epik_Ionization_Penalty>
0.000417804

> <r_epik_Ionization_Penalty_Charging>
0

> <r_epik_Ionization_Penalty_Neutral>
0.000417804

> <r_epik_State_Penalty>
-0

> <r_epik_Charging_Adjusted_Penalty>
0

> <i_epik_Tot_Q>
0

> <i_epik_Tot_abs_Q>
0

> <r_epik_Metal_State_Penalty>
-0

> <b_epik_Metal_Only>
0

> <s_lp_Force_Field>
OPLS_2005

> <r_lp_Energy>
34.5155

> <b_lp_Chiralities_Consistent>
1

> <s_lp_Variant>
AV-unprocessed.smi:2409-4

> <Gold.Version>
5.8.1

> <Gold.Id.Protein>
6NUR|6NUR_protein|mol2

> <Gold.PLP.Fitness>
47.5747

> <Gold.PLP.PLP>
-38.8129

> <Gold.PLP.part.hbond>
-3.2207

> <Gold.PLP.part.metal>
0.0000

> <Gold.PLP.part.buried>
-3.6446

> <Gold.PLP.part.nonpolar>
-32.4905

> <Gold.PLP.part.repulsive>
1.0238

> <Gold.PLP.ligand.clash>
0.0000

> <Gold.PLP.ligand.torsion>
0.1395

> <Gold.PLP.Chemscore.Hbond>
3.0000

> <Gold.PLP.Chemscore.CHOScore>
0.0000

> <Gold.PLP.Chemscore.Metal>
0.0000

> <Gold.Chemscore.Hbonds>
donor molecule, donor type, donor heavy atom, donor atom, acceptor molecule, acceptor atom, score
      L1  H     5    21       P1  8028  1.00
      L1  H     8    22       P1  8028  1.00
      P1  H  7997  8010       L1     2  0.50

> <Gold.PLP.Chemscore.Internal.Correction>
0.0409

> <Gold.Rescore>
     Score         DG    S(hbond)    S(metal)    S(lipo)     H(rot)  DE(clash)    DE(int)     intcor
     16.69     -19.68       2.46        0.00      78.02       1.23       0.14       2.84       ----

> <Gold.Chemscore.Fitness>
16.6945

> <Gold.Chemscore.DG>
-19.6807

> <Gold.Chemscore.ZeroCoef>
-5.4800

> <Gold.Chemscore.Hbond>
2.4608

> <Gold.Chemscore.Metal>
0.0000

> <Gold.Chemscore.Lipo>
78.0185

> <Gold.Chemscore.Internal_Hbond>
0.0000

> <Gold.Chemscore.DEClash>
0.1435

> <Gold.Chemscore.DEInternal>
2.8428

> <Gold.Chemscore.Rot>
1.2292

> <Gold.Chemscore.Internal.Correction>
   9.000000E+99

> <Gold.Chemscore.Hbonds>
donor molecule, donor type, donor heavy atom, donor atom, acceptor molecule, acceptor atom, score
      L1  H     5    21       P1  8028  0.99
      L1  H     8    22       P1  8028  0.41
      P1  H  7997  8010       L1     2  0.02

> <Gold.Chemscore.Hbond.Weighted>
-8.2192

> <Gold.Chemscore.Metal.Weighted>
-0.0000

> <Gold.Chemscore.Lipo.Weighted>
-9.1282

> <Gold.Chemscore.Internal_Hbond.Weighted>
0.0000

> <Gold.Chemscore.DEClash.Weighted>
0.1435

> <Gold.Chemscore.DEInternal.Weighted>
2.8428

> <Gold.Chemscore.Rot.Weighted>
3.1467

> <Gold.Chemscore.Internal.Correction.Weighted>
   9.000000E+99

> <Gold.Protein.RotatedTorsions>
[ 6907 6896 6895 6894 ] final  100.53 input  -60.11 | X-H torsion
[ 7974 7965 7964 7962 ] final  -12.38 input  175.53 | X-H torsion
[ 8008 7997 7996 7995 ] final   64.71 input   59.86 | X-H torsion
[ 10167 10162 10161 10158 ] final -152.91 input  -65.29 | X-H torsion
[ 10718 10713 10712 10709 ] final -134.94 input   66.30 | X-H torsion
[ 10763 10752 10751 10750 ] final   77.95 input  -60.55 | X-H torsion
[ 11005 11000 10999 10996 ] final   87.21 input  -57.11 | X-H torsion

> <Gold.Protein.ActiveResidues>
 VAL166  LYS551  ARG553  GLY616  TRP617  ASP618  TYR619  PRO620  LYS621  CYS622 
 ASP623  PHE694  ASN695  SER759  ASP760  ASP761  ALA762  ILE779  LEU786  VAL792 
 PHE793  MET794  SER795  GLU796  ALA797  LYS798  CYS799  TRP800  GLU811  SER814 

> <Gold.Protein.RotatedAtoms>
  152.5370  134.0263  159.8004 H   0  0  0  0  0  0  0  0  0  0  0  0  # atno 6907 bound_to 6896
  151.0441  133.5672  159.2655 H   0  0  0  0  0  0  0  0  0  0  0  0  # atno 6908 bound_to 6896
  151.2631  135.0668  159.9159 H   0  0  0  0  0  0  0  0  0  0  0  0  # atno 6909 bound_to 6896
  146.2154  140.3049  142.8378 H   0  0  0  0  0  0  0  0  0  0  0  0  # atno 7974 bound_to 7965
  155.6503  140.3497  155.4746 H   0  0  0  0  0  0  0  0  0  0  0  0  # atno 8008 bound_to 7997
  155.9853  140.1183  157.0711 H   0  0  0  0  0  0  0  0  0  0  0  0  # atno 8009 bound_to 7997
  154.4203  140.1130  156.5478 H   0  0  0  0  0  0  0  0  0  0  0  0  # atno 8010 bound_to 7997
  139.7142  143.9060  152.2479 H   0  0  0  0  0  0  0  0  0  0  0  0  # atno 10167 bound_to 10162
  156.2608  130.7208  151.1142 H   0  0  0  0  0  0  0  0  0  0  0  0  # atno 10718 bound_to 10713
  153.0837  135.4895  154.8554 H   0  0  0  0  0  0  0  0  0  0  0  0  # atno 10763 bound_to 10752
  154.7183  135.3034  154.9090 H   0  0  0  0  0  0  0  0  0  0  0  0  # atno 10764 bound_to 10752
  153.9762  135.6795  153.4801 H   0  0  0  0  0  0  0  0  0  0  0  0  # atno 10765 bound_to 10752
  139.8925  134.8407  156.2828 H   0  0  0  0  0  0  0  0  0  0  0  0  # atno 11005 bound_to 11000
  144.9030  140.7665  143.5855 LP  0  0  0  0  0  0  0  0  0  0  0  0  # atno 17320 bound_to 7965
  145.2976  139.1861  143.4706 LP  0  0  0  0  0  0  0  0  0  0  0  0  # atno 17321 bound_to 7965
  139.8938  144.6950  150.8741 LP  0  0  0  0  0  0  0  0  0  0  0  0  # atno 17342 bound_to 10162
  140.7740  143.3566  151.1910 LP  0  0  0  0  0  0  0  0  0  0  0  0  # atno 17343 bound_to 10162
  157.7250  131.0656  150.5973 LP  0  0  0  0  0  0  0  0  0  0  0  0  # atno 17370 bound_to 10713
  156.6060  130.4367  149.5878 LP  0  0  0  0  0  0  0  0  0  0  0  0  # atno 17371 bound_to 10713
  141.0028  133.7141  156.0986 LP  0  0  0  0  0  0  0  0  0  0  0  0  # atno 17394 bound_to 11000
  140.7475  134.4082  157.5546 LP  0  0  0  0  0  0  0  0  0  0  0  0  # atno 17395 bound_to 11000

$$$$
