AV-unprocessed.smi:479|AV-procd|sdf|2673|dock3
  -GOLD-   2262023 93D 1   1.00000     0.00000
 Structure written by MMmdl.
 45 47  0  0  0  0  0  0  0  0  1 V2000
  144.8155  142.3507  158.5579 C   0  0  0  0  0  0  0  0  0  0  0  0
  145.5655  141.8738  157.4502 O   0  0  0  0  0  0  0  0  0  0  0  0
  145.5449  142.6023  156.2780 C   0  0  0  0  0  0  0  0  0  0  0  0
  144.7745  143.7796  156.0980 C   0  0  0  0  0  0  0  0  0  0  0  0
  144.7939  144.4826  154.8711 C   0  0  0  0  0  0  0  0  0  0  0  0
  143.9889  145.7198  154.6584 C   0  0  0  0  0  0  0  0  0  0  0  0
  143.0392  146.1568  155.7730 C   0  0  0  0  0  0  0  0  0  0  0  0
  144.0485  146.3999  153.6345 O   0  0  0  0  0  0  0  0  0  0  0  0
  145.6015  143.9958  153.8219 C   0  0  0  0  0  0  0  0  0  0  0  0
  146.3681  142.8294  153.9903 C   0  0  0  0  0  0  0  0  0  0  0  0
  146.3433  142.1212  155.2162 C   0  0  0  0  0  0  0  0  0  0  0  0
  147.0640  140.9676  155.4483 O   0  0  0  0  0  0  0  0  0  0  0  0
  147.9263  140.4884  154.4248 C   0  0  0  0  0  0  0  0  0  0  0  0
  149.3232  140.2569  155.0217 C   0  0  1  0  0  0  0  0  0  0  0  0
  150.2333  140.0616  153.9568 O   0  0  0  0  0  0  0  0  0  0  0  0
  149.7920  141.4583  155.8661 C   0  0  0  0  0  0  0  0  0  0  0  0
  150.8670  141.1138  156.7802 N   0  0  0  0  0  0  0  0  0  0  0  0
  151.6174  139.9952  156.7681 C   0  0  0  0  0  0  0  0  0  0  0  0
  152.5589  139.8821  157.7007 N   0  0  0  0  0  0  0  0  0  0  0  0
  152.4004  141.0653  158.4016 C   0  0  0  0  0  0  0  0  0  0  0  0
  153.0978  141.5665  159.5241 C   0  0  0  0  0  0  0  0  0  0  0  0
  152.7552  142.8178  160.0774 C   0  0  0  0  0  0  0  0  0  0  0  0
  151.7131  143.5861  159.5183 C   0  0  0  0  0  0  0  0  0  0  0  0
  151.0048  143.1082  158.3989 C   0  0  0  0  0  0  0  0  0  0  0  0
  151.3495  141.8590  157.8502 C   0  0  0  0  0  0  0  0  0  0  0  0
  144.9364  141.6637  159.3953 H   0  0  0  0  0  0  0  0  0  0  0  0
  143.7504  142.4026  158.3272 H   0  0  0  0  0  0  0  0  0  0  0  0
  145.1648  143.3316  158.8828 H   0  0  0  0  0  0  0  0  0  0  0  0
  144.1620  144.1482  156.9052 H   0  0  0  0  0  0  0  0  0  0  0  0
  142.3101  145.3742  155.9833 H   0  0  0  0  0  0  0  0  0  0  0  0
  142.4972  147.0567  155.4814 H   0  0  0  0  0  0  0  0  0  0  0  0
  143.5950  146.3750  156.6851 H   0  0  0  0  0  0  0  0  0  0  0  0
  145.6415  144.5110  152.8728 H   0  0  0  0  0  0  0  0  0  0  0  0
  146.9706  142.4990  153.1580 H   0  0  0  0  0  0  0  0  0  0  0  0
  147.5471  139.5707  153.9712 H   0  0  0  0  0  0  0  0  0  0  0  0
  147.9866  141.2481  153.6438 H   0  0  0  0  0  0  0  0  0  0  0  0
  149.3121  139.3634  155.6476 H   0  0  0  0  0  0  0  0  0  0  0  0
  149.7440  140.0304  153.1486 H   0  0  0  0  0  0  0  0  0  0  0  0
  150.1300  142.2697  155.2197 H   0  0  0  0  0  0  0  0  0  0  0  0
  148.9627  141.8539  156.4536 H   0  0  0  0  0  0  0  0  0  0  0  0
  151.4618  139.2188  156.0332 H   0  0  0  0  0  0  0  0  0  0  0  0
  153.8975  140.9867  159.9604 H   0  0  0  0  0  0  0  0  0  0  0  0
  153.2950  143.1898  160.9359 H   0  0  0  0  0  0  0  0  0  0  0  0
  151.4576  144.5426  159.9500 H   0  0  0  0  0  0  0  0  0  0  0  0
  150.2056  143.6927  157.9679 H   0  0  0  0  0  0  0  0  0  0  0  0
  1  2  1  0  0  0  0
  1 26  1  0  0  0  0
  1 27  1  0  0  0  0
  1 28  1  0  0  0  0
  2  3  1  0  0  0  0
  3 11  1  0  0  0  0
  3  4  2  0  0  0  0
  4  5  1  0  0  0  0
  4 29  1  0  0  0  0
  5  6  1  0  0  0  0
  5  9  2  0  0  0  0
  6  7  1  0  0  0  0
  6  8  2  0  0  0  0
  7 30  1  0  0  0  0
  7 31  1  0  0  0  0
  7 32  1  0  0  0  0
  9 10  1  0  0  0  0
  9 33  1  0  0  0  0
 10 11  2  0  0  0  0
 10 34  1  0  0  0  0
 11 12  1  0  0  0  0
 12 13  1  0  0  0  0
 13 14  1  0  0  0  0
 13 35  1  0  0  0  0
 13 36  1  0  0  0  0
 14 15  1  0  0  0  0
 14 16  1  0  0  0  0
 14 37  1  0  0  0  0
 15 38  1  0  0  0  0
 16 17  1  0  0  0  0
 16 39  1  0  0  0  0
 16 40  1  0  0  0  0
 17 25  1  0  0  0  0
 17 18  1  0  0  0  0
 18 19  2  0  0  0  0
 18 41  1  0  0  0  0
 19 20  1  0  0  0  0
 20 25  2  0  0  0  0
 20 21  1  0  0  0  0
 21 22  2  0  0  0  0
 21 42  1  0  0  0  0
 22 23  1  0  0  0  0
 22 43  1  0  0  0  0
 23 24  2  0  0  0  0
 23 44  1  0  0  0  0
 24 25  1  0  0  0  0
 24 45  1  0  0  0  0
M  END
> <s_m_source_file>
AV-unprocessed.smi

> <i_m_source_file_index>
479

> <i_lp_mmshare_version>
43012

> <i_f3d_flags>
0

> <s_epik_input>
W0NIM11PYzFbY0hdYyhDKD1PKVtDSDNdKVtjSF1bY0hdYzFPW0NIMl1bQ0BIXShbT0hdKVtDSDJdbihbY0hdbjIpYyhjMjMpW2NIXVtjSF1bY0hdW2NIXTM=

> <s_epik_cmdline>
J2VwaWtfcHl0aG9uJywgJy1waCcsICc3LjAnLCAnLXRuJywgJzgnLCAnLW1hJywgJzIwMCcsICctbWV0YWxfYmluZGluZycsICctaW1hZScsICc8aW5maWxlLm1hZT4nLCAnLW9tYWUnLCAnPG91dGZpbGUubWFlPic=

> <r_lp_tautomer_probability>
0.99995

> <r_epik_Ionization_Penalty>
0.061028

> <r_epik_Ionization_Penalty_Charging>
0

> <r_epik_Ionization_Penalty_Neutral>
0.061028

> <r_epik_State_Penalty>
0.052945

> <r_epik_Charging_Adjusted_Penalty>
0.052945

> <i_epik_Tot_Q>
0

> <i_epik_Tot_abs_Q>
0

> <r_epik_Metal_State_Penalty>
5.53801e-05

> <b_epik_Metal_Only>
0

> <s_lp_Force_Field>
OPLS_2005

> <r_lp_Energy>
24.9927

> <b_lp_Chiralities_Consistent>
1

> <s_lp_Variant>
AV-unprocessed.smi:479-2

> <Gold.Version>
5.8.1

> <Gold.Id.Protein>
6NUR|6NUR_protein|mol2

> <Gold.PLP.Fitness>
59.5412

> <Gold.PLP.PLP>
-51.9617

> <Gold.PLP.part.hbond>
-5.0000

> <Gold.PLP.part.metal>
0.0000

> <Gold.PLP.part.buried>
-8.8184

> <Gold.PLP.part.nonpolar>
-38.5428

> <Gold.PLP.part.repulsive>
0.2195

> <Gold.PLP.ligand.clash>
0.0000

> <Gold.PLP.ligand.torsion>
0.7939

> <Gold.PLP.Chemscore.Hbond>
2.9920

> <Gold.PLP.Chemscore.CHOScore>
0.0000

> <Gold.PLP.Chemscore.Metal>
0.0000

> <Gold.Chemscore.Hbonds>
donor molecule, donor type, donor heavy atom, donor atom, acceptor molecule, acceptor atom, score
      L1  H    15    38       P1  7957  1.00
      P1  H  7989  7998       L1    15  0.94
      P1  H  7997  8009       L1    19  0.86

> <Gold.PLP.Chemscore.Internal.Correction>
0.1913

> <Gold.Rescore>
     Score         DG    S(hbond)    S(metal)    S(lipo)     H(rot)  DE(clash)    DE(int)     intcor
     17.03     -19.43       2.14        0.00     116.14       2.66       1.58       0.81       ----

> <Gold.Chemscore.Fitness>
17.0343

> <Gold.Chemscore.DG>
-19.4256

> <Gold.Chemscore.ZeroCoef>
-5.4800

> <Gold.Chemscore.Hbond>
2.1424

> <Gold.Chemscore.Metal>
0.0000

> <Gold.Chemscore.Lipo>
116.1380

> <Gold.Chemscore.Internal_Hbond>
0.0000

> <Gold.Chemscore.DEClash>
1.5785

> <Gold.Chemscore.DEInternal>
0.8128

> <Gold.Chemscore.Rot>
2.6555

> <Gold.Chemscore.Internal.Correction>
   9.000000E+99

> <Gold.Chemscore.Hbonds>
donor molecule, donor type, donor heavy atom, donor atom, acceptor molecule, acceptor atom, score
      L1  H    15    38       P1  7957  0.93
      P1  H  7989  7998       L1    15  0.27
      P1  H  7997  8009       L1    19  0.26

> <Gold.Chemscore.Hbond.Weighted>
-7.1555

> <Gold.Chemscore.Metal.Weighted>
-0.0000

> <Gold.Chemscore.Lipo.Weighted>
-13.5881

> <Gold.Chemscore.Internal_Hbond.Weighted>
0.0000

> <Gold.Chemscore.DEClash.Weighted>
1.5785

> <Gold.Chemscore.DEInternal.Weighted>
0.8128

> <Gold.Chemscore.Rot.Weighted>
6.7980

> <Gold.Chemscore.Internal.Correction.Weighted>
   9.000000E+99

> <Gold.Protein.RotatedTorsions>
[ 6907 6896 6895 6894 ] final -114.67 input  -60.11 | X-H torsion
[ 7974 7965 7964 7962 ] final -132.80 input  175.53 | X-H torsion
[ 8008 7997 7996 7995 ] final  171.51 input   59.86 | X-H torsion
[ 10167 10162 10161 10158 ] final   91.85 input  -65.29 | X-H torsion
[ 10718 10713 10712 10709 ] final -102.74 input   66.30 | X-H torsion
[ 10763 10752 10751 10750 ] final -158.31 input  -60.55 | X-H torsion
[ 11005 11000 10999 10996 ] final   96.79 input  -57.11 | X-H torsion

> <Gold.Protein.ActiveResidues>
 VAL166  LYS551  ARG553  GLY616  TRP617  ASP618  TYR619  PRO620  LYS621  CYS622 
 ASP623  PHE694  ASN695  SER759  ASP760  ASP761  ALA762  ILE779  LEU786  VAL792 
 PHE793  MET794  SER795  GLU796  ALA797  LYS798  CYS799  TRP800  GLU811  SER814 

> <Gold.Protein.RotatedAtoms>
  150.7920  133.8767  159.3273 H   0  0  0  0  0  0  0  0  0  0  0  0  # atno 6907 bound_to 6896
  151.6602  135.0988  160.0187 H   0  0  0  0  0  0  0  0  0  0  0  0  # atno 6908 bound_to 6896
  152.3996  133.6758  159.6340 H   0  0  0  0  0  0  0  0  0  0  0  0  # atno 6909 bound_to 6896
  144.9252  140.7062  143.4940 H   0  0  0  0  0  0  0  0  0  0  0  0  # atno 7974 bound_to 7965
  156.1264  140.1510  156.9130 H   0  0  0  0  0  0  0  0  0  0  0  0  # atno 8008 bound_to 7997
  154.4875  140.0861  156.7560 H   0  0  0  0  0  0  0  0  0  0  0  0  # atno 8009 bound_to 7997
  155.4336  140.3428  155.4285 H   0  0  0  0  0  0  0  0  0  0  0  0  # atno 8010 bound_to 7997
  139.8334  144.6676  150.9372 H   0  0  0  0  0  0  0  0  0  0  0  0  # atno 10167 bound_to 10162
  156.0239  130.5434  150.7152 H   0  0  0  0  0  0  0  0  0  0  0  0  # atno 10718 bound_to 10713
  154.7567  135.3106  154.8456 H   0  0  0  0  0  0  0  0  0  0  0  0  # atno 10763 bound_to 10752
  153.9228  135.6794  153.4751 H   0  0  0  0  0  0  0  0  0  0  0  0  # atno 10764 bound_to 10752
  153.1165  135.4842  154.9054 H   0  0  0  0  0  0  0  0  0  0  0  0  # atno 10765 bound_to 10752
  139.8779  134.8968  156.4211 H   0  0  0  0  0  0  0  0  0  0  0  0  # atno 11005 bound_to 11000
  145.3231  139.1782  143.4577 LP  0  0  0  0  0  0  0  0  0  0  0  0  # atno 17320 bound_to 7965
  146.3223  140.3251  142.8636 LP  0  0  0  0  0  0  0  0  0  0  0  0  # atno 17321 bound_to 7965
  140.7805  143.3979  151.1198 LP  0  0  0  0  0  0  0  0  0  0  0  0  # atno 17342 bound_to 10162
  139.7631  143.8605  152.3105 LP  0  0  0  0  0  0  0  0  0  0  0  0  # atno 17343 bound_to 10162
  157.4781  131.0899  151.0567 LP  0  0  0  0  0  0  0  0  0  0  0  0  # atno 17370 bound_to 10713
  157.1009  130.5981  149.5460 LP  0  0  0  0  0  0  0  0  0  0  0  0  # atno 17371 bound_to 10713
  140.9133  133.7696  155.9817 LP  0  0  0  0  0  0  0  0  0  0  0  0  # atno 17394 bound_to 11000
  140.8522  134.2940  157.5270 LP  0  0  0  0  0  0  0  0  0  0  0  0  # atno 17395 bound_to 11000

$$$$
