AV-unprocessed.smi:224|AV-procd|sdf|1710|dock2
  -GOLD-   2262020173D 1   1.00000     0.00000
 Structure written by MMmdl.
 56 59  0  0  0  0  0  0  0  0  2 V2000
  152.2091  142.3304  158.5235 C   0  0  0  0  0  0  0  0  0  0  0  0
  150.9819  142.7205  157.6895 C   0  0  1  0  0  0  0  0  0  0  0  0
  151.2355  143.9764  157.0930 O   0  0  0  0  0  0  0  0  0  0  0  0
  150.6802  141.6836  156.5882 C   0  0  0  0  0  0  0  0  0  0  0  0
  149.3847  141.9087  155.8885 N   0  3  1  0  0  0  0  0  0  0  0  0
  149.2927  141.1328  154.6233 C   0  0  0  0  0  0  0  0  0  0  0  0
  148.0239  141.4979  153.8328 C   0  0  0  0  0  0  0  0  0  0  0  0
  146.8299  141.3726  154.6649 N   0  0  0  0  0  0  0  0  0  0  0  0
  146.1515  140.1932  154.6924 C   0  0  0  0  0  0  0  0  0  0  0  0
  145.3510  139.9032  155.7532 N   0  0  0  0  0  0  0  0  0  0  0  0
  144.6599  138.7608  155.7907 C   0  0  0  0  0  0  0  0  0  0  0  0
  144.6246  137.7790  154.8893 N   0  0  0  0  0  0  0  0  0  0  0  0
  145.4341  138.0531  153.8272 C   0  0  0  0  0  0  0  0  0  0  0  0
  146.2288  139.2221  153.6520 C   0  0  0  0  0  0  0  0  0  0  0  0
  146.9366  139.1328  152.4589 N   0  0  0  0  0  0  0  0  0  0  0  0
  146.5706  137.9872  151.9525 C   0  0  0  0  0  0  0  0  0  0  0  0
  145.6614  137.2777  152.7034 N   0  0  0  0  0  0  0  0  0  0  0  0
  145.0878  135.9805  152.3775 C   0  0  0  0  0  0  0  0  0  0  0  0
  146.0578  134.7988  152.6142 C   0  0  1  0  0  0  0  0  0  0  0  0
  147.2078  135.2763  153.2919 O   0  0  0  0  0  0  0  0  0  0  0  0
  145.4418  133.6815  153.4457 C   0  0  0  0  0  0  0  0  0  0  0  0
  146.2019  132.4516  152.9680 C   0  0  0  0  0  0  0  0  0  0  0  0
  146.3243  132.6726  151.5730 O   0  0  0  0  0  0  0  0  0  0  0  0
  146.5130  134.0652  151.3356 C   0  0  0  0  0  0  0  0  0  0  0  0
  146.8910  142.1392  155.9077 C   0  0  0  0  0  0  0  0  0  0  0  0
  148.1535  141.8036  156.7341 C   0  0  1  0  0  0  0  0  0  0  0  0
  148.0239  140.4538  157.4720 C   0  0  0  0  0  0  0  0  0  0  0  0
  152.0543  141.3727  159.0212 H   0  0  0  0  0  0  0  0  0  0  0  0
  152.4123  143.0724  159.2965 H   0  0  0  0  0  0  0  0  0  0  0  0
  153.1022  142.2419  157.9038 H   0  0  0  0  0  0  0  0  0  0  0  0
  150.1357  142.8214  158.3681 H   0  0  0  0  0  0  0  0  0  0  0  0
  150.6321  144.1003  156.3763 H   0  0  0  0  0  0  0  0  0  0  0  0
  151.4847  141.7229  155.8520 H   0  0  0  0  0  0  0  0  0  0  0  0
  150.7078  140.6741  156.9992 H   0  0  0  0  0  0  0  0  0  0  0  0
  150.1661  141.3350  154.0026 H   0  0  0  0  0  0  0  0  0  0  0  0
  149.3108  140.0653  154.8452 H   0  0  0  0  0  0  0  0  0  0  0  0
  148.0908  142.5331  153.4964 H   0  0  0  0  0  0  0  0  0  0  0  0
  147.9428  140.8942  152.9280 H   0  0  0  0  0  0  0  0  0  0  0  0
  144.0458  138.6132  156.6666 H   0  0  0  0  0  0  0  0  0  0  0  0
  146.9537  137.6266  151.0087 H   0  0  0  0  0  0  0  0  0  0  0  0
  144.1820  135.8491  152.9709 H   0  0  0  0  0  0  0  0  0  0  0  0
  144.7677  136.0006  151.3349 H   0  0  0  0  0  0  0  0  0  0  0  0
  147.9025  135.3857  152.6605 H   0  0  0  0  0  0  0  0  0  0  0  0
  145.5151  133.8417  154.5223 H   0  0  0  0  0  0  0  0  0  0  0  0
  144.3857  133.5642  153.1985 H   0  0  0  0  0  0  0  0  0  0  0  0
  147.1941  132.4034  153.4192 H   0  0  0  0  0  0  0  0  0  0  0  0
  145.6784  131.5200  153.1834 H   0  0  0  0  0  0  0  0  0  0  0  0
  145.9115  134.3362  150.4689 H   0  0  0  0  0  0  0  0  0  0  0  0
  147.5548  134.2717  151.0862 H   0  0  0  0  0  0  0  0  0  0  0  0
  146.9089  143.1957  155.6376 H   0  0  0  0  0  0  0  0  0  0  0  0
  146.0032  142.0076  156.5236 H   0  0  0  0  0  0  0  0  0  0  0  0
  148.2086  142.5756  157.5003 H   0  0  0  0  0  0  0  0  0  0  0  0
  147.0828  140.4035  158.0204 H   0  0  0  0  0  0  0  0  0  0  0  0
  148.8202  140.3146  158.2027 H   0  0  0  0  0  0  0  0  0  0  0  0
  148.0470  139.6052  156.7894 H   0  0  0  0  0  0  0  0  0  0  0  0
  149.4138  142.8750  155.5951 H   0  0  0  0  0  0  0  0  0  0  0  0
  1  2  1  0  0  0  0
  1 28  1  0  0  0  0
  1 29  1  0  0  0  0
  1 30  1  0  0  0  0
  2  3  1  0  0  0  0
  2  4  1  0  0  0  0
  2 31  1  0  0  0  0
  3 32  1  0  0  0  0
  4  5  1  0  0  0  0
  4 33  1  0  0  0  0
  4 34  1  0  0  0  0
  5 26  1  0  0  0  0
  5  6  1  0  0  0  0
  5 56  1  0  0  0  0
  6  7  1  0  0  0  0
  6 35  1  0  0  0  0
  6 36  1  0  0  0  0
  7  8  1  0  0  0  0
  7 37  1  0  0  0  0
  7 38  1  0  0  0  0
  8  9  1  0  0  0  0
  8 25  1  0  0  0  0
  9 14  1  0  0  0  0
  9 10  2  0  0  0  0
 10 11  1  0  0  0  0
 11 12  2  0  0  0  0
 11 39  1  0  0  0  0
 12 13  1  0  0  0  0
 13 17  1  0  0  0  0
 13 14  2  0  0  0  0
 14 15  1  0  0  0  0
 15 16  2  0  0  0  0
 16 17  1  0  0  0  0
 16 40  1  0  0  0  0
 17 18  1  0  0  0  0
 18 19  1  0  0  0  0
 18 41  1  0  0  0  0
 18 42  1  0  0  0  0
 19 24  1  0  0  0  0
 19 20  1  0  0  0  0
 19 21  1  0  0  0  0
 20 43  1  0  0  0  0
 21 22  1  0  0  0  0
 21 44  1  0  0  0  0
 21 45  1  0  0  0  0
 22 23  1  0  0  0  0
 22 46  1  0  0  0  0
 22 47  1  0  0  0  0
 23 24  1  0  0  0  0
 24 48  1  0  0  0  0
 24 49  1  0  0  0  0
 25 26  1  0  0  0  0
 25 50  1  0  0  0  0
 25 51  1  0  0  0  0
 26 27  1  0  0  0  0
 26 52  1  0  0  0  0
 27 53  1  0  0  0  0
 27 54  1  0  0  0  0
 27 55  1  0  0  0  0
M  CHG  1   5   1
M  END
> <s_m_source_file>
AV-unprocessed.smi

> <i_m_source_file_index>
224

> <i_lp_mmshare_version>
43012

> <i_f3d_flags>
0

> <s_epik_input>
W0NIM11bQ0BIXShbT0hdKVtDSDJdTjFbQ0gyXVtDSDJdTihbQ0gyXVtDQEhdMVtDSDNdKWMobltjSF1uMiljKGMyMyluW2NIXW4zW0NIMl1bQ0BAXTQoW09IXSlbQ0gyXVtDSDJdT1tDSDJdNA==

> <s_epik_cmdline>
J2VwaWtfcHl0aG9uJywgJy1waCcsICc3LjAnLCAnLXRuJywgJzgnLCAnLW1hJywgJzIwMCcsICctbWV0YWxfYmluZGluZycsICctaW1hZScsICc8aW5maWxlLm1hZT4nLCAnLW9tYWUnLCAnPG91dGZpbGUubWFlPic=

> <r_lp_tautomer_probability>
1

> <r_epik_Ionization_Penalty>
0.00516958

> <r_epik_Ionization_Penalty_Charging>
0.00509693

> <r_epik_Ionization_Penalty_Neutral>
7.26542e-05

> <r_epik_State_Penalty>
-0

> <r_epik_Charging_Adjusted_Penalty>
0.00509693

> <i_epik_Tot_Q>
1

> <i_epik_Tot_abs_Q>
1

> <r_epik_Metal_State_Penalty>
-0

> <b_epik_Metal_Only>
0

> <s_lp_Force_Field>
OPLS_2005

> <r_lp_Energy>
49.6762

> <b_lp_Chiralities_Consistent>
1

> <s_lp_Variant>
AV-unprocessed.smi:224-4

> <Gold.Version>
5.8.1

> <Gold.Id.Protein>
6NUR|6NUR_protein|mol2

> <Gold.PLP.Fitness>
43.2513

> <Gold.PLP.PLP>
-32.7785

> <Gold.PLP.part.hbond>
-2.6832

> <Gold.PLP.part.metal>
0.0000

> <Gold.PLP.part.buried>
-2.3607

> <Gold.PLP.part.nonpolar>
-29.0435

> <Gold.PLP.part.repulsive>
1.0071

> <Gold.PLP.ligand.clash>
0.0000

> <Gold.PLP.ligand.torsion>
1.5310

> <Gold.PLP.Chemscore.Hbond>
4.0000

> <Gold.PLP.Chemscore.CHOScore>
0.3964

> <Gold.PLP.Chemscore.Metal>
0.0000

> <Gold.Chemscore.Hbonds>
donor molecule, donor type, donor heavy atom, donor atom, acceptor molecule, acceptor atom, score
      L1  H     3    32       P1  8028  1.00
      L1  H     5    56       P1  8028  2.00
      L1  H    20    43       P1  7948  1.00
      L1  C    16    40       P1  7948  0.41

> <Gold.PLP.Chemscore.Internal.Correction>
0.3458

> <Gold.Rescore>
     Score         DG    S(hbond)    S(metal)    S(lipo)     H(rot)  DE(clash)    DE(int)     intcor
     13.24     -15.94       2.99        0.00      70.08       3.02       0.00       2.70       ----

> <Gold.Chemscore.Fitness>
13.2351

> <Gold.Chemscore.DG>
-15.9370

> <Gold.Chemscore.ZeroCoef>
-5.4800

> <Gold.Chemscore.Hbond>
2.9930

> <Gold.Chemscore.Metal>
0.0000

> <Gold.Chemscore.Lipo>
70.0813

> <Gold.Chemscore.Internal_Hbond>
0.0000

> <Gold.Chemscore.DEClash>
0.0047

> <Gold.Chemscore.DEInternal>
2.6972

> <Gold.Chemscore.Rot>
3.0231

> <Gold.Chemscore.Internal.Correction>
   9.000000E+99

> <Gold.Chemscore.Hbonds>
donor molecule, donor type, donor heavy atom, donor atom, acceptor molecule, acceptor atom, score
      L1  H     3    32       P1  8028  0.94
      L1  H     5    56       P1  8028  0.98
      L1  H    20    43       P1  7948  0.93

> <Gold.Chemscore.Hbond.Weighted>
-9.9966

> <Gold.Chemscore.Metal.Weighted>
-0.0000

> <Gold.Chemscore.Lipo.Weighted>
-8.1995

> <Gold.Chemscore.Internal_Hbond.Weighted>
0.0000

> <Gold.Chemscore.DEClash.Weighted>
0.0047

> <Gold.Chemscore.DEInternal.Weighted>
2.6972

> <Gold.Chemscore.Rot.Weighted>
7.7391

> <Gold.Chemscore.Internal.Correction.Weighted>
   9.000000E+99

> <Gold.Protein.RotatedTorsions>
[ 6907 6896 6895 6894 ] final -174.72 input  -60.11 | X-H torsion
[ 7974 7965 7964 7962 ] final  126.40 input  175.53 | X-H torsion
[ 8008 7997 7996 7995 ] final   78.57 input   59.86 | X-H torsion
[ 10167 10162 10161 10158 ] final  148.22 input  -65.29 | X-H torsion
[ 10718 10713 10712 10709 ] final -157.54 input   66.30 | X-H torsion
[ 10763 10752 10751 10750 ] final  162.60 input  -60.55 | X-H torsion
[ 11005 11000 10999 10996 ] final  173.28 input  -57.11 | X-H torsion

> <Gold.Protein.ActiveResidues>
 VAL166  LYS551  ARG553  GLY616  TRP617  ASP618  TYR619  PRO620  LYS621  CYS622 
 ASP623  PHE694  ASN695  SER759  ASP760  ASP761  ALA762  ILE779  LEU786  VAL792 
 PHE793  MET794  SER795  GLU796  ALA797  LYS798  CYS799  TRP800  GLU811  SER814 

> <Gold.Protein.RotatedAtoms>
  151.5769  133.3382  159.3000 H   0  0  0  0  0  0  0  0  0  0  0  0  # atno 6907 bound_to 6896
  150.8336  134.7602  159.6885 H   0  0  0  0  0  0  0  0  0  0  0  0  # atno 6908 bound_to 6896
  152.4415  134.5587  159.9939 H   0  0  0  0  0  0  0  0  0  0  0  0  # atno 6909 bound_to 6896
  145.0622  139.3796  143.5000 H   0  0  0  0  0  0  0  0  0  0  0  0  # atno 7974 bound_to 7965
  155.8576  140.3455  155.5735 H   0  0  0  0  0  0  0  0  0  0  0  0  # atno 8008 bound_to 7997
  155.7969  140.0879  157.1998 H   0  0  0  0  0  0  0  0  0  0  0  0  # atno 8009 bound_to 7997
  154.4010  140.1473  156.3216 H   0  0  0  0  0  0  0  0  0  0  0  0  # atno 8010 bound_to 7997
  139.4878  144.5696  151.7080 H   0  0  0  0  0  0  0  0  0  0  0  0  # atno 10167 bound_to 10162
  156.5417  130.8566  151.2751 H   0  0  0  0  0  0  0  0  0  0  0  0  # atno 10718 bound_to 10713
  154.2809  135.2763  155.2697 H   0  0  0  0  0  0  0  0  0  0  0  0  # atno 10763 bound_to 10752
  154.5219  135.5754  153.6691 H   0  0  0  0  0  0  0  0  0  0  0  0  # atno 10764 bound_to 10752
  152.9929  135.6206  154.2969 H   0  0  0  0  0  0  0  0  0  0  0  0  # atno 10765 bound_to 10752
  140.3388  134.7294  157.4187 H   0  0  0  0  0  0  0  0  0  0  0  0  # atno 11005 bound_to 11000
  146.3525  140.0325  142.8649 LP  0  0  0  0  0  0  0  0  0  0  0  0  # atno 17320 bound_to 7965
  145.1395  140.9563  143.4497 LP  0  0  0  0  0  0  0  0  0  0  0  0  # atno 17321 bound_to 7965
  140.5280  144.0775  150.6044 LP  0  0  0  0  0  0  0  0  0  0  0  0  # atno 17342 bound_to 10162
  140.3755  143.2831  152.0229 LP  0  0  0  0  0  0  0  0  0  0  0  0  # atno 17343 bound_to 10162
  157.7404  130.9849  150.2375 LP  0  0  0  0  0  0  0  0  0  0  0  0  # atno 17370 bound_to 10713
  156.2965  130.3752  149.7791 LP  0  0  0  0  0  0  0  0  0  0  0  0  # atno 17371 bound_to 10713
  140.0798  134.5746  155.8552 LP  0  0  0  0  0  0  0  0  0  0  0  0  # atno 17394 bound_to 11000
  141.2044  133.6639  156.6118 LP  0  0  0  0  0  0  0  0  0  0  0  0  # atno 17395 bound_to 11000

$$$$
