AV-unprocessed.smi:37|AV-procd|sdf|312|dock7
  -GOLD-   2262016133D 1   1.00000     0.00000
 Structure written by MMmdl.
 44 45  0  0  0  0  0  0  0  0  1 V2000
  150.0805  132.8663  154.7312 C   0  0  0  0  0  0  0  0  0  0  0  0
  148.6142  132.6060  154.3607 C   0  0  0  0  0  0  0  0  0  0  0  0
  147.6451  133.3090  155.3088 C   0  0  0  0  0  0  0  0  0  0  0  0
  146.4438  133.3920  155.0528 O   0  0  0  0  0  0  0  0  0  0  0  0
  148.2514  133.7900  156.4053 O   0  0  0  0  0  0  0  0  0  0  0  0
  147.5375  134.6423  157.2848 C   0  0  0  0  0  0  0  0  0  0  0  0
  148.3530  134.8439  158.5681 C   0  0  1  0  0  0  0  0  0  0  0  0
  149.6678  135.2531  158.1957 O   0  0  0  0  0  0  0  0  0  0  0  0
  149.9957  136.4308  158.8601 C   0  0  1  0  0  0  0  0  0  0  0  0
  150.9771  137.2482  158.0463 N   0  0  0  0  0  0  0  0  0  0  0  0
  150.6336  137.6301  156.7571 C   0  0  0  0  0  0  0  0  0  0  0  0
  151.4387  138.3780  155.9663 C   0  0  0  0  0  0  0  0  0  0  0  0
  151.0365  138.6996  154.7250 F   0  0  0  0  0  0  0  0  0  0  0  0
  152.7371  138.8375  156.4490 C   0  0  0  0  0  0  0  0  0  0  0  0
  153.5375  139.5149  155.8073 O   0  0  0  0  0  0  0  0  0  0  0  0
  153.0365  138.4464  157.7569 N   0  0  0  0  0  0  0  0  0  0  0  0
  152.2145  137.6794  158.5845 C   0  0  0  0  0  0  0  0  0  0  0  0
  152.5832  137.4160  159.7280 O   0  0  0  0  0  0  0  0  0  0  0  0
  148.6871  137.1410  159.2355 C   0  0  1  0  0  0  0  0  0  0  0  0
  147.8798  138.2684  157.7992 Br  0  0  0  0  0  0  0  0  0  0  0  0
  147.7807  135.9445  159.4816 C   0  0  2  0  0  0  0  0  0  0  0  0
  147.8812  135.5075  160.8328 O   0  0  0  0  0  0  0  0  0  0  0  0
  147.5621  136.3377  161.8433 C   0  0  0  0  0  0  0  0  0  0  0  0
  147.4319  137.5590  161.7605 O   0  0  0  0  0  0  0  0  0  0  0  0
  147.3848  135.6074  163.1727 C   0  0  0  0  0  0  0  0  0  0  0  0
  146.3954  134.4392  163.0655 C   0  0  0  0  0  0  0  0  0  0  0  0
  153.9211  138.7490  158.1379 H   0  0  0  0  0  0  0  0  0  0  0  0
  150.7479  132.3983  154.0077 H   0  0  0  0  0  0  0  0  0  0  0  0
  150.3232  132.4595  155.7134 H   0  0  0  0  0  0  0  0  0  0  0  0
  150.3033  133.9338  154.7440 H   0  0  0  0  0  0  0  0  0  0  0  0
  148.4232  132.9508  153.3442 H   0  0  0  0  0  0  0  0  0  0  0  0
  148.4088  131.5354  154.3755 H   0  0  0  0  0  0  0  0  0  0  0  0
  147.3730  135.6029  156.7951 H   0  0  0  0  0  0  0  0  0  0  0  0
  146.5578  134.2217  157.5141 H   0  0  0  0  0  0  0  0  0  0  0  0
  148.4238  133.8927  159.0981 H   0  0  0  0  0  0  0  0  0  0  0  0
  150.5442  136.1266  159.7536 H   0  0  0  0  0  0  0  0  0  0  0  0
  149.6838  137.3123  156.3511 H   0  0  0  0  0  0  0  0  0  0  0  0
  148.8294  137.7761  160.1103 H   0  0  0  0  0  0  0  0  0  0  0  0
  146.7393  136.1642  159.2405 H   0  0  0  0  0  0  0  0  0  0  0  0
  148.3568  135.2459  163.5086 H   0  0  0  0  0  0  0  0  0  0  0  0
  147.0360  136.3192  163.9214 H   0  0  0  0  0  0  0  0  0  0  0  0
  146.2565  133.9643  164.0368 H   0  0  0  0  0  0  0  0  0  0  0  0
  146.7510  133.6750  162.3735 H   0  0  0  0  0  0  0  0  0  0  0  0
  145.4177  134.7778  162.7205 H   0  0  0  0  0  0  0  0  0  0  0  0
  1  2  1  0  0  0  0
  1 28  1  0  0  0  0
  1 29  1  0  0  0  0
  1 30  1  0  0  0  0
  2  3  1  0  0  0  0
  2 31  1  0  0  0  0
  2 32  1  0  0  0  0
  3  4  2  0  0  0  0
  3  5  1  0  0  0  0
  5  6  1  0  0  0  0
  6  7  1  0  0  0  0
  6 33  1  0  0  0  0
  6 34  1  0  0  0  0
  7 21  1  0  0  0  0
  7  8  1  0  0  0  0
  7 35  1  0  0  0  0
  8  9  1  0  0  0  0
  9 10  1  0  0  0  0
  9 19  1  0  0  0  0
  9 36  1  0  0  0  0
 10 17  1  0  0  0  0
 10 11  1  0  0  0  0
 11 12  2  0  0  0  0
 11 37  1  0  0  0  0
 12 13  1  0  0  0  0
 12 14  1  0  0  0  0
 14 15  2  0  0  0  0
 14 16  1  0  0  0  0
 16 27  1  0  0  0  0
 16 17  1  0  0  0  0
 17 18  2  0  0  0  0
 19 20  1  0  0  0  0
 19 21  1  0  0  0  0
 19 38  1  0  0  0  0
 21 22  1  0  0  0  0
 21 39  1  0  0  0  0
 22 23  1  0  0  0  0
 23 24  2  0  0  0  0
 23 25  1  0  0  0  0
 25 26  1  0  0  0  0
 25 40  1  0  0  0  0
 25 41  1  0  0  0  0
 26 42  1  0  0  0  0
 26 43  1  0  0  0  0
 26 44  1  0  0  0  0
M  END
> <s_m_source_file>
AV-unprocessed.smi

> <i_m_source_file_index>
37

> <i_lp_mmshare_version>
43012

> <i_f3d_flags>
0

> <s_epik_input>
W0NIM11bQ0gyXUMoPU8pT1tDSDJdW0NAQEhdMU9bQ0BASF0objJbY0hdYyhGKWMoPU8pW25IXWMyPU8pW0NAQEhdKEJyKVtDQEhdMU9DKD1PKVtDSDJdW0NIM10=

> <s_epik_cmdline>
J2VwaWtfcHl0aG9uJywgJy1waCcsICc3LjAnLCAnLXRuJywgJzgnLCAnLW1hJywgJzIwMCcsICctbWV0YWxfYmluZGluZycsICctaW1hZScsICc8aW5maWxlLm1hZT4nLCAnLW9tYWUnLCAnPG91dGZpbGUubWFlPic=

> <r_lp_tautomer_probability>
0.999537

> <r_epik_Ionization_Penalty>
0.104106

> <r_epik_Ionization_Penalty_Charging>
0.104106

> <r_epik_Ionization_Penalty_Neutral>
3.94675e-16

> <r_epik_State_Penalty>
0.0940182

> <r_epik_Charging_Adjusted_Penalty>
0.198124

> <i_epik_Tot_Q>
0

> <i_epik_Tot_abs_Q>
0

> <r_epik_Metal_State_Penalty>
3.05314

> <b_epik_Metal_Only>
0

> <s_epik_Chemistry_Notes>
This compound has an ester and may undergo hydrolysis at high or low pH. This compound contains an acetal/aminal-like group ( X-CH(R)-Y where X, Y are N, S, or O) that may be acid/base labile, releasing an aldehyde.

> <s_lp_Force_Field>
OPLS_2005

> <r_lp_Energy>
23.0288

> <b_lp_Chiralities_Consistent>
1

> <s_lp_Variant>
AV-unprocessed.smi:37-10

> <Gold.Version>
5.8.1

> <Gold.Id.Protein>
6NUR|6NUR_protein|mol2

> <Gold.PLP.Fitness>
43.4356

> <Gold.PLP.PLP>
-33.3334

> <Gold.PLP.part.hbond>
-3.8904

> <Gold.PLP.part.metal>
0.0000

> <Gold.PLP.part.buried>
-5.0844

> <Gold.PLP.part.nonpolar>
-25.1588

> <Gold.PLP.part.repulsive>
0.2243

> <Gold.PLP.ligand.clash>
0.0000

> <Gold.PLP.ligand.torsion>
0.6069

> <Gold.PLP.Chemscore.Hbond>
3.7119

> <Gold.PLP.Chemscore.CHOScore>
0.0000

> <Gold.PLP.Chemscore.Metal>
0.0000

> <Gold.Chemscore.Hbonds>
donor molecule, donor type, donor heavy atom, donor atom, acceptor molecule, acceptor atom, score
      P1  H  6896  6907       L1     8  0.57
      P1  H  6896  6908       L1    18  0.02
      P1  H  6931  6943       L1    24  0.74
      P1  H  6934  6947       L1    24  0.70

> <Gold.PLP.Chemscore.Internal.Correction>
0.1804

> <Gold.Rescore>
     Score         DG    S(hbond)    S(metal)    S(lipo)     H(rot)  DE(clash)    DE(int)     intcor
     12.12     -14.28       3.66        0.00      43.69       3.33       0.00       2.16       ----

> <Gold.Chemscore.Fitness>
12.1171

> <Gold.Chemscore.DG>
-14.2782

> <Gold.Chemscore.ZeroCoef>
-5.4800

> <Gold.Chemscore.Hbond>
3.6562

> <Gold.Chemscore.Metal>
0.0000

> <Gold.Chemscore.Lipo>
43.6928

> <Gold.Chemscore.Internal_Hbond>
0.0000

> <Gold.Chemscore.DEClash>
0.0000

> <Gold.Chemscore.DEInternal>
2.1611

> <Gold.Chemscore.Rot>
3.3303

> <Gold.Chemscore.Internal.Correction>
   9.000000E+99

> <Gold.Chemscore.Hbonds>
donor molecule, donor type, donor heavy atom, donor atom, acceptor molecule, acceptor atom, score
      P1  H  6896  6907       L1     8  0.02
      P1  H  6896  6908       L1    18  0.03
      P1  H  6931  6943       L1    24  0.48
      P1  H  6934  6947       L1    24  0.70
      P1  H  7997  8010       L1    15  0.03

> <Gold.Chemscore.Hbond.Weighted>
-12.2117

> <Gold.Chemscore.Metal.Weighted>
-0.0000

> <Gold.Chemscore.Lipo.Weighted>
-5.1121

> <Gold.Chemscore.Internal_Hbond.Weighted>
0.0000

> <Gold.Chemscore.DEClash.Weighted>
0.0000

> <Gold.Chemscore.DEInternal.Weighted>
2.1611

> <Gold.Chemscore.Rot.Weighted>
8.5256

> <Gold.Chemscore.Internal.Correction.Weighted>
   9.000000E+99

> <Gold.Protein.RotatedTorsions>
[ 6907 6896 6895 6894 ] final -101.23 input  -60.11 | X-H torsion
[ 7974 7965 7964 7962 ] final   -7.11 input  175.53 | X-H torsion
[ 8008 7997 7996 7995 ] final   91.98 input   59.86 | X-H torsion
[ 10167 10162 10161 10158 ] final  -56.98 input  -65.29 | X-H torsion
[ 10718 10713 10712 10709 ] final -149.04 input   66.30 | X-H torsion
[ 10763 10752 10751 10750 ] final -138.62 input  -60.55 | X-H torsion
[ 11005 11000 10999 10996 ] final  175.84 input  -57.11 | X-H torsion

> <Gold.Protein.ActiveResidues>
 VAL166  LYS551  ARG553  GLY616  TRP617  ASP618  TYR619  PRO620  LYS621  CYS622 
 ASP623  PHE694  ASN695  SER759  ASP760  ASP761  ALA762  ILE779  LEU786  VAL792 
 PHE793  MET794  SER795  GLU796  ALA797  LYS798  CYS799  TRP800  GLU811  SER814 

> <Gold.Protein.RotatedAtoms>
  150.7146  134.0766  159.3882 H   0  0  0  0  0  0  0  0  0  0  0  0  # atno 6907 bound_to 6896
  151.8749  135.0473  160.0492 H   0  0  0  0  0  0  0  0  0  0  0  0  # atno 6908 bound_to 6896
  152.2613  133.5265  159.5420 H   0  0  0  0  0  0  0  0  0  0  0  0  # atno 6909 bound_to 6896
  146.2315  140.2270  142.8339 H   0  0  0  0  0  0  0  0  0  0  0  0  # atno 7974 bound_to 7965
  156.0301  140.3331  155.7130 H   0  0  0  0  0  0  0  0  0  0  0  0  # atno 8008 bound_to 7997
  155.5898  140.0645  157.2779 H   0  0  0  0  0  0  0  0  0  0  0  0  # atno 8009 bound_to 7997
  154.4349  140.1829  156.1050 H   0  0  0  0  0  0  0  0  0  0  0  0  # atno 8010 bound_to 7997
  140.6285  143.2449  151.5301 H   0  0  0  0  0  0  0  0  0  0  0  0  # atno 10167 bound_to 10162
  156.4280  130.8061  151.2287 H   0  0  0  0  0  0  0  0  0  0  0  0  # atno 10718 bound_to 10713
  154.8632  135.3607  154.5414 H   0  0  0  0  0  0  0  0  0  0  0  0  # atno 10763 bound_to 10752
  153.6035  135.7012  153.5379 H   0  0  0  0  0  0  0  0  0  0  0  0  # atno 10764 bound_to 10752
  153.3270  135.4135  155.1425 H   0  0  0  0  0  0  0  0  0  0  0  0  # atno 10765 bound_to 10752
  140.3665  134.7067  157.4365 H   0  0  0  0  0  0  0  0  0  0  0  0  # atno 11005 bound_to 11000
  144.9587  140.8253  143.5527 LP  0  0  0  0  0  0  0  0  0  0  0  0  # atno 17320 bound_to 7965
  145.2239  139.2146  143.5078 LP  0  0  0  0  0  0  0  0  0  0  0  0  # atno 17321 bound_to 7965
  139.5502  144.2415  152.1517 LP  0  0  0  0  0  0  0  0  0  0  0  0  # atno 17342 bound_to 10162
  140.1652  144.4988  150.6610 LP  0  0  0  0  0  0  0  0  0  0  0  0  # atno 17343 bound_to 10162
  157.7508  131.0207  150.3721 LP  0  0  0  0  0  0  0  0  0  0  0  0  # atno 17370 bound_to 10713
  156.4052  130.3923  149.6931 LP  0  0  0  0  0  0  0  0  0  0  0  0  # atno 17371 bound_to 10713
  140.0585  134.6029  155.8777 LP  0  0  0  0  0  0  0  0  0  0  0  0  # atno 17394 bound_to 11000
  141.1968  133.6593  156.5709 LP  0  0  0  0  0  0  0  0  0  0  0  0  # atno 17395 bound_to 11000

$$$$
