AV-unprocessed.smi:149|AV-procd|sdf|1241|dock10
  -GOLD-   2262018463D 1   1.00000     0.00000
 Structure written by MMmdl.
 59 63  0  0  0  0  0  0  0  0  1 V2000
  153.8484  141.8373  161.8116 C   0  0  0  0  0  0  0  0  0  0  0  0
  153.5808  141.6607  160.3067 C   0  0  1  0  0  0  0  0  0  0  0  0
  153.9936  140.2555  159.8354 C   0  0  0  0  0  0  0  0  0  0  0  0
  152.8042  139.6316  159.2783 N   0  0  0  0  0  0  0  0  0  0  0  0
  152.9312  138.5159  158.5081 C   0  0  0  0  0  0  0  0  0  0  0  0
  154.1332  138.2794  157.9163 N   0  0  0  0  0  0  0  0  0  0  0  0
  154.3186  137.2001  157.1521 C   0  0  0  0  0  0  0  0  0  0  0  0
  153.4496  136.2367  156.8469 N   0  0  0  0  0  0  0  0  0  0  0  0
  152.2413  136.4566  157.4386 C   0  0  0  0  0  0  0  0  0  0  0  0
  151.8996  137.5531  158.2837 C   0  0  0  0  0  0  0  0  0  0  0  0
  150.5832  137.4104  158.7119 N   0  0  0  0  0  0  0  0  0  0  0  0
  150.1753  136.3035  158.1566 C   0  0  0  0  0  0  0  0  0  0  0  0
  151.0975  135.6824  157.3477 N   0  0  0  0  0  0  0  0  0  0  0  0
  150.9262  134.4446  156.6458 C   0  0  0  0  0  0  0  0  0  0  0  0
  150.9154  134.3996  155.1162 C   0  0  0  0  0  0  0  0  0  0  0  0
  149.9112  133.2272  155.1630 C   0  0  0  0  0  0  0  0  0  0  0  0
  148.7775  133.2986  154.1262 C   0  0  0  0  0  0  0  0  0  0  0  0
  148.3312  134.6268  153.9427 O   0  0  0  0  0  0  0  0  0  0  0  0
  150.5442  131.8212  155.1345 C   0  0  0  0  0  0  0  0  0  0  0  0
  149.6421  130.8384  155.6002 O   0  0  0  0  0  0  0  0  0  0  0  0
  149.5590  133.7604  156.5701 C   0  0  0  0  0  0  0  0  0  0  0  0
  151.8701  140.6779  158.9175 C   0  0  0  0  0  0  0  0  0  0  0  0
  152.0889  141.8192  159.9217 C   0  0  2  0  0  0  0  0  0  0  0  0
  151.6953  143.1319  159.3835 N   0  0  0  0  0  0  0  0  0  0  0  0
  151.6593  144.1585  160.4272 C   0  0  0  0  0  0  0  0  0  0  0  0
  151.2515  145.5365  159.8784 C   0  0  0  0  0  0  0  0  0  0  0  0
  152.1443  145.9186  158.8390 O   0  0  0  0  0  0  0  0  0  0  0  0
  152.1723  144.9753  157.7745 C   0  0  0  0  0  0  0  0  0  0  0  0
  152.5806  143.5936  158.3149 C   0  0  0  0  0  0  0  0  0  0  0  0
  153.2922  141.1056  162.3986 H   0  0  0  0  0  0  0  0  0  0  0  0
  153.5617  142.8266  162.1647 H   0  0  0  0  0  0  0  0  0  0  0  0
  154.9070  141.7058  162.0367 H   0  0  0  0  0  0  0  0  0  0  0  0
  154.1804  142.3835  159.7515 H   0  0  0  0  0  0  0  0  0  0  0  0
  154.7762  140.3247  159.0782 H   0  0  0  0  0  0  0  0  0  0  0  0
  154.3778  139.6504  160.6577 H   0  0  0  0  0  0  0  0  0  0  0  0
  155.3036  137.0949  156.7217 H   0  0  0  0  0  0  0  0  0  0  0  0
  149.1808  135.9136  158.3187 H   0  0  0  0  0  0  0  0  0  0  0  0
  151.6782  133.7631  157.0473 H   0  0  0  0  0  0  0  0  0  0  0  0
  150.4927  135.3056  154.6770 H   0  0  0  0  0  0  0  0  0  0  0  0
  151.8787  134.1609  154.6641 H   0  0  0  0  0  0  0  0  0  0  0  0
  149.0856  132.8904  153.1635 H   0  0  0  0  0  0  0  0  0  0  0  0
  147.9223  132.7040  154.4488 H   0  0  0  0  0  0  0  0  0  0  0  0
  148.7261  134.9707  153.1559 H   0  0  0  0  0  0  0  0  0  0  0  0
  150.8725  131.5498  154.1310 H   0  0  0  0  0  0  0  0  0  0  0  0
  151.4338  131.7779  155.7629 H   0  0  0  0  0  0  0  0  0  0  0  0
  150.1389  130.1434  156.0040 H   0  0  0  0  0  0  0  0  0  0  0  0
  149.3982  132.9946  157.3297 H   0  0  0  0  0  0  0  0  0  0  0  0
  148.7343  134.4755  156.5590 H   0  0  0  0  0  0  0  0  0  0  0  0
  152.0772  141.0054  157.8972 H   0  0  0  0  0  0  0  0  0  0  0  0
  150.8410  140.3225  158.9688 H   0  0  0  0  0  0  0  0  0  0  0  0
  151.4877  141.5977  160.8054 H   0  0  0  0  0  0  0  0  0  0  0  0
  150.9544  143.8811  161.2107 H   0  0  0  0  0  0  0  0  0  0  0  0
  152.6383  144.2362  160.9026 H   0  0  0  0  0  0  0  0  0  0  0  0
  150.2280  145.5152  159.5009 H   0  0  0  0  0  0  0  0  0  0  0  0
  151.2858  146.2848  160.6700 H   0  0  0  0  0  0  0  0  0  0  0  0
  151.1931  144.9276  157.2953 H   0  0  0  0  0  0  0  0  0  0  0  0
  152.8824  145.3118  157.0192 H   0  0  0  0  0  0  0  0  0  0  0  0
  153.6089  143.6353  158.6771 H   0  0  0  0  0  0  0  0  0  0  0  0
  152.5657  142.8904  157.4834 H   0  0  0  0  0  0  0  0  0  0  0  0
  1  2  1  0  0  0  0
  1 30  1  0  0  0  0
  1 31  1  0  0  0  0
  1 32  1  0  0  0  0
  2 23  1  0  0  0  0
  2  3  1  0  0  0  0
  2 33  1  0  0  0  0
  3  4  1  0  0  0  0
  3 34  1  0  0  0  0
  3 35  1  0  0  0  0
  4  5  1  0  0  0  0
  4 22  1  0  0  0  0
  5 10  1  0  0  0  0
  5  6  2  0  0  0  0
  6  7  1  0  0  0  0
  7  8  2  0  0  0  0
  7 36  1  0  0  0  0
  8  9  1  0  0  0  0
  9 13  1  0  0  0  0
  9 10  2  0  0  0  0
 10 11  1  0  0  0  0
 11 12  2  0  0  0  0
 12 13  1  0  0  0  0
 12 37  1  0  0  0  0
 13 14  1  0  0  0  0
 14 21  1  0  0  0  0
 14 15  1  0  0  0  0
 14 38  1  0  0  0  0
 15 16  1  0  0  0  0
 15 39  1  0  0  0  0
 15 40  1  0  0  0  0
 16 17  1  0  0  0  0
 16 19  1  0  0  0  0
 16 21  1  0  0  0  0
 17 18  1  0  0  0  0
 17 41  1  0  0  0  0
 17 42  1  0  0  0  0
 18 43  1  0  0  0  0
 19 20  1  0  0  0  0
 19 44  1  0  0  0  0
 19 45  1  0  0  0  0
 20 46  1  0  0  0  0
 21 47  1  0  0  0  0
 21 48  1  0  0  0  0
 22 23  1  0  0  0  0
 22 49  1  0  0  0  0
 22 50  1  0  0  0  0
 23 24  1  0  0  0  0
 23 51  1  0  0  0  0
 24 29  1  0  0  0  0
 24 25  1  0  0  0  0
 25 26  1  0  0  0  0
 25 52  1  0  0  0  0
 25 53  1  0  0  0  0
 26 27  1  0  0  0  0
 26 54  1  0  0  0  0
 26 55  1  0  0  0  0
 27 28  1  0  0  0  0
 28 29  1  0  0  0  0
 28 56  1  0  0  0  0
 28 57  1  0  0  0  0
 29 58  1  0  0  0  0
 29 59  1  0  0  0  0
M  END
> <s_m_source_file>
AV-unprocessed.smi

> <i_m_source_file_index>
149

> <i_lp_mmshare_version>
43012

> <i_f3d_flags>
0

> <s_epik_input>
W0NIMl0xW0NIMl1PW0NIMl1bQ0gyXU4xW0NAQEhdMltDSDJdTihbQ0gyXVtDQEhdMltDSDNdKWMobltjSF1uMyljKGMzNCluW2NIXW40W0NIXShbQ0gyXTUpW0NIMl1DNShbQ0gyXVtPSF0pW0NIMl1bT0hd

> <s_epik_cmdline>
J2VwaWtfcHl0aG9uJywgJy1waCcsICc3LjAnLCAnLXRuJywgJzgnLCAnLW1hJywgJzIwMCcsICctbWV0YWxfYmluZGluZycsICctaW1hZScsICc8aW5maWxlLm1hZT4nLCAnLW9tYWUnLCAnPG91dGZpbGUubWFlPic=

> <r_lp_tautomer_probability>
1

> <r_epik_Ionization_Penalty>
0.41918

> <r_epik_Ionization_Penalty_Charging>
0

> <r_epik_Ionization_Penalty_Neutral>
0.41918

> <r_epik_State_Penalty>
0.654916

> <r_epik_Charging_Adjusted_Penalty>
0.654916

> <i_epik_Tot_Q>
0

> <i_epik_Tot_abs_Q>
0

> <r_epik_Metal_State_Penalty>
0.653217

> <b_epik_Metal_Only>
0

> <s_lp_Force_Field>
OPLS_2005

> <r_lp_Energy>
73.5543

> <b_lp_Chiralities_Consistent>
1

> <s_lp_Variant>
AV-unprocessed.smi:149-8

> <Gold.Version>
5.8.1

> <Gold.Id.Protein>
6NUR|6NUR_protein|mol2

> <Gold.PLP.Fitness>
55.1007

> <Gold.PLP.PLP>
-46.8742

> <Gold.PLP.part.hbond>
-3.8486

> <Gold.PLP.part.metal>
0.0000

> <Gold.PLP.part.buried>
-2.4489

> <Gold.PLP.part.nonpolar>
-38.7226

> <Gold.PLP.part.repulsive>
0.1077

> <Gold.PLP.ligand.clash>
0.0000

> <Gold.PLP.ligand.torsion>
0.8051

> <Gold.PLP.Chemscore.Hbond>
2.9920

> <Gold.PLP.Chemscore.CHOScore>
0.0000

> <Gold.PLP.Chemscore.Metal>
0.0000

> <Gold.Chemscore.Hbonds>
donor molecule, donor type, donor heavy atom, donor atom, acceptor molecule, acceptor atom, score
      L1  H    18    43       P1  7948  1.00
      P1  H  7997  8009       L1     6  0.91
      P1  H 10752 10763       L1     8  0.98

> <Gold.PLP.Chemscore.Internal.Correction>
0.8606

> <Gold.Rescore>
     Score         DG    S(hbond)    S(metal)    S(lipo)     H(rot)  DE(clash)    DE(int)     intcor
     19.00     -20.24       2.62        0.00     124.60       3.34       0.35       0.90       ----

> <Gold.Chemscore.Fitness>
18.9973

> <Gold.Chemscore.DG>
-20.2418

> <Gold.Chemscore.ZeroCoef>
-5.4800

> <Gold.Chemscore.Hbond>
2.6160

> <Gold.Chemscore.Metal>
0.0000

> <Gold.Chemscore.Lipo>
124.6047

> <Gold.Chemscore.Internal_Hbond>
0.0000

> <Gold.Chemscore.DEClash>
0.3492

> <Gold.Chemscore.DEInternal>
0.8953

> <Gold.Chemscore.Rot>
3.3416

> <Gold.Chemscore.Internal.Correction>
   9.000000E+99

> <Gold.Chemscore.Hbonds>
donor molecule, donor type, donor heavy atom, donor atom, acceptor molecule, acceptor atom, score
      L1  H    18    43       P1  7948  0.44
      P1  H  7997  8009       L1     6  0.38
      P1  H 10752 10763       L1     8  0.86

> <Gold.Chemscore.Hbond.Weighted>
-8.7375

> <Gold.Chemscore.Metal.Weighted>
-0.0000

> <Gold.Chemscore.Lipo.Weighted>
-14.5787

> <Gold.Chemscore.Internal_Hbond.Weighted>
0.0000

> <Gold.Chemscore.DEClash.Weighted>
0.3492

> <Gold.Chemscore.DEInternal.Weighted>
0.8953

> <Gold.Chemscore.Rot.Weighted>
8.5545

> <Gold.Chemscore.Internal.Correction.Weighted>
   9.000000E+99

> <Gold.Protein.RotatedTorsions>
[ 6907 6896 6895 6894 ] final   11.98 input  -60.11 | X-H torsion
[ 7974 7965 7964 7962 ] final   42.35 input  175.53 | X-H torsion
[ 8008 7997 7996 7995 ] final  153.39 input   59.86 | X-H torsion
[ 10167 10162 10161 10158 ] final  157.39 input  -65.29 | X-H torsion
[ 10718 10713 10712 10709 ] final  152.26 input   66.30 | X-H torsion
[ 10763 10752 10751 10750 ] final  108.50 input  -60.55 | X-H torsion
[ 11005 11000 10999 10996 ] final  -56.92 input  -57.11 | X-H torsion

> <Gold.Protein.ActiveResidues>
 VAL166  LYS551  ARG553  GLY616  TRP617  ASP618  TYR619  PRO620  LYS621  CYS622 
 ASP623  PHE694  ASN695  SER759  ASP760  ASP761  ALA762  ILE779  LEU786  VAL792 
 PHE793  MET794  SER795  GLU796  ALA797  LYS798  CYS799  TRP800  GLU811  SER814 

> <Gold.Protein.RotatedAtoms>
  151.7630  135.0805  160.0348 H   0  0  0  0  0  0  0  0  0  0  0  0  # atno 6907 bound_to 6896
  152.3340  133.5986  159.5838 H   0  0  0  0  0  0  0  0  0  0  0  0  # atno 6908 bound_to 6896
  150.7439  133.9740  159.3596 H   0  0  0  0  0  0  0  0  0  0  0  0  # atno 6909 bound_to 6896
  146.0747  139.5310  142.9575 H   0  0  0  0  0  0  0  0  0  0  0  0  # atno 7974 bound_to 7965
  156.2583  140.1995  156.6483 H   0  0  0  0  0  0  0  0  0  0  0  0  # atno 8008 bound_to 7997
  154.6556  140.0567  157.0030 H   0  0  0  0  0  0  0  0  0  0  0  0  # atno 8009 bound_to 7997
  155.1352  140.3237  155.4467 H   0  0  0  0  0  0  0  0  0  0  0  0  # atno 8010 bound_to 7997
  139.4823  144.4922  151.8291 H   0  0  0  0  0  0  0  0  0  0  0  0  # atno 10167 bound_to 10162
  157.2601  131.0796  151.1671 H   0  0  0  0  0  0  0  0  0  0  0  0  # atno 10718 bound_to 10713
  153.4216  135.3810  155.2115 H   0  0  0  0  0  0  0  0  0  0  0  0  # atno 10763 bound_to 10752
  154.8745  135.3818  154.4377 H   0  0  0  0  0  0  0  0  0  0  0  0  # atno 10764 bound_to 10752
  153.4898  135.7088  153.5953 H   0  0  0  0  0  0  0  0  0  0  0  0  # atno 10765 bound_to 10752
  141.1142  133.6610  156.4691 H   0  0  0  0  0  0  0  0  0  0  0  0  # atno 11005 bound_to 11000
  145.6327  141.0301  143.1854 LP  0  0  0  0  0  0  0  0  0  0  0  0  # atno 17320 bound_to 7965
  144.7254  139.7893  143.7367 LP  0  0  0  0  0  0  0  0  0  0  0  0  # atno 17321 bound_to 7965
  140.4407  144.1990  150.5891 LP  0  0  0  0  0  0  0  0  0  0  0  0  # atno 17342 bound_to 10162
  140.4686  143.2421  151.9121 LP  0  0  0  0  0  0  0  0  0  0  0  0  # atno 17343 bound_to 10162
  157.3184  130.6925  149.6255 LP  0  0  0  0  0  0  0  0  0  0  0  0  # atno 17370 bound_to 10713
  155.9664  130.4342  150.5041 LP  0  0  0  0  0  0  0  0  0  0  0  0  # atno 17371 bound_to 10713
  140.4693  134.6768  157.5122 LP  0  0  0  0  0  0  0  0  0  0  0  0  # atno 17394 bound_to 11000
  140.0053  134.6773  155.9465 LP  0  0  0  0  0  0  0  0  0  0  0  0  # atno 17395 bound_to 11000

$$$$
