AV-unprocessed.smi:527|AV-procd|sdf|2827|dock2
  -GOLD-   2262023313D 1   1.00000     0.00000
 Structure written by MMmdl.
 43 44  0  0  0  0  0  0  0  0  2 V2000
  149.4736  140.9977  156.1926 C   0  0  0  0  0  0  0  0  0  0  0  0
  149.3696  140.8863  154.6575 C   0  0  2  0  0  0  0  0  0  0  0  0
  148.2245  141.7565  154.1002 C   0  0  0  0  0  0  0  0  0  0  0  0
  146.8405  141.1638  154.4084 C   0  0  0  0  0  0  0  0  0  0  0  0
  146.7257  139.7226  153.8930 C   0  0  0  0  0  0  0  0  0  0  0  0
  147.8539  138.8238  154.4404 C   0  0  1  0  0  0  0  0  0  0  0  0
  147.7403  137.4863  153.8613 N   0  0  0  0  0  0  0  0  0  0  0  0
  146.6805  136.6735  153.9841 C   0  0  0  0  0  0  0  0  0  0  0  0
  145.7067  136.9316  154.6948 O   0  0  0  0  0  0  0  0  0  0  0  0
  146.8346  135.5637  153.2363 N   0  0  0  0  0  0  0  0  0  0  0  0
  145.9710  134.5368  153.1015 C   0  0  0  0  0  0  0  0  0  0  0  0
  144.8732  134.4585  153.6594 O   0  0  0  0  0  0  0  0  0  0  0  0
  146.4501  133.4125  152.1742 C   0  0  0  0  0  0  0  0  0  0  0  0
  145.5369  133.1624  151.0517 N   0  0  0  0  0  0  0  0  0  0  0  0
  145.7273  132.3019  150.0003 C   0  0  0  0  0  0  0  0  0  0  0  0
  144.6179  132.4094  149.2016 C   0  0  0  0  0  0  0  0  0  0  0  0
  143.7987  133.3308  149.7974 N   0  3  0  0  0  0  0  0  0  0  0  0
  144.3591  133.7880  150.9219 C   0  0  0  0  0  0  0  0  0  0  0  0
  149.2477  139.4305  154.1330 C   0  0  2  0  0  0  0  0  0  0  0  0
  150.4120  138.5365  154.6042 C   0  0  0  0  0  0  0  0  0  0  0  0
  148.6128  140.5608  156.6976 H   0  0  0  0  0  0  0  0  0  0  0  0
  149.5392  142.0409  156.5020 H   0  0  0  0  0  0  0  0  0  0  0  0
  150.3661  140.4996  156.5706 H   0  0  0  0  0  0  0  0  0  0  0  0
  150.2978  141.2987  154.2599 H   0  0  0  0  0  0  0  0  0  0  0  0
  148.2916  142.7706  154.4957 H   0  0  0  0  0  0  0  0  0  0  0  0
  148.3378  141.8478  153.0191 H   0  0  0  0  0  0  0  0  0  0  0  0
  146.6536  141.1865  155.4823 H   0  0  0  0  0  0  0  0  0  0  0  0
  146.0663  141.7806  153.9515 H   0  0  0  0  0  0  0  0  0  0  0  0
  145.7517  139.3161  154.1683 H   0  0  0  0  0  0  0  0  0  0  0  0
  146.7577  139.7291  152.8025 H   0  0  0  0  0  0  0  0  0  0  0  0
  147.7453  138.7443  155.5234 H   0  0  0  0  0  0  0  0  0  0  0  0
  148.5361  137.1553  153.3359 H   0  0  0  0  0  0  0  0  0  0  0  0
  147.6976  135.4923  152.7179 H   0  0  0  0  0  0  0  0  0  0  0  0
  147.4279  133.6651  151.7615 H   0  0  0  0  0  0  0  0  0  0  0  0
  146.5619  132.4871  152.7409 H   0  0  0  0  0  0  0  0  0  0  0  0
  146.6155  131.6949  149.8998 H   0  0  0  0  0  0  0  0  0  0  0  0
  144.3577  131.9133  148.2780 H   0  0  0  0  0  0  0  0  0  0  0  0
  143.9440  134.5215  151.5901 H   0  0  0  0  0  0  0  0  0  0  0  0
  149.3356  139.4899  153.0467 H   0  0  0  0  0  0  0  0  0  0  0  0
  150.3391  138.3083  155.6676 H   0  0  0  0  0  0  0  0  0  0  0  0
  151.3736  139.0201  154.4298 H   0  0  0  0  0  0  0  0  0  0  0  0
  150.4298  137.5874  154.0681 H   0  0  0  0  0  0  0  0  0  0  0  0
  142.8997  133.6279  149.4389 H   0  0  0  0  0  0  0  0  0  0  0  0
  1  2  1  0  0  0  0
  1 21  1  0  0  0  0
  1 22  1  0  0  0  0
  1 23  1  0  0  0  0
  2 19  1  0  0  0  0
  2  3  1  0  0  0  0
  2 24  1  0  0  0  0
  3  4  1  0  0  0  0
  3 25  1  0  0  0  0
  3 26  1  0  0  0  0
  4  5  1  0  0  0  0
  4 27  1  0  0  0  0
  4 28  1  0  0  0  0
  5  6  1  0  0  0  0
  5 29  1  0  0  0  0
  5 30  1  0  0  0  0
  6  7  1  0  0  0  0
  6 19  1  0  0  0  0
  6 31  1  0  0  0  0
  7  8  1  0  0  0  0
  7 32  1  0  0  0  0
  8  9  2  0  0  0  0
  8 10  1  0  0  0  0
 10 11  1  0  0  0  0
 10 33  1  0  0  0  0
 11 12  2  0  0  0  0
 11 13  1  0  0  0  0
 13 14  1  0  0  0  0
 13 34  1  0  0  0  0
 13 35  1  0  0  0  0
 14 18  1  0  0  0  0
 14 15  1  0  0  0  0
 15 16  2  0  0  0  0
 15 36  1  0  0  0  0
 16 17  1  0  0  0  0
 16 37  1  0  0  0  0
 17 18  2  0  0  0  0
 17 43  1  0  0  0  0
 18 38  1  0  0  0  0
 19 20  1  0  0  0  0
 19 39  1  0  0  0  0
 20 40  1  0  0  0  0
 20 41  1  0  0  0  0
 20 42  1  0  0  0  0
M  CHG  1  17   1
M  END
> <s_m_source_file>
AV-unprocessed.smi

> <i_m_source_file_index>
527

> <i_lp_mmshare_version>
43012

> <i_f3d_flags>
0

> <s_epik_input>
W0NIM11bQ0BASF0xW0NIMl1bQ0gyXVtDSDJdW0NASF0oW0NASF0xW0NIM10pW05IXUMoPU8pW05IXUMoPU8pW0NIMl1uMltjSF1bY0hdbltjSF0y

> <s_epik_cmdline>
J2VwaWtfcHl0aG9uJywgJy1waCcsICc3LjAnLCAnLXRuJywgJzgnLCAnLW1hJywgJzIwMCcsICctbWV0YWxfYmluZGluZycsICctaW1hZScsICc8aW5maWxlLm1hZT4nLCAnLW9tYWUnLCAnPG91dGZpbGUubWFlPic=

> <r_lp_tautomer_probability>
1

> <r_epik_Ionization_Penalty>
0.816441

> <r_epik_Ionization_Penalty_Charging>
0

> <r_epik_Ionization_Penalty_Neutral>
0.816441

> <r_epik_State_Penalty>
0.849034

> <r_epik_Charging_Adjusted_Penalty>
0.849034

> <i_epik_Tot_Q>
1

> <i_epik_Tot_abs_Q>
1

> <r_epik_Metal_State_Penalty>
0.984327

> <b_epik_Metal_Only>
0

> <s_lp_Force_Field>
OPLS_2005

> <r_lp_Energy>
18.5197

> <b_lp_Chiralities_Consistent>
1

> <s_lp_Variant>
AV-unprocessed.smi:527-13

> <Gold.Version>
5.8.1

> <Gold.Id.Protein>
6NUR|6NUR_protein|mol2

> <Gold.PLP.Fitness>
47.8665

> <Gold.PLP.PLP>
-33.3330

> <Gold.PLP.part.hbond>
-3.0000

> <Gold.PLP.part.metal>
0.0000

> <Gold.PLP.part.buried>
-2.7208

> <Gold.PLP.part.nonpolar>
-27.7007

> <Gold.PLP.part.repulsive>
0.1964

> <Gold.PLP.ligand.clash>
0.0000

> <Gold.PLP.ligand.torsion>
0.0403

> <Gold.PLP.Chemscore.Hbond>
3.8640

> <Gold.PLP.Chemscore.CHOScore>
1.0000

> <Gold.PLP.Chemscore.Metal>
0.0000

> <Gold.Chemscore.Hbonds>
donor molecule, donor type, donor heavy atom, donor atom, acceptor molecule, acceptor atom, score
      L1  H     7    32       P1  7948  0.85
      L1  H    10    33       P1  7948  1.00
      L1  H    17    43       P1 10186  1.89
      L1  C    15    36       P1 10747  1.00

> <Gold.PLP.Chemscore.Internal.Correction>
0.0221

> <Gold.Rescore>
     Score         DG    S(hbond)    S(metal)    S(lipo)     H(rot)  DE(clash)    DE(int)     intcor
     16.91     -19.65       2.86        0.00      76.86       1.71       0.05       2.69       ----

> <Gold.Chemscore.Fitness>
16.9051

> <Gold.Chemscore.DG>
-19.6463

> <Gold.Chemscore.ZeroCoef>
-5.4800

> <Gold.Chemscore.Hbond>
2.8560

> <Gold.Chemscore.Metal>
0.0000

> <Gold.Chemscore.Lipo>
76.8590

> <Gold.Chemscore.Internal_Hbond>
0.0000

> <Gold.Chemscore.DEClash>
0.0536

> <Gold.Chemscore.DEInternal>
2.6875

> <Gold.Chemscore.Rot>
1.7052

> <Gold.Chemscore.Internal.Correction>
   9.000000E+99

> <Gold.Chemscore.Hbonds>
donor molecule, donor type, donor heavy atom, donor atom, acceptor molecule, acceptor atom, score
      L1  H     7    32       P1  7948  0.83
      L1  H    10    33       P1  7948  0.95
      L1  H    17    43       P1 10186  0.89

> <Gold.Chemscore.Hbond.Weighted>
-9.5390

> <Gold.Chemscore.Metal.Weighted>
-0.0000

> <Gold.Chemscore.Lipo.Weighted>
-8.9925

> <Gold.Chemscore.Internal_Hbond.Weighted>
0.0000

> <Gold.Chemscore.DEClash.Weighted>
0.0536

> <Gold.Chemscore.DEInternal.Weighted>
2.6875

> <Gold.Chemscore.Rot.Weighted>
4.3653

> <Gold.Chemscore.Internal.Correction.Weighted>
   9.000000E+99

> <Gold.Protein.RotatedTorsions>
[ 6907 6896 6895 6894 ] final  135.56 input  -60.11 | X-H torsion
[ 7974 7965 7964 7962 ] final   75.03 input  175.53 | X-H torsion
[ 8008 7997 7996 7995 ] final  -55.53 input   59.86 | X-H torsion
[ 10167 10162 10161 10158 ] final  -74.80 input  -65.29 | X-H torsion
[ 10718 10713 10712 10709 ] final   -7.50 input   66.30 | X-H torsion
[ 10763 10752 10751 10750 ] final  -36.36 input  -60.55 | X-H torsion
[ 11005 11000 10999 10996 ] final   33.76 input  -57.11 | X-H torsion

> <Gold.Protein.ActiveResidues>
 VAL166  LYS551  ARG553  GLY616  TRP617  ASP618  TYR619  PRO620  LYS621  CYS622 
 ASP623  PHE694  ASN695  SER759  ASP760  ASP761  ALA762  ILE779  LEU786  VAL792 
 PHE793  MET794  SER795  GLU796  ALA797  LYS798  CYS799  TRP800  GLU811  SER814 

> <Gold.Protein.RotatedAtoms>
  152.2991  133.5637  159.5606 H   0  0  0  0  0  0  0  0  0  0  0  0  # atno 6907 bound_to 6896
  150.7269  134.0318  159.3745 H   0  0  0  0  0  0  0  0  0  0  0  0  # atno 6908 bound_to 6896
  151.8219  135.0649  160.0477 H   0  0  0  0  0  0  0  0  0  0  0  0  # atno 6909 bound_to 6896
  145.7208  139.2648  143.1597 H   0  0  0  0  0  0  0  0  0  0  0  0  # atno 7974 bound_to 7965
  154.4198  140.1150  156.5492 H   0  0  0  0  0  0  0  0  0  0  0  0  # atno 8008 bound_to 7997
  155.6428  140.3496  155.4701 H   0  0  0  0  0  0  0  0  0  0  0  0  # atno 8009 bound_to 7997
  155.9857  140.1169  157.0675 H   0  0  0  0  0  0  0  0  0  0  0  0  # atno 8010 bound_to 7997
  140.4996  143.2363  151.7773 H   0  0  0  0  0  0  0  0  0  0  0  0  # atno 10167 bound_to 10162
  156.7163  130.5137  149.5879 H   0  0  0  0  0  0  0  0  0  0  0  0  # atno 10718 bound_to 10713
  153.8784  135.6824  153.4769 H   0  0  0  0  0  0  0  0  0  0  0  0  # atno 10763 bound_to 10752
  153.1247  135.4724  154.9251 H   0  0  0  0  0  0  0  0  0  0  0  0  # atno 10764 bound_to 10752
  154.7680  135.3230  154.8198 H   0  0  0  0  0  0  0  0  0  0  0  0  # atno 10765 bound_to 10752
  140.2598  134.3205  155.7861 H   0  0  0  0  0  0  0  0  0  0  0  0  # atno 11005 bound_to 11000
  146.0627  140.7953  142.9727 LP  0  0  0  0  0  0  0  0  0  0  0  0  # atno 17320 bound_to 7965
  144.6917  140.3222  143.7230 LP  0  0  0  0  0  0  0  0  0  0  0  0  # atno 17321 bound_to 7965
  139.4869  144.4539  151.9621 LP  0  0  0  0  0  0  0  0  0  0  0  0  # atno 17342 bound_to 10162
  140.3628  144.2952  150.5931 LP  0  0  0  0  0  0  0  0  0  0  0  0  # atno 17343 bound_to 10162
  156.1626  130.6384  151.0737 LP  0  0  0  0  0  0  0  0  0  0  0  0  # atno 17370 bound_to 10713
  157.6916  131.0808  150.7091 LP  0  0  0  0  0  0  0  0  0  0  0  0  # atno 17371 bound_to 10713
  141.2191  133.7403  156.9169 LP  0  0  0  0  0  0  0  0  0  0  0  0  # atno 17394 bound_to 11000
  140.1476  134.9252  157.2550 LP  0  0  0  0  0  0  0  0  0  0  0  0  # atno 17395 bound_to 11000

$$$$
