AV-unprocessed.smi:1644|AV-procd|sdf|6595|dock9
  -GOLD-   22720 7293D 1   1.00000     0.00000
 Structure written by MMmdl.
 48 50  0  0  0  0  0  0  0  0  2 V2000
  152.4815  143.4837  160.6785 C   0  0  0  0  0  0  0  0  0  0  0  0
  152.9914  142.0551  160.4622 C   0  0  0  0  0  0  0  0  0  0  0  0
  151.9941  141.1896  159.6620 C   0  0  0  0  0  0  0  0  0  0  0  0
  151.7793  141.5880  158.1812 C   0  0  1  0  0  0  0  0  0  0  0  0
  152.3860  140.6355  157.2751 N   0  5  0  0  0  0  0  0  0  0  0  0
  151.4273  140.1704  156.4397 C   0  0  0  0  0  0  0  0  0  0  0  0
  151.5734  139.3398  155.5433 O   0  0  0  0  0  0  0  0  0  0  0  0
  150.2320  140.7307  156.7111 N   0  0  0  0  0  0  0  0  0  0  0  0
  148.9769  140.4169  156.0209 C   0  0  0  0  0  0  0  0  0  0  0  0
  148.9125  141.0750  154.6271 C   0  0  1  0  0  0  0  0  0  0  0  0
  149.9678  140.5689  153.8317 O   0  0  0  0  0  0  0  0  0  0  0  0
  147.5797  140.7724  153.9167 C   0  0  0  0  0  0  0  0  0  0  0  0
  146.4360  141.3115  154.6302 N   0  0  0  0  0  0  0  0  0  0  0  0
  145.9249  140.8791  155.7989 C   0  0  0  0  0  0  0  0  0  0  0  0
  144.8681  141.5293  156.2789 N   0  0  0  0  0  0  0  0  0  0  0  0
  144.6699  142.4948  155.3064 C   0  0  0  0  0  0  0  0  0  0  0  0
  143.6987  143.5157  155.2120 C   0  0  0  0  0  0  0  0  0  0  0  0
  143.6845  144.4029  154.1117 C   0  0  0  0  0  0  0  0  0  0  0  0
  142.6217  145.4857  154.0497 C   0  0  0  0  0  0  0  0  0  0  0  0
  144.6537  144.2763  153.0840 C   0  0  0  0  0  0  0  0  0  0  0  0
  144.6575  145.2156  151.8909 C   0  0  0  0  0  0  0  0  0  0  0  0
  145.6314  143.2628  153.1636 C   0  0  0  0  0  0  0  0  0  0  0  0
  145.6345  142.3861  154.2627 C   0  0  0  0  0  0  0  0  0  0  0  0
  150.3304  141.5802  157.7377 C   0  0  0  0  0  0  0  0  0  0  0  0
  149.4340  142.2445  158.2593 O   0  0  0  0  0  0  0  0  0  0  0  0
  153.2040  144.0713  161.2452 H   0  0  0  0  0  0  0  0  0  0  0  0
  151.5422  143.4867  161.2319 H   0  0  0  0  0  0  0  0  0  0  0  0
  152.3134  143.9899  159.7276 H   0  0  0  0  0  0  0  0  0  0  0  0
  153.9486  142.0965  159.9417 H   0  0  0  0  0  0  0  0  0  0  0  0
  153.1897  141.6041  161.4349 H   0  0  0  0  0  0  0  0  0  0  0  0
  152.3261  140.1512  159.6971 H   0  0  0  0  0  0  0  0  0  0  0  0
  151.0282  141.2031  160.1688 H   0  0  0  0  0  0  0  0  0  0  0  0
  152.1746  142.5926  158.0254 H   0  0  0  0  0  0  0  0  0  0  0  0
  148.8188  139.3390  155.9522 H   0  0  0  0  0  0  0  0  0  0  0  0
  148.1556  140.7845  156.6383 H   0  0  0  0  0  0  0  0  0  0  0  0
  149.0290  142.1561  154.7147 H   0  0  0  0  0  0  0  0  0  0  0  0
  149.6851  140.5563  152.9304 H   0  0  0  0  0  0  0  0  0  0  0  0
  147.5847  141.1725  152.9016 H   0  0  0  0  0  0  0  0  0  0  0  0
  147.4386  139.6945  153.8269 H   0  0  0  0  0  0  0  0  0  0  0  0
  146.3518  140.0387  156.3266 H   0  0  0  0  0  0  0  0  0  0  0  0
  142.9608  143.6111  155.9949 H   0  0  0  0  0  0  0  0  0  0  0  0
  143.0832  146.4734  154.0590 H   0  0  0  0  0  0  0  0  0  0  0  0
  141.9416  145.4261  154.8999 H   0  0  0  0  0  0  0  0  0  0  0  0
  142.0286  145.3887  153.1402 H   0  0  0  0  0  0  0  0  0  0  0  0
  145.4808  144.9926  151.2116 H   0  0  0  0  0  0  0  0  0  0  0  0
  144.7652  146.2500  152.2178 H   0  0  0  0  0  0  0  0  0  0  0  0
  143.7272  145.1235  151.3301 H   0  0  0  0  0  0  0  0  0  0  0  0
  146.3741  143.1522  152.3868 H   0  0  0  0  0  0  0  0  0  0  0  0
  1  2  1  0  0  0  0
  1 26  1  0  0  0  0
  1 27  1  0  0  0  0
  1 28  1  0  0  0  0
  2  3  1  0  0  0  0
  2 29  1  0  0  0  0
  2 30  1  0  0  0  0
  3  4  1  0  0  0  0
  3 31  1  0  0  0  0
  3 32  1  0  0  0  0
  4 24  1  0  0  0  0
  4  5  1  0  0  0  0
  4 33  1  0  0  0  0
  5  6  1  0  0  0  0
  6  7  2  0  0  0  0
  6  8  1  0  0  0  0
  8  9  1  0  0  0  0
  8 24  1  0  0  0  0
  9 10  1  0  0  0  0
  9 34  1  0  0  0  0
  9 35  1  0  0  0  0
 10 11  1  0  0  0  0
 10 12  1  0  0  0  0
 10 36  1  0  0  0  0
 11 37  1  0  0  0  0
 12 13  1  0  0  0  0
 12 38  1  0  0  0  0
 12 39  1  0  0  0  0
 13 23  1  0  0  0  0
 13 14  1  0  0  0  0
 14 15  2  0  0  0  0
 14 40  1  0  0  0  0
 15 16  1  0  0  0  0
 16 23  2  0  0  0  0
 16 17  1  0  0  0  0
 17 18  2  0  0  0  0
 17 41  1  0  0  0  0
 18 19  1  0  0  0  0
 18 20  1  0  0  0  0
 19 42  1  0  0  0  0
 19 43  1  0  0  0  0
 19 44  1  0  0  0  0
 20 21  1  0  0  0  0
 20 22  2  0  0  0  0
 21 45  1  0  0  0  0
 21 46  1  0  0  0  0
 21 47  1  0  0  0  0
 22 23  1  0  0  0  0
 22 48  1  0  0  0  0
 24 25  2  0  0  0  0
M  CHG  1   5  -1
M  END
> <s_m_source_file>
AV-unprocessed.smi

> <i_m_source_file_index>
1644

> <i_lp_mmshare_version>
43012

> <i_f3d_flags>
0

> <s_epik_input>
W0NIM11bQ0gyXVtDSDJdW0NAQEhdMVtOSF1DKD1PKU4oQzE9TylbQ0gyXVtDQEhdKFtPSF0pW0NIMl1uKFtjSF1uMiljKGMyMylbY0hdYyhbQ0gzXSljKFtjSF0zKVtDSDNd

> <s_epik_cmdline>
J2VwaWtfcHl0aG9uJywgJy1waCcsICc3LjAnLCAnLXRuJywgJzgnLCAnLW1hJywgJzIwMCcsICctbWV0YWxfYmluZGluZycsICctaW1hZScsICc8aW5maWxlLm1hZT4nLCAnLW9tYWUnLCAnPG91dGZpbGUubWFlPic=

> <r_lp_tautomer_probability>
1

> <r_epik_Ionization_Penalty>
5.95212

> <r_epik_Ionization_Penalty_Charging>
5.84419

> <r_epik_Ionization_Penalty_Neutral>
0.107924

> <r_epik_State_Penalty>
5.94088

> <r_epik_Charging_Adjusted_Penalty>
11.7851

> <i_epik_Tot_Q>
-1

> <i_epik_Tot_abs_Q>
1

> <r_epik_Metal_State_Penalty>
1.99095

> <b_epik_Metal_Only>
1

> <s_lp_Force_Field>
OPLS_2005

> <r_lp_Energy>
19.6047

> <b_lp_Chiralities_Consistent>
1

> <s_lp_Variant>
AV-unprocessed.smi:1644-12

> <Gold.Version>
5.8.1

> <Gold.Id.Protein>
6NUR|6NUR_protein|mol2

> <Gold.PLP.Fitness>
59.3789

> <Gold.PLP.PLP>
-50.2517

> <Gold.PLP.part.hbond>
-3.0000

> <Gold.PLP.part.metal>
0.0000

> <Gold.PLP.part.buried>
-5.6693

> <Gold.PLP.part.nonpolar>
-41.6184

> <Gold.PLP.part.repulsive>
0.1594

> <Gold.PLP.ligand.clash>
0.0000

> <Gold.PLP.ligand.torsion>
0.9682

> <Gold.PLP.Chemscore.Hbond>
3.6560

> <Gold.PLP.Chemscore.CHOScore>
0.0000

> <Gold.PLP.Chemscore.Metal>
0.0000

> <Gold.Chemscore.Hbonds>
donor molecule, donor type, donor heavy atom, donor atom, acceptor molecule, acceptor atom, score
      L1  H    11    37       P1  7957  1.00
      P1  H  7989  7998       L1    11  0.46
      P1  H  7997  8009       L1     5  1.19

> <Gold.PLP.Chemscore.Internal.Correction>
0.0956

> <Gold.Rescore>
     Score         DG    S(hbond)    S(metal)    S(lipo)     H(rot)  DE(clash)    DE(int)     intcor
     17.97     -19.14       2.23        0.00     110.90       2.65       0.07       1.10       ----

> <Gold.Chemscore.Fitness>
17.9742

> <Gold.Chemscore.DG>
-19.1381

> <Gold.Chemscore.ZeroCoef>
-5.4800

> <Gold.Chemscore.Hbond>
2.2344

> <Gold.Chemscore.Metal>
0.0000

> <Gold.Chemscore.Lipo>
110.9016

> <Gold.Chemscore.Internal_Hbond>
0.0000

> <Gold.Chemscore.DEClash>
0.0659

> <Gold.Chemscore.DEInternal>
1.0980

> <Gold.Chemscore.Rot>
2.6486

> <Gold.Chemscore.Internal.Correction>
   9.000000E+99

> <Gold.Chemscore.Hbonds>
donor molecule, donor type, donor heavy atom, donor atom, acceptor molecule, acceptor atom, score
      L1  H    11    37       P1  7957  0.99
      P1  H  7989  7998       L1    11  0.06
      P1  H  7997  8009       L1     5  0.49

> <Gold.Chemscore.Hbond.Weighted>
-7.4630

> <Gold.Chemscore.Metal.Weighted>
-0.0000

> <Gold.Chemscore.Lipo.Weighted>
-12.9755

> <Gold.Chemscore.Internal_Hbond.Weighted>
0.0000

> <Gold.Chemscore.DEClash.Weighted>
0.0659

> <Gold.Chemscore.DEInternal.Weighted>
1.0980

> <Gold.Chemscore.Rot.Weighted>
6.7804

> <Gold.Chemscore.Internal.Correction.Weighted>
   9.000000E+99

> <Gold.Protein.RotatedTorsions>
[ 6907 6896 6895 6894 ] final  -88.40 input  -60.11 | X-H torsion
[ 7974 7965 7964 7962 ] final  153.00 input  175.53 | X-H torsion
[ 8008 7997 7996 7995 ] final -179.33 input   59.86 | X-H torsion
[ 10167 10162 10161 10158 ] final  113.37 input  -65.29 | X-H torsion
[ 10718 10713 10712 10709 ] final   -1.32 input   66.30 | X-H torsion
[ 10763 10752 10751 10750 ] final  101.79 input  -60.55 | X-H torsion
[ 11005 11000 10999 10996 ] final  -42.71 input  -57.11 | X-H torsion

> <Gold.Protein.ActiveResidues>
 VAL166  LYS551  ARG553  GLY616  TRP617  ASP618  TYR619  PRO620  LYS621  CYS622 
 ASP623  PHE694  ASN695  SER759  ASP760  ASP761  ALA762  ILE779  LEU786  VAL792 
 PHE793  MET794  SER795  GLU796  ALA797  LYS798  CYS799  TRP800  GLU811  SER814 

> <Gold.Protein.RotatedAtoms>
  150.6868  134.2748  159.4602 H   0  0  0  0  0  0  0  0  0  0  0  0  # atno 6907 bound_to 6896
  152.0667  134.9557  160.0584 H   0  0  0  0  0  0  0  0  0  0  0  0  # atno 6908 bound_to 6896
  152.0963  133.4192  159.4603 H   0  0  0  0  0  0  0  0  0  0  0  0  # atno 6909 bound_to 6896
  144.8184  139.6742  143.6111 H   0  0  0  0  0  0  0  0  0  0  0  0  # atno 7974 bound_to 7965
  156.0293  140.1278  157.0276 H   0  0  0  0  0  0  0  0  0  0  0  0  # atno 8008 bound_to 7997
  154.4343  140.1053  156.6146 H   0  0  0  0  0  0  0  0  0  0  0  0  # atno 8009 bound_to 7997
  155.5831  140.3468  155.4548 H   0  0  0  0  0  0  0  0  0  0  0  0  # atno 8010 bound_to 7997
  139.6467  144.7127  151.2129 H   0  0  0  0  0  0  0  0  0  0  0  0  # atno 10167 bound_to 10162
  156.8074  130.5413  149.5713 H   0  0  0  0  0  0  0  0  0  0  0  0  # atno 10718 bound_to 10713
  153.3312  135.4032  155.1497 H   0  0  0  0  0  0  0  0  0  0  0  0  # atno 10763 bound_to 10752
  154.8623  135.3611  154.5468 H   0  0  0  0  0  0  0  0  0  0  0  0  # atno 10764 bound_to 10752
  153.5907  135.7074  153.5484 H   0  0  0  0  0  0  0  0  0  0  0  0  # atno 10765 bound_to 10752
  141.0334  133.6810  156.2632 H   0  0  0  0  0  0  0  0  0  0  0  0  # atno 11005 bound_to 11000
  146.2488  139.6156  142.9441 LP  0  0  0  0  0  0  0  0  0  0  0  0  # atno 17320 bound_to 7965
  145.5161  141.0434  143.2461 LP  0  0  0  0  0  0  0  0  0  0  0  0  # atno 17321 bound_to 7965
  140.7518  143.6220  150.8505 LP  0  0  0  0  0  0  0  0  0  0  0  0  # atno 17342 bound_to 10162
  139.9863  143.5896  152.2926 LP  0  0  0  0  0  0  0  0  0  0  0  0  # atno 17343 bound_to 10162
  156.1065  130.6008  150.9979 LP  0  0  0  0  0  0  0  0  0  0  0  0  # atno 17370 bound_to 10713
  157.6523  131.0895  150.8023 LP  0  0  0  0  0  0  0  0  0  0  0  0  # atno 17371 bound_to 10713
  140.6365  134.5210  157.5565 LP  0  0  0  0  0  0  0  0  0  0  0  0  # atno 17394 bound_to 11000
  139.9224  134.8123  156.1172 LP  0  0  0  0  0  0  0  0  0  0  0  0  # atno 17395 bound_to 11000

$$$$
