AV-unprocessed.smi:2358|AV-procd|sdf|9404|dock4
  -GOLD-   2272013 33D 1   1.00000     0.00000
 Structure written by MMmdl.
 45 47  0  0  0  0  0  0  0  0  1 V2000
  151.5366  144.0069  159.2368 C   0  0  0  0  0  0  0  0  0  0  0  0
  152.3476  143.1150  160.1543 C   0  0  0  0  0  0  0  0  0  0  0  0
  152.5960  143.5040  161.4856 C   0  0  0  0  0  0  0  0  0  0  0  0
  153.3486  142.6707  162.3357 C   0  0  0  0  0  0  0  0  0  0  0  0
  153.6074  143.0914  163.7675 C   0  0  0  0  0  0  0  0  0  0  0  0
  153.8526  141.4472  161.8493 C   0  0  0  0  0  0  0  0  0  0  0  0
  153.6163  141.0446  160.5190 C   0  0  0  0  0  0  0  0  0  0  0  0
  154.1492  139.8343  160.1298 O   0  0  0  0  0  0  0  0  0  0  0  0
  153.9980  139.4348  158.7738 C   0  0  0  0  0  0  0  0  0  0  0  0
  153.8850  137.9011  158.7176 C   0  0  1  0  0  0  0  0  0  0  0  0
  152.5893  137.5681  159.1763 O   0  0  0  0  0  0  0  0  0  0  0  0
  154.0374  137.3606  157.2778 C   0  0  0  0  0  0  0  0  0  0  0  0
  152.7586  137.3598  156.5565 N   0  0  0  0  0  0  0  0  0  0  0  0
  152.2086  136.1004  156.3859 N   0  0  0  0  0  0  0  0  0  0  0  0
  151.0768  135.9501  155.7770 C   0  0  0  0  0  0  0  0  0  0  0  0
  150.4447  134.6632  155.5670 N   0  0  0  0  0  0  0  0  0  0  0  0
  149.5987  134.4829  154.4747 C   0  0  0  0  0  0  0  0  0  0  0  0
  149.1619  133.1787  154.5466 C   0  0  0  0  0  0  0  0  0  0  0  0
  149.7201  132.5504  155.6596 N   0  0  0  0  0  0  0  0  0  0  0  0
  150.4711  133.4914  156.2185 C   0  0  0  0  0  0  0  0  0  0  0  0
  150.3688  137.1095  155.2615 C   0  0  0  0  0  0  0  0  0  0  0  0
  150.9110  138.3340  155.4369 C   0  0  0  0  0  0  0  0  0  0  0  0
  152.1854  138.5234  156.1287 C   0  0  0  0  0  0  0  0  0  0  0  0
  152.6929  139.6290  156.3138 O   0  0  0  0  0  0  0  0  0  0  0  0
  152.8575  141.8919  159.6727 C   0  0  0  0  0  0  0  0  0  0  0  0
  151.0134  144.7819  159.7977 H   0  0  0  0  0  0  0  0  0  0  0  0
  150.7928  143.4209  158.6961 H   0  0  0  0  0  0  0  0  0  0  0  0
  152.1884  144.4907  158.5094 H   0  0  0  0  0  0  0  0  0  0  0  0
  152.2090  144.4415  161.8579 H   0  0  0  0  0  0  0  0  0  0  0  0
  154.3422  142.4429  164.2454 H   0  0  0  0  0  0  0  0  0  0  0  0
  152.6838  143.0460  164.3449 H   0  0  0  0  0  0  0  0  0  0  0  0
  153.9845  144.1138  163.8013 H   0  0  0  0  0  0  0  0  0  0  0  0
  154.4285  140.8062  162.5009 H   0  0  0  0  0  0  0  0  0  0  0  0
  153.1322  139.9070  158.3057 H   0  0  0  0  0  0  0  0  0  0  0  0
  154.8873  139.7552  158.2291 H   0  0  0  0  0  0  0  0  0  0  0  0
  154.6396  137.4568  159.3685 H   0  0  0  0  0  0  0  0  0  0  0  0
  152.6315  137.4088  160.1071 H   0  0  0  0  0  0  0  0  0  0  0  0
  154.8159  137.8986  156.7330 H   0  0  0  0  0  0  0  0  0  0  0  0
  154.3919  136.3289  157.3123 H   0  0  0  0  0  0  0  0  0  0  0  0
  149.3742  135.2558  153.7535 H   0  0  0  0  0  0  0  0  0  0  0  0
  148.4925  132.6472  153.8864 H   0  0  0  0  0  0  0  0  0  0  0  0
  151.0452  133.3144  157.1158 H   0  0  0  0  0  0  0  0  0  0  0  0
  149.4260  137.0034  154.7470 H   0  0  0  0  0  0  0  0  0  0  0  0
  150.3894  139.2002  155.0567 H   0  0  0  0  0  0  0  0  0  0  0  0
  152.6522  141.6234  158.6476 H   0  0  0  0  0  0  0  0  0  0  0  0
  1  2  1  0  0  0  0
  1 26  1  0  0  0  0
  1 27  1  0  0  0  0
  1 28  1  0  0  0  0
  2 25  1  0  0  0  0
  2  3  2  0  0  0  0
  3  4  1  0  0  0  0
  3 29  1  0  0  0  0
  4  5  1  0  0  0  0
  4  6  2  0  0  0  0
  5 30  1  0  0  0  0
  5 31  1  0  0  0  0
  5 32  1  0  0  0  0
  6  7  1  0  0  0  0
  6 33  1  0  0  0  0
  7  8  1  0  0  0  0
  7 25  2  0  0  0  0
  8  9  1  0  0  0  0
  9 10  1  0  0  0  0
  9 34  1  0  0  0  0
  9 35  1  0  0  0  0
 10 11  1  0  0  0  0
 10 12  1  0  0  0  0
 10 36  1  0  0  0  0
 11 37  1  0  0  0  0
 12 13  1  0  0  0  0
 12 38  1  0  0  0  0
 12 39  1  0  0  0  0
 13 23  1  0  0  0  0
 13 14  1  0  0  0  0
 14 15  2  0  0  0  0
 15 16  1  0  0  0  0
 15 21  1  0  0  0  0
 16 20  1  0  0  0  0
 16 17  1  0  0  0  0
 17 18  2  0  0  0  0
 17 40  1  0  0  0  0
 18 19  1  0  0  0  0
 18 41  1  0  0  0  0
 19 20  2  0  0  0  0
 20 42  1  0  0  0  0
 21 22  2  0  0  0  0
 21 43  1  0  0  0  0
 22 23  1  0  0  0  0
 22 44  1  0  0  0  0
 23 24  2  0  0  0  0
 25 45  1  0  0  0  0
M  END
> <s_m_source_file>
AV-unprocessed.smi

> <i_m_source_file_index>
2358

> <i_lp_mmshare_version>
43012

> <i_f3d_flags>
0

> <s_epik_input>
W0NIM11jMVtjSF1jKFtDSDNdKVtjSF1jKFtjSF0xKU9bQ0gyXVtDQEhdKFtPSF0pW0NIMl1uMm5jKFtjSF1bY0hdYzI9TyktbjNbY0hdW2NIXW5bY0hdMw==

> <s_epik_cmdline>
J2VwaWtfcHl0aG9uJywgJy1waCcsICc3LjAnLCAnLXRuJywgJzgnLCAnLW1hJywgJzIwMCcsICctbWV0YWxfYmluZGluZycsICctaW1hZScsICc8aW5maWxlLm1hZT4nLCAnLW9tYWUnLCAnPG91dGZpbGUubWFlPic=

> <r_lp_tautomer_probability>
1

> <r_epik_Ionization_Penalty>
0.03707

> <r_epik_Ionization_Penalty_Charging>
0.0370699

> <r_epik_Ionization_Penalty_Neutral>
1.17174e-07

> <r_epik_State_Penalty>
0.0310055

> <r_epik_Charging_Adjusted_Penalty>
0.0680754

> <i_epik_Tot_Q>
0

> <i_epik_Tot_abs_Q>
0

> <r_epik_Metal_State_Penalty>
0.0291724

> <b_epik_Metal_Only>
0

> <s_lp_Force_Field>
OPLS_2005

> <r_lp_Energy>
35.3101

> <b_lp_Chiralities_Consistent>
1

> <s_lp_Variant>
AV-unprocessed.smi:2358-2

> <Gold.Version>
5.8.1

> <Gold.Id.Protein>
6NUR|6NUR_protein|mol2

> <Gold.PLP.Fitness>
53.6879

> <Gold.PLP.PLP>
-46.8430

> <Gold.PLP.part.hbond>
-2.0000

> <Gold.PLP.part.metal>
0.0000

> <Gold.PLP.part.buried>
-2.7474

> <Gold.PLP.part.nonpolar>
-40.8941

> <Gold.PLP.part.repulsive>
0.0000

> <Gold.PLP.ligand.clash>
0.0000

> <Gold.PLP.ligand.torsion>
1.1096

> <Gold.PLP.Chemscore.Hbond>
2.0000

> <Gold.PLP.Chemscore.CHOScore>
1.0000

> <Gold.PLP.Chemscore.Metal>
0.0000

> <Gold.Chemscore.Hbonds>
donor molecule, donor type, donor heavy atom, donor atom, acceptor molecule, acceptor atom, score
      P1  H  7997  8009       L1    24  1.00
      P1  H 10752 10763       L1    14  0.95
      L1  C    17    40       P1  7948  0.98

> <Gold.PLP.Chemscore.Internal.Correction>
0.0641

> <Gold.Rescore>
     Score         DG    S(hbond)    S(metal)    S(lipo)     H(rot)  DE(clash)    DE(int)     intcor
     14.11     -17.01       1.01        0.00     126.62       2.60       0.41       2.49       ----

> <Gold.Chemscore.Fitness>
14.1127

> <Gold.Chemscore.DG>
-17.0130

> <Gold.Chemscore.ZeroCoef>
-5.4800

> <Gold.Chemscore.Hbond>
1.0093

> <Gold.Chemscore.Metal>
0.0000

> <Gold.Chemscore.Lipo>
126.6187

> <Gold.Chemscore.Internal_Hbond>
0.0000

> <Gold.Chemscore.DEClash>
0.4064

> <Gold.Chemscore.DEInternal>
2.4939

> <Gold.Chemscore.Rot>
2.5986

> <Gold.Chemscore.Internal.Correction>
   9.000000E+99

> <Gold.Chemscore.Hbonds>
donor molecule, donor type, donor heavy atom, donor atom, acceptor molecule, acceptor atom, score
      P1  H  7997  8009       L1    24  1.00
      P1  H 10752 10763       L1    14  0.06

> <Gold.Chemscore.Hbond.Weighted>
-3.3710

> <Gold.Chemscore.Metal.Weighted>
-0.0000

> <Gold.Chemscore.Lipo.Weighted>
-14.8144

> <Gold.Chemscore.Internal_Hbond.Weighted>
0.0000

> <Gold.Chemscore.DEClash.Weighted>
0.4064

> <Gold.Chemscore.DEInternal.Weighted>
2.4939

> <Gold.Chemscore.Rot.Weighted>
6.6524

> <Gold.Chemscore.Internal.Correction.Weighted>
   9.000000E+99

> <Gold.Protein.RotatedTorsions>
[ 6907 6896 6895 6894 ] final   89.88 input  -60.11 | X-H torsion
[ 7974 7965 7964 7962 ] final  125.38 input  175.53 | X-H torsion
[ 8008 7997 7996 7995 ] final -170.43 input   59.86 | X-H torsion
[ 10167 10162 10161 10158 ] final -178.86 input  -65.29 | X-H torsion
[ 10718 10713 10712 10709 ] final  -15.32 input   66.30 | X-H torsion
[ 10763 10752 10751 10750 ] final   99.79 input  -60.55 | X-H torsion
[ 11005 11000 10999 10996 ] final  -55.62 input  -57.11 | X-H torsion

> <Gold.Protein.ActiveResidues>
 VAL166  LYS551  ARG553  GLY616  TRP617  ASP618  TYR619  PRO620  LYS621  CYS622 
 ASP623  PHE694  ASN695  SER759  ASP760  ASP761  ALA762  ILE779  LEU786  VAL792 
 PHE793  MET794  SER795  GLU796  ALA797  LYS798  CYS799  TRP800  GLU811  SER814 

> <Gold.Protein.RotatedAtoms>
  152.5440  134.1897  159.8668 H   0  0  0  0  0  0  0  0  0  0  0  0  # atno 6907 bound_to 6896
  151.1893  133.4670  159.2602 H   0  0  0  0  0  0  0  0  0  0  0  0  # atno 6908 bound_to 6896
  151.1099  135.0032  159.8544 H   0  0  0  0  0  0  0  0  0  0  0  0  # atno 6909 bound_to 6896
  145.0737  139.3710  143.4945 H   0  0  0  0  0  0  0  0  0  0  0  0  # atno 7974 bound_to 7965
  155.9182  140.1069  157.1227 H   0  0  0  0  0  0  0  0  0  0  0  0  # atno 8008 bound_to 7997
  154.4050  140.1261  156.4710 H   0  0  0  0  0  0  0  0  0  0  0  0  # atno 8009 bound_to 7997
  155.7228  140.3469  155.5026 H   0  0  0  0  0  0  0  0  0  0  0  0  # atno 8010 bound_to 7997
  139.5412  144.2357  152.0900 H   0  0  0  0  0  0  0  0  0  0  0  0  # atno 10167 bound_to 10162
  156.6034  130.4830  149.6230 H   0  0  0  0  0  0  0  0  0  0  0  0  # atno 10718 bound_to 10713
  153.3058  135.4101  155.1293 H   0  0  0  0  0  0  0  0  0  0  0  0  # atno 10763 bound_to 10752
  154.8562  135.3552  154.5790 H   0  0  0  0  0  0  0  0  0  0  0  0  # atno 10764 bound_to 10752
  153.6216  135.7064  153.5367 H   0  0  0  0  0  0  0  0  0  0  0  0  # atno 10765 bound_to 10752
  141.1082  133.6612  156.4496 H   0  0  0  0  0  0  0  0  0  0  0  0  # atno 11005 bound_to 11000
  146.3529  140.0494  142.8637 LP  0  0  0  0  0  0  0  0  0  0  0  0  # atno 17320 bound_to 7965
  145.1262  140.9491  143.4571 LP  0  0  0  0  0  0  0  0  0  0  0  0  # atno 17321 bound_to 7965
  140.1835  144.4821  150.6515 LP  0  0  0  0  0  0  0  0  0  0  0  0  # atno 17342 bound_to 10162
  140.6643  143.2262  151.5780 LP  0  0  0  0  0  0  0  0  0  0  0  0  # atno 17343 bound_to 10162
  156.2450  130.6873  151.1592 LP  0  0  0  0  0  0  0  0  0  0  0  0  # atno 17370 bound_to 10713
  157.7273  131.0640  150.5869 LP  0  0  0  0  0  0  0  0  0  0  0  0  # atno 17371 bound_to 10713
  140.4846  134.6633  157.5185 LP  0  0  0  0  0  0  0  0  0  0  0  0  # atno 17394 bound_to 11000
  139.9962  134.6907  155.9605 LP  0  0  0  0  0  0  0  0  0  0  0  0  # atno 17395 bound_to 11000

$$$$
