AV-unprocessed.smi:3353|AV-procd|sdf|12953|dock1
  -GOLD-   2272019393D 1   1.00000     0.00000
 Structure written by MMmdl.
 43 44  0  0  0  0  0  0  0  0  2 V2000
  146.0667  131.9672  149.5055 C   0  0  0  0  0  0  0  0  0  0  0  0
  144.7070  132.3808  150.0804 C   0  0  0  0  0  0  0  0  0  0  0  0
  144.7449  133.7217  150.6298 N   0  0  0  0  0  0  0  0  0  0  0  0
  143.6860  134.4998  151.0540 C   0  0  0  0  0  0  0  0  0  0  0  0
  144.2378  135.6771  151.4738 C   0  0  0  0  0  0  0  0  0  0  0  0
  143.6040  136.8300  152.0022 N   0  0  0  0  0  0  0  0  0  0  0  0
  142.7874  136.8948  153.0664 C   0  0  0  0  0  0  0  0  0  0  0  0
  142.4643  135.9393  153.7727 O   0  0  0  0  0  0  0  0  0  0  0  0
  142.3519  138.1456  153.2741 N   0  0  0  0  0  0  0  0  0  0  0  0
  141.4516  138.5446  154.3519 C   0  0  0  0  0  0  0  0  0  0  0  0
  139.9540  138.3787  153.9833 C   0  0  2  0  0  0  0  0  0  0  0  0
  139.7265  137.0730  153.1887 C   0  0  0  0  0  0  0  0  0  0  0  0
  139.4647  139.5685  153.2286 N   0  3  0  0  0  0  0  0  0  0  0  0
  138.0267  139.5649  152.8813 C   0  0  0  0  0  0  0  0  0  0  0  0
  137.6857  141.0224  152.5946 C   0  0  0  0  0  0  0  0  0  0  0  0
  138.5218  141.7776  153.6208 C   0  0  0  0  0  0  0  0  0  0  0  0
  139.7410  140.8793  153.8711 C   0  0  0  0  0  0  0  0  0  0  0  0
  145.6367  135.5413  151.2755 C   0  0  0  0  0  0  0  0  0  0  0  0
  145.9354  134.3569  150.7639 N   0  0  0  0  0  0  0  0  0  0  0  0
  146.0212  130.9613  149.0879 H   0  0  0  0  0  0  0  0  0  0  0  0
  146.8394  131.9734  150.2749 H   0  0  0  0  0  0  0  0  0  0  0  0
  146.3796  132.6445  148.7103 H   0  0  0  0  0  0  0  0  0  0  0  0
  143.9423  132.3444  149.3037 H   0  0  0  0  0  0  0  0  0  0  0  0
  144.3976  131.6864  150.8630 H   0  0  0  0  0  0  0  0  0  0  0  0
  142.6655  134.1491  151.0142 H   0  0  0  0  0  0  0  0  0  0  0  0
  143.7887  137.6944  151.5144 H   0  0  0  0  0  0  0  0  0  0  0  0
  142.6679  138.8720  152.6479 H   0  0  0  0  0  0  0  0  0  0  0  0
  141.7114  137.9705  155.2420 H   0  0  0  0  0  0  0  0  0  0  0  0
  141.6600  139.5873  154.5936 H   0  0  0  0  0  0  0  0  0  0  0  0
  139.3691  138.3140  154.9023 H   0  0  0  0  0  0  0  0  0  0  0  0
  140.0901  136.2018  153.7336 H   0  0  0  0  0  0  0  0  0  0  0  0
  140.2419  137.0995  152.2281 H   0  0  0  0  0  0  0  0  0  0  0  0
  138.6696  136.8891  152.9970 H   0  0  0  0  0  0  0  0  0  0  0  0
  137.8135  138.9214  152.0270 H   0  0  0  0  0  0  0  0  0  0  0  0
  137.4414  139.2113  153.7321 H   0  0  0  0  0  0  0  0  0  0  0  0
  138.0066  141.2875  151.5860 H   0  0  0  0  0  0  0  0  0  0  0  0
  136.6188  141.2336  152.6765 H   0  0  0  0  0  0  0  0  0  0  0  0
  138.7982  142.7758  153.2789 H   0  0  0  0  0  0  0  0  0  0  0  0
  137.9539  141.8905  154.5454 H   0  0  0  0  0  0  0  0  0  0  0  0
  139.9051  140.7762  154.9451 H   0  0  0  0  0  0  0  0  0  0  0  0
  140.6450  141.3078  153.4368 H   0  0  0  0  0  0  0  0  0  0  0  0
  146.4285  136.2469  151.4794 H   0  0  0  0  0  0  0  0  0  0  0  0
  139.9567  139.5825  152.3465 H   0  0  0  0  0  0  0  0  0  0  0  0
  1  2  1  0  0  0  0
  1 20  1  0  0  0  0
  1 21  1  0  0  0  0
  1 22  1  0  0  0  0
  2  3  1  0  0  0  0
  2 23  1  0  0  0  0
  2 24  1  0  0  0  0
  3 19  1  0  0  0  0
  3  4  1  0  0  0  0
  4  5  2  0  0  0  0
  4 25  1  0  0  0  0
  5  6  1  0  0  0  0
  5 18  1  0  0  0  0
  6  7  1  0  0  0  0
  6 26  1  0  0  0  0
  7  8  2  0  0  0  0
  7  9  1  0  0  0  0
  9 10  1  0  0  0  0
  9 27  1  0  0  0  0
 10 11  1  0  0  0  0
 10 28  1  0  0  0  0
 10 29  1  0  0  0  0
 11 12  1  0  0  0  0
 11 13  1  0  0  0  0
 11 30  1  0  0  0  0
 12 31  1  0  0  0  0
 12 32  1  0  0  0  0
 12 33  1  0  0  0  0
 13 17  1  0  0  0  0
 13 14  1  0  0  0  0
 13 43  1  0  0  0  0
 14 15  1  0  0  0  0
 14 34  1  0  0  0  0
 14 35  1  0  0  0  0
 15 16  1  0  0  0  0
 15 36  1  0  0  0  0
 15 37  1  0  0  0  0
 16 17  1  0  0  0  0
 16 38  1  0  0  0  0
 16 39  1  0  0  0  0
 17 40  1  0  0  0  0
 17 41  1  0  0  0  0
 18 19  2  0  0  0  0
 18 42  1  0  0  0  0
M  CHG  1  13   1
M  END
> <s_m_source_file>
AV-unprocessed.smi

> <i_m_source_file_index>
3353

> <i_lp_mmshare_version>
43012

> <i_f3d_flags>
0

> <s_epik_input>
W0NIM11bQ0gyXW4xW2NIXWMoW2NIXW4xKVtOSF1DKD1PKVtOSF1bQ0gyXVtDQEhdKFtDSDNdKU4yW0NIMl1bQ0gyXVtDSDJdW0NIMl0y

> <s_epik_cmdline>
J2VwaWtfcHl0aG9uJywgJy1waCcsICc3LjAnLCAnLXRuJywgJzgnLCAnLW1hJywgJzIwMCcsICctbWV0YWxfYmluZGluZycsICctaW1hZScsICc8aW5maWxlLm1hZT4nLCAnLW9tYWUnLCAnPG91dGZpbGUubWFlPic=

> <r_lp_tautomer_probability>
1

> <r_epik_Ionization_Penalty>
0.000914091

> <r_epik_Ionization_Penalty_Charging>
0.000761583

> <r_epik_Ionization_Penalty_Neutral>
0.000152508

> <r_epik_State_Penalty>
0.000487427

> <r_epik_Charging_Adjusted_Penalty>
0.00124901

> <i_epik_Tot_Q>
1

> <i_epik_Tot_abs_Q>
1

> <r_epik_Metal_State_Penalty>
-0

> <b_epik_Metal_Only>
0

> <s_lp_Force_Field>
OPLS_2005

> <r_lp_Energy>
33.6396

> <b_lp_Chiralities_Consistent>
1

> <s_lp_Variant>
AV-unprocessed.smi:3353-1

> <Gold.Version>
5.8.1

> <Gold.Id.Protein>
6NUR|6NUR_protein|mol2

> <Gold.PLP.Fitness>
46.4318

> <Gold.PLP.PLP>
-33.8707

> <Gold.PLP.part.hbond>
-3.0000

> <Gold.PLP.part.metal>
0.0000

> <Gold.PLP.part.buried>
-6.4537

> <Gold.PLP.part.nonpolar>
-25.5279

> <Gold.PLP.part.repulsive>
0.4426

> <Gold.PLP.ligand.clash>
0.0000

> <Gold.PLP.ligand.torsion>
1.0336

> <Gold.PLP.Chemscore.Hbond>
2.9040

> <Gold.PLP.Chemscore.CHOScore>
1.9492

> <Gold.PLP.Chemscore.Metal>
0.0000

> <Gold.Chemscore.Hbonds>
donor molecule, donor type, donor heavy atom, donor atom, acceptor molecule, acceptor atom, score
      L1  H     6    26       P1 10171  0.93
      L1  H     9    27       P1 10175  0.94
      L1  H    13    43       P1 10160  0.98
      L1  C     4    25       P1 10186  1.00
      L1  C    18    42       P1  7948  1.00

> <Gold.PLP.Chemscore.Internal.Correction>
0.0688

> <Gold.Rescore>
     Score         DG    S(hbond)    S(metal)    S(lipo)     H(rot)  DE(clash)    DE(int)     intcor
     18.81     -19.99       2.73        0.00      81.45       1.61       0.09       1.09       ----

> <Gold.Chemscore.Fitness>
18.8057

> <Gold.Chemscore.DG>
-19.9878

> <Gold.Chemscore.ZeroCoef>
-5.4800

> <Gold.Chemscore.Hbond>
2.7258

> <Gold.Chemscore.Metal>
0.0000

> <Gold.Chemscore.Lipo>
81.4500

> <Gold.Chemscore.Internal_Hbond>
0.0000

> <Gold.Chemscore.DEClash>
0.0873

> <Gold.Chemscore.DEInternal>
1.0948

> <Gold.Chemscore.Rot>
1.6117

> <Gold.Chemscore.Internal.Correction>
   9.000000E+99

> <Gold.Chemscore.Hbonds>
donor molecule, donor type, donor heavy atom, donor atom, acceptor molecule, acceptor atom, score
      L1  H     6    26       P1 10171  0.89
      L1  H     9    27       P1 10175  0.91
      L1  H    13    43       P1 10160  0.93

> <Gold.Chemscore.Hbond.Weighted>
-9.1042

> <Gold.Chemscore.Metal.Weighted>
-0.0000

> <Gold.Chemscore.Lipo.Weighted>
-9.5297

> <Gold.Chemscore.Internal_Hbond.Weighted>
0.0000

> <Gold.Chemscore.DEClash.Weighted>
0.0873

> <Gold.Chemscore.DEInternal.Weighted>
1.0948

> <Gold.Chemscore.Rot.Weighted>
4.1260

> <Gold.Chemscore.Internal.Correction.Weighted>
   9.000000E+99

> <Gold.Protein.RotatedTorsions>
[ 6907 6896 6895 6894 ] final  -72.75 input  -60.11 | X-H torsion
[ 7974 7965 7964 7962 ] final   15.99 input  175.53 | X-H torsion
[ 8008 7997 7996 7995 ] final  -56.03 input   59.86 | X-H torsion
[ 10167 10162 10161 10158 ] final -178.60 input  -65.29 | X-H torsion
[ 10718 10713 10712 10709 ] final  -56.23 input   66.30 | X-H torsion
[ 10763 10752 10751 10750 ] final  -54.83 input  -60.55 | X-H torsion
[ 11005 11000 10999 10996 ] final   21.16 input  -57.11 | X-H torsion

> <Gold.Protein.ActiveResidues>
 VAL166  LYS551  ARG553  GLY616  TRP617  ASP618  TYR619  PRO620  LYS621  CYS622 
 ASP623  PHE694  ASN695  SER759  ASP760  ASP761  ALA762  ILE779  LEU786  VAL792 
 PHE793  MET794  SER795  GLU796  ALA797  LYS798  CYS799  TRP800  GLU811  SER814 

> <Gold.Protein.RotatedAtoms>
  150.7157  134.5116  159.5609 H   0  0  0  0  0  0  0  0  0  0  0  0  # atno 6907 bound_to 6896
  152.2692  134.7949  160.0426 H   0  0  0  0  0  0  0  0  0  0  0  0  # atno 6908 bound_to 6896
  151.8635  133.3426  159.3748 H   0  0  0  0  0  0  0  0  0  0  0  0  # atno 6909 bound_to 6896
  146.2262  139.8813  142.8570 H   0  0  0  0  0  0  0  0  0  0  0  0  # atno 7974 bound_to 7965
  154.4215  140.1139  156.5571 H   0  0  0  0  0  0  0  0  0  0  0  0  # atno 8008 bound_to 7997
  155.6349  140.3496  155.4676 H   0  0  0  0  0  0  0  0  0  0  0  0  # atno 8009 bound_to 7997
  155.9918  140.1181  157.0621 H   0  0  0  0  0  0  0  0  0  0  0  0  # atno 8010 bound_to 7997
  139.5425  144.2325  152.0923 H   0  0  0  0  0  0  0  0  0  0  0  0  # atno 10167 bound_to 10162
  156.1305  130.4160  150.0277 H   0  0  0  0  0  0  0  0  0  0  0  0  # atno 10718 bound_to 10713
  154.1811  135.6443  153.5034 H   0  0  0  0  0  0  0  0  0  0  0  0  # atno 10763 bound_to 10752
  153.0059  135.5406  154.6513 H   0  0  0  0  0  0  0  0  0  0  0  0  # atno 10764 bound_to 10752
  154.5877  135.2931  155.0640 H   0  0  0  0  0  0  0  0  0  0  0  0  # atno 10765 bound_to 10752
  140.3947  134.1782  155.7663 H   0  0  0  0  0  0  0  0  0  0  0  0  # atno 11005 bound_to 11000
  145.2510  141.0044  143.3881 LP  0  0  0  0  0  0  0  0  0  0  0  0  # atno 17320 bound_to 7965
  144.9375  139.4227  143.6465 LP  0  0  0  0  0  0  0  0  0  0  0  0  # atno 17321 bound_to 7965
  140.1806  144.4848  150.6530 LP  0  0  0  0  0  0  0  0  0  0  0  0  # atno 17342 bound_to 10162
  140.6660  143.2268  151.5741 LP  0  0  0  0  0  0  0  0  0  0  0  0  # atno 17343 bound_to 10162
  156.8190  130.9352  151.3642 LP  0  0  0  0  0  0  0  0  0  0  0  0  # atno 17370 bound_to 10713
  157.6483  130.8863  149.9583 LP  0  0  0  0  0  0  0  0  0  0  0  0  # atno 17371 bound_to 10713
  141.1878  133.8273  157.1017 LP  0  0  0  0  0  0  0  0  0  0  0  0  # atno 17394 bound_to 11000
  140.0381  134.9868  157.0909 LP  0  0  0  0  0  0  0  0  0  0  0  0  # atno 17395 bound_to 11000

$$$$
