AV-unprocessed.smi:1891|AV-procd|sdf|7668|dock2
  -GOLD-   22720 9403D 1   1.00000     0.00000
 Structure written by MMmdl.
 37 39  0  0  0  0  0  0  0  0  2 V2000
  151.4382  136.5049  154.3533 O   0  0  0  0  0  0  0  0  0  0  0  0
  151.8483  137.8534  154.3154 C   0  0  0  0  0  0  0  0  0  0  0  0
  150.6921  138.7987  154.3261 C   0  0  0  0  0  0  0  0  0  0  0  0
  149.5940  138.7164  153.5228 N   0  3  0  0  0  0  0  0  0  0  0  0
  148.7153  139.7605  153.8131 C   0  0  0  0  0  0  0  0  0  0  0  0
  147.4801  140.0926  153.2647 C   0  0  0  0  0  0  0  0  0  0  0  0
  146.8382  141.2314  153.7945 C   0  0  0  0  0  0  0  0  0  0  0  0
  147.4242  141.9906  154.8282 C   0  0  0  0  0  0  0  0  0  0  0  0
  148.6766  141.6437  155.3766 C   0  0  0  0  0  0  0  0  0  0  0  0
  149.3044  140.5166  154.8466 C   0  0  0  0  0  0  0  0  0  0  0  0
  150.5202  139.8863  155.1337 N   0  0  0  0  0  0  0  0  0  0  0  0
  151.3786  140.4454  156.1901 C   0  0  0  0  0  0  0  0  0  0  0  0
  150.6583  140.5764  157.5470 C   0  0  1  0  0  0  0  0  0  0  0  0
  150.9499  139.4507  158.3533 O   0  0  0  0  0  0  0  0  0  0  0  0
  151.0114  141.8910  158.2292 C   0  0  0  0  0  0  0  0  0  0  0  0
  150.1099  142.9789  158.1983 C   0  0  0  0  0  0  0  0  0  0  0  0
  150.4340  144.1906  158.8384 C   0  0  0  0  0  0  0  0  0  0  0  0
  151.6600  144.3227  159.5172 C   0  0  0  0  0  0  0  0  0  0  0  0
  151.9719  145.4878  160.1327 F   0  0  0  0  0  0  0  0  0  0  0  0
  152.5600  143.2409  159.5585 C   0  0  0  0  0  0  0  0  0  0  0  0
  152.2372  142.0274  158.9200 C   0  0  0  0  0  0  0  0  0  0  0  0
  153.1097  140.9923  158.9793 F   0  0  0  0  0  0  0  0  0  0  0  0
  151.0919  136.2737  153.5039 H   0  0  0  0  0  0  0  0  0  0  0  0
  152.5039  138.0566  155.1619 H   0  0  0  0  0  0  0  0  0  0  0  0
  152.4374  138.0151  153.4125 H   0  0  0  0  0  0  0  0  0  0  0  0
  147.0291  139.5125  152.4729 H   0  0  0  0  0  0  0  0  0  0  0  0
  145.8770  141.5285  153.4003 H   0  0  0  0  0  0  0  0  0  0  0  0
  146.9028  142.8570  155.2089 H   0  0  0  0  0  0  0  0  0  0  0  0
  149.1163  142.2311  156.1692 H   0  0  0  0  0  0  0  0  0  0  0  0
  152.2563  139.8064  156.2873 H   0  0  0  0  0  0  0  0  0  0  0  0
  151.7465  141.4151  155.8520 H   0  0  0  0  0  0  0  0  0  0  0  0
  149.5811  140.5541  157.3815 H   0  0  0  0  0  0  0  0  0  0  0  0
  150.9194  139.7162  159.2599 H   0  0  0  0  0  0  0  0  0  0  0  0
  149.1632  142.8886  157.6860 H   0  0  0  0  0  0  0  0  0  0  0  0
  149.7405  145.0181  158.8096 H   0  0  0  0  0  0  0  0  0  0  0  0
  153.4987  143.3410  160.0831 H   0  0  0  0  0  0  0  0  0  0  0  0
  149.4583  137.9929  152.8284 H   0  0  0  0  0  0  0  0  0  0  0  0
  1  2  1  0  0  0  0
  1 23  1  0  0  0  0
  2  3  1  0  0  0  0
  2 24  1  0  0  0  0
  2 25  1  0  0  0  0
  3 11  1  0  0  0  0
  3  4  2  0  0  0  0
  4  5  1  0  0  0  0
  4 37  1  0  0  0  0
  5 10  2  0  0  0  0
  5  6  1  0  0  0  0
  6  7  2  0  0  0  0
  6 26  1  0  0  0  0
  7  8  1  0  0  0  0
  7 27  1  0  0  0  0
  8  9  2  0  0  0  0
  8 28  1  0  0  0  0
  9 10  1  0  0  0  0
  9 29  1  0  0  0  0
 10 11  1  0  0  0  0
 11 12  1  0  0  0  0
 12 13  1  0  0  0  0
 12 30  1  0  0  0  0
 12 31  1  0  0  0  0
 13 14  1  0  0  0  0
 13 15  1  0  0  0  0
 13 32  1  0  0  0  0
 14 33  1  0  0  0  0
 15 21  1  0  0  0  0
 15 16  2  0  0  0  0
 16 17  1  0  0  0  0
 16 34  1  0  0  0  0
 17 18  2  0  0  0  0
 17 35  1  0  0  0  0
 18 19  1  0  0  0  0
 18 20  1  0  0  0  0
 20 21  2  0  0  0  0
 20 36  1  0  0  0  0
 21 22  1  0  0  0  0
M  CHG  1   4   1
M  END
> <s_m_source_file>
AV-unprocessed.smi

> <i_m_source_file_index>
1891

> <i_lp_mmshare_version>
43012

> <i_f3d_flags>
0

> <s_epik_input>
W2NIXTFbY0hdW2NIXVtjSF1jKGMxMiluKGMobjIpW0NIMl1bT0hdKVtDSDJdW0NASF0oW09IXSljM1tjSF1bY0hdYyhGKVtjSF1jM0Y=

> <s_epik_cmdline>
J2VwaWtfcHl0aG9uJywgJy1waCcsICc3LjAnLCAnLXRuJywgJzgnLCAnLW1hJywgJzIwMCcsICctbWV0YWxfYmluZGluZycsICctaW1hZScsICc8aW5maWxlLm1hZT4nLCAnLW9tYWUnLCAnPG91dGZpbGUubWFlPic=

> <r_epik_Ionization_Penalty>
1.35643

> <r_epik_Ionization_Penalty_Charging>
1.35557

> <r_epik_Ionization_Penalty_Neutral>
0.00085758

> <r_epik_State_Penalty>
1.43401

> <r_epik_Charging_Adjusted_Penalty>
2.78958

> <i_epik_Tot_Q>
1

> <i_epik_Tot_abs_Q>
1

> <r_epik_Metal_State_Penalty>
5.47166

> <b_epik_Metal_Only>
0

> <s_lp_Force_Field>
OPLS_2005

> <r_lp_Energy>
14.1785

> <b_lp_Chiralities_Consistent>
1

> <s_lp_Variant>
AV-unprocessed.smi:1891-4

> <Gold.Version>
5.8.1

> <Gold.Id.Protein>
6NUR|6NUR_protein|mol2

> <Gold.PLP.Fitness>
60.1268

> <Gold.PLP.PLP>
-50.3598

> <Gold.PLP.part.hbond>
-4.0000

> <Gold.PLP.part.metal>
0.0000

> <Gold.PLP.part.buried>
-0.8156

> <Gold.PLP.part.nonpolar>
-45.9501

> <Gold.PLP.part.repulsive>
0.0889

> <Gold.PLP.ligand.clash>
0.0000

> <Gold.PLP.ligand.torsion>
1.1320

> <Gold.PLP.Chemscore.Hbond>
4.0000

> <Gold.PLP.Chemscore.CHOScore>
0.0000

> <Gold.PLP.Chemscore.Metal>
0.0000

> <Gold.Chemscore.Hbonds>
donor molecule, donor type, donor heavy atom, donor atom, acceptor molecule, acceptor atom, score
      L1  H     1    23       P1  7949  1.00
      L1  H     4    37       P1  7948  2.00
      P1  H 10752 10764       L1     1  1.00

> <Gold.PLP.Chemscore.Internal.Correction>
0.0310

> <Gold.Rescore>
     Score         DG    S(hbond)    S(metal)    S(lipo)     H(rot)  DE(clash)    DE(int)     intcor
     15.66     -19.17       2.39        0.00     113.30       2.95       0.54       2.96       ----

> <Gold.Chemscore.Fitness>
15.6620

> <Gold.Chemscore.DG>
-19.1671

> <Gold.Chemscore.ZeroCoef>
-5.4800

> <Gold.Chemscore.Hbond>
2.3882

> <Gold.Chemscore.Metal>
0.0000

> <Gold.Chemscore.Lipo>
113.3021

> <Gold.Chemscore.Internal_Hbond>
0.0000

> <Gold.Chemscore.DEClash>
0.5446

> <Gold.Chemscore.DEInternal>
2.9606

> <Gold.Chemscore.Rot>
2.9475

> <Gold.Chemscore.Internal.Correction>
   9.000000E+99

> <Gold.Chemscore.Hbonds>
donor molecule, donor type, donor heavy atom, donor atom, acceptor molecule, acceptor atom, score
      L1  H     1    23       P1  7949  0.32
      L1  H     4    37       P1  7948  0.80
      P1  H 10752 10764       L1     1  0.20

> <Gold.Chemscore.Hbond.Weighted>
-7.9764

> <Gold.Chemscore.Metal.Weighted>
-0.0000

> <Gold.Chemscore.Lipo.Weighted>
-13.2563

> <Gold.Chemscore.Internal_Hbond.Weighted>
0.0000

> <Gold.Chemscore.DEClash.Weighted>
0.5446

> <Gold.Chemscore.DEInternal.Weighted>
2.9606

> <Gold.Chemscore.Rot.Weighted>
7.5457

> <Gold.Chemscore.Internal.Correction.Weighted>
   9.000000E+99

> <Gold.Protein.RotatedTorsions>
[ 6907 6896 6895 6894 ] final  -21.26 input  -60.11 | X-H torsion
[ 7974 7965 7964 7962 ] final  -21.37 input  175.53 | X-H torsion
[ 8008 7997 7996 7995 ] final -159.38 input   59.86 | X-H torsion
[ 10167 10162 10161 10158 ] final   85.69 input  -65.29 | X-H torsion
[ 10718 10713 10712 10709 ] final   26.68 input   66.30 | X-H torsion
[ 10763 10752 10751 10750 ] final  -67.62 input  -60.55 | X-H torsion
[ 11005 11000 10999 10996 ] final   49.76 input  -57.11 | X-H torsion

> <Gold.Protein.ActiveResidues>
 VAL166  LYS551  ARG553  GLY616  TRP617  ASP618  TYR619  PRO620  LYS621  CYS622 
 ASP623  PHE694  ASN695  SER759  ASP760  ASP761  ALA762  ILE779  LEU786  VAL792 
 PHE793  MET794  SER795  GLU796  ALA797  LYS798  CYS799  TRP800  GLU811  SER814 

> <Gold.Protein.RotatedAtoms>
  151.2359  135.0571  159.9005 H   0  0  0  0  0  0  0  0  0  0  0  0  # atno 6907 bound_to 6896
  152.5399  134.0486  159.8110 H   0  0  0  0  0  0  0  0  0  0  0  0  # atno 6908 bound_to 6896
  151.0673  133.5446  159.2661 H   0  0  0  0  0  0  0  0  0  0  0  0  # atno 6909 bound_to 6896
  146.1736  140.4332  142.8522 H   0  0  0  0  0  0  0  0  0  0  0  0  # atno 7974 bound_to 7965
  155.7617  140.0840  157.2152 H   0  0  0  0  0  0  0  0  0  0  0  0  # atno 8008 bound_to 7997
  154.4003  140.1541  156.2897 H   0  0  0  0  0  0  0  0  0  0  0  0  # atno 8009 bound_to 7997
  155.8833  140.3419  155.5906 H   0  0  0  0  0  0  0  0  0  0  0  0  # atno 8010 bound_to 7997
  139.8951  144.6362  150.8697 H   0  0  0  0  0  0  0  0  0  0  0  0  # atno 10167 bound_to 10162
  157.2101  130.6930  149.6225 H   0  0  0  0  0  0  0  0  0  0  0  0  # atno 10718 bound_to 10713
  154.3771  135.6082  153.5771 H   0  0  0  0  0  0  0  0  0  0  0  0  # atno 10763 bound_to 10752
  152.9789  135.5852  154.4454 H   0  0  0  0  0  0  0  0  0  0  0  0  # atno 10764 bound_to 10752
  154.4217  135.2846  155.1949 H   0  0  0  0  0  0  0  0  0  0  0  0  # atno 10765 bound_to 10752
  140.1075  134.4998  155.8707 H   0  0  0  0  0  0  0  0  0  0  0  0  # atno 11005 bound_to 11000
  144.8202  140.6536  143.6358 LP  0  0  0  0  0  0  0  0  0  0  0  0  # atno 17320 bound_to 7965
  145.4272  139.1554  143.4042 LP  0  0  0  0  0  0  0  0  0  0  0  0  # atno 17321 bound_to 7965
  140.7718  143.3480  151.2072 LP  0  0  0  0  0  0  0  0  0  0  0  0  # atno 17342 bound_to 10162
  139.7075  143.9431  152.2933 LP  0  0  0  0  0  0  0  0  0  0  0  0  # atno 17343 bound_to 10162
  155.9691  130.4554  150.5885 LP  0  0  0  0  0  0  0  0  0  0  0  0  # atno 17370 bound_to 10713
  157.3680  131.0761  151.1581 LP  0  0  0  0  0  0  0  0  0  0  0  0  # atno 17371 bound_to 10713
  141.2122  133.6716  156.6640 LP  0  0  0  0  0  0  0  0  0  0  0  0  # atno 17394 bound_to 11000
  140.3135  134.8066  157.4196 LP  0  0  0  0  0  0  0  0  0  0  0  0  # atno 17395 bound_to 11000

$$$$
