AV-unprocessed.smi:2319|AV-procd|sdf|9278|dock4
  -GOLD-   2272012503D 1   1.00000     0.00000
 Structure written by MMmdl.
 46 47  0  0  0  0  0  0  0  0  1 V2000
  152.7215  138.6631  154.8028 C   0  0  0  0  0  0  0  0  0  0  0  0
  151.3636  138.2047  154.2609 C   0  0  0  0  0  0  0  0  0  0  0  0
  150.3295  139.2819  154.2861 C   0  0  0  0  0  0  0  0  0  0  0  0
  150.7247  140.5106  154.7116 O   0  0  0  0  0  0  0  0  0  0  0  0
  149.6283  141.3849  154.6577 N   0  0  0  0  0  0  0  0  0  0  0  0
  148.6019  140.6810  154.2033 C   0  0  0  0  0  0  0  0  0  0  0  0
  147.2861  141.3716  153.9766 C   0  0  0  0  0  0  0  0  0  0  0  0
  149.0014  139.3305  153.9807 C   0  0  0  0  0  0  0  0  0  0  0  0
  148.2494  138.2399  153.4775 N   0  0  0  0  0  0  0  0  0  0  0  0
  147.0089  137.8842  153.8429 C   0  0  0  0  0  0  0  0  0  0  0  0
  146.3330  138.4618  154.6936 O   0  0  0  0  0  0  0  0  0  0  0  0
  146.6013  136.7914  153.1837 N   0  0  0  0  0  0  0  0  0  0  0  0
  145.3237  136.1125  153.3912 C   0  0  1  0  0  0  0  0  0  0  0  0
  144.5829  135.9035  152.0854 C   0  0  0  0  0  0  0  0  0  0  0  0
  143.6594  134.7185  152.3948 C   0  0  0  0  0  0  0  0  0  0  0  0
  142.2943  135.1791  152.9338 C   0  0  0  0  0  0  0  0  0  0  0  0
  143.4876  133.7832  151.1879 C   0  0  0  0  0  0  0  0  0  0  0  0
  144.3054  133.9945  153.4411 O   0  0  0  0  0  0  0  0  0  0  0  0
  145.4633  134.6714  153.9278 C   0  0  0  0  0  0  0  0  0  0  0  0
  146.6841  133.9035  153.3781 C   0  0  0  0  0  0  0  0  0  0  0  0
  145.4324  134.6135  155.4632 C   0  0  0  0  0  0  0  0  0  0  0  0
  153.4467  137.8498  154.7745 H   0  0  0  0  0  0  0  0  0  0  0  0
  152.6383  139.0004  155.8365 H   0  0  0  0  0  0  0  0  0  0  0  0
  153.1232  139.4876  154.2126 H   0  0  0  0  0  0  0  0  0  0  0  0
  151.4840  137.8466  153.2381 H   0  0  0  0  0  0  0  0  0  0  0  0
  151.0154  137.3505  154.8420 H   0  0  0  0  0  0  0  0  0  0  0  0
  146.7630  140.9521  153.1171 H   0  0  0  0  0  0  0  0  0  0  0  0
  147.4215  142.4367  153.7862 H   0  0  0  0  0  0  0  0  0  0  0  0
  146.6375  141.2728  154.8470 H   0  0  0  0  0  0  0  0  0  0  0  0
  148.7400  137.6094  152.8606 H   0  0  0  0  0  0  0  0  0  0  0  0
  147.2268  136.3834  152.5048 H   0  0  0  0  0  0  0  0  0  0  0  0
  144.6831  136.6998  154.0523 H   0  0  0  0  0  0  0  0  0  0  0  0
  144.0447  136.7933  151.7563 H   0  0  0  0  0  0  0  0  0  0  0  0
  145.2875  135.6385  151.2954 H   0  0  0  0  0  0  0  0  0  0  0  0
  141.7480  135.7536  152.1853 H   0  0  0  0  0  0  0  0  0  0  0  0
  142.4044  135.8066  153.8187 H   0  0  0  0  0  0  0  0  0  0  0  0
  141.6749  134.3265  153.2137 H   0  0  0  0  0  0  0  0  0  0  0  0
  143.0145  134.3002  150.3526 H   0  0  0  0  0  0  0  0  0  0  0  0
  142.8673  132.9231  151.4414 H   0  0  0  0  0  0  0  0  0  0  0  0
  144.4494  133.4020  150.8429 H   0  0  0  0  0  0  0  0  0  0  0  0
  147.6219  134.3288  153.7368 H   0  0  0  0  0  0  0  0  0  0  0  0
  146.7090  133.9129  152.2884 H   0  0  0  0  0  0  0  0  0  0  0  0
  146.6608  132.8599  153.6926 H   0  0  0  0  0  0  0  0  0  0  0  0
  146.2977  135.1158  155.8960 H   0  0  0  0  0  0  0  0  0  0  0  0
  145.4371  133.5828  155.8186 H   0  0  0  0  0  0  0  0  0  0  0  0
  144.5368  135.0928  155.8593 H   0  0  0  0  0  0  0  0  0  0  0  0
  1  2  1  0  0  0  0
  1 22  1  0  0  0  0
  1 23  1  0  0  0  0
  1 24  1  0  0  0  0
  2  3  1  0  0  0  0
  2 25  1  0  0  0  0
  2 26  1  0  0  0  0
  3  8  2  0  0  0  0
  3  4  1  0  0  0  0
  4  5  1  0  0  0  0
  5  6  2  0  0  0  0
  6  7  1  0  0  0  0
  6  8  1  0  0  0  0
  7 27  1  0  0  0  0
  7 28  1  0  0  0  0
  7 29  1  0  0  0  0
  8  9  1  0  0  0  0
  9 10  1  0  0  0  0
  9 30  1  0  0  0  0
 10 11  2  0  0  0  0
 10 12  1  0  0  0  0
 12 13  1  0  0  0  0
 12 31  1  0  0  0  0
 13 19  1  0  0  0  0
 13 14  1  0  0  0  0
 13 32  1  0  0  0  0
 14 15  1  0  0  0  0
 14 33  1  0  0  0  0
 14 34  1  0  0  0  0
 15 16  1  0  0  0  0
 15 17  1  0  0  0  0
 15 18  1  0  0  0  0
 16 35  1  0  0  0  0
 16 36  1  0  0  0  0
 16 37  1  0  0  0  0
 17 38  1  0  0  0  0
 17 39  1  0  0  0  0
 17 40  1  0  0  0  0
 18 19  1  0  0  0  0
 19 20  1  0  0  0  0
 19 21  1  0  0  0  0
 20 41  1  0  0  0  0
 20 42  1  0  0  0  0
 20 43  1  0  0  0  0
 21 44  1  0  0  0  0
 21 45  1  0  0  0  0
 21 46  1  0  0  0  0
M  END
> <s_m_source_file>
AV-unprocessed.smi

> <i_m_source_file_index>
2319

> <i_lp_mmshare_version>
43012

> <i_f3d_flags>
0

> <s_epik_input>
W0NIM11bQ0gyXWMxb25jKFtDSDNdKWMxW05IXUMoPU8pW05IXVtDQEBIXShDKE8yKShbQ0gzXSlbQ0gzXSlbQ0gyXUMyKFtDSDNdKVtDSDNd

> <s_epik_cmdline>
J2VwaWtfcHl0aG9uJywgJy1waCcsICc3LjAnLCAnLXRuJywgJzgnLCAnLW1hJywgJzIwMCcsICctbWV0YWxfYmluZGluZycsICctaW1hZScsICc8aW5maWxlLm1hZT4nLCAnLW9tYWUnLCAnPG91dGZpbGUubWFlPic=

> <r_lp_tautomer_probability>
1

> <r_epik_Ionization_Penalty>
3.17207e-05

> <r_epik_Ionization_Penalty_Charging>
0

> <r_epik_Ionization_Penalty_Neutral>
3.17207e-05

> <r_epik_State_Penalty>
-0

> <r_epik_Charging_Adjusted_Penalty>
0

> <i_epik_Tot_Q>
0

> <i_epik_Tot_abs_Q>
0

> <r_epik_Metal_State_Penalty>
-0

> <b_epik_Metal_Only>
0

> <s_lp_Force_Field>
OPLS_2005

> <r_lp_Energy>
19.7342

> <b_lp_Chiralities_Consistent>
1

> <s_lp_Variant>
AV-unprocessed.smi:2319-2

> <Gold.Version>
5.8.1

> <Gold.Id.Protein>
6NUR|6NUR_protein|mol2

> <Gold.PLP.Fitness>
38.9667

> <Gold.PLP.PLP>
-30.5438

> <Gold.PLP.part.hbond>
-4.4342

> <Gold.PLP.part.metal>
0.0000

> <Gold.PLP.part.buried>
-2.0090

> <Gold.PLP.part.nonpolar>
-25.3509

> <Gold.PLP.part.repulsive>
1.3812

> <Gold.PLP.ligand.clash>
0.0000

> <Gold.PLP.ligand.torsion>
0.4135

> <Gold.PLP.Chemscore.Hbond>
2.9920

> <Gold.PLP.Chemscore.CHOScore>
0.0000

> <Gold.PLP.Chemscore.Metal>
0.0000

> <Gold.Chemscore.Hbonds>
donor molecule, donor type, donor heavy atom, donor atom, acceptor molecule, acceptor atom, score
      L1  H     9    30       P1  7948  1.00
      L1  H    12    31       P1  7948  0.98
      P1  H  7989  7998       L1     4  0.90

> <Gold.PLP.Chemscore.Internal.Correction>
0.2740

> <Gold.Rescore>
     Score         DG    S(hbond)    S(metal)    S(lipo)     H(rot)  DE(clash)    DE(int)     intcor
     17.35     -17.84       1.97        0.00      74.67       1.16       0.10       0.38       ----

> <Gold.Chemscore.Fitness>
17.3545

> <Gold.Chemscore.DG>
-17.8395

> <Gold.Chemscore.ZeroCoef>
-5.4800

> <Gold.Chemscore.Hbond>
1.9730

> <Gold.Chemscore.Metal>
0.0000

> <Gold.Chemscore.Lipo>
74.6735

> <Gold.Chemscore.Internal_Hbond>
0.0000

> <Gold.Chemscore.DEClash>
0.1027

> <Gold.Chemscore.DEInternal>
0.3823

> <Gold.Chemscore.Rot>
1.1590

> <Gold.Chemscore.Internal.Correction>
   9.000000E+99

> <Gold.Chemscore.Hbonds>
donor molecule, donor type, donor heavy atom, donor atom, acceptor molecule, acceptor atom, score
      L1  H     9    30       P1  7948  0.99
      L1  H    12    31       P1  7948  0.93
      P1  H  7989  7998       L1     4  0.09

> <Gold.Chemscore.Hbond.Weighted>
-6.5898

> <Gold.Chemscore.Metal.Weighted>
-0.0000

> <Gold.Chemscore.Lipo.Weighted>
-8.7368

> <Gold.Chemscore.Internal_Hbond.Weighted>
0.0000

> <Gold.Chemscore.DEClash.Weighted>
0.1027

> <Gold.Chemscore.DEInternal.Weighted>
0.3823

> <Gold.Chemscore.Rot.Weighted>
2.9671

> <Gold.Chemscore.Internal.Correction.Weighted>
   9.000000E+99

> <Gold.Protein.RotatedTorsions>
[ 6907 6896 6895 6894 ] final  164.03 input  -60.11 | X-H torsion
[ 7974 7965 7964 7962 ] final -178.51 input  175.53 | X-H torsion
[ 8008 7997 7996 7995 ] final  -75.67 input   59.86 | X-H torsion
[ 10167 10162 10161 10158 ] final  120.92 input  -65.29 | X-H torsion
[ 10718 10713 10712 10709 ] final   10.20 input   66.30 | X-H torsion
[ 10763 10752 10751 10750 ] final   14.85 input  -60.55 | X-H torsion
[ 11005 11000 10999 10996 ] final  154.32 input  -57.11 | X-H torsion

> <Gold.Protein.ActiveResidues>
 VAL166  LYS551  ARG553  GLY616  TRP617  ASP618  TYR619  PRO620  LYS621  CYS622 
 ASP623  PHE694  ASN695  SER759  ASP760  ASP761  ALA762  ILE779  LEU786  VAL792 
 PHE793  MET794  SER795  GLU796  ALA797  LYS798  CYS799  TRP800  GLU811  SER814 

> <Gold.Protein.RotatedAtoms>
  151.9161  133.3573  159.3880 H   0  0  0  0  0  0  0  0  0  0  0  0  # atno 6907 bound_to 6896
  150.7047  134.4682  159.5422 H   0  0  0  0  0  0  0  0  0  0  0  0  # atno 6908 bound_to 6896
  152.2297  134.8334  160.0526 H   0  0  0  0  0  0  0  0  0  0  0  0  # atno 6909 bound_to 6896
  144.7131  140.0858  143.6423 H   0  0  0  0  0  0  0  0  0  0  0  0  # atno 7974 bound_to 7965
  154.5437  140.0740  156.8553 H   0  0  0  0  0  0  0  0  0  0  0  0  # atno 8008 bound_to 7997
  155.3129  140.3391  155.4225 H   0  0  0  0  0  0  0  0  0  0  0  0  # atno 8009 bound_to 7997
  156.1898  140.1682  156.8100 H   0  0  0  0  0  0  0  0  0  0  0  0  # atno 8010 bound_to 7997
  139.5951  144.7039  151.3195 H   0  0  0  0  0  0  0  0  0  0  0  0  # atno 10167 bound_to 10162
  156.9775  130.5993  149.5674 H   0  0  0  0  0  0  0  0  0  0  0  0  # atno 10718 bound_to 10713
  153.1582  135.6791  153.8781 H   0  0  0  0  0  0  0  0  0  0  0  0  # atno 10763 bound_to 10752
  153.8185  135.3133  155.3409 H   0  0  0  0  0  0  0  0  0  0  0  0  # atno 10764 bound_to 10752
  154.7913  135.4833  154.0147 H   0  0  0  0  0  0  0  0  0  0  0  0  # atno 10765 bound_to 10752
  140.1478  134.8695  157.2415 H   0  0  0  0  0  0  0  0  0  0  0  0  # atno 11005 bound_to 11000
  145.9663  139.2837  143.1126 LP  0  0  0  0  0  0  0  0  0  0  0  0  # atno 17320 bound_to 7965
  145.9166  140.9144  143.0426 LP  0  0  0  0  0  0  0  0  0  0  0  0  # atno 17321 bound_to 7965
  140.7206  143.7147  150.7742 LP  0  0  0  0  0  0  0  0  0  0  0  0  # atno 17342 bound_to 10162
  140.0712  143.5059  152.2579 LP  0  0  0  0  0  0  0  0  0  0  0  0  # atno 17343 bound_to 10162
  156.0257  130.5351  150.8401 LP  0  0  0  0  0  0  0  0  0  0  0  0  # atno 17370 bound_to 10713
  157.5549  131.0945  150.9642 LP  0  0  0  0  0  0  0  0  0  0  0  0  # atno 17371 bound_to 10713
  140.2642  134.3536  155.7396 LP  0  0  0  0  0  0  0  0  0  0  0  0  # atno 17394 bound_to 11000
  141.2195  133.7386  156.9126 LP  0  0  0  0  0  0  0  0  0  0  0  0  # atno 17395 bound_to 11000

$$$$
