AV-unprocessed.smi:2587|AV-procd|sdf|10147|dock8
  -GOLD-   2272014163D 1   1.00000     0.00000
 Structure written by MMmdl.
 40 41  0  0  0  0  0  0  0  0  2 V2000
  149.8774  135.9325  155.0428 C   0  0  0  0  0  0  0  0  0  0  0  0
  150.0452  137.2337  154.7644 C   0  0  0  0  0  0  0  0  0  0  0  0
  151.3883  137.8918  154.5215 C   0  0  0  0  0  0  0  0  0  0  0  0
  151.8511  138.6742  155.6654 N   0  0  0  0  0  0  0  0  0  0  0  0
  153.0231  138.1983  156.4008 C   0  0  0  0  0  0  0  0  0  0  0  0
  152.6825  137.0563  157.3704 C   0  0  0  0  0  0  0  0  0  0  0  0
  153.2635  135.8586  156.9053 O   0  0  0  0  0  0  0  0  0  0  0  0
  151.3400  139.9752  155.8969 C   0  0  0  0  0  0  0  0  0  0  0  0
  151.7253  140.7472  157.0155 C   0  0  0  0  0  0  0  0  0  0  0  0
  151.1625  142.0370  157.1683 C   0  0  0  0  0  0  0  0  0  0  0  0
  151.4814  142.9071  158.2351 N   0  0  0  0  0  0  0  0  0  0  0  0
  152.2023  142.3613  159.3824 C   0  0  0  0  0  0  0  0  0  0  0  0
  152.7360  143.4937  160.2756 C   0  0  0  0  0  0  0  0  0  0  0  0
  151.6679  144.3580  160.6444 O   0  0  0  0  0  0  0  0  0  0  0  0
  151.0803  144.9817  159.5086 C   0  0  0  0  0  0  0  0  0  0  0  0
  150.4774  143.9119  158.5828 C   0  0  0  0  0  0  0  0  0  0  0  0
  150.2760  142.4757  156.2369 N   0  3  0  0  0  0  0  0  0  0  0  0
  149.9479  141.7028  155.1940 C   0  0  0  0  0  0  0  0  0  0  0  0
  150.4560  140.4825  155.0095 N   0  0  0  0  0  0  0  0  0  0  0  0
  150.7192  135.2590  155.1081 H   0  0  0  0  0  0  0  0  0  0  0  0
  148.8913  135.5242  155.2103 H   0  0  0  0  0  0  0  0  0  0  0  0
  149.1794  137.8779  154.7123 H   0  0  0  0  0  0  0  0  0  0  0  0
  152.1099  137.1000  154.3172 H   0  0  0  0  0  0  0  0  0  0  0  0
  151.3586  138.5046  153.6200 H   0  0  0  0  0  0  0  0  0  0  0  0
  153.8131  137.8950  155.7127 H   0  0  0  0  0  0  0  0  0  0  0  0
  153.4356  139.0370  156.9632 H   0  0  0  0  0  0  0  0  0  0  0  0
  153.0610  137.2679  158.3710 H   0  0  0  0  0  0  0  0  0  0  0  0
  151.6040  136.9182  157.4503 H   0  0  0  0  0  0  0  0  0  0  0  0
  152.8351  135.1311  157.3298 H   0  0  0  0  0  0  0  0  0  0  0  0
  152.4303  140.3620  157.7335 H   0  0  0  0  0  0  0  0  0  0  0  0
  151.5342  141.7152  159.9531 H   0  0  0  0  0  0  0  0  0  0  0  0
  153.0447  141.7546  159.0489 H   0  0  0  0  0  0  0  0  0  0  0  0
  153.1858  143.0795  161.1781 H   0  0  0  0  0  0  0  0  0  0  0  0
  153.5155  144.0602  159.7632 H   0  0  0  0  0  0  0  0  0  0  0  0
  150.3032  145.6688  159.8432 H   0  0  0  0  0  0  0  0  0  0  0  0
  151.8257  145.5786  158.9803 H   0  0  0  0  0  0  0  0  0  0  0  0
  150.0767  144.4035  157.6964 H   0  0  0  0  0  0  0  0  0  0  0  0
  149.6421  143.4162  159.0789 H   0  0  0  0  0  0  0  0  0  0  0  0
  149.2414  142.1122  154.4871 H   0  0  0  0  0  0  0  0  0  0  0  0
  149.8672  143.4054  156.3342 H   0  0  0  0  0  0  0  0  0  0  0  0
  1  2  2  0  0  0  0
  1 20  1  0  0  0  0
  1 21  1  0  0  0  0
  2  3  1  0  0  0  0
  2 22  1  0  0  0  0
  3  4  1  0  0  0  0
  3 23  1  0  0  0  0
  3 24  1  0  0  0  0
  4  5  1  0  0  0  0
  4  8  1  0  0  0  0
  5  6  1  0  0  0  0
  5 25  1  0  0  0  0
  5 26  1  0  0  0  0
  6  7  1  0  0  0  0
  6 27  1  0  0  0  0
  6 28  1  0  0  0  0
  7 29  1  0  0  0  0
  8 19  1  0  0  0  0
  8  9  2  0  0  0  0
  9 10  1  0  0  0  0
  9 30  1  0  0  0  0
 10 11  1  0  0  0  0
 10 17  2  0  0  0  0
 11 16  1  0  0  0  0
 11 12  1  0  0  0  0
 12 13  1  0  0  0  0
 12 31  1  0  0  0  0
 12 32  1  0  0  0  0
 13 14  1  0  0  0  0
 13 33  1  0  0  0  0
 13 34  1  0  0  0  0
 14 15  1  0  0  0  0
 15 16  1  0  0  0  0
 15 35  1  0  0  0  0
 15 36  1  0  0  0  0
 16 37  1  0  0  0  0
 16 38  1  0  0  0  0
 17 18  1  0  0  0  0
 17 40  1  0  0  0  0
 18 19  2  0  0  0  0
 18 39  1  0  0  0  0
M  CHG  1  17   1
M  END
> <s_m_source_file>
AV-unprocessed.smi

> <i_m_source_file_index>
2587

> <i_lp_mmshare_version>
43012

> <i_f3d_flags>
0

> <s_epik_input>
W0NIMl09W0NIXVtDSDJdTihbQ0gyXVtDSDJdW09IXSljMVtjSF1jKG5bY0hdbjEpTjJbQ0gyXVtDSDJdT1tDSDJdW0NIMl0y

> <s_epik_cmdline>
J2VwaWtfcHl0aG9uJywgJy1waCcsICc3LjAnLCAnLXRuJywgJzgnLCAnLW1hJywgJzIwMCcsICctbWV0YWxfYmluZGluZycsICctaW1hZScsICc8aW5maWxlLm1hZT4nLCAnLW9tYWUnLCAnPG91dGZpbGUubWFlPic=

> <r_lp_tautomer_probability>
0.999336

> <r_epik_Ionization_Penalty>
3.67622

> <r_epik_Ionization_Penalty_Charging>
3.67622

> <r_epik_Ionization_Penalty_Neutral>
1.25637e-07

> <r_epik_State_Penalty>
2.4309

> <r_epik_Charging_Adjusted_Penalty>
6.10712

> <i_epik_Tot_Q>
1

> <i_epik_Tot_abs_Q>
1

> <r_epik_Metal_State_Penalty>
2.43203

> <b_epik_Metal_Only>
0

> <s_lp_Force_Field>
OPLS_2005

> <r_lp_Energy>
13.6673

> <b_lp_Chiralities_Consistent>
1

> <s_lp_Variant>
AV-unprocessed.smi:2587-2

> <Gold.Version>
5.8.1

> <Gold.Id.Protein>
6NUR|6NUR_protein|mol2

> <Gold.PLP.Fitness>
45.8943

> <Gold.PLP.PLP>
-35.7520

> <Gold.PLP.part.hbond>
-3.0000

> <Gold.PLP.part.metal>
0.0000

> <Gold.PLP.part.buried>
-3.9274

> <Gold.PLP.part.nonpolar>
-28.3097

> <Gold.PLP.part.repulsive>
0.3503

> <Gold.PLP.ligand.clash>
0.0000

> <Gold.PLP.ligand.torsion>
1.3334

> <Gold.PLP.Chemscore.Hbond>
3.9840

> <Gold.PLP.Chemscore.CHOScore>
0.0654

> <Gold.PLP.Chemscore.Metal>
0.0000

> <Gold.Chemscore.Hbonds>
donor molecule, donor type, donor heavy atom, donor atom, acceptor molecule, acceptor atom, score
      L1  H    17    40       P1  8028  1.98
      P1  H  7989  7998       L1    19  0.90
      P1  H 10752 10764       L1     7  1.00
      L1  C    18    39       P1  8028  0.06

> <Gold.PLP.Chemscore.Internal.Correction>
0.6607

> <Gold.Rescore>
     Score         DG    S(hbond)    S(metal)    S(lipo)     H(rot)  DE(clash)    DE(int)     intcor
     13.34     -14.47       1.98        0.00      76.53       2.57       0.00       1.13       ----

> <Gold.Chemscore.Fitness>
13.3385

> <Gold.Chemscore.DG>
-14.4718

> <Gold.Chemscore.ZeroCoef>
-5.4800

> <Gold.Chemscore.Hbond>
1.9776

> <Gold.Chemscore.Metal>
0.0000

> <Gold.Chemscore.Lipo>
76.5284

> <Gold.Chemscore.Internal_Hbond>
0.0000

> <Gold.Chemscore.DEClash>
0.0000

> <Gold.Chemscore.DEInternal>
1.1333

> <Gold.Chemscore.Rot>
2.5653

> <Gold.Chemscore.Internal.Correction>
   9.000000E+99

> <Gold.Chemscore.Hbonds>
donor molecule, donor type, donor heavy atom, donor atom, acceptor molecule, acceptor atom, score
      L1  H    17    40       P1  8028  0.94
      P1  H  7989  7998       L1    19  0.05
      P1  H 10752 10764       L1     7  0.60

> <Gold.Chemscore.Hbond.Weighted>
-6.6052

> <Gold.Chemscore.Metal.Weighted>
-0.0000

> <Gold.Chemscore.Lipo.Weighted>
-8.9538

> <Gold.Chemscore.Internal_Hbond.Weighted>
0.0000

> <Gold.Chemscore.DEClash.Weighted>
0.0000

> <Gold.Chemscore.DEInternal.Weighted>
1.1333

> <Gold.Chemscore.Rot.Weighted>
6.5671

> <Gold.Chemscore.Internal.Correction.Weighted>
   9.000000E+99

> <Gold.Protein.RotatedTorsions>
[ 6907 6896 6895 6894 ] final   74.84 input  -60.11 | X-H torsion
[ 7974 7965 7964 7962 ] final -129.06 input  175.53 | X-H torsion
[ 8008 7997 7996 7995 ] final  -19.90 input   59.86 | X-H torsion
[ 10167 10162 10161 10158 ] final -129.45 input  -65.29 | X-H torsion
[ 10718 10713 10712 10709 ] final -119.30 input   66.30 | X-H torsion
[ 10763 10752 10751 10750 ] final   10.08 input  -60.55 | X-H torsion
[ 11005 11000 10999 10996 ] final -107.49 input  -57.11 | X-H torsion

> <Gold.Protein.ActiveResidues>
 VAL166  LYS551  ARG553  GLY616  TRP617  ASP618  TYR619  PRO620  LYS621  CYS622 
 ASP623  PHE694  ASN695  SER759  ASP760  ASP761  ALA762  ILE779  LEU786  VAL792 
 PHE793  MET794  SER795  GLU796  ALA797  LYS798  CYS799  TRP800  GLU811  SER814 

> <Gold.Protein.RotatedAtoms>
  152.4996  134.4210  159.9480 H   0  0  0  0  0  0  0  0  0  0  0  0  # atno 6907 bound_to 6896
  151.4183  133.3700  159.2760 H   0  0  0  0  0  0  0  0  0  0  0  0  # atno 6908 bound_to 6896
  150.9241  134.8680  159.7568 H   0  0  0  0  0  0  0  0  0  0  0  0  # atno 6909 bound_to 6896
  144.9609  140.7446  143.4729 H   0  0  0  0  0  0  0  0  0  0  0  0  # atno 7974 bound_to 7965
  154.4805  140.2076  155.9775 H   0  0  0  0  0  0  0  0  0  0  0  0  # atno 8008 bound_to 7997
  156.1158  140.3221  155.8106 H   0  0  0  0  0  0  0  0  0  0  0  0  # atno 8009 bound_to 7997
  155.4556  140.0520  157.2987 H   0  0  0  0  0  0  0  0  0  0  0  0  # atno 8010 bound_to 7997
  139.9396  143.6178  152.2507 H   0  0  0  0  0  0  0  0  0  0  0  0  # atno 10167 bound_to 10162
  156.1171  130.6294  150.9399 H   0  0  0  0  0  0  0  0  0  0  0  0  # atno 10718 bound_to 10713
  153.2070  135.6864  153.8160 H   0  0  0  0  0  0  0  0  0  0  0  0  # atno 10763 bound_to 10752
  153.7406  135.3238  155.3304 H   0  0  0  0  0  0  0  0  0  0  0  0  # atno 10764 bound_to 10752
  154.8202  135.4657  154.0861 H   0  0  0  0  0  0  0  0  0  0  0  0  # atno 10765 bound_to 10752
  141.0951  133.8985  157.1982 H   0  0  0  0  0  0  0  0  0  0  0  0  # atno 11005 bound_to 11000
  145.2701  139.1958  143.4846 LP  0  0  0  0  0  0  0  0  0  0  0  0  # atno 17320 bound_to 7965
  146.3353  140.2646  142.8603 LP  0  0  0  0  0  0  0  0  0  0  0  0  # atno 17321 bound_to 7965
  139.6715  144.7660  151.1774 LP  0  0  0  0  0  0  0  0  0  0  0  0  # atno 17342 bound_to 10162
  140.7614  143.5858  150.8847 LP  0  0  0  0  0  0  0  0  0  0  0  0  # atno 17343 bound_to 10162
  157.6354  131.0916  150.8358 LP  0  0  0  0  0  0  0  0  0  0  0  0  # atno 17370 bound_to 10713
  156.8460  130.5064  149.5316 LP  0  0  0  0  0  0  0  0  0  0  0  0  # atno 17371 bound_to 10713
  139.9786  135.0105  156.9694 LP  0  0  0  0  0  0  0  0  0  0  0  0  # atno 17394 bound_to 11000
  140.5159  134.0956  155.7280 LP  0  0  0  0  0  0  0  0  0  0  0  0  # atno 17395 bound_to 11000

$$$$
