AV-unprocessed.smi:1537|AV-procd|sdf|6191|dock8
  -GOLD-   22720 6353D 1   1.00000     0.00000
 Structure written by MMmdl.
 43 43  0  0  0  0  0  0  0  0  1 V2000
  152.4052  141.0444  159.6530 C   0  0  0  0  0  0  0  0  0  0  0  0
  152.0524  139.7809  158.8615 C   0  0  0  0  0  0  0  0  0  0  0  0
  151.3379  140.0857  157.5879 C   0  0  0  0  0  0  0  0  0  0  0  0
  150.9562  139.1491  156.7158 N   0  0  0  0  0  0  0  0  0  0  0  0
  150.3442  139.6873  155.5784 C   0  0  0  0  0  0  0  0  0  0  0  0
  149.8499  138.7792  154.4904 C   0  0  0  0  0  0  0  0  0  0  0  0
  148.4288  139.1688  154.0813 C   0  0  0  0  0  0  0  0  0  0  0  0
  147.8756  140.1314  154.6133 O   0  0  0  0  0  0  0  0  0  0  0  0
  147.8479  138.4097  153.1377 N   0  0  0  0  0  0  0  0  0  0  0  0
  146.4968  138.5978  152.6130 C   0  0  1  0  0  0  0  0  0  0  0  0
  146.6142  138.9847  151.1294 C   0  0  0  0  0  0  0  0  0  0  0  0
  145.6911  137.2915  152.7035 C   0  0  0  0  0  0  0  0  0  0  0  0
  144.5835  137.2783  153.2427 O   0  0  0  0  0  0  0  0  0  0  0  0
  146.2812  136.2032  152.1783 N   0  0  0  0  0  0  0  0  0  0  0  0
  145.7688  134.8295  152.1102 C   0  0  0  0  0  0  0  0  0  0  0  0
  144.5021  134.8678  151.2375 C   0  0  0  0  0  0  0  0  0  0  0  0
  145.3929  134.3193  153.5174 C   0  0  0  0  0  0  0  0  0  0  0  0
  146.8023  133.8932  151.4495 C   0  0  0  0  0  0  0  0  0  0  0  0
  150.2695  141.0582  155.6039 C   0  0  0  0  0  0  0  0  0  0  0  0
  150.9783  141.7221  157.0500 S   0  0  0  0  0  0  0  0  0  0  0  0
  152.9226  140.7918  160.5786 H   0  0  0  0  0  0  0  0  0  0  0  0
  151.5086  141.6070  159.9147 H   0  0  0  0  0  0  0  0  0  0  0  0
  153.0564  141.7012  159.0752 H   0  0  0  0  0  0  0  0  0  0  0  0
  152.9587  139.2192  158.6323 H   0  0  0  0  0  0  0  0  0  0  0  0
  151.4238  139.1267  159.4664 H   0  0  0  0  0  0  0  0  0  0  0  0
  150.5020  138.8240  153.6169 H   0  0  0  0  0  0  0  0  0  0  0  0
  149.8563  137.7412  154.8254 H   0  0  0  0  0  0  0  0  0  0  0  0
  148.3780  137.6374  152.7608 H   0  0  0  0  0  0  0  0  0  0  0  0
  145.9911  139.3952  153.1614 H   0  0  0  0  0  0  0  0  0  0  0  0
  145.6321  139.1436  150.6821 H   0  0  0  0  0  0  0  0  0  0  0  0
  147.1248  138.2158  150.5472 H   0  0  0  0  0  0  0  0  0  0  0  0
  147.1764  139.9119  151.0135 H   0  0  0  0  0  0  0  0  0  0  0  0
  147.1929  136.3440  151.7683 H   0  0  0  0  0  0  0  0  0  0  0  0
  144.0574  133.8768  151.1395 H   0  0  0  0  0  0  0  0  0  0  0  0
  144.7224  135.2286  150.2320 H   0  0  0  0  0  0  0  0  0  0  0  0
  143.7438  135.5257  151.6639 H   0  0  0  0  0  0  0  0  0  0  0  0
  144.6883  134.9919  154.0081 H   0  0  0  0  0  0  0  0  0  0  0  0
  146.2635  134.2240  154.1662 H   0  0  0  0  0  0  0  0  0  0  0  0
  144.9248  133.3358  153.4658 H   0  0  0  0  0  0  0  0  0  0  0  0
  146.3908  132.8933  151.3082 H   0  0  0  0  0  0  0  0  0  0  0  0
  147.7032  133.7838  152.0529 H   0  0  0  0  0  0  0  0  0  0  0  0
  147.1047  134.2643  150.4697 H   0  0  0  0  0  0  0  0  0  0  0  0
  149.8492  141.7156  154.8571 H   0  0  0  0  0  0  0  0  0  0  0  0
  1  2  1  0  0  0  0
  1 21  1  0  0  0  0
  1 22  1  0  0  0  0
  1 23  1  0  0  0  0
  2  3  1  0  0  0  0
  2 24  1  0  0  0  0
  2 25  1  0  0  0  0
  3 20  1  0  0  0  0
  3  4  2  0  0  0  0
  4  5  1  0  0  0  0
  5  6  1  0  0  0  0
  5 19  2  0  0  0  0
  6  7  1  0  0  0  0
  6 26  1  0  0  0  0
  6 27  1  0  0  0  0
  7  8  2  0  0  0  0
  7  9  1  0  0  0  0
  9 10  1  0  0  0  0
  9 28  1  0  0  0  0
 10 11  1  0  0  0  0
 10 12  1  0  0  0  0
 10 29  1  0  0  0  0
 11 30  1  0  0  0  0
 11 31  1  0  0  0  0
 11 32  1  0  0  0  0
 12 13  2  0  0  0  0
 12 14  1  0  0  0  0
 14 15  1  0  0  0  0
 14 33  1  0  0  0  0
 15 16  1  0  0  0  0
 15 17  1  0  0  0  0
 15 18  1  0  0  0  0
 16 34  1  0  0  0  0
 16 35  1  0  0  0  0
 16 36  1  0  0  0  0
 17 37  1  0  0  0  0
 17 38  1  0  0  0  0
 17 39  1  0  0  0  0
 18 40  1  0  0  0  0
 18 41  1  0  0  0  0
 18 42  1  0  0  0  0
 19 20  1  0  0  0  0
 19 43  1  0  0  0  0
M  END
> <s_m_source_file>
AV-unprocessed.smi

> <i_m_source_file_index>
1537

> <i_lp_mmshare_version>
43012

> <i_f3d_flags>
0

> <s_epik_input>
W0NIM11bQ0gyXWMxbmMoW2NIXXMxKVtDSDJdQyg9TylbTkhdW0NASF0oW0NIM10pQyg9TylbTkhdQyhbQ0gzXSkoW0NIM10pW0NIM10=

> <s_epik_cmdline>
J2VwaWtfcHl0aG9uJywgJy1waCcsICc3LjAnLCAnLXRuJywgJzgnLCAnLW1hJywgJzIwMCcsICctbWV0YWxfYmluZGluZycsICctaW1hZScsICc8aW5maWxlLm1hZT4nLCAnLW9tYWUnLCAnPG91dGZpbGUubWFlPic=

> <r_lp_tautomer_probability>
1

> <r_epik_Ionization_Penalty>
4.05444e-05

> <r_epik_Ionization_Penalty_Charging>
0

> <r_epik_Ionization_Penalty_Neutral>
4.05444e-05

> <r_epik_State_Penalty>
-0

> <r_epik_Charging_Adjusted_Penalty>
0

> <i_epik_Tot_Q>
0

> <i_epik_Tot_abs_Q>
0

> <r_epik_Metal_State_Penalty>
-0

> <b_epik_Metal_Only>
0

> <s_lp_Force_Field>
OPLS_2005

> <r_lp_Energy>
-2.34744

> <b_lp_Chiralities_Consistent>
1

> <s_lp_Variant>
AV-unprocessed.smi:1537-2

> <Gold.Version>
5.8.1

> <Gold.Id.Protein>
6NUR|6NUR_protein|mol2

> <Gold.PLP.Fitness>
38.2208

> <Gold.PLP.PLP>
-32.7913

> <Gold.PLP.part.hbond>
-2.9834

> <Gold.PLP.part.metal>
0.0000

> <Gold.PLP.part.buried>
0.2641

> <Gold.PLP.part.nonpolar>
-29.6048

> <Gold.PLP.part.repulsive>
0.3328

> <Gold.PLP.ligand.clash>
0.0000

> <Gold.PLP.ligand.torsion>
0.2989

> <Gold.PLP.Chemscore.Hbond>
1.9920

> <Gold.PLP.Chemscore.CHOScore>
0.0000

> <Gold.PLP.Chemscore.Metal>
0.0000

> <Gold.Chemscore.Hbonds>
donor molecule, donor type, donor heavy atom, donor atom, acceptor molecule, acceptor atom, score
      L1  H     9    28       P1  7948  1.00
      L1  H    14    33       P1  7948  1.00

> <Gold.PLP.Chemscore.Internal.Correction>
0.0513

> <Gold.Rescore>
     Score         DG    S(hbond)    S(metal)    S(lipo)     H(rot)  DE(clash)    DE(int)     intcor
     14.91     -16.72       2.00        0.00      80.15       1.88       0.05       1.75       ----

> <Gold.Chemscore.Fitness>
14.9126

> <Gold.Chemscore.DG>
-16.7179

> <Gold.Chemscore.ZeroCoef>
-5.4800

> <Gold.Chemscore.Hbond>
1.9953

> <Gold.Chemscore.Metal>
0.0000

> <Gold.Chemscore.Lipo>
80.1513

> <Gold.Chemscore.Internal_Hbond>
0.0000

> <Gold.Chemscore.DEClash>
0.0508

> <Gold.Chemscore.DEInternal>
1.7546

> <Gold.Chemscore.Rot>
1.8766

> <Gold.Chemscore.Internal.Correction>
   9.000000E+99

> <Gold.Chemscore.Hbonds>
donor molecule, donor type, donor heavy atom, donor atom, acceptor molecule, acceptor atom, score
      L1  H     9    28       P1  7948  1.00
      L1  H    14    33       P1  7948  0.96

> <Gold.Chemscore.Hbond.Weighted>
-6.6644

> <Gold.Chemscore.Metal.Weighted>
-0.0000

> <Gold.Chemscore.Lipo.Weighted>
-9.3777

> <Gold.Chemscore.Internal_Hbond.Weighted>
0.0000

> <Gold.Chemscore.DEClash.Weighted>
0.0508

> <Gold.Chemscore.DEInternal.Weighted>
1.7546

> <Gold.Chemscore.Rot.Weighted>
4.8042

> <Gold.Chemscore.Internal.Correction.Weighted>
   9.000000E+99

> <Gold.Protein.RotatedTorsions>
[ 6907 6896 6895 6894 ] final -142.83 input  -60.11 | X-H torsion
[ 7974 7965 7964 7962 ] final  154.63 input  175.53 | X-H torsion
[ 8008 7997 7996 7995 ] final   45.82 input   59.86 | X-H torsion
[ 10167 10162 10161 10158 ] final   -1.85 input  -65.29 | X-H torsion
[ 10718 10713 10712 10709 ] final  -95.49 input   66.30 | X-H torsion
[ 10763 10752 10751 10750 ] final  -57.81 input  -60.55 | X-H torsion
[ 11005 11000 10999 10996 ] final  -12.07 input  -57.11 | X-H torsion

> <Gold.Protein.ActiveResidues>
 VAL166  LYS551  ARG553  GLY616  TRP617  ASP618  TYR619  PRO620  LYS621  CYS622 
 ASP623  PHE694  ASN695  SER759  ASP760  ASP761  ALA762  ILE779  LEU786  VAL792 
 PHE793  MET794  SER795  GLU796  ALA797  LYS798  CYS799  TRP800  GLU811  SER814 

> <Gold.Protein.RotatedAtoms>
  151.0923  133.5306  159.2614 H   0  0  0  0  0  0  0  0  0  0  0  0  # atno 6907 bound_to 6896
  151.2169  135.0503  159.8944 H   0  0  0  0  0  0  0  0  0  0  0  0  # atno 6908 bound_to 6896
  152.5435  134.0731  159.8256 H   0  0  0  0  0  0  0  0  0  0  0  0  # atno 6909 bound_to 6896
  144.8076  139.6959  143.6155 H   0  0  0  0  0  0  0  0  0  0  0  0  # atno 7974 bound_to 7965
  155.3423  140.3409  155.4239 H   0  0  0  0  0  0  0  0  0  0  0  0  # atno 8008 bound_to 7997
  156.1807  140.1663  156.8315 H   0  0  0  0  0  0  0  0  0  0  0  0  # atno 8009 bound_to 7997
  154.5330  140.0741  156.8362 H   0  0  0  0  0  0  0  0  0  0  0  0  # atno 8010 bound_to 7997
  140.6827  143.6727  150.8172 H   0  0  0  0  0  0  0  0  0  0  0  0  # atno 10167 bound_to 10162
  156.0044  130.5111  150.6084 H   0  0  0  0  0  0  0  0  0  0  0  0  # atno 10718 bound_to 10713
  154.2282  135.6365  153.5167 H   0  0  0  0  0  0  0  0  0  0  0  0  # atno 10763 bound_to 10752
  152.9954  135.5513  154.6041 H   0  0  0  0  0  0  0  0  0  0  0  0  # atno 10764 bound_to 10752
  154.5517  135.2902  155.0976 H   0  0  0  0  0  0  0  0  0  0  0  0  # atno 10765 bound_to 10752
  140.7619  133.8508  155.9132 H   0  0  0  0  0  0  0  0  0  0  0  0  # atno 11005 bound_to 11000
  146.2370  139.5925  142.9517 LP  0  0  0  0  0  0  0  0  0  0  0  0  # atno 17320 bound_to 7965
  145.5400  141.0421  143.2336 LP  0  0  0  0  0  0  0  0  0  0  0  0  # atno 17321 bound_to 7965
  140.0429  143.5327  152.2709 LP  0  0  0  0  0  0  0  0  0  0  0  0  # atno 17342 bound_to 10162
  139.6161  144.7620  151.2843 LP  0  0  0  0  0  0  0  0  0  0  0  0  # atno 17343 bound_to 10162
  157.3921  131.0797  151.1385 LP  0  0  0  0  0  0  0  0  0  0  0  0  # atno 17370 bound_to 10713
  157.2073  130.6422  149.5761 LP  0  0  0  0  0  0  0  0  0  0  0  0  # atno 17371 bound_to 10713
  140.9655  134.1600  157.4619 LP  0  0  0  0  0  0  0  0  0  0  0  0  # atno 17394 bound_to 11000
  139.8769  134.9960  156.5772 LP  0  0  0  0  0  0  0  0  0  0  0  0  # atno 17395 bound_to 11000

$$$$
