AV-unprocessed.smi:160|AV-procd|sdf|1356|dock3
  -GOLD-   2262019 63D 1   1.00000     0.00000
 Structure written by MMmdl.
 29 30  0  0  0  0  0  0  0  0  1 V2000
  143.4769  133.9380  155.7295 N   0  0  0  0  0  0  0  0  0  0  0  0
  143.8464  135.1621  155.3386 C   0  0  0  0  0  0  0  0  0  0  0  0
  144.1500  136.0448  156.1396 O   0  0  0  0  0  0  0  0  0  0  0  0
  143.8709  135.4068  153.8547 C   0  0  0  0  0  0  0  0  0  0  0  0
  143.2016  136.4620  153.3029 N   0  0  0  0  0  0  0  0  0  0  0  0
  143.5076  136.2597  152.0277 C   0  0  0  0  0  0  0  0  0  0  0  0
  144.2967  135.1994  151.8157 N   0  0  0  0  0  0  0  0  0  0  0  0
  144.8444  134.6102  150.5533 C   0  0  1  0  0  0  0  0  0  0  0  0
  145.6105  133.4941  150.8948 O   0  0  0  0  0  0  0  0  0  0  0  0
  144.8071  132.3229  150.7994 C   0  0  2  0  0  0  0  0  0  0  0  0
  145.6716  131.0501  150.7690 C   0  0  0  0  0  0  0  0  0  0  0  0
  146.6148  131.0806  151.8190 O   0  0  0  0  0  0  0  0  0  0  0  0
  143.9969  132.6083  149.5288 C   0  0  2  0  0  0  0  0  0  0  0  0
  144.7626  132.3054  148.3731 O   0  0  0  0  0  0  0  0  0  0  0  0
  143.6942  134.1019  149.6608 C   0  0  2  0  0  0  0  0  0  0  0  0
  143.6210  134.7607  148.4101 O   0  0  0  0  0  0  0  0  0  0  0  0
  144.5376  134.6128  153.0143 N   0  0  0  0  0  0  0  0  0  0  0  0
  145.4569  135.4001  150.1167 H   0  0  0  0  0  0  0  0  0  0  0  0
  144.1180  132.2868  151.6457 H   0  0  0  0  0  0  0  0  0  0  0  0
  143.0816  132.0166  149.4927 H   0  0  0  0  0  0  0  0  0  0  0  0
  142.7430  134.2292  150.1804 H   0  0  0  0  0  0  0  0  0  0  0  0
  143.4388  133.7135  156.7129 H   0  0  0  0  0  0  0  0  0  0  0  0
  143.2358  133.2455  155.0353 H   0  0  0  0  0  0  0  0  0  0  0  0
  143.1489  136.8994  151.2344 H   0  0  0  0  0  0  0  0  0  0  0  0
  145.0471  130.1686  150.9166 H   0  0  0  0  0  0  0  0  0  0  0  0
  146.1783  130.9345  149.8102 H   0  0  0  0  0  0  0  0  0  0  0  0
  147.4816  131.0396  151.4447 H   0  0  0  0  0  0  0  0  0  0  0  0
  145.0843  133.1167  148.0098 H   0  0  0  0  0  0  0  0  0  0  0  0
  144.4926  135.0296  148.1625 H   0  0  0  0  0  0  0  0  0  0  0  0
  1  2  1  0  0  0  0
  1 22  1  0  0  0  0
  1 23  1  0  0  0  0
  2  3  2  0  0  0  0
  2  4  1  0  0  0  0
  4 17  2  0  0  0  0
  4  5  1  0  0  0  0
  5  6  2  0  0  0  0
  6  7  1  0  0  0  0
  6 24  1  0  0  0  0
  7  8  1  0  0  0  0
  7 17  1  0  0  0  0
  8 18  1  0  0  0  0
  8 15  1  0  0  0  0
  8  9  1  0  0  0  0
  9 10  1  0  0  0  0
 10 19  1  0  0  0  0
 10 11  1  0  0  0  0
 10 13  1  0  0  0  0
 11 12  1  0  0  0  0
 11 25  1  0  0  0  0
 11 26  1  0  0  0  0
 12 27  1  0  0  0  0
 13 20  1  0  0  0  0
 13 14  1  0  0  0  0
 13 15  1  0  0  0  0
 14 28  1  0  0  0  0
 15 21  1  0  0  0  0
 15 16  1  0  0  0  0
 16 29  1  0  0  0  0
M  END
> <s_m_source_file>
AV-unprocessed.smi

> <i_m_source_file_index>
160

> <i_lp_mmshare_version>
43012

> <i_f3d_flags>
0

> <s_epik_input>
W05IMl1DKD1PKWMxbltjSF1uKG4xKVtDQEBIXTJPW0NASF0oW0NIMl1bT0hdKVtDQEBIXShbT0hdKVtDQEhdMltPSF0=

> <s_epik_cmdline>
J2VwaWtfcHl0aG9uJywgJy1waCcsICc3LjAnLCAnLXRuJywgJzgnLCAnLW1hJywgJzIwMCcsICctbWV0YWxfYmluZGluZycsICctaW1hZScsICc8aW5maWxlLm1hZT4nLCAnLW9tYWUnLCAnPG91dGZpbGUubWFlPic=

> <r_lp_tautomer_probability>
1

> <r_epik_Ionization_Penalty>
1.06932e-05

> <r_epik_Ionization_Penalty_Charging>
0

> <r_epik_Ionization_Penalty_Neutral>
1.06932e-05

> <r_epik_State_Penalty>
-0

> <r_epik_Charging_Adjusted_Penalty>
0

> <i_epik_Tot_Q>
0

> <i_epik_Tot_abs_Q>
0

> <r_epik_Metal_State_Penalty>
0.0142097

> <b_epik_Metal_Only>
0

> <s_epik_Chemistry_Notes>
This compound contains an acetal/aminal-like group ( X-CH(R)-Y where X, Y are N, S, or O) that may be acid/base labile, releasing an aldehyde.

> <s_lp_Force_Field>
OPLS_2005

> <r_lp_Energy>
42.1222

> <b_lp_Chiralities_Consistent>
1

> <s_lp_Variant>
AV-unprocessed.smi:160-14

> <Gold.Version>
5.8.1

> <Gold.Id.Protein>
6NUR|6NUR_protein|mol2

> <Gold.PLP.Fitness>
39.0923

> <Gold.PLP.PLP>
-23.6328

> <Gold.PLP.part.hbond>
-7.6323

> <Gold.PLP.part.metal>
0.0000

> <Gold.PLP.part.buried>
-0.4996

> <Gold.PLP.part.nonpolar>
-15.8185

> <Gold.PLP.part.repulsive>
0.3278

> <Gold.PLP.ligand.clash>
0.0000

> <Gold.PLP.ligand.torsion>
1.0675

> <Gold.PLP.Chemscore.Hbond>
4.8545

> <Gold.PLP.Chemscore.CHOScore>
1.0000

> <Gold.PLP.Chemscore.Metal>
0.0000

> <Gold.Chemscore.Hbonds>
donor molecule, donor type, donor heavy atom, donor atom, acceptor molecule, acceptor atom, score
      L1  H     1    23       P1 10957  0.90
      L1  H    12    27       P1 10747  1.00
      L1  H    14    28       P1  7921  0.95
      L1  H    16    29       P1  7921  1.00
      P1  H 10192 10197       L1    16  0.89
      L1  C     6    24       P1 10171  1.00

> <Gold.PLP.Chemscore.Internal.Correction>
0.0310

> <Gold.Rescore>
     Score         DG    S(hbond)    S(metal)    S(lipo)     H(rot)  DE(clash)    DE(int)     intcor
     11.13     -14.07       4.26        0.00      40.60       4.06       1.80       1.14       ----

> <Gold.Chemscore.Fitness>
11.1298

> <Gold.Chemscore.DG>
-14.0723

> <Gold.Chemscore.ZeroCoef>
-5.4800

> <Gold.Chemscore.Hbond>
4.2622

> <Gold.Chemscore.Metal>
0.0000

> <Gold.Chemscore.Lipo>
40.5987

> <Gold.Chemscore.Internal_Hbond>
0.0000

> <Gold.Chemscore.DEClash>
1.8037

> <Gold.Chemscore.DEInternal>
1.1387

> <Gold.Chemscore.Rot>
4.0600

> <Gold.Chemscore.Internal.Correction>
   9.000000E+99

> <Gold.Chemscore.Hbonds>
donor molecule, donor type, donor heavy atom, donor atom, acceptor molecule, acceptor atom, score
      L1  H     1    23       P1 10957  0.87
      L1  H    12    27       P1 10747  1.00
      L1  H    14    28       P1  7921  0.21
      L1  H    16    29       P1  7921  0.99
      P1  H 10192 10197       L1    16  0.82

> <Gold.Chemscore.Hbond.Weighted>
-14.2358

> <Gold.Chemscore.Metal.Weighted>
-0.0000

> <Gold.Chemscore.Lipo.Weighted>
-4.7500

> <Gold.Chemscore.Internal_Hbond.Weighted>
0.0000

> <Gold.Chemscore.DEClash.Weighted>
1.8037

> <Gold.Chemscore.DEInternal.Weighted>
1.1387

> <Gold.Chemscore.Rot.Weighted>
10.3936

> <Gold.Chemscore.Internal.Correction.Weighted>
   9.000000E+99

> <Gold.Protein.RotatedTorsions>
[ 6907 6896 6895 6894 ] final -174.56 input  -60.11 | X-H torsion
[ 7974 7965 7964 7962 ] final  -74.76 input  175.53 | X-H torsion
[ 8008 7997 7996 7995 ] final -112.56 input   59.86 | X-H torsion
[ 10167 10162 10161 10158 ] final  137.96 input  -65.29 | X-H torsion
[ 10718 10713 10712 10709 ] final   49.06 input   66.30 | X-H torsion
[ 10763 10752 10751 10750 ] final  136.16 input  -60.55 | X-H torsion
[ 11005 11000 10999 10996 ] final -136.05 input  -57.11 | X-H torsion

> <Gold.Protein.ActiveResidues>
 VAL166  LYS551  ARG553  GLY616  TRP617  ASP618  TYR619  PRO620  LYS621  CYS622 
 ASP623  PHE694  ASN695  SER759  ASP760  ASP761  ALA762  ILE779  LEU786  VAL792 
 PHE793  MET794  SER795  GLU796  ALA797  LYS798  CYS799  TRP800  GLU811  SER814 

> <Gold.Protein.RotatedAtoms>
  151.5743  133.3386  159.2995 H   0  0  0  0  0  0  0  0  0  0  0  0  # atno 6907 bound_to 6896
  150.8349  134.7622  159.6896 H   0  0  0  0  0  0  0  0  0  0  0  0  # atno 6908 bound_to 6896
  152.4427  134.5564  159.9933 H   0  0  0  0  0  0  0  0  0  0  0  0  # atno 6909 bound_to 6896
  145.6349  140.9327  143.1067 H   0  0  0  0  0  0  0  0  0  0  0  0  # atno 7974 bound_to 7965
  155.0071  140.0394  157.2384 H   0  0  0  0  0  0  0  0  0  0  0  0  # atno 8008 bound_to 7997
  154.7493  140.2764  155.6283 H   0  0  0  0  0  0  0  0  0  0  0  0  # atno 8009 bound_to 7997
  156.2881  140.2650  156.2242 H   0  0  0  0  0  0  0  0  0  0  0  0  # atno 8010 bound_to 7997
  139.5127  144.6381  151.5643 H   0  0  0  0  0  0  0  0  0  0  0  0  # atno 10167 bound_to 10162
  157.4749  130.8279  149.8029 H   0  0  0  0  0  0  0  0  0  0  0  0  # atno 10718 bound_to 10713
  153.8519  135.3078  155.3433 H   0  0  0  0  0  0  0  0  0  0  0  0  # atno 10763 bound_to 10752
  154.7887  135.4795  154.0007 H   0  0  0  0  0  0  0  0  0  0  0  0  # atno 10764 bound_to 10752
  153.1513  135.6843  153.8971 H   0  0  0  0  0  0  0  0  0  0  0  0  # atno 10765 bound_to 10752
  140.8841  134.1894  157.4571 H   0  0  0  0  0  0  0  0  0  0  0  0  # atno 11005 bound_to 11000
  144.7179  139.8131  143.7392 LP  0  0  0  0  0  0  0  0  0  0  0  0  # atno 17320 bound_to 7965
  146.1327  139.4365  143.0159 LP  0  0  0  0  0  0  0  0  0  0  0  0  # atno 17321 bound_to 7965
  140.6137  143.9389  150.6472 LP  0  0  0  0  0  0  0  0  0  0  0  0  # atno 17342 bound_to 10162
  140.2639  143.3504  152.1298 LP  0  0  0  0  0  0  0  0  0  0  0  0  # atno 17343 bound_to 10162
  156.0092  130.3841  150.2324 LP  0  0  0  0  0  0  0  0  0  0  0  0  # atno 17370 bound_to 10713
  157.0508  131.0062  151.3254 LP  0  0  0  0  0  0  0  0  0  0  0  0  # atno 17371 bound_to 10713
  139.8722  134.9830  156.5180 LP  0  0  0  0  0  0  0  0  0  0  0  0  # atno 17394 bound_to 11000
  140.8426  133.8194  155.9089 LP  0  0  0  0  0  0  0  0  0  0  0  0  # atno 17395 bound_to 11000

$$$$
