AV-unprocessed.smi:1971|AV-procd|sdf|7965|dock9
  -GOLD-   2272010133D 1   1.00000     0.00000
 Structure written by MMmdl.
 44 45  0  0  0  0  0  0  0  0  2 V2000
  152.5974  138.8802  156.9576 C   0  0  0  0  0  0  0  0  0  0  0  0
  151.5554  137.7526  156.9365 C   0  0  0  0  0  0  0  0  0  0  0  0
  150.6439  137.8697  155.7956 N   0  0  0  0  0  0  0  0  0  0  0  0
  151.2896  137.8164  154.4788 C   0  0  0  0  0  0  0  0  0  0  0  0
  151.8331  136.4100  154.1501 C   0  0  0  0  0  0  0  0  0  0  0  0
  150.7410  135.4087  154.2206 N   0  3  0  0  0  0  0  0  0  0  0  0
  151.1286  134.0506  153.7387 C   0  0  1  0  0  0  0  0  0  0  0  0
  152.2929  133.4245  154.5311 C   0  0  0  0  0  0  0  0  0  0  0  0
  149.9161  133.0916  153.6649 C   0  0  0  0  0  0  0  0  0  0  0  0
  148.9072  133.4987  152.6889 N   0  0  0  0  0  0  0  0  0  0  0  0
  147.7535  132.8558  152.4572 C   0  0  0  0  0  0  0  0  0  0  0  0
  147.4311  131.8171  153.0338 O   0  0  0  0  0  0  0  0  0  0  0  0
  147.0206  133.4886  151.5247 N   0  0  0  0  0  0  0  0  0  0  0  0
  145.7530  133.1165  151.0046 C   0  0  0  0  0  0  0  0  0  0  0  0
  144.8028  133.9850  150.6391 N   0  0  0  0  0  0  0  0  0  0  0  0
  143.6587  133.3399  150.1624 C   0  0  0  0  0  0  0  0  0  0  0  0
  143.7554  131.9707  150.1745 C   0  0  0  0  0  0  0  0  0  0  0  0
  145.2959  131.4333  150.7888 S   0  0  0  0  0  0  0  0  0  0  0  0
  150.0782  135.4524  155.5483 C   0  0  0  0  0  0  0  0  0  0  0  0
  149.5652  136.8784  155.8381 C   0  0  0  0  0  0  0  0  0  0  0  0
  153.1788  138.8433  157.8789 H   0  0  0  0  0  0  0  0  0  0  0  0
  152.1212  139.8600  156.9091 H   0  0  0  0  0  0  0  0  0  0  0  0
  153.3026  138.8035  156.1303 H   0  0  0  0  0  0  0  0  0  0  0  0
  152.0502  136.7824  156.9609 H   0  0  0  0  0  0  0  0  0  0  0  0
  150.9692  137.8219  157.8539 H   0  0  0  0  0  0  0  0  0  0  0  0
  150.5541  138.1021  153.7255 H   0  0  0  0  0  0  0  0  0  0  0  0
  152.0860  138.5564  154.4111 H   0  0  0  0  0  0  0  0  0  0  0  0
  152.2505  136.4205  153.1426 H   0  0  0  0  0  0  0  0  0  0  0  0
  152.6483  136.1400  154.8209 H   0  0  0  0  0  0  0  0  0  0  0  0
  151.4815  134.1776  152.7146 H   0  0  0  0  0  0  0  0  0  0  0  0
  152.6105  132.4894  154.0688 H   0  0  0  0  0  0  0  0  0  0  0  0
  152.0099  133.1940  155.5581 H   0  0  0  0  0  0  0  0  0  0  0  0
  153.1639  134.0789  154.5607 H   0  0  0  0  0  0  0  0  0  0  0  0
  150.2520  132.0784  153.4379 H   0  0  0  0  0  0  0  0  0  0  0  0
  149.4247  133.0326  154.6362 H   0  0  0  0  0  0  0  0  0  0  0  0
  149.0867  134.3504  152.1769 H   0  0  0  0  0  0  0  0  0  0  0  0
  147.4103  134.3383  151.1439 H   0  0  0  0  0  0  0  0  0  0  0  0
  142.8192  133.9346  149.8335 H   0  0  0  0  0  0  0  0  0  0  0  0
  143.0165  131.2487  149.8598 H   0  0  0  0  0  0  0  0  0  0  0  0
  149.2335  134.7641  155.5622 H   0  0  0  0  0  0  0  0  0  0  0  0
  150.7612  135.1260  156.3326 H   0  0  0  0  0  0  0  0  0  0  0  0
  149.0696  136.9142  156.8091 H   0  0  0  0  0  0  0  0  0  0  0  0
  148.8101  137.1521  155.0999 H   0  0  0  0  0  0  0  0  0  0  0  0
  150.0500  135.7317  153.5587 H   0  0  0  0  0  0  0  0  0  0  0  0
  1  2  1  0  0  0  0
  1 21  1  0  0  0  0
  1 22  1  0  0  0  0
  1 23  1  0  0  0  0
  2  3  1  0  0  0  0
  2 24  1  0  0  0  0
  2 25  1  0  0  0  0
  3 20  1  0  0  0  0
  3  4  1  0  0  0  0
  4  5  1  0  0  0  0
  4 26  1  0  0  0  0
  4 27  1  0  0  0  0
  5  6  1  0  0  0  0
  5 28  1  0  0  0  0
  5 29  1  0  0  0  0
  6  7  1  0  0  0  0
  6 19  1  0  0  0  0
  6 44  1  0  0  0  0
  7  8  1  0  0  0  0
  7  9  1  0  0  0  0
  7 30  1  0  0  0  0
  8 31  1  0  0  0  0
  8 32  1  0  0  0  0
  8 33  1  0  0  0  0
  9 10  1  0  0  0  0
  9 34  1  0  0  0  0
  9 35  1  0  0  0  0
 10 11  1  0  0  0  0
 10 36  1  0  0  0  0
 11 12  2  0  0  0  0
 11 13  1  0  0  0  0
 13 14  1  0  0  0  0
 13 37  1  0  0  0  0
 14 18  1  0  0  0  0
 14 15  2  0  0  0  0
 15 16  1  0  0  0  0
 16 17  2  0  0  0  0
 16 38  1  0  0  0  0
 17 18  1  0  0  0  0
 17 39  1  0  0  0  0
 19 20  1  0  0  0  0
 19 40  1  0  0  0  0
 19 41  1  0  0  0  0
 20 42  1  0  0  0  0
 20 43  1  0  0  0  0
M  CHG  1   6   1
M  END
> <s_m_source_file>
AV-unprocessed.smi

> <i_m_source_file_index>
1971

> <i_lp_mmshare_version>
43012

> <i_f3d_flags>
0

> <s_epik_input>
W0NIM11bQ0gyXU4xW0NIMl1bQ0gyXU4oW0NIMl1bQ0gyXTEpW0NASF0oW0NIM10pW0NIMl1bTkhdQyg9TylbTkhdYzJuW2NIXVtjSF1zMg==

> <s_epik_cmdline>
J2VwaWtfcHl0aG9uJywgJy1waCcsICc3LjAnLCAnLXRuJywgJzgnLCAnLW1hJywgJzIwMCcsICctbWV0YWxfYmluZGluZycsICctaW1hZScsICc8aW5maWxlLm1hZT4nLCAnLW9tYWUnLCAnPG91dGZpbGUubWFlPic=

> <r_epik_Ionization_Penalty>
0.150098

> <r_epik_Ionization_Penalty_Charging>
0.148467

> <r_epik_Ionization_Penalty_Neutral>
0.00163072

> <r_epik_State_Penalty>
0.974087

> <r_epik_Charging_Adjusted_Penalty>
1.12255

> <i_epik_Tot_Q>
1

> <i_epik_Tot_abs_Q>
1

> <r_epik_Metal_State_Penalty>
1.00741

> <b_epik_Metal_Only>
0

> <s_lp_Force_Field>
OPLS_2005

> <r_lp_Energy>
24.0056

> <b_lp_Chiralities_Consistent>
1

> <s_lp_Variant>
AV-unprocessed.smi:1971-4

> <Gold.Version>
5.8.1

> <Gold.Id.Protein>
6NUR|6NUR_protein|mol2

> <Gold.PLP.Fitness>
44.3189

> <Gold.PLP.PLP>
-30.2175

> <Gold.PLP.part.hbond>
-2.2802

> <Gold.PLP.part.metal>
0.0000

> <Gold.PLP.part.buried>
-4.6480

> <Gold.PLP.part.nonpolar>
-23.6659

> <Gold.PLP.part.repulsive>
0.3642

> <Gold.PLP.ligand.clash>
0.0000

> <Gold.PLP.ligand.torsion>
0.3374

> <Gold.PLP.Chemscore.Hbond>
2.9250

> <Gold.PLP.Chemscore.CHOScore>
1.9595

> <Gold.PLP.Chemscore.Metal>
0.0000

> <Gold.Chemscore.Hbonds>
donor molecule, donor type, donor heavy atom, donor atom, acceptor molecule, acceptor atom, score
      L1  H     6    44       P1  7948  0.80
      L1  C    16    38       P1 10186  0.66
      L1  C    17    39       P1 10952  1.00

> <Gold.PLP.Chemscore.Internal.Correction>
0.1228

> <Gold.Rescore>
     Score         DG    S(hbond)    S(metal)    S(lipo)     H(rot)  DE(clash)    DE(int)     intcor
     12.48     -13.32       1.05        0.00      76.21       1.79       0.16       0.67       ----

> <Gold.Chemscore.Fitness>
12.4813

> <Gold.Chemscore.DG>
-13.3178

> <Gold.Chemscore.ZeroCoef>
-5.4800

> <Gold.Chemscore.Hbond>
1.0519

> <Gold.Chemscore.Metal>
0.0000

> <Gold.Chemscore.Lipo>
76.2089

> <Gold.Chemscore.Internal_Hbond>
0.0000

> <Gold.Chemscore.DEClash>
0.1640

> <Gold.Chemscore.DEInternal>
0.6725

> <Gold.Chemscore.Rot>
1.7937

> <Gold.Chemscore.Internal.Correction>
   9.000000E+99

> <Gold.Chemscore.Hbonds>
donor molecule, donor type, donor heavy atom, donor atom, acceptor molecule, acceptor atom, score
      L1  H     6    44       P1  7948  0.01

> <Gold.Chemscore.Hbond.Weighted>
-3.5133

> <Gold.Chemscore.Metal.Weighted>
-0.0000

> <Gold.Chemscore.Lipo.Weighted>
-8.9164

> <Gold.Chemscore.Internal_Hbond.Weighted>
0.0000

> <Gold.Chemscore.DEClash.Weighted>
0.1640

> <Gold.Chemscore.DEInternal.Weighted>
0.6725

> <Gold.Chemscore.Rot.Weighted>
4.5919

> <Gold.Chemscore.Internal.Correction.Weighted>
   9.000000E+99

> <Gold.Protein.RotatedTorsions>
[ 6907 6896 6895 6894 ] final -137.52 input  -60.11 | X-H torsion
[ 7974 7965 7964 7962 ] final   59.71 input  175.53 | X-H torsion
[ 8008 7997 7996 7995 ] final   48.33 input   59.86 | X-H torsion
[ 10167 10162 10161 10158 ] final -113.83 input  -65.29 | X-H torsion
[ 10718 10713 10712 10709 ] final   86.17 input   66.30 | X-H torsion
[ 10763 10752 10751 10750 ] final -117.88 input  -60.55 | X-H torsion
[ 11005 11000 10999 10996 ] final  -48.15 input  -57.11 | X-H torsion

> <Gold.Protein.ActiveResidues>
 VAL166  LYS551  ARG553  GLY616  TRP617  ASP618  TYR619  PRO620  LYS621  CYS622 
 ASP623  PHE694  ASN695  SER759  ASP760  ASP761  ALA762  ILE779  LEU786  VAL792 
 PHE793  MET794  SER795  GLU796  ALA797  LYS798  CYS799  TRP800  GLU811  SER814 

> <Gold.Protein.RotatedAtoms>
  151.0235  133.5855  159.2668 H   0  0  0  0  0  0  0  0  0  0  0  0  # atno 6907 bound_to 6896
  151.2963  135.0755  159.9232 H   0  0  0  0  0  0  0  0  0  0  0  0  # atno 6908 bound_to 6896
  152.5328  133.9924  159.7911 H   0  0  0  0  0  0  0  0  0  0  0  0  # atno 6909 bound_to 6896
  145.9041  139.3603  143.0575 H   0  0  0  0  0  0  0  0  0  0  0  0  # atno 7974 bound_to 7965
  155.3838  140.3430  155.4248 H   0  0  0  0  0  0  0  0  0  0  0  0  # atno 8008 bound_to 7997
  156.1595  140.1596  156.8669 H   0  0  0  0  0  0  0  0  0  0  0  0  # atno 8009 bound_to 7997
  154.5126  140.0786  156.8002 H   0  0  0  0  0  0  0  0  0  0  0  0  # atno 8010 bound_to 7997
  140.1076  143.4557  152.1773 H   0  0  0  0  0  0  0  0  0  0  0  0  # atno 10167 bound_to 10162
  157.6925  131.0204  150.2932 H   0  0  0  0  0  0  0  0  0  0  0  0  # atno 10718 bound_to 10713
  154.8569  135.4294  154.2049 H   0  0  0  0  0  0  0  0  0  0  0  0  # atno 10763 bound_to 10752
  153.3088  135.6974  153.7141 H   0  0  0  0  0  0  0  0  0  0  0  0  # atno 10764 bound_to 10752
  153.6242  135.3496  155.2995 H   0  0  0  0  0  0  0  0  0  0  0  0  # atno 10765 bound_to 10752
  141.0684  133.6686  156.3400 H   0  0  0  0  0  0  0  0  0  0  0  0  # atno 11005 bound_to 11000
  145.8754  140.9395  143.0629 LP  0  0  0  0  0  0  0  0  0  0  0  0  # atno 17320 bound_to 7965
  144.6738  140.0710  143.7473 LP  0  0  0  0  0  0  0  0  0  0  0  0  # atno 17321 bound_to 7965
  139.5637  144.7422  151.4083 LP  0  0  0  0  0  0  0  0  0  0  0  0  # atno 17342 bound_to 10162
  140.6944  143.7785  150.7303 LP  0  0  0  0  0  0  0  0  0  0  0  0  # atno 17343 bound_to 10162
  156.3460  130.3823  149.7369 LP  0  0  0  0  0  0  0  0  0  0  0  0  # atno 17370 bound_to 10713
  156.4862  130.8064  151.3076 LP  0  0  0  0  0  0  0  0  0  0  0  0  # atno 17371 bound_to 10713
  140.5725  134.5826  157.5461 LP  0  0  0  0  0  0  0  0  0  0  0  0  # atno 17394 bound_to 11000
  139.9499  134.7636  156.0474 LP  0  0  0  0  0  0  0  0  0  0  0  0  # atno 17395 bound_to 11000

$$$$
