AV-unprocessed.smi:2048|AV-procd|sdf|8321|dock2
  -GOLD-   2272010583D 1   1.00000     0.00000
 Structure written by MMmdl.
 27 28  0  0  0  0  0  0  0  0  1 V2000
  150.8835  140.6719  156.3935 O   0  0  0  0  0  0  0  0  0  0  0  0
  150.4378  141.7978  156.1699 C   0  0  0  0  0  0  0  0  0  0  0  0
  150.9392  142.9135  156.7191 N   0  0  0  0  0  0  0  0  0  0  0  0
  152.0611  142.9572  157.6500 C   0  0  0  0  0  0  0  0  0  0  0  0
  151.6714  143.6391  158.9589 C   0  0  0  0  0  0  0  0  0  0  0  0
  151.4796  145.1630  159.0000 C   0  0  0  0  0  0  0  0  0  0  0  0
  152.0488  145.1486  160.4211 C   0  0  0  0  0  0  0  0  0  0  0  0
  152.7212  143.8198  160.0650 C   0  0  0  0  0  0  0  0  0  0  0  0
  149.4004  142.0766  155.3610 N   0  0  0  0  0  0  0  0  0  0  0  0
  148.6206  141.1746  154.5901 C   0  0  0  0  0  0  0  0  0  0  0  0
  148.9547  139.9009  154.3514 N   0  0  0  0  0  0  0  0  0  0  0  0
  148.0039  139.2483  153.5624 C   0  0  0  0  0  0  0  0  0  0  0  0
  146.9449  140.0461  153.2063 C   0  0  0  0  0  0  0  0  0  0  0  0
  147.1008  141.6584  153.8514 S   0  0  0  0  0  0  0  0  0  0  0  0
  150.5117  143.7967  156.4820 H   0  0  0  0  0  0  0  0  0  0  0  0
  152.4335  141.9487  157.8370 H   0  0  0  0  0  0  0  0  0  0  0  0
  152.8763  143.4973  157.1679 H   0  0  0  0  0  0  0  0  0  0  0  0
  150.7912  143.1633  159.3974 H   0  0  0  0  0  0  0  0  0  0  0  0
  152.1238  145.6907  158.2945 H   0  0  0  0  0  0  0  0  0  0  0  0
  150.4435  145.4939  158.9238 H   0  0  0  0  0  0  0  0  0  0  0  0
  152.7361  145.9641  160.6481 H   0  0  0  0  0  0  0  0  0  0  0  0
  151.2767  145.0419  161.1850 H   0  0  0  0  0  0  0  0  0  0  0  0
  152.6886  143.0658  160.8522 H   0  0  0  0  0  0  0  0  0  0  0  0
  153.7323  143.9512  159.6756 H   0  0  0  0  0  0  0  0  0  0  0  0
  149.1416  143.0490  155.2827 H   0  0  0  0  0  0  0  0  0  0  0  0
  148.1608  138.2121  153.3011 H   0  0  0  0  0  0  0  0  0  0  0  0
  146.0859  139.7839  152.6065 H   0  0  0  0  0  0  0  0  0  0  0  0
  1  2  2  0  0  0  0
  2  3  1  0  0  0  0
  2  9  1  0  0  0  0
  3  4  1  0  0  0  0
  3 15  1  0  0  0  0
  4  5  1  0  0  0  0
  4 16  1  0  0  0  0
  4 17  1  0  0  0  0
  5  8  1  0  0  0  0
  5  6  1  0  0  0  0
  5 18  1  0  0  0  0
  6  7  1  0  0  0  0
  6 19  1  0  0  0  0
  6 20  1  0  0  0  0
  7  8  1  0  0  0  0
  7 21  1  0  0  0  0
  7 22  1  0  0  0  0
  8 23  1  0  0  0  0
  8 24  1  0  0  0  0
  9 10  1  0  0  0  0
  9 25  1  0  0  0  0
 10 14  1  0  0  0  0
 10 11  2  0  0  0  0
 11 12  1  0  0  0  0
 12 13  2  0  0  0  0
 12 26  1  0  0  0  0
 13 14  1  0  0  0  0
 13 27  1  0  0  0  0
M  END
> <s_m_source_file>
AV-unprocessed.smi

> <i_m_source_file_index>
2048

> <i_lp_mmshare_version>
43012

> <i_f3d_flags>
0

> <s_epik_input>
czFbY0hdW2NIXW5jMVtOSF1DKD1PKVtOSF1bQ0gyXVtDSF0yW0NIMl1bQ0gyXVtDSDJdMg==

> <s_epik_cmdline>
J2VwaWtfcHl0aG9uJywgJy1waCcsICc3LjAnLCAnLXRuJywgJzgnLCAnLW1hJywgJzIwMCcsICctbWV0YWxfYmluZGluZycsICctaW1hZScsICc8aW5maWxlLm1hZT4nLCAnLW9tYWUnLCAnPG91dGZpbGUubWFlPic=

> <r_lp_tautomer_probability>
0.999

> <r_epik_Ionization_Penalty>
0.000426276

> <r_epik_Ionization_Penalty_Charging>
0

> <r_epik_Ionization_Penalty_Neutral>
0.000426276

> <r_epik_State_Penalty>
0.000177984

> <r_epik_Charging_Adjusted_Penalty>
0.000177984

> <i_epik_Tot_Q>
0

> <i_epik_Tot_abs_Q>
0

> <r_epik_Metal_State_Penalty>
-0

> <b_epik_Metal_Only>
0

> <s_lp_Force_Field>
OPLS_2005

> <r_lp_Energy>
10.8025

> <b_lp_Chiralities_Consistent>
1

> <s_lp_Variant>
AV-unprocessed.smi:2048-1

> <Gold.Version>
5.8.1

> <Gold.Id.Protein>
6NUR|6NUR_protein|mol2

> <Gold.PLP.Fitness>
42.9690

> <Gold.PLP.PLP>
-31.1656

> <Gold.PLP.part.hbond>
-2.0000

> <Gold.PLP.part.metal>
0.0000

> <Gold.PLP.part.buried>
-4.6187

> <Gold.PLP.part.nonpolar>
-25.3289

> <Gold.PLP.part.repulsive>
0.3849

> <Gold.PLP.ligand.clash>
0.0000

> <Gold.PLP.ligand.torsion>
0.0889

> <Gold.PLP.Chemscore.Hbond>
1.9760

> <Gold.PLP.Chemscore.CHOScore>
1.9985

> <Gold.PLP.Chemscore.Metal>
0.0000

> <Gold.Chemscore.Hbonds>
donor molecule, donor type, donor heavy atom, donor atom, acceptor molecule, acceptor atom, score
      L1  H     3    15       P1  8028  0.94
      L1  H     9    25       P1  8028  1.00
      L1  C    12    26       P1  7948  0.93
      L1  C    13    27       P1 10175  1.00

> <Gold.PLP.Chemscore.Internal.Correction>
0.0578

> <Gold.Rescore>
     Score         DG    S(hbond)    S(metal)    S(lipo)     H(rot)  DE(clash)    DE(int)     intcor
     16.20     -18.04       1.96        0.00      79.34       1.28       0.47       1.37       ----

> <Gold.Chemscore.Fitness>
16.1983

> <Gold.Chemscore.DG>
-18.0351

> <Gold.Chemscore.ZeroCoef>
-5.4800

> <Gold.Chemscore.Hbond>
1.9600

> <Gold.Chemscore.Metal>
0.0000

> <Gold.Chemscore.Lipo>
79.3387

> <Gold.Chemscore.Internal_Hbond>
0.0000

> <Gold.Chemscore.DEClash>
0.4688

> <Gold.Chemscore.DEInternal>
1.3680

> <Gold.Chemscore.Rot>
1.2788

> <Gold.Chemscore.Internal.Correction>
   9.000000E+99

> <Gold.Chemscore.Hbonds>
donor molecule, donor type, donor heavy atom, donor atom, acceptor molecule, acceptor atom, score
      L1  H     3    15       P1  8028  0.85
      L1  H     9    25       P1  8028  1.00

> <Gold.Chemscore.Hbond.Weighted>
-6.5464

> <Gold.Chemscore.Metal.Weighted>
-0.0000

> <Gold.Chemscore.Lipo.Weighted>
-9.2826

> <Gold.Chemscore.Internal_Hbond.Weighted>
0.0000

> <Gold.Chemscore.DEClash.Weighted>
0.4688

> <Gold.Chemscore.DEInternal.Weighted>
1.3680

> <Gold.Chemscore.Rot.Weighted>
3.2738

> <Gold.Chemscore.Internal.Correction.Weighted>
   9.000000E+99

> <Gold.Protein.RotatedTorsions>
[ 6907 6896 6895 6894 ] final  110.19 input  -60.11 | X-H torsion
[ 7974 7965 7964 7962 ] final  -46.88 input  175.53 | X-H torsion
[ 8008 7997 7996 7995 ] final  -36.18 input   59.86 | X-H torsion
[ 10167 10162 10161 10158 ] final  178.88 input  -65.29 | X-H torsion
[ 10718 10713 10712 10709 ] final  170.89 input   66.30 | X-H torsion
[ 10763 10752 10751 10750 ] final -143.32 input  -60.55 | X-H torsion
[ 11005 11000 10999 10996 ] final   50.03 input  -57.11 | X-H torsion

> <Gold.Protein.ActiveResidues>
 VAL166  LYS551  ARG553  GLY616  TRP617  ASP618  TYR619  PRO620  LYS621  CYS622 
 ASP623  PHE694  ASN695  SER759  ASP760  ASP761  ALA762  ILE779  LEU786  VAL792 
 PHE793  MET794  SER795  GLU796  ALA797  LYS798  CYS799  TRP800  GLU811  SER814 

> <Gold.Protein.RotatedAtoms>
  152.5032  133.8836  159.7358 H   0  0  0  0  0  0  0  0  0  0  0  0  # atno 6907 bound_to 6896
  150.9293  133.6778  159.2821 H   0  0  0  0  0  0  0  0  0  0  0  0  # atno 6908 bound_to 6896
  151.4128  135.0992  159.9643 H   0  0  0  0  0  0  0  0  0  0  0  0  # atno 6909 bound_to 6896
  145.9673  140.7419  142.9428 H   0  0  0  0  0  0  0  0  0  0  0  0  # atno 7974 bound_to 7965
  154.4078  140.1637  156.2332 H   0  0  0  0  0  0  0  0  0  0  0  0  # atno 8008 bound_to 7997
  155.9264  140.3418  155.6191 H   0  0  0  0  0  0  0  0  0  0  0  0  # atno 8009 bound_to 7997
  155.7159  140.0762  157.2342 H   0  0  0  0  0  0  0  0  0  0  0  0  # atno 8010 bound_to 7997
  139.5312  144.2627  152.0693 H   0  0  0  0  0  0  0  0  0  0  0  0  # atno 10167 bound_to 10162
  157.0016  131.0178  151.2829 H   0  0  0  0  0  0  0  0  0  0  0  0  # atno 10718 bound_to 10713
  154.8475  135.3471  154.6168 H   0  0  0  0  0  0  0  0  0  0  0  0  # atno 10763 bound_to 10752
  153.6777  135.6982  153.5132 H   0  0  0  0  0  0  0  0  0  0  0  0  # atno 10764 bound_to 10752
  153.2693  135.4298  155.0928 H   0  0  0  0  0  0  0  0  0  0  0  0  # atno 10765 bound_to 10752
  140.1052  134.5028  155.8726 H   0  0  0  0  0  0  0  0  0  0  0  0  # atno 11005 bound_to 11000
  144.6828  140.2690  143.7308 LP  0  0  0  0  0  0  0  0  0  0  0  0  # atno 17320 bound_to 7965
  145.7956  139.1944  143.2078 LP  0  0  0  0  0  0  0  0  0  0  0  0  # atno 17321 bound_to 7965
  140.2091  144.4581  150.6394 LP  0  0  0  0  0  0  0  0  0  0  0  0  # atno 17342 bound_to 10162
  140.6492  143.2220  151.6116 LP  0  0  0  0  0  0  0  0  0  0  0  0  # atno 17343 bound_to 10162
  157.5386  130.8105  149.8001 LP  0  0  0  0  0  0  0  0  0  0  0  0  # atno 17370 bound_to 10713
  156.0169  130.3810  150.2083 LP  0  0  0  0  0  0  0  0  0  0  0  0  # atno 17371 bound_to 10713
  141.2116  133.6709  156.6596 LP  0  0  0  0  0  0  0  0  0  0  0  0  # atno 17394 bound_to 11000
  140.3166  134.8042  157.4219 LP  0  0  0  0  0  0  0  0  0  0  0  0  # atno 17395 bound_to 11000

$$$$
