AV-unprocessed.smi:1115|AV-procd|sdf|4803|dock2
  -GOLD-   22720 3353D 1   1.00000     0.00000
 Structure written by MMmdl.
 50 51  0  0  0  0  0  0  0  0  1 V2000
  145.9093  133.3044  150.4957 C   0  0  0  0  0  0  0  0  0  0  0  0
  144.5346  133.3236  150.9851 N   0  0  0  0  0  0  0  0  0  0  0  0
  143.7415  132.1008  150.9634 C   0  0  0  0  0  0  0  0  0  0  0  0
  144.0246  134.4888  151.6027 C   0  0  0  0  0  0  0  0  0  0  0  0
  142.8982  134.4383  152.4615 C   0  0  0  0  0  0  0  0  0  0  0  0
  142.4271  135.6256  153.0541 C   0  0  0  0  0  0  0  0  0  0  0  0
  143.0874  136.8430  152.7704 C   0  0  0  0  0  0  0  0  0  0  0  0
  142.7236  138.1008  153.3224 N   0  0  0  0  0  0  0  0  0  0  0  0
  141.7668  138.3734  154.2258 C   0  0  0  0  0  0  0  0  0  0  0  0
  140.9941  137.5494  154.7148 O   0  0  0  0  0  0  0  0  0  0  0  0
  141.7367  139.6820  154.5139 N   0  0  0  0  0  0  0  0  0  0  0  0
  140.7927  140.3396  155.4176 C   0  0  0  0  0  0  0  0  0  0  0  0
  139.3092  140.1500  154.9822 C   0  0  0  0  0  0  0  0  0  0  0  0
  138.5001  141.2823  155.6647 C   0  0  0  0  0  0  0  0  0  0  0  0
  139.2452  140.4033  153.4564 C   0  0  0  0  0  0  0  0  0  0  0  0
  138.7892  138.8089  155.3729 N   0  0  0  0  0  0  0  0  0  0  0  0
  137.4072  138.5386  154.9590 C   0  0  0  0  0  0  0  0  0  0  0  0
  136.9777  137.0974  155.2817 C   0  0  0  0  0  0  0  0  0  0  0  0
  137.1386  136.8498  156.6728 O   0  0  0  0  0  0  0  0  0  0  0  0
  138.4792  137.0435  157.1064 C   0  0  0  0  0  0  0  0  0  0  0  0
  138.9229  138.4838  156.7976 C   0  0  0  0  0  0  0  0  0  0  0  0
  144.2051  136.7936  151.9152 C   0  0  0  0  0  0  0  0  0  0  0  0
  144.6590  135.6588  151.3443 N   0  0  0  0  0  0  0  0  0  0  0  0
  146.6098  133.4381  151.3206 H   0  0  0  0  0  0  0  0  0  0  0  0
  146.0709  134.1020  149.7698 H   0  0  0  0  0  0  0  0  0  0  0  0
  146.1443  132.3593  150.0061 H   0  0  0  0  0  0  0  0  0  0  0  0
  143.4723  131.8002  151.9765 H   0  0  0  0  0  0  0  0  0  0  0  0
  144.2933  131.2778  150.5091 H   0  0  0  0  0  0  0  0  0  0  0  0
  142.8274  132.2466  150.3868 H   0  0  0  0  0  0  0  0  0  0  0  0
  142.3870  133.5133  152.6809 H   0  0  0  0  0  0  0  0  0  0  0  0
  141.5819  135.5737  153.7224 H   0  0  0  0  0  0  0  0  0  0  0  0
  143.2168  138.8969  152.9451 H   0  0  0  0  0  0  0  0  0  0  0  0
  142.4032  140.2819  154.0503 H   0  0  0  0  0  0  0  0  0  0  0  0
  140.9343  139.9881  156.4413 H   0  0  0  0  0  0  0  0  0  0  0  0
  141.0554  141.3964  155.4586 H   0  0  0  0  0  0  0  0  0  0  0  0
  138.9825  142.2520  155.5365 H   0  0  0  0  0  0  0  0  0  0  0  0
  138.3929  141.1122  156.7365 H   0  0  0  0  0  0  0  0  0  0  0  0
  137.4986  141.3841  155.2465 H   0  0  0  0  0  0  0  0  0  0  0  0
  139.6190  141.3979  153.2097 H   0  0  0  0  0  0  0  0  0  0  0  0
  138.2272  140.3474  153.0715 H   0  0  0  0  0  0  0  0  0  0  0  0
  139.8513  139.6930  152.8948 H   0  0  0  0  0  0  0  0  0  0  0  0
  136.7235  139.2268  155.4561 H   0  0  0  0  0  0  0  0  0  0  0  0
  137.2840  138.6883  153.8880 H   0  0  0  0  0  0  0  0  0  0  0  0
  135.9328  136.9444  155.0116 H   0  0  0  0  0  0  0  0  0  0  0  0
  137.5658  136.3810  154.7060 H   0  0  0  0  0  0  0  0  0  0  0  0
  138.5380  136.8506  158.1777 H   0  0  0  0  0  0  0  0  0  0  0  0
  139.1360  136.3238  156.6150 H   0  0  0  0  0  0  0  0  0  0  0  0
  139.9557  138.5877  157.1248 H   0  0  0  0  0  0  0  0  0  0  0  0
  138.3283  139.1714  157.3993 H   0  0  0  0  0  0  0  0  0  0  0  0
  144.7534  137.6936  151.6761 H   0  0  0  0  0  0  0  0  0  0  0  0
  1  2  1  0  0  0  0
  1 24  1  0  0  0  0
  1 25  1  0  0  0  0
  1 26  1  0  0  0  0
  2  3  1  0  0  0  0
  2  4  1  0  0  0  0
  3 27  1  0  0  0  0
  3 28  1  0  0  0  0
  3 29  1  0  0  0  0
  4 23  1  0  0  0  0
  4  5  2  0  0  0  0
  5  6  1  0  0  0  0
  5 30  1  0  0  0  0
  6  7  2  0  0  0  0
  6 31  1  0  0  0  0
  7  8  1  0  0  0  0
  7 22  1  0  0  0  0
  8  9  1  0  0  0  0
  8 32  1  0  0  0  0
  9 10  2  0  0  0  0
  9 11  1  0  0  0  0
 11 12  1  0  0  0  0
 11 33  1  0  0  0  0
 12 13  1  0  0  0  0
 12 34  1  0  0  0  0
 12 35  1  0  0  0  0
 13 14  1  0  0  0  0
 13 15  1  0  0  0  0
 13 16  1  0  0  0  0
 14 36  1  0  0  0  0
 14 37  1  0  0  0  0
 14 38  1  0  0  0  0
 15 39  1  0  0  0  0
 15 40  1  0  0  0  0
 15 41  1  0  0  0  0
 16 21  1  0  0  0  0
 16 17  1  0  0  0  0
 17 18  1  0  0  0  0
 17 42  1  0  0  0  0
 17 43  1  0  0  0  0
 18 19  1  0  0  0  0
 18 44  1  0  0  0  0
 18 45  1  0  0  0  0
 19 20  1  0  0  0  0
 20 21  1  0  0  0  0
 20 46  1  0  0  0  0
 20 47  1  0  0  0  0
 21 48  1  0  0  0  0
 21 49  1  0  0  0  0
 22 23  2  0  0  0  0
 22 50  1  0  0  0  0
M  END
> <s_m_source_file>
AV-unprocessed.smi

> <i_m_source_file_index>
1115

> <i_lp_mmshare_version>
43012

> <i_f3d_flags>
0

> <s_epik_input>
W0NIM11OKFtDSDNdKWMxW2NIXVtjSF1jKFtjSF1uMSlbTkhdQyg9TylbTkhdW0NIMl1DKFtDSDNdKShbQ0gzXSlOMltDSDJdW0NIMl1PW0NIMl1bQ0gyXTI=

> <s_epik_cmdline>
J2VwaWtfcHl0aG9uJywgJy1waCcsICc3LjAnLCAnLXRuJywgJzgnLCAnLW1hJywgJzIwMCcsICctbWV0YWxfYmluZGluZycsICctaW1hZScsICc8aW5maWxlLm1hZT4nLCAnLW9tYWUnLCAnPG91dGZpbGUubWFlPic=

> <r_lp_tautomer_probability>
1

> <r_epik_Ionization_Penalty>
0.880664

> <r_epik_Ionization_Penalty_Charging>
0

> <r_epik_Ionization_Penalty_Neutral>
0.880664

> <r_epik_State_Penalty>
0.865003

> <r_epik_Charging_Adjusted_Penalty>
0.865003

> <i_epik_Tot_Q>
0

> <i_epik_Tot_abs_Q>
0

> <r_epik_Metal_State_Penalty>
0.539426

> <b_epik_Metal_Only>
0

> <s_lp_Force_Field>
OPLS_2005

> <r_lp_Energy>
45.7519

> <b_lp_Chiralities_Consistent>
1

> <s_lp_Variant>
AV-unprocessed.smi:1115-2

> <Gold.Version>
5.8.1

> <Gold.Id.Protein>
6NUR|6NUR_protein|mol2

> <Gold.PLP.Fitness>
34.4399

> <Gold.PLP.PLP>
-27.7877

> <Gold.PLP.part.hbond>
-2.0000

> <Gold.PLP.part.metal>
0.0000

> <Gold.PLP.part.buried>
-0.6028

> <Gold.PLP.part.nonpolar>
-25.4457

> <Gold.PLP.part.repulsive>
0.3543

> <Gold.PLP.ligand.clash>
0.0000

> <Gold.PLP.ligand.torsion>
0.4055

> <Gold.PLP.Chemscore.Hbond>
1.9280

> <Gold.PLP.Chemscore.CHOScore>
0.5372

> <Gold.PLP.Chemscore.Metal>
0.0000

> <Gold.Chemscore.Hbonds>
donor molecule, donor type, donor heavy atom, donor atom, acceptor molecule, acceptor atom, score
      L1  H     8    32       P1 10175  1.00
      L1  H    11    33       P1 10175  0.91
      L1  C    22    50       P1 10171  0.57

> <Gold.PLP.Chemscore.Internal.Correction>
0.0675

> <Gold.Rescore>
     Score         DG    S(hbond)    S(metal)    S(lipo)     H(rot)  DE(clash)    DE(int)     intcor
     11.92     -16.87       1.92        0.00      73.71       1.42       1.83       3.12       ----

> <Gold.Chemscore.Fitness>
11.9218

> <Gold.Chemscore.DG>
-16.8731

> <Gold.Chemscore.ZeroCoef>
-5.4800

> <Gold.Chemscore.Hbond>
1.9188

> <Gold.Chemscore.Metal>
0.0000

> <Gold.Chemscore.Lipo>
73.7083

> <Gold.Chemscore.Internal_Hbond>
0.0000

> <Gold.Chemscore.DEClash>
1.8319

> <Gold.Chemscore.DEInternal>
3.1195

> <Gold.Chemscore.Rot>
1.4217

> <Gold.Chemscore.Internal.Correction>
   9.000000E+99

> <Gold.Chemscore.Hbonds>
donor molecule, donor type, donor heavy atom, donor atom, acceptor molecule, acceptor atom, score
      L1  H     8    32       P1 10175  1.00
      L1  H    11    33       P1 10175  0.75

> <Gold.Chemscore.Hbond.Weighted>
-6.4088

> <Gold.Chemscore.Metal.Weighted>
-0.0000

> <Gold.Chemscore.Lipo.Weighted>
-8.6239

> <Gold.Chemscore.Internal_Hbond.Weighted>
0.0000

> <Gold.Chemscore.DEClash.Weighted>
1.8319

> <Gold.Chemscore.DEInternal.Weighted>
3.1195

> <Gold.Chemscore.Rot.Weighted>
3.6395

> <Gold.Chemscore.Internal.Correction.Weighted>
   9.000000E+99

> <Gold.Protein.RotatedTorsions>
[ 6907 6896 6895 6894 ] final  -35.27 input  -60.11 | X-H torsion
[ 7974 7965 7964 7962 ] final  -58.99 input  175.53 | X-H torsion
[ 8008 7997 7996 7995 ] final  155.67 input   59.86 | X-H torsion
[ 10167 10162 10161 10158 ] final   59.61 input  -65.29 | X-H torsion
[ 10718 10713 10712 10709 ] final -119.57 input   66.30 | X-H torsion
[ 10763 10752 10751 10750 ] final -176.69 input  -60.55 | X-H torsion
[ 11005 11000 10999 10996 ] final  -12.38 input  -57.11 | X-H torsion

> <Gold.Protein.ActiveResidues>
 VAL166  LYS551  ARG553  GLY616  TRP617  ASP618  TYR619  PRO620  LYS621  CYS622 
 ASP623  PHE694  ASN695  SER759  ASP760  ASP761  ALA762  ILE779  LEU786  VAL792 
 PHE793  MET794  SER795  GLU796  ALA797  LYS798  CYS799  TRP800  GLU811  SER814 

> <Gold.Protein.RotatedAtoms>
  151.0419  134.9613  159.8166 H   0  0  0  0  0  0  0  0  0  0  0  0  # atno 6907 bound_to 6896
  152.5365  134.2647  159.8958 H   0  0  0  0  0  0  0  0  0  0  0  0  # atno 6908 bound_to 6896
  151.2659  133.4236  159.2652 H   0  0  0  0  0  0  0  0  0  0  0  0  # atno 6909 bound_to 6896
  145.8328  140.8469  143.0075 H   0  0  0  0  0  0  0  0  0  0  0  0  # atno 7974 bound_to 7965
  156.2465  140.1933  156.6837 H   0  0  0  0  0  0  0  0  0  0  0  0  # atno 8008 bound_to 7997
  154.6303  140.0596  156.9750 H   0  0  0  0  0  0  0  0  0  0  0  0  # atno 8009 bound_to 7997
  155.1721  140.3269  155.4393 H   0  0  0  0  0  0  0  0  0  0  0  0  # atno 8010 bound_to 7997
  140.1745  144.4243  150.6645 H   0  0  0  0  0  0  0  0  0  0  0  0  # atno 10167 bound_to 10162
  156.1191  130.6309  150.9432 H   0  0  0  0  0  0  0  0  0  0  0  0  # atno 10718 bound_to 10713
  154.5693  135.2826  155.0843 H   0  0  0  0  0  0  0  0  0  0  0  0  # atno 10763 bound_to 10752
  154.2221  135.6389  153.5152 H   0  0  0  0  0  0  0  0  0  0  0  0  # atno 10764 bound_to 10752
  153.0052  135.5517  154.6312 H   0  0  0  0  0  0  0  0  0  0  0  0  # atno 10765 bound_to 10752
  140.7651  133.8483  155.9158 H   0  0  0  0  0  0  0  0  0  0  0  0  # atno 11005 bound_to 11000
  144.6738  140.0697  143.7473 LP  0  0  0  0  0  0  0  0  0  0  0  0  # atno 17320 bound_to 7965
  145.9552  139.2761  143.1188 LP  0  0  0  0  0  0  0  0  0  0  0  0  # atno 17321 bound_to 7965
  140.6560  143.2238  151.5967 LP  0  0  0  0  0  0  0  0  0  0  0  0  # atno 17342 bound_to 10162
  139.5323  144.2880  152.1175 LP  0  0  0  0  0  0  0  0  0  0  0  0  # atno 17343 bound_to 10162
  157.6374  131.0914  150.8320 LP  0  0  0  0  0  0  0  0  0  0  0  0  # atno 17370 bound_to 10713
  156.8419  130.5051  149.5320 LP  0  0  0  0  0  0  0  0  0  0  0  0  # atno 17371 bound_to 10713
  140.9627  134.1635  157.4641 LP  0  0  0  0  0  0  0  0  0  0  0  0  # atno 17394 bound_to 11000
  139.8764  134.9950  156.5723 LP  0  0  0  0  0  0  0  0  0  0  0  0  # atno 17395 bound_to 11000

$$$$
