AV-unprocessed.smi:463|AV-procd|sdf|2635|dock1
  -GOLD-   2262023 43D 1   1.00000     0.00000
 Structure written by MMmdl.
 43 45  0  0  0  0  0  0  0  0  2 V2000
  152.7618  143.4758  162.2335 C   0  0  0  0  0  0  0  0  0  0  0  0
  152.9281  142.3058  161.2856 C   0  0  0  0  0  0  0  0  0  0  0  0
  153.9267  141.3386  161.5140 C   0  0  0  0  0  0  0  0  0  0  0  0
  154.0719  140.2561  160.6268 C   0  0  0  0  0  0  0  0  0  0  0  0
  153.2225  140.1361  159.5100 C   0  0  0  0  0  0  0  0  0  0  0  0
  152.2149  141.1039  159.2686 C   0  0  0  0  0  0  0  0  0  0  0  0
  151.3431  141.0657  158.2015 O   0  0  0  0  0  0  0  0  0  0  0  0
  151.4654  139.9990  157.2720 C   0  0  0  0  0  0  0  0  0  0  0  0
  151.3651  140.5759  155.8553 C   0  0  0  0  0  0  0  0  0  0  0  0
  150.4244  139.8173  155.0203 N   0  0  0  0  0  0  0  0  0  0  0  0
  150.4828  138.5291  154.5748 C   0  0  0  0  0  0  0  0  0  0  0  0
  151.5702  137.5374  154.8345 C   0  0  0  0  0  0  0  0  0  0  0  0
  151.6276  137.1390  156.3152 C   0  0  0  0  0  0  0  0  0  0  0  0
  152.6804  136.2233  156.5257 O   0  0  0  0  0  0  0  0  0  0  0  0
  149.3652  138.3106  153.8256 N   0  3  0  0  0  0  0  0  0  0  0  0
  148.5784  139.4632  153.8033 C   0  0  0  0  0  0  0  0  0  0  0  0
  147.3598  139.7230  153.1836 C   0  0  0  0  0  0  0  0  0  0  0  0
  146.8199  141.0131  153.3662 C   0  0  0  0  0  0  0  0  0  0  0  0
  147.4862  141.9855  154.1400 C   0  0  0  0  0  0  0  0  0  0  0  0
  148.7219  141.7110  154.7624 C   0  0  0  0  0  0  0  0  0  0  0  0
  149.2504  140.4342  154.5742 C   0  0  0  0  0  0  0  0  0  0  0  0
  152.0794  142.1828  160.1668 C   0  0  0  0  0  0  0  0  0  0  0  0
  153.4818  143.4321  163.0513 H   0  0  0  0  0  0  0  0  0  0  0  0
  151.7593  143.4751  162.6622 H   0  0  0  0  0  0  0  0  0  0  0  0
  152.9079  144.4162  161.7016 H   0  0  0  0  0  0  0  0  0  0  0  0
  154.5832  141.4217  162.3678 H   0  0  0  0  0  0  0  0  0  0  0  0
  154.8374  139.5149  160.8039 H   0  0  0  0  0  0  0  0  0  0  0  0
  153.3649  139.2911  158.8538 H   0  0  0  0  0  0  0  0  0  0  0  0
  152.4280  139.4999  157.3963 H   0  0  0  0  0  0  0  0  0  0  0  0
  150.6751  139.2640  157.4333 H   0  0  0  0  0  0  0  0  0  0  0  0
  151.0641  141.6236  155.8753 H   0  0  0  0  0  0  0  0  0  0  0  0
  152.3406  140.5452  155.3691 H   0  0  0  0  0  0  0  0  0  0  0  0
  151.4080  136.6582  154.2098 H   0  0  0  0  0  0  0  0  0  0  0  0
  152.5225  137.9692  154.5239 H   0  0  0  0  0  0  0  0  0  0  0  0
  151.7911  138.0156  156.9427 H   0  0  0  0  0  0  0  0  0  0  0  0
  150.6900  136.6813  156.6318 H   0  0  0  0  0  0  0  0  0  0  0  0
  153.0691  136.3978  157.3694 H   0  0  0  0  0  0  0  0  0  0  0  0
  146.8467  138.9793  152.5915 H   0  0  0  0  0  0  0  0  0  0  0  0
  145.8752  141.2617  152.9044 H   0  0  0  0  0  0  0  0  0  0  0  0
  147.0405  142.9626  154.2590 H   0  0  0  0  0  0  0  0  0  0  0  0
  149.2229  142.4626  155.3545 H   0  0  0  0  0  0  0  0  0  0  0  0
  151.3149  142.9262  159.9925 H   0  0  0  0  0  0  0  0  0  0  0  0
  149.1572  137.4337  153.3653 H   0  0  0  0  0  0  0  0  0  0  0  0
  1  2  1  0  0  0  0
  1 23  1  0  0  0  0
  1 24  1  0  0  0  0
  1 25  1  0  0  0  0
  2 22  1  0  0  0  0
  2  3  2  0  0  0  0
  3  4  1  0  0  0  0
  3 26  1  0  0  0  0
  4  5  2  0  0  0  0
  4 27  1  0  0  0  0
  5  6  1  0  0  0  0
  5 28  1  0  0  0  0
  6  7  1  0  0  0  0
  6 22  2  0  0  0  0
  7  8  1  0  0  0  0
  8  9  1  0  0  0  0
  8 29  1  0  0  0  0
  8 30  1  0  0  0  0
  9 10  1  0  0  0  0
  9 31  1  0  0  0  0
  9 32  1  0  0  0  0
 10 21  1  0  0  0  0
 10 11  1  0  0  0  0
 11 12  1  0  0  0  0
 11 15  2  0  0  0  0
 12 13  1  0  0  0  0
 12 33  1  0  0  0  0
 12 34  1  0  0  0  0
 13 14  1  0  0  0  0
 13 35  1  0  0  0  0
 13 36  1  0  0  0  0
 14 37  1  0  0  0  0
 15 16  1  0  0  0  0
 15 43  1  0  0  0  0
 16 21  2  0  0  0  0
 16 17  1  0  0  0  0
 17 18  2  0  0  0  0
 17 38  1  0  0  0  0
 18 19  1  0  0  0  0
 18 39  1  0  0  0  0
 19 20  2  0  0  0  0
 19 40  1  0  0  0  0
 20 21  1  0  0  0  0
 20 41  1  0  0  0  0
 22 42  1  0  0  0  0
M  CHG  1  15   1
M  END
> <s_m_source_file>
AV-unprocessed.smi

> <i_m_source_file_index>
463

> <i_lp_mmshare_version>
43012

> <i_f3d_flags>
0

> <s_epik_input>
W0NIM11jMVtjSF1bY0hdW2NIXWMoW2NIXTEpT1tDSDJdW0NIMl1uKGMobjIpW0NIMl1bQ0gyXVtPSF0pYyhjMjMpW2NIXVtjSF1bY0hdW2NIXTM=

> <s_epik_cmdline>
J2VwaWtfcHl0aG9uJywgJy1waCcsICc3LjAnLCAnLXRuJywgJzgnLCAnLW1hJywgJzIwMCcsICctbWV0YWxfYmluZGluZycsICctaW1hZScsICc8aW5maWxlLm1hZT4nLCAnLW9tYWUnLCAnPG91dGZpbGUubWFlPic=

> <r_lp_tautomer_probability>
1

> <r_epik_Ionization_Penalty>
0.724134

> <r_epik_Ionization_Penalty_Charging>
0.724134

> <r_epik_Ionization_Penalty_Neutral>
5.89567e-08

> <r_epik_State_Penalty>
0.748825

> <r_epik_Charging_Adjusted_Penalty>
1.47296

> <i_epik_Tot_Q>
1

> <i_epik_Tot_abs_Q>
1

> <r_epik_Metal_State_Penalty>
4.64506

> <b_epik_Metal_Only>
0

> <s_lp_Force_Field>
OPLS_2005

> <r_lp_Energy>
21.9502

> <b_lp_Chiralities_Consistent>
1

> <s_lp_Variant>
AV-unprocessed.smi:463-2

> <Gold.Version>
5.8.1

> <Gold.Id.Protein>
6NUR|6NUR_protein|mol2

> <Gold.PLP.Fitness>
57.1062

> <Gold.PLP.PLP>
-49.4659

> <Gold.PLP.part.hbond>
-2.5539

> <Gold.PLP.part.metal>
0.0000

> <Gold.PLP.part.buried>
-0.2821

> <Gold.PLP.part.nonpolar>
-46.5669

> <Gold.PLP.part.repulsive>
0.0455

> <Gold.PLP.ligand.clash>
0.0000

> <Gold.PLP.ligand.torsion>
0.7302

> <Gold.PLP.Chemscore.Hbond>
3.0000

> <Gold.PLP.Chemscore.CHOScore>
0.0000

> <Gold.PLP.Chemscore.Metal>
0.0000

> <Gold.Chemscore.Hbonds>
donor molecule, donor type, donor heavy atom, donor atom, acceptor molecule, acceptor atom, score
      L1  H    15    43       P1  7948  2.00
      P1  H 10752 10764       L1    14  1.00

> <Gold.PLP.Chemscore.Internal.Correction>
0.1006

> <Gold.Rescore>
     Score         DG    S(hbond)    S(metal)    S(lipo)     H(rot)  DE(clash)    DE(int)     intcor
     20.40     -21.49       1.90        0.00     134.31       2.36       0.12       0.97       ----

> <Gold.Chemscore.Fitness>
20.4018

> <Gold.Chemscore.DG>
-21.4913

> <Gold.Chemscore.ZeroCoef>
-5.4800

> <Gold.Chemscore.Hbond>
1.9016

> <Gold.Chemscore.Metal>
0.0000

> <Gold.Chemscore.Lipo>
134.3065

> <Gold.Chemscore.Internal_Hbond>
0.0000

> <Gold.Chemscore.DEClash>
0.1186

> <Gold.Chemscore.DEInternal>
0.9709

> <Gold.Chemscore.Rot>
2.3648

> <Gold.Chemscore.Internal.Correction>
   9.000000E+99

> <Gold.Chemscore.Hbonds>
donor molecule, donor type, donor heavy atom, donor atom, acceptor molecule, acceptor atom, score
      L1  H    15    43       P1  7948  0.97
      P1  H 10752 10764       L1    14  0.95

> <Gold.Chemscore.Hbond.Weighted>
-6.3515

> <Gold.Chemscore.Metal.Weighted>
-0.0000

> <Gold.Chemscore.Lipo.Weighted>
-15.7139

> <Gold.Chemscore.Internal_Hbond.Weighted>
0.0000

> <Gold.Chemscore.DEClash.Weighted>
0.1186

> <Gold.Chemscore.DEInternal.Weighted>
0.9709

> <Gold.Chemscore.Rot.Weighted>
6.0540

> <Gold.Chemscore.Internal.Correction.Weighted>
   9.000000E+99

> <Gold.Protein.RotatedTorsions>
[ 6907 6896 6895 6894 ] final -139.13 input  -60.11 | X-H torsion
[ 7974 7965 7964 7962 ] final  -29.55 input  175.53 | X-H torsion
[ 8008 7997 7996 7995 ] final -148.53 input   59.86 | X-H torsion
[ 10167 10162 10161 10158 ] final -160.26 input  -65.29 | X-H torsion
[ 10718 10713 10712 10709 ] final  119.25 input   66.30 | X-H torsion
[ 10763 10752 10751 10750 ] final  -16.80 input  -60.55 | X-H torsion
[ 11005 11000 10999 10996 ] final -124.48 input  -57.11 | X-H torsion

> <Gold.Protein.ActiveResidues>
 VAL166  LYS551  ARG553  GLY616  TRP617  ASP618  TYR619  PRO620  LYS621  CYS622 
 ASP623  PHE694  ASN695  SER759  ASP760  ASP761  ALA762  ILE779  LEU786  VAL792 
 PHE793  MET794  SER795  GLU796  ALA797  LYS798  CYS799  TRP800  GLU811  SER814 

> <Gold.Protein.RotatedAtoms>
  151.0438  133.5683  159.2648 H   0  0  0  0  0  0  0  0  0  0  0  0  # atno 6907 bound_to 6896
  151.2719  135.0686  159.9147 H   0  0  0  0  0  0  0  0  0  0  0  0  # atno 6908 bound_to 6896
  152.5369  134.0167  159.8017 H   0  0  0  0  0  0  0  0  0  0  0  0  # atno 6909 bound_to 6896
  146.1208  140.5426  142.8736 H   0  0  0  0  0  0  0  0  0  0  0  0  # atno 7974 bound_to 7965
  155.5930  140.0654  157.2753 H   0  0  0  0  0  0  0  0  0  0  0  0  # atno 8008 bound_to 7997
  154.4300  140.1832  156.1142 H   0  0  0  0  0  0  0  0  0  0  0  0  # atno 8009 bound_to 7997
  156.0218  140.3316  155.7050 H   0  0  0  0  0  0  0  0  0  0  0  0  # atno 8010 bound_to 7997
  139.6553  144.0010  152.2189 H   0  0  0  0  0  0  0  0  0  0  0  0  # atno 10167 bound_to 10162
  157.5975  131.1056  150.7870 H   0  0  0  0  0  0  0  0  0  0  0  0  # atno 10718 bound_to 10713
  153.5641  135.7009  153.5534 H   0  0  0  0  0  0  0  0  0  0  0  0  # atno 10763 bound_to 10752
  153.3402  135.4023  155.1566 H   0  0  0  0  0  0  0  0  0  0  0  0  # atno 10764 bound_to 10752
  154.8643  135.3740  154.5160 H   0  0  0  0  0  0  0  0  0  0  0  0  # atno 10765 bound_to 10752
  140.9837  134.0637  157.3735 H   0  0  0  0  0  0  0  0  0  0  0  0  # atno 11005 bound_to 11000
  144.7596  140.5390  143.6745 LP  0  0  0  0  0  0  0  0  0  0  0  0  # atno 17320 bound_to 7965
  145.5469  139.1476  143.3416 LP  0  0  0  0  0  0  0  0  0  0  0  0  # atno 17321 bound_to 7965
  139.9735  144.6477  150.7967 LP  0  0  0  0  0  0  0  0  0  0  0  0  # atno 17342 bound_to 10162
  140.7556  143.3050  151.2985 LP  0  0  0  0  0  0  0  0  0  0  0  0  # atno 17343 bound_to 10162
  156.8277  130.5005  149.5335 LP  0  0  0  0  0  0  0  0  0  0  0  0  # atno 17370 bound_to 10713
  156.1040  130.5990  150.9941 LP  0  0  0  0  0  0  0  0  0  0  0  0  # atno 17371 bound_to 10713
  139.8961  135.0144  156.7036 LP  0  0  0  0  0  0  0  0  0  0  0  0  # atno 17394 bound_to 11000
  140.7147  133.9193  155.8107 LP  0  0  0  0  0  0  0  0  0  0  0  0  # atno 17395 bound_to 11000

$$$$
