AV-unprocessed.smi:2790|AV-procd|sdf|10770|dock10
  -GOLD-   2272015203D 1   1.00000     0.00000
 Structure written by MMmdl.
 46 47  0  0  0  0  0  0  0  0  4 V2000
  151.1280  145.6487  155.1377 C   0  0  0  0  0  0  0  0  0  0  0  0
  151.5945  144.2547  154.9664 N   0  3  0  0  0  0  0  0  0  0  0  0
  152.9294  144.0342  155.5634 C   0  0  0  0  0  0  0  0  0  0  0  0
  151.4982  143.7769  153.5636 C   0  0  0  0  0  0  0  0  0  0  0  0
  151.8683  142.2921  153.5033 C   0  0  0  0  0  0  0  0  0  0  0  0
  152.8764  141.9639  152.8710 O   0  0  0  0  0  0  0  0  0  0  0  0
  150.9747  141.5377  154.1985 N   0  5  0  0  0  0  0  0  0  0  0  0
  150.9107  140.0755  154.1402 C   0  0  0  0  0  0  0  0  0  0  0  0
  149.7602  139.5055  155.0577 C   0  0  0  0  0  0  0  0  0  0  0  0
  148.3868  139.9592  154.4805 C   0  0  0  0  0  0  0  0  0  0  0  0
  147.9466  139.5312  153.1970 C   0  0  0  0  0  0  0  0  0  0  0  0
  146.7046  139.9615  152.6902 C   0  0  0  0  0  0  0  0  0  0  0  0
  145.9284  140.7857  153.4220 N   0  3  0  0  0  0  0  0  0  0  0  0
  146.2919  141.2311  154.6414 C   0  0  0  0  0  0  0  0  0  0  0  0
  147.5234  140.8329  155.1981 C   0  0  0  0  0  0  0  0  0  0  0  0
  149.7899  137.9333  155.0837 C   0  0  0  0  0  0  0  0  0  0  0  0
  150.9204  137.2789  155.9096 C   0  0  0  0  0  0  0  0  0  0  0  0
  150.9398  137.7956  157.3498 C   0  0  0  0  0  0  0  0  0  0  0  0
  151.0484  139.3217  157.3652 C   0  0  0  0  0  0  0  0  0  0  0  0
  149.9077  139.9731  156.5540 C   0  0  0  0  0  0  0  0  0  0  0  0
  151.7728  146.3457  154.6011 H   0  0  0  0  0  0  0  0  0  0  0  0
  151.1256  145.9264  156.1919 H   0  0  0  0  0  0  0  0  0  0  0  0
  150.1104  145.7655  154.7635 H   0  0  0  0  0  0  0  0  0  0  0  0
  153.6906  144.6180  155.0443 H   0  0  0  0  0  0  0  0  0  0  0  0
  153.2050  142.9805  155.5075 H   0  0  0  0  0  0  0  0  0  0  0  0
  152.9335  144.3224  156.6150 H   0  0  0  0  0  0  0  0  0  0  0  0
  150.4985  143.9349  153.1536 H   0  0  0  0  0  0  0  0  0  0  0  0
  152.1778  144.3331  152.9155 H   0  0  0  0  0  0  0  0  0  0  0  0
  150.7491  139.7127  153.1240 H   0  0  0  0  0  0  0  0  0  0  0  0
  151.8621  139.6416  154.4463 H   0  0  0  0  0  0  0  0  0  0  0  0
  148.5552  138.8880  152.5809 H   0  0  0  0  0  0  0  0  0  0  0  0
  146.3155  139.6769  151.7235 H   0  0  0  0  0  0  0  0  0  0  0  0
  145.5934  141.8933  155.1318 H   0  0  0  0  0  0  0  0  0  0  0  0
  147.7897  141.2218  156.1680 H   0  0  0  0  0  0  0  0  0  0  0  0
  148.8499  137.5850  155.5152 H   0  0  0  0  0  0  0  0  0  0  0  0
  149.8181  137.5027  154.0813 H   0  0  0  0  0  0  0  0  0  0  0  0
  150.7870  136.1968  155.9150 H   0  0  0  0  0  0  0  0  0  0  0  0
  151.8888  137.4570  155.4411 H   0  0  0  0  0  0  0  0  0  0  0  0
  150.0305  137.4851  157.8657 H   0  0  0  0  0  0  0  0  0  0  0  0
  151.7748  137.3545  157.8949 H   0  0  0  0  0  0  0  0  0  0  0  0
  151.0118  139.6779  158.3949 H   0  0  0  0  0  0  0  0  0  0  0  0
  152.0197  139.6294  156.9768 H   0  0  0  0  0  0  0  0  0  0  0  0
  150.0064  141.0567  156.6414 H   0  0  0  0  0  0  0  0  0  0  0  0
  148.9831  139.7283  157.0793 H   0  0  0  0  0  0  0  0  0  0  0  0
  150.9508  143.6763  155.4882 H   0  0  0  0  0  0  0  0  0  0  0  0
  145.0343  141.0888  153.0355 H   0  0  0  0  0  0  0  0  0  0  0  0
  1  2  1  0  0  0  0
  1 21  1  0  0  0  0
  1 22  1  0  0  0  0
  1 23  1  0  0  0  0
  2  3  1  0  0  0  0
  2  4  1  0  0  0  0
  2 45  1  0  0  0  0
  3 24  1  0  0  0  0
  3 25  1  0  0  0  0
  3 26  1  0  0  0  0
  4  5  1  0  0  0  0
  4 27  1  0  0  0  0
  4 28  1  0  0  0  0
  5  6  2  0  0  0  0
  5  7  1  0  0  0  0
  7  8  1  0  0  0  0
  8  9  1  0  0  0  0
  8 29  1  0  0  0  0
  8 30  1  0  0  0  0
  9 20  1  0  0  0  0
  9 10  1  0  0  0  0
  9 16  1  0  0  0  0
 10 15  1  0  0  0  0
 10 11  2  0  0  0  0
 11 12  1  0  0  0  0
 11 31  1  0  0  0  0
 12 13  2  0  0  0  0
 12 32  1  0  0  0  0
 13 14  1  0  0  0  0
 13 46  1  0  0  0  0
 14 15  2  0  0  0  0
 14 33  1  0  0  0  0
 15 34  1  0  0  0  0
 16 17  1  0  0  0  0
 16 35  1  0  0  0  0
 16 36  1  0  0  0  0
 17 18  1  0  0  0  0
 17 37  1  0  0  0  0
 17 38  1  0  0  0  0
 18 19  1  0  0  0  0
 18 39  1  0  0  0  0
 18 40  1  0  0  0  0
 19 20  1  0  0  0  0
 19 41  1  0  0  0  0
 19 42  1  0  0  0  0
 20 43  1  0  0  0  0
 20 44  1  0  0  0  0
M  CHG  1   2   1
M  CHG  1   7  -1
M  CHG  1  13   1
M  END
> <s_m_source_file>
AV-unprocessed.smi

> <i_m_source_file_index>
2790

> <i_lp_mmshare_version>
43012

> <i_f3d_flags>
0

> <s_epik_input>
W0NIM11OKFtDSDNdKVtDSDJdQyg9TylbTkhdW0NIMl1DMShbQ0gyXVtDSDJdW0NIMl1bQ0gyXVtDSDJdMSljMltjSF1bY0hdbltjSF1bY0hdMg==

> <s_epik_cmdline>
J2VwaWtfcHl0aG9uJywgJy1waCcsICc3LjAnLCAnLXRuJywgJzgnLCAnLW1hJywgJzIwMCcsICctbWV0YWxfYmluZGluZycsICctaW1hZScsICc8aW5maWxlLm1hZT4nLCAnLW9tYWUnLCAnPG91dGZpbGUubWFlPic=

> <r_epik_Ionization_Penalty>
6.72126

> <r_epik_Ionization_Penalty_Charging>
6.72126

> <r_epik_Ionization_Penalty_Neutral>
0

> <r_epik_State_Penalty>
7.43246

> <r_epik_Charging_Adjusted_Penalty>
14.1537

> <i_epik_Tot_Q>
1

> <i_epik_Tot_abs_Q>
3

> <r_epik_Metal_State_Penalty>
3.42758

> <b_epik_Metal_Only>
1

> <s_lp_Force_Field>
OPLS_2005

> <r_lp_Energy>
31.5627

> <b_lp_Chiralities_Consistent>
1

> <s_lp_Variant>
AV-unprocessed.smi:2790-5

> <Gold.Version>
5.8.1

> <Gold.Id.Protein>
6NUR|6NUR_protein|mol2

> <Gold.PLP.Fitness>
36.0675

> <Gold.PLP.PLP>
-24.3189

> <Gold.PLP.part.hbond>
-2.0000

> <Gold.PLP.part.metal>
0.0000

> <Gold.PLP.part.buried>
2.6291

> <Gold.PLP.part.nonpolar>
-24.6861

> <Gold.PLP.part.repulsive>
0.1029

> <Gold.PLP.ligand.clash>
0.0000

> <Gold.PLP.ligand.torsion>
0.1659

> <Gold.PLP.Chemscore.Hbond>
4.0000

> <Gold.PLP.Chemscore.CHOScore>
0.0000

> <Gold.PLP.Chemscore.Metal>
0.0000

> <Gold.Chemscore.Hbonds>
donor molecule, donor type, donor heavy atom, donor atom, acceptor molecule, acceptor atom, score
      L1  H     2    45       P1  8028  0.11
      L1  H    13    46       P1 10175  1.50

> <Gold.PLP.Chemscore.Internal.Correction>
0.0804

> <Gold.Rescore>
     Score         DG    S(hbond)    S(metal)    S(lipo)     H(rot)  DE(clash)    DE(int)     intcor
     14.83     -16.54       1.68        0.00      83.07       1.67       1.52       0.18       ----

> <Gold.Chemscore.Fitness>
14.8323

> <Gold.Chemscore.DG>
-16.5379

> <Gold.Chemscore.ZeroCoef>
-5.4800

> <Gold.Chemscore.Hbond>
1.6839

> <Gold.Chemscore.Metal>
0.0000

> <Gold.Chemscore.Lipo>
83.0730

> <Gold.Chemscore.Internal_Hbond>
0.0000

> <Gold.Chemscore.DEClash>
1.5229

> <Gold.Chemscore.DEInternal>
0.1827

> <Gold.Chemscore.Rot>
1.6741

> <Gold.Chemscore.Internal.Correction>
   9.000000E+99

> <Gold.Chemscore.Hbonds>
donor molecule, donor type, donor heavy atom, donor atom, acceptor molecule, acceptor atom, score
      L1  H     2    45       P1  8028  0.06
      L1  H    13    46       P1 10175  0.14

> <Gold.Chemscore.Hbond.Weighted>
-5.6241

> <Gold.Chemscore.Metal.Weighted>
-0.0000

> <Gold.Chemscore.Lipo.Weighted>
-9.7195

> <Gold.Chemscore.Internal_Hbond.Weighted>
0.0000

> <Gold.Chemscore.DEClash.Weighted>
1.5229

> <Gold.Chemscore.DEInternal.Weighted>
0.1827

> <Gold.Chemscore.Rot.Weighted>
4.2858

> <Gold.Chemscore.Internal.Correction.Weighted>
   9.000000E+99

> <Gold.Protein.RotatedTorsions>
[ 6907 6896 6895 6894 ] final -125.88 input  -60.11 | X-H torsion
[ 7974 7965 7964 7962 ] final  113.18 input  175.53 | X-H torsion
[ 8008 7997 7996 7995 ] final  -59.05 input   59.86 | X-H torsion
[ 10167 10162 10161 10158 ] final -121.24 input  -65.29 | X-H torsion
[ 10718 10713 10712 10709 ] final  -22.89 input   66.30 | X-H torsion
[ 10763 10752 10751 10750 ] final -172.76 input  -60.55 | X-H torsion
[ 11005 11000 10999 10996 ] final  -69.26 input  -57.11 | X-H torsion

> <Gold.Protein.ActiveResidues>
 VAL166  LYS551  ARG553  GLY616  TRP617  ASP618  TYR619  PRO620  LYS621  CYS622 
 ASP623  PHE694  ASN695  SER759  ASP760  ASP761  ALA762  ILE779  LEU786  VAL792 
 PHE793  MET794  SER795  GLU796  ALA797  LYS798  CYS799  TRP800  GLU811  SER814 

> <Gold.Protein.RotatedAtoms>
  150.8912  133.7241  159.2904 H   0  0  0  0  0  0  0  0  0  0  0  0  # atno 6907 bound_to 6896
  151.4790  135.1049  159.9782 H   0  0  0  0  0  0  0  0  0  0  0  0  # atno 6908 bound_to 6896
  152.4821  133.8233  159.7120 H   0  0  0  0  0  0  0  0  0  0  0  0  # atno 6909 bound_to 6896
  145.2202  139.2865  143.4222 H   0  0  0  0  0  0  0  0  0  0  0  0  # atno 7974 bound_to 7965
  154.4335  140.1070  156.6054 H   0  0  0  0  0  0  0  0  0  0  0  0  # atno 8008 bound_to 7997
  155.5866  140.3491  155.4536 H   0  0  0  0  0  0  0  0  0  0  0  0  # atno 8009 bound_to 7997
  156.0278  140.1254  157.0279 H   0  0  0  0  0  0  0  0  0  0  0  0  # atno 8010 bound_to 7997
  140.0272  143.5285  152.2193 H   0  0  0  0  0  0  0  0  0  0  0  0  # atno 10167 bound_to 10162
  156.4985  130.4582  149.6714 H   0  0  0  0  0  0  0  0  0  0  0  0  # atno 10718 bound_to 10713
  154.6156  135.2869  155.0383 H   0  0  0  0  0  0  0  0  0  0  0  0  # atno 10763 bound_to 10752
  154.1597  135.6490  153.4987 H   0  0  0  0  0  0  0  0  0  0  0  0  # atno 10764 bound_to 10752
  153.0214  135.5375  154.6927 H   0  0  0  0  0  0  0  0  0  0  0  0  # atno 10765 bound_to 10752
  141.1550  133.6760  156.6572 H   0  0  0  0  0  0  0  0  0  0  0  0  # atno 11005 bound_to 11000
  146.3378  140.2505  142.8598 LP  0  0  0  0  0  0  0  0  0  0  0  0  # atno 17320 bound_to 7965
  144.9773  140.8425  143.5419 LP  0  0  0  0  0  0  0  0  0  0  0  0  # atno 17321 bound_to 7965
  139.6100  144.7606  151.2973 LP  0  0  0  0  0  0  0  0  0  0  0  0  # atno 17342 bound_to 10162
  140.7317  143.6843  150.7975 LP  0  0  0  0  0  0  0  0  0  0  0  0  # atno 17343 bound_to 10162
  156.3356  130.7355  151.2291 LP  0  0  0  0  0  0  0  0  0  0  0  0  # atno 17370 bound_to 10713
  157.7465  131.0418  150.4662 LP  0  0  0  0  0  0  0  0  0  0  0  0  # atno 17371 bound_to 10713
  140.3275  134.7956  157.4300 LP  0  0  0  0  0  0  0  0  0  0  0  0  # atno 17394 bound_to 11000
  140.1045  134.5429  155.8322 LP  0  0  0  0  0  0  0  0  0  0  0  0  # atno 17395 bound_to 11000

$$$$
