AV-unprocessed.smi:73|AV-procd|sdf|759|dock4
  -GOLD-   2262017 93D 1   1.00000     0.00000
 Structure written by MMmdl.
 35 36  0  0  0  0  0  0  0  0  2 V2000
  153.0015  138.7516  154.6699 C   0  0  0  0  0  0  0  0  0  0  0  0
  151.9412  138.9489  155.7631 C   0  0  0  0  0  0  0  0  0  0  0  0
  150.5184  138.7415  155.4073 N   0  0  0  0  0  0  0  0  0  0  0  0
  150.4075  137.4569  154.6909 C   0  0  0  0  0  0  0  0  0  0  0  0
  150.7608  136.2593  155.5158 C   0  0  0  0  0  0  0  0  0  0  0  0
  151.9161  136.0174  156.1398 N   0  0  0  0  0  0  0  0  0  0  0  0
  151.7612  134.7930  156.7513 N   0  0  0  0  0  0  0  0  0  0  0  0
  150.5241  134.3904  156.4505 C   0  0  0  0  0  0  0  0  0  0  0  0
  149.8563  133.1253  156.8683 C   0  0  0  0  0  0  0  0  0  0  0  0
  149.8410  135.2730  155.6768 O   0  0  0  0  0  0  0  0  0  0  0  0
  149.9749  139.8604  154.5959 C   0  0  2  0  0  0  0  0  0  0  0  0
  150.1122  141.2562  155.2650 C   0  0  0  0  0  0  0  0  0  0  0  0
  148.7867  141.8946  155.3025 N   0  3  0  0  0  0  0  0  0  0  0  0
  147.9669  141.2380  154.2873 C   0  0  0  0  0  0  0  0  0  0  0  0
  148.4530  139.7932  154.2978 C   0  0  1  0  0  0  0  0  0  0  0  0
  148.1870  139.2127  153.0361 O   0  0  0  0  0  0  0  0  0  0  0  0
  147.9223  139.2561  155.0857 H   0  0  0  0  0  0  0  0  0  0  0  0
  153.9530  139.1749  154.9923 H   0  0  0  0  0  0  0  0  0  0  0  0
  152.7201  139.2562  153.7450 H   0  0  0  0  0  0  0  0  0  0  0  0
  153.1904  137.7004  154.4589 H   0  0  0  0  0  0  0  0  0  0  0  0
  152.1986  138.3343  156.6271 H   0  0  0  0  0  0  0  0  0  0  0  0
  152.0843  139.9764  156.0956 H   0  0  0  0  0  0  0  0  0  0  0  0
  149.3880  137.2784  154.3568 H   0  0  0  0  0  0  0  0  0  0  0  0
  151.0278  137.4694  153.7934 H   0  0  0  0  0  0  0  0  0  0  0  0
  150.6011  132.3660  157.1068 H   0  0  0  0  0  0  0  0  0  0  0  0
  149.2211  132.7514  156.0649 H   0  0  0  0  0  0  0  0  0  0  0  0
  149.2405  133.3034  157.7498 H   0  0  0  0  0  0  0  0  0  0  0  0
  150.5023  139.8970  153.6409 H   0  0  0  0  0  0  0  0  0  0  0  0
  150.4516  141.2071  156.2980 H   0  0  0  0  0  0  0  0  0  0  0  0
  150.8041  141.8848  154.7037 H   0  0  0  0  0  0  0  0  0  0  0  0
  148.3742  141.7119  156.2064 H   0  0  0  0  0  0  0  0  0  0  0  0
  146.9012  141.3328  154.4976 H   0  0  0  0  0  0  0  0  0  0  0  0
  148.1703  141.7131  153.3257 H   0  0  0  0  0  0  0  0  0  0  0  0
  148.6236  139.7218  152.3701 H   0  0  0  0  0  0  0  0  0  0  0  0
  148.8472  142.8910  155.1481 H   0  0  0  0  0  0  0  0  0  0  0  0
  1  2  1  0  0  0  0
  1 18  1  0  0  0  0
  1 19  1  0  0  0  0
  1 20  1  0  0  0  0
  2  3  1  0  0  0  0
  2 21  1  0  0  0  0
  2 22  1  0  0  0  0
  3  4  1  0  0  0  0
  3 11  1  0  0  0  0
  4  5  1  0  0  0  0
  4 23  1  0  0  0  0
  4 24  1  0  0  0  0
  5 10  1  0  0  0  0
  5  6  2  0  0  0  0
  6  7  1  0  0  0  0
  7  8  2  0  0  0  0
  8  9  1  0  0  0  0
  8 10  1  0  0  0  0
  9 25  1  0  0  0  0
  9 26  1  0  0  0  0
  9 27  1  0  0  0  0
 11 15  1  0  0  0  0
 11 12  1  0  0  0  0
 11 28  1  0  0  0  0
 12 13  1  0  0  0  0
 12 29  1  0  0  0  0
 12 30  1  0  0  0  0
 13 14  1  0  0  0  0
 13 31  1  0  0  0  0
 13 35  1  0  0  0  0
 14 15  1  0  0  0  0
 14 32  1  0  0  0  0
 14 33  1  0  0  0  0
 15 17  1  0  0  0  0
 15 16  1  0  0  0  0
 16 34  1  0  0  0  0
M  CHG  1  13   1
M  END
> <s_m_source_file>
AV-unprocessed.smi

> <i_m_source_file_index>
73

> <i_lp_mmshare_version>
43012

> <i_f3d_flags>
0

> <s_epik_input>
W09IXVtDQEBIXTFbQ0gyXVtOSF1bQ0gyXVtDQEhdMU4oW0NIMl1bQ0gzXSlbQ0gyXWMybm5jKG8yKVtDSDNd

> <s_epik_cmdline>
J2VwaWtfcHl0aG9uJywgJy1waCcsICc3LjAnLCAnLXRuJywgJzgnLCAnLW1hJywgJzIwMCcsICctbWV0YWxfYmluZGluZycsICctaW1hZScsICc8aW5maWxlLm1hZT4nLCAnLW9tYWUnLCAnPG91dGZpbGUubWFlPic=

> <r_lp_tautomer_probability>
1

> <r_epik_Ionization_Penalty>
0.00160433

> <r_epik_Ionization_Penalty_Charging>
0.000122314

> <r_epik_Ionization_Penalty_Neutral>
0.00148202

> <r_epik_State_Penalty>
-0

> <r_epik_Charging_Adjusted_Penalty>
0.000122314

> <i_epik_Tot_Q>
1

> <i_epik_Tot_abs_Q>
1

> <r_epik_Metal_State_Penalty>
-0

> <b_epik_Metal_Only>
0

> <s_lp_Force_Field>
OPLS_2005

> <r_lp_Energy>
42.0904

> <b_lp_Chiralities_Consistent>
1

> <s_lp_Variant>
AV-unprocessed.smi:73-1

> <Gold.Version>
5.8.1

> <Gold.Id.Protein>
6NUR|6NUR_protein|mol2

> <Gold.PLP.Fitness>
38.9315

> <Gold.PLP.PLP>
-27.1698

> <Gold.PLP.part.hbond>
-3.9985

> <Gold.PLP.part.metal>
0.0000

> <Gold.PLP.part.buried>
-3.2911

> <Gold.PLP.part.nonpolar>
-20.4396

> <Gold.PLP.part.repulsive>
0.2852

> <Gold.PLP.ligand.clash>
0.0000

> <Gold.PLP.ligand.torsion>
0.1268

> <Gold.PLP.Chemscore.Hbond>
4.0000

> <Gold.PLP.Chemscore.CHOScore>
0.0000

> <Gold.PLP.Chemscore.Metal>
0.0000

> <Gold.Chemscore.Hbonds>
donor molecule, donor type, donor heavy atom, donor atom, acceptor molecule, acceptor atom, score
      L1  H    13    35       P1  8028  2.00
      L1  H    16    34       P1  7957  1.00
      P1  H 10752 10765       L1     6  1.00

> <Gold.PLP.Chemscore.Internal.Correction>
0.0152

> <Gold.Rescore>
     Score         DG    S(hbond)    S(metal)    S(lipo)     H(rot)  DE(clash)    DE(int)     intcor
     14.56     -15.11       2.96        0.00      52.60       2.51       0.05       0.50       ----

> <Gold.Chemscore.Fitness>
14.5633

> <Gold.Chemscore.DG>
-15.1118

> <Gold.Chemscore.ZeroCoef>
-5.4800

> <Gold.Chemscore.Hbond>
2.9613

> <Gold.Chemscore.Metal>
0.0000

> <Gold.Chemscore.Lipo>
52.5983

> <Gold.Chemscore.Internal_Hbond>
0.0000

> <Gold.Chemscore.DEClash>
0.0514

> <Gold.Chemscore.DEInternal>
0.4972

> <Gold.Chemscore.Rot>
2.5051

> <Gold.Chemscore.Internal.Correction>
   9.000000E+99

> <Gold.Chemscore.Hbonds>
donor molecule, donor type, donor heavy atom, donor atom, acceptor molecule, acceptor atom, score
      L1  H    13    35       P1  8028  0.98
      L1  H    16    34       P1  7957  0.97
      P1  H 10752 10765       L1     6  0.09

> <Gold.Chemscore.Hbond.Weighted>
-9.8909

> <Gold.Chemscore.Metal.Weighted>
-0.0000

> <Gold.Chemscore.Lipo.Weighted>
-6.1540

> <Gold.Chemscore.Internal_Hbond.Weighted>
0.0000

> <Gold.Chemscore.DEClash.Weighted>
0.0514

> <Gold.Chemscore.DEInternal.Weighted>
0.4972

> <Gold.Chemscore.Rot.Weighted>
6.4131

> <Gold.Chemscore.Internal.Correction.Weighted>
   9.000000E+99

> <Gold.Protein.RotatedTorsions>
[ 6907 6896 6895 6894 ] final -111.18 input  -60.11 | X-H torsion
[ 7974 7965 7964 7962 ] final   86.45 input  175.53 | X-H torsion
[ 8008 7997 7996 7995 ] final -119.21 input   59.86 | X-H torsion
[ 10167 10162 10161 10158 ] final    8.62 input  -65.29 | X-H torsion
[ 10718 10713 10712 10709 ] final  -30.85 input   66.30 | X-H torsion
[ 10763 10752 10751 10750 ] final -171.03 input  -60.55 | X-H torsion
[ 11005 11000 10999 10996 ] final -171.65 input  -57.11 | X-H torsion

> <Gold.Protein.ActiveResidues>
 VAL166  LYS551  ARG553  GLY616  TRP617  ASP618  TYR619  PRO620  LYS621  CYS622 
 ASP623  PHE694  ASN695  SER759  ASP760  ASP761  ALA762  ILE779  LEU786  VAL792 
 PHE793  MET794  SER795  GLU796  ALA797  LYS798  CYS799  TRP800  GLU811  SER814 

> <Gold.Protein.RotatedAtoms>
  150.7673  133.9273  159.3415 H   0  0  0  0  0  0  0  0  0  0  0  0  # atno 6907 bound_to 6896
  151.7167  135.0900  160.0286 H   0  0  0  0  0  0  0  0  0  0  0  0  # atno 6908 bound_to 6896
  152.3675  133.6338  159.6097 H   0  0  0  0  0  0  0  0  0  0  0  0  # atno 6909 bound_to 6896
  145.5721  139.2315  143.2400 H   0  0  0  0  0  0  0  0  0  0  0  0  # atno 7974 bound_to 7965
  155.1121  140.0397  157.2727 H   0  0  0  0  0  0  0  0  0  0  0  0  # atno 8008 bound_to 7997
  154.6677  140.2605  155.7014 H   0  0  0  0  0  0  0  0  0  0  0  0  # atno 8009 bound_to 7997
  156.2645  140.2804  156.1174 H   0  0  0  0  0  0  0  0  0  0  0  0  # atno 8010 bound_to 7997
  140.6303  143.8008  150.7287 H   0  0  0  0  0  0  0  0  0  0  0  0  # atno 10167 bound_to 10162
  156.3947  130.4379  149.7368 H   0  0  0  0  0  0  0  0  0  0  0  0  # atno 10718 bound_to 10713
  154.6350  135.2891  155.0172 H   0  0  0  0  0  0  0  0  0  0  0  0  # atno 10763 bound_to 10752
  154.1319  135.6532  153.4928 H   0  0  0  0  0  0  0  0  0  0  0  0  # atno 10764 bound_to 10752
  153.0298  135.5312  154.7192 H   0  0  0  0  0  0  0  0  0  0  0  0  # atno 10765 bound_to 10752
  140.5058  134.5849  157.5003 H   0  0  0  0  0  0  0  0  0  0  0  0  # atno 11005 bound_to 11000
  146.1776  140.6548  142.9204 LP  0  0  0  0  0  0  0  0  0  0  0  0  # atno 17320 bound_to 7965
  144.7433  140.5000  143.6854 LP  0  0  0  0  0  0  0  0  0  0  0  0  # atno 17321 bound_to 7965
  140.1617  143.4269  152.2062 LP  0  0  0  0  0  0  0  0  0  0  0  0  # atno 17342 bound_to 10162
  139.5518  144.7343  151.4411 LP  0  0  0  0  0  0  0  0  0  0  0  0  # atno 17343 bound_to 10162
  156.4408  130.7860  151.2881 LP  0  0  0  0  0  0  0  0  0  0  0  0  # atno 17370 bound_to 10713
  157.7501  131.0125  150.3389 LP  0  0  0  0  0  0  0  0  0  0  0  0  # atno 17371 bound_to 10713
  139.9687  134.7329  156.0086 LP  0  0  0  0  0  0  0  0  0  0  0  0  # atno 17394 bound_to 11000
  141.1411  133.6564  156.3734 LP  0  0  0  0  0  0  0  0  0  0  0  0  # atno 17395 bound_to 11000

$$$$
