AV-unprocessed.smi:465|AV-procd|sdf|2639|dock9
  -GOLD-   2262023 43D 1   1.00000     0.00000
 Structure written by MMmdl.
 42 44  0  0  0  0  0  0  0  0  1 V2000
  151.7857  145.5603  160.2603 C   0  0  0  0  0  0  0  0  0  0  0  0
  152.0487  144.1657  159.7307 C   0  0  0  0  0  0  0  0  0  0  0  0
  151.3531  143.6867  158.6031 C   0  0  0  0  0  0  0  0  0  0  0  0
  151.6070  142.3904  158.1151 C   0  0  0  0  0  0  0  0  0  0  0  0
  152.5558  141.5553  158.7401 C   0  0  0  0  0  0  0  0  0  0  0  0
  152.7444  140.3037  158.1938 O   0  0  0  0  0  0  0  0  0  0  0  0
  151.6609  139.7058  157.4964 C   0  0  0  0  0  0  0  0  0  0  0  0
  151.8115  140.0093  156.0012 C   0  0  0  0  0  0  0  0  0  0  0  0
  150.6643  139.5346  155.2431 N   0  0  0  0  0  0  0  0  0  0  0  0
  150.4174  138.2847  154.7736 C   0  0  0  0  0  0  0  0  0  0  0  0
  151.3543  137.1327  154.9962 C   0  0  0  0  0  0  0  0  0  0  0  0
  150.7522  136.0194  155.8684 C   0  0  0  0  0  0  0  0  0  0  0  0
  151.7595  135.3399  156.5877 O   0  0  0  0  0  0  0  0  0  0  0  0
  149.2765  138.1354  154.0987 N   0  0  0  0  0  0  0  0  0  0  0  0
  148.7355  139.4058  154.1282 C   0  0  0  0  0  0  0  0  0  0  0  0
  147.5307  139.9039  153.5823 C   0  0  0  0  0  0  0  0  0  0  0  0
  147.1839  141.2619  153.7390 C   0  0  0  0  0  0  0  0  0  0  0  0
  148.0349  142.1393  154.4419 C   0  0  0  0  0  0  0  0  0  0  0  0
  149.2396  141.6632  154.9942 C   0  0  0  0  0  0  0  0  0  0  0  0
  149.5806  140.3064  154.8359 C   0  0  0  0  0  0  0  0  0  0  0  0
  153.2507  142.0432  159.8756 C   0  0  0  0  0  0  0  0  0  0  0  0
  152.9975  143.3397  160.3642 C   0  0  0  0  0  0  0  0  0  0  0  0
  150.8831  145.9871  159.8222 H   0  0  0  0  0  0  0  0  0  0  0  0
  152.6240  146.2159  160.0240 H   0  0  0  0  0  0  0  0  0  0  0  0
  151.6599  145.5397  161.3431 H   0  0  0  0  0  0  0  0  0  0  0  0
  150.6240  144.3104  158.1070 H   0  0  0  0  0  0  0  0  0  0  0  0
  151.0686  142.0334  157.2495 H   0  0  0  0  0  0  0  0  0  0  0  0
  151.6624  138.6256  157.6521 H   0  0  0  0  0  0  0  0  0  0  0  0
  150.7129  140.1022  157.8633 H   0  0  0  0  0  0  0  0  0  0  0  0
  151.9453  141.0775  155.8351 H   0  0  0  0  0  0  0  0  0  0  0  0
  152.7085  139.5275  155.6113 H   0  0  0  0  0  0  0  0  0  0  0  0
  151.5978  136.7161  154.0182 H   0  0  0  0  0  0  0  0  0  0  0  0
  152.3028  137.4770  155.4078 H   0  0  0  0  0  0  0  0  0  0  0  0
  150.0069  136.4189  156.5571 H   0  0  0  0  0  0  0  0  0  0  0  0
  150.2461  135.2897  155.2359 H   0  0  0  0  0  0  0  0  0  0  0  0
  151.6896  135.5756  157.5002 H   0  0  0  0  0  0  0  0  0  0  0  0
  146.8728  139.2403  153.0408 H   0  0  0  0  0  0  0  0  0  0  0  0
  146.2610  141.6323  153.3174 H   0  0  0  0  0  0  0  0  0  0  0  0
  147.7621  143.1783  154.5566 H   0  0  0  0  0  0  0  0  0  0  0  0
  149.8939  142.3330  155.5320 H   0  0  0  0  0  0  0  0  0  0  0  0
  153.9848  141.4426  160.3905 H   0  0  0  0  0  0  0  0  0  0  0  0
  153.5362  143.6995  161.2286 H   0  0  0  0  0  0  0  0  0  0  0  0
  1  2  1  0  0  0  0
  1 23  1  0  0  0  0
  1 24  1  0  0  0  0
  1 25  1  0  0  0  0
  2 22  1  0  0  0  0
  2  3  2  0  0  0  0
  3  4  1  0  0  0  0
  3 26  1  0  0  0  0
  4  5  2  0  0  0  0
  4 27  1  0  0  0  0
  5  6  1  0  0  0  0
  5 21  1  0  0  0  0
  6  7  1  0  0  0  0
  7  8  1  0  0  0  0
  7 28  1  0  0  0  0
  7 29  1  0  0  0  0
  8  9  1  0  0  0  0
  8 30  1  0  0  0  0
  8 31  1  0  0  0  0
  9 20  1  0  0  0  0
  9 10  1  0  0  0  0
 10 11  1  0  0  0  0
 10 14  2  0  0  0  0
 11 12  1  0  0  0  0
 11 32  1  0  0  0  0
 11 33  1  0  0  0  0
 12 13  1  0  0  0  0
 12 34  1  0  0  0  0
 12 35  1  0  0  0  0
 13 36  1  0  0  0  0
 14 15  1  0  0  0  0
 15 20  2  0  0  0  0
 15 16  1  0  0  0  0
 16 17  2  0  0  0  0
 16 37  1  0  0  0  0
 17 18  1  0  0  0  0
 17 38  1  0  0  0  0
 18 19  2  0  0  0  0
 18 39  1  0  0  0  0
 19 20  1  0  0  0  0
 19 40  1  0  0  0  0
 21 22  2  0  0  0  0
 21 41  1  0  0  0  0
 22 42  1  0  0  0  0
M  END
> <s_m_source_file>
AV-unprocessed.smi

> <i_m_source_file_index>
465

> <i_lp_mmshare_version>
43012

> <i_f3d_flags>
0

> <s_epik_input>
W0NIM11jMVtjSF1bY0hdYyhbY0hdW2NIXTEpT1tDSDJdW0NIMl1uKGMobjIpW0NIMl1bQ0gyXVtPSF0pYyhjMjMpW2NIXVtjSF1bY0hdW2NIXTM=

> <s_epik_cmdline>
J2VwaWtfcHl0aG9uJywgJy1waCcsICc3LjAnLCAnLXRuJywgJzgnLCAnLW1hJywgJzIwMCcsICctbWV0YWxfYmluZGluZycsICctaW1hZScsICc8aW5maWxlLm1hZT4nLCAnLW9tYWUnLCAnPG91dGZpbGUubWFlPic=

> <r_lp_tautomer_probability>
1

> <r_epik_Ionization_Penalty>
0.207749

> <r_epik_Ionization_Penalty_Charging>
0

> <r_epik_Ionization_Penalty_Neutral>
0.207749

> <r_epik_State_Penalty>
0.197758

> <r_epik_Charging_Adjusted_Penalty>
0.197758

> <i_epik_Tot_Q>
0

> <i_epik_Tot_abs_Q>
0

> <r_epik_Metal_State_Penalty>
0.000234715

> <b_epik_Metal_Only>
0

> <s_lp_Force_Field>
OPLS_2005

> <r_lp_Energy>
16.7212

> <b_lp_Chiralities_Consistent>
1

> <s_lp_Variant>
AV-unprocessed.smi:465-1

> <Gold.Version>
5.8.1

> <Gold.Id.Protein>
6NUR|6NUR_protein|mol2

> <Gold.PLP.Fitness>
52.2163

> <Gold.PLP.PLP>
-48.7678

> <Gold.PLP.part.hbond>
-2.0000

> <Gold.PLP.part.metal>
0.0000

> <Gold.PLP.part.buried>
-0.4457

> <Gold.PLP.part.nonpolar>
-47.2683

> <Gold.PLP.part.repulsive>
2.1534

> <Gold.PLP.ligand.clash>
0.0000

> <Gold.PLP.ligand.torsion>
1.1305

> <Gold.PLP.Chemscore.Hbond>
1.8897

> <Gold.PLP.Chemscore.CHOScore>
0.0000

> <Gold.PLP.Chemscore.Metal>
0.0000

> <Gold.Chemscore.Hbonds>
donor molecule, donor type, donor heavy atom, donor atom, acceptor molecule, acceptor atom, score
      P1  H  7997  8008       L1     6  0.57
      P1  H 10752 10764       L1    13  0.88

> <Gold.PLP.Chemscore.Internal.Correction>
0.0404

> <Gold.Rescore>
     Score         DG    S(hbond)    S(metal)    S(lipo)     H(rot)  DE(clash)    DE(int)     intcor
     18.84     -21.61       1.66        0.00     140.38       2.28       1.51       1.25       ----

> <Gold.Chemscore.Fitness>
18.8410

> <Gold.Chemscore.DG>
-21.6054

> <Gold.Chemscore.ZeroCoef>
-5.4800

> <Gold.Chemscore.Hbond>
1.6596

> <Gold.Chemscore.Metal>
0.0000

> <Gold.Chemscore.Lipo>
140.3794

> <Gold.Chemscore.Internal_Hbond>
0.0000

> <Gold.Chemscore.DEClash>
1.5103

> <Gold.Chemscore.DEInternal>
1.2541

> <Gold.Chemscore.Rot>
2.2821

> <Gold.Chemscore.Internal.Correction>
   9.000000E+99

> <Gold.Chemscore.Hbonds>
donor molecule, donor type, donor heavy atom, donor atom, acceptor molecule, acceptor atom, score
      P1  H  7997  8008       L1     6  0.28
      P1  H 10752 10764       L1    13  0.25

> <Gold.Chemscore.Hbond.Weighted>
-5.5431

> <Gold.Chemscore.Metal.Weighted>
-0.0000

> <Gold.Chemscore.Lipo.Weighted>
-16.4244

> <Gold.Chemscore.Internal_Hbond.Weighted>
0.0000

> <Gold.Chemscore.DEClash.Weighted>
1.5103

> <Gold.Chemscore.DEInternal.Weighted>
1.2541

> <Gold.Chemscore.Rot.Weighted>
5.8421

> <Gold.Chemscore.Internal.Correction.Weighted>
   9.000000E+99

> <Gold.Protein.RotatedTorsions>
[ 6907 6896 6895 6894 ] final -137.79 input  -60.11 | X-H torsion
[ 7974 7965 7964 7962 ] final  -82.54 input  175.53 | X-H torsion
[ 8008 7997 7996 7995 ] final  -74.54 input   59.86 | X-H torsion
[ 10167 10162 10161 10158 ] final   77.37 input  -65.29 | X-H torsion
[ 10718 10713 10712 10709 ] final   17.24 input   66.30 | X-H torsion
[ 10763 10752 10751 10750 ] final  -13.26 input  -60.55 | X-H torsion
[ 11005 11000 10999 10996 ] final  119.76 input  -57.11 | X-H torsion

> <Gold.Protein.ActiveResidues>
 VAL166  LYS551  ARG553  GLY616  TRP617  ASP618  TYR619  PRO620  LYS621  CYS622 
 ASP623  PHE694  ASN695  SER759  ASP760  ASP761  ALA762  ILE779  LEU786  VAL792 
 PHE793  MET794  SER795  GLU796  ALA797  LYS798  CYS799  TRP800  GLU811  SER814 

> <Gold.Protein.RotatedAtoms>
  151.0268  133.5826  159.2664 H   0  0  0  0  0  0  0  0  0  0  0  0  # atno 6907 bound_to 6896
  151.2922  135.0744  159.9218 H   0  0  0  0  0  0  0  0  0  0  0  0  # atno 6908 bound_to 6896
  152.5336  133.9965  159.7929 H   0  0  0  0  0  0  0  0  0  0  0  0  # atno 6909 bound_to 6896
  145.5319  140.9520  143.1598 H   0  0  0  0  0  0  0  0  0  0  0  0  # atno 7974 bound_to 7965
  154.5339  140.0760  156.8393 H   0  0  0  0  0  0  0  0  0  0  0  0  # atno 8008 bound_to 7997
  155.3318  140.3402  155.4221 H   0  0  0  0  0  0  0  0  0  0  0  0  # atno 8009 bound_to 7997
  156.1809  140.1652  156.8263 H   0  0  0  0  0  0  0  0  0  0  0  0  # atno 8010 bound_to 7997
  139.9823  144.5817  150.7889 H   0  0  0  0  0  0  0  0  0  0  0  0  # atno 10167 bound_to 10162
  157.0793  130.6381  149.5823 H   0  0  0  0  0  0  0  0  0  0  0  0  # atno 10718 bound_to 10713
  153.5106  135.7016  153.5783 H   0  0  0  0  0  0  0  0  0  0  0  0  # atno 10763 bound_to 10752
  153.3875  135.3904  155.1900 H   0  0  0  0  0  0  0  0  0  0  0  0  # atno 10764 bound_to 10752
  154.8703  135.3850  154.4586 H   0  0  0  0  0  0  0  0  0  0  0  0  # atno 10765 bound_to 10752
  139.9159  134.9630  156.7705 H   0  0  0  0  0  0  0  0  0  0  0  0  # atno 11005 bound_to 11000
  144.7621  139.6931  143.7230 LP  0  0  0  0  0  0  0  0  0  0  0  0  # atno 17320 bound_to 7965
  146.2038  139.5350  142.9726 LP  0  0  0  0  0  0  0  0  0  0  0  0  # atno 17321 bound_to 7965
  140.7484  143.2922  151.3299 LP  0  0  0  0  0  0  0  0  0  0  0  0  # atno 17342 bound_to 10162
  139.6400  144.0557  152.2547 LP  0  0  0  0  0  0  0  0  0  0  0  0  # atno 17343 bound_to 10162
  155.9928  130.4987  150.7355 LP  0  0  0  0  0  0  0  0  0  0  0  0  # atno 17370 bound_to 10713
  157.4813  131.0902  151.0533 LP  0  0  0  0  0  0  0  0  0  0  0  0  # atno 17371 bound_to 10713
  140.6625  133.9632  155.7812 LP  0  0  0  0  0  0  0  0  0  0  0  0  # atno 17394 bound_to 11000
  141.0634  134.0313  157.3628 LP  0  0  0  0  0  0  0  0  0  0  0  0  # atno 17395 bound_to 11000

$$$$
