AV-unprocessed.smi:255|AV-procd|sdf|1951|dock1
  -GOLD-   2262021 93D 1   1.00000     0.00000
 Structure written by MMmdl.
 44 47  0  0  0  0  0  0  0  0  1 V2000
  150.0232  138.2161  153.4169 O   0  0  0  0  0  0  0  0  0  0  0  0
  150.7380  138.7876  154.4923 C   0  0  0  0  0  0  0  0  0  0  0  0
  149.7939  139.5956  155.4044 C   0  0  2  0  0  0  0  0  0  0  0  0
  149.3133  140.8963  154.7594 C   0  0  0  0  0  0  0  0  0  0  0  0
  148.8453  141.7061  155.9643 C   0  0  1  0  0  0  0  0  0  0  0  0
  147.6024  141.3462  156.2887 F   0  0  0  0  0  0  0  0  0  0  0  0
  149.8036  141.2795  157.0819 C   0  0  0  0  0  0  0  0  0  0  0  0
  150.4299  140.0314  156.6454 N   0  0  0  0  0  0  0  0  0  0  0  0
  150.5514  139.0617  157.5805 C   0  0  0  0  0  0  0  0  0  0  0  0
  151.7806  138.6912  158.0277 N   0  0  0  0  0  0  0  0  0  0  0  0
  151.8921  137.7475  158.9675 C   0  0  0  0  0  0  0  0  0  0  0  0
  150.9250  137.0661  159.5861 N   0  0  0  0  0  0  0  0  0  0  0  0
  149.6910  137.4457  159.1457 C   0  0  0  0  0  0  0  0  0  0  0  0
  149.4180  138.4250  158.1507 C   0  0  0  0  0  0  0  0  0  0  0  0
  148.0473  138.5421  157.9580 N   0  0  0  0  0  0  0  0  0  0  0  0
  147.5374  137.6810  158.7960 C   0  0  0  0  0  0  0  0  0  0  0  0
  148.4518  136.9845  159.5546 N   0  0  0  0  0  0  0  0  0  0  0  0
  148.1606  135.9753  160.5610 C   0  0  0  0  0  0  0  0  0  0  0  0
  147.3038  136.5046  161.7350 C   0  0  1  0  0  0  0  0  0  0  0  0
  147.8350  137.7415  162.1765 O   0  0  0  0  0  0  0  0  0  0  0  0
  145.8301  136.7081  161.3908 C   0  0  0  0  0  0  0  0  0  0  0  0
  145.1246  136.3795  162.6990 C   0  0  0  0  0  0  0  0  0  0  0  0
  145.8756  135.2792  163.1814 O   0  0  0  0  0  0  0  0  0  0  0  0
  147.2538  135.5390  162.9365 C   0  0  0  0  0  0  0  0  0  0  0  0
  148.9117  138.9960  155.6387 H   0  0  0  0  0  0  0  0  0  0  0  0
  148.8399  142.7819  155.7882 H   0  0  0  0  0  0  0  0  0  0  0  0
  149.8028  138.9015  152.8050 H   0  0  0  0  0  0  0  0  0  0  0  0
  151.2753  138.0188  155.0486 H   0  0  0  0  0  0  0  0  0  0  0  0
  151.4885  139.4473  154.0560 H   0  0  0  0  0  0  0  0  0  0  0  0
  150.1457  141.4078  154.2733 H   0  0  0  0  0  0  0  0  0  0  0  0
  148.5303  140.7410  154.0164 H   0  0  0  0  0  0  0  0  0  0  0  0
  150.5956  142.0209  157.1911 H   0  0  0  0  0  0  0  0  0  0  0  0
  149.2943  141.2128  158.0442 H   0  0  0  0  0  0  0  0  0  0  0  0
  152.9005  137.5055  159.2690 H   0  0  0  0  0  0  0  0  0  0  0  0
  146.4713  137.5320  158.8862 H   0  0  0  0  0  0  0  0  0  0  0  0
  147.6478  135.1480  160.0682 H   0  0  0  0  0  0  0  0  0  0  0  0
  149.1042  135.5717  160.9307 H   0  0  0  0  0  0  0  0  0  0  0  0
  147.6266  137.8489  163.0919 H   0  0  0  0  0  0  0  0  0  0  0  0
  145.5979  137.7052  161.0133 H   0  0  0  0  0  0  0  0  0  0  0  0
  145.5153  135.9866  160.6360 H   0  0  0  0  0  0  0  0  0  0  0  0
  145.1907  137.2105  163.4031 H   0  0  0  0  0  0  0  0  0  0  0  0
  144.0742  136.1229  162.5614 H   0  0  0  0  0  0  0  0  0  0  0  0
  147.7691  134.5985  162.7393 H   0  0  0  0  0  0  0  0  0  0  0  0
  147.7026  135.9739  163.8312 H   0  0  0  0  0  0  0  0  0  0  0  0
  1  2  1  0  0  0  0
  1 27  1  0  0  0  0
  2  3  1  0  0  0  0
  2 28  1  0  0  0  0
  2 29  1  0  0  0  0
  3 25  1  0  0  0  0
  3  8  1  0  0  0  0
  3  4  1  0  0  0  0
  4  5  1  0  0  0  0
  4 30  1  0  0  0  0
  4 31  1  0  0  0  0
  5 26  1  0  0  0  0
  5  6  1  0  0  0  0
  5  7  1  0  0  0  0
  7  8  1  0  0  0  0
  7 32  1  0  0  0  0
  7 33  1  0  0  0  0
  8  9  1  0  0  0  0
  9 14  1  0  0  0  0
  9 10  2  0  0  0  0
 10 11  1  0  0  0  0
 11 12  2  0  0  0  0
 11 34  1  0  0  0  0
 12 13  1  0  0  0  0
 13 17  1  0  0  0  0
 13 14  2  0  0  0  0
 14 15  1  0  0  0  0
 15 16  2  0  0  0  0
 16 17  1  0  0  0  0
 16 35  1  0  0  0  0
 17 18  1  0  0  0  0
 18 19  1  0  0  0  0
 18 36  1  0  0  0  0
 18 37  1  0  0  0  0
 19 24  1  0  0  0  0
 19 20  1  0  0  0  0
 19 21  1  0  0  0  0
 20 38  1  0  0  0  0
 21 22  1  0  0  0  0
 21 39  1  0  0  0  0
 21 40  1  0  0  0  0
 22 23  1  0  0  0  0
 22 41  1  0  0  0  0
 22 42  1  0  0  0  0
 23 24  1  0  0  0  0
 24 43  1  0  0  0  0
 24 44  1  0  0  0  0
M  END
> <s_m_source_file>
AV-unprocessed.smi

> <i_m_source_file_index>
255

> <i_lp_mmshare_version>
43012

> <i_f3d_flags>
0

> <s_epik_input>
W09IXVtDSDJdW0NAQEhdMVtDSDJdW0NASF0oRilbQ0gyXU4xYyhuW2NIXW4yKWMoYzIzKW5bY0hdbjNbQ0gyXVtDQEBdNChbT0hdKVtDSDJdW0NIMl1PW0NIMl00

> <s_epik_cmdline>
J2VwaWtfcHl0aG9uJywgJy1waCcsICc3LjAnLCAnLXRuJywgJzgnLCAnLW1hJywgJzIwMCcsICctbWV0YWxfYmluZGluZycsICctaW1hZScsICc8aW5maWxlLm1hZT4nLCAnLW9tYWUnLCAnPG91dGZpbGUubWFlPic=

> <r_lp_tautomer_probability>
1

> <r_epik_Ionization_Penalty>
0.0058098

> <r_epik_Ionization_Penalty_Charging>
0

> <r_epik_Ionization_Penalty_Neutral>
0.0058098

> <r_epik_State_Penalty>
0.00411166

> <r_epik_Charging_Adjusted_Penalty>
0.00411166

> <i_epik_Tot_Q>
0

> <i_epik_Tot_abs_Q>
0

> <r_epik_Metal_State_Penalty>
-0

> <b_epik_Metal_Only>
0

> <s_lp_Force_Field>
OPLS_2005

> <r_lp_Energy>
53.4607

> <b_lp_Chiralities_Consistent>
1

> <s_lp_Variant>
AV-unprocessed.smi:255-3

> <Gold.Version>
5.8.1

> <Gold.Id.Protein>
6NUR|6NUR_protein|mol2

> <Gold.PLP.Fitness>
45.4809

> <Gold.PLP.PLP>
-35.3936

> <Gold.PLP.part.hbond>
-5.9653

> <Gold.PLP.part.metal>
0.0000

> <Gold.PLP.part.buried>
-4.4682

> <Gold.PLP.part.nonpolar>
-25.3887

> <Gold.PLP.part.repulsive>
0.0040

> <Gold.PLP.ligand.clash>
0.0000

> <Gold.PLP.ligand.torsion>
0.2367

> <Gold.PLP.Chemscore.Hbond>
3.4670

> <Gold.PLP.Chemscore.CHOScore>
0.0000

> <Gold.PLP.Chemscore.Metal>
0.0000

> <Gold.Chemscore.Hbonds>
donor molecule, donor type, donor heavy atom, donor atom, acceptor molecule, acceptor atom, score
      L1  H     1    27       P1  7957  1.00
      P1  H  6896  6907       L1    12  1.00
      P1  H  6931  6943       L1    20  0.31
      P1  H  6934  6947       L1    20  0.34

> <Gold.PLP.Chemscore.Internal.Correction>
0.1599

> <Gold.Rescore>
     Score         DG    S(hbond)    S(metal)    S(lipo)     H(rot)  DE(clash)    DE(int)     intcor
     13.72     -14.02       2.79        0.00      66.14       3.33       0.02       0.29       ----

> <Gold.Chemscore.Fitness>
13.7163

> <Gold.Chemscore.DG>
-14.0228

> <Gold.Chemscore.ZeroCoef>
-5.4800

> <Gold.Chemscore.Hbond>
2.7911

> <Gold.Chemscore.Metal>
0.0000

> <Gold.Chemscore.Lipo>
66.1422

> <Gold.Chemscore.Internal_Hbond>
0.0000

> <Gold.Chemscore.DEClash>
0.0174

> <Gold.Chemscore.DEInternal>
0.2892

> <Gold.Chemscore.Rot>
3.3273

> <Gold.Chemscore.Internal.Correction>
   9.000000E+99

> <Gold.Chemscore.Hbonds>
donor molecule, donor type, donor heavy atom, donor atom, acceptor molecule, acceptor atom, score
      L1  H     1    27       P1  7957  0.82
      P1  H  6896  6907       L1    12  0.85
      P1  H  6931  6943       L1    20  0.22
      P1  H  6934  6947       L1    20  0.18

> <Gold.Chemscore.Hbond.Weighted>
-9.3221

> <Gold.Chemscore.Metal.Weighted>
-0.0000

> <Gold.Chemscore.Lipo.Weighted>
-7.7386

> <Gold.Chemscore.Internal_Hbond.Weighted>
0.0000

> <Gold.Chemscore.DEClash.Weighted>
0.0174

> <Gold.Chemscore.DEInternal.Weighted>
0.2892

> <Gold.Chemscore.Rot.Weighted>
8.5179

> <Gold.Chemscore.Internal.Correction.Weighted>
   9.000000E+99

> <Gold.Protein.RotatedTorsions>
[ 6907 6896 6895 6894 ] final  -11.24 input  -60.11 | X-H torsion
[ 7974 7965 7964 7962 ] final  -22.90 input  175.53 | X-H torsion
[ 8008 7997 7996 7995 ] final    4.19 input   59.86 | X-H torsion
[ 10167 10162 10161 10158 ] final  -58.92 input  -65.29 | X-H torsion
[ 10718 10713 10712 10709 ] final -178.36 input   66.30 | X-H torsion
[ 10763 10752 10751 10750 ] final -136.99 input  -60.55 | X-H torsion
[ 11005 11000 10999 10996 ] final  156.58 input  -57.11 | X-H torsion

> <Gold.Protein.ActiveResidues>
 VAL166  LYS551  ARG553  GLY616  TRP617  ASP618  TYR619  PRO620  LYS621  CYS622 
 ASP623  PHE694  ASN695  SER759  ASP760  ASP761  ALA762  ILE779  LEU786  VAL792 
 PHE793  MET794  SER795  GLU796  ALA797  LYS798  CYS799  TRP800  GLU811  SER814 

> <Gold.Protein.RotatedAtoms>
  151.3894  135.0953  159.9521 H   0  0  0  0  0  0  0  0  0  0  0  0  # atno 6907 bound_to 6896
  152.5084  133.8995  159.7444 H   0  0  0  0  0  0  0  0  0  0  0  0  # atno 6908 bound_to 6896
  150.9445  133.6563  159.2813 H   0  0  0  0  0  0  0  0  0  0  0  0  # atno 6909 bound_to 6896
  146.1648  140.4542  142.8556 H   0  0  0  0  0  0  0  0  0  0  0  0  # atno 7974 bound_to 7965
  154.7129  140.2696  155.6613 H   0  0  0  0  0  0  0  0  0  0  0  0  # atno 8008 bound_to 7997
  156.2801  140.2750  156.1700 H   0  0  0  0  0  0  0  0  0  0  0  0  # atno 8009 bound_to 7997
  155.0611  140.0371  157.2567 H   0  0  0  0  0  0  0  0  0  0  0  0  # atno 8010 bound_to 7997
  140.6168  143.2405  151.5579 H   0  0  0  0  0  0  0  0  0  0  0  0  # atno 10167 bound_to 10162
  156.8431  130.9693  151.3098 H   0  0  0  0  0  0  0  0  0  0  0  0  # atno 10718 bound_to 10713
  154.8672  135.3656  154.5150 H   0  0  0  0  0  0  0  0  0  0  0  0  # atno 10763 bound_to 10752
  153.5783  135.7019  153.5479 H   0  0  0  0  0  0  0  0  0  0  0  0  # atno 10764 bound_to 10752
  153.3480  135.4080  155.1586 H   0  0  0  0  0  0  0  0  0  0  0  0  # atno 10765 bound_to 10752
  140.1688  134.8558  157.2665 H   0  0  0  0  0  0  0  0  0  0  0  0  # atno 11005 bound_to 11000
  144.8078  140.6330  143.6436 LP  0  0  0  0  0  0  0  0  0  0  0  0  # atno 17320 bound_to 7965
  145.4494  139.1525  143.3926 LP  0  0  0  0  0  0  0  0  0  0  0  0  # atno 17321 bound_to 7965
  139.5405  144.2661  152.1340 LP  0  0  0  0  0  0  0  0  0  0  0  0  # atno 17342 bound_to 10162
  140.1872  144.4787  150.6497 LP  0  0  0  0  0  0  0  0  0  0  0  0  # atno 17343 bound_to 10162
  157.6345  130.8755  149.9333 LP  0  0  0  0  0  0  0  0  0  0  0  0  # atno 17370 bound_to 10713
  156.0869  130.3667  150.0469 LP  0  0  0  0  0  0  0  0  0  0  0  0  # atno 17371 bound_to 10713
  140.2402  134.3805  155.7484 LP  0  0  0  0  0  0  0  0  0  0  0  0  # atno 17394 bound_to 11000
  141.2216  133.7261  156.8777 LP  0  0  0  0  0  0  0  0  0  0  0  0  # atno 17395 bound_to 11000

$$$$
