AV-unprocessed.smi:1698|AV-procd|sdf|6814|dock2
  -GOLD-   22720 7593D 1   1.00000     0.00000
 Structure written by MMmdl.
 28 29  0  0  0  0  0  0  0  0  1 V2000
  146.5011  133.0030  153.7013 O   0  0  0  0  0  0  0  0  0  0  0  0
  147.1314  133.8293  153.0445 C   0  0  0  0  0  0  0  0  0  0  0  0
  146.8119  134.2130  151.7939 N   0  0  0  0  0  0  0  0  0  0  0  0
  145.7279  133.7603  151.0008 C   0  0  0  0  0  0  0  0  0  0  0  0
  145.7876  132.6600  150.1030 C   0  0  0  0  0  0  0  0  0  0  0  0
  144.6246  132.4666  149.4974 N   0  0  0  0  0  0  0  0  0  0  0  0
  143.8234  133.4329  150.0001 N   0  0  0  0  0  0  0  0  0  0  0  0
  144.4523  134.2442  150.9187 C   0  0  0  0  0  0  0  0  0  0  0  0
  148.2278  134.4273  153.5447 N   0  0  0  0  0  0  0  0  0  0  0  0
  148.8429  134.2404  154.8597 C   0  0  1  0  0  0  0  0  0  0  0  0
  149.9301  133.1507  154.8082 C   0  0  0  0  0  0  0  0  0  0  0  0
  150.7768  133.2363  156.0847 C   0  0  0  0  0  0  0  0  0  0  0  0
  150.7592  134.9982  156.5908 S   0  0  0  0  0  0  0  0  0  0  0  0
  150.1987  135.0973  157.9469 O   0  0  0  0  0  0  0  0  0  0  0  0
  152.0479  135.6226  156.2561 O   0  0  0  0  0  0  0  0  0  0  0  0
  149.4998  135.5323  155.3728 C   0  0  0  0  0  0  0  0  0  0  0  0
  142.8603  133.5250  149.7097 H   0  0  0  0  0  0  0  0  0  0  0  0
  147.4136  134.8996  151.3634 H   0  0  0  0  0  0  0  0  0  0  0  0
  146.6185  132.0085  149.8758 H   0  0  0  0  0  0  0  0  0  0  0  0
  143.9464  135.0620  151.4100 H   0  0  0  0  0  0  0  0  0  0  0  0
  148.6962  135.0807  152.9335 H   0  0  0  0  0  0  0  0  0  0  0  0
  148.0909  133.9159  155.5814 H   0  0  0  0  0  0  0  0  0  0  0  0
  149.5023  132.1560  154.6786 H   0  0  0  0  0  0  0  0  0  0  0  0
  150.5783  133.3310  153.9490 H   0  0  0  0  0  0  0  0  0  0  0  0
  150.3269  132.6523  156.8879 H   0  0  0  0  0  0  0  0  0  0  0  0
  151.8019  132.8958  155.9386 H   0  0  0  0  0  0  0  0  0  0  0  0
  150.0172  136.0579  154.5693 H   0  0  0  0  0  0  0  0  0  0  0  0
  148.7951  136.2203  155.8402 H   0  0  0  0  0  0  0  0  0  0  0  0
  1  2  2  0  0  0  0
  2  3  1  0  0  0  0
  2  9  1  0  0  0  0
  3  4  1  0  0  0  0
  3 18  1  0  0  0  0
  4  8  2  0  0  0  0
  4  5  1  0  0  0  0
  5  6  2  0  0  0  0
  5 19  1  0  0  0  0
  6  7  1  0  0  0  0
  7 17  1  0  0  0  0
  7  8  1  0  0  0  0
  8 20  1  0  0  0  0
  9 10  1  0  0  0  0
  9 21  1  0  0  0  0
 10 16  1  0  0  0  0
 10 11  1  0  0  0  0
 10 22  1  0  0  0  0
 11 12  1  0  0  0  0
 11 23  1  0  0  0  0
 11 24  1  0  0  0  0
 12 13  1  0  0  0  0
 12 25  1  0  0  0  0
 12 26  1  0  0  0  0
 13 14  2  0  0  0  0
 13 15  2  0  0  0  0
 13 16  1  0  0  0  0
 16 27  1  0  0  0  0
 16 28  1  0  0  0  0
M  END
> <s_m_source_file>
AV-unprocessed.smi

> <i_m_source_file_index>
1698

> <i_lp_mmshare_version>
43012

> <i_f3d_flags>
0

> <s_epik_input>
Tz1TMSg9TylbQ0gyXVtDSDJdW0NASF0oW0NIMl0xKVtOSF1DKD1PKVtOSF1jMltjSF1uW25IXVtjSF0y

> <s_epik_cmdline>
J2VwaWtfcHl0aG9uJywgJy1waCcsICc3LjAnLCAnLXRuJywgJzgnLCAnLW1hJywgJzIwMCcsICctbWV0YWxfYmluZGluZycsICctaW1hZScsICc8aW5maWxlLm1hZT4nLCAnLW9tYWUnLCAnPG91dGZpbGUubWFlPic=

> <r_lp_tautomer_probability>
1

> <r_epik_Ionization_Penalty>
3.85517e-05

> <r_epik_Ionization_Penalty_Charging>
0

> <r_epik_Ionization_Penalty_Neutral>
3.85517e-05

> <r_epik_State_Penalty>
-0

> <r_epik_Charging_Adjusted_Penalty>
0

> <i_epik_Tot_Q>
0

> <i_epik_Tot_abs_Q>
0

> <r_epik_Metal_State_Penalty>
-0

> <b_epik_Metal_Only>
0

> <s_lp_Force_Field>
OPLS_2005

> <r_lp_Energy>
17.454

> <b_lp_Chiralities_Consistent>
1

> <s_lp_Variant>
AV-unprocessed.smi:1698-2

> <Gold.Version>
5.8.1

> <Gold.Id.Protein>
6NUR|6NUR_protein|mol2

> <Gold.PLP.Fitness>
36.7785

> <Gold.PLP.PLP>
-22.9814

> <Gold.PLP.part.hbond>
-4.9972

> <Gold.PLP.part.metal>
0.0000

> <Gold.PLP.part.buried>
-3.7714

> <Gold.PLP.part.nonpolar>
-14.5737

> <Gold.PLP.part.repulsive>
0.3546

> <Gold.PLP.ligand.clash>
0.0000

> <Gold.PLP.ligand.torsion>
1.1197

> <Gold.PLP.Chemscore.Hbond>
4.6063

> <Gold.PLP.Chemscore.CHOScore>
0.7392

> <Gold.PLP.Chemscore.Metal>
0.0000

> <Gold.Chemscore.Hbonds>
donor molecule, donor type, donor heavy atom, donor atom, acceptor molecule, acceptor atom, score
      L1  H     3    18       P1  7948  0.82
      L1  H     7    17       P1 10186  0.91
      L1  H     9    21       P1  7948  1.00
      P1  H  6896  6907       L1    14  0.74
      P1  H 10752 10763       L1    15  1.00
      L1  C     5    19       P1 10747  0.72

> <Gold.PLP.Chemscore.Internal.Correction>
0.0001

> <Gold.Rescore>
     Score         DG    S(hbond)    S(metal)    S(lipo)     H(rot)  DE(clash)    DE(int)     intcor
     21.55     -22.68       4.61        0.00      37.40       1.00       0.02       1.12       ----

> <Gold.Chemscore.Fitness>
21.5481

> <Gold.Chemscore.DG>
-22.6802

> <Gold.Chemscore.ZeroCoef>
-5.4800

> <Gold.Chemscore.Hbond>
4.6062

> <Gold.Chemscore.Metal>
0.0000

> <Gold.Chemscore.Lipo>
37.3984

> <Gold.Chemscore.Internal_Hbond>
0.0000

> <Gold.Chemscore.DEClash>
0.0158

> <Gold.Chemscore.DEInternal>
1.1164

> <Gold.Chemscore.Rot>
1.0000

> <Gold.Chemscore.Internal.Correction>
   9.000000E+99

> <Gold.Chemscore.Hbonds>
donor molecule, donor type, donor heavy atom, donor atom, acceptor molecule, acceptor atom, score
      L1  H     3    18       P1  7948  0.34
      L1  H     7    17       P1 10186  0.88
      L1  H     9    21       P1  7948  0.43
      P1  H  6896  6907       L1    14  0.74
      P1  H 10752 10763       L1    15  0.99

> <Gold.Chemscore.Hbond.Weighted>
-15.3846

> <Gold.Chemscore.Metal.Weighted>
-0.0000

> <Gold.Chemscore.Lipo.Weighted>
-4.3756

> <Gold.Chemscore.Internal_Hbond.Weighted>
0.0000

> <Gold.Chemscore.DEClash.Weighted>
0.0158

> <Gold.Chemscore.DEInternal.Weighted>
1.1164

> <Gold.Chemscore.Rot.Weighted>
2.5600

> <Gold.Chemscore.Internal.Correction.Weighted>
   9.000000E+99

> <Gold.Protein.RotatedTorsions>
[ 6907 6896 6895 6894 ] final  -72.61 input  -60.11 | X-H torsion
[ 7974 7965 7964 7962 ] final   49.76 input  175.53 | X-H torsion
[ 8008 7997 7996 7995 ] final -119.58 input   59.86 | X-H torsion
[ 10167 10162 10161 10158 ] final   -5.81 input  -65.29 | X-H torsion
[ 10718 10713 10712 10709 ] final  170.58 input   66.30 | X-H torsion
[ 10763 10752 10751 10750 ] final   80.24 input  -60.55 | X-H torsion
[ 11005 11000 10999 10996 ] final   99.98 input  -57.11 | X-H torsion

> <Gold.Protein.ActiveResidues>
 VAL166  LYS551  ARG553  GLY616  TRP617  ASP618  TYR619  PRO620  LYS621  CYS622 
 ASP623  PHE694  ASN695  SER759  ASP760  ASP761  ALA762  ILE779  LEU786  VAL792 
 PHE793  MET794  SER795  GLU796  ALA797  LYS798  CYS799  TRP800  GLU811  SER814 

> <Gold.Protein.RotatedAtoms>
  150.7163  134.5137  159.5619 H   0  0  0  0  0  0  0  0  0  0  0  0  # atno 6907 bound_to 6896
  152.2708  134.7932  160.0423 H   0  0  0  0  0  0  0  0  0  0  0  0  # atno 6908 bound_to 6896
  151.8612  133.3422  159.3741 H   0  0  0  0  0  0  0  0  0  0  0  0  # atno 6909 bound_to 6896
  146.0077  139.4509  142.9975 H   0  0  0  0  0  0  0  0  0  0  0  0  # atno 7974 bound_to 7965
  155.1181  140.0398  157.2742 H   0  0  0  0  0  0  0  0  0  0  0  0  # atno 8008 bound_to 7997
  154.6634  140.2596  155.7058 H   0  0  0  0  0  0  0  0  0  0  0  0  # atno 8009 bound_to 7997
  156.2629  140.2812  156.1115 H   0  0  0  0  0  0  0  0  0  0  0  0  # atno 8010 bound_to 7997
  140.6976  143.6265  150.8563 H   0  0  0  0  0  0  0  0  0  0  0  0  # atno 10167 bound_to 10162
  157.0060  131.0190  151.2817 H   0  0  0  0  0  0  0  0  0  0  0  0  # atno 10718 bound_to 10713
  153.1018  135.4810  154.8880 H   0  0  0  0  0  0  0  0  0  0  0  0  # atno 10763 bound_to 10752
  154.7387  135.3077  154.8769 H   0  0  0  0  0  0  0  0  0  0  0  0  # atno 10764 bound_to 10752
  153.9384  135.6837  153.4798 H   0  0  0  0  0  0  0  0  0  0  0  0  # atno 10765 bound_to 10752
  139.8771  134.9120  156.4687 H   0  0  0  0  0  0  0  0  0  0  0  0  # atno 11005 bound_to 11000
  145.7390  141.0015  143.1311 LP  0  0  0  0  0  0  0  0  0  0  0  0  # atno 17320 bound_to 7965
  144.6942  139.9076  143.7462 LP  0  0  0  0  0  0  0  0  0  0  0  0  # atno 17321 bound_to 7965
  139.9984  143.5770  152.2884 LP  0  0  0  0  0  0  0  0  0  0  0  0  # atno 17342 bound_to 10162
  139.6451  144.7657  151.2260 LP  0  0  0  0  0  0  0  0  0  0  0  0  # atno 17343 bound_to 10162
  157.5355  130.8086  149.7967 LP  0  0  0  0  0  0  0  0  0  0  0  0  # atno 17370 bound_to 10713
  156.0153  130.3816  150.2130 LP  0  0  0  0  0  0  0  0  0  0  0  0  # atno 17371 bound_to 10713
  140.8811  133.7917  155.9468 LP  0  0  0  0  0  0  0  0  0  0  0  0  # atno 17394 bound_to 11000
  140.8853  134.2562  157.5123 LP  0  0  0  0  0  0  0  0  0  0  0  0  # atno 17395 bound_to 11000

$$$$
