AV-unprocessed.smi:3222|AV-procd|sdf|12304|dock10
  -GOLD-   2272018143D 1   1.00000     0.00000
 Structure written by MMmdl.
 41 42  0  0  0  0  0  0  0  0  2 V2000
  149.4899  141.3999  154.7779 C   0  0  0  0  0  0  0  0  0  0  0  0
  148.6068  141.1844  156.0258 C   0  0  1  0  0  0  0  0  0  0  0  0
  148.6461  142.3806  156.8995 N   0  3  0  0  0  0  0  0  0  0  0  0
  149.5846  142.3075  158.0384 C   0  0  0  0  0  0  0  0  0  0  0  0
  151.0354  142.1972  157.5444 C   0  0  0  0  0  0  0  0  0  0  0  0
  151.9769  142.1189  158.6579 N   0  0  0  0  0  0  0  0  0  0  0  0
  152.0921  143.2073  159.6141 C   0  0  0  0  0  0  0  0  0  0  0  0
  153.0396  142.6844  160.7041 C   0  0  0  0  0  0  0  0  0  0  0  0
  153.6692  141.4070  160.1367 C   0  0  0  0  0  0  0  0  0  0  0  0
  152.8350  141.1210  158.8999 C   0  0  0  0  0  0  0  0  0  0  0  0
  152.9591  140.0958  158.2314 O   0  0  0  0  0  0  0  0  0  0  0  0
  147.1334  140.8464  155.6693 C   0  0  2  0  0  0  0  0  0  0  0  0
  147.0147  139.6170  154.7474 C   0  0  0  0  0  0  0  0  0  0  0  0
  146.4313  141.9791  155.0777 N   0  0  0  0  0  0  0  0  0  0  0  0
  146.5222  142.4620  153.7882 C   0  0  0  0  0  0  0  0  0  0  0  0
  145.6869  143.5381  153.6949 C   0  0  0  0  0  0  0  0  0  0  0  0
  145.1231  143.6427  154.9967 C   0  0  0  0  0  0  0  0  0  0  0  0
  145.5719  142.7115  155.8225 N   0  0  0  0  0  0  0  0  0  0  0  0
  149.5256  140.5108  154.1483 H   0  0  0  0  0  0  0  0  0  0  0  0
  150.5217  141.6265  155.0439 H   0  0  0  0  0  0  0  0  0  0  0  0
  149.1160  142.2220  154.1668 H   0  0  0  0  0  0  0  0  0  0  0  0
  149.0146  140.3433  156.5890 H   0  0  0  0  0  0  0  0  0  0  0  0
  148.8631  143.1918  156.3384 H   0  0  0  0  0  0  0  0  0  0  0  0
  149.4745  143.1995  158.6565 H   0  0  0  0  0  0  0  0  0  0  0  0
  149.3366  141.4494  158.6625 H   0  0  0  0  0  0  0  0  0  0  0  0
  151.1536  141.3150  156.9129 H   0  0  0  0  0  0  0  0  0  0  0  0
  151.2841  143.0573  156.9210 H   0  0  0  0  0  0  0  0  0  0  0  0
  152.5120  144.0832  159.1178 H   0  0  0  0  0  0  0  0  0  0  0  0
  151.1179  143.4789  160.0230 H   0  0  0  0  0  0  0  0  0  0  0  0
  153.7946  143.4253  160.9691 H   0  0  0  0  0  0  0  0  0  0  0  0
  152.4784  142.4515  161.6100 H   0  0  0  0  0  0  0  0  0  0  0  0
  154.7080  141.5688  159.8468 H   0  0  0  0  0  0  0  0  0  0  0  0
  153.6272  140.5784  160.8445 H   0  0  0  0  0  0  0  0  0  0  0  0
  146.6114  140.6106  156.5983 H   0  0  0  0  0  0  0  0  0  0  0  0
  147.4208  138.7210  155.2165 H   0  0  0  0  0  0  0  0  0  0  0  0
  147.5464  139.7684  153.8075 H   0  0  0  0  0  0  0  0  0  0  0  0
  145.9714  139.4096  154.5070 H   0  0  0  0  0  0  0  0  0  0  0  0
  147.1654  142.0051  153.0506 H   0  0  0  0  0  0  0  0  0  0  0  0
  145.5072  144.1576  152.8288 H   0  0  0  0  0  0  0  0  0  0  0  0
  144.4069  144.3632  155.3636 H   0  0  0  0  0  0  0  0  0  0  0  0
  147.7206  142.4988  157.2865 H   0  0  0  0  0  0  0  0  0  0  0  0
  1  2  1  0  0  0  0
  1 19  1  0  0  0  0
  1 20  1  0  0  0  0
  1 21  1  0  0  0  0
  2  3  1  0  0  0  0
  2 12  1  0  0  0  0
  2 22  1  0  0  0  0
  3  4  1  0  0  0  0
  3 23  1  0  0  0  0
  3 41  1  0  0  0  0
  4  5  1  0  0  0  0
  4 24  1  0  0  0  0
  4 25  1  0  0  0  0
  5  6  1  0  0  0  0
  5 26  1  0  0  0  0
  5 27  1  0  0  0  0
  6 10  1  0  0  0  0
  6  7  1  0  0  0  0
  7  8  1  0  0  0  0
  7 28  1  0  0  0  0
  7 29  1  0  0  0  0
  8  9  1  0  0  0  0
  8 30  1  0  0  0  0
  8 31  1  0  0  0  0
  9 10  1  0  0  0  0
  9 32  1  0  0  0  0
  9 33  1  0  0  0  0
 10 11  2  0  0  0  0
 12 13  1  0  0  0  0
 12 14  1  0  0  0  0
 12 34  1  0  0  0  0
 13 35  1  0  0  0  0
 13 36  1  0  0  0  0
 13 37  1  0  0  0  0
 14 18  1  0  0  0  0
 14 15  1  0  0  0  0
 15 16  2  0  0  0  0
 15 38  1  0  0  0  0
 16 17  1  0  0  0  0
 16 39  1  0  0  0  0
 17 18  2  0  0  0  0
 17 40  1  0  0  0  0
M  CHG  1   3   1
M  END
> <s_m_source_file>
AV-unprocessed.smi

> <i_m_source_file_index>
3222

> <i_lp_mmshare_version>
43012

> <i_f3d_flags>
0

> <s_epik_input>
bjFbY0hdW2NIXVtjSF1uMVtDQEBIXShbQ0gzXSlbQ0BIXShbQ0gzXSlbTkhdW0NIMl1bQ0gyXU4yW0NIMl1bQ0gyXVtDSDJdQzI9Tw==

> <s_epik_cmdline>
J2VwaWtfcHl0aG9uJywgJy1waCcsICc3LjAnLCAnLXRuJywgJzgnLCAnLW1hJywgJzIwMCcsICctbWV0YWxfYmluZGluZycsICctaW1hZScsICc8aW5maWxlLm1hZT4nLCAnLW9tYWUnLCAnPG91dGZpbGUubWFlPic=

> <r_lp_tautomer_probability>
1

> <r_epik_Ionization_Penalty>
0.0064019

> <r_epik_Ionization_Penalty_Charging>
0.00639164

> <r_epik_Ionization_Penalty_Neutral>
1.02567e-05

> <r_epik_State_Penalty>
0.00472531

> <r_epik_Charging_Adjusted_Penalty>
0.011117

> <i_epik_Tot_Q>
1

> <i_epik_Tot_abs_Q>
1

> <r_epik_Metal_State_Penalty>
-0

> <b_epik_Metal_Only>
0

> <s_lp_Force_Field>
OPLS_2005

> <r_lp_Energy>
24.0012

> <b_lp_Chiralities_Consistent>
1

> <s_lp_Variant>
AV-unprocessed.smi:3222-2

> <Gold.Version>
5.8.1

> <Gold.Id.Protein>
6NUR|6NUR_protein|mol2

> <Gold.PLP.Fitness>
44.9389

> <Gold.PLP.PLP>
-37.7193

> <Gold.PLP.part.hbond>
-2.0000

> <Gold.PLP.part.metal>
0.0000

> <Gold.PLP.part.buried>
-4.9403

> <Gold.PLP.part.nonpolar>
-30.7488

> <Gold.PLP.part.repulsive>
0.1487

> <Gold.PLP.ligand.clash>
0.0000

> <Gold.PLP.ligand.torsion>
0.9572

> <Gold.PLP.Chemscore.Hbond>
3.0000

> <Gold.PLP.Chemscore.CHOScore>
0.0000

> <Gold.PLP.Chemscore.Metal>
0.0000

> <Gold.Chemscore.Hbonds>
donor molecule, donor type, donor heavy atom, donor atom, acceptor molecule, acceptor atom, score
      L1  H     3    23       P1  8028  2.00
      P1  H  7997  8009       L1    11  1.00

> <Gold.PLP.Chemscore.Internal.Correction>
0.1339

> <Gold.Rescore>
     Score         DG    S(hbond)    S(metal)    S(lipo)     H(rot)  DE(clash)    DE(int)     intcor
     15.21     -16.45       1.91        0.00      82.95       1.99       0.16       1.08       ----

> <Gold.Chemscore.Fitness>
15.2122

> <Gold.Chemscore.DG>
-16.4539

> <Gold.Chemscore.ZeroCoef>
-5.4800

> <Gold.Chemscore.Hbond>
1.9068

> <Gold.Chemscore.Metal>
0.0000

> <Gold.Chemscore.Lipo>
82.9526

> <Gold.Chemscore.Internal_Hbond>
0.0000

> <Gold.Chemscore.DEClash>
0.1641

> <Gold.Chemscore.DEInternal>
1.0775

> <Gold.Chemscore.Rot>
1.9922

> <Gold.Chemscore.Internal.Correction>
   9.000000E+99

> <Gold.Chemscore.Hbonds>
donor molecule, donor type, donor heavy atom, donor atom, acceptor molecule, acceptor atom, score
      L1  H     3    23       P1  8028  0.98
      P1  H  7997  8009       L1    11  0.81

> <Gold.Chemscore.Hbond.Weighted>
-6.3686

> <Gold.Chemscore.Metal.Weighted>
-0.0000

> <Gold.Chemscore.Lipo.Weighted>
-9.7054

> <Gold.Chemscore.Internal_Hbond.Weighted>
0.0000

> <Gold.Chemscore.DEClash.Weighted>
0.1641

> <Gold.Chemscore.DEInternal.Weighted>
1.0775

> <Gold.Chemscore.Rot.Weighted>
5.1002

> <Gold.Chemscore.Internal.Correction.Weighted>
   9.000000E+99

> <Gold.Protein.RotatedTorsions>
[ 6907 6896 6895 6894 ] final  -51.95 input  -60.11 | X-H torsion
[ 7974 7965 7964 7962 ] final   51.62 input  175.53 | X-H torsion
[ 8008 7997 7996 7995 ] final  154.54 input   59.86 | X-H torsion
[ 10167 10162 10161 10158 ] final  -38.24 input  -65.29 | X-H torsion
[ 10718 10713 10712 10709 ] final  142.83 input   66.30 | X-H torsion
[ 10763 10752 10751 10750 ] final -169.86 input  -60.55 | X-H torsion
[ 11005 11000 10999 10996 ] final  -53.39 input  -57.11 | X-H torsion

> <Gold.Protein.ActiveResidues>
 VAL166  LYS551  ARG553  GLY616  TRP617  ASP618  TYR619  PRO620  LYS621  CYS622 
 ASP623  PHE694  ASN695  SER759  ASP760  ASP761  ALA762  ILE779  LEU786  VAL792 
 PHE793  MET794  SER795  GLU796  ALA797  LYS798  CYS799  TRP800  GLU811  SER814 

> <Gold.Protein.RotatedAtoms>
  150.8563  134.7902  159.7047 H   0  0  0  0  0  0  0  0  0  0  0  0  # atno 6907 bound_to 6896
  152.4613  134.5173  159.9782 H   0  0  0  0  0  0  0  0  0  0  0  0  # atno 6908 bound_to 6896
  151.5285  133.3415  159.2949 H   0  0  0  0  0  0  0  0  0  0  0  0  # atno 6909 bound_to 6896
  145.9895  139.4324  143.0082 H   0  0  0  0  0  0  0  0  0  0  0  0  # atno 7974 bound_to 7965
  156.2526  140.1964  156.6661 H   0  0  0  0  0  0  0  0  0  0  0  0  # atno 8008 bound_to 7997
  154.6428  140.0581  156.9890 H   0  0  0  0  0  0  0  0  0  0  0  0  # atno 8009 bound_to 7997
  155.1537  140.3253  155.4428 H   0  0  0  0  0  0  0  0  0  0  0  0  # atno 8010 bound_to 7997
  140.7097  143.3290  151.2614 H   0  0  0  0  0  0  0  0  0  0  0  0  # atno 10167 bound_to 10162
  157.3760  131.0985  151.0783 H   0  0  0  0  0  0  0  0  0  0  0  0  # atno 10718 bound_to 10713
  154.6477  135.2907  155.0026 H   0  0  0  0  0  0  0  0  0  0  0  0  # atno 10763 bound_to 10752
  154.1130  135.6559  153.4892 H   0  0  0  0  0  0  0  0  0  0  0  0  # atno 10764 bound_to 10752
  153.0359  135.5269  154.7371 H   0  0  0  0  0  0  0  0  0  0  0  0  # atno 10765 bound_to 10752
  141.0973  133.6622  156.4165 H   0  0  0  0  0  0  0  0  0  0  0  0  # atno 11005 bound_to 11000
  145.7651  140.9919  143.1179 LP  0  0  0  0  0  0  0  0  0  0  0  0  # atno 17320 bound_to 7965
  144.6885  139.9378  143.7474 LP  0  0  0  0  0  0  0  0  0  0  0  0  # atno 17321 bound_to 7965
  139.6766  143.9927  152.2784 LP  0  0  0  0  0  0  0  0  0  0  0  0  # atno 17342 bound_to 10162
  139.9543  144.6600  150.8141 LP  0  0  0  0  0  0  0  0  0  0  0  0  # atno 17343 bound_to 10162
  157.1870  130.6335  149.5691 LP  0  0  0  0  0  0  0  0  0  0  0  0  # atno 17370 bound_to 10713
  155.9765  130.4735  150.6535 LP  0  0  0  0  0  0  0  0  0  0  0  0  # atno 17371 bound_to 10713
  140.5108  134.6397  157.5283 LP  0  0  0  0  0  0  0  0  0  0  0  0  # atno 17394 bound_to 11000
  139.9814  134.7131  155.9853 LP  0  0  0  0  0  0  0  0  0  0  0  0  # atno 17395 bound_to 11000

$$$$
