AV-unprocessed.smi:813|AV-procd|sdf|3818|dock10
  -GOLD-   22720 1253D 1   1.00000     0.00000
 Structure written by MMmdl.
 36 37  0  0  0  0  0  0  0  0  1 V2000
  149.1902  132.0898  153.7020 C   0  0  0  0  0  0  0  0  0  0  0  0
  148.1132  133.1424  154.0142 C   0  0  1  0  0  0  0  0  0  0  0  0
  148.7259  134.4655  153.9063 N   0  0  0  0  0  0  0  0  0  0  0  0
  149.1186  135.2206  154.9437 C   0  0  0  0  0  0  0  0  0  0  0  0
  149.0155  134.8651  156.1181 O   0  0  0  0  0  0  0  0  0  0  0  0
  149.6256  136.3944  154.5275 N   0  0  0  0  0  0  0  0  0  0  0  0
  150.1609  137.4494  155.3133 C   0  0  0  0  0  0  0  0  0  0  0  0
  150.2106  137.4281  156.6544 N   0  0  0  0  0  0  0  0  0  0  0  0
  150.7855  138.5819  157.1718 N   0  0  0  0  0  0  0  0  0  0  0  0
  151.1459  139.4271  156.2020 C   0  0  0  0  0  0  0  0  0  0  0  0
  150.8194  138.8957  154.5613 S   0  0  0  0  0  0  0  0  0  0  0  0
  146.9809  132.9935  152.9861 C   0  0  0  0  0  0  0  0  0  0  0  0
  146.2378  132.0110  153.0104 O   0  0  0  0  0  0  0  0  0  0  0  0
  146.8610  133.9850  152.0906 N   0  0  0  0  0  0  0  0  0  0  0  0
  145.8711  134.0360  151.0181 C   0  0  0  0  0  0  0  0  0  0  0  0
  144.4347  134.0361  151.5778 C   0  0  0  0  0  0  0  0  0  0  0  0
  143.8888  132.6322  151.3223 C   0  0  0  0  0  0  0  0  0  0  0  0
  144.5666  132.2033  150.0251 C   0  0  0  0  0  0  0  0  0  0  0  0
  145.9776  132.7895  150.1169 C   0  0  0  0  0  0  0  0  0  0  0  0
  148.7882  131.0785  153.7765 H   0  0  0  0  0  0  0  0  0  0  0  0
  150.0186  132.1606  154.4077 H   0  0  0  0  0  0  0  0  0  0  0  0
  149.6017  132.2116  152.6988 H   0  0  0  0  0  0  0  0  0  0  0  0
  147.7334  132.9875  155.0262 H   0  0  0  0  0  0  0  0  0  0  0  0
  148.8401  134.8370  152.9747 H   0  0  0  0  0  0  0  0  0  0  0  0
  149.6341  136.5504  153.5304 H   0  0  0  0  0  0  0  0  0  0  0  0
  151.6082  140.3698  156.4542 H   0  0  0  0  0  0  0  0  0  0  0  0
  147.5153  134.7522  152.1439 H   0  0  0  0  0  0  0  0  0  0  0  0
  146.0316  134.9353  150.4203 H   0  0  0  0  0  0  0  0  0  0  0  0
  144.3743  134.3139  152.6312 H   0  0  0  0  0  0  0  0  0  0  0  0
  143.8353  134.7587  151.0229 H   0  0  0  0  0  0  0  0  0  0  0  0
  144.1898  131.9674  152.1332 H   0  0  0  0  0  0  0  0  0  0  0  0
  142.8008  132.6101  151.2570 H   0  0  0  0  0  0  0  0  0  0  0  0
  144.5702  131.1213  149.8903 H   0  0  0  0  0  0  0  0  0  0  0  0
  144.0409  132.6426  149.1762 H   0  0  0  0  0  0  0  0  0  0  0  0
  146.3777  133.0299  149.1315 H   0  0  0  0  0  0  0  0  0  0  0  0
  146.6435  132.0471  150.5597 H   0  0  0  0  0  0  0  0  0  0  0  0
  1  2  1  0  0  0  0
  1 20  1  0  0  0  0
  1 21  1  0  0  0  0
  1 22  1  0  0  0  0
  2  3  1  0  0  0  0
  2 12  1  0  0  0  0
  2 23  1  0  0  0  0
  3  4  1  0  0  0  0
  3 24  1  0  0  0  0
  4  5  2  0  0  0  0
  4  6  1  0  0  0  0
  6  7  1  0  0  0  0
  6 25  1  0  0  0  0
  7 11  1  0  0  0  0
  7  8  2  0  0  0  0
  8  9  1  0  0  0  0
  9 10  2  0  0  0  0
 10 11  1  0  0  0  0
 10 26  1  0  0  0  0
 12 13  2  0  0  0  0
 12 14  1  0  0  0  0
 14 15  1  0  0  0  0
 14 27  1  0  0  0  0
 15 19  1  0  0  0  0
 15 16  1  0  0  0  0
 15 28  1  0  0  0  0
 16 17  1  0  0  0  0
 16 29  1  0  0  0  0
 16 30  1  0  0  0  0
 17 18  1  0  0  0  0
 17 31  1  0  0  0  0
 17 32  1  0  0  0  0
 18 19  1  0  0  0  0
 18 33  1  0  0  0  0
 18 34  1  0  0  0  0
 19 35  1  0  0  0  0
 19 36  1  0  0  0  0
M  END
> <s_m_source_file>
AV-unprocessed.smi

> <i_m_source_file_index>
813

> <i_lp_mmshare_version>
43012

> <i_f3d_flags>
0

> <s_epik_input>
W0NIMl0xW0NIMl1bQ0gyXVtDSDJdW0NIXTFbTkhdQyg9TylbQ0BIXShbQ0gzXSlbTkhdQyg9TylbTkhdYzJubltjSF1zMg==

> <s_epik_cmdline>
J2VwaWtfcHl0aG9uJywgJy1waCcsICc3LjAnLCAnLXRuJywgJzgnLCAnLW1hJywgJzIwMCcsICctbWV0YWxfYmluZGluZycsICctaW1hZScsICc8aW5maWxlLm1hZT4nLCAnLW9tYWUnLCAnPG91dGZpbGUubWFlPic=

> <r_lp_tautomer_probability>
1

> <r_epik_Ionization_Penalty>
0.00321247

> <r_epik_Ionization_Penalty_Charging>
0

> <r_epik_Ionization_Penalty_Neutral>
0.00321247

> <r_epik_State_Penalty>
-0

> <r_epik_Charging_Adjusted_Penalty>
0

> <i_epik_Tot_Q>
0

> <i_epik_Tot_abs_Q>
0

> <r_epik_Metal_State_Penalty>
0.363968

> <b_epik_Metal_Only>
0

> <s_lp_Force_Field>
OPLS_2005

> <r_lp_Energy>
15.9742

> <b_lp_Chiralities_Consistent>
1

> <s_lp_Variant>
AV-unprocessed.smi:813-2

> <Gold.Version>
5.8.1

> <Gold.Id.Protein>
6NUR|6NUR_protein|mol2

> <Gold.PLP.Fitness>
37.9728

> <Gold.PLP.PLP>
-29.8156

> <Gold.PLP.part.hbond>
-3.0000

> <Gold.PLP.part.metal>
0.0000

> <Gold.PLP.part.buried>
-3.4728

> <Gold.PLP.part.nonpolar>
-23.5764

> <Gold.PLP.part.repulsive>
0.2230

> <Gold.PLP.ligand.clash>
0.0000

> <Gold.PLP.ligand.torsion>
0.4259

> <Gold.PLP.Chemscore.Hbond>
3.0000

> <Gold.PLP.Chemscore.CHOScore>
0.0000

> <Gold.PLP.Chemscore.Metal>
0.0000

> <Gold.Chemscore.Hbonds>
donor molecule, donor type, donor heavy atom, donor atom, acceptor molecule, acceptor atom, score
      L1  H     3    24       P1  7948  0.85
      L1  H     6    25       P1  7948  1.00
      L1  H    14    27       P1  7948  0.98

> <Gold.PLP.Chemscore.Internal.Correction>
0.0090

> <Gold.Rescore>
     Score         DG    S(hbond)    S(metal)    S(lipo)     H(rot)  DE(clash)    DE(int)     intcor
     12.83     -16.83       2.49        0.00      64.15       1.74       0.14       3.86       ----

> <Gold.Chemscore.Fitness>
12.8326

> <Gold.Chemscore.DG>
-16.8308

> <Gold.Chemscore.ZeroCoef>
-5.4800

> <Gold.Chemscore.Hbond>
2.4874

> <Gold.Chemscore.Metal>
0.0000

> <Gold.Chemscore.Lipo>
64.1519

> <Gold.Chemscore.Internal_Hbond>
0.0000

> <Gold.Chemscore.DEClash>
0.1388

> <Gold.Chemscore.DEInternal>
3.8594

> <Gold.Chemscore.Rot>
1.7433

> <Gold.Chemscore.Internal.Correction>
   9.000000E+99

> <Gold.Chemscore.Hbonds>
donor molecule, donor type, donor heavy atom, donor atom, acceptor molecule, acceptor atom, score
      L1  H     3    24       P1  7948  0.14
      L1  H     6    25       P1  7948  0.53
      L1  H    14    27       P1  7948  0.76

> <Gold.Chemscore.Hbond.Weighted>
-8.3078

> <Gold.Chemscore.Metal.Weighted>
-0.0000

> <Gold.Chemscore.Lipo.Weighted>
-7.5058

> <Gold.Chemscore.Internal_Hbond.Weighted>
0.0000

> <Gold.Chemscore.DEClash.Weighted>
0.1388

> <Gold.Chemscore.DEInternal.Weighted>
3.8594

> <Gold.Chemscore.Rot.Weighted>
4.4628

> <Gold.Chemscore.Internal.Correction.Weighted>
   9.000000E+99

> <Gold.Protein.RotatedTorsions>
[ 6907 6896 6895 6894 ] final -120.80 input  -60.11 | X-H torsion
[ 7974 7965 7964 7962 ] final  -72.60 input  175.53 | X-H torsion
[ 8008 7997 7996 7995 ] final -148.19 input   59.86 | X-H torsion
[ 10167 10162 10161 10158 ] final  100.15 input  -65.29 | X-H torsion
[ 10718 10713 10712 10709 ] final  102.80 input   66.30 | X-H torsion
[ 10763 10752 10751 10750 ] final  -42.84 input  -60.55 | X-H torsion
[ 11005 11000 10999 10996 ] final   58.42 input  -57.11 | X-H torsion

> <Gold.Protein.ActiveResidues>
 VAL166  LYS551  ARG553  GLY616  TRP617  ASP618  TYR619  PRO620  LYS621  CYS622 
 ASP623  PHE694  ASN695  SER759  ASP760  ASP761  ALA762  ILE779  LEU786  VAL792 
 PHE793  MET794  SER795  GLU796  ALA797  LYS798  CYS799  TRP800  GLU811  SER814 

> <Gold.Protein.RotatedAtoms>
  150.8425  133.7913  159.3055 H   0  0  0  0  0  0  0  0  0  0  0  0  # atno 6907 bound_to 6896
  151.5610  135.1064  159.9982 H   0  0  0  0  0  0  0  0  0  0  0  0  # atno 6908 bound_to 6896
  152.4486  133.7542  159.6767 H   0  0  0  0  0  0  0  0  0  0  0  0  # atno 6909 bound_to 6896
  145.6631  140.9246  143.0923 H   0  0  0  0  0  0  0  0  0  0  0  0  # atno 7974 bound_to 7965
  155.5876  140.0649  157.2767 H   0  0  0  0  0  0  0  0  0  0  0  0  # atno 8008 bound_to 7997
  154.4314  140.1841  156.1088 H   0  0  0  0  0  0  0  0  0  0  0  0  # atno 8009 bound_to 7997
  156.0257  140.3312  155.7090 H   0  0  0  0  0  0  0  0  0  0  0  0  # atno 8010 bound_to 7997
  139.7553  144.6971  151.0371 H   0  0  0  0  0  0  0  0  0  0  0  0  # atno 10167 bound_to 10162
  157.6791  131.0762  150.5459 H   0  0  0  0  0  0  0  0  0  0  0  0  # atno 10718 bound_to 10713
  153.9858  135.6711  153.4752 H   0  0  0  0  0  0  0  0  0  0  0  0  # atno 10763 bound_to 10752
  153.0727  135.4965  154.8336 H   0  0  0  0  0  0  0  0  0  0  0  0  # atno 10764 bound_to 10752
  154.7138  135.3103  154.9117 H   0  0  0  0  0  0  0  0  0  0  0  0  # atno 10765 bound_to 10752
  140.0379  134.5916  155.9420 H   0  0  0  0  0  0  0  0  0  0  0  0  # atno 11005 bound_to 11000
  144.7082  139.8474  143.7423 LP  0  0  0  0  0  0  0  0  0  0  0  0  # atno 17320 bound_to 7965
  146.1109  139.4113  143.0288 LP  0  0  0  0  0  0  0  0  0  0  0  0  # atno 17321 bound_to 7965
  140.7802  143.4760  151.0082 LP  0  0  0  0  0  0  0  0  0  0  0  0  # atno 17342 bound_to 10162
  139.8447  143.7517  152.3179 LP  0  0  0  0  0  0  0  0  0  0  0  0  # atno 17343 bound_to 10162
  156.5765  130.4293  149.5996 LP  0  0  0  0  0  0  0  0  0  0  0  0  # atno 17370 bound_to 10713
  156.2697  130.7010  151.1803 LP  0  0  0  0  0  0  0  0  0  0  0  0  # atno 17371 bound_to 10713
  141.1867  133.6558  156.5251 LP  0  0  0  0  0  0  0  0  0  0  0  0  # atno 17394 bound_to 11000
  140.4117  134.7266  157.4840 LP  0  0  0  0  0  0  0  0  0  0  0  0  # atno 17395 bound_to 11000

$$$$
