AV-unprocessed.smi:3278|AV-procd|sdf|12543|dock3
  -GOLD-   2272018453D 1   1.00000     0.00000
 Structure written by MMmdl.
 39 40  0  0  0  0  0  0  0  0  2 V2000
  147.9419  137.1077  158.2724 C   0  0  0  0  0  0  0  0  0  0  0  0
  148.0322  138.2407  157.3765 N   0  0  0  0  0  0  0  0  0  0  0  0
  149.1406  138.7390  156.7283 C   0  0  0  0  0  0  0  0  0  0  0  0
  148.7395  139.8173  155.9878 C   0  0  0  0  0  0  0  0  0  0  0  0
  149.5740  140.7046  155.0881 C   0  0  2  0  0  0  0  0  0  0  0  0
  148.6744  141.7430  154.3959 C   0  0  0  0  0  0  0  0  0  0  0  0
  150.1930  139.9704  154.0479 O   0  0  0  0  0  0  0  0  0  0  0  0
  150.6952  141.4040  155.8870 C   0  0  0  0  0  0  0  0  0  0  0  0
  150.1493  142.2151  156.9994 N   0  3  0  0  0  0  0  0  0  0  0  0
  151.1534  142.8356  157.8911 C   0  0  1  0  0  0  0  0  0  0  0  0
  150.5129  143.9333  158.7699 C   0  0  0  0  0  0  0  0  0  0  0  0
  151.5311  144.6393  159.6808 C   0  0  0  0  0  0  0  0  0  0  0  0
  152.2153  143.6755  160.6594 C   0  0  0  0  0  0  0  0  0  0  0  0
  153.1526  142.4038  159.7718 S   0  0  0  0  0  0  0  0  0  0  0  0
  151.8051  141.7411  158.7554 C   0  0  0  0  0  0  0  0  0  0  0  0
  147.3431  139.8982  156.2667 C   0  0  0  0  0  0  0  0  0  0  0  0
  146.9240  138.9525  157.0908 N   0  0  0  0  0  0  0  0  0  0  0  0
  148.9220  136.6444  158.3895 H   0  0  0  0  0  0  0  0  0  0  0  0
  147.2475  136.3709  157.8675 H   0  0  0  0  0  0  0  0  0  0  0  0
  147.5867  137.4370  159.2494 H   0  0  0  0  0  0  0  0  0  0  0  0
  150.1154  138.2881  156.8431 H   0  0  0  0  0  0  0  0  0  0  0  0
  148.1735  142.3831  155.1232 H   0  0  0  0  0  0  0  0  0  0  0  0
  147.9005  141.2602  153.7976 H   0  0  0  0  0  0  0  0  0  0  0  0
  149.2480  142.3907  153.7318 H   0  0  0  0  0  0  0  0  0  0  0  0
  149.6610  140.0384  153.2692 H   0  0  0  0  0  0  0  0  0  0  0  0
  151.3959  140.6686  156.2855 H   0  0  0  0  0  0  0  0  0  0  0  0
  151.2658  142.0483  155.2185 H   0  0  0  0  0  0  0  0  0  0  0  0
  149.5543  142.9384  156.6211 H   0  0  0  0  0  0  0  0  0  0  0  0
  151.9309  143.2791  157.2671 H   0  0  0  0  0  0  0  0  0  0  0  0
  150.0387  144.6894  158.1451 H   0  0  0  0  0  0  0  0  0  0  0  0
  149.7169  143.5022  159.3788 H   0  0  0  0  0  0  0  0  0  0  0  0
  152.2845  145.1416  159.0728 H   0  0  0  0  0  0  0  0  0  0  0  0
  151.0245  145.4224  160.2455 H   0  0  0  0  0  0  0  0  0  0  0  0
  152.8970  144.2205  161.3126 H   0  0  0  0  0  0  0  0  0  0  0  0
  151.4761  143.1928  161.2996 H   0  0  0  0  0  0  0  0  0  0  0  0
  151.0667  141.2758  159.4096 H   0  0  0  0  0  0  0  0  0  0  0  0
  152.2149  140.9514  158.1246 H   0  0  0  0  0  0  0  0  0  0  0  0
  146.6228  140.6102  155.8909 H   0  0  0  0  0  0  0  0  0  0  0  0
  149.5781  141.5976  157.5587 H   0  0  0  0  0  0  0  0  0  0  0  0
  1  2  1  0  0  0  0
  1 18  1  0  0  0  0
  1 19  1  0  0  0  0
  1 20  1  0  0  0  0
  2 17  1  0  0  0  0
  2  3  1  0  0  0  0
  3  4  2  0  0  0  0
  3 21  1  0  0  0  0
  4  5  1  0  0  0  0
  4 16  1  0  0  0  0
  5  6  1  0  0  0  0
  5  7  1  0  0  0  0
  5  8  1  0  0  0  0
  6 22  1  0  0  0  0
  6 23  1  0  0  0  0
  6 24  1  0  0  0  0
  7 25  1  0  0  0  0
  8  9  1  0  0  0  0
  8 26  1  0  0  0  0
  8 27  1  0  0  0  0
  9 10  1  0  0  0  0
  9 28  1  0  0  0  0
  9 39  1  0  0  0  0
 10 15  1  0  0  0  0
 10 11  1  0  0  0  0
 10 29  1  0  0  0  0
 11 12  1  0  0  0  0
 11 30  1  0  0  0  0
 11 31  1  0  0  0  0
 12 13  1  0  0  0  0
 12 32  1  0  0  0  0
 12 33  1  0  0  0  0
 13 14  1  0  0  0  0
 13 34  1  0  0  0  0
 13 35  1  0  0  0  0
 14 15  1  0  0  0  0
 15 36  1  0  0  0  0
 15 37  1  0  0  0  0
 16 17  2  0  0  0  0
 16 38  1  0  0  0  0
M  CHG  1   9   1
M  END
> <s_m_source_file>
AV-unprocessed.smi

> <i_m_source_file_index>
3278

> <i_lp_mmshare_version>
43012

> <i_f3d_flags>
0

> <s_epik_input>
W0NIM11uMVtjSF1jKFtjSF1uMSlbQ0BAXShbQ0gzXSkoW09IXSlbQ0gyXVtOSF1bQ0BASF0yW0NIMl1bQ0gyXVtDSDJdU1tDSDJdMg==

> <s_epik_cmdline>
J2VwaWtfcHl0aG9uJywgJy1waCcsICc3LjAnLCAnLXRuJywgJzgnLCAnLW1hJywgJzIwMCcsICctbWV0YWxfYmluZGluZycsICctaW1hZScsICc8aW5maWxlLm1hZT4nLCAnLW9tYWUnLCAnPG91dGZpbGUubWFlPic=

> <r_lp_tautomer_probability>
1

> <r_epik_Ionization_Penalty>
0.0185703

> <r_epik_Ionization_Penalty_Charging>
0.0185619

> <r_epik_Ionization_Penalty_Neutral>
8.47286e-06

> <r_epik_State_Penalty>
0.0147768

> <r_epik_Charging_Adjusted_Penalty>
0.0333386

> <i_epik_Tot_Q>
1

> <i_epik_Tot_abs_Q>
1

> <r_epik_Metal_State_Penalty>
0.0147782

> <b_epik_Metal_Only>
0

> <s_lp_Force_Field>
OPLS_2005

> <r_lp_Energy>
8.58851

> <b_lp_Chiralities_Consistent>
1

> <s_lp_Variant>
AV-unprocessed.smi:3278-4

> <Gold.Version>
5.8.1

> <Gold.Id.Protein>
6NUR|6NUR_protein|mol2

> <Gold.PLP.Fitness>
43.1984

> <Gold.PLP.PLP>
-32.1253

> <Gold.PLP.part.hbond>
-3.0000

> <Gold.PLP.part.metal>
0.0000

> <Gold.PLP.part.buried>
-3.7449

> <Gold.PLP.part.nonpolar>
-24.9967

> <Gold.PLP.part.repulsive>
0.0240

> <Gold.PLP.ligand.clash>
0.0000

> <Gold.PLP.ligand.torsion>
0.1115

> <Gold.PLP.Chemscore.Hbond>
3.7540

> <Gold.PLP.Chemscore.CHOScore>
0.0000

> <Gold.PLP.Chemscore.Metal>
0.0000

> <Gold.Chemscore.Hbonds>
donor molecule, donor type, donor heavy atom, donor atom, acceptor molecule, acceptor atom, score
      L1  H     7    25       P1  7957  0.75
      L1  H     9    28       P1  8028  1.50
      P1  H  7989  7998       L1     7  0.89

> <Gold.PLP.Chemscore.Internal.Correction>
0.0340

> <Gold.Rescore>
     Score         DG    S(hbond)    S(metal)    S(lipo)     H(rot)  DE(clash)    DE(int)     intcor
     18.47     -18.54       2.38        0.00      87.58       2.00       0.01       0.06       ----

> <Gold.Chemscore.Fitness>
18.4698

> <Gold.Chemscore.DG>
-18.5410

> <Gold.Chemscore.ZeroCoef>
-5.4800

> <Gold.Chemscore.Hbond>
2.3785

> <Gold.Chemscore.Metal>
0.0000

> <Gold.Chemscore.Lipo>
87.5762

> <Gold.Chemscore.Internal_Hbond>
0.0000

> <Gold.Chemscore.DEClash>
0.0121

> <Gold.Chemscore.DEInternal>
0.0591

> <Gold.Chemscore.Rot>
2.0038

> <Gold.Chemscore.Internal.Correction>
   9.000000E+99

> <Gold.Chemscore.Hbonds>
donor molecule, donor type, donor heavy atom, donor atom, acceptor molecule, acceptor atom, score
      L1  H     7    25       P1  7957  0.70
      L1  H     9    28       P1  8028  0.75
      P1  H  7989  7998       L1     7  0.12

> <Gold.Chemscore.Hbond.Weighted>
-7.9443

> <Gold.Chemscore.Metal.Weighted>
-0.0000

> <Gold.Chemscore.Lipo.Weighted>
-10.2464

> <Gold.Chemscore.Internal_Hbond.Weighted>
0.0000

> <Gold.Chemscore.DEClash.Weighted>
0.0121

> <Gold.Chemscore.DEInternal.Weighted>
0.0591

> <Gold.Chemscore.Rot.Weighted>
5.1296

> <Gold.Chemscore.Internal.Correction.Weighted>
   9.000000E+99

> <Gold.Protein.RotatedTorsions>
[ 6907 6896 6895 6894 ] final   14.31 input  -60.11 | X-H torsion
[ 7974 7965 7964 7962 ] final  101.09 input  175.53 | X-H torsion
[ 8008 7997 7996 7995 ] final  158.20 input   59.86 | X-H torsion
[ 10167 10162 10161 10158 ] final  -58.16 input  -65.29 | X-H torsion
[ 10718 10713 10712 10709 ] final  162.33 input   66.30 | X-H torsion
[ 10763 10752 10751 10750 ] final -158.64 input  -60.55 | X-H torsion
[ 11005 11000 10999 10996 ] final -149.31 input  -57.11 | X-H torsion

> <Gold.Protein.ActiveResidues>
 VAL166  LYS551  ARG553  GLY616  TRP617  ASP618  TYR619  PRO620  LYS621  CYS622 
 ASP623  PHE694  ASN695  SER759  ASP760  ASP761  ALA762  ILE779  LEU786  VAL792 
 PHE793  MET794  SER795  GLU796  ALA797  LYS798  CYS799  TRP800  GLU811  SER814 

> <Gold.Protein.RotatedAtoms>
  151.8002  135.0711  160.0398 H   0  0  0  0  0  0  0  0  0  0  0  0  # atno 6907 bound_to 6896
  152.3094  133.5733  159.5679 H   0  0  0  0  0  0  0  0  0  0  0  0  # atno 6908 bound_to 6896
  150.7312  134.0090  159.3705 H   0  0  0  0  0  0  0  0  0  0  0  0  # atno 6909 bound_to 6896
  145.3769  139.2387  143.3425 H   0  0  0  0  0  0  0  0  0  0  0  0  # atno 7974 bound_to 7965
  156.2317  140.1865  156.7224 H   0  0  0  0  0  0  0  0  0  0  0  0  # atno 8008 bound_to 7997
  154.6035  140.0632  156.9427 H   0  0  0  0  0  0  0  0  0  0  0  0  # atno 8009 bound_to 7997
  155.2135  140.3302  155.4328 H   0  0  0  0  0  0  0  0  0  0  0  0  # atno 8010 bound_to 7997
  140.6214  143.2421  151.5470 H   0  0  0  0  0  0  0  0  0  0  0  0  # atno 10167 bound_to 10162
  157.1240  131.0500  151.2402 H   0  0  0  0  0  0  0  0  0  0  0  0  # atno 10718 bound_to 10713
  154.7540  135.3100  154.8505 H   0  0  0  0  0  0  0  0  0  0  0  0  # atno 10763 bound_to 10752
  153.9284  135.6788  153.4750 H   0  0  0  0  0  0  0  0  0  0  0  0  # atno 10764 bound_to 10752
  153.1136  135.4855  154.9007 H   0  0  0  0  0  0  0  0  0  0  0  0  # atno 10765 bound_to 10752
  140.7521  134.3394  157.5123 H   0  0  0  0  0  0  0  0  0  0  0  0  # atno 11005 bound_to 11000
  146.2860  140.4430  142.8758 LP  0  0  0  0  0  0  0  0  0  0  0  0  # atno 17320 bound_to 7965
  144.8536  140.7037  143.6152 LP  0  0  0  0  0  0  0  0  0  0  0  0  # atno 17321 bound_to 7965
  139.5442  144.2565  152.1410 LP  0  0  0  0  0  0  0  0  0  0  0  0  # atno 17342 bound_to 10162
  140.1786  144.4866  150.6540 LP  0  0  0  0  0  0  0  0  0  0  0  0  # atno 17343 bound_to 10162
  157.4451  130.7566  149.7102 LP  0  0  0  0  0  0  0  0  0  0  0  0  # atno 17370 bound_to 10713
  155.9822  130.4012  150.3429 LP  0  0  0  0  0  0  0  0  0  0  0  0  # atno 17371 bound_to 10713
  139.8785  134.9149  156.3117 LP  0  0  0  0  0  0  0  0  0  0  0  0  # atno 17394 bound_to 11000
  140.9741  133.7309  156.0576 LP  0  0  0  0  0  0  0  0  0  0  0  0  # atno 17395 bound_to 11000

$$$$
