AV-unprocessed.smi:1800|AV-procd|sdf|7263|dock6
  -GOLD-   22720 8513D 1   1.00000     0.00000
 Structure written by MMmdl.
 36 37  0  0  0  0  0  0  0  0  1 V2000
  149.3892  142.6924  158.0843 C   0  0  0  0  0  0  0  0  0  0  0  0
  150.7595  142.3623  157.4793 C   0  0  2  0  0  0  0  0  0  0  0  0
  151.8052  143.4566  157.7668 C   0  0  0  0  0  0  0  0  0  0  0  0
  151.9761  143.6991  159.1890 N   0  0  0  0  0  0  0  0  0  0  0  0
  151.7382  144.8606  159.8935 C   0  0  0  0  0  0  0  0  0  0  0  0
  152.0292  144.6087  161.2034 C   0  0  0  0  0  0  0  0  0  0  0  0
  152.4479  143.2490  161.2006 C   0  0  0  0  0  0  0  0  0  0  0  0
  152.4180  142.7080  159.9933 N   0  0  0  0  0  0  0  0  0  0  0  0
  150.6143  142.1702  156.0331 N   0  0  0  0  0  0  0  0  0  0  0  0
  149.7328  140.8047  155.4565 S   0  0  0  0  0  0  0  0  0  0  0  0
  150.6130  140.0708  154.5334 O   0  0  0  0  0  0  0  0  0  0  0  0
  149.1746  140.1231  156.6343 O   0  0  0  0  0  0  0  0  0  0  0  0
  148.3628  141.6071  154.4941 C   0  0  0  0  0  0  0  0  0  0  0  0
  146.9923  141.2069  155.0472 C   0  0  0  0  0  0  0  0  0  0  0  0
  146.7140  139.8340  154.4306 C   0  0  0  0  0  0  0  0  0  0  0  0
  147.4332  139.8351  153.0728 C   0  0  0  0  0  0  0  0  0  0  0  0
  148.3136  141.0942  153.0498 C   0  0  0  0  0  0  0  0  0  0  0  0
  149.4574  142.8105  159.1659 H   0  0  0  0  0  0  0  0  0  0  0  0
  148.6702  141.8969  157.8854 H   0  0  0  0  0  0  0  0  0  0  0  0
  148.9859  143.6186  157.6735 H   0  0  0  0  0  0  0  0  0  0  0  0
  151.1021  141.4289  157.9284 H   0  0  0  0  0  0  0  0  0  0  0  0
  152.7689  143.1938  157.3268 H   0  0  0  0  0  0  0  0  0  0  0  0
  151.4987  144.3957  157.3044 H   0  0  0  0  0  0  0  0  0  0  0  0
  151.3786  145.7569  159.4099 H   0  0  0  0  0  0  0  0  0  0  0  0
  151.9530  145.2912  162.0366 H   0  0  0  0  0  0  0  0  0  0  0  0
  152.7694  142.6424  162.0344 H   0  0  0  0  0  0  0  0  0  0  0  0
  150.3137  143.0286  155.5723 H   0  0  0  0  0  0  0  0  0  0  0  0
  148.5058  142.6869  154.5454 H   0  0  0  0  0  0  0  0  0  0  0  0
  146.9458  141.1979  156.1361 H   0  0  0  0  0  0  0  0  0  0  0  0
  146.2422  141.9179  154.6980 H   0  0  0  0  0  0  0  0  0  0  0  0
  147.1354  139.0544  155.0665 H   0  0  0  0  0  0  0  0  0  0  0  0
  145.6460  139.6365  154.3349 H   0  0  0  0  0  0  0  0  0  0  0  0
  148.0367  138.9334  152.9619 H   0  0  0  0  0  0  0  0  0  0  0  0
  146.7208  139.8525  152.2474 H   0  0  0  0  0  0  0  0  0  0  0  0
  147.8425  141.8490  152.4190 H   0  0  0  0  0  0  0  0  0  0  0  0
  149.3034  140.9062  152.6344 H   0  0  0  0  0  0  0  0  0  0  0  0
  1  2  1  0  0  0  0
  1 18  1  0  0  0  0
  1 19  1  0  0  0  0
  1 20  1  0  0  0  0
  2  3  1  0  0  0  0
  2  9  1  0  0  0  0
  2 21  1  0  0  0  0
  3  4  1  0  0  0  0
  3 22  1  0  0  0  0
  3 23  1  0  0  0  0
  4  8  1  0  0  0  0
  4  5  1  0  0  0  0
  5  6  2  0  0  0  0
  5 24  1  0  0  0  0
  6  7  1  0  0  0  0
  6 25  1  0  0  0  0
  7  8  2  0  0  0  0
  7 26  1  0  0  0  0
  9 10  1  0  0  0  0
  9 27  1  0  0  0  0
 10 11  2  0  0  0  0
 10 12  2  0  0  0  0
 10 13  1  0  0  0  0
 13 17  1  0  0  0  0
 13 14  1  0  0  0  0
 13 28  1  0  0  0  0
 14 15  1  0  0  0  0
 14 29  1  0  0  0  0
 14 30  1  0  0  0  0
 15 16  1  0  0  0  0
 15 31  1  0  0  0  0
 15 32  1  0  0  0  0
 16 17  1  0  0  0  0
 16 33  1  0  0  0  0
 16 34  1  0  0  0  0
 17 35  1  0  0  0  0
 17 36  1  0  0  0  0
M  END
> <s_m_source_file>
AV-unprocessed.smi

> <i_m_source_file_index>
1800

> <i_lp_mmshare_version>
43012

> <i_f3d_flags>
0

> <s_epik_input>
bjFbY0hdW2NIXVtjSF1uMVtDSDJdW0NAQEhdKFtDSDNdKVtOSF1TKD1PKSg9TylbQ0hdMltDSDJdW0NIMl1bQ0gyXVtDSDJdMg==

> <s_epik_cmdline>
J2VwaWtfcHl0aG9uJywgJy1waCcsICc3LjAnLCAnLXRuJywgJzgnLCAnLW1hJywgJzIwMCcsICctbWV0YWxfYmluZGluZycsICctaW1hZScsICc8aW5maWxlLm1hZT4nLCAnLW9tYWUnLCAnPG91dGZpbGUubWFlPic=

> <r_lp_tautomer_probability>
1

> <r_epik_Ionization_Penalty>
1.44925e-05

> <r_epik_Ionization_Penalty_Charging>
0

> <r_epik_Ionization_Penalty_Neutral>
1.44925e-05

> <r_epik_State_Penalty>
-0

> <r_epik_Charging_Adjusted_Penalty>
0

> <i_epik_Tot_Q>
0

> <i_epik_Tot_abs_Q>
0

> <r_epik_Metal_State_Penalty>
0.00862991

> <b_epik_Metal_Only>
0

> <s_lp_Force_Field>
OPLS_2005

> <r_lp_Energy>
14.2601

> <b_lp_Chiralities_Consistent>
1

> <s_lp_Variant>
AV-unprocessed.smi:1800-1

> <Gold.Version>
5.8.1

> <Gold.Id.Protein>
6NUR|6NUR_protein|mol2

> <Gold.PLP.Fitness>
40.9453

> <Gold.PLP.PLP>
-35.0476

> <Gold.PLP.part.hbond>
-1.9044

> <Gold.PLP.part.metal>
0.0000

> <Gold.PLP.part.buried>
-5.2405

> <Gold.PLP.part.nonpolar>
-27.7666

> <Gold.PLP.part.repulsive>
0.1258

> <Gold.PLP.ligand.clash>
0.0000

> <Gold.PLP.ligand.torsion>
0.1953

> <Gold.PLP.Chemscore.Hbond>
2.0000

> <Gold.PLP.Chemscore.CHOScore>
0.0000

> <Gold.PLP.Chemscore.Metal>
0.0000

> <Gold.Chemscore.Hbonds>
donor molecule, donor type, donor heavy atom, donor atom, acceptor molecule, acceptor atom, score
      L1  H     9    27       P1  8028  0.50
      P1  H  7989  7998       L1    11  1.00

> <Gold.PLP.Chemscore.Internal.Correction>
0.2884

> <Gold.Rescore>
     Score         DG    S(hbond)    S(metal)    S(lipo)     H(rot)  DE(clash)    DE(int)     intcor
     16.65     -16.95       1.93        0.00      81.49       1.76       0.02       0.28       ----

> <Gold.Chemscore.Fitness>
16.6459

> <Gold.Chemscore.DG>
-16.9491

> <Gold.Chemscore.ZeroCoef>
-5.4800

> <Gold.Chemscore.Hbond>
1.9272

> <Gold.Chemscore.Metal>
0.0000

> <Gold.Chemscore.Lipo>
81.4876

> <Gold.Chemscore.Internal_Hbond>
0.0000

> <Gold.Chemscore.DEClash>
0.0233

> <Gold.Chemscore.DEInternal>
0.2799

> <Gold.Chemscore.Rot>
1.7585

> <Gold.Chemscore.Internal.Correction>
   9.000000E+99

> <Gold.Chemscore.Hbonds>
donor molecule, donor type, donor heavy atom, donor atom, acceptor molecule, acceptor atom, score
      L1  H     9    27       P1  8028  0.50
      P1  H  7989  7998       L1    11  0.98

> <Gold.Chemscore.Hbond.Weighted>
-6.4369

> <Gold.Chemscore.Metal.Weighted>
-0.0000

> <Gold.Chemscore.Lipo.Weighted>
-9.5341

> <Gold.Chemscore.Internal_Hbond.Weighted>
0.0000

> <Gold.Chemscore.DEClash.Weighted>
0.0233

> <Gold.Chemscore.DEInternal.Weighted>
0.2799

> <Gold.Chemscore.Rot.Weighted>
4.5019

> <Gold.Chemscore.Internal.Correction.Weighted>
   9.000000E+99

> <Gold.Protein.RotatedTorsions>
[ 6907 6896 6895 6894 ] final  -30.24 input  -60.11 | X-H torsion
[ 7974 7965 7964 7962 ] final  -29.34 input  175.53 | X-H torsion
[ 8008 7997 7996 7995 ] final  110.65 input   59.86 | X-H torsion
[ 10167 10162 10161 10158 ] final  -34.71 input  -65.29 | X-H torsion
[ 10718 10713 10712 10709 ] final  167.36 input   66.30 | X-H torsion
[ 10763 10752 10751 10750 ] final   16.38 input  -60.55 | X-H torsion
[ 11005 11000 10999 10996 ] final   14.89 input  -57.11 | X-H torsion

> <Gold.Protein.ActiveResidues>
 VAL166  LYS551  ARG553  GLY616  TRP617  ASP618  TYR619  PRO620  LYS621  CYS622 
 ASP623  PHE694  ASN695  SER759  ASP760  ASP761  ALA762  ILE779  LEU786  VAL792 
 PHE793  MET794  SER795  GLU796  ALA797  LYS798  CYS799  TRP800  GLU811  SER814 

> <Gold.Protein.RotatedAtoms>
  151.1082  135.0012  159.8481 H   0  0  0  0  0  0  0  0  0  0  0  0  # atno 6907 bound_to 6896
  152.5441  134.1867  159.8667 H   0  0  0  0  0  0  0  0  0  0  0  0  # atno 6908 bound_to 6896
  151.1916  133.4619  159.2628 H   0  0  0  0  0  0  0  0  0  0  0  0  # atno 6909 bound_to 6896
  146.1224  140.5399  142.8729 H   0  0  0  0  0  0  0  0  0  0  0  0  # atno 7974 bound_to 7965
  156.2068  140.3034  155.9644 H   0  0  0  0  0  0  0  0  0  0  0  0  # atno 8008 bound_to 7997
  155.2822  140.0438  157.3033 H   0  0  0  0  0  0  0  0  0  0  0  0  # atno 8009 bound_to 7997
  154.5644  140.2330  155.8295 H   0  0  0  0  0  0  0  0  0  0  0  0  # atno 8010 bound_to 7997
  140.7180  143.3529  151.2119 H   0  0  0  0  0  0  0  0  0  0  0  0  # atno 10167 bound_to 10162
  157.0526  131.0317  151.2675 H   0  0  0  0  0  0  0  0  0  0  0  0  # atno 10718 bound_to 10713
  153.1436  135.6765  153.8988 H   0  0  0  0  0  0  0  0  0  0  0  0  # atno 10763 bound_to 10752
  153.8437  135.3102  155.3429 H   0  0  0  0  0  0  0  0  0  0  0  0  # atno 10764 bound_to 10752
  154.7807  135.4889  153.9924 H   0  0  0  0  0  0  0  0  0  0  0  0  # atno 10765 bound_to 10752
  140.4644  134.1094  155.7722 H   0  0  0  0  0  0  0  0  0  0  0  0  # atno 11005 bound_to 11000
  144.7609  140.5420  143.6736 LP  0  0  0  0  0  0  0  0  0  0  0  0  # atno 17320 bound_to 7965
  145.5438  139.1475  143.3432 LP  0  0  0  0  0  0  0  0  0  0  0  0  # atno 17321 bound_to 7965
  139.7063  143.9449  152.2928 LP  0  0  0  0  0  0  0  0  0  0  0  0  # atno 17342 bound_to 10162
  139.9159  144.6829  150.8512 LP  0  0  0  0  0  0  0  0  0  0  0  0  # atno 17343 bound_to 10162
  157.5018  130.7885  149.7613 LP  0  0  0  0  0  0  0  0  0  0  0  0  # atno 17370 bound_to 10713
  156.0003  130.3884  150.2632 LP  0  0  0  0  0  0  0  0  0  0  0  0  # atno 17371 bound_to 10713
  141.1606  133.8800  157.1858 LP  0  0  0  0  0  0  0  0  0  0  0  0  # atno 17394 bound_to 11000
  139.9924  135.0059  157.0006 LP  0  0  0  0  0  0  0  0  0  0  0  0  # atno 17395 bound_to 11000

$$$$
