AV-unprocessed.smi:492|AV-procd|sdf|2709|dock3
  -GOLD-   2262023153D 1   1.00000     0.00000
 Structure written by MMmdl.
 46 48  0  0  0  0  0  0  0  0  1 V2000
  148.9401  130.9112  153.2427 C   0  0  0  0  0  0  0  0  0  0  0  0
  149.8101  131.1455  154.3406 O   0  0  0  0  0  0  0  0  0  0  0  0
  150.0589  132.4518  154.7037 C   0  0  0  0  0  0  0  0  0  0  0  0
  149.5006  133.5799  154.0516 C   0  0  0  0  0  0  0  0  0  0  0  0
  149.8087  134.8827  154.4897 C   0  0  0  0  0  0  0  0  0  0  0  0
  150.6718  135.0814  155.5859 C   0  0  0  0  0  0  0  0  0  0  0  0
  151.0100  136.4899  156.0385 C   0  0  0  0  0  0  0  0  0  0  0  0
  152.3323  136.5852  156.5417 O   0  0  0  0  0  0  0  0  0  0  0  0
  152.3954  137.1492  157.8418 C   0  0  0  0  0  0  0  0  0  0  0  0
  152.4697  138.6808  157.7403 C   0  0  1  0  0  0  0  0  0  0  0  0
  153.1043  139.0281  156.5258 O   0  0  0  0  0  0  0  0  0  0  0  0
  151.1002  139.3756  157.8949 C   0  0  0  0  0  0  0  0  0  0  0  0
  151.1392  140.7871  157.5388 N   0  0  0  0  0  0  0  0  0  0  0  0
  150.7658  141.3672  156.3716 C   0  0  0  0  0  0  0  0  0  0  0  0
  150.2346  140.5672  155.2248 C   0  0  0  0  0  0  0  0  0  0  0  0
  150.9046  142.6919  156.3101 N   0  0  0  0  0  0  0  0  0  0  0  0
  151.4196  143.0005  157.5545 C   0  0  0  0  0  0  0  0  0  0  0  0
  151.7870  144.2454  158.1136 C   0  0  0  0  0  0  0  0  0  0  0  0
  152.3000  144.3151  159.4257 C   0  0  0  0  0  0  0  0  0  0  0  0
  152.4521  143.1441  160.1963 C   0  0  0  0  0  0  0  0  0  0  0  0
  152.0916  141.8937  159.6586 C   0  0  0  0  0  0  0  0  0  0  0  0
  151.5805  141.8294  158.3483 C   0  0  0  0  0  0  0  0  0  0  0  0
  151.2376  133.9627  156.2318 C   0  0  0  0  0  0  0  0  0  0  0  0
  150.9281  132.6607  155.7941 C   0  0  0  0  0  0  0  0  0  0  0  0
  148.8427  129.8374  153.0835 H   0  0  0  0  0  0  0  0  0  0  0  0
  149.3333  131.3466  152.3231 H   0  0  0  0  0  0  0  0  0  0  0  0
  147.9417  131.3076  153.4323 H   0  0  0  0  0  0  0  0  0  0  0  0
  148.8323  133.4731  153.2108 H   0  0  0  0  0  0  0  0  0  0  0  0
  149.3767  135.7312  153.9795 H   0  0  0  0  0  0  0  0  0  0  0  0
  150.8848  137.1642  155.1903 H   0  0  0  0  0  0  0  0  0  0  0  0
  150.3029  136.7991  156.8099 H   0  0  0  0  0  0  0  0  0  0  0  0
  151.4975  136.8693  158.3952 H   0  0  0  0  0  0  0  0  0  0  0  0
  153.2506  136.7563  158.3942 H   0  0  0  0  0  0  0  0  0  0  0  0
  153.1302  139.0327  158.5327 H   0  0  0  0  0  0  0  0  0  0  0  0
  152.4751  138.9411  155.8259 H   0  0  0  0  0  0  0  0  0  0  0  0
  150.3530  138.8896  157.2668 H   0  0  0  0  0  0  0  0  0  0  0  0
  150.7388  139.2778  158.9186 H   0  0  0  0  0  0  0  0  0  0  0  0
  150.0209  141.2149  154.3739 H   0  0  0  0  0  0  0  0  0  0  0  0
  149.3119  140.0621  155.5087 H   0  0  0  0  0  0  0  0  0  0  0  0
  150.9657  139.8222  154.9104 H   0  0  0  0  0  0  0  0  0  0  0  0
  151.6732  145.1477  157.5313 H   0  0  0  0  0  0  0  0  0  0  0  0
  152.5773  145.2721  159.8428 H   0  0  0  0  0  0  0  0  0  0  0  0
  152.8448  143.2058  161.2008 H   0  0  0  0  0  0  0  0  0  0  0  0
  152.2048  140.9956  160.2470 H   0  0  0  0  0  0  0  0  0  0  0  0
  151.9106  134.0961  157.0661 H   0  0  0  0  0  0  0  0  0  0  0  0
  151.3645  131.8121  156.3003 H   0  0  0  0  0  0  0  0  0  0  0  0
  1  2  1  0  0  0  0
  1 25  1  0  0  0  0
  1 26  1  0  0  0  0
  1 27  1  0  0  0  0
  2  3  1  0  0  0  0
  3 24  1  0  0  0  0
  3  4  2  0  0  0  0
  4  5  1  0  0  0  0
  4 28  1  0  0  0  0
  5  6  2  0  0  0  0
  5 29  1  0  0  0  0
  6  7  1  0  0  0  0
  6 23  1  0  0  0  0
  7  8  1  0  0  0  0
  7 30  1  0  0  0  0
  7 31  1  0  0  0  0
  8  9  1  0  0  0  0
  9 10  1  0  0  0  0
  9 32  1  0  0  0  0
  9 33  1  0  0  0  0
 10 11  1  0  0  0  0
 10 12  1  0  0  0  0
 10 34  1  0  0  0  0
 11 35  1  0  0  0  0
 12 13  1  0  0  0  0
 12 36  1  0  0  0  0
 12 37  1  0  0  0  0
 13 22  1  0  0  0  0
 13 14  1  0  0  0  0
 14 15  1  0  0  0  0
 14 16  2  0  0  0  0
 15 38  1  0  0  0  0
 15 39  1  0  0  0  0
 15 40  1  0  0  0  0
 16 17  1  0  0  0  0
 17 22  2  0  0  0  0
 17 18  1  0  0  0  0
 18 19  2  0  0  0  0
 18 41  1  0  0  0  0
 19 20  1  0  0  0  0
 19 42  1  0  0  0  0
 20 21  2  0  0  0  0
 20 43  1  0  0  0  0
 21 22  1  0  0  0  0
 21 44  1  0  0  0  0
 23 24  2  0  0  0  0
 23 45  1  0  0  0  0
 24 46  1  0  0  0  0
M  END
> <s_m_source_file>
AV-unprocessed.smi

> <i_m_source_file_index>
492

> <i_lp_mmshare_version>
43012

> <i_f3d_flags>
0

> <s_epik_input>
W0NIM11PYzFbY0hdW2NIXWMoW2NIXVtjSF0xKVtDSDJdT1tDSDJdW0NASF0oW09IXSlbQ0gyXW4oYyhuMilbQ0gzXSljKGMyMylbY0hdW2NIXVtjSF1bY0hdMw==

> <s_epik_cmdline>
J2VwaWtfcHl0aG9uJywgJy1waCcsICc3LjAnLCAnLXRuJywgJzgnLCAnLW1hJywgJzIwMCcsICctbWV0YWxfYmluZGluZycsICctaW1hZScsICc8aW5maWxlLm1hZT4nLCAnLW9tYWUnLCAnPG91dGZpbGUubWFlPic=

> <r_lp_tautomer_probability>
1

> <r_epik_Ionization_Penalty>
0.132603

> <r_epik_Ionization_Penalty_Charging>
0

> <r_epik_Ionization_Penalty_Neutral>
0.132603

> <r_epik_State_Penalty>
0.121982

> <r_epik_Charging_Adjusted_Penalty>
0.121982

> <i_epik_Tot_Q>
0

> <i_epik_Tot_abs_Q>
0

> <r_epik_Metal_State_Penalty>
0.000135431

> <b_epik_Metal_Only>
0

> <s_lp_Force_Field>
OPLS_2005

> <r_lp_Energy>
18.9568

> <b_lp_Chiralities_Consistent>
1

> <s_lp_Variant>
AV-unprocessed.smi:492-2

> <Gold.Version>
5.8.1

> <Gold.Id.Protein>
6NUR|6NUR_protein|mol2

> <Gold.PLP.Fitness>
50.2489

> <Gold.PLP.PLP>
-47.4321

> <Gold.PLP.part.hbond>
-2.0000

> <Gold.PLP.part.metal>
0.0000

> <Gold.PLP.part.buried>
-5.0724

> <Gold.PLP.part.nonpolar>
-40.0991

> <Gold.PLP.part.repulsive>
1.1126

> <Gold.PLP.ligand.clash>
0.0000

> <Gold.PLP.ligand.torsion>
1.7240

> <Gold.PLP.Chemscore.Hbond>
2.0000

> <Gold.PLP.Chemscore.CHOScore>
0.0000

> <Gold.PLP.Chemscore.Metal>
0.0000

> <Gold.Chemscore.Hbonds>
donor molecule, donor type, donor heavy atom, donor atom, acceptor molecule, acceptor atom, score
      P1  H  7997  8008       L1    11  0.99
      P1  H 10752 10764       L1     8  1.00

> <Gold.PLP.Chemscore.Internal.Correction>
0.2648

> <Gold.Rescore>
     Score         DG    S(hbond)    S(metal)    S(lipo)     H(rot)  DE(clash)    DE(int)     intcor
     18.42     -20.11       1.90        0.00     123.37       2.40       0.07       1.62       ----

> <Gold.Chemscore.Fitness>
18.4190

> <Gold.Chemscore.DG>
-20.1135

> <Gold.Chemscore.ZeroCoef>
-5.4800

> <Gold.Chemscore.Hbond>
1.8983

> <Gold.Chemscore.Metal>
0.0000

> <Gold.Chemscore.Lipo>
123.3746

> <Gold.Chemscore.Internal_Hbond>
0.0000

> <Gold.Chemscore.DEClash>
0.0743

> <Gold.Chemscore.DEInternal>
1.6202

> <Gold.Chemscore.Rot>
2.3991

> <Gold.Chemscore.Internal.Correction>
   9.000000E+99

> <Gold.Chemscore.Hbonds>
donor molecule, donor type, donor heavy atom, donor atom, acceptor molecule, acceptor atom, score
      P1  H  7997  8008       L1    11  0.82
      P1  H 10752 10764       L1     8  0.24

> <Gold.Chemscore.Hbond.Weighted>
-6.3404

> <Gold.Chemscore.Metal.Weighted>
-0.0000

> <Gold.Chemscore.Lipo.Weighted>
-14.4348

> <Gold.Chemscore.Internal_Hbond.Weighted>
0.0000

> <Gold.Chemscore.DEClash.Weighted>
0.0743

> <Gold.Chemscore.DEInternal.Weighted>
1.6202

> <Gold.Chemscore.Rot.Weighted>
6.1417

> <Gold.Chemscore.Internal.Correction.Weighted>
   9.000000E+99

> <Gold.Protein.RotatedTorsions>
[ 6907 6896 6895 6894 ] final   76.59 input  -60.11 | X-H torsion
[ 7974 7965 7964 7962 ] final   27.77 input  175.53 | X-H torsion
[ 8008 7997 7996 7995 ] final  -33.70 input   59.86 | X-H torsion
[ 10167 10162 10161 10158 ] final -179.83 input  -65.29 | X-H torsion
[ 10718 10713 10712 10709 ] final  -23.16 input   66.30 | X-H torsion
[ 10763 10752 10751 10750 ] final  -17.97 input  -60.55 | X-H torsion
[ 11005 11000 10999 10996 ] final -116.62 input  -57.11 | X-H torsion

> <Gold.Protein.ActiveResidues>
 VAL166  LYS551  ARG553  GLY616  TRP617  ASP618  TYR619  PRO620  LYS621  CYS622 
 ASP623  PHE694  ASN695  SER759  ASP760  ASP761  ALA762  ILE779  LEU786  VAL792 
 PHE793  MET794  SER795  GLU796  ALA797  LYS798  CYS799  TRP800  GLU811  SER814 

> <Gold.Protein.RotatedAtoms>
  152.5080  134.3945  159.9395 H   0  0  0  0  0  0  0  0  0  0  0  0  # atno 6907 bound_to 6896
  151.3906  133.3784  159.2728 H   0  0  0  0  0  0  0  0  0  0  0  0  # atno 6908 bound_to 6896
  150.9435  134.8863  159.7686 H   0  0  0  0  0  0  0  0  0  0  0  0  # atno 6909 bound_to 6896
  146.1766  139.7147  142.8930 H   0  0  0  0  0  0  0  0  0  0  0  0  # atno 7974 bound_to 7965
  154.4141  140.1703  156.1931 H   0  0  0  0  0  0  0  0  0  0  0  0  # atno 8008 bound_to 7997
  155.9587  140.3395  155.6448 H   0  0  0  0  0  0  0  0  0  0  0  0  # atno 8009 bound_to 7997
  155.6776  140.0719  157.2487 H   0  0  0  0  0  0  0  0  0  0  0  0  # atno 8010 bound_to 7997
  139.5369  144.2473  152.0812 H   0  0  0  0  0  0  0  0  0  0  0  0  # atno 10167 bound_to 10162
  156.4948  130.4574  149.6735 H   0  0  0  0  0  0  0  0  0  0  0  0  # atno 10718 bound_to 10713
  153.5821  135.7005  153.5459 H   0  0  0  0  0  0  0  0  0  0  0  0  # atno 10763 bound_to 10752
  153.3252  135.4063  155.1449 H   0  0  0  0  0  0  0  0  0  0  0  0  # atno 10764 bound_to 10752
  154.8615  135.3705  154.5349 H   0  0  0  0  0  0  0  0  0  0  0  0  # atno 10765 bound_to 10752
  141.0410  133.9836  157.2995 H   0  0  0  0  0  0  0  0  0  0  0  0  # atno 11005 bound_to 11000
  145.4194  141.0405  143.2972 LP  0  0  0  0  0  0  0  0  0  0  0  0  # atno 17320 bound_to 7965
  144.8246  139.5732  143.6971 LP  0  0  0  0  0  0  0  0  0  0  0  0  # atno 17321 bound_to 7965
  140.1945  144.4719  150.6462 LP  0  0  0  0  0  0  0  0  0  0  0  0  # atno 17342 bound_to 10162
  140.6579  143.2243  151.5925 LP  0  0  0  0  0  0  0  0  0  0  0  0  # atno 17343 bound_to 10162
  156.3391  130.7372  151.2315 LP  0  0  0  0  0  0  0  0  0  0  0  0  # atno 17370 bound_to 10713
  157.7470  131.0408  150.4618 LP  0  0  0  0  0  0  0  0  0  0  0  0  # atno 17371 bound_to 10713
  139.9276  135.0201  156.8288 LP  0  0  0  0  0  0  0  0  0  0  0  0  # atno 17394 bound_to 11000
  140.6234  133.9972  155.7629 LP  0  0  0  0  0  0  0  0  0  0  0  0  # atno 17395 bound_to 11000

$$$$
