AV-unprocessed.smi:841|AV-procd|sdf|3915|dock1
  -GOLD-   22720 1373D 1   1.00000     0.00000
 Structure written by MMmdl.
 30 31  0  0  0  0  0  0  0  0  1 V2000
  150.8287  140.1563  157.7381 O   0  0  0  0  0  0  0  0  0  0  0  0
  151.3874  141.2249  157.4910 C   0  0  0  0  0  0  0  0  0  0  0  0
  151.0164  142.0129  156.2322 C   0  0  0  0  0  0  0  0  0  0  0  0
  150.1437  141.2457  155.3595 N   0  0  0  0  0  0  0  0  0  0  0  0
  148.8419  141.5180  154.9918 C   0  0  0  0  0  0  0  0  0  0  0  0
  148.4306  140.5082  154.1699 C   0  0  0  0  0  0  0  0  0  0  0  0
  149.5630  139.6499  154.0970 C   0  0  0  0  0  0  0  0  0  0  0  0
  150.5852  140.0923  154.8117 N   0  0  0  0  0  0  0  0  0  0  0  0
  152.3303  141.7659  158.2783 N   0  0  0  0  0  0  0  0  0  0  0  0
  152.8308  141.1901  159.5227 C   0  0  0  0  0  0  0  0  0  0  0  0
  153.2660  142.2772  160.5232 C   0  0  2  0  0  0  0  0  0  0  0  0
  153.4549  141.7674  161.9372 C   0  0  0  0  0  0  0  0  0  0  0  0
  153.4164  143.0594  162.7483 C   0  0  0  0  0  0  0  0  0  0  0  0
  152.5624  143.9457  162.0307 O   0  0  0  0  0  0  0  0  0  0  0  0
  152.2481  143.3955  160.7550 C   0  0  0  0  0  0  0  0  0  0  0  0
  150.5218  142.9407  156.5235 H   0  0  0  0  0  0  0  0  0  0  0  0
  151.9093  142.2885  155.6691 H   0  0  0  0  0  0  0  0  0  0  0  0
  148.3237  142.3988  155.3411 H   0  0  0  0  0  0  0  0  0  0  0  0
  147.4670  140.3981  153.6951 H   0  0  0  0  0  0  0  0  0  0  0  0
  149.6711  138.7240  153.5519 H   0  0  0  0  0  0  0  0  0  0  0  0
  152.7314  142.6481  157.9948 H   0  0  0  0  0  0  0  0  0  0  0  0
  152.0905  140.5252  159.9713 H   0  0  0  0  0  0  0  0  0  0  0  0
  153.6876  140.5636  159.2734 H   0  0  0  0  0  0  0  0  0  0  0  0
  154.2057  142.7218  160.1903 H   0  0  0  0  0  0  0  0  0  0  0  0
  152.6232  141.1219  162.2239 H   0  0  0  0  0  0  0  0  0  0  0  0
  154.3821  141.2097  162.0724 H   0  0  0  0  0  0  0  0  0  0  0  0
  153.0620  142.9004  163.7668 H   0  0  0  0  0  0  0  0  0  0  0  0
  154.4103  143.5051  162.8017 H   0  0  0  0  0  0  0  0  0  0  0  0
  152.2778  144.1579  159.9763 H   0  0  0  0  0  0  0  0  0  0  0  0
  151.2349  142.9932  160.7957 H   0  0  0  0  0  0  0  0  0  0  0  0
  1  2  2  0  0  0  0
  2  3  1  0  0  0  0
  2  9  1  0  0  0  0
  3  4  1  0  0  0  0
  3 16  1  0  0  0  0
  3 17  1  0  0  0  0
  4  8  1  0  0  0  0
  4  5  1  0  0  0  0
  5  6  2  0  0  0  0
  5 18  1  0  0  0  0
  6  7  1  0  0  0  0
  6 19  1  0  0  0  0
  7  8  2  0  0  0  0
  7 20  1  0  0  0  0
  9 10  1  0  0  0  0
  9 21  1  0  0  0  0
 10 11  1  0  0  0  0
 10 22  1  0  0  0  0
 10 23  1  0  0  0  0
 11 15  1  0  0  0  0
 11 12  1  0  0  0  0
 11 24  1  0  0  0  0
 12 13  1  0  0  0  0
 12 25  1  0  0  0  0
 12 26  1  0  0  0  0
 13 14  1  0  0  0  0
 13 27  1  0  0  0  0
 13 28  1  0  0  0  0
 14 15  1  0  0  0  0
 15 29  1  0  0  0  0
 15 30  1  0  0  0  0
M  END
> <s_m_source_file>
AV-unprocessed.smi

> <i_m_source_file_index>
841

> <i_lp_mmshare_version>
43012

> <i_f3d_flags>
0

> <s_epik_input>
bjFbY0hdW2NIXVtjSF1uMVtDSDJdQyg9TylbTkhdW0NIMl1bQ0BASF0yW0NIMl1bQ0gyXU9bQ0gyXTI=

> <s_epik_cmdline>
J2VwaWtfcHl0aG9uJywgJy1waCcsICc3LjAnLCAnLXRuJywgJzgnLCAnLW1hJywgJzIwMCcsICctbWV0YWxfYmluZGluZycsICctaW1hZScsICc8aW5maWxlLm1hZT4nLCAnLW9tYWUnLCAnPG91dGZpbGUubWFlPic=

> <r_lp_tautomer_probability>
1

> <r_epik_Ionization_Penalty>
1.49823e-05

> <r_epik_Ionization_Penalty_Charging>
0

> <r_epik_Ionization_Penalty_Neutral>
1.49823e-05

> <r_epik_State_Penalty>
-0

> <r_epik_Charging_Adjusted_Penalty>
0

> <i_epik_Tot_Q>
0

> <i_epik_Tot_abs_Q>
0

> <r_epik_Metal_State_Penalty>
-0

> <b_epik_Metal_Only>
0

> <s_lp_Force_Field>
OPLS_2005

> <r_lp_Energy>
19.4913

> <b_lp_Chiralities_Consistent>
1

> <s_lp_Variant>
AV-unprocessed.smi:841-1

> <Gold.Version>
5.8.1

> <Gold.Id.Protein>
6NUR|6NUR_protein|mol2

> <Gold.PLP.Fitness>
39.9983

> <Gold.PLP.PLP>
-33.9668

> <Gold.PLP.part.hbond>
-1.0000

> <Gold.PLP.part.metal>
0.0000

> <Gold.PLP.part.buried>
-1.8490

> <Gold.PLP.part.nonpolar>
-29.1912

> <Gold.PLP.part.repulsive>
0.3192

> <Gold.PLP.ligand.clash>
0.0000

> <Gold.PLP.ligand.torsion>
0.3538

> <Gold.PLP.Chemscore.Hbond>
1.0000

> <Gold.PLP.Chemscore.CHOScore>
1.2368

> <Gold.PLP.Chemscore.Metal>
0.0000

> <Gold.Chemscore.Hbonds>
donor molecule, donor type, donor heavy atom, donor atom, acceptor molecule, acceptor atom, score
      P1  H  7989  7998       L1     8  0.80
      L1  C     5    18       P1  8028  1.00
      L1  C     7    20       P1  7957  0.13

> <Gold.PLP.Chemscore.Internal.Correction>
0.0287

> <Gold.Rescore>
     Score         DG    S(hbond)    S(metal)    S(lipo)     H(rot)  DE(clash)    DE(int)     intcor
      9.22     -11.16       0.04        0.00      84.21       1.68       0.30       1.63       ----

> <Gold.Chemscore.Fitness>
9.2235

> <Gold.Chemscore.DG>
-11.1596

> <Gold.Chemscore.ZeroCoef>
-5.4800

> <Gold.Chemscore.Hbond>
0.0360

> <Gold.Chemscore.Metal>
0.0000

> <Gold.Chemscore.Lipo>
84.2096

> <Gold.Chemscore.Internal_Hbond>
0.0000

> <Gold.Chemscore.DEClash>
0.3021

> <Gold.Chemscore.DEInternal>
1.6339

> <Gold.Chemscore.Rot>
1.6771

> <Gold.Chemscore.Internal.Correction>
   9.000000E+99

> <Gold.Chemscore.Hbonds>
donor molecule, donor type, donor heavy atom, donor atom, acceptor molecule, acceptor atom, score
      P1  H  7989  7998       L1     8  0.04

> <Gold.Chemscore.Hbond.Weighted>
-0.1204

> <Gold.Chemscore.Metal.Weighted>
-0.0000

> <Gold.Chemscore.Lipo.Weighted>
-9.8525

> <Gold.Chemscore.Internal_Hbond.Weighted>
0.0000

> <Gold.Chemscore.DEClash.Weighted>
0.3021

> <Gold.Chemscore.DEInternal.Weighted>
1.6339

> <Gold.Chemscore.Rot.Weighted>
4.2934

> <Gold.Chemscore.Internal.Correction.Weighted>
   9.000000E+99

> <Gold.Protein.RotatedTorsions>
[ 6907 6896 6895 6894 ] final -113.26 input  -60.11 | X-H torsion
[ 7974 7965 7964 7962 ] final   83.19 input  175.53 | X-H torsion
[ 8008 7997 7996 7995 ] final  120.60 input   59.86 | X-H torsion
[ 10167 10162 10161 10158 ] final  110.58 input  -65.29 | X-H torsion
[ 10718 10713 10712 10709 ] final  -75.78 input   66.30 | X-H torsion
[ 10763 10752 10751 10750 ] final  177.26 input  -60.55 | X-H torsion
[ 11005 11000 10999 10996 ] final  153.76 input  -57.11 | X-H torsion

> <Gold.Protein.ActiveResidues>
 VAL166  LYS551  ARG553  GLY616  TRP617  ASP618  TYR619  PRO620  LYS621  CYS622 
 ASP623  PHE694  ASN695  SER759  ASP760  ASP761  ALA762  ILE779  LEU786  VAL792 
 PHE793  MET794  SER795  GLU796  ALA797  LYS798  CYS799  TRP800  GLU811  SER814 

> <Gold.Protein.RotatedAtoms>
  150.7816  133.8970  159.3329 H   0  0  0  0  0  0  0  0  0  0  0  0  # atno 6907 bound_to 6896
  151.6832  135.0956  160.0229 H   0  0  0  0  0  0  0  0  0  0  0  0  # atno 6908 bound_to 6896
  152.3869  133.6585  159.6241 H   0  0  0  0  0  0  0  0  0  0  0  0  # atno 6909 bound_to 6896
  145.6151  139.2375  143.2170 H   0  0  0  0  0  0  0  0  0  0  0  0  # atno 7974 bound_to 7965
  156.2650  140.2827  156.1176 H   0  0  0  0  0  0  0  0  0  0  0  0  # atno 8008 bound_to 7997
  155.1190  140.0392  157.2762 H   0  0  0  0  0  0  0  0  0  0  0  0  # atno 8009 bound_to 7997
  154.6685  140.2582  155.7039 H   0  0  0  0  0  0  0  0  0  0  0  0  # atno 8010 bound_to 7997
  139.6677  144.7127  151.1745 H   0  0  0  0  0  0  0  0  0  0  0  0  # atno 10167 bound_to 10162
  156.0196  130.4449  150.3094 H   0  0  0  0  0  0  0  0  0  0  0  0  # atno 10718 bound_to 10713
  154.4921  135.2779  155.1488 H   0  0  0  0  0  0  0  0  0  0  0  0  # atno 10763 bound_to 10752
  154.3156  135.6220  153.5488 H   0  0  0  0  0  0  0  0  0  0  0  0  # atno 10764 bound_to 10752
  152.9889  135.5730  154.5344 H   0  0  0  0  0  0  0  0  0  0  0  0  # atno 10765 bound_to 10752
  140.1427  134.8728  157.2352 H   0  0  0  0  0  0  0  0  0  0  0  0  # atno 11005 bound_to 11000
  146.1474  140.6973  142.9338 LP  0  0  0  0  0  0  0  0  0  0  0  0  # atno 17320 bound_to 7965
  144.7254  140.4506  143.6977 LP  0  0  0  0  0  0  0  0  0  0  0  0  # atno 17321 bound_to 7965
  140.7606  143.5893  150.8813 LP  0  0  0  0  0  0  0  0  0  0  0  0  # atno 17342 bound_to 10162
  139.9556  143.6223  152.3017 LP  0  0  0  0  0  0  0  0  0  0  0  0  # atno 17343 bound_to 10162
  157.1196  131.0243  151.3015 LP  0  0  0  0  0  0  0  0  0  0  0  0  # atno 17370 bound_to 10713
  157.4639  130.7669  149.7261 LP  0  0  0  0  0  0  0  0  0  0  0  0  # atno 17371 bound_to 10713
  140.2702  134.3469  155.7376 LP  0  0  0  0  0  0  0  0  0  0  0  0  # atno 17394 bound_to 11000
  141.2188  133.7419  156.9211 LP  0  0  0  0  0  0  0  0  0  0  0  0  # atno 17395 bound_to 11000

$$$$
