AV-unprocessed.smi:1429|AV-procd|sdf|5818|dock8
  -GOLD-   22720 5473D 1   1.00000     0.00000
 Structure written by MMmdl.
 30 31  0  0  0  0  0  0  0  0  1 V2000
  144.1599  131.7885  150.5121 C   0  0  0  0  0  0  0  0  0  0  0  0
  144.5564  133.1030  151.0924 C   0  0  0  0  0  0  0  0  0  0  0  0
  143.7162  133.8585  151.8095 N   0  0  0  0  0  0  0  0  0  0  0  0
  144.3077  135.0367  152.2432 N   0  0  0  0  0  0  0  0  0  0  0  0
  145.5807  135.1361  151.8368 C   0  0  0  0  0  0  0  0  0  0  0  0
  146.4213  136.2401  152.1387 N   0  0  0  0  0  0  0  0  0  0  0  0
  146.0648  137.4740  152.5369 C   0  0  0  0  0  0  0  0  0  0  0  0
  144.9087  137.8596  152.7131 O   0  0  0  0  0  0  0  0  0  0  0  0
  147.1392  138.2542  152.7227 N   0  0  0  0  0  0  0  0  0  0  0  0
  147.0953  139.6484  153.1512 C   0  0  0  0  0  0  0  0  0  0  0  0
  148.1420  139.9535  154.2398 C   0  0  2  0  0  0  0  0  0  0  0  0
  148.4811  141.4223  154.4034 C   0  0  0  0  0  0  0  0  0  0  0  0
  149.8139  141.3500  155.1403 C   0  0  0  0  0  0  0  0  0  0  0  0
  150.4582  140.1787  154.6496 O   0  0  0  0  0  0  0  0  0  0  0  0
  149.5212  139.3560  153.9588 C   0  0  0  0  0  0  0  0  0  0  0  0
  146.1647  133.7848  150.8804 S   0  0  0  0  0  0  0  0  0  0  0  0
  143.4593  131.2775  151.1733 H   0  0  0  0  0  0  0  0  0  0  0  0
  145.0365  131.1546  150.3779 H   0  0  0  0  0  0  0  0  0  0  0  0
  143.6836  131.9383  149.5432 H   0  0  0  0  0  0  0  0  0  0  0  0
  147.4112  136.0701  152.0390 H   0  0  0  0  0  0  0  0  0  0  0  0
  148.0526  137.8578  152.5559 H   0  0  0  0  0  0  0  0  0  0  0  0
  147.2421  140.3053  152.2923 H   0  0  0  0  0  0  0  0  0  0  0  0
  146.0923  139.8541  153.5264 H   0  0  0  0  0  0  0  0  0  0  0  0
  147.7942  139.5702  155.2007 H   0  0  0  0  0  0  0  0  0  0  0  0
  148.6161  141.8951  153.4293 H   0  0  0  0  0  0  0  0  0  0  0  0
  147.7233  141.9808  154.9539 H   0  0  0  0  0  0  0  0  0  0  0  0
  150.4268  142.2385  154.9869 H   0  0  0  0  0  0  0  0  0  0  0  0
  149.6486  141.2328  156.2120 H   0  0  0  0  0  0  0  0  0  0  0  0
  149.5945  138.3165  154.2792 H   0  0  0  0  0  0  0  0  0  0  0  0
  149.7535  139.3963  152.8936 H   0  0  0  0  0  0  0  0  0  0  0  0
  1  2  1  0  0  0  0
  1 17  1  0  0  0  0
  1 18  1  0  0  0  0
  1 19  1  0  0  0  0
  2 16  1  0  0  0  0
  2  3  2  0  0  0  0
  3  4  1  0  0  0  0
  4  5  2  0  0  0  0
  5  6  1  0  0  0  0
  5 16  1  0  0  0  0
  6  7  1  0  0  0  0
  6 20  1  0  0  0  0
  7  8  2  0  0  0  0
  7  9  1  0  0  0  0
  9 10  1  0  0  0  0
  9 21  1  0  0  0  0
 10 11  1  0  0  0  0
 10 22  1  0  0  0  0
 10 23  1  0  0  0  0
 11 15  1  0  0  0  0
 11 12  1  0  0  0  0
 11 24  1  0  0  0  0
 12 13  1  0  0  0  0
 12 25  1  0  0  0  0
 12 26  1  0  0  0  0
 13 14  1  0  0  0  0
 13 27  1  0  0  0  0
 13 28  1  0  0  0  0
 14 15  1  0  0  0  0
 15 29  1  0  0  0  0
 15 30  1  0  0  0  0
M  END
> <s_m_source_file>
AV-unprocessed.smi

> <i_m_source_file_index>
1429

> <i_lp_mmshare_version>
43012

> <i_f3d_flags>
0

> <s_epik_input>
W0NIM11jMW5uYyhzMSlbTkhdQyg9TylbTkhdW0NIMl1bQ0BASF0yW0NIMl1bQ0gyXU9bQ0gyXTI=

> <s_epik_cmdline>
J2VwaWtfcHl0aG9uJywgJy1waCcsICc3LjAnLCAnLXRuJywgJzgnLCAnLW1hJywgJzIwMCcsICctbWV0YWxfYmluZGluZycsICctaW1hZScsICc8aW5maWxlLm1hZT4nLCAnLW9tYWUnLCAnPG91dGZpbGUubWFlPic=

> <r_lp_tautomer_probability>
1

> <r_epik_Ionization_Penalty>
0.000468089

> <r_epik_Ionization_Penalty_Charging>
0

> <r_epik_Ionization_Penalty_Neutral>
0.000468089

> <r_epik_State_Penalty>
-0

> <r_epik_Charging_Adjusted_Penalty>
0

> <i_epik_Tot_Q>
0

> <i_epik_Tot_abs_Q>
0

> <r_epik_Metal_State_Penalty>
0.211262

> <b_epik_Metal_Only>
0

> <s_lp_Force_Field>
OPLS_2005

> <r_lp_Energy>
16.548

> <b_lp_Chiralities_Consistent>
1

> <s_lp_Variant>
AV-unprocessed.smi:1429-1

> <Gold.Version>
5.8.1

> <Gold.Id.Protein>
6NUR|6NUR_protein|mol2

> <Gold.PLP.Fitness>
34.4192

> <Gold.PLP.PLP>
-26.4782

> <Gold.PLP.part.hbond>
-2.9991

> <Gold.PLP.part.metal>
0.0000

> <Gold.PLP.part.buried>
-3.0678

> <Gold.PLP.part.nonpolar>
-22.4294

> <Gold.PLP.part.repulsive>
2.2637

> <Gold.PLP.ligand.clash>
0.0000

> <Gold.PLP.ligand.torsion>
0.3276

> <Gold.PLP.Chemscore.Hbond>
2.8640

> <Gold.PLP.Chemscore.CHOScore>
0.0000

> <Gold.PLP.Chemscore.Metal>
0.0000

> <Gold.Chemscore.Hbonds>
donor molecule, donor type, donor heavy atom, donor atom, acceptor molecule, acceptor atom, score
      L1  H     6    20       P1  7948  1.00
      L1  H     9    21       P1  7948  0.86
      P1  H  7989  7998       L1    14  1.00

> <Gold.PLP.Chemscore.Internal.Correction>
0.0042

> <Gold.Rescore>
     Score         DG    S(hbond)    S(metal)    S(lipo)     H(rot)  DE(clash)    DE(int)     intcor
     14.68     -17.77       2.63        0.00      58.53       1.31       1.53       1.56       ----

> <Gold.Chemscore.Fitness>
14.6770

> <Gold.Chemscore.DG>
-17.7673

> <Gold.Chemscore.ZeroCoef>
-5.4800

> <Gold.Chemscore.Hbond>
2.6344

> <Gold.Chemscore.Metal>
0.0000

> <Gold.Chemscore.Lipo>
58.5329

> <Gold.Chemscore.Internal_Hbond>
0.0000

> <Gold.Chemscore.DEClash>
1.5327

> <Gold.Chemscore.DEInternal>
1.5577

> <Gold.Chemscore.Rot>
1.3125

> <Gold.Chemscore.Internal.Correction>
   9.000000E+99

> <Gold.Chemscore.Hbonds>
donor molecule, donor type, donor heavy atom, donor atom, acceptor molecule, acceptor atom, score
      L1  H     6    20       P1  7948  0.94
      L1  H     9    21       P1  7948  0.83
      P1  H  7989  7998       L1    14  0.22

> <Gold.Chemscore.Hbond.Weighted>
-8.7990

> <Gold.Chemscore.Metal.Weighted>
-0.0000

> <Gold.Chemscore.Lipo.Weighted>
-6.8484

> <Gold.Chemscore.Internal_Hbond.Weighted>
0.0000

> <Gold.Chemscore.DEClash.Weighted>
1.5327

> <Gold.Chemscore.DEInternal.Weighted>
1.5577

> <Gold.Chemscore.Rot.Weighted>
3.3600

> <Gold.Chemscore.Internal.Correction.Weighted>
   9.000000E+99

> <Gold.Protein.RotatedTorsions>
[ 6907 6896 6895 6894 ] final -146.92 input  -60.11 | X-H torsion
[ 7974 7965 7964 7962 ] final   12.25 input  175.53 | X-H torsion
[ 8008 7997 7996 7995 ] final -179.63 input   59.86 | X-H torsion
[ 10167 10162 10161 10158 ] final   88.43 input  -65.29 | X-H torsion
[ 10718 10713 10712 10709 ] final   86.45 input   66.30 | X-H torsion
[ 10763 10752 10751 10750 ] final   -3.97 input  -60.55 | X-H torsion
[ 11005 11000 10999 10996 ] final -145.55 input  -57.11 | X-H torsion

> <Gold.Protein.ActiveResidues>
 VAL166  LYS551  ARG553  GLY616  TRP617  ASP618  TYR619  PRO620  LYS621  CYS622 
 ASP623  PHE694  ASN695  SER759  ASP760  ASP761  ALA762  ILE779  LEU786  VAL792 
 PHE793  MET794  SER795  GLU796  ALA797  LYS798  CYS799  TRP800  GLU811  SER814 

> <Gold.Protein.RotatedAtoms>
  151.1484  133.4924  159.2595 H   0  0  0  0  0  0  0  0  0  0  0  0  # atno 6907 bound_to 6896
  151.1580  135.0259  159.8708 H   0  0  0  0  0  0  0  0  0  0  0  0  # atno 6908 bound_to 6896
  152.5463  134.1361  159.8512 H   0  0  0  0  0  0  0  0  0  0  0  0  # atno 6909 bound_to 6896
  146.2355  139.9365  142.8489 H   0  0  0  0  0  0  0  0  0  0  0  0  # atno 7974 bound_to 7965
  156.0328  140.1286  157.0240 H   0  0  0  0  0  0  0  0  0  0  0  0  # atno 8008 bound_to 7997
  154.4357  140.1046  156.6194 H   0  0  0  0  0  0  0  0  0  0  0  0  # atno 8009 bound_to 7997
  155.5782  140.3467  155.4535 H   0  0  0  0  0  0  0  0  0  0  0  0  # atno 8010 bound_to 7997
  139.8673  144.6511  150.8989 H   0  0  0  0  0  0  0  0  0  0  0  0  # atno 10167 bound_to 10162
  157.6929  131.0216  150.2974 H   0  0  0  0  0  0  0  0  0  0  0  0  # atno 10718 bound_to 10713
  153.3785  135.6997  153.6583 H   0  0  0  0  0  0  0  0  0  0  0  0  # atno 10763 bound_to 10752
  153.5204  135.3613  155.2630 H   0  0  0  0  0  0  0  0  0  0  0  0  # atno 10764 bound_to 10752
  154.8690  135.4156  154.3078 H   0  0  0  0  0  0  0  0  0  0  0  0  # atno 10765 bound_to 10752
  140.7911  134.2967  157.5013 H   0  0  0  0  0  0  0  0  0  0  0  0  # atno 11005 bound_to 11000
  145.1994  140.9847  143.4165 LP  0  0  0  0  0  0  0  0  0  0  0  0  # atno 17320 bound_to 7965
  144.9787  139.3805  143.6273 LP  0  0  0  0  0  0  0  0  0  0  0  0  # atno 17321 bound_to 7965
  140.7766  143.3693  151.1680 LP  0  0  0  0  0  0  0  0  0  0  0  0  # atno 17342 bound_to 10162
  139.7316  143.9063  152.3021 LP  0  0  0  0  0  0  0  0  0  0  0  0  # atno 17343 bound_to 10162
  156.3496  130.3828  149.7340 LP  0  0  0  0  0  0  0  0  0  0  0  0  # atno 17370 bound_to 10713
  156.4823  130.8046  151.3060 LP  0  0  0  0  0  0  0  0  0  0  0  0  # atno 17371 bound_to 10713
  139.8731  134.9375  156.3689 LP  0  0  0  0  0  0  0  0  0  0  0  0  # atno 17394 bound_to 11000
  140.9389  133.7528  156.0120 LP  0  0  0  0  0  0  0  0  0  0  0  0  # atno 17395 bound_to 11000

$$$$
