AV-unprocessed.smi:2195|AV-procd|sdf|8905|dock1
  -GOLD-   2272012123D 1   1.00000     0.00000
 Structure written by MMmdl.
 39 41  0  0  0  0  0  0  0  0  1 V2000
  151.1143  145.2111  159.2495 C   0  0  0  0  0  0  0  0  0  0  0  0
  151.8636  144.0534  159.8766 C   0  0  0  0  0  0  0  0  0  0  0  0
  152.4363  143.0504  159.0696 C   0  0  0  0  0  0  0  0  0  0  0  0
  153.1323  141.9792  159.6623 C   0  0  0  0  0  0  0  0  0  0  0  0
  153.2683  141.8920  161.0632 C   0  0  0  0  0  0  0  0  0  0  0  0
  153.9679  140.8122  161.5579 O   0  0  0  0  0  0  0  0  0  0  0  0
  154.9360  140.1940  160.7199 C   0  0  0  0  0  0  0  0  0  0  0  0
  154.5884  138.7038  160.5794 C   0  0  1  0  0  0  0  0  0  0  0  0
  154.6887  138.0986  161.8540 O   0  0  0  0  0  0  0  0  0  0  0  0
  153.1607  138.4928  160.0385 C   0  0  0  0  0  0  0  0  0  0  0  0
  153.1503  137.8490  158.7369 N   0  0  0  0  0  0  0  0  0  0  0  0
  153.7425  136.6876  158.3981 C   0  0  0  0  0  0  0  0  0  0  0  0
  153.6058  136.2779  157.1399 N   0  0  0  0  0  0  0  0  0  0  0  0
  152.8359  137.2929  156.5983 C   0  0  0  0  0  0  0  0  0  0  0  0
  152.3375  137.4665  155.2870 C   0  0  0  0  0  0  0  0  0  0  0  0
  151.5636  138.5997  154.9610 C   0  0  0  0  0  0  0  0  0  0  0  0
  151.2760  139.5749  155.9384 C   0  0  0  0  0  0  0  0  0  0  0  0
  151.7606  139.4232  157.2518 C   0  0  0  0  0  0  0  0  0  0  0  0
  152.5330  138.2915  157.5725 C   0  0  0  0  0  0  0  0  0  0  0  0
  152.6863  142.9028  161.8693 C   0  0  0  0  0  0  0  0  0  0  0  0
  151.9898  143.9743  161.2773 C   0  0  0  0  0  0  0  0  0  0  0  0
  151.2004  145.1992  158.1626 H   0  0  0  0  0  0  0  0  0  0  0  0
  151.5123  146.1596  159.6108 H   0  0  0  0  0  0  0  0  0  0  0  0
  150.0567  145.1608  159.5090 H   0  0  0  0  0  0  0  0  0  0  0  0
  152.3454  143.0975  157.9942 H   0  0  0  0  0  0  0  0  0  0  0  0
  153.5681  141.2165  159.0338 H   0  0  0  0  0  0  0  0  0  0  0  0
  154.9893  140.6728  159.7402 H   0  0  0  0  0  0  0  0  0  0  0  0
  155.9141  140.2933  161.1938 H   0  0  0  0  0  0  0  0  0  0  0  0
  155.2987  138.2257  159.9034 H   0  0  0  0  0  0  0  0  0  0  0  0
  155.6043  138.0162  162.0736 H   0  0  0  0  0  0  0  0  0  0  0  0
  152.5734  137.8898  160.7330 H   0  0  0  0  0  0  0  0  0  0  0  0
  152.6466  139.4502  159.9453 H   0  0  0  0  0  0  0  0  0  0  0  0
  154.3092  136.1121  159.1154 H   0  0  0  0  0  0  0  0  0  0  0  0
  152.5515  136.7263  154.5305 H   0  0  0  0  0  0  0  0  0  0  0  0
  151.1891  138.7214  153.9552 H   0  0  0  0  0  0  0  0  0  0  0  0
  150.6832  140.4398  155.6792 H   0  0  0  0  0  0  0  0  0  0  0  0
  151.5429  140.1673  158.0037 H   0  0  0  0  0  0  0  0  0  0  0  0
  152.7592  142.8796  162.9459 H   0  0  0  0  0  0  0  0  0  0  0  0
  151.5516  144.7378  161.9034 H   0  0  0  0  0  0  0  0  0  0  0  0
  1  2  1  0  0  0  0
  1 22  1  0  0  0  0
  1 23  1  0  0  0  0
  1 24  1  0  0  0  0
  2 21  1  0  0  0  0
  2  3  2  0  0  0  0
  3  4  1  0  0  0  0
  3 25  1  0  0  0  0
  4  5  2  0  0  0  0
  4 26  1  0  0  0  0
  5  6  1  0  0  0  0
  5 20  1  0  0  0  0
  6  7  1  0  0  0  0
  7  8  1  0  0  0  0
  7 27  1  0  0  0  0
  7 28  1  0  0  0  0
  8  9  1  0  0  0  0
  8 10  1  0  0  0  0
  8 29  1  0  0  0  0
  9 30  1  0  0  0  0
 10 11  1  0  0  0  0
 10 31  1  0  0  0  0
 10 32  1  0  0  0  0
 11 19  1  0  0  0  0
 11 12  1  0  0  0  0
 12 13  2  0  0  0  0
 12 33  1  0  0  0  0
 13 14  1  0  0  0  0
 14 19  2  0  0  0  0
 14 15  1  0  0  0  0
 15 16  2  0  0  0  0
 15 34  1  0  0  0  0
 16 17  1  0  0  0  0
 16 35  1  0  0  0  0
 17 18  2  0  0  0  0
 17 36  1  0  0  0  0
 18 19  1  0  0  0  0
 18 37  1  0  0  0  0
 20 21  2  0  0  0  0
 20 38  1  0  0  0  0
 21 39  1  0  0  0  0
M  END
> <s_m_source_file>
AV-unprocessed.smi

> <i_m_source_file_index>
2195

> <i_lp_mmshare_version>
43012

> <i_f3d_flags>
0

> <s_epik_input>
W0NIM11jMVtjSF1bY0hdYyhbY0hdW2NIXTEpT1tDSDJdW0NASF0oW09IXSlbQ0gyXW4oW2NIXW4yKWMoYzIzKVtjSF1bY0hdW2NIXVtjSF0z

> <s_epik_cmdline>
J2VwaWtfcHl0aG9uJywgJy1waCcsICc3LjAnLCAnLXRuJywgJzgnLCAnLW1hJywgJzIwMCcsICctbWV0YWxfYmluZGluZycsICctaW1hZScsICc8aW5maWxlLm1hZT4nLCAnLW9tYWUnLCAnPG91dGZpbGUubWFlPic=

> <r_lp_tautomer_probability>
1

> <r_epik_Ionization_Penalty>
0.0609831

> <r_epik_Ionization_Penalty_Charging>
0

> <r_epik_Ionization_Penalty_Neutral>
0.0609831

> <r_epik_State_Penalty>
0.0529032

> <r_epik_Charging_Adjusted_Penalty>
0.0529032

> <i_epik_Tot_Q>
0

> <i_epik_Tot_abs_Q>
0

> <r_epik_Metal_State_Penalty>
5.53344e-05

> <b_epik_Metal_Only>
0

> <s_lp_Force_Field>
OPLS_2005

> <r_lp_Energy>
16.3269

> <b_lp_Chiralities_Consistent>
1

> <s_lp_Variant>
AV-unprocessed.smi:2195-2

> <Gold.Version>
5.8.1

> <Gold.Id.Protein>
6NUR|6NUR_protein|mol2

> <Gold.PLP.Fitness>
49.0627

> <Gold.PLP.PLP>
-49.1096

> <Gold.PLP.part.hbond>
-1.0000

> <Gold.PLP.part.metal>
0.0000

> <Gold.PLP.part.buried>
-4.5184

> <Gold.PLP.part.nonpolar>
-42.8877

> <Gold.PLP.part.repulsive>
0.0000

> <Gold.PLP.ligand.clash>
0.0234

> <Gold.PLP.ligand.torsion>
1.5068

> <Gold.PLP.Chemscore.Hbond>
0.9600

> <Gold.PLP.Chemscore.CHOScore>
0.0000

> <Gold.PLP.Chemscore.Metal>
0.0000

> <Gold.Chemscore.Hbonds>
donor molecule, donor type, donor heavy atom, donor atom, acceptor molecule, acceptor atom, score
      P1  H 10752 10763       L1    13  0.45

> <Gold.PLP.Chemscore.Internal.Correction>
0.1101

> <Gold.Rescore>
     Score         DG    S(hbond)    S(metal)    S(lipo)     H(rot)  DE(clash)    DE(int)     intcor
     17.78     -19.29       0.86        0.00     141.34       2.19       0.07       1.45       ----

> <Gold.Chemscore.Fitness>
17.7759

> <Gold.Chemscore.DG>
-19.2897

> <Gold.Chemscore.ZeroCoef>
-5.4800

> <Gold.Chemscore.Hbond>
0.8601

> <Gold.Chemscore.Metal>
0.0000

> <Gold.Chemscore.Lipo>
141.3439

> <Gold.Chemscore.Internal_Hbond>
0.0000

> <Gold.Chemscore.DEClash>
0.0650

> <Gold.Chemscore.DEInternal>
1.4487

> <Gold.Chemscore.Rot>
2.1877

> <Gold.Chemscore.Internal.Correction>
   9.000000E+99

> <Gold.Chemscore.Hbonds>
donor molecule, donor type, donor heavy atom, donor atom, acceptor molecule, acceptor atom, score
      P1  H 10752 10763       L1    13  0.02

> <Gold.Chemscore.Hbond.Weighted>
-2.8729

> <Gold.Chemscore.Metal.Weighted>
-0.0000

> <Gold.Chemscore.Lipo.Weighted>
-16.5372

> <Gold.Chemscore.Internal_Hbond.Weighted>
0.0000

> <Gold.Chemscore.DEClash.Weighted>
0.0650

> <Gold.Chemscore.DEInternal.Weighted>
1.4487

> <Gold.Chemscore.Rot.Weighted>
5.6005

> <Gold.Chemscore.Internal.Correction.Weighted>
   9.000000E+99

> <Gold.Protein.RotatedTorsions>
[ 6907 6896 6895 6894 ] final  -69.95 input  -60.11 | X-H torsion
[ 7974 7965 7964 7962 ] final   -1.03 input  175.53 | X-H torsion
[ 8008 7997 7996 7995 ] final  -66.51 input   59.86 | X-H torsion
[ 10167 10162 10161 10158 ] final  164.12 input  -65.29 | X-H torsion
[ 10718 10713 10712 10709 ] final -106.82 input   66.30 | X-H torsion
[ 10763 10752 10751 10750 ] final  122.06 input  -60.55 | X-H torsion
[ 11005 11000 10999 10996 ] final  -98.00 input  -57.11 | X-H torsion

> <Gold.Protein.ActiveResidues>
 VAL166  LYS551  ARG553  GLY616  TRP617  ASP618  TYR619  PRO620  LYS621  CYS622 
 ASP623  PHE694  ASN695  SER759  ASP760  ASP761  ALA762  ILE779  LEU786  VAL792 
 PHE793  MET794  SER795  GLU796  ALA797  LYS798  CYS799  TRP800  GLU811  SER814 

> <Gold.Protein.RotatedAtoms>
  150.7280  134.5523  159.5800 H   0  0  0  0  0  0  0  0  0  0  0  0  # atno 6907 bound_to 6896
  152.3007  134.7611  160.0367 H   0  0  0  0  0  0  0  0  0  0  0  0  # atno 6908 bound_to 6896
  151.8193  133.3357  159.3616 H   0  0  0  0  0  0  0  0  0  0  0  0  # atno 6909 bound_to 6896
  146.2421  140.1359  142.8336 H   0  0  0  0  0  0  0  0  0  0  0  0  # atno 7974 bound_to 7965
  154.4739  140.0911  156.7214 H   0  0  0  0  0  0  0  0  0  0  0  0  # atno 8008 bound_to 7997
  155.4649  140.3462  155.4299 H   0  0  0  0  0  0  0  0  0  0  0  0  # atno 8009 bound_to 7997
  156.1085  140.1441  156.9360 H   0  0  0  0  0  0  0  0  0  0  0  0  # atno 8010 bound_to 7997
  139.4884  144.4267  151.9120 H   0  0  0  0  0  0  0  0  0  0  0  0  # atno 10167 bound_to 10162
  156.0407  130.5632  150.7734 H   0  0  0  0  0  0  0  0  0  0  0  0  # atno 10718 bound_to 10713
  153.6238  135.3408  155.3019 H   0  0  0  0  0  0  0  0  0  0  0  0  # atno 10763 bound_to 10752
  154.8594  135.4279  154.2179 H   0  0  0  0  0  0  0  0  0  0  0  0  # atno 10764 bound_to 10752
  153.3058  135.7028  153.7234 H   0  0  0  0  0  0  0  0  0  0  0  0  # atno 10765 bound_to 10752
  141.1360  133.8212  157.0781 H   0  0  0  0  0  0  0  0  0  0  0  0  # atno 11005 bound_to 11000
  145.0287  140.8853  143.5122 LP  0  0  0  0  0  0  0  0  0  0  0  0  # atno 17320 bound_to 7965
  145.1419  139.2567  143.5485 LP  0  0  0  0  0  0  0  0  0  0  0  0  # atno 17321 bound_to 7965
  140.3713  144.2851  150.5919 LP  0  0  0  0  0  0  0  0  0  0  0  0  # atno 17342 bound_to 10162
  140.5316  143.2242  151.8230 LP  0  0  0  0  0  0  0  0  0  0  0  0  # atno 17343 bound_to 10162
  157.5222  131.0932  151.0064 LP  0  0  0  0  0  0  0  0  0  0  0  0  # atno 17370 bound_to 10713
  157.0392  130.5742  149.5353 LP  0  0  0  0  0  0  0  0  0  0  0  0  # atno 17371 bound_to 10713
  140.0469  134.9826  157.1065 LP  0  0  0  0  0  0  0  0  0  0  0  0  # atno 17394 bound_to 11000
  140.4049  134.2043  155.7163 LP  0  0  0  0  0  0  0  0  0  0  0  0  # atno 17395 bound_to 11000

$$$$
