AV-unprocessed.smi:546|AV-procd|sdf|2885|dock10
  -GOLD-   2262023383D 1   1.00000     0.00000
 Structure written by MMmdl.
 52 54  0  0  0  0  0  0  0  0  1 V2000
  145.3419  143.4641  155.0626 C   0  0  0  0  0  0  0  0  0  0  0  0
  146.5051  142.4703  155.0461 C   0  0  0  0  0  0  0  0  0  0  0  0
  146.9607  142.2904  156.3743 O   0  0  0  0  0  0  0  0  0  0  0  0
  148.0645  141.4059  156.4709 C   0  0  0  0  0  0  0  0  0  0  0  0
  149.3712  142.1942  156.3005 C   0  0  0  0  0  0  0  0  0  0  0  0
  150.5342  141.3129  156.3171 N   0  0  0  0  0  0  0  0  0  0  0  0
  151.6197  141.3587  157.1368 C   0  0  0  0  0  0  0  0  0  0  0  0
  151.8005  142.3612  158.0934 N   0  0  0  0  0  0  0  0  0  0  0  0
  151.5945  143.7906  157.8366 C   0  0  0  0  0  0  0  0  0  0  0  0
  151.0751  144.5811  159.0605 C   0  0  1  0  0  0  0  0  0  0  0  0
  149.5904  144.3281  159.3681 C   0  0  0  0  0  0  0  0  0  0  0  0
  151.9772  144.3396  160.2822 C   0  0  0  0  0  0  0  0  0  0  0  0
  152.2054  142.8377  160.5122 C   0  0  2  0  0  0  0  0  0  0  0  0
  153.1666  142.5900  161.6826 C   0  0  0  0  0  0  0  0  0  0  0  0
  152.7232  142.1900  159.2158 C   0  0  0  0  0  0  0  0  0  0  0  0
  152.4811  140.3504  156.9700 N   0  0  0  0  0  0  0  0  0  0  0  0
  151.9128  139.6137  155.9433 C   0  0  0  0  0  0  0  0  0  0  0  0
  150.7455  140.1737  155.5361 C   0  0  0  0  0  0  0  0  0  0  0  0
  149.9161  139.5788  154.4774 C   0  0  0  0  0  0  0  0  0  0  0  0
  148.8530  140.0604  154.0926 O   0  0  0  0  0  0  0  0  0  0  0  0
  150.4412  138.4384  153.9677 N   0  0  0  0  0  0  0  0  0  0  0  0
  151.6077  137.8244  154.3321 C   0  0  0  0  0  0  0  0  0  0  0  0
  151.9531  136.7812  153.7774 O   0  0  0  0  0  0  0  0  0  0  0  0
  152.3542  138.4110  155.3215 N   0  0  0  0  0  0  0  0  0  0  0  0
  153.6085  137.7929  155.7554 C   0  0  0  0  0  0  0  0  0  0  0  0
  149.9091  137.9887  153.2370 H   0  0  0  0  0  0  0  0  0  0  0  0
  144.9573  143.6320  154.0568 H   0  0  0  0  0  0  0  0  0  0  0  0
  145.6560  144.4267  155.4668 H   0  0  0  0  0  0  0  0  0  0  0  0
  144.5216  143.0947  155.6783 H   0  0  0  0  0  0  0  0  0  0  0  0
  146.1789  141.5178  154.6265 H   0  0  0  0  0  0  0  0  0  0  0  0
  147.3123  142.8514  154.4189 H   0  0  0  0  0  0  0  0  0  0  0  0
  148.0566  140.9003  157.4373 H   0  0  0  0  0  0  0  0  0  0  0  0
  147.9908  140.6395  155.6979 H   0  0  0  0  0  0  0  0  0  0  0  0
  149.3560  142.7617  155.3721 H   0  0  0  0  0  0  0  0  0  0  0  0
  149.4631  142.9407  157.0821 H   0  0  0  0  0  0  0  0  0  0  0  0
  152.5546  144.2075  157.5292 H   0  0  0  0  0  0  0  0  0  0  0  0
  150.9342  143.9346  156.9823 H   0  0  0  0  0  0  0  0  0  0  0  0
  151.1506  145.6401  158.8108 H   0  0  0  0  0  0  0  0  0  0  0  0
  149.4000  143.2866  159.6215 H   0  0  0  0  0  0  0  0  0  0  0  0
  148.9635  144.5871  158.5149 H   0  0  0  0  0  0  0  0  0  0  0  0
  149.2574  144.9364  160.2094 H   0  0  0  0  0  0  0  0  0  0  0  0
  152.9390  144.8267  160.1144 H   0  0  0  0  0  0  0  0  0  0  0  0
  151.5505  144.8050  161.1714 H   0  0  0  0  0  0  0  0  0  0  0  0
  151.2530  142.3728  160.7689 H   0  0  0  0  0  0  0  0  0  0  0  0
  154.1468  143.0275  161.4906 H   0  0  0  0  0  0  0  0  0  0  0  0
  153.3068  141.5228  161.8556 H   0  0  0  0  0  0  0  0  0  0  0  0
  152.7818  143.0255  162.6051 H   0  0  0  0  0  0  0  0  0  0  0  0
  152.8798  141.1239  159.3857 H   0  0  0  0  0  0  0  0  0  0  0  0
  153.6949  142.6053  158.9443 H   0  0  0  0  0  0  0  0  0  0  0  0
  154.2843  137.6579  154.9098 H   0  0  0  0  0  0  0  0  0  0  0  0
  153.4168  136.8146  156.1977 H   0  0  0  0  0  0  0  0  0  0  0  0
  154.1362  138.3910  156.4981 H   0  0  0  0  0  0  0  0  0  0  0  0
  1  2  1  0  0  0  0
  1 27  1  0  0  0  0
  1 28  1  0  0  0  0
  1 29  1  0  0  0  0
  2  3  1  0  0  0  0
  2 30  1  0  0  0  0
  2 31  1  0  0  0  0
  3  4  1  0  0  0  0
  4  5  1  0  0  0  0
  4 32  1  0  0  0  0
  4 33  1  0  0  0  0
  5  6  1  0  0  0  0
  5 34  1  0  0  0  0
  5 35  1  0  0  0  0
  6 18  1  0  0  0  0
  6  7  1  0  0  0  0
  7  8  1  0  0  0  0
  7 16  2  0  0  0  0
  8 15  1  0  0  0  0
  8  9  1  0  0  0  0
  9 10  1  0  0  0  0
  9 36  1  0  0  0  0
  9 37  1  0  0  0  0
 10 11  1  0  0  0  0
 10 12  1  0  0  0  0
 10 38  1  0  0  0  0
 11 39  1  0  0  0  0
 11 40  1  0  0  0  0
 11 41  1  0  0  0  0
 12 13  1  0  0  0  0
 12 42  1  0  0  0  0
 12 43  1  0  0  0  0
 13 14  1  0  0  0  0
 13 15  1  0  0  0  0
 13 44  1  0  0  0  0
 14 45  1  0  0  0  0
 14 46  1  0  0  0  0
 14 47  1  0  0  0  0
 15 48  1  0  0  0  0
 15 49  1  0  0  0  0
 16 17  1  0  0  0  0
 17 24  1  0  0  0  0
 17 18  2  0  0  0  0
 18 19  1  0  0  0  0
 19 20  2  0  0  0  0
 19 21  1  0  0  0  0
 21 26  1  0  0  0  0
 21 22  1  0  0  0  0
 22 23  2  0  0  0  0
 22 24  1  0  0  0  0
 24 25  1  0  0  0  0
 25 50  1  0  0  0  0
 25 51  1  0  0  0  0
 25 52  1  0  0  0  0
M  END
> <s_m_source_file>
AV-unprocessed.smi

> <i_m_source_file_index>
546

> <i_lp_mmshare_version>
43012

> <i_f3d_flags>
0

> <s_epik_input>
W0NIM11uMWMoPU8pW25IXWMoPU8pYyhjMTIpbihbQ0gyXVtDSDJdT1tDSDJdW0NIM10pYyhuMilOM1tDSDJdW0NAQEhdKFtDSDNdKVtDSDJdW0NAQEhdKFtDSDNdKVtDSDJdMw==

> <s_epik_cmdline>
J2VwaWtfcHl0aG9uJywgJy1waCcsICc3LjAnLCAnLXRuJywgJzgnLCAnLW1hJywgJzIwMCcsICctbWV0YWxfYmluZGluZycsICctaW1hZScsICc8aW5maWxlLm1hZT4nLCAnLW9tYWUnLCAnPG91dGZpbGUubWFlPic=

> <r_lp_tautomer_probability>
1

> <r_epik_Ionization_Penalty>
0.000576472

> <r_epik_Ionization_Penalty_Charging>
0.000118943

> <r_epik_Ionization_Penalty_Neutral>
0.000457529

> <r_epik_State_Penalty>
-0

> <r_epik_Charging_Adjusted_Penalty>
0.000118943

> <i_epik_Tot_Q>
0

> <i_epik_Tot_abs_Q>
0

> <r_epik_Metal_State_Penalty>
0.0916165

> <b_epik_Metal_Only>
0

> <s_lp_Force_Field>
OPLS_2005

> <r_lp_Energy>
39.3864

> <b_lp_Chiralities_Consistent>
1

> <s_lp_Variant>
AV-unprocessed.smi:546-3

> <Gold.Version>
5.8.1

> <Gold.Id.Protein>
6NUR|6NUR_protein|mol2

> <Gold.PLP.Fitness>
50.1282

> <Gold.PLP.PLP>
-44.5540

> <Gold.PLP.part.hbond>
-2.0000

> <Gold.PLP.part.metal>
0.0000

> <Gold.PLP.part.buried>
0.3983

> <Gold.PLP.part.nonpolar>
-46.6968

> <Gold.PLP.part.repulsive>
4.4678

> <Gold.PLP.ligand.clash>
0.0000

> <Gold.PLP.ligand.torsion>
0.6527

> <Gold.PLP.Chemscore.Hbond>
2.1220

> <Gold.PLP.Chemscore.CHOScore>
0.0000

> <Gold.PLP.Chemscore.Metal>
0.0000

> <Gold.Chemscore.Hbonds>
donor molecule, donor type, donor heavy atom, donor atom, acceptor molecule, acceptor atom, score
      L1  H    21    26       P1  7948  0.11
      P1  H  7997  8008       L1    16  0.98
      P1  H 10752 10763       L1    23  1.00

> <Gold.PLP.Chemscore.Internal.Correction>
0.5136

> <Gold.Rescore>
     Score         DG    S(hbond)    S(metal)    S(lipo)     H(rot)  DE(clash)    DE(int)     intcor
     15.96     -21.47       2.56        0.00      97.42       1.55       4.08       1.43       ----

> <Gold.Chemscore.Fitness>
15.9622

> <Gold.Chemscore.DG>
-21.4683

> <Gold.Chemscore.ZeroCoef>
-5.4800

> <Gold.Chemscore.Hbond>
2.5595

> <Gold.Chemscore.Metal>
0.0000

> <Gold.Chemscore.Lipo>
97.4247

> <Gold.Chemscore.Internal_Hbond>
0.0000

> <Gold.Chemscore.DEClash>
4.0772

> <Gold.Chemscore.DEInternal>
1.4288

> <Gold.Chemscore.Rot>
1.5465

> <Gold.Chemscore.Internal.Correction>
   9.000000E+99

> <Gold.Chemscore.Hbonds>
donor molecule, donor type, donor heavy atom, donor atom, acceptor molecule, acceptor atom, score
      L1  H    21    26       P1  7948  0.08
      P1  H  7997  8008       L1    16  0.24
      P1  H 10752 10763       L1    23  0.94

> <Gold.Chemscore.Hbond.Weighted>
-8.5487

> <Gold.Chemscore.Metal.Weighted>
-0.0000

> <Gold.Chemscore.Lipo.Weighted>
-11.3987

> <Gold.Chemscore.Internal_Hbond.Weighted>
0.0000

> <Gold.Chemscore.DEClash.Weighted>
4.0772

> <Gold.Chemscore.DEInternal.Weighted>
1.4288

> <Gold.Chemscore.Rot.Weighted>
3.9591

> <Gold.Chemscore.Internal.Correction.Weighted>
   9.000000E+99

> <Gold.Protein.RotatedTorsions>
[ 6907 6896 6895 6894 ] final  169.94 input  -60.11 | X-H torsion
[ 7974 7965 7964 7962 ] final -162.67 input  175.53 | X-H torsion
[ 8008 7997 7996 7995 ] final  -53.70 input   59.86 | X-H torsion
[ 10167 10162 10161 10158 ] final  117.63 input  -65.29 | X-H torsion
[ 10718 10713 10712 10709 ] final -129.74 input   66.30 | X-H torsion
[ 10763 10752 10751 10750 ] final   12.13 input  -60.55 | X-H torsion
[ 11005 11000 10999 10996 ] final   86.16 input  -57.11 | X-H torsion

> <Gold.Protein.ActiveResidues>
 VAL166  LYS551  ARG553  GLY616  TRP617  ASP618  TYR619  PRO620  LYS621  CYS622 
 ASP623  PHE694  ASN695  SER759  ASP760  ASP761  ALA762  ILE779  LEU786  VAL792 
 PHE793  MET794  SER795  GLU796  ALA797  LYS798  CYS799  TRP800  GLU811  SER814 

> <Gold.Protein.RotatedAtoms>
  151.8240  133.3398  159.3592 H   0  0  0  0  0  0  0  0  0  0  0  0  # atno 6907 bound_to 6896
  150.7285  134.5546  159.5821 H   0  0  0  0  0  0  0  0  0  0  0  0  # atno 6908 bound_to 6896
  152.2985  134.7640  160.0414 H   0  0  0  0  0  0  0  0  0  0  0  0  # atno 6909 bound_to 6896
  144.7350  140.3218  143.6169 H   0  0  0  0  0  0  0  0  0  0  0  0  # atno 7974 bound_to 7965
  154.4141  140.1194  156.5196 H   0  0  0  0  0  0  0  0  0  0  0  0  # atno 8008 bound_to 7997
  155.6716  140.3496  155.4801 H   0  0  0  0  0  0  0  0  0  0  0  0  # atno 8009 bound_to 7997
  155.9628  140.1126  157.0870 H   0  0  0  0  0  0  0  0  0  0  0  0  # atno 8010 bound_to 7997
  139.6166  144.7093  151.2726 H   0  0  0  0  0  0  0  0  0  0  0  0  # atno 10167 bound_to 10162
  156.2076  130.6897  151.0612 H   0  0  0  0  0  0  0  0  0  0  0  0  # atno 10718 bound_to 10713
  153.1854  135.6834  153.8422 H   0  0  0  0  0  0  0  0  0  0  0  0  # atno 10763 bound_to 10752
  153.7739  135.3192  155.3357 H   0  0  0  0  0  0  0  0  0  0  0  0  # atno 10764 bound_to 10752
  154.8085  135.4732  154.0552 H   0  0  0  0  0  0  0  0  0  0  0  0  # atno 10765 bound_to 10752
  139.8952  134.8336  156.2682 H   0  0  0  0  0  0  0  0  0  0  0  0  # atno 11005 bound_to 11000
  145.7561  139.1809  143.2294 LP  0  0  0  0  0  0  0  0  0  0  0  0  # atno 17320 bound_to 7965
  146.1023  140.7529  142.9543 LP  0  0  0  0  0  0  0  0  0  0  0  0  # atno 17321 bound_to 7965
  140.7355  143.6736  150.8061 LP  0  0  0  0  0  0  0  0  0  0  0  0  # atno 17342 bound_to 10162
  140.0339  143.5415  152.2748 LP  0  0  0  0  0  0  0  0  0  0  0  0  # atno 17343 bound_to 10162
  157.7021  131.0772  150.6787 LP  0  0  0  0  0  0  0  0  0  0  0  0  # atno 17370 bound_to 10713
  156.6846  130.4577  149.5617 LP  0  0  0  0  0  0  0  0  0  0  0  0  # atno 17371 bound_to 10713
  141.0118  133.7091  156.1124 LP  0  0  0  0  0  0  0  0  0  0  0  0  # atno 17394 bound_to 11000
  140.7356  134.4206  157.5561 LP  0  0  0  0  0  0  0  0  0  0  0  0  # atno 17395 bound_to 11000

$$$$
