AV-unprocessed.smi:900|AV-procd|sdf|4089|dock6
  -GOLD-   22720 1573D 1   1.00000     0.00000
 Structure written by MMmdl.
 33 34  0  0  0  0  0  0  0  0  1 V2000
  145.9993  142.2258  156.2215 C   0  0  0  0  0  0  0  0  0  0  0  0
  147.3207  142.2770  155.6158 N   0  0  0  0  0  0  0  0  0  0  0  0
  148.0877  141.2011  155.3840 C   0  0  0  0  0  0  0  0  0  0  0  0
  147.7369  140.0512  155.6479 O   0  0  0  0  0  0  0  0  0  0  0  0
  149.4601  141.4588  154.7588 C   0  0  0  0  0  0  0  0  0  0  0  0
  150.5487  141.0370  155.6927 C   0  0  0  0  0  0  0  0  0  0  0  0
  151.5452  140.2588  155.2858 N   0  0  0  0  0  0  0  0  0  0  0  0
  152.3149  140.0853  156.4448 O   0  0  0  0  0  0  0  0  0  0  0  0
  151.6962  140.8054  157.4109 C   0  0  0  0  0  0  0  0  0  0  0  0
  152.2461  140.7713  158.7983 C   0  0  0  0  0  0  0  0  0  0  0  0
  152.6143  142.1670  159.3317 C   0  0  0  0  0  0  0  0  0  0  0  0
  152.6509  142.2776  160.8594 C   0  0  0  0  0  0  0  0  0  0  0  0
  152.5283  143.7768  161.1524 C   0  0  0  0  0  0  0  0  0  0  0  0
  151.8676  144.4055  159.9155 C   0  0  0  0  0  0  0  0  0  0  0  0
  151.6225  143.2598  158.9276 C   0  0  0  0  0  0  0  0  0  0  0  0
  150.5860  141.4142  157.0013 N   0  0  0  0  0  0  0  0  0  0  0  0
  145.5469  143.2175  156.2101 H   0  0  0  0  0  0  0  0  0  0  0  0
  146.0642  141.8920  157.2578 H   0  0  0  0  0  0  0  0  0  0  0  0
  145.3433  141.5455  155.6764 H   0  0  0  0  0  0  0  0  0  0  0  0
  147.6827  143.1878  155.3714 H   0  0  0  0  0  0  0  0  0  0  0  0
  149.5465  140.9121  153.8184 H   0  0  0  0  0  0  0  0  0  0  0  0
  149.5688  142.5178  154.5202 H   0  0  0  0  0  0  0  0  0  0  0  0
  151.5030  140.3108  159.4502 H   0  0  0  0  0  0  0  0  0  0  0  0
  153.1183  140.1167  158.8125 H   0  0  0  0  0  0  0  0  0  0  0  0
  153.5967  142.4452  158.9455 H   0  0  0  0  0  0  0  0  0  0  0  0
  151.7965  141.7532  161.2897 H   0  0  0  0  0  0  0  0  0  0  0  0
  153.5541  141.8437  161.2901 H   0  0  0  0  0  0  0  0  0  0  0  0
  151.9522  143.9585  162.0603 H   0  0  0  0  0  0  0  0  0  0  0  0
  153.5174  144.2115  161.3016 H   0  0  0  0  0  0  0  0  0  0  0  0
  150.9387  144.9191  160.1659 H   0  0  0  0  0  0  0  0  0  0  0  0
  152.5390  145.1439  159.4753 H   0  0  0  0  0  0  0  0  0  0  0  0
  151.7451  143.5720  157.8901 H   0  0  0  0  0  0  0  0  0  0  0  0
  150.6008  142.8950  159.0434 H   0  0  0  0  0  0  0  0  0  0  0  0
  1  2  1  0  0  0  0
  1 17  1  0  0  0  0
  1 18  1  0  0  0  0
  1 19  1  0  0  0  0
  2  3  1  0  0  0  0
  2 20  1  0  0  0  0
  3  4  2  0  0  0  0
  3  5  1  0  0  0  0
  5  6  1  0  0  0  0
  5 21  1  0  0  0  0
  5 22  1  0  0  0  0
  6 16  1  0  0  0  0
  6  7  2  0  0  0  0
  7  8  1  0  0  0  0
  8  9  1  0  0  0  0
  9 10  1  0  0  0  0
  9 16  2  0  0  0  0
 10 11  1  0  0  0  0
 10 23  1  0  0  0  0
 10 24  1  0  0  0  0
 11 15  1  0  0  0  0
 11 12  1  0  0  0  0
 11 25  1  0  0  0  0
 12 13  1  0  0  0  0
 12 26  1  0  0  0  0
 12 27  1  0  0  0  0
 13 14  1  0  0  0  0
 13 28  1  0  0  0  0
 13 29  1  0  0  0  0
 14 15  1  0  0  0  0
 14 30  1  0  0  0  0
 14 31  1  0  0  0  0
 15 32  1  0  0  0  0
 15 33  1  0  0  0  0
M  END
> <s_m_source_file>
AV-unprocessed.smi

> <i_m_source_file_index>
900

> <i_lp_mmshare_version>
43012

> <i_f3d_flags>
0

> <s_epik_input>
W0NIM11bTkhdQyg9TylbQ0gyXWMxbm9jKG4xKVtDSDJdW0NIXTJbQ0gyXVtDSDJdW0NIMl1bQ0gyXTI=

> <s_epik_cmdline>
J2VwaWtfcHl0aG9uJywgJy1waCcsICc3LjAnLCAnLXRuJywgJzgnLCAnLW1hJywgJzIwMCcsICctbWV0YWxfYmluZGluZycsICctaW1hZScsICc8aW5maWxlLm1hZT4nLCAnLW9tYWUnLCAnPG91dGZpbGUubWFlPic=

> <r_lp_tautomer_probability>
1

> <r_epik_Ionization_Penalty>
1.02915e-07

> <r_epik_Ionization_Penalty_Charging>
0

> <r_epik_Ionization_Penalty_Neutral>
1.02915e-07

> <r_epik_State_Penalty>
-0

> <r_epik_Charging_Adjusted_Penalty>
0

> <i_epik_Tot_Q>
0

> <i_epik_Tot_abs_Q>
0

> <r_epik_Metal_State_Penalty>
-0

> <b_epik_Metal_Only>
0

> <s_lp_Force_Field>
OPLS_2005

> <r_lp_Energy>
19.3932

> <b_lp_Chiralities_Consistent>
1

> <s_lp_Variant>
AV-unprocessed.smi:900-1

> <Gold.Version>
5.8.1

> <Gold.Id.Protein>
6NUR|6NUR_protein|mol2

> <Gold.PLP.Fitness>
41.1325

> <Gold.PLP.PLP>
-33.3862

> <Gold.PLP.part.hbond>
-3.0000

> <Gold.PLP.part.metal>
0.0000

> <Gold.PLP.part.buried>
-3.1454

> <Gold.PLP.part.nonpolar>
-26.2689

> <Gold.PLP.part.repulsive>
0.1579

> <Gold.PLP.ligand.clash>
0.0000

> <Gold.PLP.ligand.torsion>
0.3396

> <Gold.PLP.Chemscore.Hbond>
2.8024

> <Gold.PLP.Chemscore.CHOScore>
0.0000

> <Gold.PLP.Chemscore.Metal>
0.0000

> <Gold.Chemscore.Hbonds>
donor molecule, donor type, donor heavy atom, donor atom, acceptor molecule, acceptor atom, score
      L1  H     2    20       P1  8028  1.00
      P1  H  7989  7998       L1     7  0.85
      P1  H  7997  8009       L1     8  1.00

> <Gold.PLP.Chemscore.Internal.Correction>
0.0183

> <Gold.Rescore>
     Score         DG    S(hbond)    S(metal)    S(lipo)     H(rot)  DE(clash)    DE(int)     intcor
     13.43     -15.06       1.68        0.00      75.05       1.87       0.11       1.53       ----

> <Gold.Chemscore.Fitness>
13.4254

> <Gold.Chemscore.DG>
-15.0639

> <Gold.Chemscore.ZeroCoef>
-5.4800

> <Gold.Chemscore.Hbond>
1.6759

> <Gold.Chemscore.Metal>
0.0000

> <Gold.Chemscore.Lipo>
75.0451

> <Gold.Chemscore.Internal_Hbond>
0.0000

> <Gold.Chemscore.DEClash>
0.1103

> <Gold.Chemscore.DEInternal>
1.5282

> <Gold.Chemscore.Rot>
1.8727

> <Gold.Chemscore.Internal.Correction>
   9.000000E+99

> <Gold.Chemscore.Hbonds>
donor molecule, donor type, donor heavy atom, donor atom, acceptor molecule, acceptor atom, score
      L1  H     2    20       P1  8028  0.38
      P1  H  7989  7998       L1     7  0.16
      P1  H  7997  8009       L1     8  0.88

> <Gold.Chemscore.Hbond.Weighted>
-5.5976

> <Gold.Chemscore.Metal.Weighted>
-0.0000

> <Gold.Chemscore.Lipo.Weighted>
-8.7803

> <Gold.Chemscore.Internal_Hbond.Weighted>
0.0000

> <Gold.Chemscore.DEClash.Weighted>
0.1103

> <Gold.Chemscore.DEInternal.Weighted>
1.5282

> <Gold.Chemscore.Rot.Weighted>
4.7940

> <Gold.Chemscore.Internal.Correction.Weighted>
   9.000000E+99

> <Gold.Protein.RotatedTorsions>
[ 6907 6896 6895 6894 ] final   58.33 input  -60.11 | X-H torsion
[ 7974 7965 7964 7962 ] final   28.50 input  175.53 | X-H torsion
[ 8008 7997 7996 7995 ] final -163.27 input   59.86 | X-H torsion
[ 10167 10162 10161 10158 ] final  108.07 input  -65.29 | X-H torsion
[ 10718 10713 10712 10709 ] final -102.45 input   66.30 | X-H torsion
[ 10763 10752 10751 10750 ] final  112.77 input  -60.55 | X-H torsion
[ 11005 11000 10999 10996 ] final   13.47 input  -57.11 | X-H torsion

> <Gold.Protein.ActiveResidues>
 VAL166  LYS551  ARG553  GLY616  TRP617  ASP618  TYR619  PRO620  LYS621  CYS622 
 ASP623  PHE694  ASN695  SER759  ASP760  ASP761  ALA762  ILE779  LEU786  VAL792 
 PHE793  MET794  SER795  GLU796  ALA797  LYS798  CYS799  TRP800  GLU811  SER814 

> <Gold.Protein.RotatedAtoms>
  152.3814  134.6585  160.0141 H   0  0  0  0  0  0  0  0  0  0  0  0  # atno 6907 bound_to 6896
  151.6847  133.3306  159.3236 H   0  0  0  0  0  0  0  0  0  0  0  0  # atno 6908 bound_to 6896
  150.7750  134.6686  159.6424 H   0  0  0  0  0  0  0  0  0  0  0  0  # atno 6909 bound_to 6896
  146.1725  139.7048  142.8957 H   0  0  0  0  0  0  0  0  0  0  0  0  # atno 7974 bound_to 7965
  155.8189  140.0916  157.1860 H   0  0  0  0  0  0  0  0  0  0  0  0  # atno 8008 bound_to 7997
  154.3979  140.1440  156.3536 H   0  0  0  0  0  0  0  0  0  0  0  0  # atno 8009 bound_to 7997
  155.8287  140.3443  155.5561 H   0  0  0  0  0  0  0  0  0  0  0  0  # atno 8010 bound_to 7997
  139.6876  144.7111  151.1405 H   0  0  0  0  0  0  0  0  0  0  0  0  # atno 10167 bound_to 10162
  156.0229  130.5421  150.7110 H   0  0  0  0  0  0  0  0  0  0  0  0  # atno 10718 bound_to 10713
  153.4827  135.3676  155.2450 H   0  0  0  0  0  0  0  0  0  0  0  0  # atno 10763 bound_to 10752
  154.8754  135.3958  154.3681 H   0  0  0  0  0  0  0  0  0  0  0  0  # atno 10764 bound_to 10752
  153.4288  135.7082  153.6310 H   0  0  0  0  0  0  0  0  0  0  0  0  # atno 10765 bound_to 10752
  140.4804  134.0941  155.7750 H   0  0  0  0  0  0  0  0  0  0  0  0  # atno 11005 bound_to 11000
  145.4300  141.0414  143.2916 LP  0  0  0  0  0  0  0  0  0  0  0  0  # atno 17320 bound_to 7965
  144.8185  139.5833  143.6997 LP  0  0  0  0  0  0  0  0  0  0  0  0  # atno 17321 bound_to 7965
  140.7672  143.5607  150.9102 LP  0  0  0  0  0  0  0  0  0  0  0  0  # atno 17342 bound_to 10162
  139.9282  143.6524  152.3082 LP  0  0  0  0  0  0  0  0  0  0  0  0  # atno 17343 bound_to 10162
  157.4748  131.0897  151.0602 LP  0  0  0  0  0  0  0  0  0  0  0  0  # atno 17370 bound_to 10713
  157.1052  130.5998  149.5469 LP  0  0  0  0  0  0  0  0  0  0  0  0  # atno 17371 bound_to 10713
  141.1534  133.8927  157.2040 LP  0  0  0  0  0  0  0  0  0  0  0  0  # atno 17394 bound_to 11000
  139.9830  135.0092  156.9795 LP  0  0  0  0  0  0  0  0  0  0  0  0  # atno 17395 bound_to 11000

$$$$
