AV-unprocessed.smi:3316|AV-procd|sdf|12753|dock1
  -GOLD-   2272019 93D 1   1.00000     0.00000
 Structure written by MMmdl.
 41 43  0  0  0  0  0  0  0  0  2 V2000
  152.2503  140.3804  159.1749 C   0  0  0  0  0  0  0  0  0  0  0  0
  153.1934  141.5097  159.6190 C   0  0  2  0  0  0  0  0  0  0  0  0
  153.6991  141.2876  161.0574 C   0  0  0  0  0  0  0  0  0  0  0  0
  154.8860  140.4086  161.0896 N   0  3  0  0  0  0  0  0  0  0  0  0
  155.1705  139.8340  162.4184 C   0  0  0  0  0  0  0  0  0  0  0  0
  155.2815  138.2996  162.3507 C   0  0  2  0  0  0  0  0  0  0  0  0
  153.9139  137.5495  162.2984 C   0  0  0  0  0  0  0  0  0  0  0  0
  154.0268  136.5391  163.4633 C   0  0  2  0  0  0  0  0  0  0  0  0
  154.0126  137.3271  164.7552 C   0  0  0  0  0  0  0  0  0  0  0  0
  155.1684  137.9888  164.8285 C   0  0  0  0  0  0  0  0  0  0  0  0
  155.9637  137.6490  163.5831 C   0  0  1  0  0  0  0  0  0  0  0  0
  155.5179  136.1963  163.3773 C   0  0  0  0  0  0  0  0  0  0  0  0
  152.5422  142.8761  159.4417 C   0  0  0  0  0  0  0  0  0  0  0  0
  152.5443  143.8126  160.4972 C   0  0  0  0  0  0  0  0  0  0  0  0
  151.9281  145.0634  160.2915 C   0  0  0  0  0  0  0  0  0  0  0  0
  151.3297  145.4131  159.1332 N   0  0  0  0  0  0  0  0  0  0  0  0
  151.3304  144.5146  158.1257 C   0  0  0  0  0  0  0  0  0  0  0  0
  151.9180  143.2378  158.2280 C   0  0  0  0  0  0  0  0  0  0  0  0
  151.9439  140.5124  158.1368 H   0  0  0  0  0  0  0  0  0  0  0  0
  151.3482  140.3434  159.7865 H   0  0  0  0  0  0  0  0  0  0  0  0
  152.7390  139.4087  159.2503 H   0  0  0  0  0  0  0  0  0  0  0  0
  154.0621  141.4709  158.9599 H   0  0  0  0  0  0  0  0  0  0  0  0
  153.9436  142.2403  161.5290 H   0  0  0  0  0  0  0  0  0  0  0  0
  152.9103  140.8309  161.6568 H   0  0  0  0  0  0  0  0  0  0  0  0
  154.7436  139.6507  160.4374 H   0  0  0  0  0  0  0  0  0  0  0  0
  156.1086  140.2512  162.7864 H   0  0  0  0  0  0  0  0  0  0  0  0
  154.3882  140.1372  163.1154 H   0  0  0  0  0  0  0  0  0  0  0  0
  155.8635  138.0357  161.4653 H   0  0  0  0  0  0  0  0  0  0  0  0
  153.0579  138.2138  162.4264 H   0  0  0  0  0  0  0  0  0  0  0  0
  153.7946  137.0352  161.3439 H   0  0  0  0  0  0  0  0  0  0  0  0
  153.3447  135.6890  163.4367 H   0  0  0  0  0  0  0  0  0  0  0  0
  153.1885  137.3543  165.4528 H   0  0  0  0  0  0  0  0  0  0  0  0
  155.4901  138.6744  165.5986 H   0  0  0  0  0  0  0  0  0  0  0  0
  157.0405  137.7948  163.6724 H   0  0  0  0  0  0  0  0  0  0  0  0
  155.8491  135.5310  164.1776 H   0  0  0  0  0  0  0  0  0  0  0  0
  155.8193  135.7691  162.4186 H   0  0  0  0  0  0  0  0  0  0  0  0
  153.0088  143.5855  161.4456 H   0  0  0  0  0  0  0  0  0  0  0  0
  151.9146  145.8015  161.0799 H   0  0  0  0  0  0  0  0  0  0  0  0
  150.8468  144.8217  157.2102 H   0  0  0  0  0  0  0  0  0  0  0  0
  151.8892  142.5585  157.3888 H   0  0  0  0  0  0  0  0  0  0  0  0
  155.6890  140.9444  160.7918 H   0  0  0  0  0  0  0  0  0  0  0  0
  1  2  1  0  0  0  0
  1 19  1  0  0  0  0
  1 20  1  0  0  0  0
  1 21  1  0  0  0  0
  2  3  1  0  0  0  0
  2 13  1  0  0  0  0
  2 22  1  0  0  0  0
  3  4  1  0  0  0  0
  3 23  1  0  0  0  0
  3 24  1  0  0  0  0
  4  5  1  0  0  0  0
  4 25  1  0  0  0  0
  4 41  1  0  0  0  0
  5  6  1  0  0  0  0
  5 26  1  0  0  0  0
  5 27  1  0  0  0  0
  6 11  1  0  0  0  0
  6  7  1  0  0  0  0
  6 28  1  0  0  0  0
  7  8  1  0  0  0  0
  7 29  1  0  0  0  0
  7 30  1  0  0  0  0
  8 12  1  0  0  0  0
  8  9  1  0  0  0  0
  8 31  1  0  0  0  0
  9 10  2  0  0  0  0
  9 32  1  0  0  0  0
 10 11  1  0  0  0  0
 10 33  1  0  0  0  0
 11 12  1  0  0  0  0
 11 34  1  0  0  0  0
 12 35  1  0  0  0  0
 12 36  1  0  0  0  0
 13 18  1  0  0  0  0
 13 14  2  0  0  0  0
 14 15  1  0  0  0  0
 14 37  1  0  0  0  0
 15 16  2  0  0  0  0
 15 38  1  0  0  0  0
 16 17  1  0  0  0  0
 17 18  2  0  0  0  0
 17 39  1  0  0  0  0
 18 40  1  0  0  0  0
M  CHG  1   4   1
M  END
> <s_m_source_file>
AV-unprocessed.smi

> <i_m_source_file_index>
3316

> <i_lp_mmshare_version>
43012

> <i_f3d_flags>
0

> <s_epik_input>
W2NIXTFbY0hdbltjSF1bY0hdYzFbQ0BIXShbQ0gzXSlbQ0gyXVtOSF1bQ0gyXVtDQEhdKFtDSDJdW0NASF0yMylbQ0BIXShbQ0gyXTMpW0NIXT1bQ0hdMg==

> <s_epik_cmdline>
J2VwaWtfcHl0aG9uJywgJy1waCcsICc3LjAnLCAnLXRuJywgJzgnLCAnLW1hJywgJzIwMCcsICctbWV0YWxfYmluZGluZycsICctaW1hZScsICc8aW5maWxlLm1hZT4nLCAnLW9tYWUnLCAnPG91dGZpbGUubWFlPic=

> <r_lp_tautomer_probability>
1

> <r_epik_Ionization_Penalty>
0.00280406

> <r_epik_Ionization_Penalty_Charging>
0.000446589

> <r_epik_Ionization_Penalty_Neutral>
0.00235747

> <r_epik_State_Penalty>
-0

> <r_epik_Charging_Adjusted_Penalty>
0.000446589

> <i_epik_Tot_Q>
1

> <i_epik_Tot_abs_Q>
1

> <r_epik_Metal_State_Penalty>
-0

> <b_epik_Metal_Only>
0

> <s_lp_Force_Field>
OPLS_2005

> <r_lp_Energy>
65.4585

> <b_lp_Chiralities_Consistent>
1

> <s_lp_Variant>
AV-unprocessed.smi:3316-1

> <Gold.Version>
5.8.1

> <Gold.Id.Protein>
6NUR|6NUR_protein|mol2

> <Gold.PLP.Fitness>
47.0672

> <Gold.PLP.PLP>
-45.9400

> <Gold.PLP.part.hbond>
-0.5153

> <Gold.PLP.part.metal>
0.0000

> <Gold.PLP.part.buried>
-5.8516

> <Gold.PLP.part.nonpolar>
-39.4461

> <Gold.PLP.part.repulsive>
0.1667

> <Gold.PLP.ligand.clash>
0.0000

> <Gold.PLP.ligand.torsion>
1.0511

> <Gold.PLP.Chemscore.Hbond>
0.0000

> <Gold.PLP.Chemscore.CHOScore>
0.9990

> <Gold.PLP.Chemscore.Metal>
0.0000

> <Gold.Chemscore.Hbonds>
donor molecule, donor type, donor heavy atom, donor atom, acceptor molecule, acceptor atom, score
      L1  C    17    39       P1  8028  1.00

> <Gold.PLP.Chemscore.Internal.Correction>
0.2324

> <Gold.Rescore>
     Score         DG    S(hbond)    S(metal)    S(lipo)     H(rot)  DE(clash)    DE(int)     intcor
     18.58     -19.53       0.00        0.00     149.91       1.36       0.08       0.87       ----

> <Gold.Chemscore.Fitness>
18.5829

> <Gold.Chemscore.DG>
-19.5280

> <Gold.Chemscore.ZeroCoef>
-5.4800

> <Gold.Chemscore.Hbond>
0.0000

> <Gold.Chemscore.Metal>
0.0000

> <Gold.Chemscore.Lipo>
149.9138

> <Gold.Chemscore.Internal_Hbond>
0.0000

> <Gold.Chemscore.DEClash>
0.0796

> <Gold.Chemscore.DEInternal>
0.8654

> <Gold.Chemscore.Rot>
1.3640

> <Gold.Chemscore.Internal.Correction>
   9.000000E+99

> <Gold.Chemscore.Hbond.Weighted>
-0.0000

> <Gold.Chemscore.Metal.Weighted>
-0.0000

> <Gold.Chemscore.Lipo.Weighted>
-17.5399

> <Gold.Chemscore.Internal_Hbond.Weighted>
0.0000

> <Gold.Chemscore.DEClash.Weighted>
0.0796

> <Gold.Chemscore.DEInternal.Weighted>
0.8654

> <Gold.Chemscore.Rot.Weighted>
3.4919

> <Gold.Chemscore.Internal.Correction.Weighted>
   9.000000E+99

> <Gold.Protein.RotatedTorsions>
[ 6907 6896 6895 6894 ] final -133.90 input  -60.11 | X-H torsion
[ 7974 7965 7964 7962 ] final  162.91 input  175.53 | X-H torsion
[ 8008 7997 7996 7995 ] final  173.56 input   59.86 | X-H torsion
[ 10167 10162 10161 10158 ] final  -29.73 input  -65.29 | X-H torsion
[ 10718 10713 10712 10709 ] final    0.53 input   66.30 | X-H torsion
[ 10763 10752 10751 10750 ] final   43.20 input  -60.55 | X-H torsion
[ 11005 11000 10999 10996 ] final   95.26 input  -57.11 | X-H torsion

> <Gold.Protein.ActiveResidues>
 VAL166  LYS551  ARG553  GLY616  TRP617  ASP618  TYR619  PRO620  LYS621  CYS622 
 ASP623  PHE694  ASN695  SER759  ASP760  ASP761  ALA762  ILE779  LEU786  VAL792 
 PHE793  MET794  SER795  GLU796  ALA797  LYS798  CYS799  TRP800  GLU811  SER814 

> <Gold.Protein.RotatedAtoms>
  150.9795  133.6260  159.2724 H   0  0  0  0  0  0  0  0  0  0  0  0  # atno 6907 bound_to 6896
  151.3520  135.0885  159.9416 H   0  0  0  0  0  0  0  0  0  0  0  0  # atno 6908 bound_to 6896
  152.5211  133.9386  159.7670 H   0  0  0  0  0  0  0  0  0  0  0  0  # atno 6909 bound_to 6896
  144.7614  139.8107  143.6331 H   0  0  0  0  0  0  0  0  0  0  0  0  # atno 7974 bound_to 7965
  156.1063  140.1457  156.9399 H   0  0  0  0  0  0  0  0  0  0  0  0  # atno 8008 bound_to 7997
  154.4736  140.0901  156.7251 H   0  0  0  0  0  0  0  0  0  0  0  0  # atno 8009 bound_to 7997
  155.4673  140.3440  155.4323 H   0  0  0  0  0  0  0  0  0  0  0  0  # atno 8010 bound_to 7997
  140.7257  143.3905  151.1439 H   0  0  0  0  0  0  0  0  0  0  0  0  # atno 10167 bound_to 10162
  156.8347  130.5500  149.5683 H   0  0  0  0  0  0  0  0  0  0  0  0  # atno 10718 bound_to 10713
  152.9866  135.6108  154.3073 H   0  0  0  0  0  0  0  0  0  0  0  0  # atno 10763 bound_to 10752
  154.2790  135.2777  155.2707 H   0  0  0  0  0  0  0  0  0  0  0  0  # atno 10764 bound_to 10752
  154.5054  135.5855  153.6620 H   0  0  0  0  0  0  0  0  0  0  0  0  # atno 10765 bound_to 10752
  139.8790  134.8889  156.3985 H   0  0  0  0  0  0  0  0  0  0  0  0  # atno 11005 bound_to 11000
  146.1681  139.4820  142.9945 LP  0  0  0  0  0  0  0  0  0  0  0  0  # atno 17320 bound_to 7965
  145.6607  141.0241  143.1710 LP  0  0  0  0  0  0  0  0  0  0  0  0  # atno 17321 bound_to 7965
  139.7509  143.8780  152.3076 LP  0  0  0  0  0  0  0  0  0  0  0  0  # atno 17342 bound_to 10162
  139.8633  144.7106  150.9073 LP  0  0  0  0  0  0  0  0  0  0  0  0  # atno 17343 bound_to 10162
  156.0914  130.5898  150.9739 LP  0  0  0  0  0  0  0  0  0  0  0  0  # atno 17370 bound_to 10713
  157.6388  131.0913  150.8295 LP  0  0  0  0  0  0  0  0  0  0  0  0  # atno 17371 bound_to 10713
  140.9283  133.7597  155.9993 LP  0  0  0  0  0  0  0  0  0  0  0  0  # atno 17394 bound_to 11000
  140.8360  134.3123  157.5331 LP  0  0  0  0  0  0  0  0  0  0  0  0  # atno 17395 bound_to 11000

$$$$
