AV-unprocessed.smi:2020|AV-procd|sdf|8173|dock4
  -GOLD-   2272010423D 1   1.00000     0.00000
 Structure written by MMmdl.
 40 41  0  0  0  0  0  0  0  0  1 V2000
  152.4052  139.1789  157.7260 C   0  0  0  0  0  0  0  0  0  0  0  0
  151.8476  138.4019  156.5830 C   0  0  0  0  0  0  0  0  0  0  0  0
  151.5339  137.1056  156.6532 N   0  0  0  0  0  0  0  0  0  0  0  0
  151.0283  136.6081  155.4479 C   0  0  0  0  0  0  0  0  0  0  0  0
  150.6157  135.1715  155.3441 C   0  0  0  0  0  0  0  0  0  0  0  0
  149.0886  135.0023  155.4066 C   0  0  0  0  0  0  0  0  0  0  0  0
  148.5121  134.7849  154.0844 N   0  0  0  0  0  0  0  0  0  0  0  0
  147.5545  133.8899  153.8037 C   0  0  0  0  0  0  0  0  0  0  0  0
  147.0399  133.1484  154.6411 O   0  0  0  0  0  0  0  0  0  0  0  0
  147.2297  133.9025  152.5029 N   0  0  0  0  0  0  0  0  0  0  0  0
  146.2302  133.0505  151.8635 C   0  0  2  0  0  0  0  0  0  0  0  0
  146.4989  132.9839  150.3479 C   0  0  0  0  0  0  0  0  0  0  0  0
  145.4210  132.1637  149.6210 C   0  0  0  0  0  0  0  0  0  0  0  0
  144.0154  132.7190  149.9081 C   0  0  1  0  0  0  0  0  0  0  0  0
  143.0486  131.9027  149.2817 O   0  0  0  0  0  0  0  0  0  0  0  0
  143.7401  132.7745  151.4208 C   0  0  0  0  0  0  0  0  0  0  0  0
  144.8171  133.5938  152.1508 C   0  0  0  0  0  0  0  0  0  0  0  0
  150.9611  137.5556  154.4571 C   0  0  0  0  0  0  0  0  0  0  0  0
  151.5348  139.1077  155.0021 S   0  0  0  0  0  0  0  0  0  0  0  0
  152.5632  138.5327  158.5903 H   0  0  0  0  0  0  0  0  0  0  0  0
  151.7153  139.9751  158.0063 H   0  0  0  0  0  0  0  0  0  0  0  0
  153.3593  139.6236  157.4436 H   0  0  0  0  0  0  0  0  0  0  0  0
  150.9958  134.7486  154.4133 H   0  0  0  0  0  0  0  0  0  0  0  0
  151.0789  134.5934  156.1448 H   0  0  0  0  0  0  0  0  0  0  0  0
  148.8348  134.1452  156.0312 H   0  0  0  0  0  0  0  0  0  0  0  0
  148.6273  135.8740  155.8743 H   0  0  0  0  0  0  0  0  0  0  0  0
  148.8757  135.3489  153.3303 H   0  0  0  0  0  0  0  0  0  0  0  0
  147.7159  134.5528  151.9031 H   0  0  0  0  0  0  0  0  0  0  0  0
  146.2894  132.0349  152.2598 H   0  0  0  0  0  0  0  0  0  0  0  0
  146.5257  133.9918  149.9310 H   0  0  0  0  0  0  0  0  0  0  0  0
  147.4805  132.5463  150.1618 H   0  0  0  0  0  0  0  0  0  0  0  0
  145.6152  132.1690  148.5478 H   0  0  0  0  0  0  0  0  0  0  0  0
  145.4824  131.1227  149.9421 H   0  0  0  0  0  0  0  0  0  0  0  0
  143.9303  133.7221  149.4881 H   0  0  0  0  0  0  0  0  0  0  0  0
  142.2960  131.8381  149.8497 H   0  0  0  0  0  0  0  0  0  0  0  0
  142.7570  133.2082  151.6079 H   0  0  0  0  0  0  0  0  0  0  0  0
  143.7160  131.7640  151.8315 H   0  0  0  0  0  0  0  0  0  0  0  0
  144.6231  133.5812  153.2239 H   0  0  0  0  0  0  0  0  0  0  0  0
  144.7497  134.6367  151.8370 H   0  0  0  0  0  0  0  0  0  0  0  0
  150.6077  137.4345  153.4437 H   0  0  0  0  0  0  0  0  0  0  0  0
  1  2  1  0  0  0  0
  1 20  1  0  0  0  0
  1 21  1  0  0  0  0
  1 22  1  0  0  0  0
  2 19  1  0  0  0  0
  2  3  2  0  0  0  0
  3  4  1  0  0  0  0
  4  5  1  0  0  0  0
  4 18  2  0  0  0  0
  5  6  1  0  0  0  0
  5 23  1  0  0  0  0
  5 24  1  0  0  0  0
  6  7  1  0  0  0  0
  6 25  1  0  0  0  0
  6 26  1  0  0  0  0
  7  8  1  0  0  0  0
  7 27  1  0  0  0  0
  8  9  2  0  0  0  0
  8 10  1  0  0  0  0
 10 11  1  0  0  0  0
 10 28  1  0  0  0  0
 11 17  1  0  0  0  0
 11 12  1  0  0  0  0
 11 29  1  0  0  0  0
 12 13  1  0  0  0  0
 12 30  1  0  0  0  0
 12 31  1  0  0  0  0
 13 14  1  0  0  0  0
 13 32  1  0  0  0  0
 13 33  1  0  0  0  0
 14 15  1  0  0  0  0
 14 16  1  0  0  0  0
 14 34  1  0  0  0  0
 15 35  1  0  0  0  0
 16 17  1  0  0  0  0
 16 36  1  0  0  0  0
 16 37  1  0  0  0  0
 17 38  1  0  0  0  0
 17 39  1  0  0  0  0
 18 19  1  0  0  0  0
 18 40  1  0  0  0  0
M  END
> <s_m_source_file>
AV-unprocessed.smi

> <i_m_source_file_index>
2020

> <i_lp_mmshare_version>
43012

> <i_f3d_flags>
0

> <s_epik_input>
W0NIM11jMW5jKFtjSF1zMSlbQ0gyXVtDSDJdW05IXUMoPU8pW05IXVtDQEBIXTJbQ0gyXVtDSDJdW0NAQEhdKFtPSF0pW0NIMl1bQ0gyXTI=

> <s_epik_cmdline>
J2VwaWtfcHl0aG9uJywgJy1waCcsICc3LjAnLCAnLXRuJywgJzgnLCAnLW1hJywgJzIwMCcsICctbWV0YWxfYmluZGluZycsICctaW1hZScsICc8aW5maWxlLm1hZT4nLCAnLW9tYWUnLCAnPG91dGZpbGUubWFlPic=

> <r_epik_Ionization_Penalty>
0.00202099

> <r_epik_Ionization_Penalty_Charging>
0

> <r_epik_Ionization_Penalty_Neutral>
0.00202099

> <r_epik_State_Penalty>
0.00133629

> <r_epik_Charging_Adjusted_Penalty>
0.00133629

> <i_epik_Tot_Q>
0

> <i_epik_Tot_abs_Q>
0

> <r_epik_Metal_State_Penalty>
-0

> <b_epik_Metal_Only>
0

> <s_lp_Force_Field>
OPLS_2005

> <r_lp_Energy>
0.764429

> <b_lp_Chiralities_Consistent>
1

> <s_lp_Variant>
AV-unprocessed.smi:2020-1

> <Gold.Version>
5.8.1

> <Gold.Id.Protein>
6NUR|6NUR_protein|mol2

> <Gold.PLP.Fitness>
47.2008

> <Gold.PLP.PLP>
-35.5599

> <Gold.PLP.part.hbond>
-4.2195

> <Gold.PLP.part.metal>
0.0000

> <Gold.PLP.part.buried>
-5.6491

> <Gold.PLP.part.nonpolar>
-26.4512

> <Gold.PLP.part.repulsive>
0.0531

> <Gold.PLP.ligand.clash>
0.0000

> <Gold.PLP.ligand.torsion>
0.9125

> <Gold.PLP.Chemscore.Hbond>
3.2975

> <Gold.PLP.Chemscore.CHOScore>
1.1889

> <Gold.PLP.Chemscore.Metal>
0.0000

> <Gold.Chemscore.Hbonds>
donor molecule, donor type, donor heavy atom, donor atom, acceptor molecule, acceptor atom, score
      L1  H     7    27       P1  7948  1.00
      L1  H    10    28       P1  7948  0.92
      L1  H    15    35       P1 10952  0.36
      P1  H 10785 10796       L1    15  1.00
      L1  C    18    40       P1  7948  0.55
      L1  C    18    40       P1  7949  0.64

> <Gold.PLP.Chemscore.Internal.Correction>
0.0070

> <Gold.Rescore>
     Score         DG    S(hbond)    S(metal)    S(lipo)     H(rot)  DE(clash)    DE(int)     intcor
     17.21     -18.16       2.38        0.00      86.40       2.10       0.01       0.94       ----

> <Gold.Chemscore.Fitness>
17.2150

> <Gold.Chemscore.DG>
-18.1620

> <Gold.Chemscore.ZeroCoef>
-5.4800

> <Gold.Chemscore.Hbond>
2.3799

> <Gold.Chemscore.Metal>
0.0000

> <Gold.Chemscore.Lipo>
86.3970

> <Gold.Chemscore.Internal_Hbond>
0.0000

> <Gold.Chemscore.DEClash>
0.0073

> <Gold.Chemscore.DEInternal>
0.9397

> <Gold.Chemscore.Rot>
2.0997

> <Gold.Chemscore.Internal.Correction>
   9.000000E+99

> <Gold.Chemscore.Hbonds>
donor molecule, donor type, donor heavy atom, donor atom, acceptor molecule, acceptor atom, score
      L1  H     7    27       P1  7948  0.70
      L1  H    10    28       P1  7948  0.29
      L1  H    15    35       P1 10952  0.34
      P1  H 10785 10796       L1    15  0.26

> <Gold.Chemscore.Hbond.Weighted>
-7.9488

> <Gold.Chemscore.Metal.Weighted>
-0.0000

> <Gold.Chemscore.Lipo.Weighted>
-10.1085

> <Gold.Chemscore.Internal_Hbond.Weighted>
0.0000

> <Gold.Chemscore.DEClash.Weighted>
0.0073

> <Gold.Chemscore.DEInternal.Weighted>
0.9397

> <Gold.Chemscore.Rot.Weighted>
5.3752

> <Gold.Chemscore.Internal.Correction.Weighted>
   9.000000E+99

> <Gold.Protein.RotatedTorsions>
[ 6907 6896 6895 6894 ] final  -38.38 input  -60.11 | X-H torsion
[ 7974 7965 7964 7962 ] final   22.39 input  175.53 | X-H torsion
[ 8008 7997 7996 7995 ] final  -89.86 input   59.86 | X-H torsion
[ 10167 10162 10161 10158 ] final   88.71 input  -65.29 | X-H torsion
[ 10718 10713 10712 10709 ] final  116.46 input   66.30 | X-H torsion
[ 10763 10752 10751 10750 ] final  103.45 input  -60.55 | X-H torsion
[ 11005 11000 10999 10996 ] final  -74.60 input  -57.11 | X-H torsion

> <Gold.Protein.ActiveResidues>
 VAL166  LYS551  ARG553  GLY616  TRP617  ASP618  TYR619  PRO620  LYS621  CYS622 
 ASP623  PHE694  ASN695  SER759  ASP760  ASP761  ALA762  ILE779  LEU786  VAL792 
 PHE793  MET794  SER795  GLU796  ALA797  LYS798  CYS799  TRP800  GLU811  SER814 

> <Gold.Protein.RotatedAtoms>
  151.0031  134.9338  159.7964 H   0  0  0  0  0  0  0  0  0  0  0  0  # atno 6907 bound_to 6896
  152.5283  134.3127  159.9129 H   0  0  0  0  0  0  0  0  0  0  0  0  # atno 6908 bound_to 6896
  151.3133  133.4029  159.2683 H   0  0  0  0  0  0  0  0  0  0  0  0  # atno 6909 bound_to 6896
  146.2031  139.7892  142.8746 H   0  0  0  0  0  0  0  0  0  0  0  0  # atno 7974 bound_to 7965
  154.6916  140.0537  157.0369 H   0  0  0  0  0  0  0  0  0  0  0  0  # atno 8008 bound_to 7997
  155.0809  140.3209  155.4583 H   0  0  0  0  0  0  0  0  0  0  0  0  # atno 8009 bound_to 7997
  156.2730  140.2065  156.5937 H   0  0  0  0  0  0  0  0  0  0  0  0  # atno 8010 bound_to 7997
  139.8646  144.6526  150.9019 H   0  0  0  0  0  0  0  0  0  0  0  0  # atno 10167 bound_to 10162
  157.6159  131.1025  150.7476 H   0  0  0  0  0  0  0  0  0  0  0  0  # atno 10718 bound_to 10713
  153.3529  135.3976  155.1659 H   0  0  0  0  0  0  0  0  0  0  0  0  # atno 10763 bound_to 10752
  154.8665  135.3661  154.5199 H   0  0  0  0  0  0  0  0  0  0  0  0  # atno 10764 bound_to 10752
  153.5652  135.7080  153.5589 H   0  0  0  0  0  0  0  0  0  0  0  0  # atno 10765 bound_to 10752
  141.1637  133.6917  156.7390 H   0  0  0  0  0  0  0  0  0  0  0  0  # atno 11005 bound_to 11000
  145.3416  141.0289  143.3389 LP  0  0  0  0  0  0  0  0  0  0  0  0  # atno 17320 bound_to 7965
  144.8728  139.5013  143.6759 LP  0  0  0  0  0  0  0  0  0  0  0  0  # atno 17321 bound_to 7965
  140.7770  143.3715  151.1640 LP  0  0  0  0  0  0  0  0  0  0  0  0  # atno 17342 bound_to 10162
  139.7341  143.9026  152.3029 LP  0  0  0  0  0  0  0  0  0  0  0  0  # atno 17343 bound_to 10162
  156.7843  130.4869  149.5395 LP  0  0  0  0  0  0  0  0  0  0  0  0  # atno 17370 bound_to 10713
  156.1281  130.6158  151.0293 LP  0  0  0  0  0  0  0  0  0  0  0  0  # atno 17371 bound_to 10713
  140.2689  134.8408  157.3828 LP  0  0  0  0  0  0  0  0  0  0  0  0  # atno 17394 bound_to 11000
  140.1540  134.4813  155.7941 LP  0  0  0  0  0  0  0  0  0  0  0  0  # atno 17395 bound_to 11000

$$$$
