AV-unprocessed.smi:1354|AV-procd|sdf|5534|dock6
  -GOLD-   22720 5123D 1   1.00000     0.00000
 Structure written by MMmdl.
 39 41  0  0  0  0  0  0  0  0  1 V2000
  153.5288  138.7575  157.3417 O   0  0  0  0  0  0  0  0  0  0  0  0
  152.2956  138.1034  157.1290 C   0  0  0  0  0  0  0  0  0  0  0  0
  152.0306  137.8890  155.6284 C   0  0  0  0  0  0  0  0  0  0  0  0
  150.8430  138.6553  155.1170 C   0  0  0  0  0  0  0  0  0  0  0  0
  149.8361  138.0359  154.4982 N   0  0  0  0  0  0  0  0  0  0  0  0
  148.9851  139.0748  154.1794 C   0  0  0  0  0  0  0  0  0  0  0  0
  147.7485  139.0713  153.4950 C   0  0  0  0  0  0  0  0  0  0  0  0
  147.0498  140.2767  153.2774 C   0  0  0  0  0  0  0  0  0  0  0  0
  147.5752  141.4994  153.7423 C   0  0  0  0  0  0  0  0  0  0  0  0
  148.8035  141.5239  154.4304 C   0  0  0  0  0  0  0  0  0  0  0  0
  149.4983  140.3178  154.6441 C   0  0  0  0  0  0  0  0  0  0  0  0
  150.7021  139.9988  155.2673 N   0  0  0  0  0  0  0  0  0  0  0  0
  151.5951  140.9475  155.9212 C   0  0  0  0  0  0  0  0  0  0  0  0
  151.0303  141.4560  157.2545 C   0  0  0  0  0  0  0  0  0  0  0  0
  152.0500  141.3827  158.2419 O   0  0  0  0  0  0  0  0  0  0  0  0
  152.0436  142.3018  159.2680 C   0  0  0  0  0  0  0  0  0  0  0  0
  151.3283  143.5253  159.2279 C   0  0  0  0  0  0  0  0  0  0  0  0
  151.3731  144.4140  160.3196 C   0  0  0  0  0  0  0  0  0  0  0  0
  152.1314  144.0939  161.4605 C   0  0  0  0  0  0  0  0  0  0  0  0
  152.8467  142.8832  161.5086 C   0  0  0  0  0  0  0  0  0  0  0  0
  152.8035  141.9925  160.4179 C   0  0  0  0  0  0  0  0  0  0  0  0
  153.6848  140.5086  160.5017 Cl  0  0  0  0  0  0  0  0  0  0  0  0
  154.1992  138.1027  157.4646 H   0  0  0  0  0  0  0  0  0  0  0  0
  152.2796  137.1583  157.6725 H   0  0  0  0  0  0  0  0  0  0  0  0
  151.5100  138.7282  157.5544 H   0  0  0  0  0  0  0  0  0  0  0  0
  152.9022  138.2233  155.0647 H   0  0  0  0  0  0  0  0  0  0  0  0
  151.9352  136.8247  155.4210 H   0  0  0  0  0  0  0  0  0  0  0  0
  147.3389  138.1397  153.1336 H   0  0  0  0  0  0  0  0  0  0  0  0
  146.1074  140.2634  152.7502 H   0  0  0  0  0  0  0  0  0  0  0  0
  147.0357  142.4190  153.5696 H   0  0  0  0  0  0  0  0  0  0  0  0
  149.2091  142.4603  154.7828 H   0  0  0  0  0  0  0  0  0  0  0  0
  152.5495  140.4518  156.0995 H   0  0  0  0  0  0  0  0  0  0  0  0
  151.8140  141.7738  155.2453 H   0  0  0  0  0  0  0  0  0  0  0  0
  150.6848  142.4845  157.1426 H   0  0  0  0  0  0  0  0  0  0  0  0
  150.1736  140.8475  157.5416 H   0  0  0  0  0  0  0  0  0  0  0  0
  150.7396  143.8063  158.3680 H   0  0  0  0  0  0  0  0  0  0  0  0
  150.8247  145.3437  160.2805 H   0  0  0  0  0  0  0  0  0  0  0  0
  152.1650  144.7759  162.2973 H   0  0  0  0  0  0  0  0  0  0  0  0
  153.4287  142.6373  162.3846 H   0  0  0  0  0  0  0  0  0  0  0  0
  1  2  1  0  0  0  0
  1 23  1  0  0  0  0
  2  3  1  0  0  0  0
  2 24  1  0  0  0  0
  2 25  1  0  0  0  0
  3  4  1  0  0  0  0
  3 26  1  0  0  0  0
  3 27  1  0  0  0  0
  4 12  1  0  0  0  0
  4  5  2  0  0  0  0
  5  6  1  0  0  0  0
  6 11  2  0  0  0  0
  6  7  1  0  0  0  0
  7  8  2  0  0  0  0
  7 28  1  0  0  0  0
  8  9  1  0  0  0  0
  8 29  1  0  0  0  0
  9 10  2  0  0  0  0
  9 30  1  0  0  0  0
 10 11  1  0  0  0  0
 10 31  1  0  0  0  0
 11 12  1  0  0  0  0
 12 13  1  0  0  0  0
 13 14  1  0  0  0  0
 13 32  1  0  0  0  0
 13 33  1  0  0  0  0
 14 15  1  0  0  0  0
 14 34  1  0  0  0  0
 14 35  1  0  0  0  0
 15 16  1  0  0  0  0
 16 21  1  0  0  0  0
 16 17  2  0  0  0  0
 17 18  1  0  0  0  0
 17 36  1  0  0  0  0
 18 19  2  0  0  0  0
 18 37  1  0  0  0  0
 19 20  1  0  0  0  0
 19 38  1  0  0  0  0
 20 21  2  0  0  0  0
 20 39  1  0  0  0  0
 21 22  1  0  0  0  0
M  END
> <s_m_source_file>
AV-unprocessed.smi

> <i_m_source_file_index>
1354

> <i_lp_mmshare_version>
43012

> <i_f3d_flags>
0

> <s_epik_input>
W2NIXTFbY0hdW2NIXVtjSF1jKGMxMiluKGMobjIpW0NIMl1bQ0gyXVtPSF0pW0NIMl1bQ0gyXU9jM1tjSF1bY0hdW2NIXVtjSF1jM0Ns

> <s_epik_cmdline>
J2VwaWtfcHl0aG9uJywgJy1waCcsICc3LjAnLCAnLXRuJywgJzgnLCAnLW1hJywgJzIwMCcsICctbWV0YWxfYmluZGluZycsICctaW1hZScsICc8aW5maWxlLm1hZT4nLCAnLW9tYWUnLCAnPG91dGZpbGUubWFlPic=

> <r_lp_tautomer_probability>
1

> <r_epik_Ionization_Penalty>
0.195126

> <r_epik_Ionization_Penalty_Charging>
0

> <r_epik_Ionization_Penalty_Neutral>
0.195126

> <r_epik_State_Penalty>
0.184862

> <r_epik_Charging_Adjusted_Penalty>
0.184862

> <i_epik_Tot_Q>
0

> <i_epik_Tot_abs_Q>
0

> <r_epik_Metal_State_Penalty>
0.000216911

> <b_epik_Metal_Only>
0

> <s_lp_Force_Field>
OPLS_2005

> <r_lp_Energy>
15.3671

> <b_lp_Chiralities_Consistent>
1

> <s_lp_Variant>
AV-unprocessed.smi:1354-1

> <Gold.Version>
5.8.1

> <Gold.Id.Protein>
6NUR|6NUR_protein|mol2

> <Gold.PLP.Fitness>
50.5479

> <Gold.PLP.PLP>
-50.0352

> <Gold.PLP.part.hbond>
-1.0000

> <Gold.PLP.part.metal>
0.0000

> <Gold.PLP.part.buried>
-3.7876

> <Gold.PLP.part.nonpolar>
-43.9505

> <Gold.PLP.part.repulsive>
0.2071

> <Gold.PLP.ligand.clash>
0.0000

> <Gold.PLP.ligand.torsion>
1.2953

> <Gold.PLP.Chemscore.Hbond>
1.0000

> <Gold.PLP.Chemscore.CHOScore>
0.0000

> <Gold.PLP.Chemscore.Metal>
0.0000

> <Gold.Chemscore.Hbonds>
donor molecule, donor type, donor heavy atom, donor atom, acceptor molecule, acceptor atom, score
      P1  H  7997  8010       L1     1  1.00

> <Gold.PLP.Chemscore.Internal.Correction>
0.1035

> <Gold.Rescore>
     Score         DG    S(hbond)    S(metal)    S(lipo)     H(rot)  DE(clash)    DE(int)     intcor
     18.09     -19.41       0.94        0.00     142.63       2.31       0.13       1.19       ----

> <Gold.Chemscore.Fitness>
18.0930

> <Gold.Chemscore.DG>
-19.4094

> <Gold.Chemscore.ZeroCoef>
-5.4800

> <Gold.Chemscore.Hbond>
0.9445

> <Gold.Chemscore.Metal>
0.0000

> <Gold.Chemscore.Lipo>
142.6320

> <Gold.Chemscore.Internal_Hbond>
0.0000

> <Gold.Chemscore.DEClash>
0.1259

> <Gold.Chemscore.DEInternal>
1.1905

> <Gold.Chemscore.Rot>
2.3098

> <Gold.Chemscore.Internal.Correction>
   9.000000E+99

> <Gold.Chemscore.Hbonds>
donor molecule, donor type, donor heavy atom, donor atom, acceptor molecule, acceptor atom, score
      P1  H  7997  8010       L1     1  0.25

> <Gold.Chemscore.Hbond.Weighted>
-3.1546

> <Gold.Chemscore.Metal.Weighted>
-0.0000

> <Gold.Chemscore.Lipo.Weighted>
-16.6879

> <Gold.Chemscore.Internal_Hbond.Weighted>
0.0000

> <Gold.Chemscore.DEClash.Weighted>
0.1259

> <Gold.Chemscore.DEInternal.Weighted>
1.1905

> <Gold.Chemscore.Rot.Weighted>
5.9131

> <Gold.Chemscore.Internal.Correction.Weighted>
   9.000000E+99

> <Gold.Protein.RotatedTorsions>
[ 6907 6896 6895 6894 ] final  179.75 input  -60.11 | X-H torsion
[ 7974 7965 7964 7962 ] final    0.21 input  175.53 | X-H torsion
[ 8008 7997 7996 7995 ] final   49.12 input   59.86 | X-H torsion
[ 10167 10162 10161 10158 ] final    0.31 input  -65.29 | X-H torsion
[ 10718 10713 10712 10709 ] final  172.15 input   66.30 | X-H torsion
[ 10763 10752 10751 10750 ] final   24.84 input  -60.55 | X-H torsion
[ 11005 11000 10999 10996 ] final  -24.69 input  -57.11 | X-H torsion

> <Gold.Protein.ActiveResidues>
 VAL166  LYS551  ARG553  GLY616  TRP617  ASP618  TYR619  PRO620  LYS621  CYS622 
 ASP623  PHE694  ASN695  SER759  ASP760  ASP761  ALA762  ILE779  LEU786  VAL792 
 PHE793  MET794  SER795  GLU796  ALA797  LYS798  CYS799  TRP800  GLU811  SER814 

> <Gold.Protein.RotatedAtoms>
  151.6666  133.3315  159.3186 H   0  0  0  0  0  0  0  0  0  0  0  0  # atno 6907 bound_to 6896
  150.7888  134.6899  159.6500 H   0  0  0  0  0  0  0  0  0  0  0  0  # atno 6908 bound_to 6896
  152.3963  134.6363  160.0140 H   0  0  0  0  0  0  0  0  0  0  0  0  # atno 6909 bound_to 6896
  146.2432  140.1173  142.8342 H   0  0  0  0  0  0  0  0  0  0  0  0  # atno 7974 bound_to 7965
  155.3969  140.3436  155.4254 H   0  0  0  0  0  0  0  0  0  0  0  0  # atno 8008 bound_to 7997
  156.1526  140.1575  156.8778 H   0  0  0  0  0  0  0  0  0  0  0  0  # atno 8009 bound_to 7997
  154.5066  140.0801  156.7887 H   0  0  0  0  0  0  0  0  0  0  0  0  # atno 8010 bound_to 7997
  140.6734  143.6984  150.7972 H   0  0  0  0  0  0  0  0  0  0  0  0  # atno 10167 bound_to 10162
  156.9831  131.0125  151.2876 H   0  0  0  0  0  0  0  0  0  0  0  0  # atno 10718 bound_to 10713
  153.0734  135.6596  154.0197 H   0  0  0  0  0  0  0  0  0  0  0  0  # atno 10763 bound_to 10752
  153.9837  135.2952  155.3419 H   0  0  0  0  0  0  0  0  0  0  0  0  # atno 10764 bound_to 10752
  154.7116  135.5203  153.8745 H   0  0  0  0  0  0  0  0  0  0  0  0  # atno 10765 bound_to 10752
  140.8868  133.7615  156.0371 H   0  0  0  0  0  0  0  0  0  0  0  0  # atno 11005 bound_to 11000
  145.0436  140.8965  143.5037 LP  0  0  0  0  0  0  0  0  0  0  0  0  # atno 17320 bound_to 7965
  145.1258  139.2664  143.5565 LP  0  0  0  0  0  0  0  0  0  0  0  0  # atno 17321 bound_to 7965
  140.0673  143.5096  152.2598 LP  0  0  0  0  0  0  0  0  0  0  0  0  # atno 17342 bound_to 10162
  139.6014  144.7583  151.3163 LP  0  0  0  0  0  0  0  0  0  0  0  0  # atno 17343 bound_to 10162
  157.5512  130.8183  149.8147 LP  0  0  0  0  0  0  0  0  0  0  0  0  # atno 17370 bound_to 10713
  156.0236  130.3787  150.1888 LP  0  0  0  0  0  0  0  0  0  0  0  0  # atno 17371 bound_to 10713
  140.8395  134.3084  157.5319 LP  0  0  0  0  0  0  0  0  0  0  0  0  # atno 17394 bound_to 11000
  139.8725  134.9408  156.3779 LP  0  0  0  0  0  0  0  0  0  0  0  0  # atno 17395 bound_to 11000

$$$$
