AV-unprocessed.smi:2044|AV-procd|sdf|8304|dock2
  -GOLD-   2272010573D 1   1.00000     0.00000
 Structure written by MMmdl.
 39 40  0  0  0  0  0  0  0  0  3 V2000
  152.8838  142.9946  161.0905 C   0  0  0  0  0  0  0  0  0  0  0  0
  152.1796  142.6502  159.8226 C   0  0  0  0  0  0  0  0  0  0  0  0
  151.9308  143.3541  158.6784 C   0  0  0  0  0  0  0  0  0  0  0  0
  151.2223  142.4220  157.8714 C   0  0  0  0  0  0  0  0  0  0  0  0
  150.7429  142.6465  156.6381 N   0  5  0  0  0  0  0  0  0  0  0  0
  150.2439  141.6248  155.9059 C   0  0  0  0  0  0  0  0  0  0  0  0
  150.4793  140.4248  156.0645 O   0  0  0  0  0  0  0  0  0  0  0  0
  149.4172  142.0175  154.9279 N   0  0  0  0  0  0  0  0  0  0  0  0
  148.7246  141.1261  154.0043 C   0  0  0  0  0  0  0  0  0  0  0  0
  147.1845  141.3116  154.0442 C   0  0  2  0  0  0  0  0  0  0  0  0
  146.7334  141.7421  155.4621 C   0  0  0  0  0  0  0  0  0  0  0  0
  146.4491  140.0844  153.5879 N   0  3  0  0  0  0  0  0  0  0  0  0
  146.9801  139.5148  152.3175 C   0  0  0  0  0  0  0  0  0  0  0  0
  146.1797  138.2788  151.8753 C   0  0  0  0  0  0  0  0  0  0  0  0
  146.2032  137.3016  152.9030 O   0  0  0  0  0  0  0  0  0  0  0  0
  145.5855  137.7863  154.0842 C   0  0  0  0  0  0  0  0  0  0  0  0
  146.3545  139.0081  154.6144 C   0  0  0  0  0  0  0  0  0  0  0  0
  151.0407  141.2622  158.4799 N   0  0  0  0  0  0  0  0  0  0  0  0
  151.6577  141.3976  159.7291 O   0  0  0  0  0  0  0  0  0  0  0  0
  152.4359  143.8736  161.5538 H   0  0  0  0  0  0  0  0  0  0  0  0
  153.9352  143.2104  160.9005 H   0  0  0  0  0  0  0  0  0  0  0  0
  152.8315  142.1732  161.8055 H   0  0  0  0  0  0  0  0  0  0  0  0
  152.2143  144.3708  158.4514 H   0  0  0  0  0  0  0  0  0  0  0  0
  149.2502  143.0082  154.8293 H   0  0  0  0  0  0  0  0  0  0  0  0
  149.1280  141.3562  153.0189 H   0  0  0  0  0  0  0  0  0  0  0  0
  148.9788  140.0889  154.2298 H   0  0  0  0  0  0  0  0  0  0  0  0
  146.9350  142.1194  153.3538 H   0  0  0  0  0  0  0  0  0  0  0  0
  147.3111  142.5841  155.8424 H   0  0  0  0  0  0  0  0  0  0  0  0
  146.8425  140.9253  156.1760 H   0  0  0  0  0  0  0  0  0  0  0  0
  145.6978  142.0772  155.4850 H   0  0  0  0  0  0  0  0  0  0  0  0
  146.9267  140.2395  151.5074 H   0  0  0  0  0  0  0  0  0  0  0  0
  148.0308  139.2510  152.4468 H   0  0  0  0  0  0  0  0  0  0  0  0
  145.1505  138.5467  151.6299 H   0  0  0  0  0  0  0  0  0  0  0  0
  146.6189  137.8512  150.9738 H   0  0  0  0  0  0  0  0  0  0  0  0
  144.5416  138.0377  153.8890 H   0  0  0  0  0  0  0  0  0  0  0  0
  145.5844  136.9923  154.8313 H   0  0  0  0  0  0  0  0  0  0  0  0
  147.3569  138.7138  154.9295 H   0  0  0  0  0  0  0  0  0  0  0  0
  145.8220  139.3543  155.4984 H   0  0  0  0  0  0  0  0  0  0  0  0
  145.5009  140.3767  153.3987 H   0  0  0  0  0  0  0  0  0  0  0  0
  1  2  1  0  0  0  0
  1 20  1  0  0  0  0
  1 21  1  0  0  0  0
  1 22  1  0  0  0  0
  2 19  1  0  0  0  0
  2  3  2  0  0  0  0
  3  4  1  0  0  0  0
  3 23  1  0  0  0  0
  4  5  1  0  0  0  0
  4 18  2  0  0  0  0
  5  6  1  0  0  0  0
  6  7  2  0  0  0  0
  6  8  1  0  0  0  0
  8  9  1  0  0  0  0
  8 24  1  0  0  0  0
  9 10  1  0  0  0  0
  9 25  1  0  0  0  0
  9 26  1  0  0  0  0
 10 11  1  0  0  0  0
 10 12  1  0  0  0  0
 10 27  1  0  0  0  0
 11 28  1  0  0  0  0
 11 29  1  0  0  0  0
 11 30  1  0  0  0  0
 12 17  1  0  0  0  0
 12 13  1  0  0  0  0
 12 39  1  0  0  0  0
 13 14  1  0  0  0  0
 13 31  1  0  0  0  0
 13 32  1  0  0  0  0
 14 15  1  0  0  0  0
 14 33  1  0  0  0  0
 14 34  1  0  0  0  0
 15 16  1  0  0  0  0
 16 17  1  0  0  0  0
 16 35  1  0  0  0  0
 16 36  1  0  0  0  0
 17 37  1  0  0  0  0
 17 38  1  0  0  0  0
 18 19  1  0  0  0  0
M  CHG  1   5  -1
M  CHG  1  12   1
M  END
> <s_m_source_file>
AV-unprocessed.smi

> <i_m_source_file_index>
2044

> <i_lp_mmshare_version>
43012

> <i_f3d_flags>
0

> <s_epik_input>
W0NIM11jMVtjSF1jKG5vMSlbTkhdQyg9TylbTkhdW0NIMl1bQ0BIXShbQ0gzXSlOMltDSDJdW0NIMl1PW0NIMl1bQ0gyXTI=

> <s_epik_cmdline>
J2VwaWtfcHl0aG9uJywgJy1waCcsICc3LjAnLCAnLXRuJywgJzgnLCAnLW1hJywgJzIwMCcsICctbWV0YWxfYmluZGluZycsICctaW1hZScsICc8aW5maWxlLm1hZT4nLCAnLW9tYWUnLCAnPG91dGZpbGUubWFlPic=

> <r_epik_Ionization_Penalty>
6.73014

> <r_epik_Ionization_Penalty_Charging>
6.73004

> <r_epik_Ionization_Penalty_Neutral>
9.51297e-05

> <r_epik_State_Penalty>
6.93052

> <r_epik_Charging_Adjusted_Penalty>
13.6606

> <i_epik_Tot_Q>
0

> <i_epik_Tot_abs_Q>
2

> <r_epik_Metal_State_Penalty>
2.86736

> <b_epik_Metal_Only>
1

> <s_lp_Force_Field>
OPLS_2005

> <r_lp_Energy>
9.04271

> <b_lp_Chiralities_Consistent>
1

> <s_lp_Variant>
AV-unprocessed.smi:2044-7

> <Gold.Version>
5.8.1

> <Gold.Id.Protein>
6NUR|6NUR_protein|mol2

> <Gold.PLP.Fitness>
39.3299

> <Gold.PLP.PLP>
-31.5704

> <Gold.PLP.part.hbond>
-2.5882

> <Gold.PLP.part.metal>
0.0000

> <Gold.PLP.part.buried>
-1.7443

> <Gold.PLP.part.nonpolar>
-29.3577

> <Gold.PLP.part.repulsive>
1.6848

> <Gold.PLP.ligand.clash>
0.0000

> <Gold.PLP.ligand.torsion>
0.6221

> <Gold.PLP.Chemscore.Hbond>
2.9745

> <Gold.PLP.Chemscore.CHOScore>
0.0000

> <Gold.PLP.Chemscore.Metal>
0.0000

> <Gold.Chemscore.Hbonds>
donor molecule, donor type, donor heavy atom, donor atom, acceptor molecule, acceptor atom, score
      L1  H     8    24       P1  8028  1.00
      L1  H    12    39       P1 10175  1.95

> <Gold.PLP.Chemscore.Internal.Correction>
0.0803

> <Gold.Rescore>
     Score         DG    S(hbond)    S(metal)    S(lipo)     H(rot)  DE(clash)    DE(int)     intcor
     13.49     -16.08       1.93        0.00      70.48       1.59       0.28       2.31       ----

> <Gold.Chemscore.Fitness>
13.4888

> <Gold.Chemscore.DG>
-16.0787

> <Gold.Chemscore.ZeroCoef>
-5.4800

> <Gold.Chemscore.Hbond>
1.9252

> <Gold.Chemscore.Metal>
0.0000

> <Gold.Chemscore.Lipo>
70.4836

> <Gold.Chemscore.Internal_Hbond>
0.0000

> <Gold.Chemscore.DEClash>
0.2841

> <Gold.Chemscore.DEInternal>
2.3058

> <Gold.Chemscore.Rot>
1.5930

> <Gold.Chemscore.Internal.Correction>
   9.000000E+99

> <Gold.Chemscore.Hbonds>
donor molecule, donor type, donor heavy atom, donor atom, acceptor molecule, acceptor atom, score
      L1  H     8    24       P1  8028  0.94
      L1  H    12    39       P1 10175  0.89

> <Gold.Chemscore.Hbond.Weighted>
-6.4301

> <Gold.Chemscore.Metal.Weighted>
-0.0000

> <Gold.Chemscore.Lipo.Weighted>
-8.2466

> <Gold.Chemscore.Internal_Hbond.Weighted>
0.0000

> <Gold.Chemscore.DEClash.Weighted>
0.2841

> <Gold.Chemscore.DEInternal.Weighted>
2.3058

> <Gold.Chemscore.Rot.Weighted>
4.0781

> <Gold.Chemscore.Internal.Correction.Weighted>
   9.000000E+99

> <Gold.Protein.RotatedTorsions>
[ 6907 6896 6895 6894 ] final   19.65 input  -60.11 | X-H torsion
[ 7974 7965 7964 7962 ] final  -39.47 input  175.53 | X-H torsion
[ 8008 7997 7996 7995 ] final -134.32 input   59.86 | X-H torsion
[ 10167 10162 10161 10158 ] final -178.12 input  -65.29 | X-H torsion
[ 10718 10713 10712 10709 ] final -143.86 input   66.30 | X-H torsion
[ 10763 10752 10751 10750 ] final  -78.55 input  -60.55 | X-H torsion
[ 11005 11000 10999 10996 ] final   33.91 input  -57.11 | X-H torsion

> <Gold.Protein.ActiveResidues>
 VAL166  LYS551  ARG553  GLY616  TRP617  ASP618  TYR619  PRO620  LYS621  CYS622 
 ASP623  PHE694  ASN695  SER759  ASP760  ASP761  ALA762  ILE779  LEU786  VAL792 
 PHE793  MET794  SER795  GLU796  ALA797  LYS798  CYS799  TRP800  GLU811  SER814 

> <Gold.Protein.RotatedAtoms>
  151.8842  135.0442  160.0491 H   0  0  0  0  0  0  0  0  0  0  0  0  # atno 6907 bound_to 6896
  152.2488  133.5193  159.5321 H   0  0  0  0  0  0  0  0  0  0  0  0  # atno 6908 bound_to 6896
  150.7077  134.0905  159.3972 H   0  0  0  0  0  0  0  0  0  0  0  0  # atno 6909 bound_to 6896
  146.0393  140.6629  142.9095 H   0  0  0  0  0  0  0  0  0  0  0  0  # atno 7974 bound_to 7965
  155.3602  140.0482  157.3046 H   0  0  0  0  0  0  0  0  0  0  0  0  # atno 8008 bound_to 7997
  154.5182  140.2215  155.8989 H   0  0  0  0  0  0  0  0  0  0  0  0  # atno 8009 bound_to 7997
  156.1660  140.3106  155.8895 H   0  0  0  0  0  0  0  0  0  0  0  0  # atno 8010 bound_to 7997
  139.5447  144.2267  152.0965 H   0  0  0  0  0  0  0  0  0  0  0  0  # atno 10167 bound_to 10162
  156.3630  130.7748  151.1919 H   0  0  0  0  0  0  0  0  0  0  0  0  # atno 10718 bound_to 10713
  154.5273  135.5726  153.6730 H   0  0  0  0  0  0  0  0  0  0  0  0  # atno 10763 bound_to 10752
  152.9931  135.6196  154.2675 H   0  0  0  0  0  0  0  0  0  0  0  0  # atno 10764 bound_to 10752
  154.2599  135.2856  155.2762 H   0  0  0  0  0  0  0  0  0  0  0  0  # atno 10765 bound_to 10752
  140.2582  134.3223  155.7866 H   0  0  0  0  0  0  0  0  0  0  0  0  # atno 11005 bound_to 11000
  144.7067  140.3879  143.7113 LP  0  0  0  0  0  0  0  0  0  0  0  0  # atno 17320 bound_to 7965
  145.6911  139.1639  143.2646 LP  0  0  0  0  0  0  0  0  0  0  0  0  # atno 17321 bound_to 7965
  140.1751  144.4898  150.6558 LP  0  0  0  0  0  0  0  0  0  0  0  0  # atno 17342 bound_to 10162
  140.6691  143.2279  151.5669 LP  0  0  0  0  0  0  0  0  0  0  0  0  # atno 17343 bound_to 10162
  157.7476  131.0394  150.4550 LP  0  0  0  0  0  0  0  0  0  0  0  0  # atno 17370 bound_to 10713
  156.4764  130.4064  149.6487 LP  0  0  0  0  0  0  0  0  0  0  0  0  # atno 17371 bound_to 10713
  141.2193  133.7394  156.9145 LP  0  0  0  0  0  0  0  0  0  0  0  0  # atno 17394 bound_to 11000
  140.1490  134.9243  157.2568 LP  0  0  0  0  0  0  0  0  0  0  0  0  # atno 17395 bound_to 11000

$$$$
