AV-unprocessed.smi:488|AV-procd|sdf|2701|dock8
  -GOLD-   2262023133D 1   1.00000     0.00000
 Structure written by MMmdl.
 45 46  0  0  0  0  0  0  0  0  1 V2000
  151.5351  142.5461  157.6867 C   0  0  0  0  0  0  0  0  0  0  0  0
  151.5858  141.0653  157.4229 C   0  0  0  0  0  0  0  0  0  0  0  0
  151.1943  140.6703  156.2561 N   0  0  0  0  0  0  0  0  0  0  0  0
  151.1912  139.3318  155.9124 N   0  0  0  0  0  0  0  0  0  0  0  0
  150.7032  139.0642  154.5525 C   0  0  0  0  0  0  0  0  0  0  0  0
  149.2062  139.3632  154.4178 C   0  0  0  0  0  0  0  0  0  0  0  0
  148.7130  140.2782  155.0797 O   0  0  0  0  0  0  0  0  0  0  0  0
  148.5311  138.5729  153.5579 N   0  0  0  0  0  0  0  0  0  0  0  0
  147.2237  138.6319  153.2415 C   0  0  0  0  0  0  0  0  0  0  0  0
  146.4437  139.5281  153.5710 O   0  0  0  0  0  0  0  0  0  0  0  0
  146.8602  137.5722  152.5040 N   0  0  0  0  0  0  0  0  0  0  0  0
  145.4854  137.1917  152.1941 C   0  0  0  0  0  0  0  0  0  0  0  0
  144.6665  137.1073  153.4958 C   0  0  0  0  0  0  0  0  0  0  0  0
  143.2228  136.6565  153.2218 C   0  0  0  0  0  0  0  0  0  0  0  0
  143.1913  135.3172  152.4688 C   0  0  0  0  0  0  0  0  0  0  0  0
  144.0062  135.3930  151.1679 C   0  0  0  0  0  0  0  0  0  0  0  0
  145.4502  135.8478  151.4374 C   0  0  0  0  0  0  0  0  0  0  0  0
  151.5913  138.3188  156.7343 C   0  0  0  0  0  0  0  0  0  0  0  0
  151.5726  137.1369  156.3880 O   0  0  0  0  0  0  0  0  0  0  0  0
  152.0368  138.7743  158.0531 C   0  0  0  0  0  0  0  0  0  0  0  0
  152.4591  137.7450  158.9475 C   0  0  0  0  0  0  0  0  0  0  0  0
  152.8152  136.9245  159.6825 N   0  0  0  0  0  0  0  0  0  0  0  0
  152.0452  140.0852  158.4015 C   0  0  0  0  0  0  0  0  0  0  0  0
  152.4965  140.6066  159.7589 C   0  0  0  0  0  0  0  0  0  0  0  0
  152.5398  142.9505  157.8101 H   0  0  0  0  0  0  0  0  0  0  0  0
  150.9697  142.7597  158.5940 H   0  0  0  0  0  0  0  0  0  0  0  0
  151.0586  143.0889  156.8690 H   0  0  0  0  0  0  0  0  0  0  0  0
  151.2506  139.6686  153.8263 H   0  0  0  0  0  0  0  0  0  0  0  0
  150.8970  138.0282  154.2676 H   0  0  0  0  0  0  0  0  0  0  0  0
  149.0718  137.8571  153.0953 H   0  0  0  0  0  0  0  0  0  0  0  0
  147.5876  136.9784  152.1334 H   0  0  0  0  0  0  0  0  0  0  0  0
  145.0354  137.9618  151.5642 H   0  0  0  0  0  0  0  0  0  0  0  0
  145.1384  136.4065  154.1862 H   0  0  0  0  0  0  0  0  0  0  0  0
  144.6590  138.0765  153.9962 H   0  0  0  0  0  0  0  0  0  0  0  0
  142.6763  136.5683  154.1612 H   0  0  0  0  0  0  0  0  0  0  0  0
  142.7077  137.4180  152.6348 H   0  0  0  0  0  0  0  0  0  0  0  0
  143.5933  134.5296  153.1071 H   0  0  0  0  0  0  0  0  0  0  0  0
  142.1607  135.0393  152.2465 H   0  0  0  0  0  0  0  0  0  0  0  0
  144.0085  134.4211  150.6738 H   0  0  0  0  0  0  0  0  0  0  0  0
  143.5283  136.0893  150.4777 H   0  0  0  0  0  0  0  0  0  0  0  0
  145.9875  135.9328  150.4921 H   0  0  0  0  0  0  0  0  0  0  0  0
  145.9675  135.0826  152.0183 H   0  0  0  0  0  0  0  0  0  0  0  0
  152.9631  139.8293  160.3633 H   0  0  0  0  0  0  0  0  0  0  0  0
  151.6445  140.9950  160.3175 H   0  0  0  0  0  0  0  0  0  0  0  0
  153.2278  141.4074  159.6451 H   0  0  0  0  0  0  0  0  0  0  0  0
  1  2  1  0  0  0  0
  1 25  1  0  0  0  0
  1 26  1  0  0  0  0
  1 27  1  0  0  0  0
  2 23  1  0  0  0  0
  2  3  2  0  0  0  0
  3  4  1  0  0  0  0
  4  5  1  0  0  0  0
  4 18  1  0  0  0  0
  5  6  1  0  0  0  0
  5 28  1  0  0  0  0
  5 29  1  0  0  0  0
  6  7  2  0  0  0  0
  6  8  1  0  0  0  0
  8  9  1  0  0  0  0
  8 30  1  0  0  0  0
  9 10  2  0  0  0  0
  9 11  1  0  0  0  0
 11 12  1  0  0  0  0
 11 31  1  0  0  0  0
 12 17  1  0  0  0  0
 12 13  1  0  0  0  0
 12 32  1  0  0  0  0
 13 14  1  0  0  0  0
 13 33  1  0  0  0  0
 13 34  1  0  0  0  0
 14 15  1  0  0  0  0
 14 35  1  0  0  0  0
 14 36  1  0  0  0  0
 15 16  1  0  0  0  0
 15 37  1  0  0  0  0
 15 38  1  0  0  0  0
 16 17  1  0  0  0  0
 16 39  1  0  0  0  0
 16 40  1  0  0  0  0
 17 41  1  0  0  0  0
 17 42  1  0  0  0  0
 18 19  2  0  0  0  0
 18 20  1  0  0  0  0
 20 21  1  0  0  0  0
 20 23  2  0  0  0  0
 21 22  3  0  0  0  0
 23 24  1  0  0  0  0
 24 43  1  0  0  0  0
 24 44  1  0  0  0  0
 24 45  1  0  0  0  0
M  END
> <s_m_source_file>
AV-unprocessed.smi

> <i_m_source_file_index>
488

> <i_lp_mmshare_version>
43012

> <i_f3d_flags>
0

> <s_epik_input>
TiNDYyhjMVtDSDNdKWMoPU8pbihuYzFbQ0gzXSlbQ0gyXUMoPU8pW05IXUMoPU8pW05IXVtDSF0yW0NIMl1bQ0gyXVtDSDJdW0NIMl1bQ0gyXTI=

> <s_epik_cmdline>
J2VwaWtfcHl0aG9uJywgJy1waCcsICc3LjAnLCAnLXRuJywgJzgnLCAnLW1hJywgJzIwMCcsICctbWV0YWxfYmluZGluZycsICctaW1hZScsICc8aW5maWxlLm1hZT4nLCAnLW9tYWUnLCAnPG91dGZpbGUubWFlPic=

> <r_lp_tautomer_probability>
1

> <r_epik_Ionization_Penalty>
3.27035e-05

> <r_epik_Ionization_Penalty_Charging>
1.69167e-11

> <r_epik_Ionization_Penalty_Neutral>
3.27035e-05

> <r_epik_State_Penalty>
-0

> <r_epik_Charging_Adjusted_Penalty>
1.69167e-11

> <i_epik_Tot_Q>
0

> <i_epik_Tot_abs_Q>
0

> <r_epik_Metal_State_Penalty>
-0

> <b_epik_Metal_Only>
0

> <s_lp_Force_Field>
OPLS_2005

> <r_lp_Energy>
25.832

> <b_lp_Chiralities_Consistent>
1

> <s_lp_Variant>
AV-unprocessed.smi:488-1

> <Gold.Version>
5.8.1

> <Gold.Id.Protein>
6NUR|6NUR_protein|mol2

> <Gold.PLP.Fitness>
43.8337

> <Gold.PLP.PLP>
-36.2317

> <Gold.PLP.part.hbond>
-3.9640

> <Gold.PLP.part.metal>
0.0000

> <Gold.PLP.part.buried>
-5.9894

> <Gold.PLP.part.nonpolar>
-28.2881

> <Gold.PLP.part.repulsive>
0.4332

> <Gold.PLP.ligand.clash>
0.0000

> <Gold.PLP.ligand.torsion>
0.5250

> <Gold.PLP.Chemscore.Hbond>
2.8800

> <Gold.PLP.Chemscore.CHOScore>
0.0000

> <Gold.PLP.Chemscore.Metal>
0.0000

> <Gold.Chemscore.Hbonds>
donor molecule, donor type, donor heavy atom, donor atom, acceptor molecule, acceptor atom, score
      L1  H     8    30       P1  7948  0.90
      L1  H    11    31       P1  7948  1.00
      P1  H  6896  6908       L1    22  0.93

> <Gold.PLP.Chemscore.Internal.Correction>
0.0120

> <Gold.Rescore>
     Score         DG    S(hbond)    S(metal)    S(lipo)     H(rot)  DE(clash)    DE(int)     intcor
     15.60     -18.90       2.89        0.00      66.79       1.59       0.05       3.26       ----

> <Gold.Chemscore.Fitness>
15.5974

> <Gold.Chemscore.DG>
-18.9022

> <Gold.Chemscore.ZeroCoef>
-5.4800

> <Gold.Chemscore.Hbond>
2.8947

> <Gold.Chemscore.Metal>
0.0000

> <Gold.Chemscore.Lipo>
66.7910

> <Gold.Chemscore.Internal_Hbond>
0.0000

> <Gold.Chemscore.DEClash>
0.0474

> <Gold.Chemscore.DEInternal>
3.2574

> <Gold.Chemscore.Rot>
1.5862

> <Gold.Chemscore.Internal.Correction>
   9.000000E+99

> <Gold.Chemscore.Hbonds>
donor molecule, donor type, donor heavy atom, donor atom, acceptor molecule, acceptor atom, score
      L1  H     8    30       P1  7948  0.83
      L1  H    11    31       P1  7948  0.97
      P1  H  6896  6908       L1    22  0.88

> <Gold.Chemscore.Hbond.Weighted>
-9.6684

> <Gold.Chemscore.Metal.Weighted>
-0.0000

> <Gold.Chemscore.Lipo.Weighted>
-7.8145

> <Gold.Chemscore.Internal_Hbond.Weighted>
0.0000

> <Gold.Chemscore.DEClash.Weighted>
0.0474

> <Gold.Chemscore.DEInternal.Weighted>
3.2574

> <Gold.Chemscore.Rot.Weighted>
4.0607

> <Gold.Chemscore.Internal.Correction.Weighted>
   9.000000E+99

> <Gold.Protein.RotatedTorsions>
[ 6907 6896 6895 6894 ] final  -92.84 input  -60.11 | X-H torsion
[ 7974 7965 7964 7962 ] final   34.89 input  175.53 | X-H torsion
[ 8008 7997 7996 7995 ] final   94.12 input   59.86 | X-H torsion
[ 10167 10162 10161 10158 ] final  148.94 input  -65.29 | X-H torsion
[ 10718 10713 10712 10709 ] final   82.42 input   66.30 | X-H torsion
[ 10763 10752 10751 10750 ] final   93.34 input  -60.55 | X-H torsion
[ 11005 11000 10999 10996 ] final   15.20 input  -57.11 | X-H torsion

> <Gold.Protein.ActiveResidues>
 VAL166  LYS551  ARG553  GLY616  TRP617  ASP618  TYR619  PRO620  LYS621  CYS622 
 ASP623  PHE694  ASN695  SER759  ASP760  ASP761  ALA762  ILE779  LEU786  VAL792 
 PHE793  MET794  SER795  GLU796  ALA797  LYS798  CYS799  TRP800  GLU811  SER814 

> <Gold.Protein.RotatedAtoms>
  150.6912  134.2060  159.4340 H   0  0  0  0  0  0  0  0  0  0  0  0  # atno 6907 bound_to 6896
  152.0024  134.9918  160.0575 H   0  0  0  0  0  0  0  0  0  0  0  0  # atno 6908 bound_to 6896
  152.1566  133.4520  159.4876 H   0  0  0  0  0  0  0  0  0  0  0  0  # atno 6909 bound_to 6896
  146.1321  139.6212  142.9219 H   0  0  0  0  0  0  0  0  0  0  0  0  # atno 7974 bound_to 7965
  156.0544  140.3304  155.7388 H   0  0  0  0  0  0  0  0  0  0  0  0  # atno 8008 bound_to 7997
  155.5551  140.0614  157.2859 H   0  0  0  0  0  0  0  0  0  0  0  0  # atno 8009 bound_to 7997
  154.4451  140.1887  156.0714 H   0  0  0  0  0  0  0  0  0  0  0  0  # atno 8010 bound_to 7997
  139.4868  144.5640  151.7178 H   0  0  0  0  0  0  0  0  0  0  0  0  # atno 10167 bound_to 10162
  157.6856  131.0047  150.2372 H   0  0  0  0  0  0  0  0  0  0  0  0  # atno 10718 bound_to 10713
  153.2292  135.4329  155.0577 H   0  0  0  0  0  0  0  0  0  0  0  0  # atno 10763 bound_to 10752
  154.8288  135.3375  154.6812 H   0  0  0  0  0  0  0  0  0  0  0  0  # atno 10764 bound_to 10752
  153.7240  135.7015  153.5062 H   0  0  0  0  0  0  0  0  0  0  0  0  # atno 10765 bound_to 10752
  140.4609  134.1128  155.7716 H   0  0  0  0  0  0  0  0  0  0  0  0  # atno 11005 bound_to 11000
  145.5237  141.0430  143.2421 LP  0  0  0  0  0  0  0  0  0  0  0  0  # atno 17320 bound_to 7965
  144.7702  139.6753  143.7198 LP  0  0  0  0  0  0  0  0  0  0  0  0  # atno 17321 bound_to 7965
  140.5215  144.0871  150.6024 LP  0  0  0  0  0  0  0  0  0  0  0  0  # atno 17342 bound_to 10162
  140.3831  143.2792  152.0147 LP  0  0  0  0  0  0  0  0  0  0  0  0  # atno 17343 bound_to 10162
  156.2993  130.3756  149.7765 LP  0  0  0  0  0  0  0  0  0  0  0  0  # atno 17370 bound_to 10713
  156.5400  130.8296  151.3266 LP  0  0  0  0  0  0  0  0  0  0  0  0  # atno 17371 bound_to 10713
  141.1621  133.8772  157.1818 LP  0  0  0  0  0  0  0  0  0  0  0  0  # atno 17394 bound_to 11000
  139.9946  135.0052  157.0052 LP  0  0  0  0  0  0  0  0  0  0  0  0  # atno 17395 bound_to 11000

$$$$
