AV-unprocessed.smi:3165|AV-procd|sdf|12089|dock10
  -GOLD-   2272017523D 1   1.00000     0.00000
 Structure written by MMmdl.
 37 38  0  0  0  0  0  0  0  0  1 V2000
  154.7611  140.4985  160.2780 C   0  0  0  0  0  0  0  0  0  0  0  0
  153.6767  141.3217  159.5651 C   0  0  2  0  0  0  0  0  0  0  0  0
  153.4261  142.6879  160.2532 C   0  0  0  0  0  0  0  0  0  0  0  0
  152.4533  143.5255  159.5693 N   0  0  0  0  0  0  0  0  0  0  0  0
  151.9207  144.7310  159.9767 C   0  0  0  0  0  0  0  0  0  0  0  0
  151.0545  145.1432  159.0052 C   0  0  0  0  0  0  0  0  0  0  0  0
  151.1290  144.1128  158.0271 C   0  0  0  0  0  0  0  0  0  0  0  0
  151.9709  143.1501  158.3645 N   0  0  0  0  0  0  0  0  0  0  0  0
  152.4612  140.5106  159.4311 N   0  0  0  0  0  0  0  0  0  0  0  0
  152.5692  139.3437  158.5563 C   0  0  0  0  0  0  0  0  0  0  0  0
  152.0483  139.6611  157.1478 C   0  0  2  0  0  0  0  0  0  0  0  0
  150.5684  140.0902  157.1749 C   0  0  0  0  0  0  0  0  0  0  0  0
  150.0418  140.3091  155.7521 C   0  0  0  0  0  0  0  0  0  0  0  0
  150.3170  139.0643  154.9018 C   0  0  0  0  0  0  0  0  0  0  0  0
  151.8003  138.6732  154.9927 C   0  0  0  0  0  0  0  0  0  0  0  0
  152.1666  138.4807  156.3552 O   0  0  0  0  0  0  0  0  0  0  0  0
  155.6793  141.0750  160.3924 H   0  0  0  0  0  0  0  0  0  0  0  0
  155.0071  139.6010  159.7097 H   0  0  0  0  0  0  0  0  0  0  0  0
  154.4406  140.1806  161.2705 H   0  0  0  0  0  0  0  0  0  0  0  0
  154.0533  141.5347  158.5640 H   0  0  0  0  0  0  0  0  0  0  0  0
  153.0585  142.5151  161.2653 H   0  0  0  0  0  0  0  0  0  0  0  0
  154.3522  143.2496  160.3771 H   0  0  0  0  0  0  0  0  0  0  0  0
  152.1980  145.1876  160.9154 H   0  0  0  0  0  0  0  0  0  0  0  0
  150.4588  146.0436  158.9945 H   0  0  0  0  0  0  0  0  0  0  0  0
  150.6025  144.0376  157.0871 H   0  0  0  0  0  0  0  0  0  0  0  0
  152.1394  140.2207  160.3490 H   0  0  0  0  0  0  0  0  0  0  0  0
  153.5989  138.9934  158.4893 H   0  0  0  0  0  0  0  0  0  0  0  0
  151.9842  138.5253  158.9774 H   0  0  0  0  0  0  0  0  0  0  0  0
  152.6485  140.4616  156.7107 H   0  0  0  0  0  0  0  0  0  0  0  0
  149.9725  139.3215  157.6691 H   0  0  0  0  0  0  0  0  0  0  0  0
  150.4484  141.0024  157.7601 H   0  0  0  0  0  0  0  0  0  0  0  0
  148.9741  140.5290  155.7701 H   0  0  0  0  0  0  0  0  0  0  0  0
  150.5343  141.1748  155.3071 H   0  0  0  0  0  0  0  0  0  0  0  0
  149.7008  138.2363  155.2540 H   0  0  0  0  0  0  0  0  0  0  0  0
  150.0358  139.2452  153.8642 H   0  0  0  0  0  0  0  0  0  0  0  0
  151.9770  137.7463  154.4469 H   0  0  0  0  0  0  0  0  0  0  0  0
  152.4344  139.4359  154.5383 H   0  0  0  0  0  0  0  0  0  0  0  0
  1  2  1  0  0  0  0
  1 17  1  0  0  0  0
  1 18  1  0  0  0  0
  1 19  1  0  0  0  0
  2  3  1  0  0  0  0
  2  9  1  0  0  0  0
  2 20  1  0  0  0  0
  3  4  1  0  0  0  0
  3 21  1  0  0  0  0
  3 22  1  0  0  0  0
  4  8  1  0  0  0  0
  4  5  1  0  0  0  0
  5  6  2  0  0  0  0
  5 23  1  0  0  0  0
  6  7  1  0  0  0  0
  6 24  1  0  0  0  0
  7  8  2  0  0  0  0
  7 25  1  0  0  0  0
  9 10  1  0  0  0  0
  9 26  1  0  0  0  0
 10 11  1  0  0  0  0
 10 27  1  0  0  0  0
 10 28  1  0  0  0  0
 11 16  1  0  0  0  0
 11 12  1  0  0  0  0
 11 29  1  0  0  0  0
 12 13  1  0  0  0  0
 12 30  1  0  0  0  0
 12 31  1  0  0  0  0
 13 14  1  0  0  0  0
 13 32  1  0  0  0  0
 13 33  1  0  0  0  0
 14 15  1  0  0  0  0
 14 34  1  0  0  0  0
 14 35  1  0  0  0  0
 15 16  1  0  0  0  0
 15 36  1  0  0  0  0
 15 37  1  0  0  0  0
M  END
> <s_m_source_file>
AV-unprocessed.smi

> <i_m_source_file_index>
3165

> <i_lp_mmshare_version>
43012

> <i_f3d_flags>
0

> <s_epik_input>
bjFbY0hdW2NIXVtjSF1uMVtDSDJdW0NAQEhdKFtDSDNdKVtOSF1bQ0gyXVtDQEBIXTJbQ0gyXVtDSDJdW0NIMl1bQ0gyXU8y

> <s_epik_cmdline>
J2VwaWtfcHl0aG9uJywgJy1waCcsICc3LjAnLCAnLXRuJywgJzgnLCAnLW1hJywgJzIwMCcsICctbWV0YWxfYmluZGluZycsICctaW1hZScsICc8aW5maWxlLm1hZT4nLCAnLW9tYWUnLCAnPG91dGZpbGUubWFlPic=

> <r_lp_tautomer_probability>
1

> <r_epik_Ionization_Penalty>
2.51982

> <r_epik_Ionization_Penalty_Charging>
0

> <r_epik_Ionization_Penalty_Neutral>
2.51982

> <r_epik_State_Penalty>
2.68614

> <r_epik_Charging_Adjusted_Penalty>
2.68614

> <i_epik_Tot_Q>
0

> <i_epik_Tot_abs_Q>
0

> <r_epik_Metal_State_Penalty>
2.6861

> <b_epik_Metal_Only>
0

> <s_lp_Force_Field>
OPLS_2005

> <r_lp_Energy>
14.3424

> <b_lp_Chiralities_Consistent>
1

> <s_lp_Variant>
AV-unprocessed.smi:3165-5

> <Gold.Version>
5.8.1

> <Gold.Id.Protein>
6NUR|6NUR_protein|mol2

> <Gold.PLP.Fitness>
42.9537

> <Gold.PLP.PLP>
-40.6191

> <Gold.PLP.part.hbond>
0.0000

> <Gold.PLP.part.metal>
0.0000

> <Gold.PLP.part.buried>
-4.0040

> <Gold.PLP.part.nonpolar>
-36.4528

> <Gold.PLP.part.repulsive>
0.0242

> <Gold.PLP.ligand.clash>
0.0000

> <Gold.PLP.ligand.torsion>
0.3451

> <Gold.PLP.Chemscore.Hbond>
0.0000

> <Gold.PLP.Chemscore.CHOScore>
1.0000

> <Gold.PLP.Chemscore.Metal>
0.0000

> <Gold.Chemscore.Hbonds>
donor molecule, donor type, donor heavy atom, donor atom, acceptor molecule, acceptor atom, score
      L1  C     7    25       P1  8028  1.00

> <Gold.PLP.Chemscore.Internal.Correction>
0.0249

> <Gold.Rescore>
     Score         DG    S(hbond)    S(metal)    S(lipo)     H(rot)  DE(clash)    DE(int)     intcor
     13.28     -13.81       0.00        0.00     105.59       1.57       0.11       0.42       ----

> <Gold.Chemscore.Fitness>
13.2821

> <Gold.Chemscore.DG>
-13.8072

> <Gold.Chemscore.ZeroCoef>
-5.4800

> <Gold.Chemscore.Hbond>
0.0000

> <Gold.Chemscore.Metal>
0.0000

> <Gold.Chemscore.Lipo>
105.5934

> <Gold.Chemscore.Internal_Hbond>
0.0000

> <Gold.Chemscore.DEClash>
0.1057

> <Gold.Chemscore.DEInternal>
0.4194

> <Gold.Chemscore.Rot>
1.5731

> <Gold.Chemscore.Internal.Correction>
   9.000000E+99

> <Gold.Chemscore.Hbond.Weighted>
-0.0000

> <Gold.Chemscore.Metal.Weighted>
-0.0000

> <Gold.Chemscore.Lipo.Weighted>
-12.3544

> <Gold.Chemscore.Internal_Hbond.Weighted>
0.0000

> <Gold.Chemscore.DEClash.Weighted>
0.1057

> <Gold.Chemscore.DEInternal.Weighted>
0.4194

> <Gold.Chemscore.Rot.Weighted>
4.0273

> <Gold.Chemscore.Internal.Correction.Weighted>
   9.000000E+99

> <Gold.Protein.RotatedTorsions>
[ 6907 6896 6895 6894 ] final -174.94 input  -60.11 | X-H torsion
[ 7974 7965 7964 7962 ] final  177.94 input  175.53 | X-H torsion
[ 8008 7997 7996 7995 ] final  -57.83 input   59.86 | X-H torsion
[ 10167 10162 10161 10158 ] final  133.24 input  -65.29 | X-H torsion
[ 10718 10713 10712 10709 ] final   98.01 input   66.30 | X-H torsion
[ 10763 10752 10751 10750 ] final    8.36 input  -60.55 | X-H torsion
[ 11005 11000 10999 10996 ] final -172.98 input  -57.11 | X-H torsion

> <Gold.Protein.ActiveResidues>
 VAL166  LYS551  ARG553  GLY616  TRP617  ASP618  TYR619  PRO620  LYS621  CYS622 
 ASP623  PHE694  ASN695  SER759  ASP760  ASP761  ALA762  ILE779  LEU786  VAL792 
 PHE793  MET794  SER795  GLU796  ALA797  LYS798  CYS799  TRP800  GLU811  SER814 

> <Gold.Protein.RotatedAtoms>
  151.5806  133.3378  159.3007 H   0  0  0  0  0  0  0  0  0  0  0  0  # atno 6907 bound_to 6896
  150.8316  134.7574  159.6869 H   0  0  0  0  0  0  0  0  0  0  0  0  # atno 6908 bound_to 6896
  152.4398  134.5619  159.9948 H   0  0  0  0  0  0  0  0  0  0  0  0  # atno 6909 bound_to 6896
  144.7162  140.0323  143.6439 H   0  0  0  0  0  0  0  0  0  0  0  0  # atno 7974 bound_to 7965
  154.4284  140.1098  156.5860 H   0  0  0  0  0  0  0  0  0  0  0  0  # atno 8008 bound_to 7997
  155.6062  140.3494  155.4590 H   0  0  0  0  0  0  0  0  0  0  0  0  # atno 8009 bound_to 7997
  156.0135  140.1224  157.0420 H   0  0  0  0  0  0  0  0  0  0  0  0  # atno 8010 bound_to 7997
  139.5305  144.6625  151.4968 H   0  0  0  0  0  0  0  0  0  0  0  0  # atno 10167 bound_to 10162
  157.6903  131.0627  150.4731 H   0  0  0  0  0  0  0  0  0  0  0  0  # atno 10718 bound_to 10713
  153.2259  135.6887  153.7946 H   0  0  0  0  0  0  0  0  0  0  0  0  # atno 10763 bound_to 10752
  153.7128  135.3279  155.3251 H   0  0  0  0  0  0  0  0  0  0  0  0  # atno 10764 bound_to 10752
  154.8291  135.4594  154.1125 H   0  0  0  0  0  0  0  0  0  0  0  0  # atno 10765 bound_to 10752
  140.4909  134.5985  157.4954 H   0  0  0  0  0  0  0  0  0  0  0  0  # atno 11005 bound_to 11000
  146.0092  139.3155  143.0880 LP  0  0  0  0  0  0  0  0  0  0  0  0  # atno 17320 bound_to 7965
  145.8702  140.9424  143.0655 LP  0  0  0  0  0  0  0  0  0  0  0  0  # atno 17321 bound_to 7965
  140.6480  143.8755  150.6756 LP  0  0  0  0  0  0  0  0  0  0  0  0  # atno 17342 bound_to 10162
  140.2111  143.3883  152.1717 LP  0  0  0  0  0  0  0  0  0  0  0  0  # atno 17343 bound_to 10162
  156.5068  130.4130  149.6323 LP  0  0  0  0  0  0  0  0  0  0  0  0  # atno 17370 bound_to 10713
  156.3277  130.7315  151.2239 LP  0  0  0  0  0  0  0  0  0  0  0  0  # atno 17371 bound_to 10713
  139.9769  134.7200  155.9932 LP  0  0  0  0  0  0  0  0  0  0  0  0  # atno 17394 bound_to 11000
  141.1484  133.6552  156.3938 LP  0  0  0  0  0  0  0  0  0  0  0  0  # atno 17395 bound_to 11000

$$$$
