AV-unprocessed.smi:3318|AV-procd|sdf|12766|dock3
  -GOLD-   2272019103D 1   1.00000     0.00000
 Structure written by MMmdl.
 44 45  0  0  0  0  0  0  0  0  2 V2000
  149.9251  133.1336  155.3788 C   0  0  0  0  0  0  0  0  0  0  0  0
  150.2715  134.5526  154.9144 C   0  0  0  0  0  0  0  0  0  0  0  0
  149.0934  135.5281  155.0830 C   0  0  0  0  0  0  0  0  0  0  0  0
  149.4171  136.9002  154.6156 N   0  3  2  0  0  0  0  0  0  0  0  0
  150.6226  137.4731  155.2688 C   0  0  0  0  0  0  0  0  0  0  0  0
  151.0035  138.8290  154.6496 C   0  0  0  0  0  0  0  0  0  0  0  0
  149.8348  139.8369  154.6724 C   0  0  2  0  0  0  0  0  0  0  0  0
  149.5628  140.3584  156.0086 N   0  0  0  0  0  0  0  0  0  0  0  0
  150.7836  140.6860  156.7327 C   0  0  0  0  0  0  0  0  0  0  0  0
  151.0685  142.1888  156.6046 C   0  0  0  0  0  0  0  0  0  0  0  0
  151.5785  142.7856  157.9029 C   0  0  0  0  0  0  0  0  0  0  0  0
  151.7860  141.9722  159.0373 C   0  0  0  0  0  0  0  0  0  0  0  0
  152.2669  142.5747  160.2159 C   0  0  0  0  0  0  0  0  0  0  0  0
  152.5217  143.9596  160.2144 C   0  0  0  0  0  0  0  0  0  0  0  0
  152.2839  144.6835  159.0290 C   0  0  0  0  0  0  0  0  0  0  0  0
  151.8234  144.1155  157.8933 N   0  0  0  0  0  0  0  0  0  0  0  0
  148.5588  139.1919  154.1022 C   0  0  0  0  0  0  0  0  0  0  0  0
  148.2567  137.8195  154.7313 C   0  0  0  0  0  0  0  0  0  0  0  0
  150.7762  132.4645  155.2497 H   0  0  0  0  0  0  0  0  0  0  0  0
  149.0915  132.7235  154.8081 H   0  0  0  0  0  0  0  0  0  0  0  0
  149.6490  133.1201  156.4335 H   0  0  0  0  0  0  0  0  0  0  0  0
  151.1393  134.8971  155.4759 H   0  0  0  0  0  0  0  0  0  0  0  0
  150.5733  134.5209  153.8669 H   0  0  0  0  0  0  0  0  0  0  0  0
  148.2554  135.1421  154.5006 H   0  0  0  0  0  0  0  0  0  0  0  0
  148.7580  135.5577  156.1210 H   0  0  0  0  0  0  0  0  0  0  0  0
  150.4402  137.5865  156.3386 H   0  0  0  0  0  0  0  0  0  0  0  0
  151.4688  136.7949  155.1668 H   0  0  0  0  0  0  0  0  0  0  0  0
  151.8911  139.2288  155.1388 H   0  0  0  0  0  0  0  0  0  0  0  0
  151.2954  138.6630  153.6118 H   0  0  0  0  0  0  0  0  0  0  0  0
  150.0856  140.6859  154.0347 H   0  0  0  0  0  0  0  0  0  0  0  0
  149.0092  141.1999  155.9270 H   0  0  0  0  0  0  0  0  0  0  0  0
  150.6887  140.4217  157.7853 H   0  0  0  0  0  0  0  0  0  0  0  0
  151.6179  140.1145  156.3240 H   0  0  0  0  0  0  0  0  0  0  0  0
  151.8075  142.3668  155.8215 H   0  0  0  0  0  0  0  0  0  0  0  0
  150.1642  142.7173  156.2994 H   0  0  0  0  0  0  0  0  0  0  0  0
  151.5831  140.9117  159.0071 H   0  0  0  0  0  0  0  0  0  0  0  0
  152.4378  141.9852  161.1047 H   0  0  0  0  0  0  0  0  0  0  0  0
  152.8907  144.4552  161.1001 H   0  0  0  0  0  0  0  0  0  0  0  0
  152.4686  145.7469  158.9917 H   0  0  0  0  0  0  0  0  0  0  0  0
  147.7042  139.8591  154.2240 H   0  0  0  0  0  0  0  0  0  0  0  0
  148.6841  139.0613  153.0266 H   0  0  0  0  0  0  0  0  0  0  0  0
  147.3903  137.3859  154.2302 H   0  0  0  0  0  0  0  0  0  0  0  0
  147.9873  137.9351  155.7824 H   0  0  0  0  0  0  0  0  0  0  0  0
  149.6205  136.8257  153.6291 H   0  0  0  0  0  0  0  0  0  0  0  0
  1  2  1  0  0  0  0
  1 19  1  0  0  0  0
  1 20  1  0  0  0  0
  1 21  1  0  0  0  0
  2  3  1  0  0  0  0
  2 22  1  0  0  0  0
  2 23  1  0  0  0  0
  3  4  1  0  0  0  0
  3 24  1  0  0  0  0
  3 25  1  0  0  0  0
  4 18  1  0  0  0  0
  4  5  1  0  0  0  0
  4 44  1  0  0  0  0
  5  6  1  0  0  0  0
  5 26  1  0  0  0  0
  5 27  1  0  0  0  0
  6  7  1  0  0  0  0
  6 28  1  0  0  0  0
  6 29  1  0  0  0  0
  7  8  1  0  0  0  0
  7 17  1  0  0  0  0
  7 30  1  0  0  0  0
  8  9  1  0  0  0  0
  8 31  1  0  0  0  0
  9 10  1  0  0  0  0
  9 32  1  0  0  0  0
  9 33  1  0  0  0  0
 10 11  1  0  0  0  0
 10 34  1  0  0  0  0
 10 35  1  0  0  0  0
 11 16  1  0  0  0  0
 11 12  2  0  0  0  0
 12 13  1  0  0  0  0
 12 36  1  0  0  0  0
 13 14  2  0  0  0  0
 13 37  1  0  0  0  0
 14 15  1  0  0  0  0
 14 38  1  0  0  0  0
 15 16  2  0  0  0  0
 15 39  1  0  0  0  0
 17 18  1  0  0  0  0
 17 40  1  0  0  0  0
 17 41  1  0  0  0  0
 18 42  1  0  0  0  0
 18 43  1  0  0  0  0
M  CHG  1   4   1
M  END
> <s_m_source_file>
AV-unprocessed.smi

> <i_m_source_file_index>
3318

> <i_lp_mmshare_version>
43012

> <i_f3d_flags>
0

> <s_epik_input>
W0NIM11bQ0gyXVtDSDJdTjFbQ0gyXVtDSDJdW0NIXShbQ0gyXVtDSDJdMSlbTkhdW0NIMl1bQ0gyXWMyW2NIXVtjSF1bY0hdW2NIXW4y

> <s_epik_cmdline>
J2VwaWtfcHl0aG9uJywgJy1waCcsICc3LjAnLCAnLXRuJywgJzgnLCAnLW1hJywgJzIwMCcsICctbWV0YWxfYmluZGluZycsICctaW1hZScsICc8aW5maWxlLm1hZT4nLCAnLW9tYWUnLCAnPG91dGZpbGUubWFlPic=

> <r_epik_Ionization_Penalty>
2.30703

> <r_epik_Ionization_Penalty_Charging>
0.000286176

> <r_epik_Ionization_Penalty_Neutral>
2.30674

> <r_epik_State_Penalty>
2.39905

> <r_epik_Charging_Adjusted_Penalty>
2.39933

> <i_epik_Tot_Q>
1

> <i_epik_Tot_abs_Q>
1

> <r_epik_Metal_State_Penalty>
2.30906

> <b_epik_Metal_Only>
0

> <s_lp_Force_Field>
OPLS_2005

> <r_lp_Energy>
21.3611

> <b_lp_Chiralities_Consistent>
1

> <s_lp_Variant>
AV-unprocessed.smi:3318-5

> <Gold.Version>
5.8.1

> <Gold.Id.Protein>
6NUR|6NUR_protein|mol2

> <Gold.PLP.Fitness>
42.5991

> <Gold.PLP.PLP>
-37.9554

> <Gold.PLP.part.hbond>
-1.0000

> <Gold.PLP.part.metal>
0.0000

> <Gold.PLP.part.buried>
-5.9732

> <Gold.PLP.part.nonpolar>
-31.2099

> <Gold.PLP.part.repulsive>
0.1330

> <Gold.PLP.ligand.clash>
0.0000

> <Gold.PLP.ligand.torsion>
0.6685

> <Gold.PLP.Chemscore.Hbond>
1.9520

> <Gold.PLP.Chemscore.CHOScore>
0.0000

> <Gold.PLP.Chemscore.Metal>
0.0000

> <Gold.Chemscore.Hbonds>
donor molecule, donor type, donor heavy atom, donor atom, acceptor molecule, acceptor atom, score
      L1  H     4    44       P1  7948  1.89

> <Gold.PLP.Chemscore.Internal.Correction>
0.1247

> <Gold.Rescore>
     Score         DG    S(hbond)    S(metal)    S(lipo)     H(rot)  DE(clash)    DE(int)     intcor
     17.95     -18.77       0.96        0.00     118.46       1.48       0.16       0.66       ----

> <Gold.Chemscore.Fitness>
17.9545

> <Gold.Chemscore.DG>
-18.7708

> <Gold.Chemscore.ZeroCoef>
-5.4800

> <Gold.Chemscore.Hbond>
0.9648

> <Gold.Chemscore.Metal>
0.0000

> <Gold.Chemscore.Lipo>
118.4613

> <Gold.Chemscore.Internal_Hbond>
0.0000

> <Gold.Chemscore.DEClash>
0.1590

> <Gold.Chemscore.DEInternal>
0.6573

> <Gold.Chemscore.Rot>
1.4811

> <Gold.Chemscore.Internal.Correction>
   9.000000E+99

> <Gold.Chemscore.Hbonds>
donor molecule, donor type, donor heavy atom, donor atom, acceptor molecule, acceptor atom, score
      L1  H     4    44       P1  7948  0.67

> <Gold.Chemscore.Hbond.Weighted>
-3.2225

> <Gold.Chemscore.Metal.Weighted>
-0.0000

> <Gold.Chemscore.Lipo.Weighted>
-13.8600

> <Gold.Chemscore.Internal_Hbond.Weighted>
0.0000

> <Gold.Chemscore.DEClash.Weighted>
0.1590

> <Gold.Chemscore.DEInternal.Weighted>
0.6573

> <Gold.Chemscore.Rot.Weighted>
3.7917

> <Gold.Chemscore.Internal.Correction.Weighted>
   9.000000E+99

> <Gold.Protein.RotatedTorsions>
[ 6907 6896 6895 6894 ] final -132.20 input  -60.11 | X-H torsion
[ 7974 7965 7964 7962 ] final  -51.53 input  175.53 | X-H torsion
[ 8008 7997 7996 7995 ] final  -46.26 input   59.86 | X-H torsion
[ 10167 10162 10161 10158 ] final   92.88 input  -65.29 | X-H torsion
[ 10718 10713 10712 10709 ] final -151.01 input   66.30 | X-H torsion
[ 10763 10752 10751 10750 ] final  112.48 input  -60.55 | X-H torsion
[ 11005 11000 10999 10996 ] final  -52.81 input  -57.11 | X-H torsion

> <Gold.Protein.ActiveResidues>
 VAL166  LYS551  ARG553  GLY616  TRP617  ASP618  TYR619  PRO620  LYS621  CYS622 
 ASP623  PHE694  ASN695  SER759  ASP760  ASP761  ALA762  ILE779  LEU786  VAL792 
 PHE793  MET794  SER795  GLU796  ALA797  LYS798  CYS799  TRP800  GLU811  SER814 

> <Gold.Protein.RotatedAtoms>
  150.9596  133.6459  159.2756 H   0  0  0  0  0  0  0  0  0  0  0  0  # atno 6907 bound_to 6896
  151.3786  135.0934  159.9498 H   0  0  0  0  0  0  0  0  0  0  0  0  # atno 6908 bound_to 6896
  152.5142  133.9136  159.7554 H   0  0  0  0  0  0  0  0  0  0  0  0  # atno 6909 bound_to 6896
  145.9179  140.7859  142.9662 H   0  0  0  0  0  0  0  0  0  0  0  0  # atno 7974 bound_to 7965
  154.4006  140.1376  156.3982 H   0  0  0  0  0  0  0  0  0  0  0  0  # atno 8008 bound_to 7997
  155.7850  140.3480  155.5297 H   0  0  0  0  0  0  0  0  0  0  0  0  # atno 8009 bound_to 7997
  155.8636  140.0960  157.1587 H   0  0  0  0  0  0  0  0  0  0  0  0  # atno 8010 bound_to 7997
  139.8233  144.6721  150.9491 H   0  0  0  0  0  0  0  0  0  0  0  0  # atno 10167 bound_to 10162
  156.4536  130.8180  151.2411 H   0  0  0  0  0  0  0  0  0  0  0  0  # atno 10718 bound_to 10713
  153.4785  135.3685  155.2429 H   0  0  0  0  0  0  0  0  0  0  0  0  # atno 10763 bound_to 10752
  154.8755  135.3948  154.3728 H   0  0  0  0  0  0  0  0  0  0  0  0  # atno 10764 bound_to 10752
  153.4328  135.7082  153.6285 H   0  0  0  0  0  0  0  0  0  0  0  0  # atno 10765 bound_to 10752
  141.0944  133.6627  156.4080 H   0  0  0  0  0  0  0  0  0  0  0  0  # atno 11005 bound_to 11000
  144.6750  140.1929  143.7395 LP  0  0  0  0  0  0  0  0  0  0  0  0  # atno 17320 bound_to 7965
  145.8588  139.2212  143.1729 LP  0  0  0  0  0  0  0  0  0  0  0  0  # atno 17321 bound_to 7965
  140.7812  143.4070  151.1054 LP  0  0  0  0  0  0  0  0  0  0  0  0  # atno 17342 bound_to 10162
  139.7729  143.8468  152.3124 LP  0  0  0  0  0  0  0  0  0  0  0  0  # atno 17343 bound_to 10162
  157.7501  131.0130  150.3406 LP  0  0  0  0  0  0  0  0  0  0  0  0  # atno 17370 bound_to 10713
  156.3790  130.3877  149.7116 LP  0  0  0  0  0  0  0  0  0  0  0  0  # atno 17371 bound_to 10713
  140.5176  134.6335  157.5306 LP  0  0  0  0  0  0  0  0  0  0  0  0  # atno 17394 bound_to 11000
  139.9777  134.7189  155.9919 LP  0  0  0  0  0  0  0  0  0  0  0  0  # atno 17395 bound_to 11000

$$$$
