AV-unprocessed.smi:1891|AV-procd|sdf|7666|dock7
  -GOLD-   22720 9403D 1   1.00000     0.00000
 Structure written by MMmdl.
 36 38  0  0  0  0  0  0  0  0  1 V2000
  151.6822  136.5964  155.5977 O   0  0  0  0  0  0  0  0  0  0  0  0
  151.9209  137.8389  154.9681 C   0  0  0  0  0  0  0  0  0  0  0  0
  150.6837  138.6636  154.7504 C   0  0  0  0  0  0  0  0  0  0  0  0
  149.5780  138.1774  154.1814 N   0  0  0  0  0  0  0  0  0  0  0  0
  148.7231  139.2612  154.1934 C   0  0  0  0  0  0  0  0  0  0  0  0
  147.3956  139.3896  153.7264 C   0  0  0  0  0  0  0  0  0  0  0  0
  146.7113  140.6166  153.8496 C   0  0  0  0  0  0  0  0  0  0  0  0
  147.3426  141.7295  154.4420 C   0  0  0  0  0  0  0  0  0  0  0  0
  148.6652  141.6226  154.9134 C   0  0  0  0  0  0  0  0  0  0  0  0
  149.3445  140.3963  154.7851 C   0  0  0  0  0  0  0  0  0  0  0  0
  150.6231  139.9668  155.1268 N   0  0  0  0  0  0  0  0  0  0  0  0
  151.6563  140.7792  155.7566 C   0  0  0  0  0  0  0  0  0  0  0  0
  151.6756  140.6202  157.2910 C   0  0  1  0  0  0  0  0  0  0  0  0
  152.7713  139.7965  157.6370 O   0  0  0  0  0  0  0  0  0  0  0  0
  151.6999  141.9603  158.0185 C   0  0  0  0  0  0  0  0  0  0  0  0
  151.0774  143.0949  157.4504 C   0  0  0  0  0  0  0  0  0  0  0  0
  151.0808  144.3262  158.1335 C   0  0  0  0  0  0  0  0  0  0  0  0
  151.7051  144.4326  159.3905 C   0  0  0  0  0  0  0  0  0  0  0  0
  151.7071  145.6163  160.0480 F   0  0  0  0  0  0  0  0  0  0  0  0
  152.3255  143.3070  159.9639 C   0  0  0  0  0  0  0  0  0  0  0  0
  152.3241  142.0745  159.2823 C   0  0  0  0  0  0  0  0  0  0  0  0
  152.9178  140.9997  159.8548 F   0  0  0  0  0  0  0  0  0  0  0  0
  151.1228  136.7404  156.3452 H   0  0  0  0  0  0  0  0  0  0  0  0
  152.6244  138.4070  155.5770 H   0  0  0  0  0  0  0  0  0  0  0  0
  152.3988  137.6446  154.0091 H   0  0  0  0  0  0  0  0  0  0  0  0
  146.9035  138.5427  153.2719 H   0  0  0  0  0  0  0  0  0  0  0  0
  145.6974  140.7042  153.4878 H   0  0  0  0  0  0  0  0  0  0  0  0
  146.8112  142.6657  154.5330 H   0  0  0  0  0  0  0  0  0  0  0  0
  149.1525  142.4738  155.3652 H   0  0  0  0  0  0  0  0  0  0  0  0
  152.6152  140.4660  155.3408 H   0  0  0  0  0  0  0  0  0  0  0  0
  151.5340  141.8254  155.4769 H   0  0  0  0  0  0  0  0  0  0  0  0
  150.7871  140.0714  157.6041 H   0  0  0  0  0  0  0  0  0  0  0  0
  152.4839  139.1670  158.2803 H   0  0  0  0  0  0  0  0  0  0  0  0
  150.5858  143.0254  156.4913 H   0  0  0  0  0  0  0  0  0  0  0  0
  150.6014  145.1886  157.6942 H   0  0  0  0  0  0  0  0  0  0  0  0
  152.8009  143.3873  160.9302 H   0  0  0  0  0  0  0  0  0  0  0  0
  1  2  1  0  0  0  0
  1 23  1  0  0  0  0
  2  3  1  0  0  0  0
  2 24  1  0  0  0  0
  2 25  1  0  0  0  0
  3 11  1  0  0  0  0
  3  4  2  0  0  0  0
  4  5  1  0  0  0  0
  5 10  2  0  0  0  0
  5  6  1  0  0  0  0
  6  7  2  0  0  0  0
  6 26  1  0  0  0  0
  7  8  1  0  0  0  0
  7 27  1  0  0  0  0
  8  9  2  0  0  0  0
  8 28  1  0  0  0  0
  9 10  1  0  0  0  0
  9 29  1  0  0  0  0
 10 11  1  0  0  0  0
 11 12  1  0  0  0  0
 12 13  1  0  0  0  0
 12 30  1  0  0  0  0
 12 31  1  0  0  0  0
 13 14  1  0  0  0  0
 13 15  1  0  0  0  0
 13 32  1  0  0  0  0
 14 33  1  0  0  0  0
 15 21  1  0  0  0  0
 15 16  2  0  0  0  0
 16 17  1  0  0  0  0
 16 34  1  0  0  0  0
 17 18  2  0  0  0  0
 17 35  1  0  0  0  0
 18 19  1  0  0  0  0
 18 20  1  0  0  0  0
 20 21  2  0  0  0  0
 20 36  1  0  0  0  0
 21 22  1  0  0  0  0
M  END
> <s_m_source_file>
AV-unprocessed.smi

> <i_m_source_file_index>
1891

> <i_lp_mmshare_version>
43012

> <i_f3d_flags>
0

> <s_epik_input>
W2NIXTFbY0hdW2NIXVtjSF1jKGMxMiluKGMobjIpW0NIMl1bT0hdKVtDSDJdW0NASF0oW09IXSljM1tjSF1bY0hdYyhGKVtjSF1jM0Y=

> <s_epik_cmdline>
J2VwaWtfcHl0aG9uJywgJy1waCcsICc3LjAnLCAnLXRuJywgJzgnLCAnLW1hJywgJzIwMCcsICctbWV0YWxfYmluZGluZycsICctaW1hZScsICc8aW5maWxlLm1hZT4nLCAnLW9tYWUnLCAnPG91dGZpbGUubWFlPic=

> <r_epik_Ionization_Penalty>
0.0634724

> <r_epik_Ionization_Penalty_Charging>
0

> <r_epik_Ionization_Penalty_Neutral>
0.0634724

> <r_epik_State_Penalty>
0.0551572

> <r_epik_Charging_Adjusted_Penalty>
0.0551572

> <i_epik_Tot_Q>
0

> <i_epik_Tot_abs_Q>
0

> <r_epik_Metal_State_Penalty>
5.78034e-05

> <b_epik_Metal_Only>
0

> <s_lp_Force_Field>
OPLS_2005

> <r_lp_Energy>
13.0815

> <b_lp_Chiralities_Consistent>
1

> <s_lp_Variant>
AV-unprocessed.smi:1891-2

> <Gold.Version>
5.8.1

> <Gold.Id.Protein>
6NUR|6NUR_protein|mol2

> <Gold.PLP.Fitness>
53.8282

> <Gold.PLP.PLP>
-51.4884

> <Gold.PLP.part.hbond>
-2.0000

> <Gold.PLP.part.metal>
0.0000

> <Gold.PLP.part.buried>
-0.7391

> <Gold.PLP.part.nonpolar>
-48.4648

> <Gold.PLP.part.repulsive>
0.5194

> <Gold.PLP.ligand.clash>
0.0000

> <Gold.PLP.ligand.torsion>
1.8398

> <Gold.PLP.Chemscore.Hbond>
2.0000

> <Gold.PLP.Chemscore.CHOScore>
0.0000

> <Gold.PLP.Chemscore.Metal>
0.0000

> <Gold.Chemscore.Hbonds>
donor molecule, donor type, donor heavy atom, donor atom, acceptor molecule, acceptor atom, score
      P1  H  7997  8008       L1    14  1.00
      P1  H 10752 10763       L1     1  1.00

> <Gold.PLP.Chemscore.Internal.Correction>
0.0194

> <Gold.Rescore>
     Score         DG    S(hbond)    S(metal)    S(lipo)     H(rot)  DE(clash)    DE(int)     intcor
     13.41     -17.83       1.68        0.00     120.61       2.88       0.77       3.65       ----

> <Gold.Chemscore.Fitness>
13.4130

> <Gold.Chemscore.DG>
-17.8281

> <Gold.Chemscore.ZeroCoef>
-5.4800

> <Gold.Chemscore.Hbond>
1.6769

> <Gold.Chemscore.Metal>
0.0000

> <Gold.Chemscore.Lipo>
120.6141

> <Gold.Chemscore.Internal_Hbond>
0.0000

> <Gold.Chemscore.DEClash>
0.7681

> <Gold.Chemscore.DEInternal>
3.6471

> <Gold.Chemscore.Rot>
2.8767

> <Gold.Chemscore.Internal.Correction>
   9.000000E+99

> <Gold.Chemscore.Hbonds>
donor molecule, donor type, donor heavy atom, donor atom, acceptor molecule, acceptor atom, score
      P1  H  7997  8008       L1    14  0.93
      P1  H 10752 10763       L1     1  0.35

> <Gold.Chemscore.Hbond.Weighted>
-5.6007

> <Gold.Chemscore.Metal.Weighted>
-0.0000

> <Gold.Chemscore.Lipo.Weighted>
-14.1119

> <Gold.Chemscore.Internal_Hbond.Weighted>
0.0000

> <Gold.Chemscore.DEClash.Weighted>
0.7681

> <Gold.Chemscore.DEInternal.Weighted>
3.6471

> <Gold.Chemscore.Rot.Weighted>
7.3644

> <Gold.Chemscore.Internal.Correction.Weighted>
   9.000000E+99

> <Gold.Protein.RotatedTorsions>
[ 6907 6896 6895 6894 ] final  107.79 input  -60.11 | X-H torsion
[ 7974 7965 7964 7962 ] final  -82.72 input  175.53 | X-H torsion
[ 8008 7997 7996 7995 ] final  -62.15 input   59.86 | X-H torsion
[ 10167 10162 10161 10158 ] final  171.32 input  -65.29 | X-H torsion
[ 10718 10713 10712 10709 ] final  -80.36 input   66.30 | X-H torsion
[ 10763 10752 10751 10750 ] final   79.52 input  -60.55 | X-H torsion
[ 11005 11000 10999 10996 ] final   17.87 input  -57.11 | X-H torsion

> <Gold.Protein.ActiveResidues>
 VAL166  LYS551  ARG553  GLY616  TRP617  ASP618  TYR619  PRO620  LYS621  CYS622 
 ASP623  PHE694  ASN695  SER759  ASP760  ASP761  ALA762  ILE779  LEU786  VAL792 
 PHE793  MET794  SER795  GLU796  ALA797  LYS798  CYS799  TRP800  GLU811  SER814 

> <Gold.Protein.RotatedAtoms>
  152.5139  133.9183  159.7521 H   0  0  0  0  0  0  0  0  0  0  0  0  # atno 6907 bound_to 6896
  150.9560  133.6488  159.2770 H   0  0  0  0  0  0  0  0  0  0  0  0  # atno 6908 bound_to 6896
  151.3750  135.0934  159.9530 H   0  0  0  0  0  0  0  0  0  0  0  0  # atno 6909 bound_to 6896
  145.5295  140.9523  143.1611 H   0  0  0  0  0  0  0  0  0  0  0  0  # atno 7974 bound_to 7965
  154.4485  140.1002  156.6542 H   0  0  0  0  0  0  0  0  0  0  0  0  # atno 8008 bound_to 7997
  155.5364  140.3482  155.4419 H   0  0  0  0  0  0  0  0  0  0  0  0  # atno 8009 bound_to 7997
  156.0628  140.1330  156.9910 H   0  0  0  0  0  0  0  0  0  0  0  0  # atno 8010 bound_to 7997
  139.5043  144.3499  151.9933 H   0  0  0  0  0  0  0  0  0  0  0  0  # atno 10167 bound_to 10162
  156.0072  130.4572  150.3789 H   0  0  0  0  0  0  0  0  0  0  0  0  # atno 10718 bound_to 10713
  153.0959  135.4837  154.8778 H   0  0  0  0  0  0  0  0  0  0  0  0  # atno 10763 bound_to 10752
  154.7324  135.3063  154.8871 H   0  0  0  0  0  0  0  0  0  0  0  0  # atno 10764 bound_to 10752
  153.9503  135.6824  153.4797 H   0  0  0  0  0  0  0  0  0  0  0  0  # atno 10765 bound_to 10752
  140.4311  134.1419  155.7680 H   0  0  0  0  0  0  0  0  0  0  0  0  # atno 11005 bound_to 11000
  144.7633  139.6904  143.7225 LP  0  0  0  0  0  0  0  0  0  0  0  0  # atno 17320 bound_to 7965
  146.2053  139.5374  142.9716 LP  0  0  0  0  0  0  0  0  0  0  0  0  # atno 17321 bound_to 7965
  140.2935  144.3726  150.6081 LP  0  0  0  0  0  0  0  0  0  0  0  0  # atno 17342 bound_to 10162
  140.5928  143.2167  151.7221 LP  0  0  0  0  0  0  0  0  0  0  0  0  # atno 17343 bound_to 10162
  157.1869  131.0406  151.2720 LP  0  0  0  0  0  0  0  0  0  0  0  0  # atno 17370 bound_to 10713
  157.4095  130.7377  149.6828 LP  0  0  0  0  0  0  0  0  0  0  0  0  # atno 17371 bound_to 10713
  141.1745  133.8542  157.1465 LP  0  0  0  0  0  0  0  0  0  0  0  0  # atno 17394 bound_to 11000
  140.0134  134.9978  157.0442 LP  0  0  0  0  0  0  0  0  0  0  0  0  # atno 17395 bound_to 11000

$$$$
