AV-unprocessed.smi:2007|AV-procd|sdf|8136|dock2
  -GOLD-   2272010373D 1   1.00000     0.00000
 Structure written by MMmdl.
 37 38  0  0  0  0  0  0  0  0  2 V2000
  145.8293  142.2155  155.2491 C   0  0  0  0  0  0  0  0  0  0  0  0
  147.1235  141.4001  155.1243 C   0  0  1  0  0  0  0  0  0  0  0  0
  147.3795  140.9815  153.6574 C   0  0  0  0  0  0  0  0  0  0  0  0
  146.5246  139.8515  153.2133 N   0  3  0  0  0  0  0  0  0  0  0  0
  147.0318  139.1663  151.9996 C   0  0  0  0  0  0  0  0  0  0  0  0
  146.0501  138.0666  151.5622 C   0  0  0  0  0  0  0  0  0  0  0  0
  145.8594  137.1472  152.6310 O   0  0  0  0  0  0  0  0  0  0  0  0
  145.3018  137.7736  153.7801 C   0  0  0  0  0  0  0  0  0  0  0  0
  146.2560  138.8681  154.2880 C   0  0  0  0  0  0  0  0  0  0  0  0
  148.2338  142.1890  155.6609 N   0  0  0  0  0  0  0  0  0  0  0  0
  149.1069  141.7878  156.5975 C   0  0  0  0  0  0  0  0  0  0  0  0
  149.0942  140.6632  157.0984 O   0  0  0  0  0  0  0  0  0  0  0  0
  149.9829  142.7621  156.8979 N   0  0  0  0  0  0  0  0  0  0  0  0
  151.0746  142.7096  157.8038 C   0  0  0  0  0  0  0  0  0  0  0  0
  151.4457  141.6129  158.4751 N   0  0  0  0  0  0  0  0  0  0  0  0
  152.5544  141.8489  159.2924 C   0  0  0  0  0  0  0  0  0  0  0  0
  153.0198  143.1386  159.2275 C   0  0  0  0  0  0  0  0  0  0  0  0
  152.0795  144.1140  158.1303 S   0  0  0  0  0  0  0  0  0  0  0  0
  144.9703  141.6436  154.8967 H   0  0  0  0  0  0  0  0  0  0  0  0
  145.8786  143.1348  154.6642 H   0  0  0  0  0  0  0  0  0  0  0  0
  145.6360  142.4905  156.2866 H   0  0  0  0  0  0  0  0  0  0  0  0
  146.9927  140.5073  155.7373 H   0  0  0  0  0  0  0  0  0  0  0  0
  147.2404  141.8286  152.9839 H   0  0  0  0  0  0  0  0  0  0  0  0
  148.4281  140.6935  153.5668 H   0  0  0  0  0  0  0  0  0  0  0  0
  147.1619  139.8789  151.1857 H   0  0  0  0  0  0  0  0  0  0  0  0
  148.0117  138.7318  152.2036 H   0  0  0  0  0  0  0  0  0  0  0  0
  145.0938  138.4960  151.2586 H   0  0  0  0  0  0  0  0  0  0  0  0
  146.4465  137.5297  150.7004 H   0  0  0  0  0  0  0  0  0  0  0  0
  144.3224  138.1915  153.5413 H   0  0  0  0  0  0  0  0  0  0  0  0
  145.1470  137.0211  154.5534 H   0  0  0  0  0  0  0  0  0  0  0  0
  147.1949  138.4246  154.6231 H   0  0  0  0  0  0  0  0  0  0  0  0
  145.8107  139.3694  155.1481 H   0  0  0  0  0  0  0  0  0  0  0  0
  148.3247  143.1310  155.3086 H   0  0  0  0  0  0  0  0  0  0  0  0
  149.8577  143.6438  156.4228 H   0  0  0  0  0  0  0  0  0  0  0  0
  152.9492  141.0393  159.8882 H   0  0  0  0  0  0  0  0  0  0  0  0
  153.8558  143.5719  159.7565 H   0  0  0  0  0  0  0  0  0  0  0  0
  145.6299  140.2524  152.9687 H   0  0  0  0  0  0  0  0  0  0  0  0
  1  2  1  0  0  0  0
  1 19  1  0  0  0  0
  1 20  1  0  0  0  0
  1 21  1  0  0  0  0
  2  3  1  0  0  0  0
  2 10  1  0  0  0  0
  2 22  1  0  0  0  0
  3  4  1  0  0  0  0
  3 23  1  0  0  0  0
  3 24  1  0  0  0  0
  4  9  1  0  0  0  0
  4  5  1  0  0  0  0
  4 37  1  0  0  0  0
  5  6  1  0  0  0  0
  5 25  1  0  0  0  0
  5 26  1  0  0  0  0
  6  7  1  0  0  0  0
  6 27  1  0  0  0  0
  6 28  1  0  0  0  0
  7  8  1  0  0  0  0
  8  9  1  0  0  0  0
  8 29  1  0  0  0  0
  8 30  1  0  0  0  0
  9 31  1  0  0  0  0
  9 32  1  0  0  0  0
 10 11  1  0  0  0  0
 10 33  1  0  0  0  0
 11 12  2  0  0  0  0
 11 13  1  0  0  0  0
 13 14  1  0  0  0  0
 13 34  1  0  0  0  0
 14 18  1  0  0  0  0
 14 15  2  0  0  0  0
 15 16  1  0  0  0  0
 16 17  2  0  0  0  0
 16 35  1  0  0  0  0
 17 18  1  0  0  0  0
 17 36  1  0  0  0  0
M  CHG  1   4   1
M  END
> <s_m_source_file>
AV-unprocessed.smi

> <i_m_source_file_index>
2007

> <i_lp_mmshare_version>
43012

> <i_f3d_flags>
0

> <s_epik_input>
W0NIMl0xW0NIMl1PW0NIMl1bQ0gyXU4xW0NIMl1bQ0BASF0oW0NIM10pW05IXUMoPU8pW05IXWMybltjSF1bY0hdczI=

> <s_epik_cmdline>
J2VwaWtfcHl0aG9uJywgJy1waCcsICc3LjAnLCAnLXRuJywgJzgnLCAnLW1hJywgJzIwMCcsICctbWV0YWxfYmluZGluZycsICctaW1hZScsICc8aW5maWxlLm1hZT4nLCAnLW9tYWUnLCAnPG91dGZpbGUubWFlPic=

> <r_lp_tautomer_probability>
0.999

> <r_epik_Ionization_Penalty>
0.695848

> <r_epik_Ionization_Penalty_Charging>
0.695697

> <r_epik_Ionization_Penalty_Neutral>
0.000150585

> <r_epik_State_Penalty>
0.717972

> <r_epik_Charging_Adjusted_Penalty>
1.41367

> <i_epik_Tot_Q>
1

> <i_epik_Tot_abs_Q>
1

> <r_epik_Metal_State_Penalty>
0.763271

> <b_epik_Metal_Only>
0

> <s_lp_Force_Field>
OPLS_2005

> <r_lp_Energy>
20.6539

> <b_lp_Chiralities_Consistent>
1

> <s_lp_Variant>
AV-unprocessed.smi:2007-4

> <Gold.Version>
5.8.1

> <Gold.Id.Protein>
6NUR|6NUR_protein|mol2

> <Gold.PLP.Fitness>
41.0253

> <Gold.PLP.PLP>
-30.0481

> <Gold.PLP.part.hbond>
-3.0000

> <Gold.PLP.part.metal>
0.0000

> <Gold.PLP.part.buried>
1.2391

> <Gold.PLP.part.nonpolar>
-30.1392

> <Gold.PLP.part.repulsive>
0.3764

> <Gold.PLP.ligand.clash>
0.0000

> <Gold.PLP.ligand.torsion>
0.4382

> <Gold.PLP.Chemscore.Hbond>
3.9440

> <Gold.PLP.Chemscore.CHOScore>
0.0000

> <Gold.PLP.Chemscore.Metal>
0.0000

> <Gold.Chemscore.Hbonds>
donor molecule, donor type, donor heavy atom, donor atom, acceptor molecule, acceptor atom, score
      L1  H     4    37       P1 10175  2.00
      L1  H    10    33       P1  8028  0.93
      L1  H    13    34       P1  8028  1.00

> <Gold.PLP.Chemscore.Internal.Correction>
0.0218

> <Gold.Rescore>
     Score         DG    S(hbond)    S(metal)    S(lipo)     H(rot)  DE(clash)    DE(int)     intcor
     16.48     -19.50       2.87        0.00      73.55       1.63       1.50       1.52       ----

> <Gold.Chemscore.Fitness>
16.4757

> <Gold.Chemscore.DG>
-19.4993

> <Gold.Chemscore.ZeroCoef>
-5.4800

> <Gold.Chemscore.Hbond>
2.8708

> <Gold.Chemscore.Metal>
0.0000

> <Gold.Chemscore.Lipo>
73.5490

> <Gold.Chemscore.Internal_Hbond>
0.0000

> <Gold.Chemscore.DEClash>
1.5011

> <Gold.Chemscore.DEInternal>
1.5225

> <Gold.Chemscore.Rot>
1.6306

> <Gold.Chemscore.Internal.Correction>
   9.000000E+99

> <Gold.Chemscore.Hbonds>
donor molecule, donor type, donor heavy atom, donor atom, acceptor molecule, acceptor atom, score
      L1  H     4    37       P1 10175  0.90
      L1  H    10    33       P1  8028  0.88
      L1  H    13    34       P1  8028  0.95

> <Gold.Chemscore.Hbond.Weighted>
-9.5883

> <Gold.Chemscore.Metal.Weighted>
-0.0000

> <Gold.Chemscore.Lipo.Weighted>
-8.6052

> <Gold.Chemscore.Internal_Hbond.Weighted>
0.0000

> <Gold.Chemscore.DEClash.Weighted>
1.5011

> <Gold.Chemscore.DEInternal.Weighted>
1.5225

> <Gold.Chemscore.Rot.Weighted>
4.1743

> <Gold.Chemscore.Internal.Correction.Weighted>
   9.000000E+99

> <Gold.Protein.RotatedTorsions>
[ 6907 6896 6895 6894 ] final  -90.33 input  -60.11 | X-H torsion
[ 7974 7965 7964 7962 ] final  -73.19 input  175.53 | X-H torsion
[ 8008 7997 7996 7995 ] final  -39.85 input   59.86 | X-H torsion
[ 10167 10162 10161 10158 ] final   18.45 input  -65.29 | X-H torsion
[ 10718 10713 10712 10709 ] final -170.56 input   66.30 | X-H torsion
[ 10763 10752 10751 10750 ] final  130.18 input  -60.55 | X-H torsion
[ 11005 11000 10999 10996 ] final   32.32 input  -57.11 | X-H torsion

> <Gold.Protein.ActiveResidues>
 VAL166  LYS551  ARG553  GLY616  TRP617  ASP618  TYR619  PRO620  LYS621  CYS622 
 ASP623  PHE694  ASN695  SER759  ASP760  ASP761  ALA762  ILE779  LEU786  VAL792 
 PHE793  MET794  SER795  GLU796  ALA797  LYS798  CYS799  TRP800  GLU811  SER814 

> <Gold.Protein.RotatedAtoms>
  150.6881  134.2448  159.4486 H   0  0  0  0  0  0  0  0  0  0  0  0  # atno 6907 bound_to 6896
  152.0390  134.9720  160.0583 H   0  0  0  0  0  0  0  0  0  0  0  0  # atno 6908 bound_to 6896
  152.1230  133.4329  159.4721 H   0  0  0  0  0  0  0  0  0  0  0  0  # atno 6909 bound_to 6896
  145.6554  140.9269  143.0962 H   0  0  0  0  0  0  0  0  0  0  0  0  # atno 7974 bound_to 7965
  154.4018  140.1541  156.2930 H   0  0  0  0  0  0  0  0  0  0  0  0  # atno 8008 bound_to 7997
  155.8768  140.3446  155.5838 H   0  0  0  0  0  0  0  0  0  0  0  0  # atno 8009 bound_to 7997
  155.7712  140.0830  157.2097 H   0  0  0  0  0  0  0  0  0  0  0  0  # atno 8010 bound_to 7997
  140.5652  143.9264  150.6671 H   0  0  0  0  0  0  0  0  0  0  0  0  # atno 10167 bound_to 10162
  156.7280  130.9295  151.3102 H   0  0  0  0  0  0  0  0  0  0  0  0  # atno 10718 bound_to 10713
  153.7538  135.3206  155.3325 H   0  0  0  0  0  0  0  0  0  0  0  0  # atno 10763 bound_to 10752
  154.8254  135.4573  154.0906 H   0  0  0  0  0  0  0  0  0  0  0  0  # atno 10764 bound_to 10752
  153.2116  135.6936  153.8190 H   0  0  0  0  0  0  0  0  0  0  0  0  # atno 10765 bound_to 10752
  140.2747  134.3042  155.7817 H   0  0  0  0  0  0  0  0  0  0  0  0  # atno 11005 bound_to 11000
  144.7107  139.8381  143.7415 LP  0  0  0  0  0  0  0  0  0  0  0  0  # atno 17320 bound_to 7965
  146.1169  139.4181  143.0253 LP  0  0  0  0  0  0  0  0  0  0  0  0  # atno 17321 bound_to 7965
  140.2725  143.3446  152.1225 LP  0  0  0  0  0  0  0  0  0  0  0  0  # atno 17342 bound_to 10162
  139.5089  144.6858  151.5890 LP  0  0  0  0  0  0  0  0  0  0  0  0  # atno 17343 bound_to 10162
  157.6871  130.9196  150.0414 LP  0  0  0  0  0  0  0  0  0  0  0  0  # atno 17370 bound_to 10713
  156.1548  130.3643  149.9384 LP  0  0  0  0  0  0  0  0  0  0  0  0  # atno 17371 bound_to 10713
  141.2172  133.7488  156.9388 LP  0  0  0  0  0  0  0  0  0  0  0  0  # atno 17394 bound_to 11000
  140.1340  134.9337  157.2376 LP  0  0  0  0  0  0  0  0  0  0  0  0  # atno 17395 bound_to 11000

$$$$
