AV-unprocessed.smi:3132|AV-procd|sdf|11934|dock9
  -GOLD-   2272017323D 1   1.00000     0.00000
 Structure written by MMmdl.
 33 34  0  0  0  0  0  0  0  0  1 V2000
  152.6871  139.9963  159.3107 C   0  0  0  0  0  0  0  0  0  0  0  0
  151.9178  141.2805  158.9734 C   0  0  1  0  0  0  0  0  0  0  0  0
  152.7251  142.5372  159.3632 C   0  0  0  0  0  0  0  0  0  0  0  0
  153.0553  142.5764  160.7763 N   0  0  0  0  0  0  0  0  0  0  0  0
  152.5857  143.4781  161.7225 C   0  0  0  0  0  0  0  0  0  0  0  0
  153.1596  143.1233  162.9222 C   0  0  0  0  0  0  0  0  0  0  0  0
  153.9856  142.0172  162.7379 N   0  0  0  0  0  0  0  0  0  0  0  0
  153.8741  141.7513  161.4429 C   0  0  0  0  0  0  0  0  0  0  0  0
  151.6055  141.2847  157.5445 N   0  0  0  0  0  0  0  0  0  0  0  0
  150.3752  141.3459  157.0104 C   0  0  0  0  0  0  0  0  0  0  0  0
  149.3459  141.3758  157.6862 O   0  0  0  0  0  0  0  0  0  0  0  0
  150.3028  141.3866  155.4766 C   0  0  2  0  0  0  0  0  0  0  0  0
  148.8609  141.4352  154.9331 C   0  0  0  0  0  0  0  0  0  0  0  0
  148.7421  140.1926  154.0672 C   0  0  0  0  0  0  0  0  0  0  0  0
  149.8204  139.2793  154.6316 C   0  0  0  0  0  0  0  0  0  0  0  0
  150.8662  140.1850  154.9523 O   0  0  0  0  0  0  0  0  0  0  0  0
  152.9117  139.9423  160.3761 H   0  0  0  0  0  0  0  0  0  0  0  0
  153.6318  139.9439  158.7684 H   0  0  0  0  0  0  0  0  0  0  0  0
  152.1049  139.1108  159.0534 H   0  0  0  0  0  0  0  0  0  0  0  0
  150.9943  141.2627  159.5551 H   0  0  0  0  0  0  0  0  0  0  0  0
  153.6602  142.5711  158.8023 H   0  0  0  0  0  0  0  0  0  0  0  0
  152.1745  143.4432  159.1055 H   0  0  0  0  0  0  0  0  0  0  0  0
  151.8960  144.2706  161.4724 H   0  0  0  0  0  0  0  0  0  0  0  0
  153.0431  143.5755  163.8958 H   0  0  0  0  0  0  0  0  0  0  0  0
  154.3954  140.9325  160.9688 H   0  0  0  0  0  0  0  0  0  0  0  0
  152.3904  141.2559  156.9100 H   0  0  0  0  0  0  0  0  0  0  0  0
  150.8822  142.2298  155.0979 H   0  0  0  0  0  0  0  0  0  0  0  0
  148.1178  141.4092  155.7321 H   0  0  0  0  0  0  0  0  0  0  0  0
  148.6769  142.3400  154.3534 H   0  0  0  0  0  0  0  0  0  0  0  0
  147.7484  139.7444  154.0948 H   0  0  0  0  0  0  0  0  0  0  0  0
  148.9749  140.4398  153.0307 H   0  0  0  0  0  0  0  0  0  0  0  0
  149.4730  138.7749  155.5342 H   0  0  0  0  0  0  0  0  0  0  0  0
  150.1479  138.5222  153.9192 H   0  0  0  0  0  0  0  0  0  0  0  0
  1  2  1  0  0  0  0
  1 17  1  0  0  0  0
  1 18  1  0  0  0  0
  1 19  1  0  0  0  0
  2  3  1  0  0  0  0
  2  9  1  0  0  0  0
  2 20  1  0  0  0  0
  3  4  1  0  0  0  0
  3 21  1  0  0  0  0
  3 22  1  0  0  0  0
  4  8  1  0  0  0  0
  4  5  1  0  0  0  0
  5  6  2  0  0  0  0
  5 23  1  0  0  0  0
  6  7  1  0  0  0  0
  6 24  1  0  0  0  0
  7  8  2  0  0  0  0
  8 25  1  0  0  0  0
  9 10  1  0  0  0  0
  9 26  1  0  0  0  0
 10 11  2  0  0  0  0
 10 12  1  0  0  0  0
 12 16  1  0  0  0  0
 12 13  1  0  0  0  0
 12 27  1  0  0  0  0
 13 14  1  0  0  0  0
 13 28  1  0  0  0  0
 13 29  1  0  0  0  0
 14 15  1  0  0  0  0
 14 30  1  0  0  0  0
 14 31  1  0  0  0  0
 15 16  1  0  0  0  0
 15 32  1  0  0  0  0
 15 33  1  0  0  0  0
M  END
> <s_m_source_file>
AV-unprocessed.smi

> <i_m_source_file_index>
3132

> <i_lp_mmshare_version>
43012

> <i_f3d_flags>
0

> <s_epik_input>
W2NIXTFuW2NIXVtjSF1uMVtDSDJdW0NAQEhdKFtDSDNdKVtOSF1DKD1PKVtDQEBIXTJbQ0gyXVtDSDJdW0NIMl1PMg==

> <s_epik_cmdline>
J2VwaWtfcHl0aG9uJywgJy1waCcsICc3LjAnLCAnLXRuJywgJzgnLCAnLW1hJywgJzIwMCcsICctbWV0YWxfYmluZGluZycsICctaW1hZScsICc8aW5maWxlLm1hZT4nLCAnLW9tYWUnLCAnPG91dGZpbGUubWFlPic=

> <r_lp_tautomer_probability>
1

> <r_epik_Ionization_Penalty>
0.630322

> <r_epik_Ionization_Penalty_Charging>
0.630322

> <r_epik_Ionization_Penalty_Neutral>
3.82652e-08

> <r_epik_State_Penalty>
0.647117

> <r_epik_Charging_Adjusted_Penalty>
1.27744

> <i_epik_Tot_Q>
0

> <i_epik_Tot_abs_Q>
0

> <r_epik_Metal_State_Penalty>
0.309095

> <b_epik_Metal_Only>
0

> <s_lp_Force_Field>
OPLS_2005

> <r_lp_Energy>
20.2845

> <b_lp_Chiralities_Consistent>
1

> <s_lp_Variant>
AV-unprocessed.smi:3132-6

> <Gold.Version>
5.8.1

> <Gold.Id.Protein>
6NUR|6NUR_protein|mol2

> <Gold.PLP.Fitness>
40.9394

> <Gold.PLP.PLP>
-38.0350

> <Gold.PLP.part.hbond>
-2.0000

> <Gold.PLP.part.metal>
0.0000

> <Gold.PLP.part.buried>
-3.6213

> <Gold.PLP.part.nonpolar>
-32.3917

> <Gold.PLP.part.repulsive>
0.2048

> <Gold.PLP.ligand.clash>
0.0000

> <Gold.PLP.ligand.torsion>
0.0562

> <Gold.PLP.Chemscore.Hbond>
1.0000

> <Gold.PLP.Chemscore.CHOScore>
0.0000

> <Gold.PLP.Chemscore.Metal>
0.0000

> <Gold.Chemscore.Hbonds>
donor molecule, donor type, donor heavy atom, donor atom, acceptor molecule, acceptor atom, score
      P1  H  7989  7998       L1    16  0.90

> <Gold.PLP.Chemscore.Internal.Correction>
0.0168

> <Gold.Rescore>
     Score         DG    S(hbond)    S(metal)    S(lipo)     H(rot)  DE(clash)    DE(int)     intcor
     12.17     -12.61       0.74        0.00      80.68       1.86       0.32       0.12       ----

> <Gold.Chemscore.Fitness>
12.1660

> <Gold.Chemscore.DG>
-12.6116

> <Gold.Chemscore.ZeroCoef>
-5.4800

> <Gold.Chemscore.Hbond>
0.7375

> <Gold.Chemscore.Metal>
0.0000

> <Gold.Chemscore.Lipo>
80.6775

> <Gold.Chemscore.Internal_Hbond>
0.0000

> <Gold.Chemscore.DEClash>
0.3215

> <Gold.Chemscore.DEInternal>
0.1241

> <Gold.Chemscore.Rot>
1.8636

> <Gold.Chemscore.Internal.Correction>
   9.000000E+99

> <Gold.Chemscore.Hbonds>
donor molecule, donor type, donor heavy atom, donor atom, acceptor molecule, acceptor atom, score
      P1  H  7989  7998       L1    16  0.15

> <Gold.Chemscore.Hbond.Weighted>
-2.4632

> <Gold.Chemscore.Metal.Weighted>
-0.0000

> <Gold.Chemscore.Lipo.Weighted>
-9.4393

> <Gold.Chemscore.Internal_Hbond.Weighted>
0.0000

> <Gold.Chemscore.DEClash.Weighted>
0.3215

> <Gold.Chemscore.DEInternal.Weighted>
0.1241

> <Gold.Chemscore.Rot.Weighted>
4.7709

> <Gold.Chemscore.Internal.Correction.Weighted>
   9.000000E+99

> <Gold.Protein.RotatedTorsions>
[ 6907 6896 6895 6894 ] final  -97.02 input  -60.11 | X-H torsion
[ 7974 7965 7964 7962 ] final  -88.92 input  175.53 | X-H torsion
[ 8008 7997 7996 7995 ] final -155.58 input   59.86 | X-H torsion
[ 10167 10162 10161 10158 ] final   76.65 input  -65.29 | X-H torsion
[ 10718 10713 10712 10709 ] final  -43.19 input   66.30 | X-H torsion
[ 10763 10752 10751 10750 ] final  -21.69 input  -60.55 | X-H torsion
[ 11005 11000 10999 10996 ] final   31.58 input  -57.11 | X-H torsion

> <Gold.Protein.ActiveResidues>
 VAL166  LYS551  ARG553  GLY616  TRP617  ASP618  TYR619  PRO620  LYS621  CYS622 
 ASP623  PHE694  ASN695  SER759  ASP760  ASP761  ALA762  ILE779  LEU786  VAL792 
 PHE793  MET794  SER795  GLU796  ALA797  LYS798  CYS799  TRP800  GLU811  SER814 

> <Gold.Protein.RotatedAtoms>
  150.7004  134.1413  159.4105 H   0  0  0  0  0  0  0  0  0  0  0  0  # atno 6907 bound_to 6896
  151.9397  135.0216  160.0544 H   0  0  0  0  0  0  0  0  0  0  0  0  # atno 6908 bound_to 6896
  152.2104  133.4872  159.5144 H   0  0  0  0  0  0  0  0  0  0  0  0  # atno 6909 bound_to 6896
  145.4468  140.9560  143.2045 H   0  0  0  0  0  0  0  0  0  0  0  0  # atno 7974 bound_to 7965
  155.7041  140.0770  157.2398 H   0  0  0  0  0  0  0  0  0  0  0  0  # atno 8008 bound_to 7997
  154.4068  140.1642  156.2277 H   0  0  0  0  0  0  0  0  0  0  0  0  # atno 8009 bound_to 7997
  155.9341  140.3389  155.6276 H   0  0  0  0  0  0  0  0  0  0  0  0  # atno 8010 bound_to 7997
  139.9900  144.5764  150.7826 H   0  0  0  0  0  0  0  0  0  0  0  0  # atno 10167 bound_to 10162
  156.2516  130.4188  149.8643 H   0  0  0  0  0  0  0  0  0  0  0  0  # atno 10718 bound_to 10713
  153.6401  135.6985  153.5244 H   0  0  0  0  0  0  0  0  0  0  0  0  # atno 10763 bound_to 10752
  153.2789  135.4192  155.1059 H   0  0  0  0  0  0  0  0  0  0  0  0  # atno 10764 bound_to 10752
  154.8502  135.3597  154.5945 H   0  0  0  0  0  0  0  0  0  0  0  0  # atno 10765 bound_to 10752
  140.2824  134.2957  155.7797 H   0  0  0  0  0  0  0  0  0  0  0  0  # atno 11005 bound_to 11000
  144.8087  139.6003  143.7039 LP  0  0  0  0  0  0  0  0  0  0  0  0  # atno 17320 bound_to 7965
  146.2526  139.6233  142.9416 LP  0  0  0  0  0  0  0  0  0  0  0  0  # atno 17321 bound_to 7965
  140.7458  143.2881  151.3406 LP  0  0  0  0  0  0  0  0  0  0  0  0  # atno 17342 bound_to 10162
  139.6347  144.0653  152.2506 LP  0  0  0  0  0  0  0  0  0  0  0  0  # atno 17343 bound_to 10162
  156.6189  130.8618  151.3471 LP  0  0  0  0  0  0  0  0  0  0  0  0  # atno 17370 bound_to 10713
  157.7217  130.9567  150.1464 LP  0  0  0  0  0  0  0  0  0  0  0  0  # atno 17371 bound_to 10713
  141.2160  133.7534  156.9501 LP  0  0  0  0  0  0  0  0  0  0  0  0  # atno 17394 bound_to 11000
  140.1271  134.9380  157.2284 LP  0  0  0  0  0  0  0  0  0  0  0  0  # atno 17395 bound_to 11000

$$$$
