AV-unprocessed.smi:956|AV-procd|sdf|4264|dock6
  -GOLD-   22720 2173D 1   1.00000     0.00000
 Structure written by MMmdl.
 42 43  0  0  0  0  0  0  0  0  1 V2000
  148.8134  134.4369  156.2551 C   0  0  0  0  0  0  0  0  0  0  0  0
  150.0523  135.7056  156.7979 S   0  0  1  0  0  0  0  0  0  0  0  0
  151.3483  135.4291  156.0337 O   0  0  0  0  0  0  0  0  0  0  0  0
  149.2721  137.0811  155.8825 C   0  0  0  0  0  0  0  0  0  0  0  0
  147.9775  137.3990  155.9776 N   0  0  0  0  0  0  0  0  0  0  0  0
  147.8136  138.4806  155.1329 N   0  0  0  0  0  0  0  0  0  0  0  0
  149.0262  138.6967  154.6188 C   0  0  0  0  0  0  0  0  0  0  0  0
  149.9848  137.8597  155.0472 N   0  0  0  0  0  0  0  0  0  0  0  0
  151.3891  137.8221  154.6791 C   0  0  0  0  0  0  0  0  0  0  0  0
  152.1290  139.0357  155.2407 C   0  0  0  0  0  0  0  0  0  0  0  0
  152.7388  139.7889  154.4823 O   0  0  0  0  0  0  0  0  0  0  0  0
  152.0758  139.2087  156.5692 N   0  0  0  0  0  0  0  0  0  0  0  0
  152.7385  140.2890  157.2850 C   0  0  0  0  0  0  0  0  0  0  0  0
  151.9154  141.5837  157.1883 C   0  0  0  0  0  0  0  0  0  0  0  0
  152.6449  142.8338  157.7226 C   0  0  0  0  0  0  0  0  0  0  0  0
  152.9900  142.6669  159.2176 C   0  0  0  0  0  0  0  0  0  0  0  0
  153.7257  143.8952  159.7775 C   0  0  0  0  0  0  0  0  0  0  0  0
  152.9115  145.1785  159.5578 C   0  0  0  0  0  0  0  0  0  0  0  0
  152.5670  145.3620  158.0724 C   0  0  0  0  0  0  0  0  0  0  0  0
  151.8338  144.1321  157.5117 C   0  0  0  0  0  0  0  0  0  0  0  0
  147.8201  134.8763  156.1610 H   0  0  0  0  0  0  0  0  0  0  0  0
  148.7630  133.6287  156.9840 H   0  0  0  0  0  0  0  0  0  0  0  0
  149.1004  134.0166  155.2911 H   0  0  0  0  0  0  0  0  0  0  0  0
  149.2196  139.4865  153.9079 H   0  0  0  0  0  0  0  0  0  0  0  0
  151.8319  136.9067  155.0739 H   0  0  0  0  0  0  0  0  0  0  0  0
  151.4833  137.7785  153.5935 H   0  0  0  0  0  0  0  0  0  0  0  0
  151.5563  138.5417  157.1213 H   0  0  0  0  0  0  0  0  0  0  0  0
  152.8661  140.0019  158.3297 H   0  0  0  0  0  0  0  0  0  0  0  0
  153.7334  140.4321  156.8626 H   0  0  0  0  0  0  0  0  0  0  0  0
  151.6105  141.7505  156.1543 H   0  0  0  0  0  0  0  0  0  0  0  0
  150.9934  141.4461  157.7558 H   0  0  0  0  0  0  0  0  0  0  0  0
  153.5853  142.9298  157.1776 H   0  0  0  0  0  0  0  0  0  0  0  0
  152.0763  142.5006  159.7899 H   0  0  0  0  0  0  0  0  0  0  0  0
  153.6081  141.7801  159.3620 H   0  0  0  0  0  0  0  0  0  0  0  0
  153.9219  143.7577  160.8411 H   0  0  0  0  0  0  0  0  0  0  0  0
  154.6987  143.9913  159.2939 H   0  0  0  0  0  0  0  0  0  0  0  0
  151.9929  145.1348  160.1442 H   0  0  0  0  0  0  0  0  0  0  0  0
  153.4707  146.0414  159.9206 H   0  0  0  0  0  0  0  0  0  0  0  0
  151.9518  146.2525  157.9415 H   0  0  0  0  0  0  0  0  0  0  0  0
  153.4818  145.5326  157.5035 H   0  0  0  0  0  0  0  0  0  0  0  0
  151.6403  144.2955  156.4519 H   0  0  0  0  0  0  0  0  0  0  0  0
  150.8591  144.0401  157.9925 H   0  0  0  0  0  0  0  0  0  0  0  0
  1  2  1  0  0  0  0
  1 21  1  0  0  0  0
  1 22  1  0  0  0  0
  1 23  1  0  0  0  0
  2  3  2  0  0  0  0
  2  4  1  0  0  0  0
  4  8  1  0  0  0  0
  4  5  2  0  0  0  0
  5  6  1  0  0  0  0
  6  7  2  0  0  0  0
  7  8  1  0  0  0  0
  7 24  1  0  0  0  0
  8  9  1  0  0  0  0
  9 10  1  0  0  0  0
  9 25  1  0  0  0  0
  9 26  1  0  0  0  0
 10 11  2  0  0  0  0
 10 12  1  0  0  0  0
 12 13  1  0  0  0  0
 12 27  1  0  0  0  0
 13 14  1  0  0  0  0
 13 28  1  0  0  0  0
 13 29  1  0  0  0  0
 14 15  1  0  0  0  0
 14 30  1  0  0  0  0
 14 31  1  0  0  0  0
 15 20  1  0  0  0  0
 15 16  1  0  0  0  0
 15 32  1  0  0  0  0
 16 17  1  0  0  0  0
 16 33  1  0  0  0  0
 16 34  1  0  0  0  0
 17 18  1  0  0  0  0
 17 35  1  0  0  0  0
 17 36  1  0  0  0  0
 18 19  1  0  0  0  0
 18 37  1  0  0  0  0
 18 38  1  0  0  0  0
 19 20  1  0  0  0  0
 19 39  1  0  0  0  0
 19 40  1  0  0  0  0
 20 41  1  0  0  0  0
 20 42  1  0  0  0  0
M  END
> <s_m_source_file>
AV-unprocessed.smi

> <i_m_source_file_index>
956

> <i_lp_mmshare_version>
43012

> <i_f3d_flags>
0

> <s_epik_input>
W0NIM11bU0BdKD1PKWMxbm5bY0hdbjFbQ0gyXUMoPU8pW05IXVtDSDJdW0NIMl1bQ0hdMltDSDJdW0NIMl1bQ0gyXVtDSDJdW0NIMl0y

> <s_epik_cmdline>
J2VwaWtfcHl0aG9uJywgJy1waCcsICc3LjAnLCAnLXRuJywgJzgnLCAnLW1hJywgJzIwMCcsICctbWV0YWxfYmluZGluZycsICctaW1hZScsICc8aW5maWxlLm1hZT4nLCAnLW9tYWUnLCAnPG91dGZpbGUubWFlPic=

> <r_lp_tautomer_probability>
1

> <r_epik_Ionization_Penalty>
7.32521e-08

> <r_epik_Ionization_Penalty_Charging>
0

> <r_epik_Ionization_Penalty_Neutral>
7.32521e-08

> <r_epik_State_Penalty>
-0

> <r_epik_Charging_Adjusted_Penalty>
0

> <i_epik_Tot_Q>
0

> <i_epik_Tot_abs_Q>
0

> <r_epik_Metal_State_Penalty>
-0

> <b_epik_Metal_Only>
0

> <s_lp_Force_Field>
OPLS_2005

> <r_lp_Energy>
10.1233

> <b_lp_Chiralities_Consistent>
1

> <s_lp_Variant>
AV-unprocessed.smi:956-2

> <Gold.Version>
5.8.1

> <Gold.Id.Protein>
6NUR|6NUR_protein|mol2

> <Gold.PLP.Fitness>
48.9002

> <Gold.PLP.PLP>
-39.1365

> <Gold.PLP.part.hbond>
-3.0000

> <Gold.PLP.part.metal>
0.0000

> <Gold.PLP.part.buried>
-3.7489

> <Gold.PLP.part.nonpolar>
-32.8891

> <Gold.PLP.part.repulsive>
0.3834

> <Gold.PLP.ligand.clash>
0.0000

> <Gold.PLP.ligand.torsion>
0.8026

> <Gold.PLP.Chemscore.Hbond>
2.4320

> <Gold.PLP.Chemscore.CHOScore>
1.0000

> <Gold.PLP.Chemscore.Metal>
0.0000

> <Gold.Chemscore.Hbonds>
donor molecule, donor type, donor heavy atom, donor atom, acceptor molecule, acceptor atom, score
      P1  H  7989  7998       L1    11  0.42
      P1  H  7997  8009       L1    11  0.28
      P1  H 10752 10763       L1     3  0.88
      L1  C     7    24       P1  7957  0.25

> <Gold.PLP.Chemscore.Internal.Correction>
1.0730

> <Gold.Rescore>
     Score         DG    S(hbond)    S(metal)    S(lipo)     H(rot)  DE(clash)    DE(int)     intcor
     14.12     -16.60       1.88        0.00      90.78       2.26       0.05       2.43       ----

> <Gold.Chemscore.Fitness>
14.1170

> <Gold.Chemscore.DG>
-16.5956

> <Gold.Chemscore.ZeroCoef>
-5.4800

> <Gold.Chemscore.Hbond>
1.8768

> <Gold.Chemscore.Metal>
0.0000

> <Gold.Chemscore.Lipo>
90.7765

> <Gold.Chemscore.Internal_Hbond>
0.0000

> <Gold.Chemscore.DEClash>
0.0461

> <Gold.Chemscore.DEInternal>
2.4325

> <Gold.Chemscore.Rot>
2.2554

> <Gold.Chemscore.Internal.Correction>
   9.000000E+99

> <Gold.Chemscore.Hbonds>
donor molecule, donor type, donor heavy atom, donor atom, acceptor molecule, acceptor atom, score
      P1  H  7989  7998       L1    11  0.38
      P1  H  7997  8009       L1    11  0.03
      P1  H 10752 10763       L1     3  0.81

> <Gold.Chemscore.Hbond.Weighted>
-6.2686

> <Gold.Chemscore.Metal.Weighted>
-0.0000

> <Gold.Chemscore.Lipo.Weighted>
-10.6208

> <Gold.Chemscore.Internal_Hbond.Weighted>
0.0000

> <Gold.Chemscore.DEClash.Weighted>
0.0461

> <Gold.Chemscore.DEInternal.Weighted>
2.4325

> <Gold.Chemscore.Rot.Weighted>
5.7738

> <Gold.Chemscore.Internal.Correction.Weighted>
   9.000000E+99

> <Gold.Protein.RotatedTorsions>
[ 6907 6896 6895 6894 ] final   70.31 input  -60.11 | X-H torsion
[ 7974 7965 7964 7962 ] final   18.74 input  175.53 | X-H torsion
[ 8008 7997 7996 7995 ] final -140.89 input   59.86 | X-H torsion
[ 10167 10162 10161 10158 ] final  165.45 input  -65.29 | X-H torsion
[ 10718 10713 10712 10709 ] final   56.79 input   66.30 | X-H torsion
[ 10763 10752 10751 10750 ] final   66.39 input  -60.55 | X-H torsion
[ 11005 11000 10999 10996 ] final  100.32 input  -57.11 | X-H torsion

> <Gold.Protein.ActiveResidues>
 VAL166  LYS551  ARG553  GLY616  TRP617  ASP618  TYR619  PRO620  LYS621  CYS622 
 ASP623  PHE694  ASN695  SER759  ASP760  ASP761  ALA762  ILE779  LEU786  VAL792 
 PHE793  MET794  SER795  GLU796  ALA797  LYS798  CYS799  TRP800  GLU811  SER814 

> <Gold.Protein.RotatedAtoms>
  152.4741  134.4887  159.9688 H   0  0  0  0  0  0  0  0  0  0  0  0  # atno 6907 bound_to 6896
  151.4907  133.3519  159.2861 H   0  0  0  0  0  0  0  0  0  0  0  0  # atno 6908 bound_to 6896
  150.8769  134.8180  159.7257 H   0  0  0  0  0  0  0  0  0  0  0  0  # atno 6909 bound_to 6896
  146.2174  139.8413  142.8640 H   0  0  0  0  0  0  0  0  0  0  0  0  # atno 7974 bound_to 7965
  155.4687  140.0551  157.2982 H   0  0  0  0  0  0  0  0  0  0  0  0  # atno 8008 bound_to 7997
  154.4707  140.2039  155.9956 H   0  0  0  0  0  0  0  0  0  0  0  0  # atno 8009 bound_to 7997
  156.1051  140.3213  155.7999 H   0  0  0  0  0  0  0  0  0  0  0  0  # atno 8010 bound_to 7997
  139.4906  144.4131  151.9276 H   0  0  0  0  0  0  0  0  0  0  0  0  # atno 10167 bound_to 10162
  157.5461  130.8732  149.8893 H   0  0  0  0  0  0  0  0  0  0  0  0  # atno 10718 bound_to 10713
  153.0138  135.5322  154.6817 H   0  0  0  0  0  0  0  0  0  0  0  0  # atno 10763 bound_to 10752
  154.5975  135.2865  155.0573 H   0  0  0  0  0  0  0  0  0  0  0  0  # atno 10764 bound_to 10752
  154.1642  135.6542  153.5046 H   0  0  0  0  0  0  0  0  0  0  0  0  # atno 10765 bound_to 10752
  139.8771  134.9135  156.4738 H   0  0  0  0  0  0  0  0  0  0  0  0  # atno 11005 bound_to 11000
  145.2896  141.0163  143.3671 LP  0  0  0  0  0  0  0  0  0  0  0  0  # atno 17320 bound_to 7965
  144.9088  139.4555  143.6597 LP  0  0  0  0  0  0  0  0  0  0  0  0  # atno 17321 bound_to 7965
  140.3572  144.3016  150.5939 LP  0  0  0  0  0  0  0  0  0  0  0  0  # atno 17342 bound_to 10162
  140.5434  143.2219  151.8047 LP  0  0  0  0  0  0  0  0  0  0  0  0  # atno 17343 bound_to 10162
  156.0537  130.3712  150.1142 LP  0  0  0  0  0  0  0  0  0  0  0  0  # atno 17370 bound_to 10713
  156.9318  130.9716  151.3531 LP  0  0  0  0  0  0  0  0  0  0  0  0  # atno 17371 bound_to 10713
  140.8776  133.7941  155.9432 LP  0  0  0  0  0  0  0  0  0  0  0  0  # atno 17394 bound_to 11000
  140.8887  134.2522  157.5106 LP  0  0  0  0  0  0  0  0  0  0  0  0  # atno 17395 bound_to 11000

$$$$
