AV-unprocessed.smi:3019|AV-procd|sdf|11493|dock2
  -GOLD-   2272016433D 1   1.00000     0.00000
 Structure written by MMmdl.
 30 31  0  0  0  0  0  0  0  0  3 V2000
  152.6220  143.5933  158.3870 C   0  0  0  0  0  0  0  0  0  0  0  0
  152.2502  142.2176  158.9569 C   0  0  0  0  0  0  0  0  0  0  0  0
  153.3120  141.6549  159.9116 C   0  0  0  0  0  0  0  0  0  0  0  0
  151.9072  141.2312  157.8570 C   0  0  0  0  0  0  0  0  0  0  0  0
  152.5259  140.0585  157.6299 N   0  5  0  0  0  0  0  0  0  0  0  0
  151.9739  139.4532  156.5987 N   0  0  0  0  0  0  0  0  0  0  0  0
  150.9895  140.2685  156.1925 C   0  0  0  0  0  0  0  0  0  0  0  0
  150.0969  140.0048  154.9980 C   0  0  2  0  0  0  0  0  0  0  0  0
  149.3663  141.2894  154.5595 C   0  0  0  0  0  0  0  0  0  0  0  0
  148.4865  141.0107  153.4079 N   0  3  0  0  0  0  0  0  0  0  0  0
  147.5507  139.9065  153.6943 C   0  0  0  0  0  0  0  0  0  0  0  0
  148.3291  138.6640  154.1581 C   0  0  0  0  0  0  0  0  0  0  0  0
  149.1297  138.9964  155.2861 O   0  0  0  0  0  0  0  0  0  0  0  0
  150.9440  141.3729  156.9509 N   0  0  0  0  0  0  0  0  0  0  0  0
  151.8164  143.9910  157.7691 H   0  0  0  0  0  0  0  0  0  0  0  0
  153.5184  143.5353  157.7690 H   0  0  0  0  0  0  0  0  0  0  0  0
  152.8125  144.3106  159.1854 H   0  0  0  0  0  0  0  0  0  0  0  0
  151.3391  142.3527  159.5415 H   0  0  0  0  0  0  0  0  0  0  0  0
  152.9840  140.7120  160.3501 H   0  0  0  0  0  0  0  0  0  0  0  0
  153.5126  142.3484  160.7287 H   0  0  0  0  0  0  0  0  0  0  0  0
  154.2528  141.4713  159.3915 H   0  0  0  0  0  0  0  0  0  0  0  0
  150.7370  139.6518  154.1872 H   0  0  0  0  0  0  0  0  0  0  0  0
  148.7664  141.6842  155.3809 H   0  0  0  0  0  0  0  0  0  0  0  0
  150.0819  142.0644  154.2832 H   0  0  0  0  0  0  0  0  0  0  0  0
  147.9645  141.8439  153.1760 H   0  0  0  0  0  0  0  0  0  0  0  0
  146.8500  140.2223  154.4683 H   0  0  0  0  0  0  0  0  0  0  0  0
  146.9668  139.6842  152.8010 H   0  0  0  0  0  0  0  0  0  0  0  0
  147.6371  137.8694  154.4377 H   0  0  0  0  0  0  0  0  0  0  0  0
  148.9557  138.2726  153.3552 H   0  0  0  0  0  0  0  0  0  0  0  0
  149.0620  140.7510  152.6195 H   0  0  0  0  0  0  0  0  0  0  0  0
  1  2  1  0  0  0  0
  1 15  1  0  0  0  0
  1 16  1  0  0  0  0
  1 17  1  0  0  0  0
  2  3  1  0  0  0  0
  2  4  1  0  0  0  0
  2 18  1  0  0  0  0
  3 19  1  0  0  0  0
  3 20  1  0  0  0  0
  3 21  1  0  0  0  0
  4 14  2  0  0  0  0
  4  5  1  0  0  0  0
  5  6  1  0  0  0  0
  6  7  2  0  0  0  0
  7  8  1  0  0  0  0
  7 14  1  0  0  0  0
  8 13  1  0  0  0  0
  8  9  1  0  0  0  0
  8 22  1  0  0  0  0
  9 10  1  0  0  0  0
  9 23  1  0  0  0  0
  9 24  1  0  0  0  0
 10 11  1  0  0  0  0
 10 25  1  0  0  0  0
 10 30  1  0  0  0  0
 11 12  1  0  0  0  0
 11 26  1  0  0  0  0
 11 27  1  0  0  0  0
 12 13  1  0  0  0  0
 12 28  1  0  0  0  0
 12 29  1  0  0  0  0
M  CHG  1   5  -1
M  CHG  1  10   1
M  END
> <s_m_source_file>
AV-unprocessed.smi

> <i_m_source_file_index>
3019

> <i_lp_mmshare_version>
43012

> <i_f3d_flags>
0

> <s_epik_input>
W0NIM11bQ0hdKFtDSDNdKWMxbltuSF1jKG4xKVtDQEBIXTJbQ0gyXVtOSF1bQ0gyXVtDSDJdTzI=

> <s_epik_cmdline>
J2VwaWtfcHl0aG9uJywgJy1waCcsICc3LjAnLCAnLXRuJywgJzgnLCAnLW1hJywgJzIwMCcsICctbWV0YWxfYmluZGluZycsICctaW1hZScsICc8aW5maWxlLm1hZT4nLCAnLW9tYWUnLCAnPG91dGZpbGUubWFlPic=

> <r_lp_tautomer_probability>
0.948284

> <r_epik_Ionization_Penalty>
5.01189

> <r_epik_Ionization_Penalty_Charging>
5.01189

> <r_epik_Ionization_Penalty_Neutral>
1.51292e-13

> <r_epik_State_Penalty>
2.75157

> <r_epik_Charging_Adjusted_Penalty>
7.76346

> <i_epik_Tot_Q>
0

> <i_epik_Tot_abs_Q>
2

> <r_epik_Metal_State_Penalty>
0.54282

> <b_epik_Metal_Only>
1

> <s_lp_Force_Field>
OPLS_2005

> <r_lp_Energy>
3.44279

> <b_lp_Chiralities_Consistent>
1

> <s_lp_Variant>
AV-unprocessed.smi:3019-9

> <Gold.Version>
5.8.1

> <Gold.Id.Protein>
6NUR|6NUR_protein|mol2

> <Gold.PLP.Fitness>
34.1196

> <Gold.PLP.PLP>
-25.8640

> <Gold.PLP.part.hbond>
-2.0000

> <Gold.PLP.part.metal>
0.0000

> <Gold.PLP.part.buried>
-3.2949

> <Gold.PLP.part.nonpolar>
-21.1279

> <Gold.PLP.part.repulsive>
0.3104

> <Gold.PLP.ligand.clash>
0.0000

> <Gold.PLP.ligand.torsion>
0.3844

> <Gold.PLP.Chemscore.Hbond>
2.9840

> <Gold.PLP.Chemscore.CHOScore>
0.0000

> <Gold.PLP.Chemscore.Metal>
0.0000

> <Gold.Chemscore.Hbonds>
donor molecule, donor type, donor heavy atom, donor atom, acceptor molecule, acceptor atom, score
      L1  H    10    30       P1  7957  1.00
      P1  H  7997  8009       L1     5  1.38

> <Gold.PLP.Chemscore.Internal.Correction>
0.0725

> <Gold.Rescore>
     Score         DG    S(hbond)    S(metal)    S(lipo)     H(rot)  DE(clash)    DE(int)     intcor
     14.24     -14.61       1.59        0.00      60.31       1.26       0.18       0.19       ----

> <Gold.Chemscore.Fitness>
14.2437

> <Gold.Chemscore.DG>
-14.6142

> <Gold.Chemscore.ZeroCoef>
-5.4800

> <Gold.Chemscore.Hbond>
1.5898

> <Gold.Chemscore.Metal>
0.0000

> <Gold.Chemscore.Lipo>
60.3107

> <Gold.Chemscore.Internal_Hbond>
0.0000

> <Gold.Chemscore.DEClash>
0.1794

> <Gold.Chemscore.DEInternal>
0.1911

> <Gold.Chemscore.Rot>
1.2625

> <Gold.Chemscore.Internal.Correction>
   9.000000E+99

> <Gold.Chemscore.Hbonds>
donor molecule, donor type, donor heavy atom, donor atom, acceptor molecule, acceptor atom, score
      L1  H    10    30       P1  7957  1.00
      P1  H  7997  8009       L1     5  0.09

> <Gold.Chemscore.Hbond.Weighted>
-5.3098

> <Gold.Chemscore.Metal.Weighted>
-0.0000

> <Gold.Chemscore.Lipo.Weighted>
-7.0564

> <Gold.Chemscore.Internal_Hbond.Weighted>
0.0000

> <Gold.Chemscore.DEClash.Weighted>
0.1794

> <Gold.Chemscore.DEInternal.Weighted>
0.1911

> <Gold.Chemscore.Rot.Weighted>
3.2320

> <Gold.Chemscore.Internal.Correction.Weighted>
   9.000000E+99

> <Gold.Protein.RotatedTorsions>
[ 6907 6896 6895 6894 ] final  179.20 input  -60.11 | X-H torsion
[ 7974 7965 7964 7962 ] final   48.69 input  175.53 | X-H torsion
[ 8008 7997 7996 7995 ] final  166.28 input   59.86 | X-H torsion
[ 10167 10162 10161 10158 ] final    6.63 input  -65.29 | X-H torsion
[ 10718 10713 10712 10709 ] final  -96.76 input   66.30 | X-H torsion
[ 10763 10752 10751 10750 ] final  122.24 input  -60.55 | X-H torsion
[ 11005 11000 10999 10996 ] final   72.06 input  -57.11 | X-H torsion

> <Gold.Protein.ActiveResidues>
 VAL166  LYS551  ARG553  GLY616  TRP617  ASP618  TYR619  PRO620  LYS621  CYS622 
 ASP623  PHE694  ASN695  SER759  ASP760  ASP761  ALA762  ILE779  LEU786  VAL792 
 PHE793  MET794  SER795  GLU796  ALA797  LYS798  CYS799  TRP800  GLU811  SER814 

> <Gold.Protein.RotatedAtoms>
  151.6755  133.3313  159.3206 H   0  0  0  0  0  0  0  0  0  0  0  0  # atno 6907 bound_to 6896
  150.7847  134.6826  159.6462 H   0  0  0  0  0  0  0  0  0  0  0  0  # atno 6908 bound_to 6896
  152.3914  134.6438  160.0158 H   0  0  0  0  0  0  0  0  0  0  0  0  # atno 6909 bound_to 6896
  146.0180  139.4619  142.9914 H   0  0  0  0  0  0  0  0  0  0  0  0  # atno 7974 bound_to 7965
  156.1731  140.1647  156.8411 H   0  0  0  0  0  0  0  0  0  0  0  0  # atno 8008 bound_to 7997
  154.5278  140.0763  156.8324 H   0  0  0  0  0  0  0  0  0  0  0  0  # atno 8009 bound_to 7997
  155.3470  140.3388  155.4241 H   0  0  0  0  0  0  0  0  0  0  0  0  # atno 8010 bound_to 7997
  140.6417  143.7758  150.7438 H   0  0  0  0  0  0  0  0  0  0  0  0  # atno 10167 bound_to 10162
  156.0069  130.5165  150.6274 H   0  0  0  0  0  0  0  0  0  0  0  0  # atno 10718 bound_to 10713
  153.6266  135.3403  155.3028 H   0  0  0  0  0  0  0  0  0  0  0  0  # atno 10763 bound_to 10752
  154.8589  135.4285  154.2150 H   0  0  0  0  0  0  0  0  0  0  0  0  # atno 10764 bound_to 10752
  153.3036  135.7026  153.7253 H   0  0  0  0  0  0  0  0  0  0  0  0  # atno 10765 bound_to 10752
  139.9510  134.7226  156.0862 H   0  0  0  0  0  0  0  0  0  0  0  0  # atno 11005 bound_to 11000
  145.7237  141.0066  143.1388 LP  0  0  0  0  0  0  0  0  0  0  0  0  # atno 17320 bound_to 7965
  144.6979  139.8901  143.7452 LP  0  0  0  0  0  0  0  0  0  0  0  0  # atno 17321 bound_to 7965
  140.1391  143.4457  152.2205 LP  0  0  0  0  0  0  0  0  0  0  0  0  # atno 17342 bound_to 10162
  139.5626  144.7415  151.4111 LP  0  0  0  0  0  0  0  0  0  0  0  0  # atno 17343 bound_to 10162
  157.4079  131.0819  151.1248 LP  0  0  0  0  0  0  0  0  0  0  0  0  # atno 17370 bound_to 10713
  157.1889  130.6343  149.5697 LP  0  0  0  0  0  0  0  0  0  0  0  0  # atno 17371 bound_to 10713
  141.1173  133.6624  156.3126 LP  0  0  0  0  0  0  0  0  0  0  0  0  # atno 17394 bound_to 11000
  140.5718  134.5832  157.5459 LP  0  0  0  0  0  0  0  0  0  0  0  0  # atno 17395 bound_to 11000

$$$$
