AV-unprocessed.smi:1311|AV-procd|sdf|5446|dock4
  -GOLD-   22720 5 13D 1   1.00000     0.00000
 Structure written by MMmdl.
 46 47  0  0  0  0  0  0  0  0  2 V2000
  149.1810  132.5778  154.5613 C   0  0  0  0  0  0  0  0  0  0  0  0
  149.1559  134.1083  154.7041 C   0  0  0  0  0  0  0  0  0  0  0  0
  147.7398  134.7443  154.6468 C   0  0  2  0  0  0  0  0  0  0  0  0
  146.7376  134.0617  155.6161 C   0  0  0  0  0  0  0  0  0  0  0  0
  147.3343  133.7618  156.9155 N   0  0  0  0  0  0  0  0  0  0  0  0
  147.0787  134.4047  158.0657 C   0  0  0  0  0  0  0  0  0  0  0  0
  146.2860  135.3408  158.1619 O   0  0  0  0  0  0  0  0  0  0  0  0
  147.8378  133.9186  159.3001 C   0  0  0  0  0  0  0  0  0  0  0  0
  147.6954  134.9262  160.4106 C   0  0  0  0  0  0  0  0  0  0  0  0
  148.0751  136.2992  160.4010 C   0  0  0  0  0  0  0  0  0  0  0  0
  148.7079  137.0836  159.2875 C   0  0  0  0  0  0  0  0  0  0  0  0
  147.8047  136.8945  161.5507 N   0  0  0  0  0  0  0  0  0  0  0  0
  147.2298  135.9135  162.3641 O   0  0  0  0  0  0  0  0  0  0  0  0
  147.1753  134.7522  161.6635 C   0  0  0  0  0  0  0  0  0  0  0  0
  146.5895  133.5726  162.3630 C   0  0  0  0  0  0  0  0  0  0  0  0
  147.2247  134.7804  153.2454 N   0  3  0  0  0  0  0  0  0  0  0  0
  147.1139  133.4735  152.5609 C   0  0  0  0  0  0  0  0  0  0  0  0
  146.1468  133.7115  151.4072 C   0  0  0  0  0  0  0  0  0  0  0  0
  145.1332  134.6796  152.0051 C   0  0  0  0  0  0  0  0  0  0  0  0
  145.9175  135.4636  153.0663 C   0  0  0  0  0  0  0  0  0  0  0  0
  150.2037  132.2052  154.6208 H   0  0  0  0  0  0  0  0  0  0  0  0
  148.7724  132.2573  153.6031 H   0  0  0  0  0  0  0  0  0  0  0  0
  148.6108  132.0867  155.3485 H   0  0  0  0  0  0  0  0  0  0  0  0
  149.6459  134.3810  155.6387 H   0  0  0  0  0  0  0  0  0  0  0  0
  149.7913  134.5379  153.9301 H   0  0  0  0  0  0  0  0  0  0  0  0
  147.8382  135.7813  154.9724 H   0  0  0  0  0  0  0  0  0  0  0  0
  145.8968  134.7223  155.8249 H   0  0  0  0  0  0  0  0  0  0  0  0
  146.3086  133.1693  155.1580 H   0  0  0  0  0  0  0  0  0  0  0  0
  148.0067  133.0087  156.9421 H   0  0  0  0  0  0  0  0  0  0  0  0
  147.4415  132.9460  159.5936 H   0  0  0  0  0  0  0  0  0  0  0  0
  148.8855  133.7517  159.0459 H   0  0  0  0  0  0  0  0  0  0  0  0
  148.0219  137.1865  158.4466 H   0  0  0  0  0  0  0  0  0  0  0  0
  149.6067  136.5867  158.9227 H   0  0  0  0  0  0  0  0  0  0  0  0
  148.9925  138.0864  159.6083 H   0  0  0  0  0  0  0  0  0  0  0  0
  147.2893  132.7373  162.3632 H   0  0  0  0  0  0  0  0  0  0  0  0
  145.6745  133.2476  161.8682 H   0  0  0  0  0  0  0  0  0  0  0  0
  146.3473  133.8091  163.3993 H   0  0  0  0  0  0  0  0  0  0  0  0
  148.0812  133.1113  152.2116 H   0  0  0  0  0  0  0  0  0  0  0  0
  146.6951  132.7327  153.2443 H   0  0  0  0  0  0  0  0  0  0  0  0
  146.6693  134.1870  150.5761 H   0  0  0  0  0  0  0  0  0  0  0  0
  145.6908  132.7924  151.0381 H   0  0  0  0  0  0  0  0  0  0  0  0
  144.6817  135.3270  151.2528 H   0  0  0  0  0  0  0  0  0  0  0  0
  144.3298  134.1186  152.4839 H   0  0  0  0  0  0  0  0  0  0  0  0
  145.3445  135.4924  153.9940 H   0  0  0  0  0  0  0  0  0  0  0  0
  146.0917  136.4929  152.7510 H   0  0  0  0  0  0  0  0  0  0  0  0
  147.8905  135.3136  152.7041 H   0  0  0  0  0  0  0  0  0  0  0  0
  1  2  1  0  0  0  0
  1 21  1  0  0  0  0
  1 22  1  0  0  0  0
  1 23  1  0  0  0  0
  2  3  1  0  0  0  0
  2 24  1  0  0  0  0
  2 25  1  0  0  0  0
  3  4  1  0  0  0  0
  3 16  1  0  0  0  0
  3 26  1  0  0  0  0
  4  5  1  0  0  0  0
  4 27  1  0  0  0  0
  4 28  1  0  0  0  0
  5  6  1  0  0  0  0
  5 29  1  0  0  0  0
  6  7  2  0  0  0  0
  6  8  1  0  0  0  0
  8  9  1  0  0  0  0
  8 30  1  0  0  0  0
  8 31  1  0  0  0  0
  9 14  2  0  0  0  0
  9 10  1  0  0  0  0
 10 11  1  0  0  0  0
 10 12  2  0  0  0  0
 11 32  1  0  0  0  0
 11 33  1  0  0  0  0
 11 34  1  0  0  0  0
 12 13  1  0  0  0  0
 13 14  1  0  0  0  0
 14 15  1  0  0  0  0
 15 35  1  0  0  0  0
 15 36  1  0  0  0  0
 15 37  1  0  0  0  0
 16 20  1  0  0  0  0
 16 17  1  0  0  0  0
 16 46  1  0  0  0  0
 17 18  1  0  0  0  0
 17 38  1  0  0  0  0
 17 39  1  0  0  0  0
 18 19  1  0  0  0  0
 18 40  1  0  0  0  0
 18 41  1  0  0  0  0
 19 20  1  0  0  0  0
 19 42  1  0  0  0  0
 19 43  1  0  0  0  0
 20 44  1  0  0  0  0
 20 45  1  0  0  0  0
M  CHG  1  16   1
M  END
> <s_m_source_file>
AV-unprocessed.smi

> <i_m_source_file_index>
1311

> <i_lp_mmshare_version>
43012

> <i_f3d_flags>
0

> <s_epik_input>
W0NIMl0xW0NIMl1bQ0gyXVtDSDJdTjFbQ0BIXShbQ0gyXVtDSDNdKVtDSDJdW05IXUMoPU8pW0NIMl1jMmMoW0NIM10pbm9jMltDSDNd

> <s_epik_cmdline>
J2VwaWtfcHl0aG9uJywgJy1waCcsICc3LjAnLCAnLXRuJywgJzgnLCAnLW1hJywgJzIwMCcsICctbWV0YWxfYmluZGluZycsICctaW1hZScsICc8aW5maWxlLm1hZT4nLCAnLW9tYWUnLCAnPG91dGZpbGUubWFlPic=

> <r_epik_Ionization_Penalty>
0.00366311

> <r_epik_Ionization_Penalty_Charging>
0.00366302

> <r_epik_Ionization_Penalty_Neutral>
9.25085e-08

> <r_epik_State_Penalty>
0.00260703

> <r_epik_Charging_Adjusted_Penalty>
0.00627005

> <i_epik_Tot_Q>
1

> <i_epik_Tot_abs_Q>
1

> <r_epik_Metal_State_Penalty>
-0

> <b_epik_Metal_Only>
0

> <s_lp_Force_Field>
OPLS_2005

> <r_lp_Energy>
28.3188

> <b_lp_Chiralities_Consistent>
1

> <s_lp_Variant>
AV-unprocessed.smi:1311-1

> <Gold.Version>
5.8.1

> <Gold.Id.Protein>
6NUR|6NUR_protein|mol2

> <Gold.PLP.Fitness>
41.4629

> <Gold.PLP.PLP>
-30.7478

> <Gold.PLP.part.hbond>
-3.0000

> <Gold.PLP.part.metal>
0.0000

> <Gold.PLP.part.buried>
-3.7081

> <Gold.PLP.part.nonpolar>
-24.0427

> <Gold.PLP.part.repulsive>
0.0068

> <Gold.PLP.ligand.clash>
0.0000

> <Gold.PLP.ligand.torsion>
0.4492

> <Gold.PLP.Chemscore.Hbond>
3.8080

> <Gold.PLP.Chemscore.CHOScore>
0.0000

> <Gold.PLP.Chemscore.Metal>
0.0000

> <Gold.Chemscore.Hbonds>
donor molecule, donor type, donor heavy atom, donor atom, acceptor molecule, acceptor atom, score
      L1  H    16    46       P1  7948  2.00
      P1  H  6931  6943       L1    12  1.00
      P1  H  6934  6947       L1    12  0.26

> <Gold.PLP.Chemscore.Internal.Correction>
0.1896

> <Gold.Rescore>
     Score         DG    S(hbond)    S(metal)    S(lipo)     H(rot)  DE(clash)    DE(int)     intcor
     16.33     -16.72       2.54        0.00      63.09       1.80       0.04       0.35       ----

> <Gold.Chemscore.Fitness>
16.3321

> <Gold.Chemscore.DG>
-16.7229

> <Gold.Chemscore.ZeroCoef>
-5.4800

> <Gold.Chemscore.Hbond>
2.5360

> <Gold.Chemscore.Metal>
0.0000

> <Gold.Chemscore.Lipo>
63.0919

> <Gold.Chemscore.Internal_Hbond>
0.0000

> <Gold.Chemscore.DEClash>
0.0436

> <Gold.Chemscore.DEInternal>
0.3473

> <Gold.Chemscore.Rot>
1.8004

> <Gold.Chemscore.Internal.Correction>
   9.000000E+99

> <Gold.Chemscore.Hbonds>
donor molecule, donor type, donor heavy atom, donor atom, acceptor molecule, acceptor atom, score
      L1  H    16    46       P1  7948  0.99
      P1  H  6931  6943       L1    12  0.78
      P1  H  6934  6947       L1    12  0.11

> <Gold.Chemscore.Hbond.Weighted>
-8.4701

> <Gold.Chemscore.Metal.Weighted>
-0.0000

> <Gold.Chemscore.Lipo.Weighted>
-7.3817

> <Gold.Chemscore.Internal_Hbond.Weighted>
0.0000

> <Gold.Chemscore.DEClash.Weighted>
0.0436

> <Gold.Chemscore.DEInternal.Weighted>
0.3473

> <Gold.Chemscore.Rot.Weighted>
4.6090

> <Gold.Chemscore.Internal.Correction.Weighted>
   9.000000E+99

> <Gold.Protein.RotatedTorsions>
[ 6907 6896 6895 6894 ] final   -4.12 input  -60.11 | X-H torsion
[ 7974 7965 7964 7962 ] final   30.99 input  175.53 | X-H torsion
[ 8008 7997 7996 7995 ] final  140.04 input   59.86 | X-H torsion
[ 10167 10162 10161 10158 ] final    8.12 input  -65.29 | X-H torsion
[ 10718 10713 10712 10709 ] final -131.60 input   66.30 | X-H torsion
[ 10763 10752 10751 10750 ] final  -57.86 input  -60.55 | X-H torsion
[ 11005 11000 10999 10996 ] final  165.91 input  -57.11 | X-H torsion

> <Gold.Protein.ActiveResidues>
 VAL166  LYS551  ARG553  GLY616  TRP617  ASP618  TYR619  PRO620  LYS621  CYS622 
 ASP623  PHE694  ASN695  SER759  ASP760  ASP761  ALA762  ILE779  LEU786  VAL792 
 PHE793  MET794  SER795  GLU796  ALA797  LYS798  CYS799  TRP800  GLU811  SER814 

> <Gold.Protein.RotatedAtoms>
  151.5027  135.1062  159.9832 H   0  0  0  0  0  0  0  0  0  0  0  0  # atno 6907 bound_to 6896
  152.4695  133.7993  159.6955 H   0  0  0  0  0  0  0  0  0  0  0  0  # atno 6908 bound_to 6896
  150.8696  133.7462  159.2991 H   0  0  0  0  0  0  0  0  0  0  0  0  # atno 6909 bound_to 6896
  146.1578  139.6716  142.9054 H   0  0  0  0  0  0  0  0  0  0  0  0  # atno 7974 bound_to 7965
  156.2983  140.2352  156.4337 H   0  0  0  0  0  0  0  0  0  0  0  0  # atno 8008 bound_to 7997
  154.8248  140.0436  157.1456 H   0  0  0  0  0  0  0  0  0  0  0  0  # atno 8009 bound_to 7997
  154.9274  140.3012  155.5188 H   0  0  0  0  0  0  0  0  0  0  0  0  # atno 8010 bound_to 7997
  140.6332  143.7945  150.7324 H   0  0  0  0  0  0  0  0  0  0  0  0  # atno 10167 bound_to 10162
  156.2260  130.7008  151.0807 H   0  0  0  0  0  0  0  0  0  0  0  0  # atno 10718 bound_to 10713
  154.2291  135.6364  153.5169 H   0  0  0  0  0  0  0  0  0  0  0  0  # atno 10763 bound_to 10752
  152.9953  135.5515  154.6032 H   0  0  0  0  0  0  0  0  0  0  0  0  # atno 10764 bound_to 10752
  154.5511  135.2901  155.0982 H   0  0  0  0  0  0  0  0  0  0  0  0  # atno 10765 bound_to 10752
  140.2610  134.7902  157.3590 H   0  0  0  0  0  0  0  0  0  0  0  0  # atno 11005 bound_to 11000
  145.4665  141.0435  143.2722 LP  0  0  0  0  0  0  0  0  0  0  0  0  # atno 17320 bound_to 7965
  144.7986  139.6185  143.7081 LP  0  0  0  0  0  0  0  0  0  0  0  0  # atno 17321 bound_to 7965
  140.1561  143.4315  152.2098 LP  0  0  0  0  0  0  0  0  0  0  0  0  # atno 17342 bound_to 10162
  139.5544  144.7362  151.4337 LP  0  0  0  0  0  0  0  0  0  0  0  0  # atno 17343 bound_to 10162
  157.7110  131.0734  150.6498 LP  0  0  0  0  0  0  0  0  0  0  0  0  # atno 17370 bound_to 10713
  156.6564  130.4499  149.5702 LP  0  0  0  0  0  0  0  0  0  0  0  0  # atno 17371 bound_to 10713
  140.1465  134.4905  155.7993 LP  0  0  0  0  0  0  0  0  0  0  0  0  # atno 17394 bound_to 11000
  141.2190  133.6845  156.7302 LP  0  0  0  0  0  0  0  0  0  0  0  0  # atno 17395 bound_to 11000

$$$$
