AV-unprocessed.smi:2880|AV-procd|sdf|11053|dock9
  -GOLD-   2272015523D 1   1.00000     0.00000
 Structure written by MMmdl.
 47 48  0  0  0  0  0  0  0  0  1 V2000
  144.1131  131.2062  150.7686 C   0  0  0  0  0  0  0  0  0  0  0  0
  144.6828  132.3897  149.9628 C   0  0  0  0  0  0  0  0  0  0  0  0
  146.0662  131.9819  149.4023 C   0  0  0  0  0  0  0  0  0  0  0  0
  143.7508  132.7097  148.7777 C   0  0  0  0  0  0  0  0  0  0  0  0
  144.7629  133.5666  150.8385 N   0  0  0  0  0  0  0  0  0  0  0  0
  143.7169  134.2816  151.3977 C   0  0  0  0  0  0  0  0  0  0  0  0
  144.2465  135.2937  152.1462 C   0  0  0  0  0  0  0  0  0  0  0  0
  145.6464  135.1176  151.9849 C   0  0  0  0  0  0  0  0  0  0  0  0
  146.5644  135.9923  152.6200 N   0  0  0  0  0  0  0  0  0  0  0  0
  146.3624  136.7337  153.7226 C   0  0  0  0  0  0  0  0  0  0  0  0
  145.3104  136.7826  154.3606 O   0  0  0  0  0  0  0  0  0  0  0  0
  147.4677  137.4194  154.0500 N   0  0  0  0  0  0  0  0  0  0  0  0
  147.6253  138.3084  155.2036 C   0  0  2  0  0  0  0  0  0  0  0  0
  146.7134  139.5421  155.0464 C   0  0  0  0  0  0  0  0  0  0  0  0
  147.1911  140.4805  153.9252 C   0  0  0  0  0  0  0  0  0  0  0  0
  148.6547  140.8950  154.1349 C   0  0  0  0  0  0  0  0  0  0  0  0
  149.5706  139.6681  154.2692 C   0  0  0  0  0  0  0  0  0  0  0  0
  149.1070  138.7285  155.4031 C   0  0  2  0  0  0  0  0  0  0  0  0
  150.0750  137.5370  155.5645 C   0  0  0  0  0  0  0  0  0  0  0  0
  150.1698  136.7991  154.3643 O   0  0  0  0  0  0  0  0  0  0  0  0
  145.9565  134.0905  151.2086 N   0  0  0  0  0  0  0  0  0  0  0  0
  144.0447  130.3063  150.1567 H   0  0  0  0  0  0  0  0  0  0  0  0
  143.1121  131.4178  151.1460 H   0  0  0  0  0  0  0  0  0  0  0  0
  144.7445  130.9726  151.6266 H   0  0  0  0  0  0  0  0  0  0  0  0
  146.7653  131.7274  150.2001 H   0  0  0  0  0  0  0  0  0  0  0  0
  146.5123  132.7817  148.8096 H   0  0  0  0  0  0  0  0  0  0  0  0
  145.9867  131.1081  148.7547 H   0  0  0  0  0  0  0  0  0  0  0  0
  143.6731  131.8629  148.0951 H   0  0  0  0  0  0  0  0  0  0  0  0
  144.1203  133.5607  148.2040 H   0  0  0  0  0  0  0  0  0  0  0  0
  142.7406  132.9512  149.1097 H   0  0  0  0  0  0  0  0  0  0  0  0
  142.6866  134.0125  151.2176 H   0  0  0  0  0  0  0  0  0  0  0  0
  143.7145  136.0399  152.7172 H   0  0  0  0  0  0  0  0  0  0  0  0
  147.4787  136.0490  152.1968 H   0  0  0  0  0  0  0  0  0  0  0  0
  148.2779  137.3112  153.4580 H   0  0  0  0  0  0  0  0  0  0  0  0
  147.3003  137.7888  156.1065 H   0  0  0  0  0  0  0  0  0  0  0  0
  145.6849  139.2303  154.8599 H   0  0  0  0  0  0  0  0  0  0  0  0
  146.6952  140.0940  155.9871 H   0  0  0  0  0  0  0  0  0  0  0  0
  147.0842  139.9873  152.9584 H   0  0  0  0  0  0  0  0  0  0  0  0
  146.5568  141.3665  153.8893 H   0  0  0  0  0  0  0  0  0  0  0  0
  148.9870  141.5182  153.3043 H   0  0  0  0  0  0  0  0  0  0  0  0
  148.7348  141.5095  155.0325 H   0  0  0  0  0  0  0  0  0  0  0  0
  149.5972  139.1260  153.3229 H   0  0  0  0  0  0  0  0  0  0  0  0
  150.5914  140.0019  154.4582 H   0  0  0  0  0  0  0  0  0  0  0  0
  149.1566  139.3055  156.3284 H   0  0  0  0  0  0  0  0  0  0  0  0
  151.0694  137.8670  155.8657 H   0  0  0  0  0  0  0  0  0  0  0  0
  149.7172  136.8642  156.3443 H   0  0  0  0  0  0  0  0  0  0  0  0
  149.5136  137.1163  153.7627 H   0  0  0  0  0  0  0  0  0  0  0  0
  1  2  1  0  0  0  0
  1 22  1  0  0  0  0
  1 23  1  0  0  0  0
  1 24  1  0  0  0  0
  2  3  1  0  0  0  0
  2  4  1  0  0  0  0
  2  5  1  0  0  0  0
  3 25  1  0  0  0  0
  3 26  1  0  0  0  0
  3 27  1  0  0  0  0
  4 28  1  0  0  0  0
  4 29  1  0  0  0  0
  4 30  1  0  0  0  0
  5 21  1  0  0  0  0
  5  6  1  0  0  0  0
  6  7  2  0  0  0  0
  6 31  1  0  0  0  0
  7  8  1  0  0  0  0
  7 32  1  0  0  0  0
  8  9  1  0  0  0  0
  8 21  2  0  0  0  0
  9 10  1  0  0  0  0
  9 33  1  0  0  0  0
 10 11  2  0  0  0  0
 10 12  1  0  0  0  0
 12 13  1  0  0  0  0
 12 34  1  0  0  0  0
 13 18  1  0  0  0  0
 13 14  1  0  0  0  0
 13 35  1  0  0  0  0
 14 15  1  0  0  0  0
 14 36  1  0  0  0  0
 14 37  1  0  0  0  0
 15 16  1  0  0  0  0
 15 38  1  0  0  0  0
 15 39  1  0  0  0  0
 16 17  1  0  0  0  0
 16 40  1  0  0  0  0
 16 41  1  0  0  0  0
 17 18  1  0  0  0  0
 17 42  1  0  0  0  0
 17 43  1  0  0  0  0
 18 19  1  0  0  0  0
 18 44  1  0  0  0  0
 19 20  1  0  0  0  0
 19 45  1  0  0  0  0
 19 46  1  0  0  0  0
 20 47  1  0  0  0  0
M  END
> <s_m_source_file>
AV-unprocessed.smi

> <i_m_source_file_index>
2880

> <i_lp_mmshare_version>
43012

> <i_f3d_flags>
0

> <s_epik_input>
W0NIM11DKFtDSDNdKShbQ0gzXSluMVtjSF1bY0hdYyhuMSlbTkhdQyg9TylbTkhdW0NAQEhdMltDSDJdW0NIMl1bQ0gyXVtDSDJdW0NASF0yW0NIMl1bT0hd

> <s_epik_cmdline>
J2VwaWtfcHl0aG9uJywgJy1waCcsICc3LjAnLCAnLXRuJywgJzgnLCAnLW1hJywgJzIwMCcsICctbWV0YWxfYmluZGluZycsICctaW1hZScsICc8aW5maWxlLm1hZT4nLCAnLW9tYWUnLCAnPG91dGZpbGUubWFlPic=

> <r_lp_tautomer_probability>
1

> <r_epik_Ionization_Penalty>
3.89283e-05

> <r_epik_Ionization_Penalty_Charging>
0

> <r_epik_Ionization_Penalty_Neutral>
3.89283e-05

> <r_epik_State_Penalty>
-0

> <r_epik_Charging_Adjusted_Penalty>
0

> <i_epik_Tot_Q>
0

> <i_epik_Tot_abs_Q>
0

> <r_epik_Metal_State_Penalty>
-0

> <b_epik_Metal_Only>
0

> <s_lp_Force_Field>
OPLS_2005

> <r_lp_Energy>
20.6401

> <b_lp_Chiralities_Consistent>
1

> <s_lp_Variant>
AV-unprocessed.smi:2880-3

> <Gold.Version>
5.8.1

> <Gold.Id.Protein>
6NUR|6NUR_protein|mol2

> <Gold.PLP.Fitness>
40.9534

> <Gold.PLP.PLP>
-32.1649

> <Gold.PLP.part.hbond>
-3.4954

> <Gold.PLP.part.metal>
0.0000

> <Gold.PLP.part.buried>
-2.9731

> <Gold.PLP.part.nonpolar>
-27.6506

> <Gold.PLP.part.repulsive>
0.2388

> <Gold.PLP.ligand.clash>
0.0000

> <Gold.PLP.ligand.torsion>
0.3601

> <Gold.PLP.Chemscore.Hbond>
2.1606

> <Gold.PLP.Chemscore.CHOScore>
1.0000

> <Gold.PLP.Chemscore.Metal>
0.0000

> <Gold.Chemscore.Hbonds>
donor molecule, donor type, donor heavy atom, donor atom, acceptor molecule, acceptor atom, score
      L1  H     9    33       P1  7948  0.94
      L1  H    12    34       P1  7948  0.84
      L1  H    20    47       P1  7948  0.38
      L1  C     6    31       P1 10186  1.00

> <Gold.PLP.Chemscore.Internal.Correction>
0.0269

> <Gold.Rescore>
     Score         DG    S(hbond)    S(metal)    S(lipo)     H(rot)  DE(clash)    DE(int)     intcor
     15.53     -19.26       2.46        0.00      90.55       1.97       0.66       3.07       ----

> <Gold.Chemscore.Fitness>
15.5294

> <Gold.Chemscore.DG>
-19.2590

> <Gold.Chemscore.ZeroCoef>
-5.4800

> <Gold.Chemscore.Hbond>
2.4614

> <Gold.Chemscore.Metal>
0.0000

> <Gold.Chemscore.Lipo>
90.5457

> <Gold.Chemscore.Internal_Hbond>
0.0000

> <Gold.Chemscore.DEClash>
0.6609

> <Gold.Chemscore.DEInternal>
3.0687

> <Gold.Chemscore.Rot>
1.9672

> <Gold.Chemscore.Internal.Correction>
   9.000000E+99

> <Gold.Chemscore.Hbonds>
donor molecule, donor type, donor heavy atom, donor atom, acceptor molecule, acceptor atom, score
      L1  H     9    33       P1  7948  0.90
      L1  H    12    34       P1  7948  0.77
      L1  H    20    47       P1  7948  0.33

> <Gold.Chemscore.Hbond.Weighted>
-8.2211

> <Gold.Chemscore.Metal.Weighted>
-0.0000

> <Gold.Chemscore.Lipo.Weighted>
-10.5939

> <Gold.Chemscore.Internal_Hbond.Weighted>
0.0000

> <Gold.Chemscore.DEClash.Weighted>
0.6609

> <Gold.Chemscore.DEInternal.Weighted>
3.0687

> <Gold.Chemscore.Rot.Weighted>
5.0360

> <Gold.Chemscore.Internal.Correction.Weighted>
   9.000000E+99

> <Gold.Protein.RotatedTorsions>
[ 6907 6896 6895 6894 ] final  -90.77 input  -60.11 | X-H torsion
[ 7974 7965 7964 7962 ] final -172.94 input  175.53 | X-H torsion
[ 8008 7997 7996 7995 ] final  158.56 input   59.86 | X-H torsion
[ 10167 10162 10161 10158 ] final  -28.69 input  -65.29 | X-H torsion
[ 10718 10713 10712 10709 ] final   56.33 input   66.30 | X-H torsion
[ 10763 10752 10751 10750 ] final   56.27 input  -60.55 | X-H torsion
[ 11005 11000 10999 10996 ] final  -85.20 input  -57.11 | X-H torsion

> <Gold.Protein.ActiveResidues>
 VAL166  LYS551  ARG553  GLY616  TRP617  ASP618  TYR619  PRO620  LYS621  CYS622 
 ASP623  PHE694  ASN695  SER759  ASP760  ASP761  ALA762  ILE779  LEU786  VAL792 
 PHE793  MET794  SER795  GLU796  ALA797  LYS798  CYS799  TRP800  GLU811  SER814 

> <Gold.Protein.RotatedAtoms>
  150.6885  134.2380  159.4460 H   0  0  0  0  0  0  0  0  0  0  0  0  # atno 6907 bound_to 6896
  152.0326  134.9756  160.0582 H   0  0  0  0  0  0  0  0  0  0  0  0  # atno 6908 bound_to 6896
  152.1289  133.4361  159.4748 H   0  0  0  0  0  0  0  0  0  0  0  0  # atno 6909 bound_to 6896
  144.7142  140.1696  143.6368 H   0  0  0  0  0  0  0  0  0  0  0  0  # atno 7974 bound_to 7965
  156.2295  140.1855  156.7279 H   0  0  0  0  0  0  0  0  0  0  0  0  # atno 8008 bound_to 7997
  154.5998  140.0638  156.9380 H   0  0  0  0  0  0  0  0  0  0  0  0  # atno 8009 bound_to 7997
  155.2194  140.3306  155.4320 H   0  0  0  0  0  0  0  0  0  0  0  0  # atno 8010 bound_to 7997
  140.7267  143.3990  151.1298 H   0  0  0  0  0  0  0  0  0  0  0  0  # atno 10167 bound_to 10162
  157.5422  130.8705  149.8838 H   0  0  0  0  0  0  0  0  0  0  0  0  # atno 10718 bound_to 10713
  152.9829  135.5682  154.5202 H   0  0  0  0  0  0  0  0  0  0  0  0  # atno 10763 bound_to 10752
  154.4691  135.2784  155.1658 H   0  0  0  0  0  0  0  0  0  0  0  0  # atno 10764 bound_to 10752
  154.3213  135.6268  153.5562 H   0  0  0  0  0  0  0  0  0  0  0  0  # atno 10765 bound_to 10752
  141.1643  133.7386  156.8979 H   0  0  0  0  0  0  0  0  0  0  0  0  # atno 11005 bound_to 11000
  145.8955  139.2400  143.1524 LP  0  0  0  0  0  0  0  0  0  0  0  0  # atno 17320 bound_to 7965
  145.9861  140.8642  143.0090 LP  0  0  0  0  0  0  0  0  0  0  0  0  # atno 17321 bound_to 7965
  139.7606  143.8640  152.3099 LP  0  0  0  0  0  0  0  0  0  0  0  0  # atno 17342 bound_to 10162
  139.8525  144.7157  150.9197 LP  0  0  0  0  0  0  0  0  0  0  0  0  # atno 17343 bound_to 10162
  156.0506  130.3718  150.1211 LP  0  0  0  0  0  0  0  0  0  0  0  0  # atno 17370 bound_to 10713
  156.9390  130.9738  151.3519 LP  0  0  0  0  0  0  0  0  0  0  0  0  # atno 17371 bound_to 10713
  140.1603  134.9170  157.2706 LP  0  0  0  0  0  0  0  0  0  0  0  0  # atno 17394 bound_to 11000
  140.2619  134.3561  155.7403 LP  0  0  0  0  0  0  0  0  0  0  0  0  # atno 17395 bound_to 11000

$$$$
