AV-unprocessed.smi:54|AV-procd|sdf|536|dock8
  -GOLD-   2262016423D 1   1.00000     0.00000
 Structure written by MMmdl.
 44 46  0  0  0  0  0  0  0  0  1 V2000
  152.3355  138.7227  154.8382 C   0  0  0  0  0  0  0  0  0  0  0  0
  151.1356  138.3086  155.7048 C   0  0  0  0  0  0  0  0  0  0  0  0
  151.2676  138.8516  157.1372 C   0  0  0  0  0  0  0  0  0  0  0  0
  150.9807  136.7835  155.7135 C   0  0  0  0  0  0  0  0  0  0  0  0
  151.8347  136.0436  156.2033 O   0  0  0  0  0  0  0  0  0  0  0  0
  149.7654  136.2787  155.0995 N   0  0  0  0  0  0  0  0  0  0  0  0
  149.3856  134.9864  154.9669 C   0  0  0  0  0  0  0  0  0  0  0  0
  148.6367  134.5479  153.9648 N   0  0  0  0  0  0  0  0  0  0  0  0
  148.3619  133.2095  154.0055 C   0  0  0  0  0  0  0  0  0  0  0  0
  148.7841  132.3099  154.9618 C   0  0  0  0  0  0  0  0  0  0  0  0
  148.3015  131.0386  154.6695 N   0  0  0  0  0  0  0  0  0  0  0  0
  147.6171  131.2041  153.5717 C   0  0  0  0  0  0  0  0  0  0  0  0
  147.6065  132.4962  153.1020 N   0  0  0  0  0  0  0  0  0  0  0  0
  146.9349  133.0597  151.8931 C   0  0  1  0  0  0  0  0  0  0  0  0
  146.2076  132.0545  151.2702 O   0  0  0  0  0  0  0  0  0  0  0  0
  145.1782  132.6464  150.4836 C   0  0  1  0  0  0  0  0  0  0  0  0
  143.9321  131.7529  150.5769 C   0  0  0  0  0  0  0  0  0  0  0  0
  143.1063  131.9441  149.4477 O   0  0  0  0  0  0  0  0  0  0  0  0
  144.9724  134.0702  151.0471 C   0  0  2  0  0  0  0  0  0  0  0  0
  145.3447  135.0185  150.0656 O   0  0  0  0  0  0  0  0  0  0  0  0
  145.9237  134.1562  152.2348 C   0  0  1  0  0  0  0  0  0  0  0  0
  145.2391  133.9159  153.4518 O   0  0  0  0  0  0  0  0  0  0  0  0
  149.6017  132.7675  156.0481 C   0  0  0  0  0  0  0  0  0  0  0  0
  150.0677  132.1142  156.9791 O   0  0  0  0  0  0  0  0  0  0  0  0
  149.8600  134.1425  155.9715 N   0  0  0  0  0  0  0  0  0  0  0  0
  147.7389  133.4027  151.2396 H   0  0  0  0  0  0  0  0  0  0  0  0
  145.5320  132.6788  149.4513 H   0  0  0  0  0  0  0  0  0  0  0  0
  143.9386  134.2671  151.3355 H   0  0  0  0  0  0  0  0  0  0  0  0
  146.4317  135.1190  152.3111 H   0  0  0  0  0  0  0  0  0  0  0  0
  152.2407  138.3392  153.8214 H   0  0  0  0  0  0  0  0  0  0  0  0
  153.2751  138.3501  155.2484 H   0  0  0  0  0  0  0  0  0  0  0  0
  152.4115  139.8083  154.7715 H   0  0  0  0  0  0  0  0  0  0  0  0
  150.2353  138.7393  155.2643 H   0  0  0  0  0  0  0  0  0  0  0  0
  150.4194  138.5528  157.7545 H   0  0  0  0  0  0  0  0  0  0  0  0
  151.3046  139.9413  157.1383 H   0  0  0  0  0  0  0  0  0  0  0  0
  152.1758  138.4908  157.6221 H   0  0  0  0  0  0  0  0  0  0  0  0
  149.1479  136.9738  154.7075 H   0  0  0  0  0  0  0  0  0  0  0  0
  147.1025  130.3910  153.0809 H   0  0  0  0  0  0  0  0  0  0  0  0
  144.2241  130.7030  150.6118 H   0  0  0  0  0  0  0  0  0  0  0  0
  143.3690  131.9621  151.4869 H   0  0  0  0  0  0  0  0  0  0  0  0
  142.2146  132.0506  149.7421 H   0  0  0  0  0  0  0  0  0  0  0  0
  145.5407  134.5579  149.2638 H   0  0  0  0  0  0  0  0  0  0  0  0
  144.4011  134.3503  153.4131 H   0  0  0  0  0  0  0  0  0  0  0  0
  150.4293  134.5353  156.7064 H   0  0  0  0  0  0  0  0  0  0  0  0
  1  2  1  0  0  0  0
  1 30  1  0  0  0  0
  1 31  1  0  0  0  0
  1 32  1  0  0  0  0
  2  3  1  0  0  0  0
  2  4  1  0  0  0  0
  2 33  1  0  0  0  0
  3 34  1  0  0  0  0
  3 35  1  0  0  0  0
  3 36  1  0  0  0  0
  4  5  2  0  0  0  0
  4  6  1  0  0  0  0
  6 37  1  0  0  0  0
  6  7  1  0  0  0  0
  7 25  1  0  0  0  0
  7  8  2  0  0  0  0
  8  9  1  0  0  0  0
  9 13  1  0  0  0  0
  9 10  2  0  0  0  0
 10 11  1  0  0  0  0
 10 23  1  0  0  0  0
 11 12  2  0  0  0  0
 12 13  1  0  0  0  0
 12 38  1  0  0  0  0
 13 14  1  0  0  0  0
 14 26  1  0  0  0  0
 14 21  1  0  0  0  0
 14 15  1  0  0  0  0
 15 16  1  0  0  0  0
 16 27  1  0  0  0  0
 16 17  1  0  0  0  0
 16 19  1  0  0  0  0
 17 18  1  0  0  0  0
 17 39  1  0  0  0  0
 17 40  1  0  0  0  0
 18 41  1  0  0  0  0
 19 28  1  0  0  0  0
 19 20  1  0  0  0  0
 19 21  1  0  0  0  0
 20 42  1  0  0  0  0
 21 29  1  0  0  0  0
 21 22  1  0  0  0  0
 22 43  1  0  0  0  0
 23 24  2  0  0  0  0
 23 25  1  0  0  0  0
 25 44  1  0  0  0  0
M  END
> <s_m_source_file>
AV-unprocessed.smi

> <i_m_source_file_index>
54

> <i_lp_mmshare_version>
43012

> <i_f3d_flags>
0

> <s_epik_input>
W0NIM11bQ0hdKFtDSDNdKUMoPU8pW05IXWMobjEpW25IXWMoPU8pYyhjMTIpbltjSF1uMltDQEBIXTNPW0NASF0oW0NIMl1bT0hdKVtDQEBIXShbT0hdKVtDQEhdM1tPSF0=

> <s_epik_cmdline>
J2VwaWtfcHl0aG9uJywgJy1waCcsICc3LjAnLCAnLXRuJywgJzgnLCAnLW1hJywgJzIwMCcsICctbWV0YWxfYmluZGluZycsICctaW1hZScsICc8aW5maWxlLm1hZT4nLCAnLW9tYWUnLCAnPG91dGZpbGUubWFlPic=

> <r_lp_tautomer_probability>
0.85571

> <r_epik_Ionization_Penalty>
0.0316551

> <r_epik_Ionization_Penalty_Charging>
0.0316043

> <r_epik_Ionization_Penalty_Neutral>
5.07097e-05

> <r_epik_State_Penalty>
3.15494e-07

> <r_epik_Charging_Adjusted_Penalty>
0.0316047

> <i_epik_Tot_Q>
0

> <i_epik_Tot_abs_Q>
0

> <r_epik_Metal_State_Penalty>
0.421206

> <b_epik_Metal_Only>
0

> <s_epik_Chemistry_Notes>
This compound contains an acetal/aminal-like group ( X-CH(R)-Y where X, Y are N, S, or O) that may be acid/base labile, releasing an aldehyde.

> <s_lp_Force_Field>
OPLS_2005

> <r_lp_Energy>
42.5501

> <b_lp_Chiralities_Consistent>
1

> <s_lp_Variant>
AV-unprocessed.smi:54-8

> <Gold.Version>
5.8.1

> <Gold.Id.Protein>
6NUR|6NUR_protein|mol2

> <Gold.PLP.Fitness>
44.5765

> <Gold.PLP.PLP>
-36.1772

> <Gold.PLP.part.hbond>
-4.0000

> <Gold.PLP.part.metal>
0.0000

> <Gold.PLP.part.buried>
-8.9389

> <Gold.PLP.part.nonpolar>
-27.6456

> <Gold.PLP.part.repulsive>
3.6696

> <Gold.PLP.ligand.clash>
0.0000

> <Gold.PLP.ligand.torsion>
0.5060

> <Gold.PLP.Chemscore.Hbond>
3.1277

> <Gold.PLP.Chemscore.CHOScore>
0.0000

> <Gold.PLP.Chemscore.Metal>
0.0000

> <Gold.Chemscore.Hbonds>
donor molecule, donor type, donor heavy atom, donor atom, acceptor molecule, acceptor atom, score
      L1  H    18    41       P1 10952  0.23
      L1  H    20    42       P1  7921  0.83
      P1  H 10752 10763       L1     5  1.00
      P1  H 10785 10796       L1    18  0.90

> <Gold.PLP.Chemscore.Internal.Correction>
0.0281

> <Gold.Rescore>
     Score         DG    S(hbond)    S(metal)    S(lipo)     H(rot)  DE(clash)    DE(int)     intcor
      7.46      -9.52       2.52        0.00      51.13       4.05       1.43       0.63       ----

> <Gold.Chemscore.Fitness>
7.4614

> <Gold.Chemscore.DG>
-9.5249

> <Gold.Chemscore.ZeroCoef>
-5.4800

> <Gold.Chemscore.Hbond>
2.5235

> <Gold.Chemscore.Metal>
0.0000

> <Gold.Chemscore.Lipo>
51.1340

> <Gold.Chemscore.Internal_Hbond>
0.0000

> <Gold.Chemscore.DEClash>
1.4311

> <Gold.Chemscore.DEInternal>
0.6325

> <Gold.Chemscore.Rot>
4.0493

> <Gold.Chemscore.Internal.Correction>
   9.000000E+99

> <Gold.Chemscore.Hbonds>
donor molecule, donor type, donor heavy atom, donor atom, acceptor molecule, acceptor atom, score
      L1  H    18    41       P1 10952  0.23
      L1  H    20    42       P1  7921  0.81
      P1  H 10752 10763       L1     5  0.98
      P1  H 10785 10796       L1    18  0.09

> <Gold.Chemscore.Hbond.Weighted>
-8.4285

> <Gold.Chemscore.Metal.Weighted>
-0.0000

> <Gold.Chemscore.Lipo.Weighted>
-5.9827

> <Gold.Chemscore.Internal_Hbond.Weighted>
0.0000

> <Gold.Chemscore.DEClash.Weighted>
1.4311

> <Gold.Chemscore.DEInternal.Weighted>
0.6325

> <Gold.Chemscore.Rot.Weighted>
10.3662

> <Gold.Chemscore.Internal.Correction.Weighted>
   9.000000E+99

> <Gold.Protein.RotatedTorsions>
[ 6907 6896 6895 6894 ] final   48.55 input  -60.11 | X-H torsion
[ 7974 7965 7964 7962 ] final -105.46 input  175.53 | X-H torsion
[ 8008 7997 7996 7995 ] final  136.02 input   59.86 | X-H torsion
[ 10167 10162 10161 10158 ] final  -54.42 input  -65.29 | X-H torsion
[ 10718 10713 10712 10709 ] final  -50.56 input   66.30 | X-H torsion
[ 10763 10752 10751 10750 ] final  101.82 input  -60.55 | X-H torsion
[ 11005 11000 10999 10996 ] final  -46.36 input  -57.11 | X-H torsion

> <Gold.Protein.ActiveResidues>
 VAL166  LYS551  ARG553  GLY616  TRP617  ASP618  TYR619  PRO620  LYS621  CYS622 
 ASP623  PHE694  ASN695  SER759  ASP760  ASP761  ALA762  ILE779  LEU786  VAL792 
 PHE793  MET794  SER795  GLU796  ALA797  LYS798  CYS799  TRP800  GLU811  SER814 

> <Gold.Protein.RotatedAtoms>
  152.2807  134.7831  160.0396 H   0  0  0  0  0  0  0  0  0  0  0  0  # atno 6907 bound_to 6896
  151.8411  133.3418  159.3651 H   0  0  0  0  0  0  0  0  0  0  0  0  # atno 6908 bound_to 6896
  150.7188  134.5318  159.5748 H   0  0  0  0  0  0  0  0  0  0  0  0  # atno 6909 bound_to 6896
  145.2302  140.9167  143.3209 H   0  0  0  0  0  0  0  0  0  0  0  0  # atno 7974 bound_to 7965
  156.3004  140.2456  156.3676 H   0  0  0  0  0  0  0  0  0  0  0  0  # atno 8008 bound_to 7997
  154.8818  140.0412  157.1806 H   0  0  0  0  0  0  0  0  0  0  0  0  # atno 8009 bound_to 7997
  154.8688  140.2932  155.5498 H   0  0  0  0  0  0  0  0  0  0  0  0  # atno 8010 bound_to 7997
  140.6431  143.2519  151.4934 H   0  0  0  0  0  0  0  0  0  0  0  0  # atno 10167 bound_to 10162
  156.1790  130.4150  149.9535 H   0  0  0  0  0  0  0  0  0  0  0  0  # atno 10718 bound_to 10713
  153.3316  135.4031  155.1500 H   0  0  0  0  0  0  0  0  0  0  0  0  # atno 10763 bound_to 10752
  154.8624  135.3612  154.5463 H   0  0  0  0  0  0  0  0  0  0  0  0  # atno 10764 bound_to 10752
  153.5902  135.7074  153.5486 H   0  0  0  0  0  0  0  0  0  0  0  0  # atno 10765 bound_to 10752
  141.0574  133.6721  156.3144 H   0  0  0  0  0  0  0  0  0  0  0  0  # atno 11005 bound_to 11000
  144.9684  139.3906  143.6321 LP  0  0  0  0  0  0  0  0  0  0  0  0  # atno 17320 bound_to 7965
  146.3355  139.8770  142.8830 LP  0  0  0  0  0  0  0  0  0  0  0  0  # atno 17321 bound_to 7965
  139.5641  144.2086  152.1737 LP  0  0  0  0  0  0  0  0  0  0  0  0  # atno 17342 bound_to 10162
  140.1362  144.5243  150.6772 LP  0  0  0  0  0  0  0  0  0  0  0  0  # atno 17343 bound_to 10162
  156.7312  130.9044  151.3626 LP  0  0  0  0  0  0  0  0  0  0  0  0  # atno 17370 bound_to 10713
  157.6855  130.9181  150.0375 LP  0  0  0  0  0  0  0  0  0  0  0  0  # atno 17371 bound_to 10713
  140.5936  134.5625  157.5504 LP  0  0  0  0  0  0  0  0  0  0  0  0  # atno 17394 bound_to 11000
  139.9402  134.7801  156.0698 LP  0  0  0  0  0  0  0  0  0  0  0  0  # atno 17395 bound_to 11000

$$$$
