AV-unprocessed.smi:2311|AV-procd|sdf|9262|dock5
  -GOLD-   2272012483D 1   1.00000     0.00000
 Structure written by MMmdl.
 40 41  0  0  0  0  0  0  0  0  1 V2000
  147.1490  137.7664  163.4449 C   0  0  0  0  0  0  0  0  0  0  0  0
  147.4198  136.5956  162.5237 C   0  0  0  0  0  0  0  0  0  0  0  0
  147.0244  135.2899  162.8752 C   0  0  0  0  0  0  0  0  0  0  0  0
  147.3037  134.2476  161.9733 C   0  0  0  0  0  0  0  0  0  0  0  0
  147.9610  134.5516  160.7655 C   0  0  0  0  0  0  0  0  0  0  0  0
  148.3234  135.8892  160.4886 C   0  0  0  0  0  0  0  0  0  0  0  0
  148.9808  136.0903  159.2457 N   0  0  0  0  0  0  0  0  0  0  0  0
  149.4359  137.2428  158.7226 C   0  0  0  0  0  0  0  0  0  0  0  0
  149.3540  138.3495  159.2565 O   0  0  0  0  0  0  0  0  0  0  0  0
  150.0002  137.0417  157.5227 N   0  0  0  0  0  0  0  0  0  0  0  0
  150.5897  138.0829  156.6853 C   0  0  1  0  0  0  0  0  0  0  0  0
  151.0846  137.4718  155.3693 C   0  0  0  0  0  0  0  0  0  0  0  0
  151.6001  138.5670  154.4255 C   0  0  0  0  0  0  0  0  0  0  0  0
  150.5872  139.5445  154.1952 O   0  0  0  0  0  0  0  0  0  0  0  0
  150.0852  140.2214  155.3527 C   0  0  0  0  0  0  0  0  0  0  0  0
  151.1624  141.1478  155.9572 C   0  0  0  0  0  0  0  0  0  0  0  0
  148.9186  141.0830  154.8416 C   0  0  0  0  0  0  0  0  0  0  0  0
  149.5593  139.1839  156.3739 C   0  0  0  0  0  0  0  0  0  0  0  0
  148.0500  136.8874  161.3655 N   0  0  0  0  0  0  0  0  0  0  0  0
  146.7792  137.4295  164.4137 H   0  0  0  0  0  0  0  0  0  0  0  0
  146.4020  138.4274  163.0051 H   0  0  0  0  0  0  0  0  0  0  0  0
  148.0610  138.3405  163.6110 H   0  0  0  0  0  0  0  0  0  0  0  0
  146.5199  135.0896  163.8091 H   0  0  0  0  0  0  0  0  0  0  0  0
  147.0183  133.2314  162.2027 H   0  0  0  0  0  0  0  0  0  0  0  0
  148.1823  133.7622  160.0619 H   0  0  0  0  0  0  0  0  0  0  0  0
  149.1183  135.2600  158.6890 H   0  0  0  0  0  0  0  0  0  0  0  0
  150.0237  136.1001  157.1597 H   0  0  0  0  0  0  0  0  0  0  0  0
  151.4438  138.5156  157.2087 H   0  0  0  0  0  0  0  0  0  0  0  0
  151.8737  136.7439  155.5615 H   0  0  0  0  0  0  0  0  0  0  0  0
  150.2723  136.9317  154.8806 H   0  0  0  0  0  0  0  0  0  0  0  0
  152.5044  139.0293  154.8206 H   0  0  0  0  0  0  0  0  0  0  0  0
  151.8760  138.1269  153.4674 H   0  0  0  0  0  0  0  0  0  0  0  0
  150.7515  141.7397  156.7757 H   0  0  0  0  0  0  0  0  0  0  0  0
  151.5447  141.8432  155.2095 H   0  0  0  0  0  0  0  0  0  0  0  0
  152.0136  140.6002  156.3590 H   0  0  0  0  0  0  0  0  0  0  0  0
  148.4464  141.6345  155.6553 H   0  0  0  0  0  0  0  0  0  0  0  0
  148.1507  140.4704  154.3682 H   0  0  0  0  0  0  0  0  0  0  0  0
  149.2582  141.8092  154.1024 H   0  0  0  0  0  0  0  0  0  0  0  0
  148.6609  138.7126  155.9719 H   0  0  0  0  0  0  0  0  0  0  0  0
  149.2510  139.6870  157.2914 H   0  0  0  0  0  0  0  0  0  0  0  0
  1  2  1  0  0  0  0
  1 20  1  0  0  0  0
  1 21  1  0  0  0  0
  1 22  1  0  0  0  0
  2 19  1  0  0  0  0
  2  3  2  0  0  0  0
  3  4  1  0  0  0  0
  3 23  1  0  0  0  0
  4  5  2  0  0  0  0
  4 24  1  0  0  0  0
  5  6  1  0  0  0  0
  5 25  1  0  0  0  0
  6  7  1  0  0  0  0
  6 19  2  0  0  0  0
  7  8  1  0  0  0  0
  7 26  1  0  0  0  0
  8  9  2  0  0  0  0
  8 10  1  0  0  0  0
 10 11  1  0  0  0  0
 10 27  1  0  0  0  0
 11 18  1  0  0  0  0
 11 12  1  0  0  0  0
 11 28  1  0  0  0  0
 12 13  1  0  0  0  0
 12 29  1  0  0  0  0
 12 30  1  0  0  0  0
 13 14  1  0  0  0  0
 13 31  1  0  0  0  0
 13 32  1  0  0  0  0
 14 15  1  0  0  0  0
 15 16  1  0  0  0  0
 15 17  1  0  0  0  0
 15 18  1  0  0  0  0
 16 33  1  0  0  0  0
 16 34  1  0  0  0  0
 16 35  1  0  0  0  0
 17 36  1  0  0  0  0
 17 37  1  0  0  0  0
 17 38  1  0  0  0  0
 18 39  1  0  0  0  0
 18 40  1  0  0  0  0
M  END
> <s_m_source_file>
AV-unprocessed.smi

> <i_m_source_file_index>
2311

> <i_lp_mmshare_version>
43012

> <i_f3d_flags>
0

> <s_epik_input>
W0NIM11jMVtjSF1bY0hdW2NIXWMobjEpW05IXUMoPU8pW05IXVtDQEBIXShbQ0gyXTIpW0NIMl1bQ0gyXU9DMihbQ0gzXSlbQ0gzXQ==

> <s_epik_cmdline>
J2VwaWtfcHl0aG9uJywgJy1waCcsICc3LjAnLCAnLXRuJywgJzgnLCAnLW1hJywgJzIwMCcsICctbWV0YWxfYmluZGluZycsICctaW1hZScsICc8aW5maWxlLm1hZT4nLCAnLW9tYWUnLCAnPG91dGZpbGUubWFlPic=

> <r_lp_tautomer_probability>
1

> <r_epik_Ionization_Penalty>
8.54628e-05

> <r_epik_Ionization_Penalty_Charging>
0

> <r_epik_Ionization_Penalty_Neutral>
8.54628e-05

> <r_epik_State_Penalty>
-0

> <r_epik_Charging_Adjusted_Penalty>
0

> <i_epik_Tot_Q>
0

> <i_epik_Tot_abs_Q>
0

> <r_epik_Metal_State_Penalty>
-0

> <b_epik_Metal_Only>
0

> <s_lp_Force_Field>
OPLS_2005

> <r_lp_Energy>
12.4955

> <b_lp_Chiralities_Consistent>
1

> <s_lp_Variant>
AV-unprocessed.smi:2311-2

> <Gold.Version>
5.8.1

> <Gold.Id.Protein>
6NUR|6NUR_protein|mol2

> <Gold.PLP.Fitness>
41.7143

> <Gold.PLP.PLP>
-34.8654

> <Gold.PLP.part.hbond>
-4.7408

> <Gold.PLP.part.metal>
0.0000

> <Gold.PLP.part.buried>
-1.4290

> <Gold.PLP.part.nonpolar>
-27.7927

> <Gold.PLP.part.repulsive>
0.3681

> <Gold.PLP.ligand.clash>
0.0000

> <Gold.PLP.ligand.torsion>
0.0062

> <Gold.PLP.Chemscore.Hbond>
2.2870

> <Gold.PLP.Chemscore.CHOScore>
0.0000

> <Gold.PLP.Chemscore.Metal>
0.0000

> <Gold.Chemscore.Hbonds>
donor molecule, donor type, donor heavy atom, donor atom, acceptor molecule, acceptor atom, score
      P1  H  6931  6943       L1    19  0.95
      P1  H  6934  6947       L1    19  0.16
      P1  H  7989  7998       L1    14  0.95

> <Gold.PLP.Chemscore.Internal.Correction>
0.0002

> <Gold.Rescore>
     Score         DG    S(hbond)    S(metal)    S(lipo)     H(rot)  DE(clash)    DE(int)     intcor
     14.67     -18.65       1.74        0.00      84.76       1.00       2.59       1.39       ----

> <Gold.Chemscore.Fitness>
14.6717

> <Gold.Chemscore.DG>
-18.6527

> <Gold.Chemscore.ZeroCoef>
-5.4800

> <Gold.Chemscore.Hbond>
1.7411

> <Gold.Chemscore.Metal>
0.0000

> <Gold.Chemscore.Lipo>
84.7638

> <Gold.Chemscore.Internal_Hbond>
0.0000

> <Gold.Chemscore.DEClash>
2.5927

> <Gold.Chemscore.DEInternal>
1.3883

> <Gold.Chemscore.Rot>
1.0000

> <Gold.Chemscore.Internal.Correction>
   9.000000E+99

> <Gold.Chemscore.Hbonds>
donor molecule, donor type, donor heavy atom, donor atom, acceptor molecule, acceptor atom, score
      P1  H  6931  6943       L1    19  0.22
      P1  H  6934  6947       L1    19  0.05
      P1  H  7989  7998       L1    14  0.06

> <Gold.Chemscore.Hbond.Weighted>
-5.8153

> <Gold.Chemscore.Metal.Weighted>
-0.0000

> <Gold.Chemscore.Lipo.Weighted>
-9.9174

> <Gold.Chemscore.Internal_Hbond.Weighted>
0.0000

> <Gold.Chemscore.DEClash.Weighted>
2.5927

> <Gold.Chemscore.DEInternal.Weighted>
1.3883

> <Gold.Chemscore.Rot.Weighted>
2.5600

> <Gold.Chemscore.Internal.Correction.Weighted>
   9.000000E+99

> <Gold.Protein.RotatedTorsions>
[ 6907 6896 6895 6894 ] final   37.46 input  -60.11 | X-H torsion
[ 7974 7965 7964 7962 ] final  151.35 input  175.53 | X-H torsion
[ 8008 7997 7996 7995 ] final   64.83 input   59.86 | X-H torsion
[ 10167 10162 10161 10158 ] final  -37.42 input  -65.29 | X-H torsion
[ 10718 10713 10712 10709 ] final  179.50 input   66.30 | X-H torsion
[ 10763 10752 10751 10750 ] final -117.47 input  -60.55 | X-H torsion
[ 11005 11000 10999 10996 ] final  113.53 input  -57.11 | X-H torsion

> <Gold.Protein.ActiveResidues>
 VAL166  LYS551  ARG553  GLY616  TRP617  ASP618  TYR619  PRO620  LYS621  CYS622 
 ASP623  PHE694  ASN695  SER759  ASP760  ASP761  ALA762  ILE779  LEU786  VAL792 
 PHE793  MET794  SER795  GLU796  ALA797  LYS798  CYS799  TRP800  GLU811  SER814 

> <Gold.Protein.RotatedAtoms>
  152.1434  134.9044  160.0552 H   0  0  0  0  0  0  0  0  0  0  0  0  # atno 6907 bound_to 6896
  152.0104  133.3854  159.4225 H   0  0  0  0  0  0  0  0  0  0  0  0  # atno 6908 bound_to 6896
  150.6867  134.3659  159.5014 H   0  0  0  0  0  0  0  0  0  0  0  0  # atno 6909 bound_to 6896
  144.8299  139.6526  143.6063 H   0  0  0  0  0  0  0  0  0  0  0  0  # atno 7974 bound_to 7965
  155.6522  140.3497  155.4752 H   0  0  0  0  0  0  0  0  0  0  0  0  # atno 8008 bound_to 7997
  155.9838  140.1180  157.0725 H   0  0  0  0  0  0  0  0  0  0  0  0  # atno 8009 bound_to 7997
  154.4199  140.1133  156.5458 H   0  0  0  0  0  0  0  0  0  0  0  0  # atno 8010 bound_to 7997
  140.7118  143.3343  151.2498 H   0  0  0  0  0  0  0  0  0  0  0  0  # atno 10167 bound_to 10162
  156.8748  130.9796  151.3069 H   0  0  0  0  0  0  0  0  0  0  0  0  # atno 10718 bound_to 10713
  154.8556  135.4308  154.1985 H   0  0  0  0  0  0  0  0  0  0  0  0  # atno 10763 bound_to 10752
  153.3037  135.6971  153.7185 H   0  0  0  0  0  0  0  0  0  0  0  0  # atno 10764 bound_to 10752
  153.6305  135.3486  155.3014 H   0  0  0  0  0  0  0  0  0  0  0  0  # atno 10765 bound_to 10752
  139.8955  134.9551  156.6753 H   0  0  0  0  0  0  0  0  0  0  0  0  # atno 11005 bound_to 11000
  146.2602  139.6393  142.9367 LP  0  0  0  0  0  0  0  0  0  0  0  0  # atno 17320 bound_to 7965
  145.4919  141.0438  143.2588 LP  0  0  0  0  0  0  0  0  0  0  0  0  # atno 17321 bound_to 7965
  139.6834  143.9816  152.2821 LP  0  0  0  0  0  0  0  0  0  0  0  0  # atno 17342 bound_to 10162
  139.9453  144.6655  150.8225 LP  0  0  0  0  0  0  0  0  0  0  0  0  # atno 17343 bound_to 10162
  157.6174  130.8629  149.9052 LP  0  0  0  0  0  0  0  0  0  0  0  0  # atno 17370 bound_to 10713
  156.0707  130.3685  150.0781 LP  0  0  0  0  0  0  0  0  0  0  0  0  # atno 17371 bound_to 10713
  140.7341  133.9033  155.8232 LP  0  0  0  0  0  0  0  0  0  0  0  0  # atno 17394 bound_to 11000
  141.0130  134.0995  157.4202 LP  0  0  0  0  0  0  0  0  0  0  0  0  # atno 17395 bound_to 11000

$$$$
