AV-unprocessed.smi:1575|AV-procd|sdf|6341|dock10
  -GOLD-   22720 6563D 1   1.00000     0.00000
 Structure written by MMmdl.
 40 40  0  0  0  0  0  0  0  0  2 V2000
  145.6266  136.0988  151.1666 C   0  0  0  0  0  0  0  0  0  0  0  0
  146.3777  136.9827  152.0443 N   0  0  0  0  0  0  0  0  0  0  0  0
  145.8326  137.7061  153.0329 C   0  0  0  0  0  0  0  0  0  0  0  0
  144.6289  137.6841  153.2964 O   0  0  0  0  0  0  0  0  0  0  0  0
  146.8026  138.5674  153.8595 C   0  0  2  0  0  0  0  0  0  0  0  0
  146.8414  139.9811  153.2299 C   0  0  0  0  0  0  0  0  0  0  0  0
  147.2285  141.1280  154.1934 C   0  0  0  0  0  0  0  0  0  0  0  0
  146.5033  142.4439  153.8673 C   0  0  0  0  0  0  0  0  0  0  0  0
  148.7500  141.3389  154.1968 C   0  0  0  0  0  0  0  0  0  0  0  0
  148.1493  138.0043  153.8111 N   0  0  0  0  0  0  0  0  0  0  0  0
  149.1432  138.2482  154.6816 C   0  0  0  0  0  0  0  0  0  0  0  0
  149.0008  138.9599  155.6755 O   0  0  0  0  0  0  0  0  0  0  0  0
  150.5154  137.6121  154.3998 C   0  0  0  0  0  0  0  0  0  0  0  0
  151.5365  137.8763  155.4312 N   0  0  0  0  0  0  0  0  0  0  0  0
  151.9474  136.7975  156.2340 C   0  0  0  0  0  0  0  0  0  0  0  0
  152.8910  136.9382  157.1845 C   0  0  0  0  0  0  0  0  0  0  0  0
  153.4918  138.2530  157.3718 C   0  0  0  0  0  0  0  0  0  0  0  0
  154.3559  138.3997  158.2340 O   0  0  0  0  0  0  0  0  0  0  0  0
  153.0593  139.2686  156.5685 N   0  5  0  0  0  0  0  0  0  0  0  0
  152.0999  139.1108  155.6047 C   0  0  0  0  0  0  0  0  0  0  0  0
  151.7336  140.0378  154.8819 O   0  0  0  0  0  0  0  0  0  0  0  0
  146.2908  135.6655  150.4191 H   0  0  0  0  0  0  0  0  0  0  0  0
  144.8370  136.6434  150.6469 H   0  0  0  0  0  0  0  0  0  0  0  0
  145.1735  135.2846  151.7336 H   0  0  0  0  0  0  0  0  0  0  0  0
  147.3731  137.0529  151.8902 H   0  0  0  0  0  0  0  0  0  0  0  0
  146.4576  138.6205  154.8934 H   0  0  0  0  0  0  0  0  0  0  0  0
  147.5479  139.9812  152.3973 H   0  0  0  0  0  0  0  0  0  0  0  0
  145.8680  140.2066  152.7911 H   0  0  0  0  0  0  0  0  0  0  0  0
  146.9521  140.8419  155.2089 H   0  0  0  0  0  0  0  0  0  0  0  0
  146.7021  142.7644  152.8444 H   0  0  0  0  0  0  0  0  0  0  0  0
  146.8262  143.2431  154.5350 H   0  0  0  0  0  0  0  0  0  0  0  0
  145.4245  142.3471  153.9865 H   0  0  0  0  0  0  0  0  0  0  0  0
  149.1118  141.6353  153.2119 H   0  0  0  0  0  0  0  0  0  0  0  0
  149.2730  140.4261  154.4838 H   0  0  0  0  0  0  0  0  0  0  0  0
  149.0379  142.1158  154.9057 H   0  0  0  0  0  0  0  0  0  0  0  0
  148.3582  137.4047  153.0256 H   0  0  0  0  0  0  0  0  0  0  0  0
  150.3818  136.5364  154.2722 H   0  0  0  0  0  0  0  0  0  0  0  0
  150.8595  137.9714  153.4292 H   0  0  0  0  0  0  0  0  0  0  0  0
  151.4587  135.8569  156.0262 H   0  0  0  0  0  0  0  0  0  0  0  0
  153.1982  136.0986  157.7903 H   0  0  0  0  0  0  0  0  0  0  0  0
  1  2  1  0  0  0  0
  1 22  1  0  0  0  0
  1 23  1  0  0  0  0
  1 24  1  0  0  0  0
  2  3  1  0  0  0  0
  2 25  1  0  0  0  0
  3  4  2  0  0  0  0
  3  5  1  0  0  0  0
  5  6  1  0  0  0  0
  5 10  1  0  0  0  0
  5 26  1  0  0  0  0
  6  7  1  0  0  0  0
  6 27  1  0  0  0  0
  6 28  1  0  0  0  0
  7  8  1  0  0  0  0
  7  9  1  0  0  0  0
  7 29  1  0  0  0  0
  8 30  1  0  0  0  0
  8 31  1  0  0  0  0
  8 32  1  0  0  0  0
  9 33  1  0  0  0  0
  9 34  1  0  0  0  0
  9 35  1  0  0  0  0
 10 11  1  0  0  0  0
 10 36  1  0  0  0  0
 11 12  2  0  0  0  0
 11 13  1  0  0  0  0
 13 14  1  0  0  0  0
 13 37  1  0  0  0  0
 13 38  1  0  0  0  0
 14 20  1  0  0  0  0
 14 15  1  0  0  0  0
 15 16  2  0  0  0  0
 15 39  1  0  0  0  0
 16 17  1  0  0  0  0
 16 40  1  0  0  0  0
 17 18  2  0  0  0  0
 17 19  1  0  0  0  0
 19 20  1  0  0  0  0
 20 21  2  0  0  0  0
M  CHG  1  19  -1
M  END
> <s_m_source_file>
AV-unprocessed.smi

> <i_m_source_file_index>
1575

> <i_lp_mmshare_version>
43012

> <i_f3d_flags>
0

> <s_epik_input>
W0NIM11bTkhdQyg9TylbQ0BIXShbQ0gyXVtDSF0oW0NIM10pW0NIM10pW05IXUMoPU8pW0NIMl1uMVtjSF1bY0hdYyg9TylbbkhdYzE9Tw==

> <s_epik_cmdline>
J2VwaWtfcHl0aG9uJywgJy1waCcsICc3LjAnLCAnLXRuJywgJzgnLCAnLW1hJywgJzIwMCcsICctbWV0YWxfYmluZGluZycsICctaW1hZScsICc8aW5maWxlLm1hZT4nLCAnLW9tYWUnLCAnPG91dGZpbGUubWFlPic=

> <r_lp_tautomer_probability>
0.999537

> <r_epik_Ionization_Penalty>
3.03017

> <r_epik_Ionization_Penalty_Charging>
2.35557e-08

> <r_epik_Ionization_Penalty_Neutral>
3.03017

> <r_epik_State_Penalty>
3.02913

> <r_epik_Charging_Adjusted_Penalty>
3.02913

> <i_epik_Tot_Q>
-1

> <i_epik_Tot_abs_Q>
1

> <r_epik_Metal_State_Penalty>
0.455824

> <b_epik_Metal_Only>
1

> <s_lp_Force_Field>
OPLS_2005

> <r_lp_Energy>
14.6611

> <b_lp_Chiralities_Consistent>
1

> <s_lp_Variant>
AV-unprocessed.smi:1575-3

> <Gold.Version>
5.8.1

> <Gold.Id.Protein>
6NUR|6NUR_protein|mol2

> <Gold.PLP.Fitness>
41.5452

> <Gold.PLP.PLP>
-30.1622

> <Gold.PLP.part.hbond>
-5.0000

> <Gold.PLP.part.metal>
0.0000

> <Gold.PLP.part.buried>
-4.2801

> <Gold.PLP.part.nonpolar>
-23.0757

> <Gold.PLP.part.repulsive>
1.0408

> <Gold.PLP.ligand.clash>
0.0000

> <Gold.PLP.ligand.torsion>
1.8322

> <Gold.PLP.Chemscore.Hbond>
5.0000

> <Gold.PLP.Chemscore.CHOScore>
0.0000

> <Gold.PLP.Chemscore.Metal>
0.0000

> <Gold.Chemscore.Hbonds>
donor molecule, donor type, donor heavy atom, donor atom, acceptor molecule, acceptor atom, score
      L1  H     2    25       P1  7948  0.96
      L1  H    10    36       P1  7948  1.00
      P1  H  7989  7998       L1    21  0.99
      P1  H  7997  8010       L1    19  1.88

> <Gold.PLP.Chemscore.Internal.Correction>
0.0474

> <Gold.Rescore>
     Score         DG    S(hbond)    S(metal)    S(lipo)     H(rot)  DE(clash)    DE(int)     intcor
     14.32     -16.76       3.68        0.00      51.24       2.74       0.24       2.20       ----

> <Gold.Chemscore.Fitness>
14.3191

> <Gold.Chemscore.DG>
-16.7574

> <Gold.Chemscore.ZeroCoef>
-5.4800

> <Gold.Chemscore.Hbond>
3.6841

> <Gold.Chemscore.Metal>
0.0000

> <Gold.Chemscore.Lipo>
51.2449

> <Gold.Chemscore.Internal_Hbond>
0.0000

> <Gold.Chemscore.DEClash>
0.2368

> <Gold.Chemscore.DEInternal>
2.2014

> <Gold.Chemscore.Rot>
2.7435

> <Gold.Chemscore.Internal.Correction>
   9.000000E+99

> <Gold.Chemscore.Hbonds>
donor molecule, donor type, donor heavy atom, donor atom, acceptor molecule, acceptor atom, score
      L1  H     2    25       P1  7948  0.92
      L1  H    10    36       P1  7948  1.00
      P1  H  7989  7998       L1    21  0.93
      P1  H  7997  8010       L1    19  0.20

> <Gold.Chemscore.Hbond.Weighted>
-12.3050

> <Gold.Chemscore.Metal.Weighted>
-0.0000

> <Gold.Chemscore.Lipo.Weighted>
-5.9956

> <Gold.Chemscore.Internal_Hbond.Weighted>
0.0000

> <Gold.Chemscore.DEClash.Weighted>
0.2368

> <Gold.Chemscore.DEInternal.Weighted>
2.2014

> <Gold.Chemscore.Rot.Weighted>
7.0233

> <Gold.Chemscore.Internal.Correction.Weighted>
   9.000000E+99

> <Gold.Protein.RotatedTorsions>
[ 6907 6896 6895 6894 ] final  -59.40 input  -60.11 | X-H torsion
[ 7974 7965 7964 7962 ] final -121.79 input  175.53 | X-H torsion
[ 8008 7997 7996 7995 ] final   68.00 input   59.86 | X-H torsion
[ 10167 10162 10161 10158 ] final   76.34 input  -65.29 | X-H torsion
[ 10718 10713 10712 10709 ] final -119.72 input   66.30 | X-H torsion
[ 10763 10752 10751 10750 ] final  179.64 input  -60.55 | X-H torsion
[ 11005 11000 10999 10996 ] final  100.15 input  -57.11 | X-H torsion

> <Gold.Protein.ActiveResidues>
 VAL166  LYS551  ARG553  GLY616  TRP617  ASP618  TYR619  PRO620  LYS621  CYS622 
 ASP623  PHE694  ASN695  SER759  ASP760  ASP761  ALA762  ILE779  LEU786  VAL792 
 PHE793  MET794  SER795  GLU796  ALA797  LYS798  CYS799  TRP800  GLU811  SER814 

> <Gold.Protein.RotatedAtoms>
  150.7933  134.6974  159.6530 H   0  0  0  0  0  0  0  0  0  0  0  0  # atno 6907 bound_to 6896
  152.4042  134.6232  160.0066 H   0  0  0  0  0  0  0  0  0  0  0  0  # atno 6908 bound_to 6896
  151.6494  133.3285  159.3184 H   0  0  0  0  0  0  0  0  0  0  0  0  # atno 6909 bound_to 6896
  145.0364  140.8109  143.4292 H   0  0  0  0  0  0  0  0  0  0  0  0  # atno 7974 bound_to 7965
  155.7016  140.3495  155.4935 H   0  0  0  0  0  0  0  0  0  0  0  0  # atno 8008 bound_to 7997
  155.9435  140.1106  157.1058 H   0  0  0  0  0  0  0  0  0  0  0  0  # atno 8009 bound_to 7997
  154.4107  140.1208  156.4945 H   0  0  0  0  0  0  0  0  0  0  0  0  # atno 8010 bound_to 7997
  139.9933  144.5740  150.7799 H   0  0  0  0  0  0  0  0  0  0  0  0  # atno 10167 bound_to 10162
  156.1203  130.6317  150.9451 H   0  0  0  0  0  0  0  0  0  0  0  0  # atno 10718 bound_to 10713
  154.5233  135.2795  155.1244 H   0  0  0  0  0  0  0  0  0  0  0  0  # atno 10763 bound_to 10752
  154.2793  135.6288  153.5344 H   0  0  0  0  0  0  0  0  0  0  0  0  # atno 10764 bound_to 10752
  152.9941  135.5647  154.5727 H   0  0  0  0  0  0  0  0  0  0  0  0  # atno 10765 bound_to 10752
  139.8771  134.9127  156.4712 H   0  0  0  0  0  0  0  0  0  0  0  0  # atno 11005 bound_to 11000
  145.1703  139.2408  143.5345 LP  0  0  0  0  0  0  0  0  0  0  0  0  # atno 17320 bound_to 7965
  146.3504  140.1453  142.8593 LP  0  0  0  0  0  0  0  0  0  0  0  0  # atno 17321 bound_to 7965
  140.7446  143.2863  151.3453 LP  0  0  0  0  0  0  0  0  0  0  0  0  # atno 17342 bound_to 10162
  139.6324  144.0695  152.2487 LP  0  0  0  0  0  0  0  0  0  0  0  0  # atno 17343 bound_to 10162
  157.6386  131.0913  150.8298 LP  0  0  0  0  0  0  0  0  0  0  0  0  # atno 17370 bound_to 10713
  156.8395  130.5043  149.5322 LP  0  0  0  0  0  0  0  0  0  0  0  0  # atno 17371 bound_to 10713
  140.8794  133.7929  155.9450 LP  0  0  0  0  0  0  0  0  0  0  0  0  # atno 17394 bound_to 11000
  140.8870  134.2542  157.5115 LP  0  0  0  0  0  0  0  0  0  0  0  0  # atno 17395 bound_to 11000

$$$$
