AV-unprocessed.smi:249|AV-procd|sdf|1899|dock5
  -GOLD-   2262020573D 1   1.00000     0.00000
 Structure written by MMmdl.
 64 67  0  0  0  0  0  0  0  0  2 V2000
  143.9140  133.7719  151.9112 C   0  0  0  0  0  0  0  0  0  0  0  0
  145.3004  133.3132  152.3881 C   0  0  0  0  0  0  0  0  0  0  0  0
  145.3279  132.9235  153.8296 N   0  3  1  0  0  0  0  0  0  0  0  0
  146.3693  131.9137  154.1700 C   0  0  0  0  0  0  0  0  0  0  0  0
  147.7851  132.5192  154.1374 C   0  0  0  0  0  0  0  0  0  0  0  0
  147.8946  133.7383  155.0810 C   0  0  1  0  0  0  0  0  0  0  0  0
  149.2324  134.3476  155.1047 N   0  0  0  0  0  0  0  0  0  0  0  0
  150.3774  133.4563  155.2470 C   0  0  0  0  0  0  0  0  0  0  0  0
  149.3623  135.5205  155.7688 C   0  0  0  0  0  0  0  0  0  0  0  0
  148.5111  135.7524  156.7993 N   0  0  0  0  0  0  0  0  0  0  0  0
  148.6194  136.8733  157.5186 C   0  0  0  0  0  0  0  0  0  0  0  0
  149.4990  137.8678  157.3855 N   0  0  0  0  0  0  0  0  0  0  0  0
  150.3483  137.6436  156.3424 C   0  0  0  0  0  0  0  0  0  0  0  0
  150.3380  136.5154  155.4754 C   0  0  0  0  0  0  0  0  0  0  0  0
  151.3421  136.6424  154.5220 N   0  0  0  0  0  0  0  0  0  0  0  0
  151.9243  137.7713  154.8195 C   0  0  0  0  0  0  0  0  0  0  0  0
  151.4153  138.4185  155.9227 N   0  0  0  0  0  0  0  0  0  0  0  0
  151.8936  139.6650  156.4910 C   0  0  0  0  0  0  0  0  0  0  0  0
  150.7804  140.6078  157.0316 C   0  0  2  0  0  0  0  0  0  0  0  0
  150.2936  141.5194  155.8783 C   0  0  0  0  0  0  0  0  0  0  0  0
  149.1560  142.2671  156.2564 O   0  0  0  0  0  0  0  0  0  0  0  0
  151.2134  141.4448  158.2759 C   0  0  2  0  0  0  0  0  0  0  0  0
  151.8324  142.8086  157.9899 C   0  0  0  0  0  0  0  0  0  0  0  0
  152.5840  143.1327  159.2768 C   0  0  0  0  0  0  0  0  0  0  0  0
  152.9224  141.8824  159.8593 O   0  0  0  0  0  0  0  0  0  0  0  0
  152.3539  140.8268  159.0960 C   0  0  0  0  0  0  0  0  0  0  0  0
  146.7648  134.7476  154.7718 C   0  0  0  0  0  0  0  0  0  0  0  0
  145.3825  134.0640  154.7935 C   0  0  1  0  0  0  0  0  0  0  0  0
  144.2269  135.0671  154.6265 C   0  0  0  0  0  0  0  0  0  0  0  0
  143.9761  134.1869  150.9050 H   0  0  0  0  0  0  0  0  0  0  0  0
  143.5078  134.5473  152.5612 H   0  0  0  0  0  0  0  0  0  0  0  0
  143.1994  132.9506  151.8705 H   0  0  0  0  0  0  0  0  0  0  0  0
  145.6630  132.5041  151.7547 H   0  0  0  0  0  0  0  0  0  0  0  0
  145.9740  134.1516  152.2214 H   0  0  0  0  0  0  0  0  0  0  0  0
  146.1654  131.5322  155.1714 H   0  0  0  0  0  0  0  0  0  0  0  0
  146.3101  131.0461  153.5150 H   0  0  0  0  0  0  0  0  0  0  0  0
  148.5122  131.7610  154.4305 H   0  0  0  0  0  0  0  0  0  0  0  0
  148.0297  132.7934  153.1117 H   0  0  0  0  0  0  0  0  0  0  0  0
  147.7237  133.3669  156.0924 H   0  0  0  0  0  0  0  0  0  0  0  0
  151.3147  134.0114  155.1874 H   0  0  0  0  0  0  0  0  0  0  0  0
  150.3782  132.7179  154.4448 H   0  0  0  0  0  0  0  0  0  0  0  0
  150.3560  132.9221  156.1966 H   0  0  0  0  0  0  0  0  0  0  0  0
  147.9065  136.9844  158.3224 H   0  0  0  0  0  0  0  0  0  0  0  0
  152.7639  138.1509  154.2551 H   0  0  0  0  0  0  0  0  0  0  0  0
  152.5973  139.4309  157.2908 H   0  0  0  0  0  0  0  0  0  0  0  0
  152.4731  140.1627  155.7128 H   0  0  0  0  0  0  0  0  0  0  0  0
  149.9274  139.9978  157.3311 H   0  0  0  0  0  0  0  0  0  0  0  0
  151.0531  142.2449  155.5909 H   0  0  0  0  0  0  0  0  0  0  0  0
  150.0604  140.9307  154.9907 H   0  0  0  0  0  0  0  0  0  0  0  0
  149.2774  143.1617  155.9769 H   0  0  0  0  0  0  0  0  0  0  0  0
  150.3548  141.5804  158.9353 H   0  0  0  0  0  0  0  0  0  0  0  0
  152.5335  142.7424  157.1566 H   0  0  0  0  0  0  0  0  0  0  0  0
  151.1062  143.5862  157.7628 H   0  0  0  0  0  0  0  0  0  0  0  0
  153.4719  143.7379  159.0948 H   0  0  0  0  0  0  0  0  0  0  0  0
  151.9407  143.6756  159.9702 H   0  0  0  0  0  0  0  0  0  0  0  0
  152.0150  140.0243  159.7515 H   0  0  0  0  0  0  0  0  0  0  0  0
  153.1266  140.4245  158.4394 H   0  0  0  0  0  0  0  0  0  0  0  0
  146.7775  135.5559  155.5032 H   0  0  0  0  0  0  0  0  0  0  0  0
  146.9201  135.2127  153.7989 H   0  0  0  0  0  0  0  0  0  0  0  0
  145.2517  133.6271  155.7850 H   0  0  0  0  0  0  0  0  0  0  0  0
  144.1911  135.7533  155.4730 H   0  0  0  0  0  0  0  0  0  0  0  0
  143.2636  134.5584  154.5786 H   0  0  0  0  0  0  0  0  0  0  0  0
  144.3360  135.6786  153.7308 H   0  0  0  0  0  0  0  0  0  0  0  0
  144.4402  132.4710  153.9957 H   0  0  0  0  0  0  0  0  0  0  0  0
  1  2  1  0  0  0  0
  1 30  1  0  0  0  0
  1 31  1  0  0  0  0
  1 32  1  0  0  0  0
  2  3  1  0  0  0  0
  2 33  1  0  0  0  0
  2 34  1  0  0  0  0
  3 28  1  0  0  0  0
  3  4  1  0  0  0  0
  3 64  1  0  0  0  0
  4  5  1  0  0  0  0
  4 35  1  0  0  0  0
  4 36  1  0  0  0  0
  5  6  1  0  0  0  0
  5 37  1  0  0  0  0
  5 38  1  0  0  0  0
  6  7  1  0  0  0  0
  6 27  1  0  0  0  0
  6 39  1  0  0  0  0
  7  8  1  0  0  0  0
  7  9  1  0  0  0  0
  8 40  1  0  0  0  0
  8 41  1  0  0  0  0
  8 42  1  0  0  0  0
  9 14  1  0  0  0  0
  9 10  2  0  0  0  0
 10 11  1  0  0  0  0
 11 12  2  0  0  0  0
 11 43  1  0  0  0  0
 12 13  1  0  0  0  0
 13 17  1  0  0  0  0
 13 14  2  0  0  0  0
 14 15  1  0  0  0  0
 15 16  2  0  0  0  0
 16 17  1  0  0  0  0
 16 44  1  0  0  0  0
 17 18  1  0  0  0  0
 18 19  1  0  0  0  0
 18 45  1  0  0  0  0
 18 46  1  0  0  0  0
 19 20  1  0  0  0  0
 19 22  1  0  0  0  0
 19 47  1  0  0  0  0
 20 21  1  0  0  0  0
 20 48  1  0  0  0  0
 20 49  1  0  0  0  0
 21 50  1  0  0  0  0
 22 26  1  0  0  0  0
 22 23  1  0  0  0  0
 22 51  1  0  0  0  0
 23 24  1  0  0  0  0
 23 52  1  0  0  0  0
 23 53  1  0  0  0  0
 24 25  1  0  0  0  0
 24 54  1  0  0  0  0
 24 55  1  0  0  0  0
 25 26  1  0  0  0  0
 26 56  1  0  0  0  0
 26 57  1  0  0  0  0
 27 28  1  0  0  0  0
 27 58  1  0  0  0  0
 27 59  1  0  0  0  0
 28 29  1  0  0  0  0
 28 60  1  0  0  0  0
 29 61  1  0  0  0  0
 29 62  1  0  0  0  0
 29 63  1  0  0  0  0
M  CHG  1   3   1
M  END
> <s_m_source_file>
AV-unprocessed.smi

> <i_m_source_file_index>
249

> <i_lp_mmshare_version>
43012

> <i_f3d_flags>
0

> <s_epik_input>
W0NIM11bQ0gyXU4xW0NIMl1bQ0gyXVtDQEhdKFtDSDJdW0NASF0xW0NIM10pTihbQ0gzXSljKG5bY0hdbjIpYyhjMjMpbltjSF1uM1tDSDJdW0NASF0oW0NIMl1bT0hdKVtDQEBIXTRbQ0gyXVtDSDJdT1tDSDJdNA==

> <s_epik_cmdline>
J2VwaWtfcHl0aG9uJywgJy1waCcsICc3LjAnLCAnLXRuJywgJzgnLCAnLW1hJywgJzIwMCcsICctbWV0YWxfYmluZGluZycsICctaW1hZScsICc8aW5maWxlLm1hZT4nLCAnLW9tYWUnLCAnPG91dGZpbGUubWFlPic=

> <r_lp_tautomer_probability>
1

> <r_epik_Ionization_Penalty>
0.00294688

> <r_epik_Ionization_Penalty_Charging>
0.00169971

> <r_epik_Ionization_Penalty_Neutral>
0.00124717

> <r_epik_State_Penalty>
-0

> <r_epik_Charging_Adjusted_Penalty>
0.00169971

> <i_epik_Tot_Q>
1

> <i_epik_Tot_abs_Q>
1

> <r_epik_Metal_State_Penalty>
-0

> <b_epik_Metal_Only>
0

> <s_lp_Force_Field>
OPLS_2005

> <r_lp_Energy>
54.564

> <b_lp_Chiralities_Consistent>
1

> <s_lp_Variant>
AV-unprocessed.smi:249-2

> <Gold.Version>
5.8.1

> <Gold.Id.Protein>
6NUR|6NUR_protein|mol2

> <Gold.PLP.Fitness>
44.2186

> <Gold.PLP.PLP>
-36.1539

> <Gold.PLP.part.hbond>
-2.9276

> <Gold.PLP.part.metal>
0.0000

> <Gold.PLP.part.buried>
-8.7382

> <Gold.PLP.part.nonpolar>
-26.5003

> <Gold.PLP.part.repulsive>
1.0530

> <Gold.PLP.ligand.clash>
0.0000

> <Gold.PLP.ligand.torsion>
2.3030

> <Gold.PLP.Chemscore.Hbond>
3.8325

> <Gold.PLP.Chemscore.CHOScore>
0.0000

> <Gold.PLP.Chemscore.Metal>
0.0000

> <Gold.Chemscore.Hbonds>
donor molecule, donor type, donor heavy atom, donor atom, acceptor molecule, acceptor atom, score
      L1  H     3    64       P1 10957  1.89
      L1  H    21    50       P1  8028  1.00
      P1  H 10752 10763       L1    15  0.80

> <Gold.PLP.Chemscore.Internal.Correction>
1.1731

> <Gold.Rescore>
     Score         DG    S(hbond)    S(metal)    S(lipo)     H(rot)  DE(clash)    DE(int)     intcor
     11.42     -16.05       2.22        0.00      90.48       2.90       0.02       4.61       ----

> <Gold.Chemscore.Fitness>
11.4215

> <Gold.Chemscore.DG>
-16.0490

> <Gold.Chemscore.ZeroCoef>
-5.4800

> <Gold.Chemscore.Hbond>
2.2182

> <Gold.Chemscore.Metal>
0.0000

> <Gold.Chemscore.Lipo>
90.4764

> <Gold.Chemscore.Internal_Hbond>
0.0000

> <Gold.Chemscore.DEClash>
0.0217

> <Gold.Chemscore.DEInternal>
4.6058

> <Gold.Chemscore.Rot>
2.9006

> <Gold.Chemscore.Internal.Correction>
   9.000000E+99

> <Gold.Chemscore.Hbonds>
donor molecule, donor type, donor heavy atom, donor atom, acceptor molecule, acceptor atom, score
      L1  H     3    64       P1 10957  0.45
      L1  H    21    50       P1  8028  0.99
      P1  H 10752 10763       L1    15  0.12

> <Gold.Chemscore.Hbond.Weighted>
-7.4089

> <Gold.Chemscore.Metal.Weighted>
-0.0000

> <Gold.Chemscore.Lipo.Weighted>
-10.5857

> <Gold.Chemscore.Internal_Hbond.Weighted>
0.0000

> <Gold.Chemscore.DEClash.Weighted>
0.0217

> <Gold.Chemscore.DEInternal.Weighted>
4.6058

> <Gold.Chemscore.Rot.Weighted>
7.4256

> <Gold.Chemscore.Internal.Correction.Weighted>
   9.000000E+99

> <Gold.Protein.RotatedTorsions>
[ 6907 6896 6895 6894 ] final  -93.95 input  -60.11 | X-H torsion
[ 7974 7965 7964 7962 ] final  114.46 input  175.53 | X-H torsion
[ 8008 7997 7996 7995 ] final   -2.07 input   59.86 | X-H torsion
[ 10167 10162 10161 10158 ] final  -83.29 input  -65.29 | X-H torsion
[ 10718 10713 10712 10709 ] final  107.43 input   66.30 | X-H torsion
[ 10763 10752 10751 10750 ] final   43.75 input  -60.55 | X-H torsion
[ 11005 11000 10999 10996 ] final  -24.60 input  -57.11 | X-H torsion

> <Gold.Protein.ActiveResidues>
 VAL166  LYS551  ARG553  GLY616  TRP617  ASP618  TYR619  PRO620  LYS621  CYS622 
 ASP623  PHE694  ASN695  SER759  ASP760  ASP761  ALA762  ILE779  LEU786  VAL792 
 PHE793  MET794  SER795  GLU796  ALA797  LYS798  CYS799  TRP800  GLU811  SER814 

> <Gold.Protein.RotatedAtoms>
  150.6932  134.1888  159.4276 H   0  0  0  0  0  0  0  0  0  0  0  0  # atno 6907 bound_to 6896
  151.9859  135.0002  160.0569 H   0  0  0  0  0  0  0  0  0  0  0  0  # atno 6908 bound_to 6896
  152.1712  133.4610  159.4947 H   0  0  0  0  0  0  0  0  0  0  0  0  # atno 6909 bound_to 6896
  145.2042  139.2937  143.4302 H   0  0  0  0  0  0  0  0  0  0  0  0  # atno 7974 bound_to 7965
  154.6397  140.2543  155.7336 H   0  0  0  0  0  0  0  0  0  0  0  0  # atno 8008 bound_to 7997
  156.2522  140.2890  156.0706 H   0  0  0  0  0  0  0  0  0  0  0  0  # atno 8009 bound_to 7997
  155.1615  140.0384  157.2834 H   0  0  0  0  0  0  0  0  0  0  0  0  # atno 8010 bound_to 7997
  140.4240  143.2573  151.8851 H   0  0  0  0  0  0  0  0  0  0  0  0  # atno 10167 bound_to 10162
  157.6628  131.0872  150.6156 H   0  0  0  0  0  0  0  0  0  0  0  0  # atno 10718 bound_to 10713
  152.9854  135.6092  154.3163 H   0  0  0  0  0  0  0  0  0  0  0  0  # atno 10763 bound_to 10752
  154.2875  135.2775  155.2671 H   0  0  0  0  0  0  0  0  0  0  0  0  # atno 10764 bound_to 10752
  154.4982  135.5874  153.6567 H   0  0  0  0  0  0  0  0  0  0  0  0  # atno 10765 bound_to 10752
  140.8860  133.7621  156.0361 H   0  0  0  0  0  0  0  0  0  0  0  0  # atno 11005 bound_to 11000
  146.3411  140.2296  142.8593 LP  0  0  0  0  0  0  0  0  0  0  0  0  # atno 17320 bound_to 7965
  144.9918  140.8554  143.5334 LP  0  0  0  0  0  0  0  0  0  0  0  0  # atno 17321 bound_to 7965
  139.4783  144.5406  151.8533 LP  0  0  0  0  0  0  0  0  0  0  0  0  # atno 17342 bound_to 10162
  140.4501  144.1866  150.5897 LP  0  0  0  0  0  0  0  0  0  0  0  0  # atno 17343 bound_to 10162
  156.6458  130.4471  149.5736 LP  0  0  0  0  0  0  0  0  0  0  0  0  # atno 17370 bound_to 10713
  156.2175  130.6717  151.1334 LP  0  0  0  0  0  0  0  0  0  0  0  0  # atno 17371 bound_to 10713
  140.8404  134.3073  157.5315 LP  0  0  0  0  0  0  0  0  0  0  0  0  # atno 17394 bound_to 11000
  139.8724  134.9413  156.3792 LP  0  0  0  0  0  0  0  0  0  0  0  0  # atno 17395 bound_to 11000

$$$$
