AV-unprocessed.smi:3018|AV-procd|sdf|11480|dock5
  -GOLD-   2272016413D 1   1.00000     0.00000
 Structure written by MMmdl.
 45 46  0  0  0  0  0  0  0  0  1 V2000
  148.6929  140.9790  156.8323 C   0  0  0  0  0  0  0  0  0  0  0  0
  149.8319  141.7520  156.1462 C   0  0  0  0  0  0  0  0  0  0  0  0
  151.2405  141.1348  156.2845 C   0  0  1  0  0  0  0  0  0  0  0  0
  151.5542  141.0540  157.6773 O   0  0  0  0  0  0  0  0  0  0  0  0
  152.2196  142.1636  158.2837 C   0  0  0  0  0  0  0  0  0  0  0  0
  152.2061  141.9153  159.8021 C   0  0  0  0  0  0  0  0  0  0  0  0
  152.8387  143.0840  160.5743 C   0  0  0  0  0  0  0  0  0  0  0  0
  152.1518  144.4144  160.2306 C   0  0  0  0  0  0  0  0  0  0  0  0
  152.1607  144.6691  158.7154 C   0  0  0  0  0  0  0  0  0  0  0  0
  151.5251  143.4995  157.9465 C   0  0  0  0  0  0  0  0  0  0  0  0
  151.3653  139.7559  155.6121 C   0  0  0  0  0  0  0  0  0  0  0  0
  151.0198  139.5982  154.4410 O   0  0  0  0  0  0  0  0  0  0  0  0
  151.7997  138.7550  156.3936 N   0  0  0  0  0  0  0  0  0  0  0  0
  151.8556  137.3446  156.0167 C   0  0  0  0  0  0  0  0  0  0  0  0
  150.4845  136.8312  155.5269 C   0  0  0  0  0  0  0  0  0  0  0  0
  150.3423  135.3166  155.4483 C   0  0  0  0  0  0  0  0  0  0  0  0
  150.8283  134.4348  156.2496 N   0  0  0  0  0  0  0  0  0  0  0  0
  150.3624  133.2881  155.6958 N   0  0  0  0  0  0  0  0  0  0  0  0
  149.6134  133.4678  154.6015 C   0  0  0  0  0  0  0  0  0  0  0  0
  149.0573  132.6097  153.9207 O   0  0  0  0  0  0  0  0  0  0  0  0
  149.6002  134.7824  154.4238 N   0  0  0  0  0  0  0  0  0  0  0  0
  150.5877  132.4041  156.1291 H   0  0  0  0  0  0  0  0  0  0  0  0
  149.1204  135.2991  153.7010 H   0  0  0  0  0  0  0  0  0  0  0  0
  147.7581  141.5358  156.7642 H   0  0  0  0  0  0  0  0  0  0  0  0
  148.9026  140.8169  157.8900 H   0  0  0  0  0  0  0  0  0  0  0  0
  148.5230  140.0079  156.3685 H   0  0  0  0  0  0  0  0  0  0  0  0
  149.5918  141.8712  155.0888 H   0  0  0  0  0  0  0  0  0  0  0  0
  149.8586  142.7616  156.5571 H   0  0  0  0  0  0  0  0  0  0  0  0
  151.9373  141.8227  155.8054 H   0  0  0  0  0  0  0  0  0  0  0  0
  153.2606  142.2137  157.9688 H   0  0  0  0  0  0  0  0  0  0  0  0
  151.1796  141.7698  160.1412 H   0  0  0  0  0  0  0  0  0  0  0  0
  152.7406  140.9926  160.0301 H   0  0  0  0  0  0  0  0  0  0  0  0
  152.7744  142.8986  161.6467 H   0  0  0  0  0  0  0  0  0  0  0  0
  153.9006  143.1482  160.3366 H   0  0  0  0  0  0  0  0  0  0  0  0
  151.1228  144.3979  160.5920 H   0  0  0  0  0  0  0  0  0  0  0  0
  152.6492  145.2344  160.7492 H   0  0  0  0  0  0  0  0  0  0  0  0
  151.6287  145.5937  158.4906 H   0  0  0  0  0  0  0  0  0  0  0  0
  153.1870  144.8138  158.3759 H   0  0  0  0  0  0  0  0  0  0  0  0
  151.5868  143.7076  156.8789 H   0  0  0  0  0  0  0  0  0  0  0  0
  150.4643  143.4338  158.1911 H   0  0  0  0  0  0  0  0  0  0  0  0
  152.0569  138.9804  157.3439 H   0  0  0  0  0  0  0  0  0  0  0  0
  152.6319  137.1495  155.2750 H   0  0  0  0  0  0  0  0  0  0  0  0
  152.1480  136.7830  156.9042 H   0  0  0  0  0  0  0  0  0  0  0  0
  149.7001  137.2119  156.1815 H   0  0  0  0  0  0  0  0  0  0  0  0
  150.2805  137.2497  154.5402 H   0  0  0  0  0  0  0  0  0  0  0  0
  1  2  1  0  0  0  0
  1 24  1  0  0  0  0
  1 25  1  0  0  0  0
  1 26  1  0  0  0  0
  2  3  1  0  0  0  0
  2 27  1  0  0  0  0
  2 28  1  0  0  0  0
  3  4  1  0  0  0  0
  3 11  1  0  0  0  0
  3 29  1  0  0  0  0
  4  5  1  0  0  0  0
  5 10  1  0  0  0  0
  5  6  1  0  0  0  0
  5 30  1  0  0  0  0
  6  7  1  0  0  0  0
  6 31  1  0  0  0  0
  6 32  1  0  0  0  0
  7  8  1  0  0  0  0
  7 33  1  0  0  0  0
  7 34  1  0  0  0  0
  8  9  1  0  0  0  0
  8 35  1  0  0  0  0
  8 36  1  0  0  0  0
  9 10  1  0  0  0  0
  9 37  1  0  0  0  0
  9 38  1  0  0  0  0
 10 39  1  0  0  0  0
 10 40  1  0  0  0  0
 11 12  2  0  0  0  0
 11 13  1  0  0  0  0
 13 14  1  0  0  0  0
 13 41  1  0  0  0  0
 14 15  1  0  0  0  0
 14 42  1  0  0  0  0
 14 43  1  0  0  0  0
 15 16  1  0  0  0  0
 15 44  1  0  0  0  0
 15 45  1  0  0  0  0
 16 21  1  0  0  0  0
 16 17  2  0  0  0  0
 17 18  1  0  0  0  0
 18 22  1  0  0  0  0
 18 19  1  0  0  0  0
 19 20  2  0  0  0  0
 19 21  1  0  0  0  0
 21 23  1  0  0  0  0
M  END
> <s_m_source_file>
AV-unprocessed.smi

> <i_m_source_file_index>
3018

> <i_lp_mmshare_version>
43012

> <i_f3d_flags>
0

> <s_epik_input>
W0NIMl0xW0NIMl1bQ0gyXVtDSDJdW0NIMl1bQ0hdMU9bQ0BASF0oW0NIMl1bQ0gzXSlDKD1PKVtOSF1bQ0gyXVtDSDJdYzJuW25IXWMoPU8pW25IXTI=

> <s_epik_cmdline>
J2VwaWtfcHl0aG9uJywgJy1waCcsICc3LjAnLCAnLXRuJywgJzgnLCAnLW1hJywgJzIwMCcsICctbWV0YWxfYmluZGluZycsICctaW1hZScsICc8aW5maWxlLm1hZT4nLCAnLW9tYWUnLCAnPG91dGZpbGUubWFlPic=

> <r_lp_tautomer_probability>
1

> <r_epik_Ionization_Penalty>
0.000773817

> <r_epik_Ionization_Penalty_Charging>
0.000773741

> <r_epik_Ionization_Penalty_Neutral>
7.58514e-08

> <r_epik_State_Penalty>
-0

> <r_epik_Charging_Adjusted_Penalty>
0.000773741

> <i_epik_Tot_Q>
0

> <i_epik_Tot_abs_Q>
0

> <r_epik_Metal_State_Penalty>
0.495152

> <b_epik_Metal_Only>
0

> <s_lp_Force_Field>
OPLS_2005

> <r_lp_Energy>
29.5576

> <b_lp_Chiralities_Consistent>
1

> <s_lp_Variant>
AV-unprocessed.smi:3018-2

> <Gold.Version>
5.8.1

> <Gold.Id.Protein>
6NUR|6NUR_protein|mol2

> <Gold.PLP.Fitness>
43.2315

> <Gold.PLP.PLP>
-38.9856

> <Gold.PLP.part.hbond>
-2.0000

> <Gold.PLP.part.metal>
0.0000

> <Gold.PLP.part.buried>
-6.5302

> <Gold.PLP.part.nonpolar>
-30.9511

> <Gold.PLP.part.repulsive>
0.4606

> <Gold.PLP.ligand.clash>
0.0000

> <Gold.PLP.ligand.torsion>
0.9577

> <Gold.PLP.Chemscore.Hbond>
2.0000

> <Gold.PLP.Chemscore.CHOScore>
0.0000

> <Gold.PLP.Chemscore.Metal>
0.0000

> <Gold.Chemscore.Hbonds>
donor molecule, donor type, donor heavy atom, donor atom, acceptor molecule, acceptor atom, score
      L1  H    21    23       P1  7948  0.99
      P1  H  7989  7998       L1    12  1.00

> <Gold.PLP.Chemscore.Internal.Correction>
0.1614

> <Gold.Rescore>
     Score         DG    S(hbond)    S(metal)    S(lipo)     H(rot)  DE(clash)    DE(int)     intcor
     12.38     -15.15       1.92        0.00      94.29       3.04       0.04       2.74       ----

> <Gold.Chemscore.Fitness>
12.3775

> <Gold.Chemscore.DG>
-15.1541

> <Gold.Chemscore.ZeroCoef>
-5.4800

> <Gold.Chemscore.Hbond>
1.9209

> <Gold.Chemscore.Metal>
0.0000

> <Gold.Chemscore.Lipo>
94.2922

> <Gold.Chemscore.Internal_Hbond>
0.0000

> <Gold.Chemscore.DEClash>
0.0396

> <Gold.Chemscore.DEInternal>
2.7369

> <Gold.Chemscore.Rot>
3.0367

> <Gold.Chemscore.Internal.Correction>
   9.000000E+99

> <Gold.Chemscore.Hbonds>
donor molecule, donor type, donor heavy atom, donor atom, acceptor molecule, acceptor atom, score
      L1  H    21    23       P1  7948  0.45
      P1  H  7989  7998       L1    12  0.74

> <Gold.Chemscore.Hbond.Weighted>
-6.4158

> <Gold.Chemscore.Metal.Weighted>
-0.0000

> <Gold.Chemscore.Lipo.Weighted>
-11.0322

> <Gold.Chemscore.Internal_Hbond.Weighted>
0.0000

> <Gold.Chemscore.DEClash.Weighted>
0.0396

> <Gold.Chemscore.DEInternal.Weighted>
2.7369

> <Gold.Chemscore.Rot.Weighted>
7.7739

> <Gold.Chemscore.Internal.Correction.Weighted>
   9.000000E+99

> <Gold.Protein.RotatedTorsions>
[ 6907 6896 6895 6894 ] final  151.91 input  -60.11 | X-H torsion
[ 7974 7965 7964 7962 ] final  -98.02 input  175.53 | X-H torsion
[ 8008 7997 7996 7995 ] final   68.51 input   59.86 | X-H torsion
[ 10167 10162 10161 10158 ] final  -88.93 input  -65.29 | X-H torsion
[ 10718 10713 10712 10709 ] final  -21.50 input   66.30 | X-H torsion
[ 10763 10752 10751 10750 ] final  -34.45 input  -60.55 | X-H torsion
[ 11005 11000 10999 10996 ] final  -91.25 input  -57.11 | X-H torsion

> <Gold.Protein.ActiveResidues>
 VAL166  LYS551  ARG553  GLY616  TRP617  ASP618  TYR619  PRO620  LYS621  CYS622 
 ASP623  PHE694  ASN695  SER759  ASP760  ASP761  ALA762  ILE779  LEU786  VAL792 
 PHE793  MET794  SER795  GLU796  ALA797  LYS798  CYS799  TRP800  GLU811  SER814 

> <Gold.Protein.RotatedAtoms>
  152.0941  133.4215  159.4556 H   0  0  0  0  0  0  0  0  0  0  0  0  # atno 6907 bound_to 6896
  150.6863  134.2837  159.4647 H   0  0  0  0  0  0  0  0  0  0  0  0  # atno 6908 bound_to 6896
  152.0691  134.9544  160.0625 H   0  0  0  0  0  0  0  0  0  0  0  0  # atno 6909 bound_to 6896
  145.3261  140.9432  143.2688 H   0  0  0  0  0  0  0  0  0  0  0  0  # atno 7974 bound_to 7965
  155.7095  140.3494  155.4967 H   0  0  0  0  0  0  0  0  0  0  0  0  # atno 8008 bound_to 7997
  155.9369  140.1094  157.1109 H   0  0  0  0  0  0  0  0  0  0  0  0  # atno 8009 bound_to 7997
  154.4095  140.1220  156.4862 H   0  0  0  0  0  0  0  0  0  0  0  0  # atno 8010 bound_to 7997
  140.3698  143.2800  151.9514 H   0  0  0  0  0  0  0  0  0  0  0  0  # atno 10167 bound_to 10162
  156.5173  130.4624  149.6615 H   0  0  0  0  0  0  0  0  0  0  0  0  # atno 10718 bound_to 10713
  153.8469  135.6852  153.4796 H   0  0  0  0  0  0  0  0  0  0  0  0  # atno 10763 bound_to 10752
  153.1420  135.4653  154.9508 H   0  0  0  0  0  0  0  0  0  0  0  0  # atno 10764 bound_to 10752
  154.7820  135.3272  154.7917 H   0  0  0  0  0  0  0  0  0  0  0  0  # atno 10765 bound_to 10752
  141.1549  133.7744  156.9853 H   0  0  0  0  0  0  0  0  0  0  0  0  # atno 11005 bound_to 11000
  144.8901  139.4786  143.6682 LP  0  0  0  0  0  0  0  0  0  0  0  0  # atno 17320 bound_to 7965
  146.3064  139.7594  142.9053 LP  0  0  0  0  0  0  0  0  0  0  0  0  # atno 17321 bound_to 7965
  139.4805  144.5917  151.7760 LP  0  0  0  0  0  0  0  0  0  0  0  0  # atno 17342 bound_to 10162
  140.5044  144.1119  150.5979 LP  0  0  0  0  0  0  0  0  0  0  0  0  # atno 17343 bound_to 10162
  156.3183  130.7266  151.2173 LP  0  0  0  0  0  0  0  0  0  0  0  0  # atno 17370 bound_to 10713
  157.7442  131.0463  150.4885 LP  0  0  0  0  0  0  0  0  0  0  0  0  # atno 17371 bound_to 10713
  140.1039  134.9519  157.1964 LP  0  0  0  0  0  0  0  0  0  0  0  0  # atno 17394 bound_to 11000
  140.3283  134.2839  155.7233 LP  0  0  0  0  0  0  0  0  0  0  0  0  # atno 17395 bound_to 11000

$$$$
