AV-unprocessed.smi:232|AV-procd|sdf|1776|dock5
  -GOLD-   2262020323D 1   1.00000     0.00000
 Structure written by MMmdl.
 52 55  0  0  0  0  0  0  0  0  1 V2000
  151.1360  144.1995  158.2264 C   0  0  0  0  0  0  0  0  0  0  0  0
  151.0648  142.6744  158.3702 C   0  0  0  0  0  0  0  0  0  0  0  0
  152.4191  142.0348  158.7447 C   0  0  1  0  0  0  0  0  0  0  0  0
  153.1090  142.7000  159.9461 C   0  0  0  0  0  0  0  0  0  0  0  0
  153.8421  141.5604  160.6642 C   0  0  0  0  0  0  0  0  0  0  0  0
  153.5575  140.3205  159.8104 C   0  0  1  0  0  0  0  0  0  0  0  0
  153.4868  139.0181  160.6238 C   0  0  0  0  0  0  0  0  0  0  0  0
  152.3113  140.6289  159.1185 N   0  0  0  0  0  0  0  0  0  0  0  0
  151.9590  139.7985  158.1082 C   0  0  0  0  0  0  0  0  0  0  0  0
  152.5851  139.8685  156.9032 N   0  0  0  0  0  0  0  0  0  0  0  0
  152.2140  139.0544  155.9100 C   0  0  0  0  0  0  0  0  0  0  0  0
  151.2569  138.1231  155.9062 N   0  0  0  0  0  0  0  0  0  0  0  0
  150.6266  138.0561  157.1143 C   0  0  0  0  0  0  0  0  0  0  0  0
  150.9158  138.8484  158.2594 C   0  0  0  0  0  0  0  0  0  0  0  0
  150.0725  138.5023  159.3076 N   0  0  0  0  0  0  0  0  0  0  0  0
  149.3224  137.5578  158.8087 C   0  0  0  0  0  0  0  0  0  0  0  0
  149.5852  137.2300  157.4977 N   0  0  0  0  0  0  0  0  0  0  0  0
  148.8988  136.2278  156.7027 C   0  0  0  0  0  0  0  0  0  0  0  0
  149.7844  135.0006  156.4108 C   0  0  2  0  0  0  0  0  0  0  0  0
  150.7778  135.3578  155.4687 O   0  0  0  0  0  0  0  0  0  0  0  0
  148.9730  133.8151  155.8565 C   0  0  1  0  0  0  0  0  0  0  0  0
  148.6818  133.8943  154.3568 C   0  0  0  0  0  0  0  0  0  0  0  0
  148.4497  132.4409  154.0144 C   0  0  0  0  0  0  0  0  0  0  0  0
  149.4922  131.7458  154.8848 C   0  0  0  0  0  0  0  0  0  0  0  0
  149.7011  132.5982  156.0082 O   0  0  0  0  0  0  0  0  0  0  0  0
  150.1695  144.6049  157.9265 H   0  0  0  0  0  0  0  0  0  0  0  0
  151.8660  144.4882  157.4698 H   0  0  0  0  0  0  0  0  0  0  0  0
  151.4165  144.6772  159.1652 H   0  0  0  0  0  0  0  0  0  0  0  0
  150.3115  142.4113  159.1138 H   0  0  0  0  0  0  0  0  0  0  0  0
  150.7113  142.2659  157.4232 H   0  0  0  0  0  0  0  0  0  0  0  0
  153.0881  142.1014  157.8846 H   0  0  0  0  0  0  0  0  0  0  0  0
  153.7879  143.4911  159.6269 H   0  0  0  0  0  0  0  0  0  0  0  0
  152.3778  143.1450  160.6223 H   0  0  0  0  0  0  0  0  0  0  0  0
  154.9123  141.7468  160.7586 H   0  0  0  0  0  0  0  0  0  0  0  0
  153.4361  141.4422  161.6698 H   0  0  0  0  0  0  0  0  0  0  0  0
  154.3594  140.2320  159.0755 H   0  0  0  0  0  0  0  0  0  0  0  0
  154.4197  138.8442  161.1602 H   0  0  0  0  0  0  0  0  0  0  0  0
  153.3131  138.1558  159.9794 H   0  0  0  0  0  0  0  0  0  0  0  0
  152.6803  139.0528  161.3569 H   0  0  0  0  0  0  0  0  0  0  0  0
  152.7592  139.1680  154.9847 H   0  0  0  0  0  0  0  0  0  0  0  0
  148.5501  137.0712  159.3865 H   0  0  0  0  0  0  0  0  0  0  0  0
  148.0017  135.9274  157.2448 H   0  0  0  0  0  0  0  0  0  0  0  0
  148.5595  136.6862  155.7730 H   0  0  0  0  0  0  0  0  0  0  0  0
  150.2869  134.6931  157.3287 H   0  0  0  0  0  0  0  0  0  0  0  0
  150.3514  135.6006  154.6609 H   0  0  0  0  0  0  0  0  0  0  0  0
  148.0326  133.7102  156.4004 H   0  0  0  0  0  0  0  0  0  0  0  0
  147.8279  134.5300  154.1206 H   0  0  0  0  0  0  0  0  0  0  0  0
  149.5502  134.2711  153.8143 H   0  0  0  0  0  0  0  0  0  0  0  0
  147.4454  132.1417  154.3179 H   0  0  0  0  0  0  0  0  0  0  0  0
  148.5663  132.2237  152.9523 H   0  0  0  0  0  0  0  0  0  0  0  0
  149.1738  130.7503  155.1946 H   0  0  0  0  0  0  0  0  0  0  0  0
  150.4356  131.6466  154.3468 H   0  0  0  0  0  0  0  0  0  0  0  0
  1  2  1  0  0  0  0
  1 26  1  0  0  0  0
  1 27  1  0  0  0  0
  1 28  1  0  0  0  0
  2  3  1  0  0  0  0
  2 29  1  0  0  0  0
  2 30  1  0  0  0  0
  3  8  1  0  0  0  0
  3  4  1  0  0  0  0
  3 31  1  0  0  0  0
  4  5  1  0  0  0  0
  4 32  1  0  0  0  0
  4 33  1  0  0  0  0
  5  6  1  0  0  0  0
  5 34  1  0  0  0  0
  5 35  1  0  0  0  0
  6  7  1  0  0  0  0
  6  8  1  0  0  0  0
  6 36  1  0  0  0  0
  7 37  1  0  0  0  0
  7 38  1  0  0  0  0
  7 39  1  0  0  0  0
  8  9  1  0  0  0  0
  9 14  1  0  0  0  0
  9 10  2  0  0  0  0
 10 11  1  0  0  0  0
 11 12  2  0  0  0  0
 11 40  1  0  0  0  0
 12 13  1  0  0  0  0
 13 17  1  0  0  0  0
 13 14  2  0  0  0  0
 14 15  1  0  0  0  0
 15 16  2  0  0  0  0
 16 17  1  0  0  0  0
 16 41  1  0  0  0  0
 17 18  1  0  0  0  0
 18 19  1  0  0  0  0
 18 42  1  0  0  0  0
 18 43  1  0  0  0  0
 19 20  1  0  0  0  0
 19 21  1  0  0  0  0
 19 44  1  0  0  0  0
 20 45  1  0  0  0  0
 21 25  1  0  0  0  0
 21 22  1  0  0  0  0
 21 46  1  0  0  0  0
 22 23  1  0  0  0  0
 22 47  1  0  0  0  0
 22 48  1  0  0  0  0
 23 24  1  0  0  0  0
 23 49  1  0  0  0  0
 23 50  1  0  0  0  0
 24 25  1  0  0  0  0
 24 51  1  0  0  0  0
 24 52  1  0  0  0  0
M  END
> <s_m_source_file>
AV-unprocessed.smi

> <i_m_source_file_index>
232

> <i_lp_mmshare_version>
43012

> <i_f3d_flags>
0

> <s_epik_input>
W0NIM11bQ0gyXVtDQEBIXTFbQ0gyXVtDSDJdW0NAQEhdKFtDSDNdKU4xYyhuW2NIXW4yKWMoYzIzKW5bY0hdbjNbQ0gyXVtDQEhdKFtPSF0pW0NAQEhdNFtDSDJdW0NIMl1bQ0gyXU80

> <s_epik_cmdline>
J2VwaWtfcHl0aG9uJywgJy1waCcsICc3LjAnLCAnLXRuJywgJzgnLCAnLW1hJywgJzIwMCcsICctbWV0YWxfYmluZGluZycsICctaW1hZScsICc8aW5maWxlLm1hZT4nLCAnLW9tYWUnLCAnPG91dGZpbGUubWFlPic=

> <r_lp_tautomer_probability>
1

> <r_epik_Ionization_Penalty>
0.00258048

> <r_epik_Ionization_Penalty_Charging>
0

> <r_epik_Ionization_Penalty_Neutral>
0.00258048

> <r_epik_State_Penalty>
0.00168551

> <r_epik_Charging_Adjusted_Penalty>
0.00168551

> <i_epik_Tot_Q>
0

> <i_epik_Tot_abs_Q>
0

> <r_epik_Metal_State_Penalty>
-0

> <b_epik_Metal_Only>
0

> <s_lp_Force_Field>
OPLS_2005

> <r_lp_Energy>
51.3027

> <b_lp_Chiralities_Consistent>
1

> <s_lp_Variant>
AV-unprocessed.smi:232-10

> <Gold.Version>
5.8.1

> <Gold.Id.Protein>
6NUR|6NUR_protein|mol2

> <Gold.PLP.Fitness>
44.5121

> <Gold.PLP.PLP>
-40.1879

> <Gold.PLP.part.hbond>
-3.0000

> <Gold.PLP.part.metal>
0.0000

> <Gold.PLP.part.buried>
-5.2818

> <Gold.PLP.part.nonpolar>
-31.7961

> <Gold.PLP.part.repulsive>
0.0103

> <Gold.PLP.ligand.clash>
0.0000

> <Gold.PLP.ligand.torsion>
0.9047

> <Gold.PLP.Chemscore.Hbond>
2.0000

> <Gold.PLP.Chemscore.CHOScore>
0.0000

> <Gold.PLP.Chemscore.Metal>
0.0000

> <Gold.Chemscore.Hbonds>
donor molecule, donor type, donor heavy atom, donor atom, acceptor molecule, acceptor atom, score
      P1  H  7997  8010       L1    10  1.00
      P1  H 10752 10763       L1    20  0.28

> <Gold.PLP.Chemscore.Internal.Correction>
0.1337

> <Gold.Rescore>
     Score         DG    S(hbond)    S(metal)    S(lipo)     H(rot)  DE(clash)    DE(int)     intcor
     14.79     -15.75       1.50        0.00      97.98       2.43       0.10       0.86       ----

> <Gold.Chemscore.Fitness>
14.7908

> <Gold.Chemscore.DG>
-15.7525

> <Gold.Chemscore.ZeroCoef>
-5.4800

> <Gold.Chemscore.Hbond>
1.5027

> <Gold.Chemscore.Metal>
0.0000

> <Gold.Chemscore.Lipo>
97.9837

> <Gold.Chemscore.Internal_Hbond>
0.0000

> <Gold.Chemscore.DEClash>
0.1035

> <Gold.Chemscore.DEInternal>
0.8583

> <Gold.Chemscore.Rot>
2.4260

> <Gold.Chemscore.Internal.Correction>
   9.000000E+99

> <Gold.Chemscore.Hbonds>
donor molecule, donor type, donor heavy atom, donor atom, acceptor molecule, acceptor atom, score
      P1  H  7997  8010       L1    10  0.25
      P1  H 10752 10763       L1    20  0.05

> <Gold.Chemscore.Hbond.Weighted>
-5.0191

> <Gold.Chemscore.Metal.Weighted>
-0.0000

> <Gold.Chemscore.Lipo.Weighted>
-11.4641

> <Gold.Chemscore.Internal_Hbond.Weighted>
0.0000

> <Gold.Chemscore.DEClash.Weighted>
0.1035

> <Gold.Chemscore.DEInternal.Weighted>
0.8583

> <Gold.Chemscore.Rot.Weighted>
6.2107

> <Gold.Chemscore.Internal.Correction.Weighted>
   9.000000E+99

> <Gold.Protein.RotatedTorsions>
[ 6907 6896 6895 6894 ] final  103.23 input  -60.11 | X-H torsion
[ 7974 7965 7964 7962 ] final  160.12 input  175.53 | X-H torsion
[ 8008 7997 7996 7995 ] final   71.73 input   59.86 | X-H torsion
[ 10167 10162 10161 10158 ] final -165.40 input  -65.29 | X-H torsion
[ 10718 10713 10712 10709 ] final  -21.39 input   66.30 | X-H torsion
[ 10763 10752 10751 10750 ] final   68.41 input  -60.55 | X-H torsion
[ 11005 11000 10999 10996 ] final  152.84 input  -57.11 | X-H torsion

> <Gold.Protein.ActiveResidues>
 VAL166  LYS551  ARG553  GLY616  TRP617  ASP618  TYR619  PRO620  LYS621  CYS622 
 ASP623  PHE694  ASN695  SER759  ASP760  ASP761  ALA762  ILE779  LEU786  VAL792 
 PHE793  MET794  SER795  GLU796  ALA797  LYS798  CYS799  TRP800  GLU811  SER814 

> <Gold.Protein.RotatedAtoms>
  152.5301  133.9857  159.7827 H   0  0  0  0  0  0  0  0  0  0  0  0  # atno 6907 bound_to 6896
  151.0103  133.5964  159.2690 H   0  0  0  0  0  0  0  0  0  0  0  0  # atno 6908 bound_to 6896
  151.3041  135.0783  159.9302 H   0  0  0  0  0  0  0  0  0  0  0  0  # atno 6909 bound_to 6896
  144.7753  139.7713  143.6281 H   0  0  0  0  0  0  0  0  0  0  0  0  # atno 7974 bound_to 7965
  155.7583  140.3487  155.5185 H   0  0  0  0  0  0  0  0  0  0  0  0  # atno 8008 bound_to 7997
  155.8938  140.1022  157.1420 H   0  0  0  0  0  0  0  0  0  0  0  0  # atno 8009 bound_to 7997
  154.4036  140.1299  156.4336 H   0  0  0  0  0  0  0  0  0  0  0  0  # atno 8010 bound_to 7997
  139.6184  144.0673  152.1910 H   0  0  0  0  0  0  0  0  0  0  0  0  # atno 10167 bound_to 10162
  156.5189  130.4627  149.6608 H   0  0  0  0  0  0  0  0  0  0  0  0  # atno 10718 bound_to 10713
  153.0234  135.5248  154.7129 H   0  0  0  0  0  0  0  0  0  0  0  0  # atno 10763 bound_to 10752
  154.6206  135.2888  155.0332 H   0  0  0  0  0  0  0  0  0  0  0  0  # atno 10764 bound_to 10752
  154.1320  135.6591  153.4976 H   0  0  0  0  0  0  0  0  0  0  0  0  # atno 10765 bound_to 10752
  140.1344  134.8781  157.2247 H   0  0  0  0  0  0  0  0  0  0  0  0  # atno 11005 bound_to 11000
  146.1929  139.5179  142.9793 LP  0  0  0  0  0  0  0  0  0  0  0  0  # atno 17320 bound_to 7965
  145.6203  141.0324  143.1918 LP  0  0  0  0  0  0  0  0  0  0  0  0  # atno 17321 bound_to 7965
  140.0308  144.6082  150.7489 LP  0  0  0  0  0  0  0  0  0  0  0  0  # atno 17342 bound_to 10162
  140.7366  143.2755  151.3754 LP  0  0  0  0  0  0  0  0  0  0  0  0  # atno 17343 bound_to 10162
  156.3169  130.7259  151.2163 LP  0  0  0  0  0  0  0  0  0  0  0  0  # atno 17370 bound_to 10713
  157.7440  131.0466  150.4903 LP  0  0  0  0  0  0  0  0  0  0  0  0  # atno 17371 bound_to 10713
  140.2801  134.3359  155.7346 LP  0  0  0  0  0  0  0  0  0  0  0  0  # atno 17394 bound_to 11000
  141.2176  133.7473  156.9351 LP  0  0  0  0  0  0  0  0  0  0  0  0  # atno 17395 bound_to 11000

$$$$
