AV-unprocessed.smi:976|AV-procd|sdf|4303|dock10
  -GOLD-   22720 2213D 1   1.00000     0.00000
 Structure written by MMmdl.
 41 42  0  0  0  0  0  0  0  0  1 V2000
  147.0345  135.6770  158.5148 C   0  0  0  0  0  0  0  0  0  0  0  0
  147.7727  136.9720  158.8855 C   0  0  1  0  0  0  0  0  0  0  0  0
  147.8659  137.0214  160.3070 O   0  0  0  0  0  0  0  0  0  0  0  0
  146.6448  136.8158  161.0108 C   0  0  0  0  0  0  0  0  0  0  0  0
  146.8086  135.6361  161.9766 C   0  0  0  0  0  0  0  0  0  0  0  0
  147.6851  135.9632  162.9252 F   0  0  0  0  0  0  0  0  0  0  0  0
  145.6423  135.3471  162.5531 F   0  0  0  0  0  0  0  0  0  0  0  0
  147.2636  134.5666  161.3244 F   0  0  0  0  0  0  0  0  0  0  0  0
  149.1739  137.0172  158.2548 C   0  0  0  0  0  0  0  0  0  0  0  0
  150.0942  136.3756  158.7614 O   0  0  0  0  0  0  0  0  0  0  0  0
  149.2935  137.7802  157.1536 N   0  0  0  0  0  0  0  0  0  0  0  0
  150.4542  138.0119  156.3621 C   0  0  0  0  0  0  0  0  0  0  0  0
  151.6754  137.3333  156.5932 C   0  0  0  0  0  0  0  0  0  0  0  0
  152.7964  137.6488  155.8047 C   0  0  0  0  0  0  0  0  0  0  0  0
  152.6606  138.6420  154.8192 C   0  0  0  0  0  0  0  0  0  0  0  0
  151.5092  139.3077  154.5963 N   0  0  0  0  0  0  0  0  0  0  0  0
  150.4223  139.0077  155.3486 C   0  0  0  0  0  0  0  0  0  0  0  0
  149.2308  139.7092  155.0753 N   0  0  0  0  0  0  0  0  0  0  0  0
  149.3180  141.1632  154.9796 C   0  0  0  0  0  0  0  0  0  0  0  0
  147.9058  141.7684  154.9042 C   0  0  0  0  0  0  0  0  0  0  0  0
  147.1958  141.1924  153.8111 O   0  0  0  0  0  0  0  0  0  0  0  0
  147.0513  139.7814  153.9482 C   0  0  0  0  0  0  0  0  0  0  0  0
  148.4397  139.1213  154.0001 C   0  0  0  0  0  0  0  0  0  0  0  0
  146.9383  135.5707  157.4337 H   0  0  0  0  0  0  0  0  0  0  0  0
  146.0291  135.6716  158.9364 H   0  0  0  0  0  0  0  0  0  0  0  0
  147.5532  134.7955  158.8941 H   0  0  0  0  0  0  0  0  0  0  0  0
  147.1782  137.8171  158.5326 H   0  0  0  0  0  0  0  0  0  0  0  0
  146.3620  137.7066  161.5728 H   0  0  0  0  0  0  0  0  0  0  0  0
  145.8395  136.6062  160.3052 H   0  0  0  0  0  0  0  0  0  0  0  0
  148.4362  138.1693  156.7879 H   0  0  0  0  0  0  0  0  0  0  0  0
  151.7763  136.5931  157.3721 H   0  0  0  0  0  0  0  0  0  0  0  0
  153.7401  137.1470  155.9581 H   0  0  0  0  0  0  0  0  0  0  0  0
  153.5001  138.9143  154.1966 H   0  0  0  0  0  0  0  0  0  0  0  0
  149.8502  141.5614  155.8443 H   0  0  0  0  0  0  0  0  0  0  0  0
  149.8853  141.4418  154.0903 H   0  0  0  0  0  0  0  0  0  0  0  0
  147.3604  141.6003  155.8343 H   0  0  0  0  0  0  0  0  0  0  0  0
  147.9666  142.8471  154.7600 H   0  0  0  0  0  0  0  0  0  0  0  0
  146.4768  139.5490  154.8464 H   0  0  0  0  0  0  0  0  0  0  0  0
  146.4846  139.3981  153.0995 H   0  0  0  0  0  0  0  0  0  0  0  0
  148.9602  139.2709  153.0531 H   0  0  0  0  0  0  0  0  0  0  0  0
  148.3328  138.0453  154.1374 H   0  0  0  0  0  0  0  0  0  0  0  0
  1  2  1  0  0  0  0
  1 24  1  0  0  0  0
  1 25  1  0  0  0  0
  1 26  1  0  0  0  0
  2  3  1  0  0  0  0
  2  9  1  0  0  0  0
  2 27  1  0  0  0  0
  3  4  1  0  0  0  0
  4  5  1  0  0  0  0
  4 28  1  0  0  0  0
  4 29  1  0  0  0  0
  5  6  1  0  0  0  0
  5  7  1  0  0  0  0
  5  8  1  0  0  0  0
  9 10  2  0  0  0  0
  9 11  1  0  0  0  0
 11 12  1  0  0  0  0
 11 30  1  0  0  0  0
 12 17  1  0  0  0  0
 12 13  2  0  0  0  0
 13 14  1  0  0  0  0
 13 31  1  0  0  0  0
 14 15  2  0  0  0  0
 14 32  1  0  0  0  0
 15 16  1  0  0  0  0
 15 33  1  0  0  0  0
 16 17  2  0  0  0  0
 17 18  1  0  0  0  0
 18 23  1  0  0  0  0
 18 19  1  0  0  0  0
 19 20  1  0  0  0  0
 19 34  1  0  0  0  0
 19 35  1  0  0  0  0
 20 21  1  0  0  0  0
 20 36  1  0  0  0  0
 20 37  1  0  0  0  0
 21 22  1  0  0  0  0
 22 23  1  0  0  0  0
 22 38  1  0  0  0  0
 22 39  1  0  0  0  0
 23 40  1  0  0  0  0
 23 41  1  0  0  0  0
M  END
> <s_m_source_file>
AV-unprocessed.smi

> <i_m_source_file_index>
976

> <i_lp_mmshare_version>
43012

> <i_f3d_flags>
0

> <s_epik_input>
RkMoRikoRilbQ0gyXU9bQ0BASF0oW0NIM10pQyg9TylbTkhdYzFbY0hdW2NIXVtjSF1uYzFOMltDSDJdW0NIMl1PW0NIMl1bQ0gyXTI=

> <s_epik_cmdline>
J2VwaWtfcHl0aG9uJywgJy1waCcsICc3LjAnLCAnLXRuJywgJzgnLCAnLW1hJywgJzIwMCcsICctbWV0YWxfYmluZGluZycsICctaW1hZScsICc8aW5maWxlLm1hZT4nLCAnLW9tYWUnLCAnPG91dGZpbGUubWFlPic=

> <r_lp_tautomer_probability>
1

> <r_epik_Ionization_Penalty>
0.000443367

> <r_epik_Ionization_Penalty_Charging>
0

> <r_epik_Ionization_Penalty_Neutral>
0.000443367

> <r_epik_State_Penalty>
0.00027288

> <r_epik_Charging_Adjusted_Penalty>
0.00027288

> <i_epik_Tot_Q>
0

> <i_epik_Tot_abs_Q>
0

> <r_epik_Metal_State_Penalty>
-0

> <b_epik_Metal_Only>
0

> <s_lp_Force_Field>
OPLS_2005

> <r_lp_Energy>
26.1197

> <b_lp_Chiralities_Consistent>
1

> <s_lp_Variant>
AV-unprocessed.smi:976-2

> <Gold.Version>
5.8.1

> <Gold.Id.Protein>
6NUR|6NUR_protein|mol2

> <Gold.PLP.Fitness>
42.1245

> <Gold.PLP.PLP>
-36.5844

> <Gold.PLP.part.hbond>
-4.0000

> <Gold.PLP.part.metal>
0.0000

> <Gold.PLP.part.buried>
-4.5431

> <Gold.PLP.part.nonpolar>
-27.9253

> <Gold.PLP.part.repulsive>
0.3099

> <Gold.PLP.ligand.clash>
0.0000

> <Gold.PLP.ligand.torsion>
1.4428

> <Gold.PLP.Chemscore.Hbond>
2.7296

> <Gold.PLP.Chemscore.CHOScore>
0.0000

> <Gold.PLP.Chemscore.Metal>
0.0000

> <Gold.Chemscore.Hbonds>
donor molecule, donor type, donor heavy atom, donor atom, acceptor molecule, acceptor atom, score
      P1  H  6896  6907       L1    10  1.00
      P1  H  6931  6943       L1     3  0.21
      P1  H  7989  7998       L1    16  1.00

> <Gold.PLP.Chemscore.Internal.Correction>
0.2371

> <Gold.Rescore>
     Score         DG    S(hbond)    S(metal)    S(lipo)     H(rot)  DE(clash)    DE(int)     intcor
     12.92     -15.31       2.09        0.00      67.05       1.95       0.18       2.21       ----

> <Gold.Chemscore.Fitness>
12.9228

> <Gold.Chemscore.DG>
-15.3147

> <Gold.Chemscore.ZeroCoef>
-5.4800

> <Gold.Chemscore.Hbond>
2.0898

> <Gold.Chemscore.Metal>
0.0000

> <Gold.Chemscore.Lipo>
67.0458

> <Gold.Chemscore.Internal_Hbond>
0.0000

> <Gold.Chemscore.DEClash>
0.1775

> <Gold.Chemscore.DEInternal>
2.2144

> <Gold.Chemscore.Rot>
1.9491

> <Gold.Chemscore.Internal.Correction>
   9.000000E+99

> <Gold.Chemscore.Hbonds>
donor molecule, donor type, donor heavy atom, donor atom, acceptor molecule, acceptor atom, score
      P1  H  6896  6907       L1    10  0.99
      P1  H  6931  6943       L1     3  0.05
      P1  H  7989  7998       L1    16  0.89

> <Gold.Chemscore.Hbond.Weighted>
-6.9800

> <Gold.Chemscore.Metal.Weighted>
-0.0000

> <Gold.Chemscore.Lipo.Weighted>
-7.8444

> <Gold.Chemscore.Internal_Hbond.Weighted>
0.0000

> <Gold.Chemscore.DEClash.Weighted>
0.1775

> <Gold.Chemscore.DEInternal.Weighted>
2.2144

> <Gold.Chemscore.Rot.Weighted>
4.9897

> <Gold.Chemscore.Internal.Correction.Weighted>
   9.000000E+99

> <Gold.Protein.RotatedTorsions>
[ 6907 6896 6895 6894 ] final  -40.83 input  -60.11 | X-H torsion
[ 7974 7965 7964 7962 ] final   -8.09 input  175.53 | X-H torsion
[ 8008 7997 7996 7995 ] final   -3.04 input   59.86 | X-H torsion
[ 10167 10162 10161 10158 ] final  171.60 input  -65.29 | X-H torsion
[ 10718 10713 10712 10709 ] final -124.50 input   66.30 | X-H torsion
[ 10763 10752 10751 10750 ] final  -89.25 input  -60.55 | X-H torsion
[ 11005 11000 10999 10996 ] final  161.36 input  -57.11 | X-H torsion

> <Gold.Protein.ActiveResidues>
 VAL166  LYS551  ARG553  GLY616  TRP617  ASP618  TYR619  PRO620  LYS621  CYS622 
 ASP623  PHE694  ASN695  SER759  ASP760  ASP761  ALA762  ILE779  LEU786  VAL792 
 PHE793  MET794  SER795  GLU796  ALA797  LYS798  CYS799  TRP800  GLU811  SER814 

> <Gold.Protein.RotatedAtoms>
  150.9738  134.9106  159.7803 H   0  0  0  0  0  0  0  0  0  0  0  0  # atno 6907 bound_to 6896
  152.5199  134.3504  159.9259 H   0  0  0  0  0  0  0  0  0  0  0  0  # atno 6908 bound_to 6896
  151.3513  133.3883  159.2715 H   0  0  0  0  0  0  0  0  0  0  0  0  # atno 6909 bound_to 6896
  146.2290  140.2416  142.8343 H   0  0  0  0  0  0  0  0  0  0  0  0  # atno 7974 bound_to 7965
  154.6291  140.2519  155.7455 H   0  0  0  0  0  0  0  0  0  0  0  0  # atno 8008 bound_to 7997
  156.2470  140.2910  156.0555 H   0  0  0  0  0  0  0  0  0  0  0  0  # atno 8009 bound_to 7997
  155.1773  140.0388  157.2865 H   0  0  0  0  0  0  0  0  0  0  0  0  # atno 8010 bound_to 7997
  139.5051  144.3467  151.9963 H   0  0  0  0  0  0  0  0  0  0  0  0  # atno 10167 bound_to 10162
  156.1593  130.6590  151.0026 H   0  0  0  0  0  0  0  0  0  0  0  0  # atno 10718 bound_to 10713
  154.6532  135.5347  153.7927 H   0  0  0  0  0  0  0  0  0  0  0  0  # atno 10763 bound_to 10752
  153.0398  135.6487  154.0984 H   0  0  0  0  0  0  0  0  0  0  0  0  # atno 10764 bound_to 10752
  154.0900  135.2941  155.3253 H   0  0  0  0  0  0  0  0  0  0  0  0  # atno 10765 bound_to 10752
  140.2151  134.8238  157.3161 H   0  0  0  0  0  0  0  0  0  0  0  0  # atno 11005 bound_to 11000
  144.9480  140.8148  143.5589 LP  0  0  0  0  0  0  0  0  0  0  0  0  # atno 17320 bound_to 7965
  145.2374  139.2087  143.5011 LP  0  0  0  0  0  0  0  0  0  0  0  0  # atno 17321 bound_to 7965
  140.2905  144.3759  150.6090 LP  0  0  0  0  0  0  0  0  0  0  0  0  # atno 17342 bound_to 10162
  140.5950  143.2167  151.7181 LP  0  0  0  0  0  0  0  0  0  0  0  0  # atno 17343 bound_to 10162
  157.6720  131.0859  150.7589 LP  0  0  0  0  0  0  0  0  0  0  0  0  # atno 17370 bound_to 10713
  156.7653  130.4811  149.5429 LP  0  0  0  0  0  0  0  0  0  0  0  0  # atno 17371 bound_to 10713
  140.1909  134.4372  155.7716 LP  0  0  0  0  0  0  0  0  0  0  0  0  # atno 17394 bound_to 11000
  141.2225  133.7027  156.8026 LP  0  0  0  0  0  0  0  0  0  0  0  0  # atno 17395 bound_to 11000

$$$$
