AV-unprocessed.smi:1580|AV-procd|sdf|6359|dock9
  -GOLD-   22720 6583D 1   1.00000     0.00000
 Structure written by MMmdl.
 37 38  0  0  0  0  0  0  0  0  1 V2000
  154.9437  136.4793  158.1763 C   0  0  0  0  0  0  0  0  0  0  0  0
  153.3723  137.3703  158.5206 S   0  0  0  0  0  0  0  0  0  0  0  0
  152.8421  136.8721  159.7996 O   0  0  0  0  0  0  0  0  0  0  0  0
  153.6107  138.8115  158.3456 O   0  0  0  0  0  0  0  0  0  0  0  0
  152.2807  136.8294  157.2102 C   0  0  0  0  0  0  0  0  0  0  0  0
  151.9894  137.6819  156.1270 C   0  0  0  0  0  0  0  0  0  0  0  0
  151.0937  137.2234  155.1423 C   0  0  0  0  0  0  0  0  0  0  0  0
  150.5197  135.9348  155.2832 C   0  0  0  0  0  0  0  0  0  0  0  0
  149.6006  135.3469  154.3700 N   0  0  0  0  0  0  0  0  0  0  0  0
  148.7584  134.3142  154.5483 C   0  0  0  0  0  0  0  0  0  0  0  0
  148.6330  133.6599  155.5826 O   0  0  0  0  0  0  0  0  0  0  0  0
  148.0481  134.0759  153.4371 N   0  0  0  0  0  0  0  0  0  0  0  0
  147.0602  133.0132  153.2886 C   0  0  0  0  0  0  0  0  0  0  0  0
  146.5871  132.8840  151.8312 C   0  0  1  0  0  0  0  0  0  0  0  0
  145.5481  131.7846  151.6184 C   0  0  0  0  0  0  0  0  0  0  0  0
  144.8398  132.2727  150.3757 C   0  0  0  0  0  0  0  0  0  0  0  0
  144.7954  133.7784  150.6166 C   0  0  0  0  0  0  0  0  0  0  0  0
  145.9445  134.0836  151.4036 O   0  0  0  0  0  0  0  0  0  0  0  0
  150.8717  135.1805  156.4236 C   0  0  0  0  0  0  0  0  0  0  0  0
  151.7272  135.6096  157.3747 N   0  0  0  0  0  0  0  0  0  0  0  0
  155.6851  136.7473  158.9285 H   0  0  0  0  0  0  0  0  0  0  0  0
  155.3111  136.7586  157.1890 H   0  0  0  0  0  0  0  0  0  0  0  0
  154.7663  135.4045  158.2074 H   0  0  0  0  0  0  0  0  0  0  0  0
  152.4362  138.6617  156.0468 H   0  0  0  0  0  0  0  0  0  0  0  0
  150.8677  137.8752  154.3142 H   0  0  0  0  0  0  0  0  0  0  0  0
  149.5609  135.7887  153.4633 H   0  0  0  0  0  0  0  0  0  0  0  0
  148.2119  134.6596  152.6300 H   0  0  0  0  0  0  0  0  0  0  0  0
  147.4779  132.0666  153.6353 H   0  0  0  0  0  0  0  0  0  0  0  0
  146.2143  133.2340  153.9399 H   0  0  0  0  0  0  0  0  0  0  0  0
  147.4334  132.6999  151.1672 H   0  0  0  0  0  0  0  0  0  0  0  0
  145.9933  130.7967  151.4976 H   0  0  0  0  0  0  0  0  0  0  0  0
  144.8485  131.7455  152.4547 H   0  0  0  0  0  0  0  0  0  0  0  0
  145.4386  132.0498  149.4915 H   0  0  0  0  0  0  0  0  0  0  0  0
  143.8516  131.8320  150.2413 H   0  0  0  0  0  0  0  0  0  0  0  0
  144.7862  134.3471  149.6867 H   0  0  0  0  0  0  0  0  0  0  0  0
  143.9052  134.0471  151.1865 H   0  0  0  0  0  0  0  0  0  0  0  0
  150.4519  134.1975  156.5803 H   0  0  0  0  0  0  0  0  0  0  0  0
  1  2  1  0  0  0  0
  1 21  1  0  0  0  0
  1 22  1  0  0  0  0
  1 23  1  0  0  0  0
  2  3  2  0  0  0  0
  2  4  2  0  0  0  0
  2  5  1  0  0  0  0
  5 20  1  0  0  0  0
  5  6  2  0  0  0  0
  6  7  1  0  0  0  0
  6 24  1  0  0  0  0
  7  8  2  0  0  0  0
  7 25  1  0  0  0  0
  8  9  1  0  0  0  0
  8 19  1  0  0  0  0
  9 10  1  0  0  0  0
  9 26  1  0  0  0  0
 10 11  2  0  0  0  0
 10 12  1  0  0  0  0
 12 13  1  0  0  0  0
 12 27  1  0  0  0  0
 13 14  1  0  0  0  0
 13 28  1  0  0  0  0
 13 29  1  0  0  0  0
 14 18  1  0  0  0  0
 14 15  1  0  0  0  0
 14 30  1  0  0  0  0
 15 16  1  0  0  0  0
 15 31  1  0  0  0  0
 15 32  1  0  0  0  0
 16 17  1  0  0  0  0
 16 33  1  0  0  0  0
 16 34  1  0  0  0  0
 17 18  1  0  0  0  0
 17 35  1  0  0  0  0
 17 36  1  0  0  0  0
 19 20  2  0  0  0  0
 19 37  1  0  0  0  0
M  END
> <s_m_source_file>
AV-unprocessed.smi

> <i_m_source_file_index>
1580

> <i_lp_mmshare_version>
43012

> <i_f3d_flags>
0

> <s_epik_input>
W0NIM11TKD1PKSg9TyljMVtjSF1bY0hdYyhbY0hdbjEpW05IXUMoPU8pW05IXVtDSDJdW0NAQEhdMltDSDJdW0NIMl1bQ0gyXU8y

> <s_epik_cmdline>
J2VwaWtfcHl0aG9uJywgJy1waCcsICc3LjAnLCAnLXRuJywgJzgnLCAnLW1hJywgJzIwMCcsICctbWV0YWxfYmluZGluZycsICctaW1hZScsICc8aW5maWxlLm1hZT4nLCAnLW9tYWUnLCAnPG91dGZpbGUubWFlPic=

> <r_lp_tautomer_probability>
1

> <r_epik_Ionization_Penalty>
3.28405e-05

> <r_epik_Ionization_Penalty_Charging>
0

> <r_epik_Ionization_Penalty_Neutral>
3.28405e-05

> <r_epik_State_Penalty>
-0

> <r_epik_Charging_Adjusted_Penalty>
0

> <i_epik_Tot_Q>
0

> <i_epik_Tot_abs_Q>
0

> <r_epik_Metal_State_Penalty>
-0

> <b_epik_Metal_Only>
0

> <s_lp_Force_Field>
OPLS_2005

> <r_lp_Energy>
18.5383

> <b_lp_Chiralities_Consistent>
1

> <s_lp_Variant>
AV-unprocessed.smi:1580-2

> <Gold.Version>
5.8.1

> <Gold.Id.Protein>
6NUR|6NUR_protein|mol2

> <Gold.PLP.Fitness>
38.4448

> <Gold.PLP.PLP>
-26.9954

> <Gold.PLP.part.hbond>
-5.1708

> <Gold.PLP.part.metal>
0.0000

> <Gold.PLP.part.buried>
-5.4182

> <Gold.PLP.part.nonpolar>
-17.4508

> <Gold.PLP.part.repulsive>
0.2141

> <Gold.PLP.ligand.clash>
0.0000

> <Gold.PLP.ligand.torsion>
1.1274

> <Gold.PLP.Chemscore.Hbond>
3.8920

> <Gold.PLP.Chemscore.CHOScore>
0.0000

> <Gold.PLP.Chemscore.Metal>
0.0000

> <Gold.Chemscore.Hbonds>
donor molecule, donor type, donor heavy atom, donor atom, acceptor molecule, acceptor atom, score
      L1  H     9    26       P1  7948  0.90
      L1  H    12    27       P1  7948  1.00
      P1  H  6896  6908       L1     3  1.00
      P1  H  7997  8009       L1     4  0.96

> <Gold.PLP.Chemscore.Internal.Correction>
2.0282

> <Gold.Rescore>
     Score         DG    S(hbond)    S(metal)    S(lipo)     H(rot)  DE(clash)    DE(int)     intcor
     17.11     -19.60       3.29        0.00      54.66       1.27       0.00       2.50       ----

> <Gold.Chemscore.Fitness>
17.1071

> <Gold.Chemscore.DG>
-19.6037

> <Gold.Chemscore.ZeroCoef>
-5.4800

> <Gold.Chemscore.Hbond>
3.2892

> <Gold.Chemscore.Metal>
0.0000

> <Gold.Chemscore.Lipo>
54.6616

> <Gold.Chemscore.Internal_Hbond>
0.0000

> <Gold.Chemscore.DEClash>
0.0000

> <Gold.Chemscore.DEInternal>
2.4966

> <Gold.Chemscore.Rot>
1.2725

> <Gold.Chemscore.Internal.Correction>
   9.000000E+99

> <Gold.Chemscore.Hbonds>
donor molecule, donor type, donor heavy atom, donor atom, acceptor molecule, acceptor atom, score
      L1  H     9    26       P1  7948  0.18
      L1  H    12    27       P1  7948  0.43
      P1  H  6896  6908       L1     3  0.96
      P1  H  7997  8009       L1     4  0.91

> <Gold.Chemscore.Hbond.Weighted>
-10.9859

> <Gold.Chemscore.Metal.Weighted>
-0.0000

> <Gold.Chemscore.Lipo.Weighted>
-6.3954

> <Gold.Chemscore.Internal_Hbond.Weighted>
0.0000

> <Gold.Chemscore.DEClash.Weighted>
0.0000

> <Gold.Chemscore.DEInternal.Weighted>
2.4966

> <Gold.Chemscore.Rot.Weighted>
3.2576

> <Gold.Chemscore.Internal.Correction.Weighted>
   9.000000E+99

> <Gold.Protein.RotatedTorsions>
[ 6907 6896 6895 6894 ] final  -95.80 input  -60.11 | X-H torsion
[ 7974 7965 7964 7962 ] final   17.73 input  175.53 | X-H torsion
[ 8008 7997 7996 7995 ] final  136.72 input   59.86 | X-H torsion
[ 10167 10162 10161 10158 ] final -127.81 input  -65.29 | X-H torsion
[ 10718 10713 10712 10709 ] final  149.58 input   66.30 | X-H torsion
[ 10763 10752 10751 10750 ] final   80.94 input  -60.55 | X-H torsion
[ 11005 11000 10999 10996 ] final   -8.22 input  -57.11 | X-H torsion

> <Gold.Protein.ActiveResidues>
 VAL166  LYS551  ARG553  GLY616  TRP617  ASP618  TYR619  PRO620  LYS621  CYS622 
 ASP623  PHE694  ASN695  SER759  ASP760  ASP761  ALA762  ILE779  LEU786  VAL792 
 PHE793  MET794  SER795  GLU796  ALA797  LYS798  CYS799  TRP800  GLU811  SER814 

> <Gold.Protein.RotatedAtoms>
  150.6972  134.1601  159.4172 H   0  0  0  0  0  0  0  0  0  0  0  0  # atno 6907 bound_to 6896
  151.9582  135.0134  160.0555 H   0  0  0  0  0  0  0  0  0  0  0  0  # atno 6908 bound_to 6896
  152.1950  133.4765  159.5065 H   0  0  0  0  0  0  0  0  0  0  0  0  # atno 6909 bound_to 6896
  146.2209  139.8560  142.8613 H   0  0  0  0  0  0  0  0  0  0  0  0  # atno 7974 bound_to 7965
  156.3003  140.2438  156.3792 H   0  0  0  0  0  0  0  0  0  0  0  0  # atno 8008 bound_to 7997
  154.8717  140.0416  157.1748 H   0  0  0  0  0  0  0  0  0  0  0  0  # atno 8009 bound_to 7997
  154.8789  140.2946  155.5441 H   0  0  0  0  0  0  0  0  0  0  0  0  # atno 8010 bound_to 7997
  139.9569  143.5993  152.2458 H   0  0  0  0  0  0  0  0  0  0  0  0  # atno 10167 bound_to 10162
  157.2943  131.0859  151.1438 H   0  0  0  0  0  0  0  0  0  0  0  0  # atno 10718 bound_to 10713
  153.1075  135.4784  154.8978 H   0  0  0  0  0  0  0  0  0  0  0  0  # atno 10763 bound_to 10752
  154.7446  135.3090  154.8670 H   0  0  0  0  0  0  0  0  0  0  0  0  # atno 10764 bound_to 10752
  153.9268  135.6849  153.4800 H   0  0  0  0  0  0  0  0  0  0  0  0  # atno 10765 bound_to 10752
  140.7212  133.8827  155.8822 H   0  0  0  0  0  0  0  0  0  0  0  0  # atno 11005 bound_to 11000
  145.2753  141.0122  143.3748 LP  0  0  0  0  0  0  0  0  0  0  0  0  # atno 17320 bound_to 7965
  144.9192  139.4433  143.6549 LP  0  0  0  0  0  0  0  0  0  0  0  0  # atno 17321 bound_to 7965
  139.6584  144.7662  151.2010 LP  0  0  0  0  0  0  0  0  0  0  0  0  # atno 17342 bound_to 10162
  140.7565  143.6049  150.8663 LP  0  0  0  0  0  0  0  0  0  0  0  0  # atno 17343 bound_to 10162
  157.2822  130.6755  149.6071 LP  0  0  0  0  0  0  0  0  0  0  0  0  # atno 17370 bound_to 10713
  155.9668  130.4446  150.5469 LP  0  0  0  0  0  0  0  0  0  0  0  0  # atno 17371 bound_to 10713
  141.0002  134.1160  157.4324 LP  0  0  0  0  0  0  0  0  0  0  0  0  # atno 17394 bound_to 11000
  139.8848  135.0066  156.6391 LP  0  0  0  0  0  0  0  0  0  0  0  0  # atno 17395 bound_to 11000

$$$$
