AV-unprocessed.smi:2128|AV-procd|sdf|8681|dock4
  -GOLD-   2272011433D 1   1.00000     0.00000
 Structure written by MMmdl.
 50 52  0  0  0  0  0  0  0  0  1 V2000
  153.6716  141.9657  159.8087 O   0  0  0  0  0  0  0  0  0  0  0  0
  152.8272  142.3702  159.0126 C   0  0  0  0  0  0  0  0  0  0  0  0
  151.9830  141.3531  158.2228 C   0  0  0  0  0  0  0  0  0  0  0  0
  151.1153  141.9160  157.1773 N   0  0  0  0  0  0  0  0  0  0  0  0
  150.5133  140.9980  156.2805 C   0  0  0  0  0  0  0  0  0  0  0  0
  151.2966  140.0853  155.5299 C   0  0  0  0  0  0  0  0  0  0  0  0
  150.6635  139.1907  154.6457 C   0  0  0  0  0  0  0  0  0  0  0  0
  149.2551  139.2196  154.5322 C   0  0  0  0  0  0  0  0  0  0  0  0
  148.5033  138.3843  153.6625 N   0  0  0  0  0  0  0  0  0  0  0  0
  147.1856  138.1222  153.6900 C   0  0  0  0  0  0  0  0  0  0  0  0
  146.3850  138.5908  154.4990 O   0  0  0  0  0  0  0  0  0  0  0  0
  146.8364  137.2959  152.6929 N   0  0  0  0  0  0  0  0  0  0  0  0
  145.4768  136.8531  152.3931 C   0  0  0  0  0  0  0  0  0  0  0  0
  145.3842  136.1582  151.0202 C   0  0  0  0  0  0  0  0  0  0  0  0
  145.4070  134.6385  151.0925 C   0  0  0  0  0  0  0  0  0  0  0  0
  146.4749  133.9649  151.5631 C   0  0  0  0  0  0  0  0  0  0  0  0
  146.5489  132.4527  151.6755 C   0  0  0  0  0  0  0  0  0  0  0  0
  145.1693  131.7871  151.5394 C   0  0  0  0  0  0  0  0  0  0  0  0
  144.3612  132.4156  150.3976 C   0  0  0  0  0  0  0  0  0  0  0  0
  144.1444  133.9222  150.6258 C   0  0  0  0  0  0  0  0  0  0  0  0
  148.5597  140.1678  155.3064 C   0  0  0  0  0  0  0  0  0  0  0  0
  149.1629  141.0245  156.1560 N   0  0  0  0  0  0  0  0  0  0  0  0
  151.3518  143.2893  156.7226 C   0  0  0  0  0  0  0  0  0  0  0  0
  151.6190  144.2248  157.9096 C   0  0  0  0  0  0  0  0  0  0  0  0
  152.6306  143.6812  158.8048 N   0  0  0  0  0  0  0  0  0  0  0  0
  152.6585  140.6188  157.7808 H   0  0  0  0  0  0  0  0  0  0  0  0
  151.3665  140.8302  158.9542 H   0  0  0  0  0  0  0  0  0  0  0  0
  152.3717  140.0493  155.6153 H   0  0  0  0  0  0  0  0  0  0  0  0
  151.2716  138.5133  154.0665 H   0  0  0  0  0  0  0  0  0  0  0  0
  149.0176  137.9931  152.8869 H   0  0  0  0  0  0  0  0  0  0  0  0
  147.5648  136.9641  152.0775 H   0  0  0  0  0  0  0  0  0  0  0  0
  145.1782  136.1500  153.1707 H   0  0  0  0  0  0  0  0  0  0  0  0
  144.7707  137.6822  152.4569 H   0  0  0  0  0  0  0  0  0  0  0  0
  144.4688  136.4793  150.5212 H   0  0  0  0  0  0  0  0  0  0  0  0
  146.2055  136.4870  150.3826 H   0  0  0  0  0  0  0  0  0  0  0  0
  147.3575  134.5061  151.8715 H   0  0  0  0  0  0  0  0  0  0  0  0
  147.2198  132.0913  150.8955 H   0  0  0  0  0  0  0  0  0  0  0  0
  146.9981  132.1836  152.6317 H   0  0  0  0  0  0  0  0  0  0  0  0
  145.2864  130.7152  151.3777 H   0  0  0  0  0  0  0  0  0  0  0  0
  144.6165  131.9001  152.4728 H   0  0  0  0  0  0  0  0  0  0  0  0
  144.8934  132.2648  149.4571 H   0  0  0  0  0  0  0  0  0  0  0  0
  143.3996  131.9131  150.2915 H   0  0  0  0  0  0  0  0  0  0  0  0
  143.3723  134.0777  151.3800 H   0  0  0  0  0  0  0  0  0  0  0  0
  143.7756  134.3718  149.7043 H   0  0  0  0  0  0  0  0  0  0  0  0
  147.4834  140.2408  155.2482 H   0  0  0  0  0  0  0  0  0  0  0  0
  152.2036  143.2946  156.0404 H   0  0  0  0  0  0  0  0  0  0  0  0
  150.4932  143.6770  156.1723 H   0  0  0  0  0  0  0  0  0  0  0  0
  151.9375  145.2059  157.5566 H   0  0  0  0  0  0  0  0  0  0  0  0
  150.7021  144.3746  158.4814 H   0  0  0  0  0  0  0  0  0  0  0  0
  153.1986  144.3392  159.3189 H   0  0  0  0  0  0  0  0  0  0  0  0
  1  2  2  0  0  0  0
  2 25  1  0  0  0  0
  2  3  1  0  0  0  0
  3  4  1  0  0  0  0
  3 26  1  0  0  0  0
  3 27  1  0  0  0  0
  4  5  1  0  0  0  0
  4 23  1  0  0  0  0
  5 22  1  0  0  0  0
  5  6  2  0  0  0  0
  6  7  1  0  0  0  0
  6 28  1  0  0  0  0
  7  8  2  0  0  0  0
  7 29  1  0  0  0  0
  8  9  1  0  0  0  0
  8 21  1  0  0  0  0
  9 10  1  0  0  0  0
  9 30  1  0  0  0  0
 10 11  2  0  0  0  0
 10 12  1  0  0  0  0
 12 13  1  0  0  0  0
 12 31  1  0  0  0  0
 13 14  1  0  0  0  0
 13 32  1  0  0  0  0
 13 33  1  0  0  0  0
 14 15  1  0  0  0  0
 14 34  1  0  0  0  0
 14 35  1  0  0  0  0
 15 20  1  0  0  0  0
 15 16  2  0  0  0  0
 16 17  1  0  0  0  0
 16 36  1  0  0  0  0
 17 18  1  0  0  0  0
 17 37  1  0  0  0  0
 17 38  1  0  0  0  0
 18 19  1  0  0  0  0
 18 39  1  0  0  0  0
 18 40  1  0  0  0  0
 19 20  1  0  0  0  0
 19 41  1  0  0  0  0
 19 42  1  0  0  0  0
 20 43  1  0  0  0  0
 20 44  1  0  0  0  0
 21 22  2  0  0  0  0
 21 45  1  0  0  0  0
 23 24  1  0  0  0  0
 23 46  1  0  0  0  0
 23 47  1  0  0  0  0
 24 25  1  0  0  0  0
 24 48  1  0  0  0  0
 24 49  1  0  0  0  0
 25 50  1  0  0  0  0
M  END
> <s_m_source_file>
AV-unprocessed.smi

> <i_m_source_file_index>
2128

> <i_lp_mmshare_version>
43012

> <i_f3d_flags>
0

> <s_epik_input>
Tz1DMVtDSDJdTihbQ0gyXVtDSDJdW05IXTEpYzJbY0hdW2NIXWMoW2NIXW4yKVtOSF1DKD1PKVtOSF1bQ0gyXVtDSDJdQzM9W0NIXVtDSDJdW0NIMl1bQ0gyXVtDSDJdMw==

> <s_epik_cmdline>
J2VwaWtfcHl0aG9uJywgJy1waCcsICc3LjAnLCAnLXRuJywgJzgnLCAnLW1hJywgJzIwMCcsICctbWV0YWxfYmluZGluZycsICctaW1hZScsICc8aW5maWxlLm1hZT4nLCAnLW9tYWUnLCAnPG91dGZpbGUubWFlPic=

> <r_lp_tautomer_probability>
1

> <r_epik_Ionization_Penalty>
0.0211825

> <r_epik_Ionization_Penalty_Charging>
0

> <r_epik_Ionization_Penalty_Neutral>
0.0211825

> <r_epik_State_Penalty>
0.0169697

> <r_epik_Charging_Adjusted_Penalty>
0.0169697

> <i_epik_Tot_Q>
0

> <i_epik_Tot_abs_Q>
0

> <r_epik_Metal_State_Penalty>
0.0163833

> <b_epik_Metal_Only>
0

> <s_lp_Force_Field>
OPLS_2005

> <r_lp_Energy>
24.085

> <b_lp_Chiralities_Consistent>
1

> <s_lp_Variant>
AV-unprocessed.smi:2128-1

> <Gold.Version>
5.8.1

> <Gold.Id.Protein>
6NUR|6NUR_protein|mol2

> <Gold.PLP.Fitness>
48.3164

> <Gold.PLP.PLP>
-46.0914

> <Gold.PLP.part.hbond>
-2.2325

> <Gold.PLP.part.metal>
0.0000

> <Gold.PLP.part.buried>
-5.9517

> <Gold.PLP.part.nonpolar>
-39.0694

> <Gold.PLP.part.repulsive>
0.2256

> <Gold.PLP.ligand.clash>
0.0000

> <Gold.PLP.ligand.torsion>
1.6601

> <Gold.PLP.Chemscore.Hbond>
1.7840

> <Gold.PLP.Chemscore.CHOScore>
0.0000

> <Gold.PLP.Chemscore.Metal>
0.0000

> <Gold.Chemscore.Hbonds>
donor molecule, donor type, donor heavy atom, donor atom, acceptor molecule, acceptor atom, score
      L1  H     9    30       P1  7948  0.74
      L1  H    12    31       P1  7948  1.00

> <Gold.PLP.Chemscore.Internal.Correction>
0.1932

> <Gold.Rescore>
     Score         DG    S(hbond)    S(metal)    S(lipo)     H(rot)  DE(clash)    DE(int)     intcor
     17.37     -20.40       1.79        0.00     107.19       1.41       0.07       2.96       ----

> <Gold.Chemscore.Fitness>
17.3712

> <Gold.Chemscore.DG>
-20.4006

> <Gold.Chemscore.ZeroCoef>
-5.4800

> <Gold.Chemscore.Hbond>
1.7922

> <Gold.Chemscore.Metal>
0.0000

> <Gold.Chemscore.Lipo>
107.1879

> <Gold.Chemscore.Internal_Hbond>
0.0000

> <Gold.Chemscore.DEClash>
0.0682

> <Gold.Chemscore.DEInternal>
2.9612

> <Gold.Chemscore.Rot>
1.4087

> <Gold.Chemscore.Internal.Correction>
   9.000000E+99

> <Gold.Chemscore.Hbonds>
donor molecule, donor type, donor heavy atom, donor atom, acceptor molecule, acceptor atom, score
      L1  H     9    30       P1  7948  0.68
      L1  H    12    31       P1  7948  0.93

> <Gold.Chemscore.Hbond.Weighted>
-5.9858

> <Gold.Chemscore.Metal.Weighted>
-0.0000

> <Gold.Chemscore.Lipo.Weighted>
-12.5410

> <Gold.Chemscore.Internal_Hbond.Weighted>
0.0000

> <Gold.Chemscore.DEClash.Weighted>
0.0682

> <Gold.Chemscore.DEInternal.Weighted>
2.9612

> <Gold.Chemscore.Rot.Weighted>
3.6061

> <Gold.Chemscore.Internal.Correction.Weighted>
   9.000000E+99

> <Gold.Protein.RotatedTorsions>
[ 6907 6896 6895 6894 ] final  -50.47 input  -60.11 | X-H torsion
[ 7974 7965 7964 7962 ] final   65.49 input  175.53 | X-H torsion
[ 8008 7997 7996 7995 ] final  170.94 input   59.86 | X-H torsion
[ 10167 10162 10161 10158 ] final  151.06 input  -65.29 | X-H torsion
[ 10718 10713 10712 10709 ] final  -14.25 input   66.30 | X-H torsion
[ 10763 10752 10751 10750 ] final   -8.01 input  -60.55 | X-H torsion
[ 11005 11000 10999 10996 ] final -159.05 input  -57.11 | X-H torsion

> <Gold.Protein.ActiveResidues>
 VAL166  LYS551  ARG553  GLY616  TRP617  ASP618  TYR619  PRO620  LYS621  CYS622 
 ASP623  PHE694  ASN695  SER759  ASP760  ASP761  ALA762  ILE779  LEU786  VAL792 
 PHE793  MET794  SER795  GLU796  ALA797  LYS798  CYS799  TRP800  GLU811  SER814 

> <Gold.Protein.RotatedAtoms>
  150.8704  134.8076  159.7150 H   0  0  0  0  0  0  0  0  0  0  0  0  # atno 6907 bound_to 6896
  152.4710  134.4956  159.9718 H   0  0  0  0  0  0  0  0  0  0  0  0  # atno 6908 bound_to 6896
  151.5045  133.3459  159.2910 H   0  0  0  0  0  0  0  0  0  0  0  0  # atno 6909 bound_to 6896
  145.8379  139.3178  143.0949 H   0  0  0  0  0  0  0  0  0  0  0  0  # atno 7974 bound_to 7965
  156.1318  140.1525  156.9053 H   0  0  0  0  0  0  0  0  0  0  0  0  # atno 8008 bound_to 7997
  154.4915  140.0850  156.7645 H   0  0  0  0  0  0  0  0  0  0  0  0  # atno 8009 bound_to 7997
  155.4241  140.3424  155.4276 H   0  0  0  0  0  0  0  0  0  0  0  0  # atno 8010 bound_to 7997
  139.4844  144.5471  151.7465 H   0  0  0  0  0  0  0  0  0  0  0  0  # atno 10167 bound_to 10162
  156.6186  130.4869  149.6173 H   0  0  0  0  0  0  0  0  0  0  0  0  # atno 10718 bound_to 10713
  153.4344  135.7012  153.6209 H   0  0  0  0  0  0  0  0  0  0  0  0  # atno 10763 bound_to 10752
  153.4611  135.3736  155.2339 H   0  0  0  0  0  0  0  0  0  0  0  0  # atno 10764 bound_to 10752
  154.8726  135.4020  154.3733 H   0  0  0  0  0  0  0  0  0  0  0  0  # atno 10765 bound_to 10752
  140.6468  134.4492  157.5234 H   0  0  0  0  0  0  0  0  0  0  0  0  # atno 11005 bound_to 11000
  145.9498  140.8917  143.0265 LP  0  0  0  0  0  0  0  0  0  0  0  0  # atno 17320 bound_to 7965
  144.6735  140.1664  143.7418 LP  0  0  0  0  0  0  0  0  0  0  0  0  # atno 17321 bound_to 7965
  140.5019  144.1155  150.5973 LP  0  0  0  0  0  0  0  0  0  0  0  0  # atno 17342 bound_to 10162
  140.4052  143.2684  151.9900 LP  0  0  0  0  0  0  0  0  0  0  0  0  # atno 17343 bound_to 10162
  156.2330  130.6806  151.1482 LP  0  0  0  0  0  0  0  0  0  0  0  0  # atno 17370 bound_to 10713
  157.7234  131.0666  150.6039 LP  0  0  0  0  0  0  0  0  0  0  0  0  # atno 17371 bound_to 10713
  139.9060  134.8448  156.1705 LP  0  0  0  0  0  0  0  0  0  0  0  0  # atno 17394 bound_to 11000
  141.0566  133.6862  156.1872 LP  0  0  0  0  0  0  0  0  0  0  0  0  # atno 17395 bound_to 11000

$$$$
