AV-unprocessed.smi:3120|AV-procd|sdf|11893|dock8
  -GOLD-   2272017283D 1   1.00000     0.00000
 Structure written by MMmdl.
 22 23  0  0  0  0  0  0  0  0  1 V2000
  153.1366  139.7138  158.0195 O   0  0  0  0  0  0  0  0  0  0  0  0
  152.2258  139.9943  157.2426 C   0  0  0  0  0  0  0  0  0  0  0  0
  152.0754  139.5006  156.0144 N   0  0  0  0  0  0  0  0  0  0  0  0
  150.9000  140.0025  155.3293 C   0  0  0  0  0  0  0  0  0  0  0  0
  150.3911  141.1497  156.2160 C   0  0  0  0  0  0  0  0  0  0  0  0
  151.1023  140.9723  157.5694 C   0  0  2  0  0  0  0  0  0  0  0  0
  151.6131  142.2694  158.1880 C   0  0  0  0  0  0  0  0  0  0  0  0
  152.3241  142.2828  159.4092 C   0  0  0  0  0  0  0  0  0  0  0  0
  152.7704  143.5143  159.9254 C   0  0  0  0  0  0  0  0  0  0  0  0
  152.4876  144.6874  159.1985 C   0  0  0  0  0  0  0  0  0  0  0  0
  151.8092  144.6902  158.0312 N   0  0  0  0  0  0  0  0  0  0  0  0
  151.3840  143.5047  157.5439 C   0  0  0  0  0  0  0  0  0  0  0  0
  152.7064  138.8342  155.5930 H   0  0  0  0  0  0  0  0  0  0  0  0
  151.1453  140.3410  154.3223 H   0  0  0  0  0  0  0  0  0  0  0  0
  150.1602  139.2046  155.2545 H   0  0  0  0  0  0  0  0  0  0  0  0
  150.6589  142.1013  155.7551 H   0  0  0  0  0  0  0  0  0  0  0  0
  149.3057  141.1390  156.3196 H   0  0  0  0  0  0  0  0  0  0  0  0
  150.4326  140.4695  158.2685 H   0  0  0  0  0  0  0  0  0  0  0  0
  152.5251  141.3660  159.9437 H   0  0  0  0  0  0  0  0  0  0  0  0
  153.3161  143.5586  160.8563 H   0  0  0  0  0  0  0  0  0  0  0  0
  152.8159  145.6492  159.5639 H   0  0  0  0  0  0  0  0  0  0  0  0
  150.8452  143.5454  156.6085 H   0  0  0  0  0  0  0  0  0  0  0  0
  1  2  2  0  0  0  0
  2  6  1  0  0  0  0
  2  3  1  0  0  0  0
  3  4  1  0  0  0  0
  3 13  1  0  0  0  0
  4  5  1  0  0  0  0
  4 14  1  0  0  0  0
  4 15  1  0  0  0  0
  5  6  1  0  0  0  0
  5 16  1  0  0  0  0
  5 17  1  0  0  0  0
  6  7  1  0  0  0  0
  6 18  1  0  0  0  0
  7 12  1  0  0  0  0
  7  8  2  0  0  0  0
  8  9  1  0  0  0  0
  8 19  1  0  0  0  0
  9 10  2  0  0  0  0
  9 20  1  0  0  0  0
 10 11  1  0  0  0  0
 10 21  1  0  0  0  0
 11 12  2  0  0  0  0
 12 22  1  0  0  0  0
M  END
> <s_m_source_file>
AV-unprocessed.smi

> <i_m_source_file_index>
3120

> <i_lp_mmshare_version>
43012

> <i_f3d_flags>
0

> <s_epik_input>
Tz1DMVtOSF1bQ0gyXVtDSDJdW0NASF0xYzJbY0hdW2NIXVtjSF1uW2NIXTI=

> <s_epik_cmdline>
J2VwaWtfcHl0aG9uJywgJy1waCcsICc3LjAnLCAnLXRuJywgJzgnLCAnLW1hJywgJzIwMCcsICctbWV0YWxfYmluZGluZycsICctaW1hZScsICc8aW5maWxlLm1hZT4nLCAnLW9tYWUnLCAnPG91dGZpbGUubWFlPic=

> <r_epik_Ionization_Penalty>
0.00558523

> <r_epik_Ionization_Penalty_Charging>
0

> <r_epik_Ionization_Penalty_Neutral>
0.00558523

> <r_epik_State_Penalty>
0.00409114

> <r_epik_Charging_Adjusted_Penalty>
0.00409114

> <i_epik_Tot_Q>
0

> <i_epik_Tot_abs_Q>
0

> <r_epik_Metal_State_Penalty>
-0

> <b_epik_Metal_Only>
0

> <s_lp_Force_Field>
OPLS_2005

> <r_lp_Energy>
14.9187

> <b_lp_Chiralities_Consistent>
1

> <s_lp_Variant>
AV-unprocessed.smi:3120-2

> <Gold.Version>
5.8.1

> <Gold.Id.Protein>
6NUR|6NUR_protein|mol2

> <Gold.PLP.Fitness>
32.6670

> <Gold.PLP.PLP>
-26.6679

> <Gold.PLP.part.hbond>
-1.0000

> <Gold.PLP.part.metal>
0.0000

> <Gold.PLP.part.buried>
-1.7758

> <Gold.PLP.part.nonpolar>
-23.1015

> <Gold.PLP.part.repulsive>
0.2625

> <Gold.PLP.ligand.clash>
0.0000

> <Gold.PLP.ligand.torsion>
0.0042

> <Gold.PLP.Chemscore.Hbond>
1.0000

> <Gold.PLP.Chemscore.CHOScore>
1.0000

> <Gold.PLP.Chemscore.Metal>
0.0000

> <Gold.Chemscore.Hbonds>
donor molecule, donor type, donor heavy atom, donor atom, acceptor molecule, acceptor atom, score
      P1  H  7997  8009       L1     1  1.00
      L1  C    12    22       P1  8028  1.00

> <Gold.PLP.Chemscore.Internal.Correction>
0.0075

> <Gold.Rescore>
     Score         DG    S(hbond)    S(metal)    S(lipo)     H(rot)  DE(clash)    DE(int)     intcor
     14.81     -14.92       0.95        0.00      75.43       1.00       0.00       0.11       ----

> <Gold.Chemscore.Fitness>
14.8071

> <Gold.Chemscore.DG>
-14.9180

> <Gold.Chemscore.ZeroCoef>
-5.4800

> <Gold.Chemscore.Hbond>
0.9500

> <Gold.Chemscore.Metal>
0.0000

> <Gold.Chemscore.Lipo>
75.4288

> <Gold.Chemscore.Internal_Hbond>
0.0000

> <Gold.Chemscore.DEClash>
0.0000

> <Gold.Chemscore.DEInternal>
0.1110

> <Gold.Chemscore.Rot>
1.0000

> <Gold.Chemscore.Internal.Correction>
   9.000000E+99

> <Gold.Chemscore.Hbonds>
donor molecule, donor type, donor heavy atom, donor atom, acceptor molecule, acceptor atom, score
      P1  H  7997  8009       L1     1  0.54

> <Gold.Chemscore.Hbond.Weighted>
-3.1729

> <Gold.Chemscore.Metal.Weighted>
-0.0000

> <Gold.Chemscore.Lipo.Weighted>
-8.8252

> <Gold.Chemscore.Internal_Hbond.Weighted>
0.0000

> <Gold.Chemscore.DEClash.Weighted>
0.0000

> <Gold.Chemscore.DEInternal.Weighted>
0.1110

> <Gold.Chemscore.Rot.Weighted>
2.5600

> <Gold.Chemscore.Internal.Correction.Weighted>
   9.000000E+99

> <Gold.Protein.RotatedTorsions>
[ 6907 6896 6895 6894 ] final  -36.14 input  -60.11 | X-H torsion
[ 7974 7965 7964 7962 ] final  154.28 input  175.53 | X-H torsion
[ 8008 7997 7996 7995 ] final  145.36 input   59.86 | X-H torsion
[ 10167 10162 10161 10158 ] final  -34.70 input  -65.29 | X-H torsion
[ 10718 10713 10712 10709 ] final -127.96 input   66.30 | X-H torsion
[ 10763 10752 10751 10750 ] final -107.65 input  -60.55 | X-H torsion
[ 11005 11000 10999 10996 ] final   52.37 input  -57.11 | X-H torsion

> <Gold.Protein.ActiveResidues>
 VAL166  LYS551  ARG553  GLY616  TRP617  ASP618  TYR619  PRO620  LYS621  CYS622 
 ASP623  PHE694  ASN695  SER759  ASP760  ASP761  ALA762  ILE779  LEU786  VAL792 
 PHE793  MET794  SER795  GLU796  ALA797  LYS798  CYS799  TRP800  GLU811  SER814 

> <Gold.Protein.RotatedAtoms>
  151.0310  134.9539  159.8110 H   0  0  0  0  0  0  0  0  0  0  0  0  # atno 6907 bound_to 6896
  152.5345  134.2781  159.9007 H   0  0  0  0  0  0  0  0  0  0  0  0  # atno 6908 bound_to 6896
  151.2790  133.4176  159.2660 H   0  0  0  0  0  0  0  0  0  0  0  0  # atno 6909 bound_to 6896
  144.8099  139.6912  143.6146 H   0  0  0  0  0  0  0  0  0  0  0  0  # atno 7974 bound_to 7965
  156.2885  140.2211  156.5202 H   0  0  0  0  0  0  0  0  0  0  0  0  # atno 8008 bound_to 7997
  154.7535  140.0478  157.0935 H   0  0  0  0  0  0  0  0  0  0  0  0  # atno 8009 bound_to 7997
  155.0080  140.3109  155.4844 H   0  0  0  0  0  0  0  0  0  0  0  0  # atno 8010 bound_to 7997
  140.7180  143.3529  151.2118 H   0  0  0  0  0  0  0  0  0  0  0  0  # atno 10167 bound_to 10162
  156.1905  130.6792  151.0419 H   0  0  0  0  0  0  0  0  0  0  0  0  # atno 10718 bound_to 10713
  154.8088  135.4667  154.0462 H   0  0  0  0  0  0  0  0  0  0  0  0  # atno 10763 bound_to 10752
  153.1909  135.6855  153.8360 H   0  0  0  0  0  0  0  0  0  0  0  0  # atno 10764 bound_to 10752
  153.7878  135.3247  155.3352 H   0  0  0  0  0  0  0  0  0  0  0  0  # atno 10765 bound_to 10752
  140.0855  134.5280  155.8903 H   0  0  0  0  0  0  0  0  0  0  0  0  # atno 11005 bound_to 11000
  146.2396  139.5975  142.9500 LP  0  0  0  0  0  0  0  0  0  0  0  0  # atno 17320 bound_to 7965
  145.5349  141.0425  143.2363 LP  0  0  0  0  0  0  0  0  0  0  0  0  # atno 17321 bound_to 7965
  139.7064  143.9448  152.2928 LP  0  0  0  0  0  0  0  0  0  0  0  0  # atno 17342 bound_to 10162
  139.9158  144.6829  150.8513 LP  0  0  0  0  0  0  0  0  0  0  0  0  # atno 17343 bound_to 10162
  157.6926  131.0805  150.7063 LP  0  0  0  0  0  0  0  0  0  0  0  0  # atno 17370 bound_to 10713
  156.7119  130.4654  149.5545 LP  0  0  0  0  0  0  0  0  0  0  0  0  # atno 17371 bound_to 10713
  141.2061  133.6652  156.6221 LP  0  0  0  0  0  0  0  0  0  0  0  0  # atno 17394 bound_to 11000
  140.3426  134.7836  157.4409 LP  0  0  0  0  0  0  0  0  0  0  0  0  # atno 17395 bound_to 11000

$$$$
