AV-unprocessed.smi:3048|AV-procd|sdf|11627|dock4
  -GOLD-   2272017 13D 1   1.00000     0.00000
 Structure written by MMmdl.
 37 38  0  0  0  0  0  0  0  0  1 V2000
  142.0941  142.4884  160.9820 C   0  0  0  0  0  0  0  0  0  0  0  0
  143.5735  142.7243  161.0812 C   0  0  0  0  0  0  0  0  0  0  0  0
  144.6257  141.8777  160.6297 C   0  0  0  0  0  0  0  0  0  0  0  0
  145.8266  142.3785  160.8664 N   0  0  0  0  0  0  0  0  0  0  0  0
  145.5859  143.5572  161.4788 N   0  0  0  0  0  0  0  0  0  0  0  0
  146.6959  144.3984  161.8900 C   0  0  0  0  0  0  0  0  0  0  0  0
  147.6107  144.7777  160.7146 C   0  0  0  0  0  0  0  0  0  0  0  0
  149.0199  144.5738  161.0380 N   0  0  0  0  0  0  0  0  0  0  0  0
  149.9144  144.7987  159.9080 C   0  0  0  0  0  0  0  0  0  0  0  0
  151.3484  144.3664  160.2457 C   0  0  2  0  0  0  0  0  0  0  0  0
  152.0360  143.6883  159.0447 C   0  0  0  0  0  0  0  0  0  0  0  0
  153.4287  143.1801  159.4352 C   0  0  0  0  0  0  0  0  0  0  0  0
  153.3264  142.2946  160.6815 C   0  0  0  0  0  0  0  0  0  0  0  0
  152.5664  143.0287  161.7974 C   0  0  0  0  0  0  0  0  0  0  0  0
  151.2858  143.4341  161.3238 O   0  0  0  0  0  0  0  0  0  0  0  0
  144.2346  143.7923  161.6188 C   0  0  0  0  0  0  0  0  0  0  0  0
  141.8662  141.4585  160.7065 H   0  0  0  0  0  0  0  0  0  0  0  0
  141.6346  143.1310  160.2308 H   0  0  0  0  0  0  0  0  0  0  0  0
  141.5899  142.6857  161.9282 H   0  0  0  0  0  0  0  0  0  0  0  0
  144.5519  140.9193  160.1376 H   0  0  0  0  0  0  0  0  0  0  0  0
  146.3120  145.2939  162.3818 H   0  0  0  0  0  0  0  0  0  0  0  0
  147.2688  143.8533  162.6407 H   0  0  0  0  0  0  0  0  0  0  0  0
  147.3421  144.1683  159.8511 H   0  0  0  0  0  0  0  0  0  0  0  0
  147.4358  145.8153  160.4275 H   0  0  0  0  0  0  0  0  0  0  0  0
  149.1582  143.6357  161.4013 H   0  0  0  0  0  0  0  0  0  0  0  0
  149.5636  144.2585  159.0279 H   0  0  0  0  0  0  0  0  0  0  0  0
  149.9059  145.8582  159.6488 H   0  0  0  0  0  0  0  0  0  0  0  0
  151.9291  145.2408  160.5463 H   0  0  0  0  0  0  0  0  0  0  0  0
  151.4279  142.8525  158.6961 H   0  0  0  0  0  0  0  0  0  0  0  0
  152.1162  144.3856  158.2102 H   0  0  0  0  0  0  0  0  0  0  0  0
  153.8776  142.6262  158.6104 H   0  0  0  0  0  0  0  0  0  0  0  0
  154.0849  144.0272  159.6393 H   0  0  0  0  0  0  0  0  0  0  0  0
  152.8034  141.3705  160.4328 H   0  0  0  0  0  0  0  0  0  0  0  0
  154.3209  142.0091  161.0252 H   0  0  0  0  0  0  0  0  0  0  0  0
  152.4315  142.3697  162.6551 H   0  0  0  0  0  0  0  0  0  0  0  0
  153.1285  143.8956  162.1473 H   0  0  0  0  0  0  0  0  0  0  0  0
  143.8594  144.6906  162.0867 H   0  0  0  0  0  0  0  0  0  0  0  0
  1  2  1  0  0  0  0
  1 17  1  0  0  0  0
  1 18  1  0  0  0  0
  1 19  1  0  0  0  0
  2 16  2  0  0  0  0
  2  3  1  0  0  0  0
  3  4  2  0  0  0  0
  3 20  1  0  0  0  0
  4  5  1  0  0  0  0
  5  6  1  0  0  0  0
  5 16  1  0  0  0  0
  6  7  1  0  0  0  0
  6 21  1  0  0  0  0
  6 22  1  0  0  0  0
  7  8  1  0  0  0  0
  7 23  1  0  0  0  0
  7 24  1  0  0  0  0
  8  9  1  0  0  0  0
  8 25  1  0  0  0  0
  9 10  1  0  0  0  0
  9 26  1  0  0  0  0
  9 27  1  0  0  0  0
 10 15  1  0  0  0  0
 10 11  1  0  0  0  0
 10 28  1  0  0  0  0
 11 12  1  0  0  0  0
 11 29  1  0  0  0  0
 11 30  1  0  0  0  0
 12 13  1  0  0  0  0
 12 31  1  0  0  0  0
 12 32  1  0  0  0  0
 13 14  1  0  0  0  0
 13 33  1  0  0  0  0
 13 34  1  0  0  0  0
 14 15  1  0  0  0  0
 14 35  1  0  0  0  0
 14 36  1  0  0  0  0
 16 37  1  0  0  0  0
M  END
> <s_m_source_file>
AV-unprocessed.smi

> <i_m_source_file_index>
3048

> <i_lp_mmshare_version>
43012

> <i_f3d_flags>
0

> <s_epik_input>
W0NIM11jMVtjSF1ubihbY0hdMSlbQ0gyXVtDSDJdW05IXVtDSDJdW0NAQEhdMltDSDJdW0NIMl1bQ0gyXVtDSDJdTzI=

> <s_epik_cmdline>
J2VwaWtfcHl0aG9uJywgJy1waCcsICc3LjAnLCAnLXRuJywgJzgnLCAnLW1hJywgJzIwMCcsICctbWV0YWxfYmluZGluZycsICctaW1hZScsICc8aW5maWxlLm1hZT4nLCAnLW9tYWUnLCAnPG91dGZpbGUubWFlPic=

> <r_lp_tautomer_probability>
1

> <r_epik_Ionization_Penalty>
2.52229

> <r_epik_Ionization_Penalty_Charging>
0

> <r_epik_Ionization_Penalty_Neutral>
2.52229

> <r_epik_State_Penalty>
2.68614

> <r_epik_Charging_Adjusted_Penalty>
2.68614

> <i_epik_Tot_Q>
0

> <i_epik_Tot_abs_Q>
0

> <r_epik_Metal_State_Penalty>
2.68365

> <b_epik_Metal_Only>
0

> <s_lp_Force_Field>
OPLS_2005

> <r_lp_Energy>
12.7025

> <b_lp_Chiralities_Consistent>
1

> <s_lp_Variant>
AV-unprocessed.smi:3048-3

> <Gold.Version>
5.8.1

> <Gold.Id.Protein>
6NUR|6NUR_protein|mol2

> <Gold.PLP.Fitness>
43.3962

> <Gold.PLP.PLP>
-41.7853

> <Gold.PLP.part.hbond>
-2.8465

> <Gold.PLP.part.metal>
0.0000

> <Gold.PLP.part.buried>
-7.2312

> <Gold.PLP.part.nonpolar>
-32.3737

> <Gold.PLP.part.repulsive>
0.1571

> <Gold.PLP.ligand.clash>
0.0000

> <Gold.PLP.ligand.torsion>
0.9039

> <Gold.PLP.Chemscore.Hbond>
1.1235

> <Gold.PLP.Chemscore.CHOScore>
0.0000

> <Gold.PLP.Chemscore.Metal>
0.0000

> <Gold.Chemscore.Hbonds>
donor molecule, donor type, donor heavy atom, donor atom, acceptor molecule, acceptor atom, score
      P1  H  6933  6945       L1    15  0.13
      P1  H  6934  6946       L1     4  1.00

> <Gold.PLP.Chemscore.Internal.Correction>
0.0482

> <Gold.Rescore>
     Score         DG    S(hbond)    S(metal)    S(lipo)     H(rot)  DE(clash)    DE(int)     intcor
     16.26     -17.25       1.30        0.00      97.27       1.54       0.16       0.83       ----

> <Gold.Chemscore.Fitness>
16.2587

> <Gold.Chemscore.DG>
-17.2481

> <Gold.Chemscore.ZeroCoef>
-5.4800

> <Gold.Chemscore.Hbond>
1.2973

> <Gold.Chemscore.Metal>
0.0000

> <Gold.Chemscore.Lipo>
97.2662

> <Gold.Chemscore.Internal_Hbond>
0.0000

> <Gold.Chemscore.DEClash>
0.1641

> <Gold.Chemscore.DEInternal>
0.8253

> <Gold.Chemscore.Rot>
1.5411

> <Gold.Chemscore.Internal.Correction>
   9.000000E+99

> <Gold.Chemscore.Hbonds>
donor molecule, donor type, donor heavy atom, donor atom, acceptor molecule, acceptor atom, score
      P1  H  6933  6945       L1    15  0.03
      P1  H  6934  6946       L1     4  0.34

> <Gold.Chemscore.Hbond.Weighted>
-4.3331

> <Gold.Chemscore.Metal.Weighted>
-0.0000

> <Gold.Chemscore.Lipo.Weighted>
-11.3802

> <Gold.Chemscore.Internal_Hbond.Weighted>
0.0000

> <Gold.Chemscore.DEClash.Weighted>
0.1641

> <Gold.Chemscore.DEInternal.Weighted>
0.8253

> <Gold.Chemscore.Rot.Weighted>
3.9452

> <Gold.Chemscore.Internal.Correction.Weighted>
   9.000000E+99

> <Gold.Protein.RotatedTorsions>
[ 6907 6896 6895 6894 ] final   17.93 input  -60.11 | X-H torsion
[ 7974 7965 7964 7962 ] final   29.50 input  175.53 | X-H torsion
[ 8008 7997 7996 7995 ] final   68.62 input   59.86 | X-H torsion
[ 10167 10162 10161 10158 ] final  -81.03 input  -65.29 | X-H torsion
[ 10718 10713 10712 10709 ] final  124.76 input   66.30 | X-H torsion
[ 10763 10752 10751 10750 ] final  -56.45 input  -60.55 | X-H torsion
[ 11005 11000 10999 10996 ] final  129.68 input  -57.11 | X-H torsion

> <Gold.Protein.ActiveResidues>
 VAL166  LYS551  ARG553  GLY616  TRP617  ASP618  TYR619  PRO620  LYS621  CYS622 
 ASP623  PHE694  ASN695  SER759  ASP760  ASP761  ALA762  ILE779  LEU786  VAL792 
 PHE793  MET794  SER795  GLU796  ALA797  LYS798  CYS799  TRP800  GLU811  SER814 

> <Gold.Protein.RotatedAtoms>
  151.8573  135.0536  160.0465 H   0  0  0  0  0  0  0  0  0  0  0  0  # atno 6907 bound_to 6896
  152.2690  133.5361  159.5436 H   0  0  0  0  0  0  0  0  0  0  0  0  # atno 6908 bound_to 6896
  150.7144  134.0640  159.3883 H   0  0  0  0  0  0  0  0  0  0  0  0  # atno 6909 bound_to 6896
  146.1667  139.6913  142.8996 H   0  0  0  0  0  0  0  0  0  0  0  0  # atno 7974 bound_to 7965
  155.7112  140.3494  155.4974 H   0  0  0  0  0  0  0  0  0  0  0  0  # atno 8008 bound_to 7997
  155.9354  140.1092  157.1120 H   0  0  0  0  0  0  0  0  0  0  0  0  # atno 8009 bound_to 7997
  154.4093  140.1223  156.4844 H   0  0  0  0  0  0  0  0  0  0  0  0  # atno 8010 bound_to 7997
  140.4449  143.2502  151.8572 H   0  0  0  0  0  0  0  0  0  0  0  0  # atno 10167 bound_to 10162
  157.5558  131.1092  150.8624 H   0  0  0  0  0  0  0  0  0  0  0  0  # atno 10718 bound_to 10713
  154.2069  135.6401  153.5103 H   0  0  0  0  0  0  0  0  0  0  0  0  # atno 10763 bound_to 10752
  152.9999  135.5464  154.6256 H   0  0  0  0  0  0  0  0  0  0  0  0  # atno 10764 bound_to 10752
  154.5683  135.2914  155.0825 H   0  0  0  0  0  0  0  0  0  0  0  0  # atno 10765 bound_to 10752
  139.9629  134.9598  156.9184 H   0  0  0  0  0  0  0  0  0  0  0  0  # atno 11005 bound_to 11000
  145.4448  141.0425  143.2837 LP  0  0  0  0  0  0  0  0  0  0  0  0  # atno 17320 bound_to 7965
  144.8103  139.5974  143.7032 LP  0  0  0  0  0  0  0  0  0  0  0  0  # atno 17321 bound_to 7965
  139.4792  144.5186  151.8833 LP  0  0  0  0  0  0  0  0  0  0  0  0  # atno 17342 bound_to 10162
  140.4275  144.2161  150.5887 LP  0  0  0  0  0  0  0  0  0  0  0  0  # atno 17343 bound_to 10162
  156.9135  130.5289  149.5280 LP  0  0  0  0  0  0  0  0  0  0  0  0  # atno 17370 bound_to 10713
  156.0617  130.5669  150.9207 LP  0  0  0  0  0  0  0  0  0  0  0  0  # atno 17371 bound_to 10713
  140.5460  134.0673  155.7355 LP  0  0  0  0  0  0  0  0  0  0  0  0  # atno 17394 bound_to 11000
  141.1307  133.9306  157.2541 LP  0  0  0  0  0  0  0  0  0  0  0  0  # atno 17395 bound_to 11000

$$$$
