AV-unprocessed.smi:2259|AV-procd|sdf|9130|dock1
  -GOLD-   2272012333D 1   1.00000     0.00000
 Structure written by MMmdl.
 39 40  0  0  0  0  0  0  0  0  1 V2000
  153.5686  141.9957  161.3614 C   0  0  0  0  0  0  0  0  0  0  0  0
  152.7976  142.1733  160.0655 C   0  0  0  0  0  0  0  0  0  0  0  0
  152.7402  141.0483  159.2381 N   0  0  0  0  0  0  0  0  0  0  0  0
  152.1125  141.1090  158.1097 C   0  0  0  0  0  0  0  0  0  0  0  0
  151.4780  142.2870  157.6790 N   0  0  0  0  0  0  0  0  0  0  0  0
  150.7938  142.2306  156.3739 C   0  0  0  0  0  0  0  0  0  0  0  0
  150.3885  140.7968  155.9577 C   0  0  2  0  0  0  0  0  0  0  0  0
  151.4511  140.2749  155.1862 O   0  0  0  0  0  0  0  0  0  0  0  0
  149.1021  140.7331  155.1141 C   0  0  0  0  0  0  0  0  0  0  0  0
  147.9852  140.9585  155.9641 O   0  0  0  0  0  0  0  0  0  0  0  0
  147.0047  141.8296  155.5393 C   0  0  0  0  0  0  0  0  0  0  0  0
  146.1501  142.3605  156.5272 C   0  0  0  0  0  0  0  0  0  0  0  0
  145.1193  143.2570  156.1852 C   0  0  0  0  0  0  0  0  0  0  0  0
  144.9315  143.6353  154.8412 C   0  0  0  0  0  0  0  0  0  0  0  0
  143.8677  144.5593  154.4846 C   0  0  0  0  0  0  0  0  0  0  0  0
  143.0210  145.2950  154.2010 N   0  0  0  0  0  0  0  0  0  0  0  0
  145.7800  143.1136  153.8447 C   0  0  0  0  0  0  0  0  0  0  0  0
  146.8102  142.2163  154.1889 C   0  0  0  0  0  0  0  0  0  0  0  0
  151.4681  143.4228  158.4356 C   0  0  0  0  0  0  0  0  0  0  0  0
  150.8864  144.4433  158.0627 O   0  0  0  0  0  0  0  0  0  0  0  0
  152.1949  143.3413  159.7130 C   0  0  0  0  0  0  0  0  0  0  0  0
  152.2243  144.5986  160.5733 C   0  0  0  0  0  0  0  0  0  0  0  0
  152.9229  142.1847  162.2193 H   0  0  0  0  0  0  0  0  0  0  0  0
  154.4128  142.6846  161.4007 H   0  0  0  0  0  0  0  0  0  0  0  0
  153.9599  140.9818  161.4553 H   0  0  0  0  0  0  0  0  0  0  0  0
  152.0434  140.2593  157.4283 H   0  0  0  0  0  0  0  0  0  0  0  0
  149.9143  142.8775  156.3520 H   0  0  0  0  0  0  0  0  0  0  0  0
  151.4607  142.6522  155.6191 H   0  0  0  0  0  0  0  0  0  0  0  0
  150.2768  140.1739  156.8457 H   0  0  0  0  0  0  0  0  0  0  0  0
  151.9517  139.6809  155.7241 H   0  0  0  0  0  0  0  0  0  0  0  0
  149.1118  141.5227  154.3628 H   0  0  0  0  0  0  0  0  0  0  0  0
  149.0280  139.7769  154.5929 H   0  0  0  0  0  0  0  0  0  0  0  0
  146.2857  142.0762  157.5606 H   0  0  0  0  0  0  0  0  0  0  0  0
  144.4761  143.6500  156.9596 H   0  0  0  0  0  0  0  0  0  0  0  0
  145.6463  143.3977  152.8107 H   0  0  0  0  0  0  0  0  0  0  0  0
  147.4390  141.8396  153.3966 H   0  0  0  0  0  0  0  0  0  0  0  0
  152.6755  145.4224  160.0194 H   0  0  0  0  0  0  0  0  0  0  0  0
  152.7909  144.4755  161.4948 H   0  0  0  0  0  0  0  0  0  0  0  0
  151.2099  144.8902  160.8476 H   0  0  0  0  0  0  0  0  0  0  0  0
  1  2  1  0  0  0  0
  1 23  1  0  0  0  0
  1 24  1  0  0  0  0
  1 25  1  0  0  0  0
  2 21  2  0  0  0  0
  2  3  1  0  0  0  0
  3  4  2  0  0  0  0
  4  5  1  0  0  0  0
  4 26  1  0  0  0  0
  5  6  1  0  0  0  0
  5 19  1  0  0  0  0
  6  7  1  0  0  0  0
  6 27  1  0  0  0  0
  6 28  1  0  0  0  0
  7  8  1  0  0  0  0
  7  9  1  0  0  0  0
  7 29  1  0  0  0  0
  8 30  1  0  0  0  0
  9 10  1  0  0  0  0
  9 31  1  0  0  0  0
  9 32  1  0  0  0  0
 10 11  1  0  0  0  0
 11 18  1  0  0  0  0
 11 12  2  0  0  0  0
 12 13  1  0  0  0  0
 12 33  1  0  0  0  0
 13 14  2  0  0  0  0
 13 34  1  0  0  0  0
 14 15  1  0  0  0  0
 14 17  1  0  0  0  0
 15 16  3  0  0  0  0
 17 18  2  0  0  0  0
 17 35  1  0  0  0  0
 18 36  1  0  0  0  0
 19 20  2  0  0  0  0
 19 21  1  0  0  0  0
 21 22  1  0  0  0  0
 22 37  1  0  0  0  0
 22 38  1  0  0  0  0
 22 39  1  0  0  0  0
M  END
> <s_m_source_file>
AV-unprocessed.smi

> <i_m_source_file_index>
2259

> <i_lp_mmshare_version>
43012

> <i_f3d_flags>
0

> <s_epik_input>
W0NIM11jMW5bY0hdbihjKD1PKWMxW0NIM10pW0NIMl1bQ0BIXShbT0hdKVtDSDJdT2MyW2NIXVtjSF1jKEMjTilbY0hdW2NIXTI=

> <s_epik_cmdline>
J2VwaWtfcHl0aG9uJywgJy1waCcsICc3LjAnLCAnLXRuJywgJzgnLCAnLW1hJywgJzIwMCcsICctbWV0YWxfYmluZGluZycsICctaW1hZScsICc8aW5maWxlLm1hZT4nLCAnLW9tYWUnLCAnPG91dGZpbGUubWFlPic=

> <r_lp_tautomer_probability>
1

> <r_epik_Ionization_Penalty>
3.47921e-05

> <r_epik_Ionization_Penalty_Charging>
7.82631e-08

> <r_epik_Ionization_Penalty_Neutral>
3.47138e-05

> <r_epik_State_Penalty>
-0

> <r_epik_Charging_Adjusted_Penalty>
7.82631e-08

> <i_epik_Tot_Q>
0

> <i_epik_Tot_abs_Q>
0

> <r_epik_Metal_State_Penalty>
-0

> <b_epik_Metal_Only>
0

> <s_lp_Force_Field>
OPLS_2005

> <r_lp_Energy>
23.7954

> <b_lp_Chiralities_Consistent>
1

> <s_lp_Variant>
AV-unprocessed.smi:2259-1

> <Gold.Version>
5.8.1

> <Gold.Id.Protein>
6NUR|6NUR_protein|mol2

> <Gold.PLP.Fitness>
48.5191

> <Gold.PLP.PLP>
-48.3513

> <Gold.PLP.part.hbond>
-2.0000

> <Gold.PLP.part.metal>
0.0000

> <Gold.PLP.part.buried>
-9.1956

> <Gold.PLP.part.nonpolar>
-38.5178

> <Gold.PLP.part.repulsive>
0.5107

> <Gold.PLP.ligand.clash>
0.0000

> <Gold.PLP.ligand.torsion>
1.4422

> <Gold.PLP.Chemscore.Hbond>
0.9920

> <Gold.PLP.Chemscore.CHOScore>
0.0000

> <Gold.PLP.Chemscore.Metal>
0.0000

> <Gold.Chemscore.Hbonds>
donor molecule, donor type, donor heavy atom, donor atom, acceptor molecule, acceptor atom, score
      P1  H  7989  7998       L1     8  0.99

> <Gold.PLP.Chemscore.Internal.Correction>
0.0762

> <Gold.Rescore>
     Score         DG    S(hbond)    S(metal)    S(lipo)     H(rot)  DE(clash)    DE(int)     intcor
     11.47     -12.97       0.89        0.00      96.70       2.66       0.10       1.41       ----

> <Gold.Chemscore.Fitness>
11.4668

> <Gold.Chemscore.DG>
-12.9710

> <Gold.Chemscore.ZeroCoef>
-5.4800

> <Gold.Chemscore.Hbond>
0.8916

> <Gold.Chemscore.Metal>
0.0000

> <Gold.Chemscore.Lipo>
96.6956

> <Gold.Chemscore.Internal_Hbond>
0.0000

> <Gold.Chemscore.DEClash>
0.0950

> <Gold.Chemscore.DEInternal>
1.4092

> <Gold.Chemscore.Rot>
2.6563

> <Gold.Chemscore.Internal.Correction>
   9.000000E+99

> <Gold.Chemscore.Hbonds>
donor molecule, donor type, donor heavy atom, donor atom, acceptor molecule, acceptor atom, score
      P1  H  7989  7998       L1     8  0.89

> <Gold.Chemscore.Hbond.Weighted>
-2.9778

> <Gold.Chemscore.Metal.Weighted>
-0.0000

> <Gold.Chemscore.Lipo.Weighted>
-11.3134

> <Gold.Chemscore.Internal_Hbond.Weighted>
0.0000

> <Gold.Chemscore.DEClash.Weighted>
0.0950

> <Gold.Chemscore.DEInternal.Weighted>
1.4092

> <Gold.Chemscore.Rot.Weighted>
6.8002

> <Gold.Chemscore.Internal.Correction.Weighted>
   9.000000E+99

> <Gold.Protein.RotatedTorsions>
[ 6907 6896 6895 6894 ] final   31.71 input  -60.11 | X-H torsion
[ 7974 7965 7964 7962 ] final   43.25 input  175.53 | X-H torsion
[ 8008 7997 7996 7995 ] final   16.97 input   59.86 | X-H torsion
[ 10167 10162 10161 10158 ] final  -65.03 input  -65.29 | X-H torsion
[ 10718 10713 10712 10709 ] final -158.37 input   66.30 | X-H torsion
[ 10763 10752 10751 10750 ] final  109.25 input  -60.55 | X-H torsion
[ 11005 11000 10999 10996 ] final  -95.44 input  -57.11 | X-H torsion

> <Gold.Protein.ActiveResidues>
 VAL166  LYS551  ARG553  GLY616  TRP617  ASP618  TYR619  PRO620  LYS621  CYS622 
 ASP623  PHE694  ASN695  SER759  ASP760  ASP761  ALA762  ILE779  LEU786  VAL792 
 PHE793  MET794  SER795  GLU796  ALA797  LYS798  CYS799  TRP800  GLU811  SER814 

> <Gold.Protein.RotatedAtoms>
  152.0642  134.9575  160.0574 H   0  0  0  0  0  0  0  0  0  0  0  0  # atno 6907 bound_to 6896
  152.0926  133.4203  159.4559 H   0  0  0  0  0  0  0  0  0  0  0  0  # atno 6908 bound_to 6896
  150.6837  134.2773  159.4656 H   0  0  0  0  0  0  0  0  0  0  0  0  # atno 6909 bound_to 6896
  146.0671  139.5207  142.9621 H   0  0  0  0  0  0  0  0  0  0  0  0  # atno 7974 bound_to 7965
  154.8847  140.2978  155.5405 H   0  0  0  0  0  0  0  0  0  0  0  0  # atno 8008 bound_to 7997
  156.3021  140.2436  156.3788 H   0  0  0  0  0  0  0  0  0  0  0  0  # atno 8009 bound_to 7997
  154.8681  140.0402  157.1696 H   0  0  0  0  0  0  0  0  0  0  0  0  # atno 8010 bound_to 7997
  140.5759  143.2322  151.6443 H   0  0  0  0  0  0  0  0  0  0  0  0  # atno 10167 bound_to 10162
  156.5532  130.8614  151.2786 H   0  0  0  0  0  0  0  0  0  0  0  0  # atno 10718 bound_to 10713
  153.4321  135.3786  155.2177 H   0  0  0  0  0  0  0  0  0  0  0  0  # atno 10763 bound_to 10752
  154.8750  135.3842  154.4255 H   0  0  0  0  0  0  0  0  0  0  0  0  # atno 10764 bound_to 10752
  153.4789  135.7088  153.6013 H   0  0  0  0  0  0  0  0  0  0  0  0  # atno 10765 bound_to 10752
  141.1442  133.8026  157.0435 H   0  0  0  0  0  0  0  0  0  0  0  0  # atno 11005 bound_to 11000
  145.6458  141.0274  143.1787 LP  0  0  0  0  0  0  0  0  0  0  0  0  # atno 17320 bound_to 7965
  144.7209  139.8034  143.7382 LP  0  0  0  0  0  0  0  0  0  0  0  0  # atno 17321 bound_to 7965
  139.5142  144.3417  152.0734 LP  0  0  0  0  0  0  0  0  0  0  0  0  # atno 17342 bound_to 10162
  140.2560  144.4118  150.6203 LP  0  0  0  0  0  0  0  0  0  0  0  0  # atno 17343 bound_to 10162
  157.7383  130.9811  150.2246 LP  0  0  0  0  0  0  0  0  0  0  0  0  # atno 17370 bound_to 10713
  156.2865  130.3740  149.7883 LP  0  0  0  0  0  0  0  0  0  0  0  0  # atno 17371 bound_to 10713
  140.0677  134.9719  157.1414 LP  0  0  0  0  0  0  0  0  0  0  0  0  # atno 17394 bound_to 11000
  140.3755  134.2343  155.7174 LP  0  0  0  0  0  0  0  0  0  0  0  0  # atno 17395 bound_to 11000

$$$$
