AV-unprocessed.smi:1521|AV-procd|sdf|6133|dock3
  -GOLD-   22720 6273D 1   1.00000     0.00000
 Structure written by MMmdl.
 35 36  0  0  0  0  0  0  0  0  2 V2000
  153.4174  138.2198  160.0355 O   0  0  0  0  0  0  0  0  0  0  0  0
  154.3237  138.9822  160.3689 C   0  0  0  0  0  0  0  0  0  0  0  0
  155.4773  138.5590  160.9050 N   0  0  0  0  0  0  0  0  0  0  0  0
  155.8381  137.1645  161.1390 C   0  0  0  0  0  0  0  0  0  0  0  0
  154.8380  136.4727  162.0814 C   0  0  1  0  0  0  0  0  0  0  0  0
  155.2428  135.0159  162.3827 C   0  0  0  0  0  0  0  0  0  0  0  0
  154.3025  134.4434  163.2823 O   0  0  0  0  0  0  0  0  0  0  0  0
  154.2574  135.1610  164.5080 C   0  0  0  0  0  0  0  0  0  0  0  0
  153.8605  136.6180  164.2207 C   0  0  0  0  0  0  0  0  0  0  0  0
  154.8006  137.1807  163.3163 O   0  0  0  0  0  0  0  0  0  0  0  0
  154.3211  140.3224  160.2492 N   0  0  0  0  0  0  0  0  0  0  0  0
  153.3384  141.1851  159.7310 C   0  0  0  0  0  0  0  0  0  0  0  0
  152.9686  142.3768  160.2781 C   0  0  0  0  0  0  0  0  0  0  0  0
  151.9378  143.2211  159.6870 C   0  0  0  0  0  0  0  0  0  0  0  0
  151.5596  144.5905  160.2234 C   0  0  0  0  0  0  0  0  0  0  0  0
  150.2425  144.6868  160.4070 F   0  0  0  0  0  0  0  0  0  0  0  0
  152.1582  144.7998  161.3953 F   0  0  0  0  0  0  0  0  0  0  0  0
  151.9387  145.5547  159.3843 F   0  0  0  0  0  0  0  0  0  0  0  0
  151.4207  142.6822  158.5252 C   0  0  0  0  0  0  0  0  0  0  0  0
  151.7187  141.5091  157.9257 N   0  5  0  0  0  0  0  0  0  0  0  0
  152.6801  140.7250  158.4900 C   0  0  0  0  0  0  0  0  0  0  0  0
  153.0068  139.6483  157.9887 O   0  0  0  0  0  0  0  0  0  0  0  0
  156.1675  139.2537  161.1494 H   0  0  0  0  0  0  0  0  0  0  0  0
  155.8363  136.6624  160.1712 H   0  0  0  0  0  0  0  0  0  0  0  0
  156.8552  137.0816  161.5256 H   0  0  0  0  0  0  0  0  0  0  0  0
  153.8474  136.4850  161.6227 H   0  0  0  0  0  0  0  0  0  0  0  0
  155.2533  134.4269  161.4655 H   0  0  0  0  0  0  0  0  0  0  0  0
  156.2469  134.9669  162.8075 H   0  0  0  0  0  0  0  0  0  0  0  0
  153.5300  134.6923  165.1705 H   0  0  0  0  0  0  0  0  0  0  0  0
  155.2261  135.1137  165.0079 H   0  0  0  0  0  0  0  0  0  0  0  0
  152.8538  136.6746  163.8037 H   0  0  0  0  0  0  0  0  0  0  0  0
  153.8609  137.2007  165.1418 H   0  0  0  0  0  0  0  0  0  0  0  0
  155.1564  140.7963  160.5602 H   0  0  0  0  0  0  0  0  0  0  0  0
  153.4294  142.7456  161.1784 H   0  0  0  0  0  0  0  0  0  0  0  0
  150.6545  143.2874  157.9950 H   0  0  0  0  0  0  0  0  0  0  0  0
  1  2  2  0  0  0  0
  2  3  1  0  0  0  0
  2 11  1  0  0  0  0
  3  4  1  0  0  0  0
  3 23  1  0  0  0  0
  4  5  1  0  0  0  0
  4 24  1  0  0  0  0
  4 25  1  0  0  0  0
  5 10  1  0  0  0  0
  5  6  1  0  0  0  0
  5 26  1  0  0  0  0
  6  7  1  0  0  0  0
  6 27  1  0  0  0  0
  6 28  1  0  0  0  0
  7  8  1  0  0  0  0
  8  9  1  0  0  0  0
  8 29  1  0  0  0  0
  8 30  1  0  0  0  0
  9 10  1  0  0  0  0
  9 31  1  0  0  0  0
  9 32  1  0  0  0  0
 11 12  1  0  0  0  0
 11 33  1  0  0  0  0
 12 21  1  0  0  0  0
 12 13  2  0  0  0  0
 13 14  1  0  0  0  0
 13 34  1  0  0  0  0
 14 15  1  0  0  0  0
 14 19  2  0  0  0  0
 15 16  1  0  0  0  0
 15 17  1  0  0  0  0
 15 18  1  0  0  0  0
 19 20  1  0  0  0  0
 19 35  1  0  0  0  0
 20 21  1  0  0  0  0
 21 22  2  0  0  0  0
M  CHG  1  20  -1
M  END
> <s_m_source_file>
AV-unprocessed.smi

> <i_m_source_file_index>
1521

> <i_lp_mmshare_version>
43012

> <i_f3d_flags>
0

> <s_epik_input>
Tz1jMVtuSF1bY0hdYyhDKEYpKEYpRilbY0hdYzFbTkhdQyg9TylbTkhdW0NIMl1bQ0BASF0yW0NIMl1PW0NIMl1bQ0gyXU8y

> <s_epik_cmdline>
J2VwaWtfcHl0aG9uJywgJy1waCcsICc3LjAnLCAnLXRuJywgJzgnLCAnLW1hJywgJzIwMCcsICctbWV0YWxfYmluZGluZycsICctaW1hZScsICc8aW5maWxlLm1hZT4nLCAnLW9tYWUnLCAnPG91dGZpbGUubWFlPic=

> <r_lp_tautomer_probability>
1

> <r_epik_Ionization_Penalty>
3.1412

> <r_epik_Ionization_Penalty_Charging>
0.17015

> <r_epik_Ionization_Penalty_Neutral>
2.97105

> <r_epik_State_Penalty>
2.96707

> <r_epik_Charging_Adjusted_Penalty>
3.13722

> <i_epik_Tot_Q>
-1

> <i_epik_Tot_abs_Q>
1

> <r_epik_Metal_State_Penalty>
0.451298

> <b_epik_Metal_Only>
1

> <s_lp_Force_Field>
OPLS_2005

> <r_lp_Energy>
21.3

> <b_lp_Chiralities_Consistent>
1

> <s_lp_Variant>
AV-unprocessed.smi:1521-4

> <Gold.Version>
5.8.1

> <Gold.Id.Protein>
6NUR|6NUR_protein|mol2

> <Gold.PLP.Fitness>
42.0331

> <Gold.PLP.PLP>
-39.9420

> <Gold.PLP.part.hbond>
-1.0000

> <Gold.PLP.part.metal>
0.0000

> <Gold.PLP.part.buried>
-3.8322

> <Gold.PLP.part.nonpolar>
-35.1343

> <Gold.PLP.part.repulsive>
0.1029

> <Gold.PLP.ligand.clash>
0.0000

> <Gold.PLP.ligand.torsion>
0.4802

> <Gold.PLP.Chemscore.Hbond>
1.0000

> <Gold.PLP.Chemscore.CHOScore>
0.0000

> <Gold.PLP.Chemscore.Metal>
0.0000

> <Gold.Chemscore.Hbonds>
donor molecule, donor type, donor heavy atom, donor atom, acceptor molecule, acceptor atom, score
      P1  H  7997  8010       L1    22  1.00

> <Gold.PLP.Chemscore.Internal.Correction>
0.0516

> <Gold.Rescore>
     Score         DG    S(hbond)    S(metal)    S(lipo)     H(rot)  DE(clash)    DE(int)     intcor
     11.00     -15.10       0.96        0.00      84.56       1.36       0.77       3.33       ----

> <Gold.Chemscore.Fitness>
11.0000

> <Gold.Chemscore.DG>
-15.1028

> <Gold.Chemscore.ZeroCoef>
-5.4800

> <Gold.Chemscore.Hbond>
0.9644

> <Gold.Chemscore.Metal>
0.0000

> <Gold.Chemscore.Lipo>
84.5607

> <Gold.Chemscore.Internal_Hbond>
0.0000

> <Gold.Chemscore.DEClash>
0.7690

> <Gold.Chemscore.DEInternal>
3.3338

> <Gold.Chemscore.Rot>
1.3640

> <Gold.Chemscore.Internal.Correction>
   9.000000E+99

> <Gold.Chemscore.Hbonds>
donor molecule, donor type, donor heavy atom, donor atom, acceptor molecule, acceptor atom, score
      P1  H  7997  8010       L1    22  0.50

> <Gold.Chemscore.Hbond.Weighted>
-3.2209

> <Gold.Chemscore.Metal.Weighted>
-0.0000

> <Gold.Chemscore.Lipo.Weighted>
-9.8936

> <Gold.Chemscore.Internal_Hbond.Weighted>
0.0000

> <Gold.Chemscore.DEClash.Weighted>
0.7690

> <Gold.Chemscore.DEInternal.Weighted>
3.3338

> <Gold.Chemscore.Rot.Weighted>
3.4918

> <Gold.Chemscore.Internal.Correction.Weighted>
   9.000000E+99

> <Gold.Protein.RotatedTorsions>
[ 6907 6896 6895 6894 ] final    5.98 input  -60.11 | X-H torsion
[ 7974 7965 7964 7962 ] final  175.53 input  175.53 | X-H torsion
[ 8008 7997 7996 7995 ] final   41.58 input   59.86 | X-H torsion
[ 10167 10162 10161 10158 ] final  -75.13 input  -65.29 | X-H torsion
[ 10718 10713 10712 10709 ] final  100.05 input   66.30 | X-H torsion
[ 10763 10752 10751 10750 ] final  108.20 input  -60.55 | X-H torsion
[ 11005 11000 10999 10996 ] final -134.45 input  -57.11 | X-H torsion

> <Gold.Protein.ActiveResidues>
 VAL166  LYS551  ARG553  GLY616  TRP617  ASP618  TYR619  PRO620  LYS621  CYS622 
 ASP623  PHE694  ASN695  SER759  ASP760  ASP761  ALA762  ILE779  LEU786  VAL792 
 PHE793  MET794  SER795  GLU796  ALA797  LYS798  CYS799  TRP800  GLU811  SER814 

> <Gold.Protein.RotatedAtoms>
  151.6663  135.0982  160.0189 H   0  0  0  0  0  0  0  0  0  0  0  0  # atno 6907 bound_to 6896
  152.3917  133.6685  159.6252 H   0  0  0  0  0  0  0  0  0  0  0  0  # atno 6908 bound_to 6896
  150.7832  133.8859  159.3340 H   0  0  0  0  0  0  0  0  0  0  0  0  # atno 6909 bound_to 6896
  144.7200  139.9960  143.6440 H   0  0  0  0  0  0  0  0  0  0  0  0  # atno 7974 bound_to 7965
  155.2720  140.3366  155.4264 H   0  0  0  0  0  0  0  0  0  0  0  0  # atno 8008 bound_to 7997
  156.2128  140.1777  156.7697 H   0  0  0  0  0  0  0  0  0  0  0  0  # atno 8009 bound_to 7997
  154.5711  140.0670  156.8950 H   0  0  0  0  0  0  0  0  0  0  0  0  # atno 8010 bound_to 7997
  140.4968  143.2369  151.7817 H   0  0  0  0  0  0  0  0  0  0  0  0  # atno 10167 bound_to 10162
  157.6863  131.0687  150.5041 H   0  0  0  0  0  0  0  0  0  0  0  0  # atno 10718 bound_to 10713
  153.4173  135.3820  155.2089 H   0  0  0  0  0  0  0  0  0  0  0  0  # atno 10763 bound_to 10752
  154.8742  135.3808  154.4427 H   0  0  0  0  0  0  0  0  0  0  0  0  # atno 10764 bound_to 10752
  153.4943  135.7088  153.5929 H   0  0  0  0  0  0  0  0  0  0  0  0  # atno 10765 bound_to 10752
  140.8989  134.1716  157.4475 H   0  0  0  0  0  0  0  0  0  0  0  0  # atno 11005 bound_to 11000
  146.0374  139.3390  143.0718 LP  0  0  0  0  0  0  0  0  0  0  0  0  # atno 17320 bound_to 7965
  145.8378  140.9597  143.0815 LP  0  0  0  0  0  0  0  0  0  0  0  0  # atno 17321 bound_to 7965
  139.4863  144.4576  151.9580 LP  0  0  0  0  0  0  0  0  0  0  0  0  # atno 17342 bound_to 10162
  140.3663  144.2910  150.5926 LP  0  0  0  0  0  0  0  0  0  0  0  0  # atno 17343 bound_to 10162
  156.5361  130.4196  149.6177 LP  0  0  0  0  0  0  0  0  0  0  0  0  # atno 17370 bound_to 10713
  156.3026  130.7185  151.2060 LP  0  0  0  0  0  0  0  0  0  0  0  0  # atno 17371 bound_to 10713
  139.8739  134.9889  156.5435 LP  0  0  0  0  0  0  0  0  0  0  0  0  # atno 17394 bound_to 11000
  140.8255  133.8320  155.8935 LP  0  0  0  0  0  0  0  0  0  0  0  0  # atno 17395 bound_to 11000

$$$$
