AV-unprocessed.smi:2888|AV-procd|sdf|11102|dock4
  -GOLD-   2272015573D 1   1.00000     0.00000
 Structure written by MMmdl.
 33 35  0  0  0  0  0  0  0  0  1 V2000
  152.1056  145.2473  158.8539 C   0  0  0  0  0  0  0  0  0  0  0  0
  152.2530  143.7551  159.0610 C   0  0  0  0  0  0  0  0  0  0  0  0
  153.0882  143.2270  160.0676 C   0  0  0  0  0  0  0  0  0  0  0  0
  153.1382  141.8201  160.1564 C   0  0  0  0  0  0  0  0  0  0  0  0
  153.9959  141.1222  161.1904 C   0  0  0  0  0  0  0  0  0  0  0  0
  152.4284  141.0276  159.3225 N   0  0  0  0  0  0  0  0  0  0  0  0
  151.6730  141.6350  158.4039 C   0  0  0  0  0  0  0  0  0  0  0  0
  150.9698  140.7927  157.5625 N   0  0  0  0  0  0  0  0  0  0  0  0
  151.1016  140.7879  156.1100 C   0  0  2  0  0  0  0  0  0  0  0  0
  149.8420  141.2690  155.3865 C   0  0  0  0  0  0  0  0  0  0  0  0
  149.5787  140.1119  154.4120 C   0  0  2  0  0  0  0  0  0  0  0  0
  148.9976  138.8897  155.1342 C   0  0  0  0  0  0  0  0  0  0  0  0
  150.2150  138.3740  155.8989 C   0  0  0  0  0  0  0  0  0  0  0  0
  151.2989  139.3885  155.4946 C   0  0  1  0  0  0  0  0  0  0  0  0
  150.8991  139.6592  154.1615 O   0  0  0  0  0  0  0  0  0  0  0  0
  151.5472  142.9562  158.2310 N   0  0  0  0  0  0  0  0  0  0  0  0
  152.6266  145.8064  159.6313 H   0  0  0  0  0  0  0  0  0  0  0  0
  151.0535  145.5329  158.8771 H   0  0  0  0  0  0  0  0  0  0  0  0
  152.5201  145.5371  157.8882 H   0  0  0  0  0  0  0  0  0  0  0  0
  153.6563  143.8626  160.7310 H   0  0  0  0  0  0  0  0  0  0  0  0
  154.4169  141.8362  161.8990 H   0  0  0  0  0  0  0  0  0  0  0  0
  154.8184  140.5959  160.7057 H   0  0  0  0  0  0  0  0  0  0  0  0
  153.4048  140.3967  161.7498 H   0  0  0  0  0  0  0  0  0  0  0  0
  150.4929  140.0149  157.9941 H   0  0  0  0  0  0  0  0  0  0  0  0
  151.9359  141.4307  155.8252 H   0  0  0  0  0  0  0  0  0  0  0  0
  148.9930  141.4444  156.0488 H   0  0  0  0  0  0  0  0  0  0  0  0
  150.0463  142.1947  154.8473 H   0  0  0  0  0  0  0  0  0  0  0  0
  149.0249  140.4019  153.5187 H   0  0  0  0  0  0  0  0  0  0  0  0
  148.1642  139.1493  155.7879 H   0  0  0  0  0  0  0  0  0  0  0  0
  148.6519  138.1431  154.4185 H   0  0  0  0  0  0  0  0  0  0  0  0
  150.0525  138.3272  156.9759 H   0  0  0  0  0  0  0  0  0  0  0  0
  150.4810  137.3733  155.5568 H   0  0  0  0  0  0  0  0  0  0  0  0
  152.3156  139.0052  155.5842 H   0  0  0  0  0  0  0  0  0  0  0  0
  1  2  1  0  0  0  0
  1 17  1  0  0  0  0
  1 18  1  0  0  0  0
  1 19  1  0  0  0  0
  2 16  1  0  0  0  0
  2  3  2  0  0  0  0
  3  4  1  0  0  0  0
  3 20  1  0  0  0  0
  4  5  1  0  0  0  0
  4  6  2  0  0  0  0
  5 21  1  0  0  0  0
  5 22  1  0  0  0  0
  5 23  1  0  0  0  0
  6  7  1  0  0  0  0
  7  8  1  0  0  0  0
  7 16  2  0  0  0  0
  8  9  1  0  0  0  0
  8 24  1  0  0  0  0
  9 14  1  0  0  0  0
  9 10  1  0  0  0  0
  9 25  1  0  0  0  0
 10 11  1  0  0  0  0
 10 26  1  0  0  0  0
 10 27  1  0  0  0  0
 11 15  1  0  0  0  0
 11 12  1  0  0  0  0
 11 28  1  0  0  0  0
 12 13  1  0  0  0  0
 12 29  1  0  0  0  0
 12 30  1  0  0  0  0
 13 14  1  0  0  0  0
 13 31  1  0  0  0  0
 13 32  1  0  0  0  0
 14 15  1  0  0  0  0
 14 33  1  0  0  0  0
M  END
> <s_m_source_file>
AV-unprocessed.smi

> <i_m_source_file_index>
2888

> <i_lp_mmshare_version>
43012

> <i_f3d_flags>
0

> <s_epik_input>
W0NIM11jMVtjSF1jKFtDSDNdKW5jKG4xKVtOSF1bQ0BIXShbQ0gyXVtDQEBIXTIzKVtDQEBIXShPMylbQ0gyXVtDSDJdMg==

> <s_epik_cmdline>
J2VwaWtfcHl0aG9uJywgJy1waCcsICc3LjAnLCAnLXRuJywgJzgnLCAnLW1hJywgJzIwMCcsICctbWV0YWxfYmluZGluZycsICctaW1hZScsICc8aW5maWxlLm1hZT4nLCAnLW9tYWUnLCAnPG91dGZpbGUubWFlPic=

> <r_lp_tautomer_probability>
1

> <r_epik_Ionization_Penalty>
0.00890508

> <r_epik_Ionization_Penalty_Charging>
0

> <r_epik_Ionization_Penalty_Neutral>
0.00890508

> <r_epik_State_Penalty>
0.0067342

> <r_epik_Charging_Adjusted_Penalty>
0.0067342

> <i_epik_Tot_Q>
0

> <i_epik_Tot_abs_Q>
0

> <r_epik_Metal_State_Penalty>
0.00663442

> <b_epik_Metal_Only>
0

> <s_lp_Force_Field>
OPLS_2005

> <r_lp_Energy>
31.8735

> <b_lp_Chiralities_Consistent>
1

> <s_lp_Variant>
AV-unprocessed.smi:2888-3

> <Gold.Version>
5.8.1

> <Gold.Id.Protein>
6NUR|6NUR_protein|mol2

> <Gold.PLP.Fitness>
37.6586

> <Gold.PLP.PLP>
-35.9098

> <Gold.PLP.part.hbond>
-0.9693

> <Gold.PLP.part.metal>
0.0000

> <Gold.PLP.part.buried>
-3.3649

> <Gold.PLP.part.nonpolar>
-31.1622

> <Gold.PLP.part.repulsive>
0.2661

> <Gold.PLP.ligand.clash>
0.0000

> <Gold.PLP.ligand.torsion>
0.6300

> <Gold.PLP.Chemscore.Hbond>
1.0000

> <Gold.PLP.Chemscore.CHOScore>
0.0000

> <Gold.PLP.Chemscore.Metal>
0.0000

> <Gold.Chemscore.Hbonds>
donor molecule, donor type, donor heavy atom, donor atom, acceptor molecule, acceptor atom, score
      P1  H  7989  7998       L1    15  1.00

> <Gold.PLP.Chemscore.Internal.Correction>
0.0089

> <Gold.Rescore>
     Score         DG    S(hbond)    S(metal)    S(lipo)     H(rot)  DE(clash)    DE(int)     intcor
     16.34     -16.85       0.86        0.00      94.43       1.00       0.01       0.50       ----

> <Gold.Chemscore.Fitness>
16.3369

> <Gold.Chemscore.DG>
-16.8463

> <Gold.Chemscore.ZeroCoef>
-5.4800

> <Gold.Chemscore.Hbond>
0.8617

> <Gold.Chemscore.Metal>
0.0000

> <Gold.Chemscore.Lipo>
94.4297

> <Gold.Chemscore.Internal_Hbond>
0.0000

> <Gold.Chemscore.DEClash>
0.0102

> <Gold.Chemscore.DEInternal>
0.4992

> <Gold.Chemscore.Rot>
1.0000

> <Gold.Chemscore.Internal.Correction>
   9.000000E+99

> <Gold.Chemscore.Hbonds>
donor molecule, donor type, donor heavy atom, donor atom, acceptor molecule, acceptor atom, score
      P1  H  7989  7998       L1    15  0.48

> <Gold.Chemscore.Hbond.Weighted>
-2.8780

> <Gold.Chemscore.Metal.Weighted>
-0.0000

> <Gold.Chemscore.Lipo.Weighted>
-11.0483

> <Gold.Chemscore.Internal_Hbond.Weighted>
0.0000

> <Gold.Chemscore.DEClash.Weighted>
0.0102

> <Gold.Chemscore.DEInternal.Weighted>
0.4992

> <Gold.Chemscore.Rot.Weighted>
2.5600

> <Gold.Chemscore.Internal.Correction.Weighted>
   9.000000E+99

> <Gold.Protein.RotatedTorsions>
[ 6907 6896 6895 6894 ] final   -1.44 input  -60.11 | X-H torsion
[ 7974 7965 7964 7962 ] final -129.66 input  175.53 | X-H torsion
[ 8008 7997 7996 7995 ] final  130.91 input   59.86 | X-H torsion
[ 10167 10162 10161 10158 ] final  156.98 input  -65.29 | X-H torsion
[ 10718 10713 10712 10709 ] final   52.44 input   66.30 | X-H torsion
[ 10763 10752 10751 10750 ] final  145.58 input  -60.55 | X-H torsion
[ 11005 11000 10999 10996 ] final  142.77 input  -57.11 | X-H torsion

> <Gold.Protein.ActiveResidues>
 VAL166  LYS551  ARG553  GLY616  TRP617  ASP618  TYR619  PRO620  LYS621  CYS622 
 ASP623  PHE694  ASN695  SER759  ASP760  ASP761  ALA762  ILE779  LEU786  VAL792 
 PHE793  MET794  SER795  GLU796  ALA797  LYS798  CYS799  TRP800  GLU811  SER814 

> <Gold.Protein.RotatedAtoms>
  151.5461  135.1068  159.9937 H   0  0  0  0  0  0  0  0  0  0  0  0  # atno 6907 bound_to 6896
  152.4513  133.7631  159.6768 H   0  0  0  0  0  0  0  0  0  0  0  0  # atno 6908 bound_to 6896
  150.8442  133.7821  159.3073 H   0  0  0  0  0  0  0  0  0  0  0  0  # atno 6909 bound_to 6896
  144.9550  140.7386  143.4764 H   0  0  0  0  0  0  0  0  0  0  0  0  # atno 7974 bound_to 7965
  156.2962  140.2584  156.2839 H   0  0  0  0  0  0  0  0  0  0  0  0  # atno 8008 bound_to 7997
  154.9575  140.0393  157.2192 H   0  0  0  0  0  0  0  0  0  0  0  0  # atno 8009 bound_to 7997
  154.7978  140.2823  155.5948 H   0  0  0  0  0  0  0  0  0  0  0  0  # atno 8010 bound_to 7997
  139.4822  144.4959  151.8240 H   0  0  0  0  0  0  0  0  0  0  0  0  # atno 10167 bound_to 10162
  157.5075  130.8479  149.8393 H   0  0  0  0  0  0  0  0  0  0  0  0  # atno 10718 bound_to 10713
  154.0077  135.2917  155.3396 H   0  0  0  0  0  0  0  0  0  0  0  0  # atno 10763 bound_to 10752
  154.7121  135.5145  153.8686 H   0  0  0  0  0  0  0  0  0  0  0  0  # atno 10764 bound_to 10752
  153.0737  135.6656  154.0312 H   0  0  0  0  0  0  0  0  0  0  0  0  # atno 10765 bound_to 10752
  140.0503  134.9259  157.1004 H   0  0  0  0  0  0  0  0  0  0  0  0  # atno 11005 bound_to 11000
  145.2786  139.1927  143.4803 LP  0  0  0  0  0  0  0  0  0  0  0  0  # atno 17320 bound_to 7965
  146.3334  140.2744  142.8607 LP  0  0  0  0  0  0  0  0  0  0  0  0  # atno 17321 bound_to 7965
  140.4448  144.1937  150.5893 LP  0  0  0  0  0  0  0  0  0  0  0  0  # atno 17342 bound_to 10162
  140.4646  143.2436  151.9173 LP  0  0  0  0  0  0  0  0  0  0  0  0  # atno 17343 bound_to 10162
  156.0268  130.3777  150.1801 LP  0  0  0  0  0  0  0  0  0  0  0  0  # atno 17370 bound_to 10713
  156.9991  130.9917  151.3395 LP  0  0  0  0  0  0  0  0  0  0  0  0  # atno 17371 bound_to 10713
  140.3929  134.2165  155.7165 LP  0  0  0  0  0  0  0  0  0  0  0  0  # atno 17394 bound_to 11000
  141.1927  133.8168  157.0830 LP  0  0  0  0  0  0  0  0  0  0  0  0  # atno 17395 bound_to 11000

$$$$
