AV-unprocessed.smi:1867|AV-procd|sdf|7570|dock2
  -GOLD-   22720 9283D 1   1.00000     0.00000
 Structure written by MMmdl.
 53 56  0  0  0  0  0  0  0  0  3 V2000
  149.4794  135.0988  156.2660 O   0  0  0  0  0  0  0  0  0  0  0  0
  149.3667  135.4687  155.1000 C   0  0  0  0  0  0  0  0  0  0  0  0
  149.6554  136.7085  154.6577 N   0  0  0  0  0  0  0  0  0  0  0  0
  150.2021  137.8028  155.3806 C   0  0  0  0  0  0  0  0  0  0  0  0
  150.2032  139.0674  154.7550 C   0  0  0  0  0  0  0  0  0  0  0  0
  150.7340  140.1847  155.4317 C   0  0  0  0  0  0  0  0  0  0  0  0
  151.2515  140.0303  156.7394 C   0  0  0  0  0  0  0  0  0  0  0  0
  151.8121  141.0940  157.4703 N   0  0  0  0  0  0  0  0  0  0  0  0
  151.3371  142.4607  157.3393 C   0  0  0  0  0  0  0  0  0  0  0  0
  152.1615  143.2516  158.3547 C   0  0  0  0  0  0  0  0  0  0  0  0
  152.4153  142.2348  159.4689 C   0  0  0  0  0  0  0  0  0  0  0  0
  152.4999  140.8898  158.7378 C   0  0  0  0  0  0  0  0  0  0  0  0
  151.2153  138.8017  157.3076 N   0  3  0  0  0  0  0  0  0  0  0  0
  150.7179  137.7053  156.6953 C   0  0  0  0  0  0  0  0  0  0  0  0
  148.9346  134.6242  154.1459 N   0  0  0  0  0  0  0  0  0  0  0  0
  148.5369  133.2200  154.2699 C   0  0  2  0  0  0  0  0  0  0  0  0
  149.7280  132.2890  154.4696 C   0  0  0  0  0  0  0  0  0  0  0  0
  149.1543  130.9323  154.0598 C   0  0  0  0  0  0  0  0  0  0  0  0
  148.1907  131.2136  152.9721 N   0  3  1  0  0  0  0  0  0  0  0  0
  147.0155  130.3091  152.9384 C   0  0  0  0  0  0  0  0  0  0  0  0
  146.0828  130.6774  151.7707 C   0  0  0  0  0  0  0  0  0  0  0  0
  145.7081  132.1740  151.7470 C   0  0  0  0  0  0  0  0  0  0  0  0
  146.3676  132.9660  152.8877 C   0  0  0  0  0  0  0  0  0  0  0  0
  147.8826  132.6726  152.9869 C   0  0  1  0  0  0  0  0  0  0  0  0
  149.5521  136.8552  153.6645 H   0  0  0  0  0  0  0  0  0  0  0  0
  149.8090  139.1839  153.7560 H   0  0  0  0  0  0  0  0  0  0  0  0
  150.7399  141.1445  154.9370 H   0  0  0  0  0  0  0  0  0  0  0  0
  151.4740  142.8430  156.3274 H   0  0  0  0  0  0  0  0  0  0  0  0
  150.2756  142.5013  157.5869 H   0  0  0  0  0  0  0  0  0  0  0  0
  153.1107  143.5501  157.9071 H   0  0  0  0  0  0  0  0  0  0  0  0
  151.6558  144.1522  158.7035 H   0  0  0  0  0  0  0  0  0  0  0  0
  153.3101  142.4559  160.0516 H   0  0  0  0  0  0  0  0  0  0  0  0
  151.5655  142.2263  160.1527 H   0  0  0  0  0  0  0  0  0  0  0  0
  152.0488  140.0924  159.3297 H   0  0  0  0  0  0  0  0  0  0  0  0
  153.5381  140.6230  158.5367 H   0  0  0  0  0  0  0  0  0  0  0  0
  150.7493  136.8040  157.2884 H   0  0  0  0  0  0  0  0  0  0  0  0
  148.8515  135.0164  153.2186 H   0  0  0  0  0  0  0  0  0  0  0  0
  147.8687  133.0746  155.1209 H   0  0  0  0  0  0  0  0  0  0  0  0
  150.5460  132.5639  153.8014 H   0  0  0  0  0  0  0  0  0  0  0  0
  150.1081  132.2956  155.4917 H   0  0  0  0  0  0  0  0  0  0  0  0
  149.9250  130.2313  153.7383 H   0  0  0  0  0  0  0  0  0  0  0  0
  148.6354  130.4900  154.9118 H   0  0  0  0  0  0  0  0  0  0  0  0
  147.3551  129.2779  152.8344 H   0  0  0  0  0  0  0  0  0  0  0  0
  146.4751  130.3679  153.8848 H   0  0  0  0  0  0  0  0  0  0  0  0
  146.5694  130.4182  150.8293 H   0  0  0  0  0  0  0  0  0  0  0  0
  145.1797  130.0675  151.8176 H   0  0  0  0  0  0  0  0  0  0  0  0
  146.0124  132.6019  150.7909 H   0  0  0  0  0  0  0  0  0  0  0  0
  144.6250  132.2906  151.7974 H   0  0  0  0  0  0  0  0  0  0  0  0
  146.1993  134.0323  152.7357 H   0  0  0  0  0  0  0  0  0  0  0  0
  145.8765  132.7139  153.8287 H   0  0  0  0  0  0  0  0  0  0  0  0
  148.3842  133.0940  152.1139 H   0  0  0  0  0  0  0  0  0  0  0  0
  148.6878  131.0571  152.1066 H   0  0  0  0  0  0  0  0  0  0  0  0
  151.5861  138.6962  158.2521 H   0  0  0  0  0  0  0  0  0  0  0  0
  1  2  2  0  0  0  0
  2  3  1  0  0  0  0
  2 15  1  0  0  0  0
  3  4  1  0  0  0  0
  3 25  1  0  0  0  0
  4 14  1  0  0  0  0
  4  5  2  0  0  0  0
  5  6  1  0  0  0  0
  5 26  1  0  0  0  0
  6  7  2  0  0  0  0
  6 27  1  0  0  0  0
  7  8  1  0  0  0  0
  7 13  1  0  0  0  0
  8 12  1  0  0  0  0
  8  9  1  0  0  0  0
  9 10  1  0  0  0  0
  9 28  1  0  0  0  0
  9 29  1  0  0  0  0
 10 11  1  0  0  0  0
 10 30  1  0  0  0  0
 10 31  1  0  0  0  0
 11 12  1  0  0  0  0
 11 32  1  0  0  0  0
 11 33  1  0  0  0  0
 12 34  1  0  0  0  0
 12 35  1  0  0  0  0
 13 14  2  0  0  0  0
 13 53  1  0  0  0  0
 14 36  1  0  0  0  0
 15 16  1  0  0  0  0
 15 37  1  0  0  0  0
 16 24  1  0  0  0  0
 16 17  1  0  0  0  0
 16 38  1  0  0  0  0
 17 18  1  0  0  0  0
 17 39  1  0  0  0  0
 17 40  1  0  0  0  0
 18 19  1  0  0  0  0
 18 41  1  0  0  0  0
 18 42  1  0  0  0  0
 19 24  1  0  0  0  0
 19 20  1  0  0  0  0
 19 52  1  0  0  0  0
 20 21  1  0  0  0  0
 20 43  1  0  0  0  0
 20 44  1  0  0  0  0
 21 22  1  0  0  0  0
 21 45  1  0  0  0  0
 21 46  1  0  0  0  0
 22 23  1  0  0  0  0
 22 47  1  0  0  0  0
 22 48  1  0  0  0  0
 23 24  1  0  0  0  0
 23 49  1  0  0  0  0
 23 50  1  0  0  0  0
 24 51  1  0  0  0  0
M  CHG  1  13   1
M  CHG  1  19   1
M  END
> <s_m_source_file>
AV-unprocessed.smi

> <i_m_source_file_index>
1867

> <i_lp_mmshare_version>
43012

> <i_f3d_flags>
0

> <s_epik_input>
W0NIMl0xW0NIMl1bQ0gyXVtDSDJdW0NASF0oTjEyKVtDQEBIXShbQ0gyXVtDSDJdMilbTkhdQyg9TylbTkhdYzNbY0hdW2NIXWMobltjSF0zKU40W0NIMl1bQ0gyXVtDSDJdW0NIMl00

> <s_epik_cmdline>
J2VwaWtfcHl0aG9uJywgJy1waCcsICc3LjAnLCAnLXRuJywgJzgnLCAnLW1hJywgJzIwMCcsICctbWV0YWxfYmluZGluZycsICctaW1hZScsICc8aW5maWxlLm1hZT4nLCAnLW9tYWUnLCAnPG91dGZpbGUubWFlPic=

> <r_lp_tautomer_probability>
0.999994

> <r_epik_Ionization_Penalty>
1.27347

> <r_epik_Ionization_Penalty_Charging>
1.27345

> <r_epik_Ionization_Penalty_Neutral>
1.96458e-05

> <r_epik_State_Penalty>
1.34393

> <r_epik_Charging_Adjusted_Penalty>
2.61738

> <i_epik_Tot_Q>
2

> <i_epik_Tot_abs_Q>
2

> <r_epik_Metal_State_Penalty>
1.41094

> <b_epik_Metal_Only>
0

> <s_lp_Force_Field>
OPLS_2005

> <r_lp_Energy>
84.232

> <b_lp_Chiralities_Consistent>
1

> <s_lp_Variant>
AV-unprocessed.smi:1867-11

> <Gold.Version>
5.8.1

> <Gold.Id.Protein>
6NUR|6NUR_protein|mol2

> <Gold.PLP.Fitness>
50.8489

> <Gold.PLP.PLP>
-42.4609

> <Gold.PLP.part.hbond>
-3.0000

> <Gold.PLP.part.metal>
0.0000

> <Gold.PLP.part.buried>
-3.3179

> <Gold.PLP.part.nonpolar>
-34.5583

> <Gold.PLP.part.repulsive>
0.0871

> <Gold.PLP.ligand.clash>
0.0000

> <Gold.PLP.ligand.torsion>
0.3792

> <Gold.PLP.Chemscore.Hbond>
3.0000

> <Gold.PLP.Chemscore.CHOScore>
0.0000

> <Gold.PLP.Chemscore.Metal>
0.0000

> <Gold.Chemscore.Hbonds>
donor molecule, donor type, donor heavy atom, donor atom, acceptor molecule, acceptor atom, score
      L1  H     3    25       P1  7948  1.00
      L1  H    15    37       P1  7948  1.00
      L1  H    19    52       P1 10747  1.00

> <Gold.PLP.Chemscore.Internal.Correction>
0.1464

> <Gold.Rescore>
     Score         DG    S(hbond)    S(metal)    S(lipo)     H(rot)  DE(clash)    DE(int)     intcor
     22.03     -24.11       2.69        0.00     104.42       1.00       0.01       2.07       ----

> <Gold.Chemscore.Fitness>
22.0318

> <Gold.Chemscore.DG>
-24.1110

> <Gold.Chemscore.ZeroCoef>
-5.4800

> <Gold.Chemscore.Hbond>
2.6868

> <Gold.Chemscore.Metal>
0.0000

> <Gold.Chemscore.Lipo>
104.4194

> <Gold.Chemscore.Internal_Hbond>
0.0000

> <Gold.Chemscore.DEClash>
0.0124

> <Gold.Chemscore.DEInternal>
2.0668

> <Gold.Chemscore.Rot>
1.0000

> <Gold.Chemscore.Internal.Correction>
   9.000000E+99

> <Gold.Chemscore.Hbonds>
donor molecule, donor type, donor heavy atom, donor atom, acceptor molecule, acceptor atom, score
      L1  H     3    25       P1  7948  0.77
      L1  H    15    37       P1  7948  0.39
      L1  H    19    52       P1 10747  0.88

> <Gold.Chemscore.Hbond.Weighted>
-8.9739

> <Gold.Chemscore.Metal.Weighted>
-0.0000

> <Gold.Chemscore.Lipo.Weighted>
-12.2171

> <Gold.Chemscore.Internal_Hbond.Weighted>
0.0000

> <Gold.Chemscore.DEClash.Weighted>
0.0124

> <Gold.Chemscore.DEInternal.Weighted>
2.0668

> <Gold.Chemscore.Rot.Weighted>
2.5600

> <Gold.Chemscore.Internal.Correction.Weighted>
   9.000000E+99

> <Gold.Protein.RotatedTorsions>
[ 6907 6896 6895 6894 ] final   31.68 input  -60.11 | X-H torsion
[ 7974 7965 7964 7962 ] final  -76.69 input  175.53 | X-H torsion
[ 8008 7997 7996 7995 ] final   -3.76 input   59.86 | X-H torsion
[ 10167 10162 10161 10158 ] final -178.02 input  -65.29 | X-H torsion
[ 10718 10713 10712 10709 ] final  -53.60 input   66.30 | X-H torsion
[ 10763 10752 10751 10750 ] final -130.58 input  -60.55 | X-H torsion
[ 11005 11000 10999 10996 ] final    3.89 input  -57.11 | X-H torsion

> <Gold.Protein.ActiveResidues>
 VAL166  LYS551  ARG553  GLY616  TRP617  ASP618  TYR619  PRO620  LYS621  CYS622 
 ASP623  PHE694  ASN695  SER759  ASP760  ASP761  ALA762  ILE779  LEU786  VAL792 
 PHE793  MET794  SER795  GLU796  ALA797  LYS798  CYS799  TRP800  GLU811  SER814 

> <Gold.Protein.RotatedAtoms>
  152.0637  134.9578  160.0574 H   0  0  0  0  0  0  0  0  0  0  0  0  # atno 6907 bound_to 6896
  152.0931  133.4206  159.4561 H   0  0  0  0  0  0  0  0  0  0  0  0  # atno 6908 bound_to 6896
  150.6837  134.2767  159.4654 H   0  0  0  0  0  0  0  0  0  0  0  0  # atno 6909 bound_to 6896
  145.6095  140.9390  143.1197 H   0  0  0  0  0  0  0  0  0  0  0  0  # atno 7974 bound_to 7965
  154.6214  140.2501  155.7544 H   0  0  0  0  0  0  0  0  0  0  0  0  # atno 8008 bound_to 7997
  156.2429  140.2926  156.0443 H   0  0  0  0  0  0  0  0  0  0  0  0  # atno 8009 bound_to 7997
  155.1890  140.0391  157.2887 H   0  0  0  0  0  0  0  0  0  0  0  0  # atno 8010 bound_to 7997
  139.5452  144.2254  152.0974 H   0  0  0  0  0  0  0  0  0  0  0  0  # atno 10167 bound_to 10162
  156.1521  130.4151  149.9928 H   0  0  0  0  0  0  0  0  0  0  0  0  # atno 10718 bound_to 10713
  154.8755  135.3858  154.4107 H   0  0  0  0  0  0  0  0  0  0  0  0  # atno 10763 bound_to 10752
  153.4821  135.7030  153.5937 H   0  0  0  0  0  0  0  0  0  0  0  0  # atno 10764 bound_to 10752
  153.4348  135.3870  155.2160 H   0  0  0  0  0  0  0  0  0  0  0  0  # atno 10765 bound_to 10752
  140.5880  133.9950  155.8076 H   0  0  0  0  0  0  0  0  0  0  0  0  # atno 11005 bound_to 11000
  144.7276  139.7827  143.7359 LP  0  0  0  0  0  0  0  0  0  0  0  0  # atno 17320 bound_to 7965
  146.1515  139.4599  143.0046 LP  0  0  0  0  0  0  0  0  0  0  0  0  # atno 17321 bound_to 7965
  140.1740  144.4909  150.6564 LP  0  0  0  0  0  0  0  0  0  0  0  0  # atno 17342 bound_to 10162
  140.6698  143.2281  151.5654 LP  0  0  0  0  0  0  0  0  0  0  0  0  # atno 17343 bound_to 10162
  156.7782  130.9211  151.3645 LP  0  0  0  0  0  0  0  0  0  0  0  0  # atno 17370 bound_to 10713
  157.6665  130.9013  149.9945 LP  0  0  0  0  0  0  0  0  0  0  0  0  # atno 17371 bound_to 10713
  141.0953  133.9853  157.3170 LP  0  0  0  0  0  0  0  0  0  0  0  0  # atno 17394 bound_to 11000
  139.9287  135.0201  156.8324 LP  0  0  0  0  0  0  0  0  0  0  0  0  # atno 17395 bound_to 11000

$$$$
