AV-unprocessed.smi:3181|AV-procd|sdf|12150|dock8
  -GOLD-   2272017593D 1   1.00000     0.00000
 Structure written by MMmdl.
 42 43  0  0  0  0  0  0  0  0  2 V2000
  149.4194  141.3428  154.7515 C   0  0  0  0  0  0  0  0  0  0  0  0
  150.3398  141.2711  155.9810 C   0  0  1  0  0  0  0  0  0  0  0  0
  151.6334  140.4713  155.7166 C   0  0  0  0  0  0  0  0  0  0  0  0
  151.3766  139.1210  155.2515 N   0  0  0  0  0  0  0  0  0  0  0  0
  152.2191  138.1226  154.9812 C   0  0  0  0  0  0  0  0  0  0  0  0
  151.6198  137.0129  154.5735 N   0  0  0  0  0  0  0  0  0  0  0  0
  150.3185  137.4277  154.6129 C   0  0  0  0  0  0  0  0  0  0  0  0
  150.1183  138.6841  155.0117 N   0  0  0  0  0  0  0  0  0  0  0  0
  150.6790  142.6435  156.4211 N   0  3  0  0  0  0  0  0  0  0  0  0
  150.8337  142.8446  157.8804 C   0  0  1  0  0  0  0  0  0  0  0  0
  151.6450  141.7080  158.5360 C   0  0  0  0  0  0  0  0  0  0  0  0
  151.8633  141.9602  160.0363 C   0  0  0  0  0  0  0  0  0  0  0  0
  152.5342  143.3242  160.2913 C   0  0  2  0  0  0  0  0  0  0  0  0
  152.8312  143.5450  161.7837 C   0  0  0  0  0  0  0  0  0  0  0  0
  151.7325  144.4832  159.6456 C   0  0  2  0  0  0  0  0  0  0  0  0
  150.4087  144.8158  160.3631 C   0  0  0  0  0  0  0  0  0  0  0  0
  151.5120  144.2039  158.1439 C   0  0  0  0  0  0  0  0  0  0  0  0
  149.0765  140.3533  154.4481 H   0  0  0  0  0  0  0  0  0  0  0  0
  149.9288  141.7946  153.8998 H   0  0  0  0  0  0  0  0  0  0  0  0
  148.5308  141.9388  154.9626 H   0  0  0  0  0  0  0  0  0  0  0  0
  149.7783  140.7694  156.7705 H   0  0  0  0  0  0  0  0  0  0  0  0
  152.2508  140.9849  154.9773 H   0  0  0  0  0  0  0  0  0  0  0  0
  152.2343  140.4024  156.6237 H   0  0  0  0  0  0  0  0  0  0  0  0
  153.2906  138.2083  155.0866 H   0  0  0  0  0  0  0  0  0  0  0  0
  149.4946  136.7853  154.3390 H   0  0  0  0  0  0  0  0  0  0  0  0
  151.5225  142.9417  155.9524 H   0  0  0  0  0  0  0  0  0  0  0  0
  149.8344  142.8679  158.3168 H   0  0  0  0  0  0  0  0  0  0  0  0
  151.1374  140.7514  158.4110 H   0  0  0  0  0  0  0  0  0  0  0  0
  152.6121  141.6118  158.0408 H   0  0  0  0  0  0  0  0  0  0  0  0
  150.9085  141.9068  160.5604 H   0  0  0  0  0  0  0  0  0  0  0  0
  152.4803  141.1614  160.4493 H   0  0  0  0  0  0  0  0  0  0  0  0
  153.5037  143.2975  159.7910 H   0  0  0  0  0  0  0  0  0  0  0  0
  151.9253  143.4977  162.3883 H   0  0  0  0  0  0  0  0  0  0  0  0
  153.2975  144.5159  161.9525 H   0  0  0  0  0  0  0  0  0  0  0  0
  153.5140  142.7835  162.1615 H   0  0  0  0  0  0  0  0  0  0  0  0
  152.3487  145.3812  159.7128 H   0  0  0  0  0  0  0  0  0  0  0  0
  149.7381  143.9586  160.4120 H   0  0  0  0  0  0  0  0  0  0  0  0
  149.8791  145.6179  159.8480 H   0  0  0  0  0  0  0  0  0  0  0  0
  150.5827  145.1581  161.3829 H   0  0  0  0  0  0  0  0  0  0  0  0
  152.4780  144.2258  157.6369 H   0  0  0  0  0  0  0  0  0  0  0  0
  150.9238  145.0086  157.7003 H   0  0  0  0  0  0  0  0  0  0  0  0
  149.9244  143.2438  156.1203 H   0  0  0  0  0  0  0  0  0  0  0  0
  1  2  1  0  0  0  0
  1 18  1  0  0  0  0
  1 19  1  0  0  0  0
  1 20  1  0  0  0  0
  2  3  1  0  0  0  0
  2  9  1  0  0  0  0
  2 21  1  0  0  0  0
  3  4  1  0  0  0  0
  3 22  1  0  0  0  0
  3 23  1  0  0  0  0
  4  8  1  0  0  0  0
  4  5  1  0  0  0  0
  5  6  2  0  0  0  0
  5 24  1  0  0  0  0
  6  7  1  0  0  0  0
  7  8  2  0  0  0  0
  7 25  1  0  0  0  0
  9 10  1  0  0  0  0
  9 26  1  0  0  0  0
  9 42  1  0  0  0  0
 10 17  1  0  0  0  0
 10 11  1  0  0  0  0
 10 27  1  0  0  0  0
 11 12  1  0  0  0  0
 11 28  1  0  0  0  0
 11 29  1  0  0  0  0
 12 13  1  0  0  0  0
 12 30  1  0  0  0  0
 12 31  1  0  0  0  0
 13 14  1  0  0  0  0
 13 15  1  0  0  0  0
 13 32  1  0  0  0  0
 14 33  1  0  0  0  0
 14 34  1  0  0  0  0
 14 35  1  0  0  0  0
 15 16  1  0  0  0  0
 15 17  1  0  0  0  0
 15 36  1  0  0  0  0
 16 37  1  0  0  0  0
 16 38  1  0  0  0  0
 16 39  1  0  0  0  0
 17 40  1  0  0  0  0
 17 41  1  0  0  0  0
M  CHG  1   9   1
M  END
> <s_m_source_file>
AV-unprocessed.smi

> <i_m_source_file_index>
3181

> <i_lp_mmshare_version>
43012

> <i_f3d_flags>
0

> <s_epik_input>
bjFbY0hdbltjSF1uMVtDSDJdW0NAQEhdKFtDSDNdKVtOSF1bQ0BASF0yW0NIMl1bQ0gyXVtDQEBIXShbQ0gzXSlbQ0BASF0oW0NIM10pW0NIMl0y

> <s_epik_cmdline>
J2VwaWtfcHl0aG9uJywgJy1waCcsICc3LjAnLCAnLXRuJywgJzgnLCAnLW1hJywgJzIwMCcsICctbWV0YWxfYmluZGluZycsICctaW1hZScsICc8aW5maWxlLm1hZT4nLCAnLW9tYWUnLCAnPG91dGZpbGUubWFlPic=

> <r_lp_tautomer_probability>
1

> <r_epik_Ionization_Penalty>
0.000617007

> <r_epik_Ionization_Penalty_Charging>
0.000616215

> <r_epik_Ionization_Penalty_Neutral>
7.92544e-07

> <r_epik_State_Penalty>
0.000388807

> <r_epik_Charging_Adjusted_Penalty>
0.00100502

> <i_epik_Tot_Q>
1

> <i_epik_Tot_abs_Q>
1

> <r_epik_Metal_State_Penalty>
-0

> <b_epik_Metal_Only>
0

> <s_lp_Force_Field>
OPLS_2005

> <r_lp_Energy>
21.8546

> <b_lp_Chiralities_Consistent>
1

> <s_lp_Variant>
AV-unprocessed.smi:3181-16

> <Gold.Version>
5.8.1

> <Gold.Id.Protein>
6NUR|6NUR_protein|mol2

> <Gold.PLP.Fitness>
52.1363

> <Gold.PLP.PLP>
-41.2011

> <Gold.PLP.part.hbond>
-2.0000

> <Gold.PLP.part.metal>
0.0000

> <Gold.PLP.part.buried>
-2.7024

> <Gold.PLP.part.nonpolar>
-36.2550

> <Gold.PLP.part.repulsive>
0.3684

> <Gold.PLP.ligand.clash>
0.0000

> <Gold.PLP.ligand.torsion>
0.5452

> <Gold.PLP.Chemscore.Hbond>
3.0000

> <Gold.PLP.Chemscore.CHOScore>
0.9992

> <Gold.PLP.Chemscore.Metal>
0.0000

> <Gold.Chemscore.Hbonds>
donor molecule, donor type, donor heavy atom, donor atom, acceptor molecule, acceptor atom, score
      L1  H     9    42       P1  8028  2.00
      P1  H 10752 10763       L1     6  1.00
      L1  C     7    25       P1  7948  0.74

> <Gold.PLP.Chemscore.Internal.Correction>
0.0280

> <Gold.Rescore>
     Score         DG    S(hbond)    S(metal)    S(lipo)     H(rot)  DE(clash)    DE(int)     intcor
     15.74     -18.52       1.90        0.00     103.45       2.11       0.27       2.51       ----

> <Gold.Chemscore.Fitness>
15.7430

> <Gold.Chemscore.DG>
-18.5234

> <Gold.Chemscore.ZeroCoef>
-5.4800

> <Gold.Chemscore.Hbond>
1.8984

> <Gold.Chemscore.Metal>
0.0000

> <Gold.Chemscore.Lipo>
103.4456

> <Gold.Chemscore.Internal_Hbond>
0.0000

> <Gold.Chemscore.DEClash>
0.2676

> <Gold.Chemscore.DEInternal>
2.5129

> <Gold.Chemscore.Rot>
2.1095

> <Gold.Chemscore.Internal.Correction>
   9.000000E+99

> <Gold.Chemscore.Hbonds>
donor molecule, donor type, donor heavy atom, donor atom, acceptor molecule, acceptor atom, score
      L1  H     9    42       P1  8028  1.00
      P1  H 10752 10763       L1     6  0.69

> <Gold.Chemscore.Hbond.Weighted>
-6.3406

> <Gold.Chemscore.Metal.Weighted>
-0.0000

> <Gold.Chemscore.Lipo.Weighted>
-12.1031

> <Gold.Chemscore.Internal_Hbond.Weighted>
0.0000

> <Gold.Chemscore.DEClash.Weighted>
0.2676

> <Gold.Chemscore.DEInternal.Weighted>
2.5129

> <Gold.Chemscore.Rot.Weighted>
5.4003

> <Gold.Chemscore.Internal.Correction.Weighted>
   9.000000E+99

> <Gold.Protein.RotatedTorsions>
[ 6907 6896 6895 6894 ] final   40.33 input  -60.11 | X-H torsion
[ 7974 7965 7964 7962 ] final  166.43 input  175.53 | X-H torsion
[ 8008 7997 7996 7995 ] final  160.18 input   59.86 | X-H torsion
[ 10167 10162 10161 10158 ] final   12.23 input  -65.29 | X-H torsion
[ 10718 10713 10712 10709 ] final -113.57 input   66.30 | X-H torsion
[ 10763 10752 10751 10750 ] final   38.20 input  -60.55 | X-H torsion
[ 11005 11000 10999 10996 ] final -159.81 input  -57.11 | X-H torsion

> <Gold.Protein.ActiveResidues>
 VAL166  LYS551  ARG553  GLY616  TRP617  ASP618  TYR619  PRO620  LYS621  CYS622 
 ASP623  PHE694  ASN695  SER759  ASP760  ASP761  ALA762  ILE779  LEU786  VAL792 
 PHE793  MET794  SER795  GLU796  ALA797  LYS798  CYS799  TRP800  GLU811  SER814 

> <Gold.Protein.RotatedAtoms>
  152.1811  134.8753  160.0526 H   0  0  0  0  0  0  0  0  0  0  0  0  # atno 6907 bound_to 6896
  151.9677  133.3711  159.4067 H   0  0  0  0  0  0  0  0  0  0  0  0  # atno 6908 bound_to 6896
  150.6917  134.4096  159.5200 H   0  0  0  0  0  0  0  0  0  0  0  0  # atno 6909 bound_to 6896
  144.7463  139.8614  143.6381 H   0  0  0  0  0  0  0  0  0  0  0  0  # atno 7974 bound_to 7965
  156.2189  140.1811  156.7523 H   0  0  0  0  0  0  0  0  0  0  0  0  # atno 8008 bound_to 7997
  154.5834  140.0662  156.9166 H   0  0  0  0  0  0  0  0  0  0  0  0  # atno 8009 bound_to 7997
  155.2462  140.3325  155.4289 H   0  0  0  0  0  0  0  0  0  0  0  0  # atno 8010 bound_to 7997
  140.6081  143.8465  150.7035 H   0  0  0  0  0  0  0  0  0  0  0  0  # atno 10167 bound_to 10162
  156.0775  130.5980  150.8660 H   0  0  0  0  0  0  0  0  0  0  0  0  # atno 10718 bound_to 10713
  153.0009  135.6256  154.2267 H   0  0  0  0  0  0  0  0  0  0  0  0  # atno 10763 bound_to 10752
  154.2010  135.2804  155.2992 H   0  0  0  0  0  0  0  0  0  0  0  0  # atno 10764 bound_to 10752
  154.5684  135.5684  153.7131 H   0  0  0  0  0  0  0  0  0  0  0  0  # atno 10765 bound_to 10752
  140.6385  134.4576  157.5232 H   0  0  0  0  0  0  0  0  0  0  0  0  # atno 11005 bound_to 11000
  146.1345  139.4388  143.0147 LP  0  0  0  0  0  0  0  0  0  0  0  0  # atno 17320 bound_to 7965
  145.7112  141.0105  143.1452 LP  0  0  0  0  0  0  0  0  0  0  0  0  # atno 17321 bound_to 7965
  140.2027  143.3946  152.1779 LP  0  0  0  0  0  0  0  0  0  0  0  0  # atno 17342 bound_to 10162
  139.5340  144.7190  151.4956 LP  0  0  0  0  0  0  0  0  0  0  0  0  # atno 17343 bound_to 10162
  157.5877  131.0945  150.9169 LP  0  0  0  0  0  0  0  0  0  0  0  0  # atno 17370 bound_to 10713
  156.9351  130.5364  149.5279 LP  0  0  0  0  0  0  0  0  0  0  0  0  # atno 17371 bound_to 10713
  139.9089  134.8388  156.1601 LP  0  0  0  0  0  0  0  0  0  0  0  0  # atno 17394 bound_to 11000
  141.0624  133.6835  156.1978 LP  0  0  0  0  0  0  0  0  0  0  0  0  # atno 17395 bound_to 11000

$$$$
