AV-unprocessed.smi:1048|AV-procd|sdf|4607|dock8
  -GOLD-   22720 3103D 1   1.00000     0.00000
 Structure written by MMmdl.
 46 47  0  0  0  0  0  0  0  0  2 V2000
  143.6575  133.2968  151.5455 C   0  0  0  0  0  0  0  0  0  0  0  0
  144.5480  132.4717  150.6001 C   0  0  2  0  0  0  0  0  0  0  0  0
  144.9504  131.1099  151.1960 C   0  0  0  0  0  0  0  0  0  0  0  0
  146.0183  131.2466  152.2961 C   0  0  0  0  0  0  0  0  0  0  0  0
  147.2141  131.9737  151.7948 N   0  3  2  0  0  0  0  0  0  0  0  0
  148.3302  132.0129  152.7744 C   0  0  0  0  0  0  0  0  0  0  0  0
  147.9228  132.6820  154.1032 C   0  0  1  0  0  0  0  0  0  0  0  0
  147.4001  131.6624  154.9325 O   0  0  0  0  0  0  0  0  0  0  0  0
  149.1382  133.3142  154.8119 C   0  0  0  0  0  0  0  0  0  0  0  0
  149.4017  134.6726  154.3462 N   0  0  0  0  0  0  0  0  0  0  0  0
  150.0213  135.6233  155.0601 C   0  0  0  0  0  0  0  0  0  0  0  0
  150.4090  135.4555  156.2157 O   0  0  0  0  0  0  0  0  0  0  0  0
  150.1354  136.7645  154.3593 N   0  0  0  0  0  0  0  0  0  0  0  0
  150.7582  137.9818  154.7477 C   0  0  0  0  0  0  0  0  0  0  0  0
  151.7082  137.9358  155.7889 C   0  0  0  0  0  0  0  0  0  0  0  0
  152.3272  139.1290  156.2075 C   0  0  0  0  0  0  0  0  0  0  0  0
  151.9630  140.3310  155.5707 C   0  0  0  0  0  0  0  0  0  0  0  0
  151.0447  140.3964  154.5840 N   0  0  0  0  0  0  0  0  0  0  0  0
  150.4560  139.2478  154.1862 C   0  0  0  0  0  0  0  0  0  0  0  0
  146.8609  133.3218  151.2816 C   0  0  0  0  0  0  0  0  0  0  0  0
  145.8118  133.2321  150.1588 C   0  0  0  0  0  0  0  0  0  0  0  0
  144.1654  133.5488  152.4760 H   0  0  0  0  0  0  0  0  0  0  0  0
  142.7506  132.7492  151.8029 H   0  0  0  0  0  0  0  0  0  0  0  0
  143.3509  134.2312  151.0749 H   0  0  0  0  0  0  0  0  0  0  0  0
  143.9520  132.2772  149.7073 H   0  0  0  0  0  0  0  0  0  0  0  0
  144.0725  130.5945  151.5874 H   0  0  0  0  0  0  0  0  0  0  0  0
  145.3430  130.4745  150.4009 H   0  0  0  0  0  0  0  0  0  0  0  0
  145.6079  131.7684  153.1617 H   0  0  0  0  0  0  0  0  0  0  0  0
  146.3001  130.2517  152.6390 H   0  0  0  0  0  0  0  0  0  0  0  0
  148.6716  130.9991  152.9907 H   0  0  0  0  0  0  0  0  0  0  0  0
  149.1822  132.5272  152.3272 H   0  0  0  0  0  0  0  0  0  0  0  0
  147.1593  133.4413  153.9324 H   0  0  0  0  0  0  0  0  0  0  0  0
  147.3648  130.8582  154.4350 H   0  0  0  0  0  0  0  0  0  0  0  0
  149.0358  133.2759  155.8983 H   0  0  0  0  0  0  0  0  0  0  0  0
  150.0341  132.7393  154.5754 H   0  0  0  0  0  0  0  0  0  0  0  0
  149.1097  134.8975  153.4062 H   0  0  0  0  0  0  0  0  0  0  0  0
  149.6906  136.7773  153.4533 H   0  0  0  0  0  0  0  0  0  0  0  0
  151.9648  136.9983  156.2605 H   0  0  0  0  0  0  0  0  0  0  0  0
  153.0628  139.1235  156.9982 H   0  0  0  0  0  0  0  0  0  0  0  0
  152.4170  141.2654  155.8658 H   0  0  0  0  0  0  0  0  0  0  0  0
  149.7128  139.3692  153.4141 H   0  0  0  0  0  0  0  0  0  0  0  0
  146.4982  133.9444  152.1007 H   0  0  0  0  0  0  0  0  0  0  0  0
  147.7543  133.8090  150.8890 H   0  0  0  0  0  0  0  0  0  0  0  0
  146.2548  132.7208  149.3030 H   0  0  0  0  0  0  0  0  0  0  0  0
  145.5501  134.2315  149.8095 H   0  0  0  0  0  0  0  0  0  0  0  0
  147.5625  131.4577  150.9991 H   0  0  0  0  0  0  0  0  0  0  0  0
  1  2  1  0  0  0  0
  1 22  1  0  0  0  0
  1 23  1  0  0  0  0
  1 24  1  0  0  0  0
  2 21  1  0  0  0  0
  2  3  1  0  0  0  0
  2 25  1  0  0  0  0
  3  4  1  0  0  0  0
  3 26  1  0  0  0  0
  3 27  1  0  0  0  0
  4  5  1  0  0  0  0
  4 28  1  0  0  0  0
  4 29  1  0  0  0  0
  5  6  1  0  0  0  0
  5 20  1  0  0  0  0
  5 46  1  0  0  0  0
  6  7  1  0  0  0  0
  6 30  1  0  0  0  0
  6 31  1  0  0  0  0
  7  8  1  0  0  0  0
  7  9  1  0  0  0  0
  7 32  1  0  0  0  0
  8 33  1  0  0  0  0
  9 10  1  0  0  0  0
  9 34  1  0  0  0  0
  9 35  1  0  0  0  0
 10 11  1  0  0  0  0
 10 36  1  0  0  0  0
 11 12  2  0  0  0  0
 11 13  1  0  0  0  0
 13 14  1  0  0  0  0
 13 37  1  0  0  0  0
 14 19  1  0  0  0  0
 14 15  2  0  0  0  0
 15 16  1  0  0  0  0
 15 38  1  0  0  0  0
 16 17  2  0  0  0  0
 16 39  1  0  0  0  0
 17 18  1  0  0  0  0
 17 40  1  0  0  0  0
 18 19  2  0  0  0  0
 19 41  1  0  0  0  0
 20 21  1  0  0  0  0
 20 42  1  0  0  0  0
 20 43  1  0  0  0  0
 21 44  1  0  0  0  0
 21 45  1  0  0  0  0
M  CHG  1   5   1
M  END
> <s_m_source_file>
AV-unprocessed.smi

> <i_m_source_file_index>
1048

> <i_lp_mmshare_version>
43012

> <i_f3d_flags>
0

> <s_epik_input>
W0NIM11bQ0hdMVtDSDJdW0NIMl1OKFtDSDJdW0NIMl0xKVtDSDJdW0NASF0oW09IXSlbQ0gyXVtOSF1DKD1PKVtOSF1jMltjSF1bY0hdW2NIXW5bY0hdMg==

> <s_epik_cmdline>
J2VwaWtfcHl0aG9uJywgJy1waCcsICc3LjAnLCAnLXRuJywgJzgnLCAnLW1hJywgJzIwMCcsICctbWV0YWxfYmluZGluZycsICctaW1hZScsICc8aW5maWxlLm1hZT4nLCAnLW9tYWUnLCAnPG91dGZpbGUubWFlPic=

> <r_lp_tautomer_probability>
1

> <r_epik_Ionization_Penalty>
0.00581049

> <r_epik_Ionization_Penalty_Charging>
0.00147689

> <r_epik_Ionization_Penalty_Neutral>
0.0043336

> <r_epik_State_Penalty>
-0

> <r_epik_Charging_Adjusted_Penalty>
0.00147689

> <i_epik_Tot_Q>
1

> <i_epik_Tot_abs_Q>
1

> <r_epik_Metal_State_Penalty>
-0

> <b_epik_Metal_Only>
0

> <s_lp_Force_Field>
OPLS_2005

> <r_lp_Energy>
24.6749

> <b_lp_Chiralities_Consistent>
1

> <s_lp_Variant>
AV-unprocessed.smi:1048-4

> <Gold.Version>
5.8.1

> <Gold.Id.Protein>
6NUR|6NUR_protein|mol2

> <Gold.PLP.Fitness>
49.1516

> <Gold.PLP.PLP>
-36.1974

> <Gold.PLP.part.hbond>
-4.0178

> <Gold.PLP.part.metal>
0.0000

> <Gold.PLP.part.buried>
-1.0392

> <Gold.PLP.part.nonpolar>
-30.5302

> <Gold.PLP.part.repulsive>
0.1794

> <Gold.PLP.ligand.clash>
0.0000

> <Gold.PLP.ligand.torsion>
0.9118

> <Gold.PLP.Chemscore.Hbond>
3.8960

> <Gold.PLP.Chemscore.CHOScore>
0.9941

> <Gold.PLP.Chemscore.Metal>
0.0000

> <Gold.Chemscore.Hbonds>
donor molecule, donor type, donor heavy atom, donor atom, acceptor molecule, acceptor atom, score
      L1  H     5    46       P1 10747  0.88
      L1  H    10    36       P1  7948  0.85
      L1  H    13    37       P1  7948  1.00
      P1  H  7989  7998       L1    18  0.47
      L1  C    19    41       P1  7957  1.00

> <Gold.PLP.Chemscore.Internal.Correction>
0.1074

> <Gold.Rescore>
     Score         DG    S(hbond)    S(metal)    S(lipo)     H(rot)  DE(clash)    DE(int)     intcor
     16.23     -19.93       2.77        0.00      94.54       2.29       0.30       3.40       ----

> <Gold.Chemscore.Fitness>
16.2306

> <Gold.Chemscore.DG>
-19.9306

> <Gold.Chemscore.ZeroCoef>
-5.4800

> <Gold.Chemscore.Hbond>
2.7674

> <Gold.Chemscore.Metal>
0.0000

> <Gold.Chemscore.Lipo>
94.5390

> <Gold.Chemscore.Internal_Hbond>
0.0000

> <Gold.Chemscore.DEClash>
0.3048

> <Gold.Chemscore.DEInternal>
3.3952

> <Gold.Chemscore.Rot>
2.2865

> <Gold.Chemscore.Internal.Correction>
   9.000000E+99

> <Gold.Chemscore.Hbonds>
donor molecule, donor type, donor heavy atom, donor atom, acceptor molecule, acceptor atom, score
      L1  H     5    46       P1 10747  0.86
      L1  H    10    36       P1  7948  0.13
      L1  H    13    37       P1  7948  0.55
      P1  H  7989  7998       L1    18  0.16

> <Gold.Chemscore.Hbond.Weighted>
-9.2431

> <Gold.Chemscore.Metal.Weighted>
-0.0000

> <Gold.Chemscore.Lipo.Weighted>
-11.0611

> <Gold.Chemscore.Internal_Hbond.Weighted>
0.0000

> <Gold.Chemscore.DEClash.Weighted>
0.3048

> <Gold.Chemscore.DEInternal.Weighted>
3.3952

> <Gold.Chemscore.Rot.Weighted>
5.8536

> <Gold.Chemscore.Internal.Correction.Weighted>
   9.000000E+99

> <Gold.Protein.RotatedTorsions>
[ 6907 6896 6895 6894 ] final  119.81 input  -60.11 | X-H torsion
[ 7974 7965 7964 7962 ] final  101.66 input  175.53 | X-H torsion
[ 8008 7997 7996 7995 ] final   69.99 input   59.86 | X-H torsion
[ 10167 10162 10161 10158 ] final   53.65 input  -65.29 | X-H torsion
[ 10718 10713 10712 10709 ] final  -19.16 input   66.30 | X-H torsion
[ 10763 10752 10751 10750 ] final -138.80 input  -60.55 | X-H torsion
[ 11005 11000 10999 10996 ] final  129.16 input  -57.11 | X-H torsion

> <Gold.Protein.ActiveResidues>
 VAL166  LYS551  ARG553  GLY616  TRP617  ASP618  TYR619  PRO620  LYS621  CYS622 
 ASP623  PHE694  ASN695  SER759  ASP760  ASP761  ALA762  ILE779  LEU786  VAL792 
 PHE793  MET794  SER795  GLU796  ALA797  LYS798  CYS799  TRP800  GLU811  SER814 

> <Gold.Protein.RotatedAtoms>
  152.4444  133.7509  159.6692 H   0  0  0  0  0  0  0  0  0  0  0  0  # atno 6907 bound_to 6896
  150.8341  133.8032  159.3093 H   0  0  0  0  0  0  0  0  0  0  0  0  # atno 6908 bound_to 6896
  151.5677  135.1066  160.0039 H   0  0  0  0  0  0  0  0  0  0  0  0  # atno 6909 bound_to 6896
  145.3694  139.2401  143.3463 H   0  0  0  0  0  0  0  0  0  0  0  0  # atno 7974 bound_to 7965
  155.7320  140.3492  155.5064 H   0  0  0  0  0  0  0  0  0  0  0  0  # atno 8008 bound_to 7997
  155.9174  140.1061  157.1255 H   0  0  0  0  0  0  0  0  0  0  0  0  # atno 8009 bound_to 7997
  154.4064  140.1256  156.4622 H   0  0  0  0  0  0  0  0  0  0  0  0  # atno 8010 bound_to 7997
  140.2385  144.3609  150.6388 H   0  0  0  0  0  0  0  0  0  0  0  0  # atno 10167 bound_to 10162
  156.5495  130.4698  149.6459 H   0  0  0  0  0  0  0  0  0  0  0  0  # atno 10718 bound_to 10713
  154.8627  135.3601  154.5444 H   0  0  0  0  0  0  0  0  0  0  0  0  # atno 10763 bound_to 10752
  153.6064  135.7011  153.5368 H   0  0  0  0  0  0  0  0  0  0  0  0  # atno 10764 bound_to 10752
  153.3246  135.4141  155.1406 H   0  0  0  0  0  0  0  0  0  0  0  0  # atno 10765 bound_to 10752
  139.9600  134.9604  156.9108 H   0  0  0  0  0  0  0  0  0  0  0  0  # atno 11005 bound_to 11000
  146.2892  140.4342  142.8746 LP  0  0  0  0  0  0  0  0  0  0  0  0  # atno 17320 bound_to 7965
  144.8588  140.7109  143.6121 LP  0  0  0  0  0  0  0  0  0  0  0  0  # atno 17321 bound_to 7965
  140.6131  143.2170  151.6845 LP  0  0  0  0  0  0  0  0  0  0  0  0  # atno 17342 bound_to 10162
  139.5085  144.3608  152.0564 LP  0  0  0  0  0  0  0  0  0  0  0  0  # atno 17343 bound_to 10162
  156.2897  130.7117  151.1963 LP  0  0  0  0  0  0  0  0  0  0  0  0  # atno 17370 bound_to 10713
  157.7390  131.0534  150.5259 LP  0  0  0  0  0  0  0  0  0  0  0  0  # atno 17371 bound_to 10713
  140.5521  134.0617  155.7372 LP  0  0  0  0  0  0  0  0  0  0  0  0  # atno 17394 bound_to 11000
  141.1276  133.9356  157.2602 LP  0  0  0  0  0  0  0  0  0  0  0  0  # atno 17395 bound_to 11000

$$$$
