AV-unprocessed.smi:1976|AV-procd|sdf|7988|dock9
  -GOLD-   2272010173D 1   1.00000     0.00000
 Structure written by MMmdl.
 45 47  0  0  0  0  0  0  0  0  2 V2000
  144.7262  131.9704  154.1004 O   0  0  0  0  0  0  0  0  0  0  0  0
  145.2672  132.9967  154.5147 C   0  0  0  0  0  0  0  0  0  0  0  0
  145.9225  133.0390  155.9027 C   0  0  0  0  0  0  0  0  0  0  0  0
  145.3936  134.1069  156.7683 N   0  0  0  0  0  0  0  0  0  0  0  0
  145.8463  135.4174  156.5194 C   0  0  0  0  0  0  0  0  0  0  0  0
  145.4487  136.4805  157.2446 C   0  0  0  0  0  0  0  0  0  0  0  0
  145.9112  137.8913  156.9154 C   0  0  0  0  0  0  0  0  0  0  0  0
  147.2421  137.9698  156.9031 F   0  0  0  0  0  0  0  0  0  0  0  0
  145.4635  138.2446  155.7113 F   0  0  0  0  0  0  0  0  0  0  0  0
  145.4481  138.7705  157.8048 F   0  0  0  0  0  0  0  0  0  0  0  0
  144.4856  136.2200  158.2964 C   0  0  0  0  0  0  0  0  0  0  0  0
  144.0334  134.9743  158.5402 C   0  0  0  0  0  0  0  0  0  0  0  0
  144.4916  133.8253  157.7561 C   0  0  0  0  0  0  0  0  0  0  0  0
  144.0881  132.6815  157.9697 O   0  0  0  0  0  0  0  0  0  0  0  0
  145.3236  134.1341  153.8057 N   0  0  0  0  0  0  0  0  0  0  0  0
  144.8014  134.3107  152.4538 C   0  0  1  0  0  0  0  0  0  0  0  0
  144.8593  135.7670  151.9724 C   0  0  0  0  0  0  0  0  0  0  0  0
  145.2249  135.6889  150.4765 C   0  0  0  0  0  0  0  0  0  0  0  0
  145.3044  134.2507  150.1298 N   0  3  2  0  0  0  0  0  0  0  0  0
  144.0577  133.7635  149.4773 C   0  0  0  0  0  0  0  0  0  0  0  0
  144.0393  132.2366  149.3306 C   0  0  0  0  0  0  0  0  0  0  0  0
  144.1938  131.5730  150.7012 C   0  0  0  0  0  0  0  0  0  0  0  0
  145.5062  132.0338  151.3426 C   0  0  0  0  0  0  0  0  0  0  0  0
  145.6431  133.5725  151.4046 C   0  0  2  0  0  0  0  0  0  0  0  0
  145.7936  132.0712  156.3915 H   0  0  0  0  0  0  0  0  0  0  0  0
  146.9995  133.1486  155.7677 H   0  0  0  0  0  0  0  0  0  0  0  0
  146.5350  135.5055  155.6918 H   0  0  0  0  0  0  0  0  0  0  0  0
  144.1216  137.0375  158.9010 H   0  0  0  0  0  0  0  0  0  0  0  0
  143.3163  134.8173  159.3325 H   0  0  0  0  0  0  0  0  0  0  0  0
  145.7782  134.9310  154.2281 H   0  0  0  0  0  0  0  0  0  0  0  0
  143.7639  133.9762  152.3971 H   0  0  0  0  0  0  0  0  0  0  0  0
  143.9048  136.2703  152.1305 H   0  0  0  0  0  0  0  0  0  0  0  0
  145.6215  136.3349  152.5083 H   0  0  0  0  0  0  0  0  0  0  0  0
  144.5179  136.2318  149.8473 H   0  0  0  0  0  0  0  0  0  0  0  0
  146.2065  136.1363  150.3160 H   0  0  0  0  0  0  0  0  0  0  0  0
  143.1872  134.0797  150.0543 H   0  0  0  0  0  0  0  0  0  0  0  0
  143.9658  134.2297  148.4956 H   0  0  0  0  0  0  0  0  0  0  0  0
  143.1052  131.9187  148.8665 H   0  0  0  0  0  0  0  0  0  0  0  0
  144.8427  131.9153  148.6659 H   0  0  0  0  0  0  0  0  0  0  0  0
  143.3495  131.8289  151.3423 H   0  0  0  0  0  0  0  0  0  0  0  0
  144.1892  130.4878  150.5967 H   0  0  0  0  0  0  0  0  0  0  0  0
  145.6136  131.5981  152.3361 H   0  0  0  0  0  0  0  0  0  0  0  0
  146.3341  131.6349  150.7548 H   0  0  0  0  0  0  0  0  0  0  0  0
  146.6930  133.7959  151.6055 H   0  0  0  0  0  0  0  0  0  0  0  0
  146.0604  134.1058  149.4758 H   0  0  0  0  0  0  0  0  0  0  0  0
  1  2  2  0  0  0  0
  2  3  1  0  0  0  0
  2 15  1  0  0  0  0
  3  4  1  0  0  0  0
  3 25  1  0  0  0  0
  3 26  1  0  0  0  0
  4 13  1  0  0  0  0
  4  5  1  0  0  0  0
  5  6  2  0  0  0  0
  5 27  1  0  0  0  0
  6  7  1  0  0  0  0
  6 11  1  0  0  0  0
  7  8  1  0  0  0  0
  7  9  1  0  0  0  0
  7 10  1  0  0  0  0
 11 12  2  0  0  0  0
 11 28  1  0  0  0  0
 12 13  1  0  0  0  0
 12 29  1  0  0  0  0
 13 14  2  0  0  0  0
 15 16  1  0  0  0  0
 15 30  1  0  0  0  0
 16 24  1  0  0  0  0
 16 17  1  0  0  0  0
 16 31  1  0  0  0  0
 17 18  1  0  0  0  0
 17 32  1  0  0  0  0
 17 33  1  0  0  0  0
 18 19  1  0  0  0  0
 18 34  1  0  0  0  0
 18 35  1  0  0  0  0
 19 24  1  0  0  0  0
 19 20  1  0  0  0  0
 19 45  1  0  0  0  0
 20 21  1  0  0  0  0
 20 36  1  0  0  0  0
 20 37  1  0  0  0  0
 21 22  1  0  0  0  0
 21 38  1  0  0  0  0
 21 39  1  0  0  0  0
 22 23  1  0  0  0  0
 22 40  1  0  0  0  0
 22 41  1  0  0  0  0
 23 24  1  0  0  0  0
 23 42  1  0  0  0  0
 23 43  1  0  0  0  0
 24 44  1  0  0  0  0
M  CHG  1  19   1
M  END
> <s_m_source_file>
AV-unprocessed.smi

> <i_m_source_file_index>
1976

> <i_lp_mmshare_version>
43012

> <i_f3d_flags>
0

> <s_epik_input>
W0NIMl0xW0NIMl1bQ0gyXVtDSDJdW0NASF0oTjEyKVtDQEBIXShbQ0gyXVtDSDJdMilbTkhdQyg9TylbQ0gyXW4zW2NIXWMoQyhGKShGKUYpW2NIXVtjSF1jMz1P

> <s_epik_cmdline>
J2VwaWtfcHl0aG9uJywgJy1waCcsICc3LjAnLCAnLXRuJywgJzgnLCAnLW1hJywgJzIwMCcsICctbWV0YWxfYmluZGluZycsICctaW1hZScsICc8aW5maWxlLm1hZT4nLCAnLW9tYWUnLCAnPG91dGZpbGUubWFlPic=

> <r_lp_tautomer_probability>
1

> <r_epik_Ionization_Penalty>
0.00171506

> <r_epik_Ionization_Penalty_Charging>
0.00171498

> <r_epik_Ionization_Penalty_Neutral>
7.81737e-08

> <r_epik_State_Penalty>
0.00115937

> <r_epik_Charging_Adjusted_Penalty>
0.00287436

> <i_epik_Tot_Q>
1

> <i_epik_Tot_abs_Q>
1

> <r_epik_Metal_State_Penalty>
-0

> <b_epik_Metal_Only>
0

> <s_lp_Force_Field>
OPLS_2005

> <r_lp_Energy>
48.7142

> <b_lp_Chiralities_Consistent>
1

> <s_lp_Variant>
AV-unprocessed.smi:1976-6

> <Gold.Version>
5.8.1

> <Gold.Id.Protein>
6NUR|6NUR_protein|mol2

> <Gold.PLP.Fitness>
43.2539

> <Gold.PLP.PLP>
-36.7640

> <Gold.PLP.part.hbond>
-2.0000

> <Gold.PLP.part.metal>
0.0000

> <Gold.PLP.part.buried>
-0.5470

> <Gold.PLP.part.nonpolar>
-34.9555

> <Gold.PLP.part.repulsive>
0.1517

> <Gold.PLP.ligand.clash>
0.0000

> <Gold.PLP.ligand.torsion>
0.4502

> <Gold.PLP.Chemscore.Hbond>
1.7680

> <Gold.PLP.Chemscore.CHOScore>
0.6810

> <Gold.PLP.Chemscore.Metal>
0.0000

> <Gold.Chemscore.Hbonds>
donor molecule, donor type, donor heavy atom, donor atom, acceptor molecule, acceptor atom, score
      L1  H    19    45       P1  7921  0.48

> <Gold.PLP.Chemscore.Internal.Correction>
0.0433

> <Gold.Rescore>
     Score         DG    S(hbond)    S(metal)    S(lipo)     H(rot)  DE(clash)    DE(int)     intcor
     14.07     -16.66       1.59        0.00      84.93       1.58       0.99       1.60       ----

> <Gold.Chemscore.Fitness>
14.0714

> <Gold.Chemscore.DG>
-16.6641

> <Gold.Chemscore.ZeroCoef>
-5.4800

> <Gold.Chemscore.Hbond>
1.5868

> <Gold.Chemscore.Metal>
0.0000

> <Gold.Chemscore.Lipo>
84.9278

> <Gold.Chemscore.Internal_Hbond>
0.0000

> <Gold.Chemscore.DEClash>
0.9945

> <Gold.Chemscore.DEInternal>
1.5982

> <Gold.Chemscore.Rot>
1.5830

> <Gold.Chemscore.Internal.Correction>
   9.000000E+99

> <Gold.Chemscore.Hbonds>
donor molecule, donor type, donor heavy atom, donor atom, acceptor molecule, acceptor atom, score
      L1  H    19    45       P1  7921  0.09

> <Gold.Chemscore.Hbond.Weighted>
-5.2999

> <Gold.Chemscore.Metal.Weighted>
-0.0000

> <Gold.Chemscore.Lipo.Weighted>
-9.9366

> <Gold.Chemscore.Internal_Hbond.Weighted>
0.0000

> <Gold.Chemscore.DEClash.Weighted>
0.9945

> <Gold.Chemscore.DEInternal.Weighted>
1.5982

> <Gold.Chemscore.Rot.Weighted>
4.0524

> <Gold.Chemscore.Internal.Correction.Weighted>
   9.000000E+99

> <Gold.Protein.RotatedTorsions>
[ 6907 6896 6895 6894 ] final  -52.40 input  -60.11 | X-H torsion
[ 7974 7965 7964 7962 ] final  -85.20 input  175.53 | X-H torsion
[ 8008 7997 7996 7995 ] final -140.64 input   59.86 | X-H torsion
[ 10167 10162 10161 10158 ] final   75.52 input  -65.29 | X-H torsion
[ 10718 10713 10712 10709 ] final -176.41 input   66.30 | X-H torsion
[ 10763 10752 10751 10750 ] final -164.57 input  -60.55 | X-H torsion
[ 11005 11000 10999 10996 ] final  -84.17 input  -57.11 | X-H torsion

> <Gold.Protein.ActiveResidues>
 VAL166  LYS551  ARG553  GLY616  TRP617  ASP618  TYR619  PRO620  LYS621  CYS622 
 ASP623  PHE694  ASN695  SER759  ASP760  ASP761  ALA762  ILE779  LEU786  VAL792 
 PHE793  MET794  SER795  GLU796  ALA797  LYS798  CYS799  TRP800  GLU811  SER814 

> <Gold.Protein.RotatedAtoms>
  150.8522  134.7850  159.7017 H   0  0  0  0  0  0  0  0  0  0  0  0  # atno 6907 bound_to 6896
  152.4583  134.5238  159.9800 H   0  0  0  0  0  0  0  0  0  0  0  0  # atno 6908 bound_to 6896
  151.5357  133.3403  159.2962 H   0  0  0  0  0  0  0  0  0  0  0  0  # atno 6909 bound_to 6896
  145.4964  140.9550  143.1784 H   0  0  0  0  0  0  0  0  0  0  0  0  # atno 7974 bound_to 7965
  155.4647  140.0548  157.2987 H   0  0  0  0  0  0  0  0  0  0  0  0  # atno 8008 bound_to 7997
  154.4723  140.2045  155.9919 H   0  0  0  0  0  0  0  0  0  0  0  0  # atno 8009 bound_to 7997
  156.1076  140.3209  155.8032 H   0  0  0  0  0  0  0  0  0  0  0  0  # atno 8010 bound_to 7997
  140.0021  144.5678  150.7729 H   0  0  0  0  0  0  0  0  0  0  0  0  # atno 10167 bound_to 10162
  156.8142  130.9597  151.3114 H   0  0  0  0  0  0  0  0  0  0  0  0  # atno 10718 bound_to 10713
  154.7016  135.2989  154.9332 H   0  0  0  0  0  0  0  0  0  0  0  0  # atno 10763 bound_to 10752
  154.0263  135.6676  153.4781 H   0  0  0  0  0  0  0  0  0  0  0  0  # atno 10764 bound_to 10752
  153.0685  135.5074  154.8163 H   0  0  0  0  0  0  0  0  0  0  0  0  # atno 10765 bound_to 10752
  141.1652  133.7332  156.8828 H   0  0  0  0  0  0  0  0  0  0  0  0  # atno 11005 bound_to 11000
  144.7805  139.6537  143.7156 LP  0  0  0  0  0  0  0  0  0  0  0  0  # atno 17320 bound_to 7965
  146.2253  139.5711  142.9591 LP  0  0  0  0  0  0  0  0  0  0  0  0  # atno 17321 bound_to 7965
  140.7415  143.2818  151.3575 LP  0  0  0  0  0  0  0  0  0  0  0  0  # atno 17342 bound_to 10162
  139.6264  144.0805  152.2438 LP  0  0  0  0  0  0  0  0  0  0  0  0  # atno 17343 bound_to 10162
  157.6490  130.8868  149.9595 LP  0  0  0  0  0  0  0  0  0  0  0  0  # atno 17370 bound_to 10713
  156.1026  130.3655  150.0190 LP  0  0  0  0  0  0  0  0  0  0  0  0  # atno 17371 bound_to 10713
  140.1703  134.9105  157.2824 LP  0  0  0  0  0  0  0  0  0  0  0  0  # atno 17394 bound_to 11000
  140.2510  134.3683  155.7442 LP  0  0  0  0  0  0  0  0  0  0  0  0  # atno 17395 bound_to 11000

$$$$
