AV-unprocessed.smi:1228|AV-procd|sdf|5148|dock7
  -GOLD-   22720 4213D 1   1.00000     0.00000
 Structure written by MMmdl.
 44 46  0  0  0  0  0  0  0  0  2 V2000
  150.7934  141.1303  156.5815 C   0  0  0  0  0  0  0  0  0  0  0  0
  149.8398  140.5420  155.5841 C   0  0  0  0  0  0  0  0  0  0  0  0
  149.6838  139.1725  155.2218 C   0  0  0  0  0  0  0  0  0  0  0  0
  148.6888  139.2208  154.2840 C   0  0  0  0  0  0  0  0  0  0  0  0
  148.1178  138.2010  153.5892 N   0  0  0  0  0  0  0  0  0  0  0  0
  146.8194  138.0053  153.3005 C   0  0  0  0  0  0  0  0  0  0  0  0
  145.8918  138.7373  153.6461 O   0  0  0  0  0  0  0  0  0  0  0  0
  146.6460  136.8883  152.5784 N   0  0  0  0  0  0  0  0  0  0  0  0
  145.3599  136.3924  152.0964 C   0  0  2  0  0  0  0  0  0  0  0  0
  144.9447  135.1166  152.8525 C   0  0  0  0  0  0  0  0  0  0  0  0
  143.6388  134.5314  152.2822 C   0  0  0  0  0  0  0  0  0  0  0  0
  143.7288  134.2798  150.8209 N   0  3  2  0  0  0  0  0  0  0  0  0
  144.5408  133.0883  150.4794 C   0  0  0  0  0  0  0  0  0  0  0  0
  144.0742  132.3755  149.2317 C   0  0  0  0  0  0  0  0  0  0  0  0
  143.7841  131.7855  150.5935 C   0  0  0  0  0  0  0  0  0  0  0  0
  144.1242  135.4975  150.0667 C   0  0  0  0  0  0  0  0  0  0  0  0
  145.4415  136.1019  150.5888 C   0  0  0  0  0  0  0  0  0  0  0  0
  148.2957  140.5303  154.1193 N   0  0  0  0  0  0  0  0  0  0  0  0
  147.2802  141.0838  153.2450 C   0  0  0  0  0  0  0  0  0  0  0  0
  149.0122  141.3445  154.9241 N   0  0  0  0  0  0  0  0  0  0  0  0
  151.3134  140.3496  157.1371 H   0  0  0  0  0  0  0  0  0  0  0  0
  150.2709  141.7584  157.3036 H   0  0  0  0  0  0  0  0  0  0  0  0
  151.5469  141.7440  156.0877 H   0  0  0  0  0  0  0  0  0  0  0  0
  150.2211  138.3161  155.6005 H   0  0  0  0  0  0  0  0  0  0  0  0
  148.7608  137.5008  153.2506 H   0  0  0  0  0  0  0  0  0  0  0  0
  147.4633  136.3454  152.3401 H   0  0  0  0  0  0  0  0  0  0  0  0
  144.5999  137.1605  152.2529 H   0  0  0  0  0  0  0  0  0  0  0  0
  145.7404  134.3727  152.7940 H   0  0  0  0  0  0  0  0  0  0  0  0
  144.8110  135.3348  153.9128 H   0  0  0  0  0  0  0  0  0  0  0  0
  143.3750  133.6105  152.8034 H   0  0  0  0  0  0  0  0  0  0  0  0
  142.8199  135.2295  152.4603 H   0  0  0  0  0  0  0  0  0  0  0  0
  145.6002  133.1283  150.7246 H   0  0  0  0  0  0  0  0  0  0  0  0
  143.2363  132.7971  148.6790 H   0  0  0  0  0  0  0  0  0  0  0  0
  144.8285  131.8798  148.6241 H   0  0  0  0  0  0  0  0  0  0  0  0
  144.3483  130.9015  150.8840 H   0  0  0  0  0  0  0  0  0  0  0  0
  142.7537  131.8147  150.9434 H   0  0  0  0  0  0  0  0  0  0  0  0
  144.2061  135.2677  149.0037 H   0  0  0  0  0  0  0  0  0  0  0  0
  143.3248  136.2337  150.1603 H   0  0  0  0  0  0  0  0  0  0  0  0
  145.6615  137.0211  150.0446 H   0  0  0  0  0  0  0  0  0  0  0  0
  146.2682  135.4207  150.3823 H   0  0  0  0  0  0  0  0  0  0  0  0
  147.5267  140.8558  152.2077 H   0  0  0  0  0  0  0  0  0  0  0  0
  147.2186  142.1664  153.3646 H   0  0  0  0  0  0  0  0  0  0  0  0
  146.3110  140.6463  153.4863 H   0  0  0  0  0  0  0  0  0  0  0  0
  142.7915  134.0561  150.5179 H   0  0  0  0  0  0  0  0  0  0  0  0
  1  2  1  0  0  0  0
  1 21  1  0  0  0  0
  1 22  1  0  0  0  0
  1 23  1  0  0  0  0
  2 20  2  0  0  0  0
  2  3  1  0  0  0  0
  3  4  2  0  0  0  0
  3 24  1  0  0  0  0
  4  5  1  0  0  0  0
  4 18  1  0  0  0  0
  5  6  1  0  0  0  0
  5 25  1  0  0  0  0
  6  7  2  0  0  0  0
  6  8  1  0  0  0  0
  8  9  1  0  0  0  0
  8 26  1  0  0  0  0
  9 17  1  0  0  0  0
  9 10  1  0  0  0  0
  9 27  1  0  0  0  0
 10 11  1  0  0  0  0
 10 28  1  0  0  0  0
 10 29  1  0  0  0  0
 11 12  1  0  0  0  0
 11 30  1  0  0  0  0
 11 31  1  0  0  0  0
 12 13  1  0  0  0  0
 12 16  1  0  0  0  0
 12 44  1  0  0  0  0
 13 15  1  0  0  0  0
 13 14  1  0  0  0  0
 13 32  1  0  0  0  0
 14 15  1  0  0  0  0
 14 33  1  0  0  0  0
 14 34  1  0  0  0  0
 15 35  1  0  0  0  0
 15 36  1  0  0  0  0
 16 17  1  0  0  0  0
 16 37  1  0  0  0  0
 16 38  1  0  0  0  0
 17 39  1  0  0  0  0
 17 40  1  0  0  0  0
 18 19  1  0  0  0  0
 18 20  1  0  0  0  0
 19 41  1  0  0  0  0
 19 42  1  0  0  0  0
 19 43  1  0  0  0  0
M  CHG  1  12   1
M  END
> <s_m_source_file>
AV-unprocessed.smi

> <i_m_source_file_index>
1228

> <i_lp_mmshare_version>
43012

> <i_f3d_flags>
0

> <s_epik_input>
W0NIM11jMVtjSF1jKG4objEpW0NIM10pW05IXUMoPU8pW05IXVtDSF0yW0NIMl1bQ0gyXU4oW0NIMl1bQ0gyXTIpW0NIXTNbQ0gyXVtDSDJdMw==

> <s_epik_cmdline>
J2VwaWtfcHl0aG9uJywgJy1waCcsICc3LjAnLCAnLXRuJywgJzgnLCAnLW1hJywgJzIwMCcsICctbWV0YWxfYmluZGluZycsICctaW1hZScsICc8aW5maWxlLm1hZT4nLCAnLW9tYWUnLCAnPG91dGZpbGUubWFlPic=

> <r_lp_tautomer_probability>
1

> <r_epik_Ionization_Penalty>
0.11882

> <r_epik_Ionization_Penalty_Charging>
0.11874

> <r_epik_Ionization_Penalty_Neutral>
8.03064e-05

> <r_epik_State_Penalty>
0.108313

> <r_epik_Charging_Adjusted_Penalty>
0.227053

> <i_epik_Tot_Q>
1

> <i_epik_Tot_abs_Q>
1

> <r_epik_Metal_State_Penalty>
0.108316

> <b_epik_Metal_Only>
0

> <s_lp_Force_Field>
OPLS_2005

> <r_lp_Energy>
29.8379

> <b_lp_Chiralities_Consistent>
1

> <s_lp_Variant>
AV-unprocessed.smi:1228-2

> <Gold.Version>
5.8.1

> <Gold.Id.Protein>
6NUR|6NUR_protein|mol2

> <Gold.PLP.Fitness>
42.6349

> <Gold.PLP.PLP>
-32.1075

> <Gold.PLP.part.hbond>
-2.8926

> <Gold.PLP.part.metal>
0.0000

> <Gold.PLP.part.buried>
-1.0942

> <Gold.PLP.part.nonpolar>
-29.6517

> <Gold.PLP.part.repulsive>
0.8087

> <Gold.PLP.ligand.clash>
0.0000

> <Gold.PLP.ligand.torsion>
1.0521

> <Gold.PLP.Chemscore.Hbond>
3.7888

> <Gold.PLP.Chemscore.CHOScore>
0.0000

> <Gold.PLP.Chemscore.Metal>
0.0000

> <Gold.Chemscore.Hbonds>
donor molecule, donor type, donor heavy atom, donor atom, acceptor molecule, acceptor atom, score
      L1  H     5    25       P1  7948  0.83
      L1  H     8    26       P1  7948  1.00
      L1  H    12    44       P1 10186  1.85

> <Gold.PLP.Chemscore.Internal.Correction>
1.2653

> <Gold.Rescore>
     Score         DG    S(hbond)    S(metal)    S(lipo)     H(rot)  DE(clash)    DE(int)     intcor
     18.92     -21.12       2.83        0.00      79.50       1.21       0.24       1.96       ----

> <Gold.Chemscore.Fitness>
18.9197

> <Gold.Chemscore.DG>
-21.1214

> <Gold.Chemscore.ZeroCoef>
-5.4800

> <Gold.Chemscore.Hbond>
2.8253

> <Gold.Chemscore.Metal>
0.0000

> <Gold.Chemscore.Lipo>
79.5014

> <Gold.Chemscore.Internal_Hbond>
0.0000

> <Gold.Chemscore.DEClash>
0.2422

> <Gold.Chemscore.DEInternal>
1.9595

> <Gold.Chemscore.Rot>
1.2097

> <Gold.Chemscore.Internal.Correction>
   9.000000E+99

> <Gold.Chemscore.Hbonds>
donor molecule, donor type, donor heavy atom, donor atom, acceptor molecule, acceptor atom, score
      L1  H     5    25       P1  7948  0.83
      L1  H     8    26       P1  7948  0.92
      L1  H    12    44       P1 10186  0.74

> <Gold.Chemscore.Hbond.Weighted>
-9.4366

> <Gold.Chemscore.Metal.Weighted>
-0.0000

> <Gold.Chemscore.Lipo.Weighted>
-9.3017

> <Gold.Chemscore.Internal_Hbond.Weighted>
0.0000

> <Gold.Chemscore.DEClash.Weighted>
0.2422

> <Gold.Chemscore.DEInternal.Weighted>
1.9595

> <Gold.Chemscore.Rot.Weighted>
3.0969

> <Gold.Chemscore.Internal.Correction.Weighted>
   9.000000E+99

> <Gold.Protein.RotatedTorsions>
[ 6907 6896 6895 6894 ] final  109.55 input  -60.11 | X-H torsion
[ 7974 7965 7964 7962 ] final   55.87 input  175.53 | X-H torsion
[ 8008 7997 7996 7995 ] final   91.60 input   59.86 | X-H torsion
[ 10167 10162 10161 10158 ] final -134.58 input  -65.29 | X-H torsion
[ 10718 10713 10712 10709 ] final    6.40 input   66.30 | X-H torsion
[ 10763 10752 10751 10750 ] final  -61.15 input  -60.55 | X-H torsion
[ 11005 11000 10999 10996 ] final -119.53 input  -57.11 | X-H torsion

> <Gold.Protein.ActiveResidues>
 VAL166  LYS551  ARG553  GLY616  TRP617  ASP618  TYR619  PRO620  LYS621  CYS622 
 ASP623  PHE694  ASN695  SER759  ASP760  ASP761  ALA762  ILE779  LEU786  VAL792 
 PHE793  MET794  SER795  GLU796  ALA797  LYS798  CYS799  TRP800  GLU811  SER814 

> <Gold.Protein.RotatedAtoms>
  152.5062  133.8928  159.7402 H   0  0  0  0  0  0  0  0  0  0  0  0  # atno 6907 bound_to 6896
  150.9363  133.6700  159.2807 H   0  0  0  0  0  0  0  0  0  0  0  0  # atno 6908 bound_to 6896
  151.4027  135.0978  159.9613 H   0  0  0  0  0  0  0  0  0  0  0  0  # atno 6909 bound_to 6896
  145.9458  139.3928  143.0336 H   0  0  0  0  0  0  0  0  0  0  0  0  # atno 7974 bound_to 7965
  156.0256  140.3335  155.7085 H   0  0  0  0  0  0  0  0  0  0  0  0  # atno 8008 bound_to 7997
  155.5959  140.0651  157.2764 H   0  0  0  0  0  0  0  0  0  0  0  0  # atno 8009 bound_to 7997
  154.4333  140.1819  156.1110 H   0  0  0  0  0  0  0  0  0  0  0  0  # atno 8010 bound_to 7997
  139.8866  143.6773  152.2619 H   0  0  0  0  0  0  0  0  0  0  0  0  # atno 10167 bound_to 10162
  156.9216  130.5793  149.5648 H   0  0  0  0  0  0  0  0  0  0  0  0  # atno 10718 bound_to 10713
  154.2801  135.6273  153.5344 H   0  0  0  0  0  0  0  0  0  0  0  0  # atno 10763 bound_to 10752
  152.9867  135.5631  154.5504 H   0  0  0  0  0  0  0  0  0  0  0  0  # atno 10764 bound_to 10752
  154.5093  135.2876  155.1331 H   0  0  0  0  0  0  0  0  0  0  0  0  # atno 10765 bound_to 10752
  141.0209  134.0126  157.3284 H   0  0  0  0  0  0  0  0  0  0  0  0  # atno 11005 bound_to 11000
  145.8238  140.9666  143.0885 LP  0  0  0  0  0  0  0  0  0  0  0  0  # atno 17320 bound_to 7965
  144.6787  140.0075  143.7484 LP  0  0  0  0  0  0  0  0  0  0  0  0  # atno 17321 bound_to 7965
  139.7147  144.7614  151.1053 LP  0  0  0  0  0  0  0  0  0  0  0  0  # atno 17342 bound_to 10162
  140.7734  143.5284  150.9452 LP  0  0  0  0  0  0  0  0  0  0  0  0  # atno 17343 bound_to 10162
  156.0488  130.5561  150.8942 LP  0  0  0  0  0  0  0  0  0  0  0  0  # atno 17370 bound_to 10713
  157.5904  131.0944  150.9128 LP  0  0  0  0  0  0  0  0  0  0  0  0  # atno 17371 bound_to 10713
  139.9145  135.0195  156.7827 LP  0  0  0  0  0  0  0  0  0  0  0  0  # atno 17394 bound_to 11000
  140.6575  133.9675  155.7787 LP  0  0  0  0  0  0  0  0  0  0  0  0  # atno 17395 bound_to 11000

$$$$
