AV-unprocessed.smi:351|AV-procd|sdf|2400|dock2
  -GOLD-   2262022333D 1   1.00000     0.00000
 Structure written by MMmdl.
 39 40  0  0  0  0  0  0  0  0  1 V2000
  151.4188  143.2211  157.1600 C   0  0  0  0  0  0  0  0  0  0  0  0
  152.0050  143.2215  158.5594 C   0  0  0  0  0  0  0  0  0  0  0  0
  152.2074  144.4466  159.2290 C   0  0  0  0  0  0  0  0  0  0  0  0
  152.7511  144.4642  160.5261 C   0  0  0  0  0  0  0  0  0  0  0  0
  153.0952  143.2555  161.1566 C   0  0  0  0  0  0  0  0  0  0  0  0
  152.8962  142.0303  160.4924 C   0  0  0  0  0  0  0  0  0  0  0  0
  152.3480  141.9995  159.1843 C   0  0  0  0  0  0  0  0  0  0  0  0
  152.1260  140.8380  158.4734 O   0  0  0  0  0  0  0  0  0  0  0  0
  152.6106  139.6137  159.0056 C   0  0  0  0  0  0  0  0  0  0  0  0
  152.2757  138.4880  158.0100 C   0  0  0  0  0  0  0  0  0  0  0  0
  150.8233  138.2001  157.9619 N   0  0  0  0  0  0  0  0  0  0  0  0
  150.0679  138.5105  156.7874 C   0  0  0  0  0  0  0  0  0  0  0  0
  150.7674  139.1699  155.5901 C   0  0  0  0  0  0  0  0  0  0  0  0
  149.9161  139.3639  154.5815 F   0  0  0  0  0  0  0  0  0  0  0  0
  151.2672  140.3659  155.8990 F   0  0  0  0  0  0  0  0  0  0  0  0
  151.7455  138.3913  155.1261 F   0  0  0  0  0  0  0  0  0  0  0  0
  148.7494  138.2430  156.7507 C   0  0  0  0  0  0  0  0  0  0  0  0
  148.1018  137.6403  157.8827 C   0  0  0  0  0  0  0  0  0  0  0  0
  148.8022  137.3387  158.9996 C   0  0  0  0  0  0  0  0  0  0  0  0
  148.1781  136.7214  160.1924 C   0  0  0  0  0  0  0  0  0  0  0  0
  147.2327  135.8154  159.9124 N   0  0  0  0  0  0  0  0  0  0  0  0
  148.4402  136.9567  161.3719 O   0  0  0  0  0  0  0  0  0  0  0  0
  150.2584  137.6244  159.0773 C   0  0  0  0  0  0  0  0  0  0  0  0
  150.9556  137.3748  160.0657 O   0  0  0  0  0  0  0  0  0  0  0  0
  151.1216  144.2236  156.8507 H   0  0  0  0  0  0  0  0  0  0  0  0
  150.5384  142.5795  157.1159 H   0  0  0  0  0  0  0  0  0  0  0  0
  152.1522  142.8479  156.4448 H   0  0  0  0  0  0  0  0  0  0  0  0
  151.9473  145.3787  158.7497 H   0  0  0  0  0  0  0  0  0  0  0  0
  152.9051  145.4037  161.0359 H   0  0  0  0  0  0  0  0  0  0  0  0
  153.5139  143.2669  162.1521 H   0  0  0  0  0  0  0  0  0  0  0  0
  153.1743  141.1256  161.0106 H   0  0  0  0  0  0  0  0  0  0  0  0
  153.6890  139.6766  159.1566 H   0  0  0  0  0  0  0  0  0  0  0  0
  152.1473  139.4153  159.9724 H   0  0  0  0  0  0  0  0  0  0  0  0
  152.6903  138.7328  157.0372 H   0  0  0  0  0  0  0  0  0  0  0  0
  152.8324  137.5899  158.2844 H   0  0  0  0  0  0  0  0  0  0  0  0
  148.1581  138.4737  155.8771 H   0  0  0  0  0  0  0  0  0  0  0  0
  147.0429  137.4459  157.7980 H   0  0  0  0  0  0  0  0  0  0  0  0
  146.7486  135.3412  160.6606 H   0  0  0  0  0  0  0  0  0  0  0  0
  147.0065  135.6111  158.9497 H   0  0  0  0  0  0  0  0  0  0  0  0
  1  2  1  0  0  0  0
  1 25  1  0  0  0  0
  1 26  1  0  0  0  0
  1 27  1  0  0  0  0
  2  7  1  0  0  0  0
  2  3  2  0  0  0  0
  3  4  1  0  0  0  0
  3 28  1  0  0  0  0
  4  5  2  0  0  0  0
  4 29  1  0  0  0  0
  5  6  1  0  0  0  0
  5 30  1  0  0  0  0
  6  7  2  0  0  0  0
  6 31  1  0  0  0  0
  7  8  1  0  0  0  0
  8  9  1  0  0  0  0
  9 10  1  0  0  0  0
  9 32  1  0  0  0  0
  9 33  1  0  0  0  0
 10 11  1  0  0  0  0
 10 34  1  0  0  0  0
 10 35  1  0  0  0  0
 11 23  1  0  0  0  0
 11 12  1  0  0  0  0
 12 13  1  0  0  0  0
 12 17  2  0  0  0  0
 13 14  1  0  0  0  0
 13 15  1  0  0  0  0
 13 16  1  0  0  0  0
 17 18  1  0  0  0  0
 17 36  1  0  0  0  0
 18 19  2  0  0  0  0
 18 37  1  0  0  0  0
 19 20  1  0  0  0  0
 19 23  1  0  0  0  0
 20 21  1  0  0  0  0
 20 22  2  0  0  0  0
 21 38  1  0  0  0  0
 21 39  1  0  0  0  0
 23 24  2  0  0  0  0
M  END
> <s_m_source_file>
AV-unprocessed.smi

> <i_m_source_file_index>
351

> <i_lp_mmshare_version>
43012

> <i_f3d_flags>
0

> <s_epik_input>
W0NIM11jMVtjSF1bY0hdW2NIXVtjSF1jMU9bQ0gyXVtDSDJdbjJjKEMoRikoRilGKVtjSF1bY0hdYyhjMj1PKUMoPU8pW05IMl0=

> <s_epik_cmdline>
J2VwaWtfcHl0aG9uJywgJy1waCcsICc3LjAnLCAnLXRuJywgJzgnLCAnLW1hJywgJzIwMCcsICctbWV0YWxfYmluZGluZycsICctaW1hZScsICc8aW5maWxlLm1hZT4nLCAnLW9tYWUnLCAnPG91dGZpbGUubWFlPic=

> <r_lp_tautomer_probability>
1

> <r_epik_Ionization_Penalty>
1.75286e-06

> <r_epik_Ionization_Penalty_Charging>
1.15608e-09

> <r_epik_Ionization_Penalty_Neutral>
1.7517e-06

> <r_epik_State_Penalty>
-0

> <r_epik_Charging_Adjusted_Penalty>
1.15608e-09

> <i_epik_Tot_Q>
0

> <i_epik_Tot_abs_Q>
0

> <r_epik_Metal_State_Penalty>
-0

> <b_epik_Metal_Only>
0

> <s_lp_Force_Field>
OPLS_2005

> <r_lp_Energy>
33.8975

> <b_lp_Chiralities_Consistent>
1

> <s_lp_Variant>
AV-unprocessed.smi:351-1

> <Gold.Version>
5.8.1

> <Gold.Id.Protein>
6NUR|6NUR_protein|mol2

> <Gold.PLP.Fitness>
49.8230

> <Gold.PLP.PLP>
-45.6340

> <Gold.PLP.part.hbond>
-2.1083

> <Gold.PLP.part.metal>
0.0000

> <Gold.PLP.part.buried>
-6.3454

> <Gold.PLP.part.nonpolar>
-38.1198

> <Gold.PLP.part.repulsive>
0.0423

> <Gold.PLP.ligand.clash>
3.7631

> <Gold.PLP.ligand.torsion>
0.7102

> <Gold.PLP.Chemscore.Hbond>
1.8450

> <Gold.PLP.Chemscore.CHOScore>
0.0000

> <Gold.PLP.Chemscore.Metal>
0.0000

> <Gold.Chemscore.Hbonds>
donor molecule, donor type, donor heavy atom, donor atom, acceptor molecule, acceptor atom, score
      P1  H  6896  6908       L1    24  0.41
      P1  H  6931  6943       L1    22  0.96

> <Gold.PLP.Chemscore.Internal.Correction>
3.8376

> <Gold.Rescore>
     Score         DG    S(hbond)    S(metal)    S(lipo)     H(rot)  DE(clash)    DE(int)     intcor
      8.72     -15.79       0.99        0.00     100.06       1.84       0.62       6.45       ----

> <Gold.Chemscore.Fitness>
8.7160

> <Gold.Chemscore.DG>
-15.7863

> <Gold.Chemscore.ZeroCoef>
-5.4800

> <Gold.Chemscore.Hbond>
0.9920

> <Gold.Chemscore.Metal>
0.0000

> <Gold.Chemscore.Lipo>
100.0562

> <Gold.Chemscore.Internal_Hbond>
0.0000

> <Gold.Chemscore.DEClash>
0.6210

> <Gold.Chemscore.DEInternal>
6.4494

> <Gold.Chemscore.Rot>
1.8412

> <Gold.Chemscore.Internal.Correction>
   9.000000E+99

> <Gold.Chemscore.Hbonds>
donor molecule, donor type, donor heavy atom, donor atom, acceptor molecule, acceptor atom, score
      P1  H  6896  6908       L1    24  0.16
      P1  H  6931  6943       L1    22  0.91

> <Gold.Chemscore.Hbond.Weighted>
-3.3131

> <Gold.Chemscore.Metal.Weighted>
-0.0000

> <Gold.Chemscore.Lipo.Weighted>
-11.7066

> <Gold.Chemscore.Internal_Hbond.Weighted>
0.0000

> <Gold.Chemscore.DEClash.Weighted>
0.6210

> <Gold.Chemscore.DEInternal.Weighted>
6.4494

> <Gold.Chemscore.Rot.Weighted>
4.7134

> <Gold.Chemscore.Internal.Correction.Weighted>
   9.000000E+99

> <Gold.Protein.RotatedTorsions>
[ 6907 6896 6895 6894 ] final -139.73 input  -60.11 | X-H torsion
[ 7974 7965 7964 7962 ] final   -9.38 input  175.53 | X-H torsion
[ 8008 7997 7996 7995 ] final -146.18 input   59.86 | X-H torsion
[ 10167 10162 10161 10158 ] final   64.54 input  -65.29 | X-H torsion
[ 10718 10713 10712 10709 ] final   30.68 input   66.30 | X-H torsion
[ 10763 10752 10751 10750 ] final  128.91 input  -60.55 | X-H torsion
[ 11005 11000 10999 10996 ] final   41.50 input  -57.11 | X-H torsion

> <Gold.Protein.ActiveResidues>
 VAL166  LYS551  ARG553  GLY616  TRP617  ASP618  TYR619  PRO620  LYS621  CYS622 
 ASP623  PHE694  ASN695  SER759  ASP760  ASP761  ALA762  ILE779  LEU786  VAL792 
 PHE793  MET794  SER795  GLU796  ALA797  LYS798  CYS799  TRP800  GLU811  SER814 

> <Gold.Protein.RotatedAtoms>
  151.0515  133.5620  159.2641 H   0  0  0  0  0  0  0  0  0  0  0  0  # atno 6907 bound_to 6896
  151.2629  135.0659  159.9115 H   0  0  0  0  0  0  0  0  0  0  0  0  # atno 6908 bound_to 6896
  152.5382  134.0258  159.8056 H   0  0  0  0  0  0  0  0  0  0  0  0  # atno 6909 bound_to 6896
  146.2253  140.2608  142.8351 H   0  0  0  0  0  0  0  0  0  0  0  0  # atno 7974 bound_to 7965
  155.5552  140.0620  157.2841 H   0  0  0  0  0  0  0  0  0  0  0  0  # atno 8008 bound_to 7997
  154.4408  140.1895  156.0772 H   0  0  0  0  0  0  0  0  0  0  0  0  # atno 8009 bound_to 7997
  156.0487  140.3287  155.7330 H   0  0  0  0  0  0  0  0  0  0  0  0  # atno 8010 bound_to 7997
  140.1210  144.4731  150.6920 H   0  0  0  0  0  0  0  0  0  0  0  0  # atno 10167 bound_to 10162
  157.2627  130.7169  149.6462 H   0  0  0  0  0  0  0  0  0  0  0  0  # atno 10718 bound_to 10713
  153.7332  135.3235  155.3290 H   0  0  0  0  0  0  0  0  0  0  0  0  # atno 10763 bound_to 10752
  154.8319  135.4527  154.1101 H   0  0  0  0  0  0  0  0  0  0  0  0  # atno 10764 bound_to 10752
  153.2254  135.6953  153.8032 H   0  0  0  0  0  0  0  0  0  0  0  0  # atno 10765 bound_to 10752
  140.1829  134.4082  155.8190 H   0  0  0  0  0  0  0  0  0  0  0  0  # atno 11005 bound_to 11000
  144.9341  140.8007  143.5671 LP  0  0  0  0  0  0  0  0  0  0  0  0  # atno 17320 bound_to 7965
  145.2554  139.2014  143.4920 LP  0  0  0  0  0  0  0  0  0  0  0  0  # atno 17321 bound_to 7965
  140.6872  143.2356  151.5229 LP  0  0  0  0  0  0  0  0  0  0  0  0  # atno 17342 bound_to 10162
  139.5568  144.2254  152.1626 LP  0  0  0  0  0  0  0  0  0  0  0  0  # atno 17343 bound_to 10162
  155.9664  130.4392  150.5250 LP  0  0  0  0  0  0  0  0  0  0  0  0  # atno 17370 bound_to 10713
  157.3158  131.0672  151.1968 LP  0  0  0  0  0  0  0  0  0  0  0  0  # atno 17371 bound_to 10713
  141.2224  133.7009  156.7961 LP  0  0  0  0  0  0  0  0  0  0  0  0  # atno 17394 bound_to 11000
  140.2247  134.8731  157.3414 LP  0  0  0  0  0  0  0  0  0  0  0  0  # atno 17395 bound_to 11000

$$$$
