AV-unprocessed.smi:1452|AV-procd|sdf|5904|dock8
  -GOLD-   22720 5593D 1   1.00000     0.00000
 Structure written by MMmdl.
 40 42  0  0  0  0  0  0  0  0  2 V2000
  145.0075  137.7824  153.0140 O   0  0  0  0  0  0  0  0  0  0  0  0
  146.0603  137.2029  152.7538 C   0  0  0  0  0  0  0  0  0  0  0  0
  147.2551  137.7947  152.9637 N   0  0  0  0  0  0  0  0  0  0  0  0
  147.5850  139.0842  153.4753 C   0  0  0  0  0  0  0  0  0  0  0  0
  148.8120  139.1424  154.1739 C   0  0  0  0  0  0  0  0  0  0  0  0
  149.2504  140.3686  154.7102 C   0  0  0  0  0  0  0  0  0  0  0  0
  148.4510  141.5111  154.5302 C   0  0  0  0  0  0  0  0  0  0  0  0
  147.2463  141.3711  153.8182 C   0  0  0  0  0  0  0  0  0  0  0  0
  146.8243  140.1962  153.3041 N   0  0  0  0  0  0  0  0  0  0  0  0
  146.0998  135.9576  152.2512 N   0  0  0  0  0  0  0  0  0  0  0  0
  144.9454  135.1013  151.9914 C   0  0  1  0  0  0  0  0  0  0  0  0
  144.5190  135.1077  150.5102 C   0  0  0  0  0  0  0  0  0  0  0  0
  144.2095  133.6425  150.1870 C   0  0  0  0  0  0  0  0  0  0  0  0
  145.1554  132.9116  151.0382 N   0  3  2  0  0  0  0  0  0  0  0  0
  144.9905  131.4515  151.1847 C   0  0  0  0  0  0  0  0  0  0  0  0
  146.2007  130.8994  151.9683 C   0  0  0  0  0  0  0  0  0  0  0  0
  146.4296  131.6524  153.2985 C   0  0  0  0  0  0  0  0  0  0  0  0
  146.4637  133.1821  153.0928 C   0  0  0  0  0  0  0  0  0  0  0  0
  145.1965  133.6138  152.3322 C   0  0  1  0  0  0  0  0  0  0  0  0
  148.0481  137.2649  152.6319 H   0  0  0  0  0  0  0  0  0  0  0  0
  149.4170  138.2560  154.3012 H   0  0  0  0  0  0  0  0  0  0  0  0
  150.1844  140.4304  155.2488 H   0  0  0  0  0  0  0  0  0  0  0  0
  148.7537  142.4695  154.9257 H   0  0  0  0  0  0  0  0  0  0  0  0
  146.6045  142.2243  153.6555 H   0  0  0  0  0  0  0  0  0  0  0  0
  147.0112  135.5624  152.0654 H   0  0  0  0  0  0  0  0  0  0  0  0
  144.0987  135.4512  152.5851 H   0  0  0  0  0  0  0  0  0  0  0  0
  143.6689  135.7638  150.3207 H   0  0  0  0  0  0  0  0  0  0  0  0
  145.3423  135.4478  149.8797 H   0  0  0  0  0  0  0  0  0  0  0  0
  143.1865  133.3934  150.4737 H   0  0  0  0  0  0  0  0  0  0  0  0
  144.3424  133.4057  149.1310 H   0  0  0  0  0  0  0  0  0  0  0  0
  144.0560  131.2279  151.7015 H   0  0  0  0  0  0  0  0  0  0  0  0
  144.9360  130.9860  150.2000 H   0  0  0  0  0  0  0  0  0  0  0  0
  146.0682  129.8341  152.1595 H   0  0  0  0  0  0  0  0  0  0  0  0
  147.0961  130.9898  151.3518 H   0  0  0  0  0  0  0  0  0  0  0  0
  145.6281  131.4010  153.9942 H   0  0  0  0  0  0  0  0  0  0  0  0
  147.3564  131.3167  153.7646 H   0  0  0  0  0  0  0  0  0  0  0  0
  146.5195  133.6836  154.0594 H   0  0  0  0  0  0  0  0  0  0  0  0
  147.3580  133.4638  152.5349 H   0  0  0  0  0  0  0  0  0  0  0  0
  144.3313  133.2834  152.9114 H   0  0  0  0  0  0  0  0  0  0  0  0
  146.0612  133.0553  150.6154 H   0  0  0  0  0  0  0  0  0  0  0  0
  1  2  2  0  0  0  0
  2  3  1  0  0  0  0
  2 10  1  0  0  0  0
  3  4  1  0  0  0  0
  3 20  1  0  0  0  0
  4  9  1  0  0  0  0
  4  5  2  0  0  0  0
  5  6  1  0  0  0  0
  5 21  1  0  0  0  0
  6  7  2  0  0  0  0
  6 22  1  0  0  0  0
  7  8  1  0  0  0  0
  7 23  1  0  0  0  0
  8  9  2  0  0  0  0
  8 24  1  0  0  0  0
 10 11  1  0  0  0  0
 10 25  1  0  0  0  0
 11 19  1  0  0  0  0
 11 12  1  0  0  0  0
 11 26  1  0  0  0  0
 12 13  1  0  0  0  0
 12 27  1  0  0  0  0
 12 28  1  0  0  0  0
 13 14  1  0  0  0  0
 13 29  1  0  0  0  0
 13 30  1  0  0  0  0
 14 19  1  0  0  0  0
 14 15  1  0  0  0  0
 14 40  1  0  0  0  0
 15 16  1  0  0  0  0
 15 31  1  0  0  0  0
 15 32  1  0  0  0  0
 16 17  1  0  0  0  0
 16 33  1  0  0  0  0
 16 34  1  0  0  0  0
 17 18  1  0  0  0  0
 17 35  1  0  0  0  0
 17 36  1  0  0  0  0
 18 19  1  0  0  0  0
 18 37  1  0  0  0  0
 18 38  1  0  0  0  0
 19 39  1  0  0  0  0
M  CHG  1  14   1
M  END
> <s_m_source_file>
AV-unprocessed.smi

> <i_m_source_file_index>
1452

> <i_lp_mmshare_version>
43012

> <i_f3d_flags>
0

> <s_epik_input>
W0NIMl0xW0NIMl1bQ0gyXVtDSDJdW0NASF0oTjEyKVtDQEBIXShbQ0gyXVtDSDJdMilbTkhdQyg9TylbTkhdYzNbY0hdW2NIXVtjSF1bY0hdbjM=

> <s_epik_cmdline>
J2VwaWtfcHl0aG9uJywgJy1waCcsICc3LjAnLCAnLXRuJywgJzgnLCAnLW1hJywgJzIwMCcsICctbWV0YWxfYmluZGluZycsICctaW1hZScsICc8aW5maWxlLm1hZT4nLCAnLW9tYWUnLCAnPG91dGZpbGUubWFlPic=

> <r_epik_Ionization_Penalty>
0.00100813

> <r_epik_Ionization_Penalty_Charging>
0.000974069

> <r_epik_Ionization_Penalty_Neutral>
3.40643e-05

> <r_epik_State_Penalty>
0.000633842

> <r_epik_Charging_Adjusted_Penalty>
0.00160791

> <i_epik_Tot_Q>
1

> <i_epik_Tot_abs_Q>
1

> <r_epik_Metal_State_Penalty>
-0

> <b_epik_Metal_Only>
0

> <s_lp_Force_Field>
OPLS_2005

> <r_lp_Energy>
45.5748

> <b_lp_Chiralities_Consistent>
1

> <s_lp_Variant>
AV-unprocessed.smi:1452-2

> <Gold.Version>
5.8.1

> <Gold.Id.Protein>
6NUR|6NUR_protein|mol2

> <Gold.PLP.Fitness>
35.4387

> <Gold.PLP.PLP>
-31.0851

> <Gold.PLP.part.hbond>
-2.0000

> <Gold.PLP.part.metal>
0.0000

> <Gold.PLP.part.buried>
-4.3076

> <Gold.PLP.part.nonpolar>
-26.1770

> <Gold.PLP.part.repulsive>
1.2050

> <Gold.PLP.ligand.clash>
0.0000

> <Gold.PLP.ligand.torsion>
0.4994

> <Gold.PLP.Chemscore.Hbond>
1.7840

> <Gold.PLP.Chemscore.CHOScore>
0.0000

> <Gold.PLP.Chemscore.Metal>
0.0000

> <Gold.Chemscore.Hbonds>
donor molecule, donor type, donor heavy atom, donor atom, acceptor molecule, acceptor atom, score
      L1  H     3    20       P1  7948  1.00
      L1  H    10    25       P1  7948  0.76

> <Gold.PLP.Chemscore.Internal.Correction>
0.0005

> <Gold.Rescore>
     Score         DG    S(hbond)    S(metal)    S(lipo)     H(rot)  DE(clash)    DE(int)     intcor
     16.09     -17.83       1.84        0.00      74.98       1.00       0.38       1.37       ----

> <Gold.Chemscore.Fitness>
16.0852

> <Gold.Chemscore.DG>
-17.8348

> <Gold.Chemscore.ZeroCoef>
-5.4800

> <Gold.Chemscore.Hbond>
1.8391

> <Gold.Chemscore.Metal>
0.0000

> <Gold.Chemscore.Lipo>
74.9767

> <Gold.Chemscore.Internal_Hbond>
0.0000

> <Gold.Chemscore.DEClash>
0.3794

> <Gold.Chemscore.DEInternal>
1.3703

> <Gold.Chemscore.Rot>
1.0000

> <Gold.Chemscore.Internal.Correction>
   9.000000E+99

> <Gold.Chemscore.Hbonds>
donor molecule, donor type, donor heavy atom, donor atom, acceptor molecule, acceptor atom, score
      L1  H     3    20       P1  7948  0.97
      L1  H    10    25       P1  7948  0.72

> <Gold.Chemscore.Hbond.Weighted>
-6.1425

> <Gold.Chemscore.Metal.Weighted>
-0.0000

> <Gold.Chemscore.Lipo.Weighted>
-8.7723

> <Gold.Chemscore.Internal_Hbond.Weighted>
0.0000

> <Gold.Chemscore.DEClash.Weighted>
0.3794

> <Gold.Chemscore.DEInternal.Weighted>
1.3703

> <Gold.Chemscore.Rot.Weighted>
2.5600

> <Gold.Chemscore.Internal.Correction.Weighted>
   9.000000E+99

> <Gold.Protein.RotatedTorsions>
[ 6907 6896 6895 6894 ] final   61.00 input  -60.11 | X-H torsion
[ 7974 7965 7964 7962 ] final  -33.54 input  175.53 | X-H torsion
[ 8008 7997 7996 7995 ] final   58.57 input   59.86 | X-H torsion
[ 10167 10162 10161 10158 ] final   -5.54 input  -65.29 | X-H torsion
[ 10718 10713 10712 10709 ] final   34.99 input   66.30 | X-H torsion
[ 10763 10752 10751 10750 ] final -140.06 input  -60.55 | X-H torsion
[ 11005 11000 10999 10996 ] final  125.38 input  -57.11 | X-H torsion

> <Gold.Protein.ActiveResidues>
 VAL166  LYS551  ARG553  GLY616  TRP617  ASP618  TYR619  PRO620  LYS621  CYS622 
 ASP623  PHE694  ASN695  SER759  ASP760  ASP761  ALA762  ILE779  LEU786  VAL792 
 PHE793  MET794  SER795  GLU796  ALA797  LYS798  CYS799  TRP800  GLU811  SER814 

> <Gold.Protein.RotatedAtoms>
  152.4052  134.6219  160.0052 H   0  0  0  0  0  0  0  0  0  0  0  0  # atno 6907 bound_to 6896
  151.6413  133.3320  159.3139 H   0  0  0  0  0  0  0  0  0  0  0  0  # atno 6908 bound_to 6896
  150.7947  134.7040  159.6611 H   0  0  0  0  0  0  0  0  0  0  0  0  # atno 6909 bound_to 6896
  146.0902  140.5928  142.8868 H   0  0  0  0  0  0  0  0  0  0  0  0  # atno 7974 bound_to 7965
  155.5522  140.3486  155.4471 H   0  0  0  0  0  0  0  0  0  0  0  0  # atno 8008 bound_to 7997
  156.0575  140.1332  157.0006 H   0  0  0  0  0  0  0  0  0  0  0  0  # atno 8009 bound_to 7997
  154.4463  140.0992  156.6452 H   0  0  0  0  0  0  0  0  0  0  0  0  # atno 8010 bound_to 7997
  140.6967  143.6296  150.8535 H   0  0  0  0  0  0  0  0  0  0  0  0  # atno 10167 bound_to 10162
  157.3172  130.7429  149.6762 H   0  0  0  0  0  0  0  0  0  0  0  0  # atno 10718 bound_to 10713
  154.8590  135.3564  154.5646 H   0  0  0  0  0  0  0  0  0  0  0  0  # atno 10763 bound_to 10752
  153.6260  135.7004  153.5297 H   0  0  0  0  0  0  0  0  0  0  0  0  # atno 10764 bound_to 10752
  153.3089  135.4184  155.1278 H   0  0  0  0  0  0  0  0  0  0  0  0  # atno 10765 bound_to 10752
  139.9403  134.9636  156.8549 H   0  0  0  0  0  0  0  0  0  0  0  0  # atno 11005 bound_to 11000
  144.7355  140.4795  143.6907 LP  0  0  0  0  0  0  0  0  0  0  0  0  # atno 17320 bound_to 7965
  145.6053  139.1507  143.3106 LP  0  0  0  0  0  0  0  0  0  0  0  0  # atno 17321 bound_to 7965
  140.0015  143.5739  152.2874 LP  0  0  0  0  0  0  0  0  0  0  0  0  # atno 17342 bound_to 10162
  139.6430  144.7656  151.2300 LP  0  0  0  0  0  0  0  0  0  0  0  0  # atno 17343 bound_to 10162
  155.9682  130.4234  150.4560 LP  0  0  0  0  0  0  0  0  0  0  0  0  # atno 17370 bound_to 10713
  157.2569  131.0558  151.2345 LP  0  0  0  0  0  0  0  0  0  0  0  0  # atno 17371 bound_to 10713
  140.5968  134.0210  155.7521 LP  0  0  0  0  0  0  0  0  0  0  0  0  # atno 17394 bound_to 11000
  141.1035  133.9730  157.3037 LP  0  0  0  0  0  0  0  0  0  0  0  0  # atno 17395 bound_to 11000

$$$$
