AV-unprocessed.smi:244|AV-procd|sdf|1870|dock10
  -GOLD-   2262020513D 1   1.00000     0.00000
 Structure written by MMmdl.
 57 61  0  0  0  0  0  0  0  0  2 V2000
  146.7883  139.1579  156.5723 C   0  0  0  0  0  0  0  0  0  0  0  0
  147.0880  138.7297  155.1863 N   0  3  1  0  0  0  0  0  0  0  0  0
  147.4721  139.8494  154.2876 C   0  0  0  0  0  0  0  0  0  0  0  0
  148.9230  140.3113  154.5207 C   0  0  0  0  0  0  0  0  0  0  0  0
  149.8911  139.1282  154.3947 C   0  0  1  0  0  0  0  0  0  0  0  0
  151.2186  139.5613  154.6694 O   0  0  0  0  0  0  0  0  0  0  0  0
  152.1616  138.5075  154.4997 C   0  0  0  0  0  0  0  0  0  0  0  0
  151.8350  137.3665  155.4769 C   0  0  0  0  0  0  0  0  0  0  0  0
  150.4574  136.9177  155.2952 N   0  0  0  0  0  0  0  0  0  0  0  0
  150.1668  135.8437  156.0632 C   0  0  0  0  0  0  0  0  0  0  0  0
  149.9649  134.6283  155.4890 N   0  0  0  0  0  0  0  0  0  0  0  0
  149.7092  133.5643  156.2566 C   0  0  0  0  0  0  0  0  0  0  0  0
  149.6265  133.4955  157.5874 N   0  0  0  0  0  0  0  0  0  0  0  0
  149.8355  134.7149  158.1624 C   0  0  0  0  0  0  0  0  0  0  0  0
  150.1030  135.9321  157.4773 C   0  0  0  0  0  0  0  0  0  0  0  0
  150.2602  136.9701  158.3856 N   0  0  0  0  0  0  0  0  0  0  0  0
  150.0913  136.3982  159.5469 C   0  0  0  0  0  0  0  0  0  0  0  0
  149.8537  135.0418  159.5070 N   0  0  0  0  0  0  0  0  0  0  0  0
  149.6480  134.1593  160.6450 C   0  0  0  0  0  0  0  0  0  0  0  0
  148.7733  134.7636  161.7735 C   0  0  0  0  0  0  0  0  0  0  0  0
  148.4091  133.6673  162.5925 O   0  0  0  0  0  0  0  0  0  0  0  0
  149.5355  135.7878  162.6419 C   0  0  0  0  0  0  0  0  0  0  0  0
  148.6215  136.4417  163.6937 C   0  0  0  0  0  0  0  0  0  0  0  0
  147.4999  137.0425  163.0568 O   0  0  0  0  0  0  0  0  0  0  0  0
  146.6802  136.0996  162.3759 C   0  0  0  0  0  0  0  0  0  0  0  0
  147.4810  135.4259  161.2471 C   0  0  0  0  0  0  0  0  0  0  0  0
  149.4940  138.0172  155.3897 C   0  0  2  0  0  0  0  0  0  0  0  0
  148.0317  137.5838  155.1102 C   0  0  0  0  0  0  0  0  0  0  0  0
  147.6684  139.5593  157.0746 H   0  0  0  0  0  0  0  0  0  0  0  0
  146.4176  138.3177  157.1600 H   0  0  0  0  0  0  0  0  0  0  0  0
  146.0162  139.9277  156.5754 H   0  0  0  0  0  0  0  0  0  0  0  0
  147.3623  139.5109  153.2563 H   0  0  0  0  0  0  0  0  0  0  0  0
  146.7800  140.6834  154.4105 H   0  0  0  0  0  0  0  0  0  0  0  0
  149.1853  141.0845  153.7981 H   0  0  0  0  0  0  0  0  0  0  0  0
  149.0191  140.7679  155.5062 H   0  0  0  0  0  0  0  0  0  0  0  0
  149.8467  138.7475  153.3720 H   0  0  0  0  0  0  0  0  0  0  0  0
  152.1482  138.1523  153.4682 H   0  0  0  0  0  0  0  0  0  0  0  0
  153.1635  138.8919  154.6910 H   0  0  0  0  0  0  0  0  0  0  0  0
  152.5213  136.5333  155.3174 H   0  0  0  0  0  0  0  0  0  0  0  0
  151.9807  137.7125  156.5013 H   0  0  0  0  0  0  0  0  0  0  0  0
  149.5527  132.6342  155.7300 H   0  0  0  0  0  0  0  0  0  0  0  0
  150.1502  136.9508  160.4735 H   0  0  0  0  0  0  0  0  0  0  0  0
  149.1978  133.2368  160.2754 H   0  0  0  0  0  0  0  0  0  0  0  0
  150.6270  133.8804  161.0381 H   0  0  0  0  0  0  0  0  0  0  0  0
  148.2470  132.9193  162.0382 H   0  0  0  0  0  0  0  0  0  0  0  0
  150.3921  135.3177  163.1267 H   0  0  0  0  0  0  0  0  0  0  0  0
  149.9366  136.5815  162.0121 H   0  0  0  0  0  0  0  0  0  0  0  0
  148.2875  135.7141  164.4349 H   0  0  0  0  0  0  0  0  0  0  0  0
  149.1700  137.2124  164.2354 H   0  0  0  0  0  0  0  0  0  0  0  0
  146.2904  135.3626  163.0796 H   0  0  0  0  0  0  0  0  0  0  0  0
  145.8189  136.6224  161.9598 H   0  0  0  0  0  0  0  0  0  0  0  0
  147.7289  136.1949  160.5159 H   0  0  0  0  0  0  0  0  0  0  0  0
  146.8593  134.6960  160.7272 H   0  0  0  0  0  0  0  0  0  0  0  0
  149.5569  138.4213  156.4013 H   0  0  0  0  0  0  0  0  0  0  0  0
  147.7010  136.8124  155.8065 H   0  0  0  0  0  0  0  0  0  0  0  0
  147.9633  137.1454  154.1135 H   0  0  0  0  0  0  0  0  0  0  0  0
  146.2091  138.3825  154.8293 H   0  0  0  0  0  0  0  0  0  0  0  0
  1  2  1  0  0  0  0
  1 29  1  0  0  0  0
  1 30  1  0  0  0  0
  1 31  1  0  0  0  0
  2 28  1  0  0  0  0
  2  3  1  0  0  0  0
  2 57  1  0  0  0  0
  3  4  1  0  0  0  0
  3 32  1  0  0  0  0
  3 33  1  0  0  0  0
  4  5  1  0  0  0  0
  4 34  1  0  0  0  0
  4 35  1  0  0  0  0
  5 27  1  0  0  0  0
  5  6  1  0  0  0  0
  5 36  1  0  0  0  0
  6  7  1  0  0  0  0
  7  8  1  0  0  0  0
  7 37  1  0  0  0  0
  7 38  1  0  0  0  0
  8  9  1  0  0  0  0
  8 39  1  0  0  0  0
  8 40  1  0  0  0  0
  9 10  1  0  0  0  0
  9 27  1  0  0  0  0
 10 15  1  0  0  0  0
 10 11  2  0  0  0  0
 11 12  1  0  0  0  0
 12 13  2  0  0  0  0
 12 41  1  0  0  0  0
 13 14  1  0  0  0  0
 14 18  1  0  0  0  0
 14 15  2  0  0  0  0
 15 16  1  0  0  0  0
 16 17  2  0  0  0  0
 17 18  1  0  0  0  0
 17 42  1  0  0  0  0
 18 19  1  0  0  0  0
 19 20  1  0  0  0  0
 19 43  1  0  0  0  0
 19 44  1  0  0  0  0
 20 26  1  0  0  0  0
 20 21  1  0  0  0  0
 20 22  1  0  0  0  0
 21 45  1  0  0  0  0
 22 23  1  0  0  0  0
 22 46  1  0  0  0  0
 22 47  1  0  0  0  0
 23 24  1  0  0  0  0
 23 48  1  0  0  0  0
 23 49  1  0  0  0  0
 24 25  1  0  0  0  0
 25 26  1  0  0  0  0
 25 50  1  0  0  0  0
 25 51  1  0  0  0  0
 26 52  1  0  0  0  0
 26 53  1  0  0  0  0
 27 28  1  0  0  0  0
 27 54  1  0  0  0  0
 28 55  1  0  0  0  0
 28 56  1  0  0  0  0
M  CHG  1   2   1
M  END
> <s_m_source_file>
AV-unprocessed.smi

> <i_m_source_file_index>
244

> <i_lp_mmshare_version>
43012

> <i_f3d_flags>
0

> <s_epik_input>
W0NIMl0xW0NIMl1OKFtDSDNdKVtDSDJdW0NAQEhdKFtDQEhdMTIpTihbQ0gyXVtDSDJdTzIpYyhuW2NIXW4zKWMoYzM0KW5bY0hdbjRbQ0gyXUM1KFtPSF0pW0NIMl1bQ0gyXU9bQ0gyXVtDSDJdNQ==

> <s_epik_cmdline>
J2VwaWtfcHl0aG9uJywgJy1waCcsICc3LjAnLCAnLXRuJywgJzgnLCAnLW1hJywgJzIwMCcsICctbWV0YWxfYmluZGluZycsICctaW1hZScsICc8aW5maWxlLm1hZT4nLCAnLW9tYWUnLCAnPG91dGZpbGUubWFlPic=

> <r_lp_tautomer_probability>
1

> <r_epik_Ionization_Penalty>
0.0136215

> <r_epik_Ionization_Penalty_Charging>
0.0131385

> <r_epik_Ionization_Penalty_Neutral>
0.000483022

> <r_epik_State_Penalty>
0.0104001

> <r_epik_Charging_Adjusted_Penalty>
0.0235387

> <i_epik_Tot_Q>
1

> <i_epik_Tot_abs_Q>
1

> <r_epik_Metal_State_Penalty>
0.0104469

> <b_epik_Metal_Only>
0

> <s_lp_Force_Field>
OPLS_2005

> <r_lp_Energy>
43.6006

> <b_lp_Chiralities_Consistent>
1

> <s_lp_Variant>
AV-unprocessed.smi:244-7

> <Gold.Version>
5.8.1

> <Gold.Id.Protein>
6NUR|6NUR_protein|mol2

> <Gold.PLP.Fitness>
37.5290

> <Gold.PLP.PLP>
-34.4468

> <Gold.PLP.part.hbond>
-2.0000

> <Gold.PLP.part.metal>
0.0000

> <Gold.PLP.part.buried>
-4.7834

> <Gold.PLP.part.nonpolar>
-28.0910

> <Gold.PLP.part.repulsive>
0.3201

> <Gold.PLP.ligand.clash>
0.0000

> <Gold.PLP.ligand.torsion>
0.5020

> <Gold.PLP.Chemscore.Hbond>
1.3270

> <Gold.PLP.Chemscore.CHOScore>
0.0000

> <Gold.PLP.Chemscore.Metal>
0.0000

> <Gold.Chemscore.Hbonds>
donor molecule, donor type, donor heavy atom, donor atom, acceptor molecule, acceptor atom, score
      P1  H  6931  6943       L1    24  0.08
      P1  H  7989  7998       L1     6  1.00

> <Gold.PLP.Chemscore.Internal.Correction>
0.1053

> <Gold.Rescore>
     Score         DG    S(hbond)    S(metal)    S(lipo)     H(rot)  DE(clash)    DE(int)     intcor
     11.33     -12.09       0.44        0.00      89.72       2.09       0.25       0.51       ----

> <Gold.Chemscore.Fitness>
11.3267

> <Gold.Chemscore.DG>
-12.0866

> <Gold.Chemscore.ZeroCoef>
-5.4800

> <Gold.Chemscore.Hbond>
0.4380

> <Gold.Chemscore.Metal>
0.0000

> <Gold.Chemscore.Lipo>
89.7157

> <Gold.Chemscore.Internal_Hbond>
0.0000

> <Gold.Chemscore.DEClash>
0.2518

> <Gold.Chemscore.DEInternal>
0.5080

> <Gold.Chemscore.Rot>
2.0911

> <Gold.Chemscore.Internal.Correction>
   9.000000E+99

> <Gold.Chemscore.Hbonds>
donor molecule, donor type, donor heavy atom, donor atom, acceptor molecule, acceptor atom, score
      P1  H  7989  7998       L1     6  0.39

> <Gold.Chemscore.Hbond.Weighted>
-1.4629

> <Gold.Chemscore.Metal.Weighted>
-0.0000

> <Gold.Chemscore.Lipo.Weighted>
-10.4967

> <Gold.Chemscore.Internal_Hbond.Weighted>
0.0000

> <Gold.Chemscore.DEClash.Weighted>
0.2518

> <Gold.Chemscore.DEInternal.Weighted>
0.5080

> <Gold.Chemscore.Rot.Weighted>
5.3531

> <Gold.Chemscore.Internal.Correction.Weighted>
   9.000000E+99

> <Gold.Protein.RotatedTorsions>
[ 6907 6896 6895 6894 ] final  107.67 input  -60.11 | X-H torsion
[ 7974 7965 7964 7962 ] final  133.09 input  175.53 | X-H torsion
[ 8008 7997 7996 7995 ] final -141.79 input   59.86 | X-H torsion
[ 10167 10162 10161 10158 ] final   16.59 input  -65.29 | X-H torsion
[ 10718 10713 10712 10709 ] final  -42.58 input   66.30 | X-H torsion
[ 10763 10752 10751 10750 ] final -136.17 input  -60.55 | X-H torsion
[ 11005 11000 10999 10996 ] final   44.84 input  -57.11 | X-H torsion

> <Gold.Protein.ActiveResidues>
 VAL166  LYS551  ARG553  GLY616  TRP617  ASP618  TYR619  PRO620  LYS621  CYS622 
 ASP623  PHE694  ASN695  SER759  ASP760  ASP761  ALA762  ILE779  LEU786  VAL792 
 PHE793  MET794  SER795  GLU796  ALA797  LYS798  CYS799  TRP800  GLU811  SER814 

> <Gold.Protein.RotatedAtoms>
  152.5145  133.9201  159.7529 H   0  0  0  0  0  0  0  0  0  0  0  0  # atno 6907 bound_to 6896
  150.9574  133.6473  159.2767 H   0  0  0  0  0  0  0  0  0  0  0  0  # atno 6908 bound_to 6896
  151.3730  135.0931  159.9524 H   0  0  0  0  0  0  0  0  0  0  0  0  # atno 6909 bound_to 6896
  144.9901  139.4415  143.5343 H   0  0  0  0  0  0  0  0  0  0  0  0  # atno 7974 bound_to 7965
  155.4836  140.0562  157.2964 H   0  0  0  0  0  0  0  0  0  0  0  0  # atno 8008 bound_to 7997
  154.4651  140.2014  156.0093 H   0  0  0  0  0  0  0  0  0  0  0  0  # atno 8009 bound_to 7997
  156.0959  140.3226  155.7881 H   0  0  0  0  0  0  0  0  0  0  0  0  # atno 8010 bound_to 7997
  140.5787  143.9023  150.6771 H   0  0  0  0  0  0  0  0  0  0  0  0  # atno 10167 bound_to 10162
  156.2581  130.4194  149.8573 H   0  0  0  0  0  0  0  0  0  0  0  0  # atno 10718 bound_to 10713
  154.8689  135.3681  154.5018 H   0  0  0  0  0  0  0  0  0  0  0  0  # atno 10763 bound_to 10752
  153.5658  135.7022  153.5531 H   0  0  0  0  0  0  0  0  0  0  0  0  # atno 10764 bound_to 10752
  153.3587  135.4052  155.1665 H   0  0  0  0  0  0  0  0  0  0  0  0  # atno 10765 bound_to 10752
  140.1514  134.4456  155.8379 H   0  0  0  0  0  0  0  0  0  0  0  0  # atno 11005 bound_to 11000
  146.3429  139.9228  142.8764 LP  0  0  0  0  0  0  0  0  0  0  0  0  # atno 17320 bound_to 7965
  145.2297  140.9968  143.3997 LP  0  0  0  0  0  0  0  0  0  0  0  0  # atno 17321 bound_to 7965
  140.2517  143.3588  152.1400 LP  0  0  0  0  0  0  0  0  0  0  0  0  # atno 17342 bound_to 10162
  139.5157  144.6967  151.5611 LP  0  0  0  0  0  0  0  0  0  0  0  0  # atno 17343 bound_to 10162
  156.6098  130.8582  151.3451 LP  0  0  0  0  0  0  0  0  0  0  0  0  # atno 17370 bound_to 10713
  157.7240  130.9597  150.1556 LP  0  0  0  0  0  0  0  0  0  0  0  0  # atno 17371 bound_to 10713
  141.2199  133.6874  156.7429 LP  0  0  0  0  0  0  0  0  0  0  0  0  # atno 17394 bound_to 11000
  140.2600  134.8474  157.3749 LP  0  0  0  0  0  0  0  0  0  0  0  0  # atno 17395 bound_to 11000

$$$$
