AV-unprocessed.smi:220|AV-procd|sdf|1683|dock4
  -GOLD-   2262020113D 1   1.00000     0.00000
 Structure written by MMmdl.
 51 55  0  0  0  0  0  0  0  0  1 V2000
  148.9738  142.3134  156.9532 N   0  0  0  0  0  0  0  0  0  0  0  0
  149.8738  142.5394  157.9130 C   0  0  0  0  0  0  0  0  0  0  0  0
  149.5400  142.7868  159.0709 O   0  0  0  0  0  0  0  0  0  0  0  0
  151.3607  142.4935  157.4951 C   0  0  1  0  0  0  0  0  0  0  0  0
  152.3718  143.0466  158.5379 C   0  0  1  0  0  0  0  0  0  0  0  0
  151.9176  144.0568  159.6202 C   0  0  0  0  0  0  0  0  0  0  0  0
  152.5047  143.5256  160.9317 C   0  0  0  0  0  0  0  0  0  0  0  0
  152.5230  142.0080  160.7506 C   0  0  0  0  0  0  0  0  0  0  0  0
  152.9283  141.8286  159.2849 C   0  0  1  0  0  0  0  0  0  0  0  0
  152.3739  140.5995  158.5595 C   0  0  0  0  0  0  0  0  0  0  0  0
  151.8229  141.1153  157.3103 N   0  0  0  0  0  0  0  0  0  0  0  0
  151.2948  140.2747  156.3753 C   0  0  0  0  0  0  0  0  0  0  0  0
  150.5812  140.8139  155.3505 N   0  0  0  0  0  0  0  0  0  0  0  0
  150.0487  140.0371  154.4041 C   0  0  0  0  0  0  0  0  0  0  0  0
  150.1018  138.7106  154.2891 N   0  0  0  0  0  0  0  0  0  0  0  0
  150.8051  138.1540  155.3153 C   0  0  0  0  0  0  0  0  0  0  0  0
  151.4255  138.8524  156.3925 C   0  0  0  0  0  0  0  0  0  0  0  0
  152.0307  137.9359  157.2460 N   0  0  0  0  0  0  0  0  0  0  0  0
  151.7936  136.7745  156.7032 C   0  0  0  0  0  0  0  0  0  0  0  0
  151.0726  136.8128  155.5330 N   0  0  0  0  0  0  0  0  0  0  0  0
  150.6693  135.6755  154.7196 C   0  0  0  0  0  0  0  0  0  0  0  0
  150.0245  134.5317  155.5283 C   0  0  0  0  0  0  0  0  0  0  0  0
  149.2246  133.6016  154.5994 C   0  0  0  0  0  0  0  0  0  0  0  0
  148.3070  134.3295  153.8091 O   0  0  0  0  0  0  0  0  0  0  0  0
  150.9490  133.8008  156.5127 C   0  0  0  0  0  0  0  0  0  0  0  0
  150.0230  133.9795  157.6048 O   0  0  0  0  0  0  0  0  0  0  0  0
  149.2974  134.9456  156.8150 C   0  0  0  0  0  0  0  0  0  0  0  0
  147.9894  142.3282  157.1769 H   0  0  0  0  0  0  0  0  0  0  0  0
  149.2795  142.1245  156.0095 H   0  0  0  0  0  0  0  0  0  0  0  0
  151.4937  143.0652  156.5777 H   0  0  0  0  0  0  0  0  0  0  0  0
  153.2018  143.4938  157.9881 H   0  0  0  0  0  0  0  0  0  0  0  0
  152.2655  145.0671  159.4033 H   0  0  0  0  0  0  0  0  0  0  0  0
  150.8368  144.1166  159.7301 H   0  0  0  0  0  0  0  0  0  0  0  0
  153.5246  143.8927  161.0553 H   0  0  0  0  0  0  0  0  0  0  0  0
  151.9307  143.8374  161.8049 H   0  0  0  0  0  0  0  0  0  0  0  0
  153.2051  141.5087  161.4390 H   0  0  0  0  0  0  0  0  0  0  0  0
  151.5211  141.6127  160.9245 H   0  0  0  0  0  0  0  0  0  0  0  0
  154.0167  141.8439  159.2084 H   0  0  0  0  0  0  0  0  0  0  0  0
  153.1658  139.8726  158.3735 H   0  0  0  0  0  0  0  0  0  0  0  0
  151.5918  140.1061  159.1383 H   0  0  0  0  0  0  0  0  0  0  0  0
  149.5027  140.5526  153.6280 H   0  0  0  0  0  0  0  0  0  0  0  0
  152.1427  135.8539  157.1468 H   0  0  0  0  0  0  0  0  0  0  0  0
  149.9762  136.0434  153.9619 H   0  0  0  0  0  0  0  0  0  0  0  0
  151.5382  135.3166  154.1669 H   0  0  0  0  0  0  0  0  0  0  0  0
  149.8782  133.0229  153.9466 H   0  0  0  0  0  0  0  0  0  0  0  0
  148.6579  132.8735  155.1805 H   0  0  0  0  0  0  0  0  0  0  0  0
  148.7888  134.9478  153.2811 H   0  0  0  0  0  0  0  0  0  0  0  0
  151.1165  132.7506  156.2703 H   0  0  0  0  0  0  0  0  0  0  0  0
  151.8936  134.3116  156.7043 H   0  0  0  0  0  0  0  0  0  0  0  0
  149.5074  135.9677  157.1337 H   0  0  0  0  0  0  0  0  0  0  0  0
  148.2236  134.7556  156.8026 H   0  0  0  0  0  0  0  0  0  0  0  0
  1  2  1  0  0  0  0
  1 28  1  0  0  0  0
  1 29  1  0  0  0  0
  2  3  2  0  0  0  0
  2  4  1  0  0  0  0
  4 11  1  0  0  0  0
  4  5  1  0  0  0  0
  4 30  1  0  0  0  0
  5  9  1  0  0  0  0
  5  6  1  0  0  0  0
  5 31  1  0  0  0  0
  6  7  1  0  0  0  0
  6 32  1  0  0  0  0
  6 33  1  0  0  0  0
  7  8  1  0  0  0  0
  7 34  1  0  0  0  0
  7 35  1  0  0  0  0
  8  9  1  0  0  0  0
  8 36  1  0  0  0  0
  8 37  1  0  0  0  0
  9 10  1  0  0  0  0
  9 38  1  0  0  0  0
 10 11  1  0  0  0  0
 10 39  1  0  0  0  0
 10 40  1  0  0  0  0
 11 12  1  0  0  0  0
 12 17  1  0  0  0  0
 12 13  2  0  0  0  0
 13 14  1  0  0  0  0
 14 15  2  0  0  0  0
 14 41  1  0  0  0  0
 15 16  1  0  0  0  0
 16 20  1  0  0  0  0
 16 17  2  0  0  0  0
 17 18  1  0  0  0  0
 18 19  2  0  0  0  0
 19 20  1  0  0  0  0
 19 42  1  0  0  0  0
 20 21  1  0  0  0  0
 21 22  1  0  0  0  0
 21 43  1  0  0  0  0
 21 44  1  0  0  0  0
 22 27  1  0  0  0  0
 22 23  1  0  0  0  0
 22 25  1  0  0  0  0
 23 24  1  0  0  0  0
 23 45  1  0  0  0  0
 23 46  1  0  0  0  0
 24 47  1  0  0  0  0
 25 26  1  0  0  0  0
 25 48  1  0  0  0  0
 25 49  1  0  0  0  0
 26 27  1  0  0  0  0
 27 50  1  0  0  0  0
 27 51  1  0  0  0  0
M  END
> <s_m_source_file>
AV-unprocessed.smi

> <i_m_source_file_index>
220

> <i_lp_mmshare_version>
43012

> <i_f3d_flags>
0

> <s_epik_input>
W0NIMl0xW0NIMl1bQ0gyXVtDQEhdKFtDQEhdMTIpW0NIMl1OKFtDQEBIXTJDKD1PKVtOSDJdKWMobltjSF1uMyljKGMzNCluW2NIXW40W0NIMl1DNShbQ0gyXVtPSF0pW0NIMl1PW0NIMl01

> <s_epik_cmdline>
J2VwaWtfcHl0aG9uJywgJy1waCcsICc3LjAnLCAnLXRuJywgJzgnLCAnLW1hJywgJzIwMCcsICctbWV0YWxfYmluZGluZycsICctaW1hZScsICc8aW5maWxlLm1hZT4nLCAnLW9tYWUnLCAnPG91dGZpbGUubWFlPic=

> <r_lp_tautomer_probability>
1

> <r_epik_Ionization_Penalty>
0.00118987

> <r_epik_Ionization_Penalty_Charging>
0

> <r_epik_Ionization_Penalty_Neutral>
0.00118987

> <r_epik_State_Penalty>
0.000654261

> <r_epik_Charging_Adjusted_Penalty>
0.000654261

> <i_epik_Tot_Q>
0

> <i_epik_Tot_abs_Q>
0

> <r_epik_Metal_State_Penalty>
-0

> <b_epik_Metal_Only>
0

> <s_lp_Force_Field>
OPLS_2005

> <r_lp_Energy>
61.4398

> <b_lp_Chiralities_Consistent>
1

> <s_lp_Variant>
AV-unprocessed.smi:220-2

> <Gold.Version>
5.8.1

> <Gold.Id.Protein>
6NUR|6NUR_protein|mol2

> <Gold.PLP.Fitness>
53.7503

> <Gold.PLP.PLP>
-46.5929

> <Gold.PLP.part.hbond>
-5.0000

> <Gold.PLP.part.metal>
0.0000

> <Gold.PLP.part.buried>
-3.7912

> <Gold.PLP.part.nonpolar>
-37.7772

> <Gold.PLP.part.repulsive>
0.3904

> <Gold.PLP.ligand.clash>
0.0000

> <Gold.PLP.ligand.torsion>
0.9706

> <Gold.PLP.Chemscore.Hbond>
1.9280

> <Gold.PLP.Chemscore.CHOScore>
0.9120

> <Gold.PLP.Chemscore.Metal>
0.0000

> <Gold.Chemscore.Hbonds>
donor molecule, donor type, donor heavy atom, donor atom, acceptor molecule, acceptor atom, score
      L1  H    24    47       P1  7948  1.00
      P1  H  6896  6908       L1    26  0.94
      L1  C    14    41       P1  7957  0.92

> <Gold.PLP.Chemscore.Internal.Correction>
0.5787

> <Gold.Rescore>
     Score         DG    S(hbond)    S(metal)    S(lipo)     H(rot)  DE(clash)    DE(int)     intcor
     11.07     -16.12       1.87        0.00     100.89       2.89       0.01       5.05       ----

> <Gold.Chemscore.Fitness>
11.0705

> <Gold.Chemscore.DG>
-16.1240

> <Gold.Chemscore.ZeroCoef>
-5.4800

> <Gold.Chemscore.Hbond>
1.8652

> <Gold.Chemscore.Metal>
0.0000

> <Gold.Chemscore.Lipo>
100.8941

> <Gold.Chemscore.Internal_Hbond>
0.0000

> <Gold.Chemscore.DEClash>
0.0054

> <Gold.Chemscore.DEInternal>
5.0481

> <Gold.Chemscore.Rot>
2.8869

> <Gold.Chemscore.Internal.Correction>
   9.000000E+99

> <Gold.Chemscore.Hbonds>
donor molecule, donor type, donor heavy atom, donor atom, acceptor molecule, acceptor atom, score
      L1  H    24    47       P1  7948  0.44
      P1  H  6896  6908       L1    26  0.71

> <Gold.Chemscore.Hbond.Weighted>
-6.2299

> <Gold.Chemscore.Metal.Weighted>
-0.0000

> <Gold.Chemscore.Lipo.Weighted>
-11.8046

> <Gold.Chemscore.Internal_Hbond.Weighted>
0.0000

> <Gold.Chemscore.DEClash.Weighted>
0.0054

> <Gold.Chemscore.DEInternal.Weighted>
5.0481

> <Gold.Chemscore.Rot.Weighted>
7.3905

> <Gold.Chemscore.Internal.Correction.Weighted>
   9.000000E+99

> <Gold.Protein.RotatedTorsions>
[ 6907 6896 6895 6894 ] final  114.80 input  -60.11 | X-H torsion
[ 7974 7965 7964 7962 ] final   20.44 input  175.53 | X-H torsion
[ 8008 7997 7996 7995 ] final -109.39 input   59.86 | X-H torsion
[ 10167 10162 10161 10158 ] final -121.21 input  -65.29 | X-H torsion
[ 10718 10713 10712 10709 ] final   31.68 input   66.30 | X-H torsion
[ 10763 10752 10751 10750 ] final   74.45 input  -60.55 | X-H torsion
[ 11005 11000 10999 10996 ] final -113.37 input  -57.11 | X-H torsion

> <Gold.Protein.ActiveResidues>
 VAL166  LYS551  ARG553  GLY616  TRP617  ASP618  TYR619  PRO620  LYS621  CYS622 
 ASP623  PHE694  ASN695  SER759  ASP760  ASP761  ALA762  ILE779  LEU786  VAL792 
 PHE793  MET794  SER795  GLU796  ALA797  LYS798  CYS799  TRP800  GLU811  SER814 

> <Gold.Protein.RotatedAtoms>
  152.4780  133.8185  159.7040 H   0  0  0  0  0  0  0  0  0  0  0  0  # atno 6907 bound_to 6896
  150.8810  133.7362  159.2938 H   0  0  0  0  0  0  0  0  0  0  0  0  # atno 6908 bound_to 6896
  151.4866  135.1059  159.9844 H   0  0  0  0  0  0  0  0  0  0  0  0  # atno 6909 bound_to 6896
  146.2111  139.8170  142.8688 H   0  0  0  0  0  0  0  0  0  0  0  0  # atno 7974 bound_to 7965
  154.9586  140.0399  157.2179 H   0  0  0  0  0  0  0  0  0  0  0  0  # atno 8008 bound_to 7997
  154.7910  140.2835  155.5969 H   0  0  0  0  0  0  0  0  0  0  0  0  # atno 8009 bound_to 7997
  156.2949  140.2573  156.2758 H   0  0  0  0  0  0  0  0  0  0  0  0  # atno 8010 bound_to 7997
  140.0275  143.5281  152.2192 H   0  0  0  0  0  0  0  0  0  0  0  0  # atno 10167 bound_to 10162
  157.2756  130.7230  149.6528 H   0  0  0  0  0  0  0  0  0  0  0  0  # atno 10718 bound_to 10713
  153.0588  135.5025  154.8044 H   0  0  0  0  0  0  0  0  0  0  0  0  # atno 10763 bound_to 10752
  154.6849  135.2974  154.9563 H   0  0  0  0  0  0  0  0  0  0  0  0  # atno 10764 bound_to 10752
  154.0337  135.6726  153.4836 H   0  0  0  0  0  0  0  0  0  0  0  0  # atno 10765 bound_to 10752
  141.0618  133.9523  157.2652 H   0  0  0  0  0  0  0  0  0  0  0  0  # atno 11005 bound_to 11000
  145.3136  141.0226  143.3540 LP  0  0  0  0  0  0  0  0  0  0  0  0  # atno 17320 bound_to 7965
  144.8917  139.4765  143.6674 LP  0  0  0  0  0  0  0  0  0  0  0  0  # atno 17321 bound_to 7965
  139.6098  144.7606  151.2978 LP  0  0  0  0  0  0  0  0  0  0  0  0  # atno 17342 bound_to 10162
  140.7316  143.6847  150.7972 LP  0  0  0  0  0  0  0  0  0  0  0  0  # atno 17343 bound_to 10162
  155.9663  130.4354  150.5089 LP  0  0  0  0  0  0  0  0  0  0  0  0  # atno 17370 bound_to 10713
  157.3023  131.0647  151.2060 LP  0  0  0  0  0  0  0  0  0  0  0  0  # atno 17371 bound_to 10713
  139.9440  135.0187  156.8795 LP  0  0  0  0  0  0  0  0  0  0  0  0  # atno 17394 bound_to 11000
  140.5853  134.0313  155.7479 LP  0  0  0  0  0  0  0  0  0  0  0  0  # atno 17395 bound_to 11000

$$$$
