AV-unprocessed.smi:2444|AV-procd|sdf|9632|dock6
  -GOLD-   2272013263D 1   1.00000     0.00000
 Structure written by MMmdl.
 18 18  0  0  0  0  0  0  0  0  2 V2000
  148.4969  138.6852  152.8773 N   0  3  0  0  0  0  0  0  0  0  0  0
  148.8469  138.6530  154.3074 C   0  0  0  0  0  0  0  0  0  0  0  0
  149.7054  139.8622  154.7018 C   0  0  0  0  0  0  0  0  0  0  0  0
  151.0626  139.4655  155.1781 C   0  0  0  0  0  0  0  0  0  0  0  0
  152.2405  139.9184  154.7339 N   0  0  0  0  0  0  0  0  0  0  0  0
  153.2004  139.3039  155.5106 N   0  0  0  0  0  0  0  0  0  0  0  0
  152.5173  138.5462  156.3671 C   0  0  0  0  0  0  0  0  0  0  0  0
  152.9771  137.7168  157.3752 N   0  0  0  0  0  0  0  0  0  0  0  0
  151.1707  138.6060  156.2258 O   0  0  0  0  0  0  0  0  0  0  0  0
  147.5628  139.0536  152.7664 H   0  0  0  0  0  0  0  0  0  0  0  0
  148.5359  137.7497  152.4981 H   0  0  0  0  0  0  0  0  0  0  0  0
  147.9259  138.6361  154.8913 H   0  0  0  0  0  0  0  0  0  0  0  0
  149.3790  137.7246  154.5176 H   0  0  0  0  0  0  0  0  0  0  0  0
  149.8195  140.5371  153.8525 H   0  0  0  0  0  0  0  0  0  0  0  0
  149.2145  140.4323  155.4917 H   0  0  0  0  0  0  0  0  0  0  0  0
  153.9646  137.6106  157.5585 H   0  0  0  0  0  0  0  0  0  0  0  0
  152.3445  137.1612  157.9327 H   0  0  0  0  0  0  0  0  0  0  0  0
  149.1507  139.2759  152.3833 H   0  0  0  0  0  0  0  0  0  0  0  0
  1  2  1  0  0  0  0
  1 10  1  0  0  0  0
  1 11  1  0  0  0  0
  1 18  1  0  0  0  0
  2  3  1  0  0  0  0
  2 12  1  0  0  0  0
  2 13  1  0  0  0  0
  3  4  1  0  0  0  0
  3 14  1  0  0  0  0
  3 15  1  0  0  0  0
  4  9  1  0  0  0  0
  4  5  2  0  0  0  0
  5  6  1  0  0  0  0
  6  7  2  0  0  0  0
  7  8  1  0  0  0  0
  7  9  1  0  0  0  0
  8 16  1  0  0  0  0
  8 17  1  0  0  0  0
M  CHG  1   1   1
M  END
> <s_m_source_file>
AV-unprocessed.smi

> <i_m_source_file_index>
2444

> <i_lp_mmshare_version>
43012

> <i_f3d_flags>
0

> <s_epik_input>
W05IMl1bQ0gyXVtDSDJdYzFubmMobzEpW05IMl0=

> <s_epik_cmdline>
J2VwaWtfcHl0aG9uJywgJy1waCcsICc3LjAnLCAnLXRuJywgJzgnLCAnLW1hJywgJzIwMCcsICctbWV0YWxfYmluZGluZycsICctaW1hZScsICc8aW5maWxlLm1hZT4nLCAnLW9tYWUnLCAnPG91dGZpbGUubWFlPic=

> <r_lp_tautomer_probability>
0.999976

> <r_epik_Ionization_Penalty>
0.00128557

> <r_epik_Ionization_Penalty_Charging>
0.00128552

> <r_epik_Ionization_Penalty_Neutral>
5.30568e-08

> <r_epik_State_Penalty>
0.000852301

> <r_epik_Charging_Adjusted_Penalty>
0.00213782

> <i_epik_Tot_Q>
1

> <i_epik_Tot_abs_Q>
1

> <r_epik_Metal_State_Penalty>
-0

> <b_epik_Metal_Only>
0

> <s_lp_Force_Field>
OPLS_2005

> <r_lp_Energy>
0.265405

> <b_lp_Chiralities_Consistent>
1

> <s_lp_Variant>
AV-unprocessed.smi:2444-1

> <Gold.Version>
5.8.1

> <Gold.Id.Protein>
6NUR|6NUR_protein|mol2

> <Gold.PLP.Fitness>
27.4392

> <Gold.PLP.PLP>
-14.0292

> <Gold.PLP.part.hbond>
-3.5892

> <Gold.PLP.part.metal>
0.0000

> <Gold.PLP.part.buried>
-2.1407

> <Gold.PLP.part.nonpolar>
-7.9533

> <Gold.PLP.part.repulsive>
0.2793

> <Gold.PLP.ligand.clash>
0.0000

> <Gold.PLP.ligand.torsion>
0.4030

> <Gold.PLP.Chemscore.Hbond>
4.7360

> <Gold.PLP.Chemscore.CHOScore>
0.0000

> <Gold.PLP.Chemscore.Metal>
0.0000

> <Gold.Chemscore.Hbonds>
donor molecule, donor type, donor heavy atom, donor atom, acceptor molecule, acceptor atom, score
      L1  H     1    11       P1  7948  2.00
      L1  H     1    18       P1  7957  0.93
      P1  H  7989  7998       L1     5  0.63
      P1  H  7997  8010       L1     6  1.00

> <Gold.PLP.Chemscore.Internal.Correction>
0.0080

> <Gold.Rescore>
     Score         DG    S(hbond)    S(metal)    S(lipo)     H(rot)  DE(clash)    DE(int)     intcor
     14.98     -15.39       3.93        0.00       9.04       1.67       0.00       0.40       ----

> <Gold.Chemscore.Fitness>
14.9810

> <Gold.Chemscore.DG>
-15.3856

> <Gold.Chemscore.ZeroCoef>
-5.4800

> <Gold.Chemscore.Hbond>
3.9326

> <Gold.Chemscore.Metal>
0.0000

> <Gold.Chemscore.Lipo>
9.0422

> <Gold.Chemscore.Internal_Hbond>
0.0000

> <Gold.Chemscore.DEClash>
0.0000

> <Gold.Chemscore.DEInternal>
0.4045

> <Gold.Chemscore.Rot>
1.6747

> <Gold.Chemscore.Internal.Correction>
   9.000000E+99

> <Gold.Chemscore.Hbonds>
donor molecule, donor type, donor heavy atom, donor atom, acceptor molecule, acceptor atom, score
      L1  H     1    11       P1  7948  1.00
      L1  H     1    18       P1  7957  0.85
      P1  H  7989  7998       L1     5  0.13
      P1  H  7997  8010       L1     6  0.90

> <Gold.Chemscore.Hbond.Weighted>
-13.1348

> <Gold.Chemscore.Metal.Weighted>
-0.0000

> <Gold.Chemscore.Lipo.Weighted>
-1.0579

> <Gold.Chemscore.Internal_Hbond.Weighted>
0.0000

> <Gold.Chemscore.DEClash.Weighted>
0.0000

> <Gold.Chemscore.DEInternal.Weighted>
0.4045

> <Gold.Chemscore.Rot.Weighted>
4.2872

> <Gold.Chemscore.Internal.Correction.Weighted>
   9.000000E+99

> <Gold.Protein.RotatedTorsions>
[ 6907 6896 6895 6894 ] final  -55.96 input  -60.11 | X-H torsion
[ 7974 7965 7964 7962 ] final   40.13 input  175.53 | X-H torsion
[ 8008 7997 7996 7995 ] final   95.49 input   59.86 | X-H torsion
[ 10167 10162 10161 10158 ] final  -19.14 input  -65.29 | X-H torsion
[ 10718 10713 10712 10709 ] final  -10.68 input   66.30 | X-H torsion
[ 10763 10752 10751 10750 ] final  100.32 input  -60.55 | X-H torsion
[ 11005 11000 10999 10996 ] final  -89.12 input  -57.11 | X-H torsion

> <Gold.Protein.ActiveResidues>
 VAL166  LYS551  ARG553  GLY616  TRP617  ASP618  TYR619  PRO620  LYS621  CYS622 
 ASP623  PHE694  ASN695  SER759  ASP760  ASP761  ALA762  ILE779  LEU786  VAL792 
 PHE793  MET794  SER795  GLU796  ALA797  LYS798  CYS799  TRP800  GLU811  SER814 

> <Gold.Protein.RotatedAtoms>
  150.8207  134.7414  159.6769 H   0  0  0  0  0  0  0  0  0  0  0  0  # atno 6907 bound_to 6896
  152.4323  134.5750  159.9942 H   0  0  0  0  0  0  0  0  0  0  0  0  # atno 6908 bound_to 6896
  151.5935  133.3326  159.3068 H   0  0  0  0  0  0  0  0  0  0  0  0  # atno 6909 bound_to 6896
  146.0929  139.5569  142.9464 H   0  0  0  0  0  0  0  0  0  0  0  0  # atno 7974 bound_to 7965
  156.0694  140.3286  155.7557 H   0  0  0  0  0  0  0  0  0  0  0  0  # atno 8008 bound_to 7997
  155.5329  140.0595  157.2902 H   0  0  0  0  0  0  0  0  0  0  0  0  # atno 8009 bound_to 7997
  154.4522  140.1924  156.0503 H   0  0  0  0  0  0  0  0  0  0  0  0  # atno 8010 bound_to 7997
  140.7265  143.4847  151.0070 H   0  0  0  0  0  0  0  0  0  0  0  0  # atno 10167 bound_to 10162
  156.6700  130.5006  149.6003 H   0  0  0  0  0  0  0  0  0  0  0  0  # atno 10718 bound_to 10713
  153.3125  135.4083  155.1348 H   0  0  0  0  0  0  0  0  0  0  0  0  # atno 10763 bound_to 10752
  154.8580  135.3568  154.5704 H   0  0  0  0  0  0  0  0  0  0  0  0  # atno 10764 bound_to 10752
  153.6134  135.7067  153.5397 H   0  0  0  0  0  0  0  0  0  0  0  0  # atno 10765 bound_to 10752
  141.1590  133.7611  156.9549 H   0  0  0  0  0  0  0  0  0  0  0  0  # atno 11005 bound_to 11000
  145.6003  141.0356  143.2022 LP  0  0  0  0  0  0  0  0  0  0  0  0  # atno 17320 bound_to 7965
  144.7374  139.7547  143.7324 LP  0  0  0  0  0  0  0  0  0  0  0  0  # atno 17321 bound_to 7965
  139.8548  143.7391  152.3176 LP  0  0  0  0  0  0  0  0  0  0  0  0  # atno 17342 bound_to 10162
  139.7586  144.7513  151.0398 LP  0  0  0  0  0  0  0  0  0  0  0  0  # atno 17343 bound_to 10162
  156.1945  130.6581  151.1099 LP  0  0  0  0  0  0  0  0  0  0  0  0  # atno 17370 bound_to 10713
  157.7080  131.0747  150.6600 LP  0  0  0  0  0  0  0  0  0  0  0  0  # atno 17371 bound_to 10713
  140.1232  134.9404  157.2233 LP  0  0  0  0  0  0  0  0  0  0  0  0  # atno 17394 bound_to 11000
  140.3046  134.3093  155.7281 LP  0  0  0  0  0  0  0  0  0  0  0  0  # atno 17395 bound_to 11000

$$$$
