AV-unprocessed.smi:1208|AV-procd|sdf|5062|dock4
  -GOLD-   22720 4103D 1   1.00000     0.00000
 Structure written by MMmdl.
 35 36  0  0  0  0  0  0  0  0  2 V2000
  153.0554  142.5412  162.8763 C   0  0  0  0  0  0  0  0  0  0  0  0
  153.2780  142.3393  161.3706 C   0  0  1  0  0  0  0  0  0  0  0  0
  153.4413  140.9124  161.1033 N   0  0  0  0  0  0  0  0  0  0  0  0
  154.5308  140.3279  160.5811 C   0  0  0  0  0  0  0  0  0  0  0  0
  155.5774  140.9295  160.3379 O   0  0  0  0  0  0  0  0  0  0  0  0
  154.4136  138.8292  160.2847 C   0  0  0  0  0  0  0  0  0  0  0  0
  154.3270  138.0499  161.5259 N   0  0  0  0  0  0  0  0  0  0  0  0
  155.1707  138.5719  162.5987 N   0  5  0  0  0  0  0  0  0  0  0  0
  155.1020  138.0037  163.8314 C   0  0  0  0  0  0  0  0  0  0  0  0
  155.7507  138.4138  164.7910 O   0  0  0  0  0  0  0  0  0  0  0  0
  154.2243  136.8589  164.0084 C   0  0  0  0  0  0  0  0  0  0  0  0
  153.4849  136.3751  162.9909 C   0  0  0  0  0  0  0  0  0  0  0  0
  153.5049  136.9703  161.6600 C   0  0  0  0  0  0  0  0  0  0  0  0
  152.8218  136.5402  160.7308 O   0  0  0  0  0  0  0  0  0  0  0  0
  152.1089  142.9047  160.5363 C   0  0  2  0  0  0  0  0  0  0  0  0
  152.4216  143.1536  159.0581 C   0  0  0  0  0  0  0  0  0  0  0  0
  151.3823  144.1883  158.6968 C   0  0  0  0  0  0  0  0  0  0  0  0
  151.3451  145.0435  159.9598 C   0  0  0  0  0  0  0  0  0  0  0  0
  151.7050  144.1786  161.0349 O   0  0  0  0  0  0  0  0  0  0  0  0
  152.9600  143.5992  163.1213 H   0  0  0  0  0  0  0  0  0  0  0  0
  153.8921  142.1459  163.4531 H   0  0  0  0  0  0  0  0  0  0  0  0
  152.1487  142.0389  163.2152 H   0  0  0  0  0  0  0  0  0  0  0  0
  154.1892  142.8740  161.0968 H   0  0  0  0  0  0  0  0  0  0  0  0
  152.6329  140.3281  161.2614 H   0  0  0  0  0  0  0  0  0  0  0  0
  153.5391  138.6599  159.6543 H   0  0  0  0  0  0  0  0  0  0  0  0
  155.2669  138.4974  159.6896 H   0  0  0  0  0  0  0  0  0  0  0  0
  154.1667  136.3835  164.9765 H   0  0  0  0  0  0  0  0  0  0  0  0
  152.8482  135.5210  163.1677 H   0  0  0  0  0  0  0  0  0  0  0  0
  151.2476  142.2374  160.6021 H   0  0  0  0  0  0  0  0  0  0  0  0
  153.4216  143.5737  158.9397 H   0  0  0  0  0  0  0  0  0  0  0  0
  152.3554  142.2510  158.4491 H   0  0  0  0  0  0  0  0  0  0  0  0
  151.6337  144.7576  157.8015 H   0  0  0  0  0  0  0  0  0  0  0  0
  150.4166  143.7068  158.5374 H   0  0  0  0  0  0  0  0  0  0  0  0
  152.0836  145.8437  159.9007 H   0  0  0  0  0  0  0  0  0  0  0  0
  150.3672  145.4968  160.1237 H   0  0  0  0  0  0  0  0  0  0  0  0
  1  2  1  0  0  0  0
  1 20  1  0  0  0  0
  1 21  1  0  0  0  0
  1 22  1  0  0  0  0
  2  3  1  0  0  0  0
  2 15  1  0  0  0  0
  2 23  1  0  0  0  0
  3  4  1  0  0  0  0
  3 24  1  0  0  0  0
  4  5  2  0  0  0  0
  4  6  1  0  0  0  0
  6 25  1  0  0  0  0
  6 26  1  0  0  0  0
  6  7  1  0  0  0  0
  7  8  1  0  0  0  0
  7 13  1  0  0  0  0
  8  9  1  0  0  0  0
  9 10  2  0  0  0  0
  9 11  1  0  0  0  0
 11 27  1  0  0  0  0
 11 12  2  0  0  0  0
 12 28  1  0  0  0  0
 12 13  1  0  0  0  0
 13 14  2  0  0  0  0
 15 19  1  0  0  0  0
 15 16  1  0  0  0  0
 15 29  1  0  0  0  0
 16 17  1  0  0  0  0
 16 30  1  0  0  0  0
 16 31  1  0  0  0  0
 17 18  1  0  0  0  0
 17 32  1  0  0  0  0
 17 33  1  0  0  0  0
 18 19  1  0  0  0  0
 18 34  1  0  0  0  0
 18 35  1  0  0  0  0
M  CHG  1   8  -1
M  END
> <s_m_source_file>
AV-unprocessed.smi

> <i_m_source_file_index>
1208

> <i_lp_mmshare_version>
43012

> <i_f3d_flags>
0

> <s_epik_input>
TzFbQ0gyXVtDSDJdW0NIMl1bQ0BIXTFbQ0BIXShbQ0gzXSlbTkhdQyg9TylbQ0gyXW4yW25IXWMoPU8pW2NIXVtjSF1jMj1P

> <s_epik_cmdline>
J2VwaWtfcHl0aG9uJywgJy1waCcsICc3LjAnLCAnLXRuJywgJzgnLCAnLW1hJywgJzIwMCcsICctbWV0YWxfYmluZGluZycsICctaW1hZScsICc8aW5maWxlLm1hZT4nLCAnLW9tYWUnLCAnPG91dGZpbGUubWFlPic=

> <r_lp_tautomer_probability>
1

> <r_epik_Ionization_Penalty>
0.0975494

> <r_epik_Ionization_Penalty_Charging>
0.0975494

> <r_epik_Ionization_Penalty_Neutral>
2.30132e-08

> <r_epik_State_Penalty>
0.034345

> <r_epik_Charging_Adjusted_Penalty>
0.131894

> <i_epik_Tot_Q>
-1

> <i_epik_Tot_abs_Q>
1

> <r_epik_Metal_State_Penalty>
0.034345

> <b_epik_Metal_Only>
0

> <s_lp_Force_Field>
OPLS_2005

> <r_lp_Energy>
33.0818

> <b_lp_Chiralities_Consistent>
1

> <s_lp_Variant>
AV-unprocessed.smi:1208-2

> <Gold.Version>
5.8.1

> <Gold.Id.Protein>
6NUR|6NUR_protein|mol2

> <Gold.PLP.Fitness>
43.6670

> <Gold.PLP.PLP>
-42.0499

> <Gold.PLP.part.hbond>
-1.9959

> <Gold.PLP.part.metal>
0.0000

> <Gold.PLP.part.buried>
-5.2199

> <Gold.PLP.part.nonpolar>
-35.1599

> <Gold.PLP.part.repulsive>
0.1821

> <Gold.PLP.ligand.clash>
0.0000

> <Gold.PLP.ligand.torsion>
0.6590

> <Gold.PLP.Chemscore.Hbond>
0.9750

> <Gold.PLP.Chemscore.CHOScore>
0.0000

> <Gold.PLP.Chemscore.Metal>
0.0000

> <Gold.Chemscore.Hbonds>
donor molecule, donor type, donor heavy atom, donor atom, acceptor molecule, acceptor atom, score
      P1  H  6896  6907       L1    14  1.00

> <Gold.PLP.Chemscore.Internal.Correction>
0.0101

> <Gold.Rescore>
     Score         DG    S(hbond)    S(metal)    S(lipo)     H(rot)  DE(clash)    DE(int)     intcor
     14.22     -14.69       0.99        0.00      94.02       1.99       0.15       0.33       ----

> <Gold.Chemscore.Fitness>
14.2151

> <Gold.Chemscore.DG>
-14.6937

> <Gold.Chemscore.ZeroCoef>
-5.4800

> <Gold.Chemscore.Hbond>
0.9936

> <Gold.Chemscore.Metal>
0.0000

> <Gold.Chemscore.Lipo>
94.0153

> <Gold.Chemscore.Internal_Hbond>
0.0000

> <Gold.Chemscore.DEClash>
0.1493

> <Gold.Chemscore.DEInternal>
0.3293

> <Gold.Chemscore.Rot>
1.9940

> <Gold.Chemscore.Internal.Correction>
   9.000000E+99

> <Gold.Chemscore.Hbonds>
donor molecule, donor type, donor heavy atom, donor atom, acceptor molecule, acceptor atom, score
      P1  H  6896  6907       L1    14  1.00

> <Gold.Chemscore.Hbond.Weighted>
-3.3186

> <Gold.Chemscore.Metal.Weighted>
-0.0000

> <Gold.Chemscore.Lipo.Weighted>
-10.9998

> <Gold.Chemscore.Internal_Hbond.Weighted>
0.0000

> <Gold.Chemscore.DEClash.Weighted>
0.1493

> <Gold.Chemscore.DEInternal.Weighted>
0.3293

> <Gold.Chemscore.Rot.Weighted>
5.1047

> <Gold.Chemscore.Internal.Correction.Weighted>
   9.000000E+99

> <Gold.Protein.RotatedTorsions>
[ 6907 6896 6895 6894 ] final   33.71 input  -60.11 | X-H torsion
[ 7974 7965 7964 7962 ] final   29.85 input  175.53 | X-H torsion
[ 8008 7997 7996 7995 ] final  -30.49 input   59.86 | X-H torsion
[ 10167 10162 10161 10158 ] final  108.13 input  -65.29 | X-H torsion
[ 10718 10713 10712 10709 ] final  -29.09 input   66.30 | X-H torsion
[ 10763 10752 10751 10750 ] final  -12.09 input  -60.55 | X-H torsion
[ 11005 11000 10999 10996 ] final   -2.16 input  -57.11 | X-H torsion

> <Gold.Protein.ActiveResidues>
 VAL166  LYS551  ARG553  GLY616  TRP617  ASP618  TYR619  PRO620  LYS621  CYS622 
 ASP623  PHE694  ASN695  SER759  ASP760  ASP761  ALA762  ILE779  LEU786  VAL792 
 PHE793  MET794  SER795  GLU796  ALA797  LYS798  CYS799  TRP800  GLU811  SER814 

> <Gold.Protein.RotatedAtoms>
  152.0923  134.9399  160.0571 H   0  0  0  0  0  0  0  0  0  0  0  0  # atno 6907 bound_to 6896
  152.0645  133.4073  159.4440 H   0  0  0  0  0  0  0  0  0  0  0  0  # atno 6908 bound_to 6896
  150.6837  134.3082  159.4778 H   0  0  0  0  0  0  0  0  0  0  0  0  # atno 6909 bound_to 6896
  146.1647  139.6867  142.9009 H   0  0  0  0  0  0  0  0  0  0  0  0  # atno 7974 bound_to 7965
  154.4248  140.1790  156.1415 H   0  0  0  0  0  0  0  0  0  0  0  0  # atno 8008 bound_to 7997
  155.9988  140.3362  155.6800 H   0  0  0  0  0  0  0  0  0  0  0  0  # atno 8009 bound_to 7997
  155.6272  140.0666  157.2651 H   0  0  0  0  0  0  0  0  0  0  0  0  # atno 8010 bound_to 7997
  139.6871  144.7112  151.1413 H   0  0  0  0  0  0  0  0  0  0  0  0  # atno 10167 bound_to 10162
  156.4169  130.4419  149.7211 H   0  0  0  0  0  0  0  0  0  0  0  0  # atno 10718 bound_to 10713
  153.4934  135.7017  153.5872 H   0  0  0  0  0  0  0  0  0  0  0  0  # atno 10763 bound_to 10752
  153.4034  135.3866  155.2003 H   0  0  0  0  0  0  0  0  0  0  0  0  # atno 10764 bound_to 10752
  154.8715  135.3887  154.4397 H   0  0  0  0  0  0  0  0  0  0  0  0  # atno 10765 bound_to 10752
  140.6553  133.9368  155.8404 H   0  0  0  0  0  0  0  0  0  0  0  0  # atno 11005 bound_to 11000
  145.4498  141.0427  143.2811 LP  0  0  0  0  0  0  0  0  0  0  0  0  # atno 17320 bound_to 7965
  144.8076  139.6023  143.7044 LP  0  0  0  0  0  0  0  0  0  0  0  0  # atno 17321 bound_to 7965
  140.7671  143.5613  150.9096 LP  0  0  0  0  0  0  0  0  0  0  0  0  # atno 17342 bound_to 10162
  139.9288  143.6517  152.3081 LP  0  0  0  0  0  0  0  0  0  0  0  0  # atno 17343 bound_to 10162
  156.4168  130.7749  151.2764 LP  0  0  0  0  0  0  0  0  0  0  0  0  # atno 17370 bound_to 10713
  157.7508  131.0195  150.3669 LP  0  0  0  0  0  0  0  0  0  0  0  0  # atno 17371 bound_to 10713
  141.0506  134.0490  157.3788 LP  0  0  0  0  0  0  0  0  0  0  0  0  # atno 17394 bound_to 11000
  139.9032  135.0171  156.7364 LP  0  0  0  0  0  0  0  0  0  0  0  0  # atno 17395 bound_to 11000

$$$$
