AV-unprocessed.smi:1796|AV-procd|sdf|7251|dock2
  -GOLD-   22720 8503D 1   1.00000     0.00000
 Structure written by MMmdl.
 42 43  0  0  0  0  0  0  0  0  1 V2000
  152.5019  143.8637  162.1517 C   0  0  0  0  0  0  0  0  0  0  0  0
  152.0099  144.0964  160.7208 C   0  0  0  0  0  0  0  0  0  0  0  0
  151.1438  144.9523  160.5394 O   0  0  0  0  0  0  0  0  0  0  0  0
  152.5338  143.3596  159.7120 N   0  0  0  0  0  0  0  0  0  0  0  0
  152.0675  143.4633  158.3233 C   0  0  0  0  0  0  0  0  0  0  0  0
  151.3275  142.1664  157.9455 C   0  0  0  0  0  0  0  0  0  0  0  0
  152.2187  140.9307  158.1764 C   0  0  0  0  0  0  0  0  0  0  0  0
  152.8252  140.9294  159.5977 C   0  0  1  0  0  0  0  0  0  0  0  0
  153.8076  139.7693  159.7921 C   0  0  0  0  0  0  0  0  0  0  0  0
  154.8823  139.7610  159.1915 O   0  0  0  0  0  0  0  0  0  0  0  0
  153.4400  138.8212  160.6688 N   0  0  0  0  0  0  0  0  0  0  0  0
  154.2871  137.7311  161.1510 C   0  0  2  0  0  0  0  0  0  0  0  0
  153.8462  136.4166  160.4932 C   0  0  0  0  0  0  0  0  0  0  0  0
  154.2172  137.6483  162.6905 C   0  0  0  0  0  0  0  0  0  0  0  0
  154.4625  136.3056  163.1892 N   0  0  0  0  0  0  0  0  0  0  0  0
  153.8100  135.6381  164.2050 C   0  0  0  0  0  0  0  0  0  0  0  0
  154.4060  134.4171  164.3374 C   0  0  0  0  0  0  0  0  0  0  0  0
  155.4218  134.4280  163.3408 C   0  0  0  0  0  0  0  0  0  0  0  0
  155.4517  135.5588  162.6537 N   0  0  0  0  0  0  0  0  0  0  0  0
  153.5185  142.2826  159.8739 C   0  0  0  0  0  0  0  0  0  0  0  0
  152.3424  142.8282  162.4537 H   0  0  0  0  0  0  0  0  0  0  0  0
  151.9611  144.5013  162.8521 H   0  0  0  0  0  0  0  0  0  0  0  0
  153.5630  144.0993  162.2389 H   0  0  0  0  0  0  0  0  0  0  0  0
  151.4157  144.3224  158.1589 H   0  0  0  0  0  0  0  0  0  0  0  0
  152.9249  143.6112  157.6653 H   0  0  0  0  0  0  0  0  0  0  0  0
  150.4208  142.0787  158.5454 H   0  0  0  0  0  0  0  0  0  0  0  0
  151.0068  142.2062  156.9042 H   0  0  0  0  0  0  0  0  0  0  0  0
  151.6397  140.0215  158.0098 H   0  0  0  0  0  0  0  0  0  0  0  0
  153.0166  140.9284  157.4320 H   0  0  0  0  0  0  0  0  0  0  0  0
  152.0110  140.8137  160.3161 H   0  0  0  0  0  0  0  0  0  0  0  0
  152.5310  138.9093  161.0992 H   0  0  0  0  0  0  0  0  0  0  0  0
  155.3258  137.9039  160.8640 H   0  0  0  0  0  0  0  0  0  0  0  0
  154.4735  135.5865  160.8197 H   0  0  0  0  0  0  0  0  0  0  0  0
  153.9203  136.4766  159.4069 H   0  0  0  0  0  0  0  0  0  0  0  0
  152.8136  136.1721  160.7447 H   0  0  0  0  0  0  0  0  0  0  0  0
  154.9461  138.3229  163.1420 H   0  0  0  0  0  0  0  0  0  0  0  0
  153.2357  137.9703  163.0419 H   0  0  0  0  0  0  0  0  0  0  0  0
  152.9928  136.0871  164.7501 H   0  0  0  0  0  0  0  0  0  0  0  0
  154.1561  133.6363  165.0403 H   0  0  0  0  0  0  0  0  0  0  0  0
  156.1339  133.6530  163.0985 H   0  0  0  0  0  0  0  0  0  0  0  0
  154.3330  142.4455  159.1659 H   0  0  0  0  0  0  0  0  0  0  0  0
  153.9925  142.2727  160.8548 H   0  0  0  0  0  0  0  0  0  0  0  0
  1  2  1  0  0  0  0
  1 21  1  0  0  0  0
  1 22  1  0  0  0  0
  1 23  1  0  0  0  0
  2  3  2  0  0  0  0
  2  4  1  0  0  0  0
  4 20  1  0  0  0  0
  4  5  1  0  0  0  0
  5  6  1  0  0  0  0
  5 24  1  0  0  0  0
  5 25  1  0  0  0  0
  6  7  1  0  0  0  0
  6 26  1  0  0  0  0
  6 27  1  0  0  0  0
  7  8  1  0  0  0  0
  7 28  1  0  0  0  0
  7 29  1  0  0  0  0
  8  9  1  0  0  0  0
  8 20  1  0  0  0  0
  8 30  1  0  0  0  0
  9 10  2  0  0  0  0
  9 11  1  0  0  0  0
 11 12  1  0  0  0  0
 11 31  1  0  0  0  0
 12 13  1  0  0  0  0
 12 14  1  0  0  0  0
 12 32  1  0  0  0  0
 13 33  1  0  0  0  0
 13 34  1  0  0  0  0
 13 35  1  0  0  0  0
 14 15  1  0  0  0  0
 14 36  1  0  0  0  0
 14 37  1  0  0  0  0
 15 19  1  0  0  0  0
 15 16  1  0  0  0  0
 16 17  2  0  0  0  0
 16 38  1  0  0  0  0
 17 18  1  0  0  0  0
 17 39  1  0  0  0  0
 18 19  2  0  0  0  0
 18 40  1  0  0  0  0
 20 41  1  0  0  0  0
 20 42  1  0  0  0  0
M  END
> <s_m_source_file>
AV-unprocessed.smi

> <i_m_source_file_index>
1796

> <i_lp_mmshare_version>
43012

> <i_f3d_flags>
0

> <s_epik_input>
W0NIM11DKD1PKU4xW0NIMl1bQ0gyXVtDSDJdW0NASF0oW0NIMl0xKUMoPU8pW05IXVtDQEhdKFtDSDNdKVtDSDJdbjJbY0hdW2NIXVtjSF1uMg==

> <s_epik_cmdline>
J2VwaWtfcHl0aG9uJywgJy1waCcsICc3LjAnLCAnLXRuJywgJzgnLCAnLW1hJywgJzIwMCcsICctbWV0YWxfYmluZGluZycsICctaW1hZScsICc8aW5maWxlLm1hZT4nLCAnLW9tYWUnLCAnPG91dGZpbGUubWFlPic=

> <r_lp_tautomer_probability>
1

> <r_epik_Ionization_Penalty>
0.000315051

> <r_epik_Ionization_Penalty_Charging>
0

> <r_epik_Ionization_Penalty_Neutral>
0.000315051

> <r_epik_State_Penalty>
-0

> <r_epik_Charging_Adjusted_Penalty>
0

> <i_epik_Tot_Q>
0

> <i_epik_Tot_abs_Q>
0

> <r_epik_Metal_State_Penalty>
-0

> <b_epik_Metal_Only>
0

> <s_lp_Force_Field>
OPLS_2005

> <r_lp_Energy>
23.171

> <b_lp_Chiralities_Consistent>
1

> <s_lp_Variant>
AV-unprocessed.smi:1796-1

> <Gold.Version>
5.8.1

> <Gold.Id.Protein>
6NUR|6NUR_protein|mol2

> <Gold.PLP.Fitness>
43.6234

> <Gold.PLP.PLP>
-42.2382

> <Gold.PLP.part.hbond>
-1.0000

> <Gold.PLP.part.metal>
0.0000

> <Gold.PLP.part.buried>
-4.6636

> <Gold.PLP.part.nonpolar>
-37.5899

> <Gold.PLP.part.repulsive>
0.2330

> <Gold.PLP.ligand.clash>
0.0000

> <Gold.PLP.ligand.torsion>
0.8248

> <Gold.PLP.Chemscore.Hbond>
1.0000

> <Gold.PLP.Chemscore.CHOScore>
0.0000

> <Gold.PLP.Chemscore.Metal>
0.0000

> <Gold.Chemscore.Hbonds>
donor molecule, donor type, donor heavy atom, donor atom, acceptor molecule, acceptor atom, score
      P1  H  7997  8010       L1    10  1.00

> <Gold.PLP.Chemscore.Internal.Correction>
0.0347

> <Gold.Rescore>
     Score         DG    S(hbond)    S(metal)    S(lipo)     H(rot)  DE(clash)    DE(int)     intcor
     16.04     -16.59       0.99        0.00     102.38       1.63       0.13       0.41       ----

> <Gold.Chemscore.Fitness>
16.0437

> <Gold.Chemscore.DG>
-16.5877

> <Gold.Chemscore.ZeroCoef>
-5.4800

> <Gold.Chemscore.Hbond>
0.9914

> <Gold.Chemscore.Metal>
0.0000

> <Gold.Chemscore.Lipo>
102.3810

> <Gold.Chemscore.Internal_Hbond>
0.0000

> <Gold.Chemscore.DEClash>
0.1302

> <Gold.Chemscore.DEInternal>
0.4137

> <Gold.Chemscore.Rot>
1.6336

> <Gold.Chemscore.Internal.Correction>
   9.000000E+99

> <Gold.Chemscore.Hbonds>
donor molecule, donor type, donor heavy atom, donor atom, acceptor molecule, acceptor atom, score
      P1  H  7997  8010       L1    10  0.99

> <Gold.Chemscore.Hbond.Weighted>
-3.3113

> <Gold.Chemscore.Metal.Weighted>
-0.0000

> <Gold.Chemscore.Lipo.Weighted>
-11.9786

> <Gold.Chemscore.Internal_Hbond.Weighted>
0.0000

> <Gold.Chemscore.DEClash.Weighted>
0.1302

> <Gold.Chemscore.DEInternal.Weighted>
0.4137

> <Gold.Chemscore.Rot.Weighted>
4.1821

> <Gold.Chemscore.Internal.Correction.Weighted>
   9.000000E+99

> <Gold.Protein.RotatedTorsions>
[ 6907 6896 6895 6894 ] final -124.84 input  -60.11 | X-H torsion
[ 7974 7965 7964 7962 ] final  -94.43 input  175.53 | X-H torsion
[ 8008 7997 7996 7995 ] final   -5.52 input   59.86 | X-H torsion
[ 10167 10162 10161 10158 ] final -100.23 input  -65.29 | X-H torsion
[ 10718 10713 10712 10709 ] final   87.52 input   66.30 | X-H torsion
[ 10763 10752 10751 10750 ] final  -69.76 input  -60.55 | X-H torsion
[ 11005 11000 10999 10996 ] final -123.51 input  -57.11 | X-H torsion

> <Gold.Protein.ActiveResidues>
 VAL166  LYS551  ARG553  GLY616  TRP617  ASP618  TYR619  PRO620  LYS621  CYS622 
 ASP623  PHE694  ASN695  SER759  ASP760  ASP761  ALA762  ILE779  LEU786  VAL792 
 PHE793  MET794  SER795  GLU796  ALA797  LYS798  CYS799  TRP800  GLU811  SER814 

> <Gold.Protein.RotatedAtoms>
  150.8807  133.7375  159.2932 H   0  0  0  0  0  0  0  0  0  0  0  0  # atno 6907 bound_to 6896
  151.4957  135.1058  159.9825 H   0  0  0  0  0  0  0  0  0  0  0  0  # atno 6908 bound_to 6896
  152.4758  133.8089  159.7048 H   0  0  0  0  0  0  0  0  0  0  0  0  # atno 6909 bound_to 6896
  145.3734  140.9508  143.2434 H   0  0  0  0  0  0  0  0  0  0  0  0  # atno 7974 bound_to 7965
  154.6030  140.2456  155.7767 H   0  0  0  0  0  0  0  0  0  0  0  0  # atno 8008 bound_to 7997
  156.2323  140.2962  156.0173 H   0  0  0  0  0  0  0  0  0  0  0  0  # atno 8009 bound_to 7997
  155.2179  140.0399  157.2934 H   0  0  0  0  0  0  0  0  0  0  0  0  # atno 8010 bound_to 7997
  140.2540  143.3452  152.0688 H   0  0  0  0  0  0  0  0  0  0  0  0  # atno 10167 bound_to 10162
  157.6941  131.0258  150.3135 H   0  0  0  0  0  0  0  0  0  0  0  0  # atno 10718 bound_to 10713
  154.4080  135.6015  153.5936 H   0  0  0  0  0  0  0  0  0  0  0  0  # atno 10763 bound_to 10752
  152.9789  135.5922  154.4104 H   0  0  0  0  0  0  0  0  0  0  0  0  # atno 10764 bound_to 10752
  154.3912  135.2842  155.2131 H   0  0  0  0  0  0  0  0  0  0  0  0  # atno 10765 bound_to 10752
  140.9913  134.0534  157.3650 H   0  0  0  0  0  0  0  0  0  0  0  0  # atno 11005 bound_to 11000
  144.8560  139.5249  143.6834 LP  0  0  0  0  0  0  0  0  0  0  0  0  # atno 17320 bound_to 7965
  146.2875  139.7045  142.9185 LP  0  0  0  0  0  0  0  0  0  0  0  0  # atno 17321 bound_to 7965
  139.5037  144.6761  151.6125 LP  0  0  0  0  0  0  0  0  0  0  0  0  # atno 17342 bound_to 10162
  140.6018  143.9596  150.6391 LP  0  0  0  0  0  0  0  0  0  0  0  0  # atno 17343 bound_to 10162
  156.3633  130.3851  149.7234 LP  0  0  0  0  0  0  0  0  0  0  0  0  # atno 17370 bound_to 10713
  156.4673  130.7980  151.2999 LP  0  0  0  0  0  0  0  0  0  0  0  0  # atno 17371 bound_to 10713
  139.8994  135.0158  156.7193 LP  0  0  0  0  0  0  0  0  0  0  0  0  # atno 17394 bound_to 11000
  140.7035  133.9286  155.8039 LP  0  0  0  0  0  0  0  0  0  0  0  0  # atno 17395 bound_to 11000

$$$$
