AV-unprocessed.smi:69|AV-procd|sdf|655|dock1
  -GOLD-   2262016553D 1   1.00000     0.00000
 Structure written by MMmdl.
 32 34  0  0  0  0  0  0  0  0  1 V2000
  153.8264  137.8144  156.3509 N   0  0  0  0  0  0  0  0  0  0  0  0
  152.8396  138.7043  156.5245 C   0  0  0  0  0  0  0  0  0  0  0  0
  153.0342  139.7182  157.4003 N   0  0  0  0  0  0  0  0  0  0  0  0
  152.0643  140.6189  157.5919 C   0  0  0  0  0  0  0  0  0  0  0  0
  150.8578  140.6829  157.0214 N   0  0  0  0  0  0  0  0  0  0  0  0
  150.6663  139.6590  156.1389 C   0  0  0  0  0  0  0  0  0  0  0  0
  151.6033  138.6339  155.8347 C   0  0  0  0  0  0  0  0  0  0  0  0
  151.0656  137.7671  154.8930 N   0  0  0  0  0  0  0  0  0  0  0  0
  149.8776  138.2569  154.6573 C   0  0  0  0  0  0  0  0  0  0  0  0
  149.5586  139.3999  155.3609 N   0  0  0  0  0  0  0  0  0  0  0  0
  148.2971  140.2095  155.3287 C   0  0  2  0  0  0  0  0  0  0  0  0
  147.2301  139.3267  155.5129 O   0  0  0  0  0  0  0  0  0  0  0  0
  146.3283  139.3725  154.4072 C   0  0  2  0  0  0  0  0  0  0  0  0
  145.6799  137.9983  154.1637 C   0  0  0  0  0  0  0  0  0  0  0  0
  144.7931  138.0682  153.0679 O   0  0  0  0  0  0  0  0  0  0  0  0
  147.1591  139.9307  153.2430 C   0  0  2  0  0  0  0  0  0  0  0  0
  147.8593  138.9031  152.5610 O   0  0  0  0  0  0  0  0  0  0  0  0
  148.0891  140.8955  153.9652 C   0  0  2  0  0  0  0  0  0  0  0  0
  149.2690  141.1854  153.2361 O   0  0  0  0  0  0  0  0  0  0  0  0
  148.3872  140.9046  156.1645 H   0  0  0  0  0  0  0  0  0  0  0  0
  145.5579  140.1097  154.6421 H   0  0  0  0  0  0  0  0  0  0  0  0
  146.5320  140.4473  152.5157 H   0  0  0  0  0  0  0  0  0  0  0  0
  147.5542  141.8278  154.1501 H   0  0  0  0  0  0  0  0  0  0  0  0
  153.7048  137.0496  155.7028 H   0  0  0  0  0  0  0  0  0  0  0  0
  154.6879  137.9091  156.8689 H   0  0  0  0  0  0  0  0  0  0  0  0
  152.2868  141.4001  158.3037 H   0  0  0  0  0  0  0  0  0  0  0  0
  149.1995  137.7922  153.9569 H   0  0  0  0  0  0  0  0  0  0  0  0
  146.4441  137.2610  153.9161 H   0  0  0  0  0  0  0  0  0  0  0  0
  145.1566  137.6408  155.0510 H   0  0  0  0  0  0  0  0  0  0  0  0
  144.6808  138.9758  152.8301 H   0  0  0  0  0  0  0  0  0  0  0  0
  148.4944  139.3053  151.9882 H   0  0  0  0  0  0  0  0  0  0  0  0
  149.4494  140.4549  152.6638 H   0  0  0  0  0  0  0  0  0  0  0  0
  1  2  1  0  0  0  0
  1 24  1  0  0  0  0
  1 25  1  0  0  0  0
  2  7  1  0  0  0  0
  2  3  2  0  0  0  0
  3  4  1  0  0  0  0
  4  5  2  0  0  0  0
  4 26  1  0  0  0  0
  5  6  1  0  0  0  0
  6 10  1  0  0  0  0
  6  7  2  0  0  0  0
  7  8  1  0  0  0  0
  8  9  2  0  0  0  0
  9 10  1  0  0  0  0
  9 27  1  0  0  0  0
 10 11  1  0  0  0  0
 11 20  1  0  0  0  0
 11 18  1  0  0  0  0
 11 12  1  0  0  0  0
 12 13  1  0  0  0  0
 13 21  1  0  0  0  0
 13 14  1  0  0  0  0
 13 16  1  0  0  0  0
 14 15  1  0  0  0  0
 14 28  1  0  0  0  0
 14 29  1  0  0  0  0
 15 30  1  0  0  0  0
 16 22  1  0  0  0  0
 16 17  1  0  0  0  0
 16 18  1  0  0  0  0
 17 31  1  0  0  0  0
 18 23  1  0  0  0  0
 18 19  1  0  0  0  0
 19 32  1  0  0  0  0
M  END
> <s_m_source_file>
AV-unprocessed.smi

> <i_m_source_file_index>
69

> <i_lp_mmshare_version>
43012

> <i_f3d_flags>
0

> <s_epik_input>
bjFbY0hdbmMoW05IMl0pYyhjMTIpbltjSF1uMltDQEBIXTNPW0NASF0oW0NIMl1bT0hdKVtDQEBIXShbT0hdKVtDQEhdM1tPSF0=

> <s_epik_cmdline>
J2VwaWtfcHl0aG9uJywgJy1waCcsICc3LjAnLCAnLXRuJywgJzgnLCAnLW1hJywgJzIwMCcsICctbWV0YWxfYmluZGluZycsICctaW1hZScsICc8aW5maWxlLm1hZT4nLCAnLW9tYWUnLCAnPG91dGZpbGUubWFlPic=

> <r_lp_tautomer_probability>
1

> <r_epik_Ionization_Penalty>
0.000428445

> <r_epik_Ionization_Penalty_Charging>
0

> <r_epik_Ionization_Penalty_Neutral>
0.000428445

> <r_epik_State_Penalty>
-0

> <r_epik_Charging_Adjusted_Penalty>
0

> <i_epik_Tot_Q>
0

> <i_epik_Tot_abs_Q>
0

> <r_epik_Metal_State_Penalty>
-0

> <b_epik_Metal_Only>
0

> <s_epik_Chemistry_Notes>
This compound contains an acetal/aminal-like group ( X-CH(R)-Y where X, Y are N, S, or O) that may be acid/base labile, releasing an aldehyde.

> <s_lp_Force_Field>
OPLS_2005

> <r_lp_Energy>
42.2813

> <b_lp_Chiralities_Consistent>
1

> <s_lp_Variant>
AV-unprocessed.smi:69-13

> <Gold.Version>
5.8.1

> <Gold.Id.Protein>
6NUR|6NUR_protein|mol2

> <Gold.PLP.Fitness>
40.6726

> <Gold.PLP.PLP>
-23.4519

> <Gold.PLP.part.hbond>
-6.3139

> <Gold.PLP.part.metal>
0.0000

> <Gold.PLP.part.buried>
-3.2696

> <Gold.PLP.part.nonpolar>
-14.6168

> <Gold.PLP.part.repulsive>
0.6693

> <Gold.PLP.ligand.clash>
0.6360

> <Gold.PLP.ligand.torsion>
0.1140

> <Gold.PLP.Chemscore.Hbond>
4.8940

> <Gold.PLP.Chemscore.CHOScore>
1.0000

> <Gold.PLP.Chemscore.Metal>
0.0000

> <Gold.Chemscore.Hbonds>
donor molecule, donor type, donor heavy atom, donor atom, acceptor molecule, acceptor atom, score
      L1  H    15    30       P1 10175  1.00
      L1  H    17    31       P1  7957  1.00
      L1  H    19    32       P1  7957  0.86
      P1  H  7997  8008       L1     3  0.80
      P1  H  8011  8017       L1    19  1.00
      L1  C     9    27       P1  7948  0.82

> <Gold.PLP.Chemscore.Internal.Correction>
0.4028

> <Gold.Rescore>
     Score         DG    S(hbond)    S(metal)    S(lipo)     H(rot)  DE(clash)    DE(int)     intcor
      9.57     -11.49       4.02        0.00      24.92       4.03       0.70       1.23       ----

> <Gold.Chemscore.Fitness>
9.5662

> <Gold.Chemscore.DG>
-11.4949

> <Gold.Chemscore.ZeroCoef>
-5.4800

> <Gold.Chemscore.Hbond>
4.0150

> <Gold.Chemscore.Metal>
0.0000

> <Gold.Chemscore.Lipo>
24.9211

> <Gold.Chemscore.Internal_Hbond>
0.0000

> <Gold.Chemscore.DEClash>
0.6950

> <Gold.Chemscore.DEInternal>
1.2337

> <Gold.Chemscore.Rot>
4.0277

> <Gold.Chemscore.Internal.Correction>
   9.000000E+99

> <Gold.Chemscore.Hbonds>
donor molecule, donor type, donor heavy atom, donor atom, acceptor molecule, acceptor atom, score
      L1  H    15    30       P1 10175  0.97
      L1  H    17    31       P1  7957  0.95
      L1  H    19    32       P1  7957  0.82
      P1  H  7997  8008       L1     3  0.11
      P1  H  8011  8017       L1    19  0.25

> <Gold.Chemscore.Hbond.Weighted>
-13.4102

> <Gold.Chemscore.Metal.Weighted>
-0.0000

> <Gold.Chemscore.Lipo.Weighted>
-2.9158

> <Gold.Chemscore.Internal_Hbond.Weighted>
0.0000

> <Gold.Chemscore.DEClash.Weighted>
0.6950

> <Gold.Chemscore.DEInternal.Weighted>
1.2337

> <Gold.Chemscore.Rot.Weighted>
10.3110

> <Gold.Chemscore.Internal.Correction.Weighted>
   9.000000E+99

> <Gold.Protein.RotatedTorsions>
[ 6907 6896 6895 6894 ] final  -89.44 input  -60.11 | X-H torsion
[ 7974 7965 7964 7962 ] final -129.74 input  175.53 | X-H torsion
[ 8008 7997 7996 7995 ] final  -80.12 input   59.86 | X-H torsion
[ 10167 10162 10161 10158 ] final   73.62 input  -65.29 | X-H torsion
[ 10718 10713 10712 10709 ] final   61.43 input   66.30 | X-H torsion
[ 10763 10752 10751 10750 ] final   83.57 input  -60.55 | X-H torsion
[ 11005 11000 10999 10996 ] final   -0.16 input  -57.11 | X-H torsion

> <Gold.Protein.ActiveResidues>
 VAL166  LYS551  ARG553  GLY616  TRP617  ASP618  TYR619  PRO620  LYS621  CYS622 
 ASP623  PHE694  ASN695  SER759  ASP760  ASP761  ALA762  ILE779  LEU786  VAL792 
 PHE793  MET794  SER795  GLU796  ALA797  LYS798  CYS799  TRP800  GLU811  SER814 

> <Gold.Protein.RotatedAtoms>
  150.6874  134.2586  159.4539 H   0  0  0  0  0  0  0  0  0  0  0  0  # atno 6907 bound_to 6896
  152.0518  134.9646  160.0584 H   0  0  0  0  0  0  0  0  0  0  0  0  # atno 6908 bound_to 6896
  152.1107  133.4265  159.4667 H   0  0  0  0  0  0  0  0  0  0  0  0  # atno 6909 bound_to 6896
  144.9543  140.7378  143.4768 H   0  0  0  0  0  0  0  0  0  0  0  0  # atno 7974 bound_to 7965
  154.5852  140.0668  156.9160 H   0  0  0  0  0  0  0  0  0  0  0  0  # atno 8008 bound_to 7997
  155.2393  140.3343  155.4276 H   0  0  0  0  0  0  0  0  0  0  0  0  # atno 8009 bound_to 7997
  156.2217  140.1802  156.7445 H   0  0  0  0  0  0  0  0  0  0  0  0  # atno 8010 bound_to 7997
  140.0225  144.5529  150.7570 H   0  0  0  0  0  0  0  0  0  0  0  0  # atno 10167 bound_to 10162
  157.5827  130.8994  149.9460 H   0  0  0  0  0  0  0  0  0  0  0  0  # atno 10718 bound_to 10713
  153.1303  135.4686  154.9338 H   0  0  0  0  0  0  0  0  0  0  0  0  # atno 10763 bound_to 10752
  154.7658  135.3144  154.8291 H   0  0  0  0  0  0  0  0  0  0  0  0  # atno 10764 bound_to 10752
  153.8835  135.6892  153.4819 H   0  0  0  0  0  0  0  0  0  0  0  0  # atno 10765 bound_to 10752
  140.6331  133.9557  155.8285 H   0  0  0  0  0  0  0  0  0  0  0  0  # atno 11005 bound_to 11000
  145.2797  139.1923  143.4798 LP  0  0  0  0  0  0  0  0  0  0  0  0  # atno 17320 bound_to 7965
  146.3332  140.2756  142.8608 LP  0  0  0  0  0  0  0  0  0  0  0  0  # atno 17321 bound_to 7965
  140.7336  143.2719  151.3860 LP  0  0  0  0  0  0  0  0  0  0  0  0  # atno 17342 bound_to 10162
  139.6130  144.1060  152.2318 LP  0  0  0  0  0  0  0  0  0  0  0  0  # atno 17343 bound_to 10162
  156.0874  130.3666  150.0460 LP  0  0  0  0  0  0  0  0  0  0  0  0  # atno 17370 bound_to 10713
  156.8597  130.9487  151.3619 LP  0  0  0  0  0  0  0  0  0  0  0  0  # atno 17371 bound_to 10713
  141.0661  134.0275  157.3592 LP  0  0  0  0  0  0  0  0  0  0  0  0  # atno 17394 bound_to 11000
  139.9108  135.0189  156.7684 LP  0  0  0  0  0  0  0  0  0  0  0  0  # atno 17395 bound_to 11000

$$$$
