AV-unprocessed.smi:258|AV-procd|sdf|1972|dock8
  -GOLD-   2262021133D 1   1.00000     0.00000
 Structure written by MMmdl.
 57 60  0  0  0  0  0  0  0  0  1 V2000
  156.1653  140.4089  161.7096 O   0  0  0  0  0  0  0  0  0  0  0  0
  154.8584  140.3067  162.2342 C   0  0  0  0  0  0  0  0  0  0  0  0
  153.9663  141.4135  161.6578 C   0  0  0  0  0  0  0  0  0  0  0  0
  153.8749  141.2504  160.2495 O   0  0  0  0  0  0  0  0  0  0  0  0
  152.6347  141.6584  159.6862 C   0  0  1  0  0  0  0  0  0  0  0  0
  152.6093  143.1831  159.4556 C   0  0  0  0  0  0  0  0  0  0  0  0
  151.3359  143.5884  158.6984 C   0  0  0  0  0  0  0  0  0  0  0  0
  151.1986  142.7978  157.3879 C   0  0  0  0  0  0  0  0  0  0  0  0
  151.2700  141.3576  157.6399 N   0  0  0  0  0  0  0  0  0  0  0  0
  150.8649  140.5259  156.6469 C   0  0  0  0  0  0  0  0  0  0  0  0
  150.5740  141.0269  155.4159 N   0  0  0  0  0  0  0  0  0  0  0  0
  150.1873  140.2131  154.4289 C   0  0  0  0  0  0  0  0  0  0  0  0
  150.0240  138.8891  154.4546 N   0  0  0  0  0  0  0  0  0  0  0  0
  150.3040  138.3823  155.6892 C   0  0  0  0  0  0  0  0  0  0  0  0
  150.7279  139.1207  156.8299 C   0  0  0  0  0  0  0  0  0  0  0  0
  150.9065  138.2615  157.9086 N   0  0  0  0  0  0  0  0  0  0  0  0
  150.6139  137.0826  157.4300 C   0  0  0  0  0  0  0  0  0  0  0  0
  150.2419  137.0652  156.1054 N   0  0  0  0  0  0  0  0  0  0  0  0
  149.8712  135.9054  155.3169 C   0  0  0  0  0  0  0  0  0  0  0  0
  148.5239  135.2955  155.7812 C   0  0  1  0  0  0  0  0  0  0  0  0
  147.3400  136.2466  155.4870 C   0  0  0  0  0  0  0  0  0  0  0  0
  147.4092  136.7282  154.1613 O   0  0  0  0  0  0  0  0  0  0  0  0
  148.3349  133.8657  155.2125 C   0  0  1  0  0  0  0  0  0  0  0  0
  147.9177  133.7860  153.7433 C   0  0  0  0  0  0  0  0  0  0  0  0
  148.8180  132.6972  153.1556 C   0  0  0  0  0  0  0  0  0  0  0  0
  149.2901  131.9777  154.2837 O   0  0  0  0  0  0  0  0  0  0  0  0
  149.5503  132.9351  155.2959 C   0  0  0  0  0  0  0  0  0  0  0  0
  152.4692  140.9126  158.3495 C   0  0  0  0  0  0  0  0  0  0  0  0
  156.6868  140.9299  162.3009 H   0  0  0  0  0  0  0  0  0  0  0  0
  154.4427  139.3179  162.0375 H   0  0  0  0  0  0  0  0  0  0  0  0
  154.9299  140.4177  163.3163 H   0  0  0  0  0  0  0  0  0  0  0  0
  152.9657  141.3173  162.0814 H   0  0  0  0  0  0  0  0  0  0  0  0
  154.3412  142.3986  161.9370 H   0  0  0  0  0  0  0  0  0  0  0  0
  151.8116  141.3684  160.3425 H   0  0  0  0  0  0  0  0  0  0  0  0
  152.6560  143.7222  160.4013 H   0  0  0  0  0  0  0  0  0  0  0  0
  153.4867  143.4829  158.8812 H   0  0  0  0  0  0  0  0  0  0  0  0
  150.4641  143.4043  159.3277 H   0  0  0  0  0  0  0  0  0  0  0  0
  151.3477  144.6584  158.4891 H   0  0  0  0  0  0  0  0  0  0  0  0
  150.2500  143.0486  156.9110 H   0  0  0  0  0  0  0  0  0  0  0  0
  151.9934  143.0833  156.6971 H   0  0  0  0  0  0  0  0  0  0  0  0
  149.9790  140.6916  153.4833 H   0  0  0  0  0  0  0  0  0  0  0  0
  150.6633  136.1877  158.0331 H   0  0  0  0  0  0  0  0  0  0  0  0
  149.8346  136.1991  154.2670 H   0  0  0  0  0  0  0  0  0  0  0  0
  150.6835  135.1810  155.3887 H   0  0  0  0  0  0  0  0  0  0  0  0
  148.5630  135.1676  156.8649 H   0  0  0  0  0  0  0  0  0  0  0  0
  146.3829  135.7433  155.6250 H   0  0  0  0  0  0  0  0  0  0  0  0
  147.3443  137.1084  156.1529 H   0  0  0  0  0  0  0  0  0  0  0  0
  148.0819  136.2488  153.7018 H   0  0  0  0  0  0  0  0  0  0  0  0
  147.5308  133.3891  155.7765 H   0  0  0  0  0  0  0  0  0  0  0  0
  146.8680  133.4986  153.6709 H   0  0  0  0  0  0  0  0  0  0  0  0
  148.0310  134.7245  153.2012 H   0  0  0  0  0  0  0  0  0  0  0  0
  148.2915  132.0466  152.4570 H   0  0  0  0  0  0  0  0  0  0  0  0
  149.6671  133.1420  152.6344 H   0  0  0  0  0  0  0  0  0  0  0  0
  150.4844  133.4461  155.0627 H   0  0  0  0  0  0  0  0  0  0  0  0
  149.6533  132.4637  156.2734 H   0  0  0  0  0  0  0  0  0  0  0  0
  153.3361  141.0958  157.7131 H   0  0  0  0  0  0  0  0  0  0  0  0
  152.4437  139.8395  158.5377 H   0  0  0  0  0  0  0  0  0  0  0  0
  1  2  1  0  0  0  0
  1 29  1  0  0  0  0
  2  3  1  0  0  0  0
  2 30  1  0  0  0  0
  2 31  1  0  0  0  0
  3  4  1  0  0  0  0
  3 32  1  0  0  0  0
  3 33  1  0  0  0  0
  4  5  1  0  0  0  0
  5 28  1  0  0  0  0
  5  6  1  0  0  0  0
  5 34  1  0  0  0  0
  6  7  1  0  0  0  0
  6 35  1  0  0  0  0
  6 36  1  0  0  0  0
  7  8  1  0  0  0  0
  7 37  1  0  0  0  0
  7 38  1  0  0  0  0
  8  9  1  0  0  0  0
  8 39  1  0  0  0  0
  8 40  1  0  0  0  0
  9 10  1  0  0  0  0
  9 28  1  0  0  0  0
 10 15  1  0  0  0  0
 10 11  2  0  0  0  0
 11 12  1  0  0  0  0
 12 13  2  0  0  0  0
 12 41  1  0  0  0  0
 13 14  1  0  0  0  0
 14 18  1  0  0  0  0
 14 15  2  0  0  0  0
 15 16  1  0  0  0  0
 16 17  2  0  0  0  0
 17 18  1  0  0  0  0
 17 42  1  0  0  0  0
 18 19  1  0  0  0  0
 19 20  1  0  0  0  0
 19 43  1  0  0  0  0
 19 44  1  0  0  0  0
 20 21  1  0  0  0  0
 20 23  1  0  0  0  0
 20 45  1  0  0  0  0
 21 22  1  0  0  0  0
 21 46  1  0  0  0  0
 21 47  1  0  0  0  0
 22 48  1  0  0  0  0
 23 27  1  0  0  0  0
 23 24  1  0  0  0  0
 23 49  1  0  0  0  0
 24 25  1  0  0  0  0
 24 50  1  0  0  0  0
 24 51  1  0  0  0  0
 25 26  1  0  0  0  0
 25 52  1  0  0  0  0
 25 53  1  0  0  0  0
 26 27  1  0  0  0  0
 27 54  1  0  0  0  0
 27 55  1  0  0  0  0
 28 56  1  0  0  0  0
 28 57  1  0  0  0  0
M  END
> <s_m_source_file>
AV-unprocessed.smi

> <i_m_source_file_index>
258

> <i_lp_mmshare_version>
43012

> <i_f3d_flags>
0

> <s_epik_input>
W09IXVtDSDJdW0NIMl1PW0NAQEhdMVtDSDJdW0NIMl1bQ0gyXU4oW0NIMl0xKWMobltjSF1uMiljKGMyMyluW2NIXW4zW0NIMl1bQ0BIXShbQ0gyXVtPSF0pW0NAQEhdNFtDSDJdW0NIMl1PW0NIMl00

> <s_epik_cmdline>
J2VwaWtfcHl0aG9uJywgJy1waCcsICc3LjAnLCAnLXRuJywgJzgnLCAnLW1hJywgJzIwMCcsICctbWV0YWxfYmluZGluZycsICctaW1hZScsICc8aW5maWxlLm1hZT4nLCAnLW9tYWUnLCAnPG91dGZpbGUubWFlPic=

> <r_lp_tautomer_probability>
1

> <r_epik_Ionization_Penalty>
0.00349036

> <r_epik_Ionization_Penalty_Charging>
0

> <r_epik_Ionization_Penalty_Neutral>
0.00349036

> <r_epik_State_Penalty>
0.00229798

> <r_epik_Charging_Adjusted_Penalty>
0.00229798

> <i_epik_Tot_Q>
0

> <i_epik_Tot_abs_Q>
0

> <r_epik_Metal_State_Penalty>
-0

> <b_epik_Metal_Only>
0

> <s_lp_Force_Field>
OPLS_2005

> <r_lp_Energy>
51.0481

> <b_lp_Chiralities_Consistent>
1

> <s_lp_Variant>
AV-unprocessed.smi:258-8

> <Gold.Version>
5.8.1

> <Gold.Id.Protein>
6NUR|6NUR_protein|mol2

> <Gold.PLP.Fitness>
42.7240

> <Gold.PLP.PLP>
-39.0330

> <Gold.PLP.part.hbond>
-3.0000

> <Gold.PLP.part.metal>
0.0000

> <Gold.PLP.part.buried>
-3.1174

> <Gold.PLP.part.nonpolar>
-32.5015

> <Gold.PLP.part.repulsive>
0.3092

> <Gold.PLP.ligand.clash>
0.0000

> <Gold.PLP.ligand.torsion>
1.0579

> <Gold.PLP.Chemscore.Hbond>
0.7360

> <Gold.PLP.Chemscore.CHOScore>
1.0000

> <Gold.PLP.Chemscore.Metal>
0.0000

> <Gold.Chemscore.Hbonds>
donor molecule, donor type, donor heavy atom, donor atom, acceptor molecule, acceptor atom, score
      L1  H    22    48       P1  7948  0.78
      L1  C    12    41       P1  7957  1.00

> <Gold.PLP.Chemscore.Internal.Correction>
0.5989

> <Gold.Rescore>
     Score         DG    S(hbond)    S(metal)    S(lipo)     H(rot)  DE(clash)    DE(int)     intcor
      6.47      -8.90       0.82        0.00      98.25       4.22       1.37       1.06       ----

> <Gold.Chemscore.Fitness>
6.4722

> <Gold.Chemscore.DG>
-8.8993

> <Gold.Chemscore.ZeroCoef>
-5.4800

> <Gold.Chemscore.Hbond>
0.8201

> <Gold.Chemscore.Metal>
0.0000

> <Gold.Chemscore.Lipo>
98.2477

> <Gold.Chemscore.Internal_Hbond>
0.0000

> <Gold.Chemscore.DEClash>
1.3710

> <Gold.Chemscore.DEInternal>
1.0560

> <Gold.Chemscore.Rot>
4.2246

> <Gold.Chemscore.Internal.Correction>
   9.000000E+99

> <Gold.Chemscore.Hbonds>
donor molecule, donor type, donor heavy atom, donor atom, acceptor molecule, acceptor atom, score
      L1  H    22    48       P1  7948  0.72

> <Gold.Chemscore.Hbond.Weighted>
-2.7391

> <Gold.Chemscore.Metal.Weighted>
-0.0000

> <Gold.Chemscore.Lipo.Weighted>
-11.4950

> <Gold.Chemscore.Internal_Hbond.Weighted>
0.0000

> <Gold.Chemscore.DEClash.Weighted>
1.3710

> <Gold.Chemscore.DEInternal.Weighted>
1.0560

> <Gold.Chemscore.Rot.Weighted>
10.8149

> <Gold.Chemscore.Internal.Correction.Weighted>
   9.000000E+99

> <Gold.Protein.RotatedTorsions>
[ 6907 6896 6895 6894 ] final  -57.11 input  -60.11 | X-H torsion
[ 7974 7965 7964 7962 ] final  133.03 input  175.53 | X-H torsion
[ 8008 7997 7996 7995 ] final   41.07 input   59.86 | X-H torsion
[ 10167 10162 10161 10158 ] final  120.20 input  -65.29 | X-H torsion
[ 10718 10713 10712 10709 ] final    7.66 input   66.30 | X-H torsion
[ 10763 10752 10751 10750 ] final  -71.18 input  -60.55 | X-H torsion
[ 11005 11000 10999 10996 ] final  125.73 input  -57.11 | X-H torsion

> <Gold.Protein.ActiveResidues>
 VAL166  LYS551  ARG553  GLY616  TRP617  ASP618  TYR619  PRO620  LYS621  CYS622 
 ASP623  PHE694  ASN695  SER759  ASP760  ASP761  ALA762  ILE779  LEU786  VAL792 
 PHE793  MET794  SER795  GLU796  ALA797  LYS798  CYS799  TRP800  GLU811  SER814 

> <Gold.Protein.RotatedAtoms>
  150.8113  134.7269  159.6689 H   0  0  0  0  0  0  0  0  0  0  0  0  # atno 6907 bound_to 6896
  152.4232  134.5913  159.9984 H   0  0  0  0  0  0  0  0  0  0  0  0  # atno 6908 bound_to 6896
  151.6122  133.3309  159.3106 H   0  0  0  0  0  0  0  0  0  0  0  0  # atno 6909 bound_to 6896
  144.9907  139.4409  143.5340 H   0  0  0  0  0  0  0  0  0  0  0  0  # atno 7974 bound_to 7965
  155.2635  140.3361  155.4271 H   0  0  0  0  0  0  0  0  0  0  0  0  # atno 8008 bound_to 7997
  156.2164  140.1791  156.7621 H   0  0  0  0  0  0  0  0  0  0  0  0  # atno 8009 bound_to 7997
  154.5760  140.0662  156.9019 H   0  0  0  0  0  0  0  0  0  0  0  0  # atno 8010 bound_to 7997
  139.5997  144.7053  151.3092 H   0  0  0  0  0  0  0  0  0  0  0  0  # atno 10167 bound_to 10162
  156.9402  130.5858  149.5652 H   0  0  0  0  0  0  0  0  0  0  0  0  # atno 10718 bound_to 10713
  154.4281  135.5970  153.6051 H   0  0  0  0  0  0  0  0  0  0  0  0  # atno 10763 bound_to 10752
  152.9797  135.5968  154.3872 H   0  0  0  0  0  0  0  0  0  0  0  0  # atno 10764 bound_to 10752
  154.3707  135.2841  155.2246 H   0  0  0  0  0  0  0  0  0  0  0  0  # atno 10765 bound_to 10752
  139.9421  134.9634  156.8602 H   0  0  0  0  0  0  0  0  0  0  0  0  # atno 11005 bound_to 11000
  146.3431  139.9237  142.8763 LP  0  0  0  0  0  0  0  0  0  0  0  0  # atno 17320 bound_to 7965
  145.2289  140.9965  143.4002 LP  0  0  0  0  0  0  0  0  0  0  0  0  # atno 17321 bound_to 7965
  140.7240  143.7056  150.7810 LP  0  0  0  0  0  0  0  0  0  0  0  0  # atno 17342 bound_to 10162
  140.0630  143.5136  152.2618 LP  0  0  0  0  0  0  0  0  0  0  0  0  # atno 17343 bound_to 10162
  156.0408  130.5490  150.8765 LP  0  0  0  0  0  0  0  0  0  0  0  0  # atno 17370 bound_to 10713
  157.5790  131.0946  150.9301 LP  0  0  0  0  0  0  0  0  0  0  0  0  # atno 17371 bound_to 10713
  140.5926  134.0247  155.7505 LP  0  0  0  0  0  0  0  0  0  0  0  0  # atno 17394 bound_to 11000
  141.1059  133.9694  157.2998 LP  0  0  0  0  0  0  0  0  0  0  0  0  # atno 17395 bound_to 11000

$$$$
