AV-unprocessed.smi:3299|AV-procd|sdf|12648|dock5
  -GOLD-   2272018583D 1   1.00000     0.00000
 Structure written by MMmdl.
 34 35  0  0  0  0  0  0  0  0  1 V2000
  153.3954  142.1197  160.8043 C   0  0  0  0  0  0  0  0  0  0  0  0
  152.5499  143.0204  159.9600 C   0  0  0  0  0  0  0  0  0  0  0  0
  152.4831  144.3909  160.0230 C   0  0  0  0  0  0  0  0  0  0  0  0
  151.3628  145.0445  158.8578 S   0  0  0  0  0  0  0  0  0  0  0  0
  151.0252  143.4061  158.3213 C   0  0  0  0  0  0  0  0  0  0  0  0
  150.0952  143.1315  157.2845 N   0  0  0  0  0  0  0  0  0  0  0  0
  149.6651  141.9337  156.8504 C   0  0  0  0  0  0  0  0  0  0  0  0
  150.0552  140.8435  157.2690 O   0  0  0  0  0  0  0  0  0  0  0  0
  148.7443  142.0709  155.8853 N   0  0  0  0  0  0  0  0  0  0  0  0
  148.0581  140.9745  155.2055 C   0  0  2  0  0  0  0  0  0  0  0  0
  149.0799  140.1505  154.3975 C   0  0  0  0  0  0  0  0  0  0  0  0
  148.6161  138.7170  154.0897 C   0  0  0  0  0  0  0  0  0  0  0  0
  147.8849  138.7006  152.8829 O   0  0  0  0  0  0  0  0  0  0  0  0
  146.9242  141.4495  154.3116 C   0  0  0  0  0  0  0  0  0  0  0  0
  146.8320  142.8855  153.8515 C   0  0  0  0  0  0  0  0  0  0  0  0
  145.8336  142.3458  154.8493 C   0  0  0  0  0  0  0  0  0  0  0  0
  151.7142  142.4701  158.9841 N   0  0  0  0  0  0  0  0  0  0  0  0
  153.9965  142.6874  161.5148 H   0  0  0  0  0  0  0  0  0  0  0  0
  154.0780  141.5314  160.1906 H   0  0  0  0  0  0  0  0  0  0  0  0
  152.7799  141.4239  161.3753 H   0  0  0  0  0  0  0  0  0  0  0  0
  153.0225  145.0537  160.6837 H   0  0  0  0  0  0  0  0  0  0  0  0
  149.6997  143.9421  156.8314 H   0  0  0  0  0  0  0  0  0  0  0  0
  148.4868  143.0061  155.6058 H   0  0  0  0  0  0  0  0  0  0  0  0
  147.6298  140.3115  155.9599 H   0  0  0  0  0  0  0  0  0  0  0  0
  149.2825  140.6608  153.4546 H   0  0  0  0  0  0  0  0  0  0  0  0
  150.0301  140.1204  154.9331 H   0  0  0  0  0  0  0  0  0  0  0  0
  149.4644  138.0393  153.9924 H   0  0  0  0  0  0  0  0  0  0  0  0
  147.9837  138.3373  154.8927 H   0  0  0  0  0  0  0  0  0  0  0  0
  148.4261  139.0637  152.1984 H   0  0  0  0  0  0  0  0  0  0  0  0
  146.5970  140.7002  153.5930 H   0  0  0  0  0  0  0  0  0  0  0  0
  147.5766  143.5883  154.2197 H   0  0  0  0  0  0  0  0  0  0  0  0
  146.4851  143.0640  152.8357 H   0  0  0  0  0  0  0  0  0  0  0  0
  144.8191  142.1661  154.4998 H   0  0  0  0  0  0  0  0  0  0  0  0
  145.9191  142.6888  155.8787 H   0  0  0  0  0  0  0  0  0  0  0  0
  1  2  1  0  0  0  0
  1 18  1  0  0  0  0
  1 19  1  0  0  0  0
  1 20  1  0  0  0  0
  2 17  1  0  0  0  0
  2  3  2  0  0  0  0
  3  4  1  0  0  0  0
  3 21  1  0  0  0  0
  4  5  1  0  0  0  0
  5  6  1  0  0  0  0
  5 17  2  0  0  0  0
  6  7  1  0  0  0  0
  6 22  1  0  0  0  0
  7  8  2  0  0  0  0
  7  9  1  0  0  0  0
  9 10  1  0  0  0  0
  9 23  1  0  0  0  0
 10 11  1  0  0  0  0
 10 14  1  0  0  0  0
 10 24  1  0  0  0  0
 11 12  1  0  0  0  0
 11 25  1  0  0  0  0
 11 26  1  0  0  0  0
 12 13  1  0  0  0  0
 12 27  1  0  0  0  0
 12 28  1  0  0  0  0
 13 29  1  0  0  0  0
 14 16  1  0  0  0  0
 14 15  1  0  0  0  0
 14 30  1  0  0  0  0
 15 16  1  0  0  0  0
 15 31  1  0  0  0  0
 15 32  1  0  0  0  0
 16 33  1  0  0  0  0
 16 34  1  0  0  0  0
M  END
> <s_m_source_file>
AV-unprocessed.smi

> <i_m_source_file_index>
3299

> <i_lp_mmshare_version>
43012

> <i_f3d_flags>
0

> <s_epik_input>
W0NIM11jMVtjSF1zYyhuMSlbTkhdQyg9TylbTkhdW0NASF0oW0NIMl1bQ0gyXVtPSF0pW0NIXTJbQ0gyXVtDSDJdMg==

> <s_epik_cmdline>
J2VwaWtfcHl0aG9uJywgJy1waCcsICc3LjAnLCAnLXRuJywgJzgnLCAnLW1hJywgJzIwMCcsICctbWV0YWxfYmluZGluZycsICctaW1hZScsICc8aW5maWxlLm1hZT4nLCAnLW9tYWUnLCAnPG91dGZpbGUubWFlPic=

> <r_lp_tautomer_probability>
0.999

> <r_epik_Ionization_Penalty>
0.000568872

> <r_epik_Ionization_Penalty_Charging>
0

> <r_epik_Ionization_Penalty_Neutral>
0.000568872

> <r_epik_State_Penalty>
0.000177984

> <r_epik_Charging_Adjusted_Penalty>
0.000177984

> <i_epik_Tot_Q>
0

> <i_epik_Tot_abs_Q>
0

> <r_epik_Metal_State_Penalty>
-0

> <b_epik_Metal_Only>
0

> <s_lp_Force_Field>
OPLS_2005

> <r_lp_Energy>
12.8181

> <b_lp_Chiralities_Consistent>
1

> <s_lp_Variant>
AV-unprocessed.smi:3299-1

> <Gold.Version>
5.8.1

> <Gold.Id.Protein>
6NUR|6NUR_protein|mol2

> <Gold.PLP.Fitness>
45.2232

> <Gold.PLP.PLP>
-37.3104

> <Gold.PLP.part.hbond>
-4.0000

> <Gold.PLP.part.metal>
0.0000

> <Gold.PLP.part.buried>
-4.7048

> <Gold.PLP.part.nonpolar>
-28.1794

> <Gold.PLP.part.repulsive>
0.1265

> <Gold.PLP.ligand.clash>
0.0000

> <Gold.PLP.ligand.torsion>
1.0350

> <Gold.PLP.Chemscore.Hbond>
2.9600

> <Gold.PLP.Chemscore.CHOScore>
0.0000

> <Gold.PLP.Chemscore.Metal>
0.0000

> <Gold.Chemscore.Hbonds>
donor molecule, donor type, donor heavy atom, donor atom, acceptor molecule, acceptor atom, score
      L1  H     6    22       P1  8028  1.00
      L1  H     9    23       P1  8028  0.96
      L1  H    13    29       P1  7957  1.00

> <Gold.PLP.Chemscore.Internal.Correction>
1.1029

> <Gold.Rescore>
     Score         DG    S(hbond)    S(metal)    S(lipo)     H(rot)  DE(clash)    DE(int)     intcor
     16.48     -18.82       2.91        0.00      83.17       2.39       0.02       2.32       ----

> <Gold.Chemscore.Fitness>
16.4790

> <Gold.Chemscore.DG>
-18.8185

> <Gold.Chemscore.ZeroCoef>
-5.4800

> <Gold.Chemscore.Hbond>
2.9134

> <Gold.Chemscore.Metal>
0.0000

> <Gold.Chemscore.Lipo>
83.1672

> <Gold.Chemscore.Internal_Hbond>
0.0000

> <Gold.Chemscore.DEClash>
0.0178

> <Gold.Chemscore.DEInternal>
2.3218

> <Gold.Chemscore.Rot>
2.3917

> <Gold.Chemscore.Internal.Correction>
   9.000000E+99

> <Gold.Chemscore.Hbonds>
donor molecule, donor type, donor heavy atom, donor atom, acceptor molecule, acceptor atom, score
      L1  H     6    22       P1  8028  0.92
      L1  H     9    23       P1  8028  0.92
      L1  H    13    29       P1  7957  1.00

> <Gold.Chemscore.Hbond.Weighted>
-9.7307

> <Gold.Chemscore.Metal.Weighted>
-0.0000

> <Gold.Chemscore.Lipo.Weighted>
-9.7306

> <Gold.Chemscore.Internal_Hbond.Weighted>
0.0000

> <Gold.Chemscore.DEClash.Weighted>
0.0178

> <Gold.Chemscore.DEInternal.Weighted>
2.3218

> <Gold.Chemscore.Rot.Weighted>
6.1228

> <Gold.Chemscore.Internal.Correction.Weighted>
   9.000000E+99

> <Gold.Protein.RotatedTorsions>
[ 6907 6896 6895 6894 ] final  -38.33 input  -60.11 | X-H torsion
[ 7974 7965 7964 7962 ] final -155.35 input  175.53 | X-H torsion
[ 8008 7997 7996 7995 ] final  -47.82 input   59.86 | X-H torsion
[ 10167 10162 10161 10158 ] final  -41.31 input  -65.29 | X-H torsion
[ 10718 10713 10712 10709 ] final  122.40 input   66.30 | X-H torsion
[ 10763 10752 10751 10750 ] final  157.70 input  -60.55 | X-H torsion
[ 11005 11000 10999 10996 ] final  -29.86 input  -57.11 | X-H torsion

> <Gold.Protein.ActiveResidues>
 VAL166  LYS551  ARG553  GLY616  TRP617  ASP618  TYR619  PRO620  LYS621  CYS622 
 ASP623  PHE694  ASN695  SER759  ASP760  ASP761  ALA762  ILE779  LEU786  VAL792 
 PHE793  MET794  SER795  GLU796  ALA797  LYS798  CYS799  TRP800  GLU811  SER814 

> <Gold.Protein.RotatedAtoms>
  151.0038  134.9343  159.7968 H   0  0  0  0  0  0  0  0  0  0  0  0  # atno 6907 bound_to 6896
  152.5285  134.3119  159.9127 H   0  0  0  0  0  0  0  0  0  0  0  0  # atno 6908 bound_to 6896
  151.3125  133.4033  159.2682 H   0  0  0  0  0  0  0  0  0  0  0  0  # atno 6909 bound_to 6896
  144.7644  140.4262  143.5952 H   0  0  0  0  0  0  0  0  0  0  0  0  # atno 7974 bound_to 7965
  154.4021  140.1337  156.4238 H   0  0  0  0  0  0  0  0  0  0  0  0  # atno 8008 bound_to 7997
  155.7617  140.3486  155.5181 H   0  0  0  0  0  0  0  0  0  0  0  0  # atno 8009 bound_to 7997
  155.8853  140.0994  157.1447 H   0  0  0  0  0  0  0  0  0  0  0  0  # atno 8010 bound_to 7997
  140.7007  143.3102  151.3048 H   0  0  0  0  0  0  0  0  0  0  0  0  # atno 10167 bound_to 10162
  157.5745  131.1080  150.8305 H   0  0  0  0  0  0  0  0  0  0  0  0  # atno 10718 bound_to 10713
  154.2044  135.2789  155.2980 H   0  0  0  0  0  0  0  0  0  0  0  0  # atno 10763 bound_to 10752
  154.5828  135.5584  153.7205 H   0  0  0  0  0  0  0  0  0  0  0  0  # atno 10764 bound_to 10752
  153.0079  135.6349  154.2183 H   0  0  0  0  0  0  0  0  0  0  0  0  # atno 10765 bound_to 10752
  140.9333  133.7324  156.0968 H   0  0  0  0  0  0  0  0  0  0  0  0  # atno 11005 bound_to 11000
  145.6515  139.1566  143.2859 LP  0  0  0  0  0  0  0  0  0  0  0  0  # atno 17320 bound_to 7965
  146.1739  140.6603  142.9220 LP  0  0  0  0  0  0  0  0  0  0  0  0  # atno 17321 bound_to 7965
  139.6522  144.0341  152.2634 LP  0  0  0  0  0  0  0  0  0  0  0  0  # atno 17342 bound_to 10162
  139.9881  144.6381  150.7839 LP  0  0  0  0  0  0  0  0  0  0  0  0  # atno 17343 bound_to 10162
  156.8768  130.5165  149.5293 LP  0  0  0  0  0  0  0  0  0  0  0  0  # atno 17370 bound_to 10713
  156.0789  130.5805  150.9527 LP  0  0  0  0  0  0  0  0  0  0  0  0  # atno 17371 bound_to 10713
  140.7833  134.3700  157.5482 LP  0  0  0  0  0  0  0  0  0  0  0  0  # atno 17394 bound_to 11000
  139.8801  134.9095  156.2993 LP  0  0  0  0  0  0  0  0  0  0  0  0  # atno 17395 bound_to 11000

$$$$
