AV-unprocessed.smi:895|AV-procd|sdf|4073|dock3
  -GOLD-   22720 1563D 1   1.00000     0.00000
 Structure written by MMmdl.
 44 45  0  0  0  0  0  0  0  0  1 V2000
  147.3422  144.3988  160.9971 C   0  0  0  0  0  0  0  0  0  0  0  0
  146.0345  144.2592  160.1993 C   0  0  0  0  0  0  0  0  0  0  0  0
  144.8290  144.1805  161.1568 C   0  0  0  0  0  0  0  0  0  0  0  0
  145.9282  145.4463  159.4388 O   0  0  0  0  0  0  0  0  0  0  0  0
  146.1394  143.0628  159.2186 C   0  0  0  0  0  0  0  0  0  0  0  0
  147.2161  143.1920  158.2405 N   0  0  0  0  0  0  0  0  0  0  0  0
  148.0643  142.2148  157.8939 C   0  0  0  0  0  0  0  0  0  0  0  0
  148.0376  141.0796  158.3682 O   0  0  0  0  0  0  0  0  0  0  0  0
  148.9402  142.6267  156.9663 N   0  0  0  0  0  0  0  0  0  0  0  0
  149.9923  141.8103  156.3604 C   0  0  2  0  0  0  0  0  0  0  0  0
  149.3328  140.5919  155.6838 C   0  0  0  0  0  0  0  0  0  0  0  0
  150.3728  139.6225  155.1035 C   0  0  0  0  0  0  0  0  0  0  0  0
  151.3619  139.1651  156.1840 C   0  0  0  0  0  0  0  0  0  0  0  0
  152.0521  140.3708  156.8372 C   0  0  0  0  0  0  0  0  0  0  0  0
  151.0270  141.3638  157.4284 C   0  0  1  0  0  0  0  0  0  0  0  0
  151.6976  142.5002  158.0498 N   0  0  0  0  0  0  0  0  0  0  0  0
  151.6025  143.8335  157.7084 C   0  0  0  0  0  0  0  0  0  0  0  0
  152.4326  144.5297  158.5392 C   0  0  0  0  0  0  0  0  0  0  0  0
  153.0048  143.5230  159.3654 C   0  0  0  0  0  0  0  0  0  0  0  0
  152.5648  142.3113  159.0705 N   0  0  0  0  0  0  0  0  0  0  0  0
  147.5111  143.5285  161.6317 H   0  0  0  0  0  0  0  0  0  0  0  0
  147.3242  145.2769  161.6440 H   0  0  0  0  0  0  0  0  0  0  0  0
  148.2039  144.4950  160.3352 H   0  0  0  0  0  0  0  0  0  0  0  0
  144.8535  143.2609  161.7424 H   0  0  0  0  0  0  0  0  0  0  0  0
  143.8789  144.2098  160.6223 H   0  0  0  0  0  0  0  0  0  0  0  0
  144.8266  145.0158  161.8579 H   0  0  0  0  0  0  0  0  0  0  0  0
  146.5693  145.4161  158.7444 H   0  0  0  0  0  0  0  0  0  0  0  0
  146.2118  142.1147  159.7555 H   0  0  0  0  0  0  0  0  0  0  0  0
  145.2200  143.0009  158.6354 H   0  0  0  0  0  0  0  0  0  0  0  0
  147.3192  144.0920  157.7954 H   0  0  0  0  0  0  0  0  0  0  0  0
  148.8729  143.5819  156.6475 H   0  0  0  0  0  0  0  0  0  0  0  0
  150.5073  142.3790  155.5836 H   0  0  0  0  0  0  0  0  0  0  0  0
  148.7133  140.0587  156.4067 H   0  0  0  0  0  0  0  0  0  0  0  0
  148.6621  140.9246  154.8907 H   0  0  0  0  0  0  0  0  0  0  0  0
  149.8719  138.7574  154.6680 H   0  0  0  0  0  0  0  0  0  0  0  0
  150.9151  140.1085  154.2915 H   0  0  0  0  0  0  0  0  0  0  0  0
  150.8361  138.5852  156.9436 H   0  0  0  0  0  0  0  0  0  0  0  0
  152.1084  138.5009  155.7475 H   0  0  0  0  0  0  0  0  0  0  0  0
  152.7294  140.0259  157.6191 H   0  0  0  0  0  0  0  0  0  0  0  0
  152.6717  140.8688  156.0904 H   0  0  0  0  0  0  0  0  0  0  0  0
  150.4886  140.8411  158.2209 H   0  0  0  0  0  0  0  0  0  0  0  0
  150.9629  144.1722  156.9067 H   0  0  0  0  0  0  0  0  0  0  0  0
  152.6081  145.5950  158.5521 H   0  0  0  0  0  0  0  0  0  0  0  0
  153.7232  143.6355  160.1638 H   0  0  0  0  0  0  0  0  0  0  0  0
  1  2  1  0  0  0  0
  1 21  1  0  0  0  0
  1 22  1  0  0  0  0
  1 23  1  0  0  0  0
  2  3  1  0  0  0  0
  2  4  1  0  0  0  0
  2  5  1  0  0  0  0
  3 24  1  0  0  0  0
  3 25  1  0  0  0  0
  3 26  1  0  0  0  0
  4 27  1  0  0  0  0
  5  6  1  0  0  0  0
  5 28  1  0  0  0  0
  5 29  1  0  0  0  0
  6  7  1  0  0  0  0
  6 30  1  0  0  0  0
  7  8  2  0  0  0  0
  7  9  1  0  0  0  0
  9 10  1  0  0  0  0
  9 31  1  0  0  0  0
 10 15  1  0  0  0  0
 10 11  1  0  0  0  0
 10 32  1  0  0  0  0
 11 12  1  0  0  0  0
 11 33  1  0  0  0  0
 11 34  1  0  0  0  0
 12 13  1  0  0  0  0
 12 35  1  0  0  0  0
 12 36  1  0  0  0  0
 13 14  1  0  0  0  0
 13 37  1  0  0  0  0
 13 38  1  0  0  0  0
 14 15  1  0  0  0  0
 14 39  1  0  0  0  0
 14 40  1  0  0  0  0
 15 16  1  0  0  0  0
 15 41  1  0  0  0  0
 16 20  1  0  0  0  0
 16 17  1  0  0  0  0
 17 18  2  0  0  0  0
 17 42  1  0  0  0  0
 18 19  1  0  0  0  0
 18 43  1  0  0  0  0
 19 20  2  0  0  0  0
 19 44  1  0  0  0  0
M  END
> <s_m_source_file>
AV-unprocessed.smi

> <i_m_source_file_index>
895

> <i_lp_mmshare_version>
43012

> <i_f3d_flags>
0

> <s_epik_input>
W0NIM11DKFtDSDNdKShbT0hdKVtDSDJdW05IXUMoPU8pW05IXVtDQEBIXTFbQ0gyXVtDSDJdW0NIMl1bQ0gyXVtDQEhdMW4yW2NIXVtjSF1bY0hdbjI=

> <s_epik_cmdline>
J2VwaWtfcHl0aG9uJywgJy1waCcsICc3LjAnLCAnLXRuJywgJzgnLCAnLW1hJywgJzIwMCcsICctbWV0YWxfYmluZGluZycsICctaW1hZScsICc8aW5maWxlLm1hZT4nLCAnLW9tYWUnLCAnPG91dGZpbGUubWFlPic=

> <r_lp_tautomer_probability>
1

> <r_epik_Ionization_Penalty>
0.000440451

> <r_epik_Ionization_Penalty_Charging>
0

> <r_epik_Ionization_Penalty_Neutral>
0.000440451

> <r_epik_State_Penalty>
-0

> <r_epik_Charging_Adjusted_Penalty>
0

> <i_epik_Tot_Q>
0

> <i_epik_Tot_abs_Q>
0

> <r_epik_Metal_State_Penalty>
-0

> <b_epik_Metal_Only>
0

> <s_lp_Force_Field>
OPLS_2005

> <r_lp_Energy>
10.7008

> <b_lp_Chiralities_Consistent>
1

> <s_lp_Variant>
AV-unprocessed.smi:895-1

> <Gold.Version>
5.8.1

> <Gold.Id.Protein>
6NUR|6NUR_protein|mol2

> <Gold.PLP.Fitness>
47.9405

> <Gold.PLP.PLP>
-36.9838

> <Gold.PLP.part.hbond>
-3.7698

> <Gold.PLP.part.metal>
0.0000

> <Gold.PLP.part.buried>
-4.7133

> <Gold.PLP.part.nonpolar>
-30.4267

> <Gold.PLP.part.repulsive>
0.1046

> <Gold.PLP.ligand.clash>
0.0000

> <Gold.PLP.ligand.torsion>
0.1578

> <Gold.PLP.Chemscore.Hbond>
2.7425

> <Gold.PLP.Chemscore.CHOScore>
1.0000

> <Gold.PLP.Chemscore.Metal>
0.0000

> <Gold.Chemscore.Hbonds>
donor molecule, donor type, donor heavy atom, donor atom, acceptor molecule, acceptor atom, score
      L1  H     4    27       P1  8029  1.00
      L1  H     6    30       P1  8029  0.70
      L1  H     9    31       P1  8028  0.91
      L1  C    17    42       P1  8028  1.00

> <Gold.PLP.Chemscore.Internal.Correction>
0.0449

> <Gold.Rescore>
     Score         DG    S(hbond)    S(metal)    S(lipo)     H(rot)  DE(clash)    DE(int)     intcor
     16.02     -17.26       1.90        0.00      94.48       2.19       0.09       1.16       ----

> <Gold.Chemscore.Fitness>
16.0179

> <Gold.Chemscore.DG>
-17.2623

> <Gold.Chemscore.ZeroCoef>
-5.4800

> <Gold.Chemscore.Hbond>
1.8981

> <Gold.Chemscore.Metal>
0.0000

> <Gold.Chemscore.Lipo>
94.4789

> <Gold.Chemscore.Internal_Hbond>
0.0000

> <Gold.Chemscore.DEClash>
0.0875

> <Gold.Chemscore.DEInternal>
1.1569

> <Gold.Chemscore.Rot>
2.1919

> <Gold.Chemscore.Internal.Correction>
   9.000000E+99

> <Gold.Chemscore.Hbonds>
donor molecule, donor type, donor heavy atom, donor atom, acceptor molecule, acceptor atom, score
      L1  H     4    27       P1  8029  0.94
      L1  H     6    30       P1  8029  0.07
      L1  H     9    31       P1  8028  0.65

> <Gold.Chemscore.Hbond.Weighted>
-6.3396

> <Gold.Chemscore.Metal.Weighted>
-0.0000

> <Gold.Chemscore.Lipo.Weighted>
-11.0540

> <Gold.Chemscore.Internal_Hbond.Weighted>
0.0000

> <Gold.Chemscore.DEClash.Weighted>
0.0875

> <Gold.Chemscore.DEInternal.Weighted>
1.1569

> <Gold.Chemscore.Rot.Weighted>
5.6113

> <Gold.Chemscore.Internal.Correction.Weighted>
   9.000000E+99

> <Gold.Protein.RotatedTorsions>
[ 6907 6896 6895 6894 ] final  -41.70 input  -60.11 | X-H torsion
[ 7974 7965 7964 7962 ] final    5.14 input  175.53 | X-H torsion
[ 8008 7997 7996 7995 ] final  -78.25 input   59.86 | X-H torsion
[ 10167 10162 10161 10158 ] final -148.47 input  -65.29 | X-H torsion
[ 10718 10713 10712 10709 ] final   50.21 input   66.30 | X-H torsion
[ 10763 10752 10751 10750 ] final  148.24 input  -60.55 | X-H torsion
[ 11005 11000 10999 10996 ] final -158.96 input  -57.11 | X-H torsion

> <Gold.Protein.ActiveResidues>
 VAL166  LYS551  ARG553  GLY616  TRP617  ASP618  TYR619  PRO620  LYS621  CYS622 
 ASP623  PHE694  ASN695  SER759  ASP760  ASP761  ALA762  ILE779  LEU786  VAL792 
 PHE793  MET794  SER795  GLU796  ALA797  LYS798  CYS799  TRP800  GLU811  SER814 

> <Gold.Protein.RotatedAtoms>
  150.9637  134.9021  159.7745 H   0  0  0  0  0  0  0  0  0  0  0  0  # atno 6907 bound_to 6896
  152.5165  134.3637  159.9304 H   0  0  0  0  0  0  0  0  0  0  0  0  # atno 6908 bound_to 6896
  151.3648  133.3835  159.2728 H   0  0  0  0  0  0  0  0  0  0  0  0  # atno 6909 bound_to 6896
  146.2441  140.0429  142.8381 H   0  0  0  0  0  0  0  0  0  0  0  0  # atno 7974 bound_to 7965
  154.5672  140.0697  156.8909 H   0  0  0  0  0  0  0  0  0  0  0  0  # atno 8008 bound_to 7997
  155.2702  140.3364  155.4247 H   0  0  0  0  0  0  0  0  0  0  0  0  # atno 8009 bound_to 7997
  156.2090  140.1751  156.7723 H   0  0  0  0  0  0  0  0  0  0  0  0  # atno 8010 bound_to 7997
  139.7529  143.8492  152.2590 H   0  0  0  0  0  0  0  0  0  0  0  0  # atno 10167 bound_to 10162
  157.4862  130.8346  149.8149 H   0  0  0  0  0  0  0  0  0  0  0  0  # atno 10718 bound_to 10713
  154.0515  135.2881  155.3339 H   0  0  0  0  0  0  0  0  0  0  0  0  # atno 10763 bound_to 10752
  154.6866  135.5243  153.8338 H   0  0  0  0  0  0  0  0  0  0  0  0  # atno 10764 bound_to 10752
  153.0559  135.6595  154.0710 H   0  0  0  0  0  0  0  0  0  0  0  0  # atno 10765 bound_to 10752
  140.6478  134.4483  157.5234 H   0  0  0  0  0  0  0  0  0  0  0  0  # atno 11005 bound_to 11000
  145.1053  140.9372  143.4688 LP  0  0  0  0  0  0  0  0  0  0  0  0  # atno 17320 bound_to 7965
  145.0630  139.3090  143.5870 LP  0  0  0  0  0  0  0  0  0  0  0  0  # atno 17321 bound_to 7965
  139.8475  144.7180  150.9254 LP  0  0  0  0  0  0  0  0  0  0  0  0  # atno 17342 bound_to 10162
  140.7799  143.3928  151.1280 LP  0  0  0  0  0  0  0  0  0  0  0  0  # atno 17343 bound_to 10162
  156.0148  130.3818  150.2146 LP  0  0  0  0  0  0  0  0  0  0  0  0  # atno 17370 bound_to 10713
  157.0334  131.0014  151.3305 LP  0  0  0  0  0  0  0  0  0  0  0  0  # atno 17371 bound_to 10713
  139.9057  134.8455  156.1718 LP  0  0  0  0  0  0  0  0  0  0  0  0  # atno 17394 bound_to 11000
  141.0559  133.6865  156.1860 LP  0  0  0  0  0  0  0  0  0  0  0  0  # atno 17395 bound_to 11000

$$$$
