AV-unprocessed.smi:2473|AV-procd|sdf|9749|dock5
  -GOLD-   2272013393D 1   1.00000     0.00000
 Structure written by MMmdl.
 47 48  0  0  0  0  0  0  0  0  1 V2000
  150.7218  140.8815  157.1646 C   0  0  0  0  0  0  0  0  0  0  0  0
  151.6037  141.8976  157.9042 C   0  0  2  0  0  0  0  0  0  0  0  0
  152.4088  141.2220  159.0272 C   0  0  0  0  0  0  0  0  0  0  0  0
  153.3043  142.2334  159.7693 C   0  0  2  0  0  0  0  0  0  0  0  0
  154.0903  141.5335  160.8857 C   0  0  0  0  0  0  0  0  0  0  0  0
  153.9776  141.9095  162.0527 O   0  0  0  0  0  0  0  0  0  0  0  0
  154.8585  140.4957  160.5164 N   0  0  0  0  0  0  0  0  0  0  0  0
  155.5825  139.6108  161.4256 C   0  0  0  0  0  0  0  0  0  0  0  0
  154.6319  138.7822  162.3122 C   0  0  0  0  0  0  0  0  0  0  0  0
  154.7241  137.3012  162.0859 C   0  0  0  0  0  0  0  0  0  0  0  0
  155.2195  136.7599  160.9772 N   0  0  0  0  0  0  0  0  0  0  0  0
  155.1587  135.3877  161.1930 C   0  0  0  0  0  0  0  0  0  0  0  0
  154.6194  135.1446  162.4327 C   0  0  0  0  0  0  0  0  0  0  0  0
  154.3430  136.3828  162.9968 N   0  0  0  0  0  0  0  0  0  0  0  0
  153.7644  136.6060  164.3082 C   0  0  0  0  0  0  0  0  0  0  0  0
  152.4496  143.3910  160.3319 C   0  0  0  0  0  0  0  0  0  0  0  0
  151.5968  144.1084  159.2553 C   0  0  0  0  0  0  0  0  0  0  0  0
  150.6319  145.0845  159.9566 C   0  0  0  0  0  0  0  0  0  0  0  0
  152.4887  144.9333  158.3014 C   0  0  0  0  0  0  0  0  0  0  0  0
  150.7649  143.0618  158.4715 C   0  0  0  0  0  0  0  0  0  0  0  0
  149.9902  140.4291  157.8348 H   0  0  0  0  0  0  0  0  0  0  0  0
  151.3229  140.0785  156.7371 H   0  0  0  0  0  0  0  0  0  0  0  0
  150.1774  141.3556  156.3476 H   0  0  0  0  0  0  0  0  0  0  0  0
  152.3082  142.2973  157.1746 H   0  0  0  0  0  0  0  0  0  0  0  0
  151.7216  140.7448  159.7284 H   0  0  0  0  0  0  0  0  0  0  0  0
  153.0203  140.4225  158.6076 H   0  0  0  0  0  0  0  0  0  0  0  0
  154.0246  142.6391  159.0578 H   0  0  0  0  0  0  0  0  0  0  0  0
  154.8967  140.2653  159.5340 H   0  0  0  0  0  0  0  0  0  0  0  0
  156.2026  138.9410  160.8299 H   0  0  0  0  0  0  0  0  0  0  0  0
  156.2704  140.1813  162.0519 H   0  0  0  0  0  0  0  0  0  0  0  0
  154.8190  139.0050  163.3626 H   0  0  0  0  0  0  0  0  0  0  0  0
  153.6036  139.0917  162.1238 H   0  0  0  0  0  0  0  0  0  0  0  0
  155.5049  134.6882  160.4467 H   0  0  0  0  0  0  0  0  0  0  0  0
  154.4168  134.2171  162.9474 H   0  0  0  0  0  0  0  0  0  0  0  0
  153.6489  135.6580  164.8342 H   0  0  0  0  0  0  0  0  0  0  0  0
  152.7852  137.0737  164.2047 H   0  0  0  0  0  0  0  0  0  0  0  0
  154.4125  137.2543  164.8973 H   0  0  0  0  0  0  0  0  0  0  0  0
  151.7841  142.9971  161.1024 H   0  0  0  0  0  0  0  0  0  0  0  0
  153.0924  144.1144  160.8361 H   0  0  0  0  0  0  0  0  0  0  0  0
  150.0037  145.6095  159.2360 H   0  0  0  0  0  0  0  0  0  0  0  0
  151.1746  145.8376  160.5290 H   0  0  0  0  0  0  0  0  0  0  0  0
  149.9685  144.5647  160.6491 H   0  0  0  0  0  0  0  0  0  0  0  0
  151.8887  145.4592  157.5580 H   0  0  0  0  0  0  0  0  0  0  0  0
  153.2048  144.3192  157.7580 H   0  0  0  0  0  0  0  0  0  0  0  0
  153.0597  145.6843  158.8482 H   0  0  0  0  0  0  0  0  0  0  0  0
  150.2222  143.5524  157.6621 H   0  0  0  0  0  0  0  0  0  0  0  0
  150.0018  142.6460  159.1313 H   0  0  0  0  0  0  0  0  0  0  0  0
  1  2  1  0  0  0  0
  1 21  1  0  0  0  0
  1 22  1  0  0  0  0
  1 23  1  0  0  0  0
  2 20  1  0  0  0  0
  2  3  1  0  0  0  0
  2 24  1  0  0  0  0
  3  4  1  0  0  0  0
  3 25  1  0  0  0  0
  3 26  1  0  0  0  0
  4  5  1  0  0  0  0
  4 16  1  0  0  0  0
  4 27  1  0  0  0  0
  5  6  2  0  0  0  0
  5  7  1  0  0  0  0
  7  8  1  0  0  0  0
  7 28  1  0  0  0  0
  8  9  1  0  0  0  0
  8 29  1  0  0  0  0
  8 30  1  0  0  0  0
  9 10  1  0  0  0  0
  9 31  1  0  0  0  0
  9 32  1  0  0  0  0
 10 14  1  0  0  0  0
 10 11  2  0  0  0  0
 11 12  1  0  0  0  0
 12 13  2  0  0  0  0
 12 33  1  0  0  0  0
 13 14  1  0  0  0  0
 13 34  1  0  0  0  0
 14 15  1  0  0  0  0
 15 35  1  0  0  0  0
 15 36  1  0  0  0  0
 15 37  1  0  0  0  0
 16 17  1  0  0  0  0
 16 38  1  0  0  0  0
 16 39  1  0  0  0  0
 17 18  1  0  0  0  0
 17 19  1  0  0  0  0
 17 20  1  0  0  0  0
 18 40  1  0  0  0  0
 18 41  1  0  0  0  0
 18 42  1  0  0  0  0
 19 43  1  0  0  0  0
 19 44  1  0  0  0  0
 19 45  1  0  0  0  0
 20 46  1  0  0  0  0
 20 47  1  0  0  0  0
M  END
> <s_m_source_file>
AV-unprocessed.smi

> <i_m_source_file_index>
2473

> <i_lp_mmshare_version>
43012

> <i_f3d_flags>
0

> <s_epik_input>
W0NIM11bQ0BASF0oW0NIMl0xKVtDSDJdW0NASF0oW0NIMl1DMShbQ0gzXSlbQ0gzXSlDKD1PKVtOSF1bQ0gyXVtDSDJdYzJuW2NIXVtjSF1uMltDSDNd

> <s_epik_cmdline>
J2VwaWtfcHl0aG9uJywgJy1waCcsICc3LjAnLCAnLXRuJywgJzgnLCAnLW1hJywgJzIwMCcsICctbWV0YWxfYmluZGluZycsICctaW1hZScsICc8aW5maWxlLm1hZT4nLCAnLW9tYWUnLCAnPG91dGZpbGUubWFlPic=

> <r_lp_tautomer_probability>
1

> <r_epik_Ionization_Penalty>
1.22858

> <r_epik_Ionization_Penalty_Charging>
1.22858

> <r_epik_Ionization_Penalty_Neutral>
2.12671e-08

> <r_epik_State_Penalty>
1.2965

> <r_epik_Charging_Adjusted_Penalty>
2.52508

> <i_epik_Tot_Q>
0

> <i_epik_Tot_abs_Q>
0

> <r_epik_Metal_State_Penalty>
0.411461

> <b_epik_Metal_Only>
0

> <s_lp_Force_Field>
OPLS_2005

> <r_lp_Energy>
12.8127

> <b_lp_Chiralities_Consistent>
1

> <s_lp_Variant>
AV-unprocessed.smi:2473-7

> <Gold.Version>
5.8.1

> <Gold.Id.Protein>
6NUR|6NUR_protein|mol2

> <Gold.PLP.Fitness>
45.9556

> <Gold.PLP.PLP>
-47.3411

> <Gold.PLP.part.hbond>
-0.9558

> <Gold.PLP.part.metal>
0.0000

> <Gold.PLP.part.buried>
-5.8412

> <Gold.PLP.part.nonpolar>
-40.8773

> <Gold.PLP.part.repulsive>
0.0578

> <Gold.PLP.ligand.clash>
0.0000

> <Gold.PLP.ligand.torsion>
0.7007

> <Gold.PLP.Chemscore.Hbond>
0.0000

> <Gold.PLP.Chemscore.CHOScore>
0.0000

> <Gold.PLP.Chemscore.Metal>
0.0000

> <Gold.PLP.Chemscore.Internal.Correction>
0.0160

> <Gold.Rescore>
     Score         DG    S(hbond)    S(metal)    S(lipo)     H(rot)  DE(clash)    DE(int)     intcor
     15.64     -16.24       0.00        0.00     125.05       1.51       0.04       0.56       ----

> <Gold.Chemscore.Fitness>
15.6422

> <Gold.Chemscore.DG>
-16.2432

> <Gold.Chemscore.ZeroCoef>
-5.4800

> <Gold.Chemscore.Hbond>
0.0000

> <Gold.Chemscore.Metal>
0.0000

> <Gold.Chemscore.Lipo>
125.0526

> <Gold.Chemscore.Internal_Hbond>
0.0000

> <Gold.Chemscore.DEClash>
0.0383

> <Gold.Chemscore.DEInternal>
0.5627

> <Gold.Chemscore.Rot>
1.5109

> <Gold.Chemscore.Internal.Correction>
   9.000000E+99

> <Gold.Chemscore.Hbond.Weighted>
-0.0000

> <Gold.Chemscore.Metal.Weighted>
-0.0000

> <Gold.Chemscore.Lipo.Weighted>
-14.6312

> <Gold.Chemscore.Internal_Hbond.Weighted>
0.0000

> <Gold.Chemscore.DEClash.Weighted>
0.0383

> <Gold.Chemscore.DEInternal.Weighted>
0.5627

> <Gold.Chemscore.Rot.Weighted>
3.8680

> <Gold.Chemscore.Internal.Correction.Weighted>
   9.000000E+99

> <Gold.Protein.RotatedTorsions>
[ 6907 6896 6895 6894 ] final  -53.78 input  -60.11 | X-H torsion
[ 7974 7965 7964 7962 ] final  152.01 input  175.53 | X-H torsion
[ 8008 7997 7996 7995 ] final  -53.74 input   59.86 | X-H torsion
[ 10167 10162 10161 10158 ] final  -66.64 input  -65.29 | X-H torsion
[ 10718 10713 10712 10709 ] final  -69.65 input   66.30 | X-H torsion
[ 10763 10752 10751 10750 ] final   15.01 input  -60.55 | X-H torsion
[ 11005 11000 10999 10996 ] final  140.03 input  -57.11 | X-H torsion

> <Gold.Protein.ActiveResidues>
 VAL166  LYS551  ARG553  GLY616  TRP617  ASP618  TYR619  PRO620  LYS621  CYS622 
 ASP623  PHE694  ASN695  SER759  ASP760  ASP761  ALA762  ILE779  LEU786  VAL792 
 PHE793  MET794  SER795  GLU796  ALA797  LYS798  CYS799  TRP800  GLU811  SER814 

> <Gold.Protein.RotatedAtoms>
  150.8396  134.7683  159.6920 H   0  0  0  0  0  0  0  0  0  0  0  0  # atno 6907 bound_to 6896
  152.4486  134.5439  159.9857 H   0  0  0  0  0  0  0  0  0  0  0  0  # atno 6908 bound_to 6896
  151.5582  133.3369  159.3002 H   0  0  0  0  0  0  0  0  0  0  0  0  # atno 6909 bound_to 6896
  144.8252  139.6612  143.6083 H   0  0  0  0  0  0  0  0  0  0  0  0  # atno 7974 bound_to 7965
  154.4142  140.1193  156.5203 H   0  0  0  0  0  0  0  0  0  0  0  0  # atno 8008 bound_to 7997
  155.6710  140.3496  155.4799 H   0  0  0  0  0  0  0  0  0  0  0  0  # atno 8009 bound_to 7997
  155.9633  140.1127  157.0866 H   0  0  0  0  0  0  0  0  0  0  0  0  # atno 8010 bound_to 7997
  140.5642  143.2314  151.6667 H   0  0  0  0  0  0  0  0  0  0  0  0  # atno 10167 bound_to 10162
  156.0445  130.4316  150.2180 H   0  0  0  0  0  0  0  0  0  0  0  0  # atno 10718 bound_to 10713
  153.1566  135.6788  153.8803 H   0  0  0  0  0  0  0  0  0  0  0  0  # atno 10763 bound_to 10752
  153.8212  135.3130  155.3411 H   0  0  0  0  0  0  0  0  0  0  0  0  # atno 10764 bound_to 10752
  154.7902  135.4839  154.0123 H   0  0  0  0  0  0  0  0  0  0  0  0  # atno 10765 bound_to 10752
  140.0297  134.9357  157.0639 H   0  0  0  0  0  0  0  0  0  0  0  0  # atno 11005 bound_to 11000
  146.2557  139.6298  142.9396 LP  0  0  0  0  0  0  0  0  0  0  0  0  # atno 17320 bound_to 7965
  145.5016  141.0437  143.2537 LP  0  0  0  0  0  0  0  0  0  0  0  0  # atno 17321 bound_to 7965
  139.5085  144.3610  152.0562 LP  0  0  0  0  0  0  0  0  0  0  0  0  # atno 17342 bound_to 10162
  140.2740  144.3933  150.6141 LP  0  0  0  0  0  0  0  0  0  0  0  0  # atno 17343 bound_to 10162
  157.0271  130.9996  151.3323 LP  0  0  0  0  0  0  0  0  0  0  0  0  # atno 17370 bound_to 10713
  157.5303  130.8054  149.7910 LP  0  0  0  0  0  0  0  0  0  0  0  0  # atno 17371 bound_to 10713
  140.4246  134.1845  155.7165 LP  0  0  0  0  0  0  0  0  0  0  0  0  # atno 17394 bound_to 11000
  141.1824  133.8386  157.1211 LP  0  0  0  0  0  0  0  0  0  0  0  0  # atno 17395 bound_to 11000

$$$$
