AV-unprocessed.smi:1829|AV-procd|sdf|7428|dock10
  -GOLD-   22720 9113D 1   1.00000     0.00000
 Structure written by MMmdl.
 45 47  0  0  0  0  0  0  0  0  1 V2000
  146.2606  134.9055  153.5537 C   0  0  0  0  0  0  0  0  0  0  0  0
  145.5756  136.2213  153.1514 C   0  0  0  0  0  0  0  0  0  0  0  0
  145.4023  136.3278  151.6284 C   0  0  0  0  0  0  0  0  0  0  0  0
  146.3049  137.4347  153.7152 C   0  0  0  0  0  0  0  0  0  0  0  0
  146.7364  138.4642  152.8518 C   0  0  0  0  0  0  0  0  0  0  0  0
  147.4210  139.5829  153.3649 C   0  0  0  0  0  0  0  0  0  0  0  0
  147.6836  139.6865  154.7469 C   0  0  0  0  0  0  0  0  0  0  0  0
  148.4188  140.9035  155.2870 C   0  0  2  0  0  0  0  0  0  0  0  0
  147.7402  142.1131  155.0071 O   0  0  0  0  0  0  0  0  0  0  0  0
  149.8621  140.9663  154.7468 C   0  0  0  0  0  0  0  0  0  0  0  0
  150.8599  140.6177  155.7499 N   0  0  0  0  0  0  0  0  0  0  0  0
  151.7392  139.5844  155.7337 C   0  0  0  0  0  0  0  0  0  0  0  0
  151.8044  138.6053  154.6014 C   0  0  0  0  0  0  0  0  0  0  0  0
  151.8962  137.2677  155.0423 O   0  0  0  0  0  0  0  0  0  0  0  0
  152.5510  139.4965  156.7880 N   0  0  0  0  0  0  0  0  0  0  0  0
  152.1648  140.5751  157.5594 C   0  0  0  0  0  0  0  0  0  0  0  0
  152.6475  141.0311  158.8071 C   0  0  0  0  0  0  0  0  0  0  0  0
  152.0887  142.1748  159.4141 C   0  0  0  0  0  0  0  0  0  0  0  0
  151.0416  142.8780  158.7841 C   0  0  0  0  0  0  0  0  0  0  0  0
  150.5465  142.4410  157.5402 C   0  0  0  0  0  0  0  0  0  0  0  0
  151.1080  141.2988  156.9381 C   0  0  0  0  0  0  0  0  0  0  0  0
  147.2440  138.6617  155.6127 C   0  0  0  0  0  0  0  0  0  0  0  0
  146.5618  137.5421  155.0994 C   0  0  0  0  0  0  0  0  0  0  0  0
  146.3290  134.8159  154.6382 H   0  0  0  0  0  0  0  0  0  0  0  0
  147.2704  134.8361  153.1487 H   0  0  0  0  0  0  0  0  0  0  0  0
  145.7003  134.0447  153.1875 H   0  0  0  0  0  0  0  0  0  0  0  0
  144.5752  136.2044  153.5863 H   0  0  0  0  0  0  0  0  0  0  0  0
  144.8669  137.2385  151.3584 H   0  0  0  0  0  0  0  0  0  0  0  0
  144.8325  135.4842  151.2387 H   0  0  0  0  0  0  0  0  0  0  0  0
  146.3635  136.3418  151.1143 H   0  0  0  0  0  0  0  0  0  0  0  0
  146.5464  138.4009  151.7903 H   0  0  0  0  0  0  0  0  0  0  0  0
  147.7441  140.3632  152.6912 H   0  0  0  0  0  0  0  0  0  0  0  0
  148.4495  140.8191  156.3734 H   0  0  0  0  0  0  0  0  0  0  0  0
  148.3441  142.8298  155.1284 H   0  0  0  0  0  0  0  0  0  0  0  0
  149.9750  140.2971  153.8935 H   0  0  0  0  0  0  0  0  0  0  0  0
  150.0815  141.9671  154.3728 H   0  0  0  0  0  0  0  0  0  0  0  0
  150.9103  138.7079  153.9853 H   0  0  0  0  0  0  0  0  0  0  0  0
  152.6538  138.8335  153.9586 H   0  0  0  0  0  0  0  0  0  0  0  0
  151.0218  136.9294  155.1589 H   0  0  0  0  0  0  0  0  0  0  0  0
  153.4492  140.4994  159.2977 H   0  0  0  0  0  0  0  0  0  0  0  0
  152.4652  142.5140  160.3682 H   0  0  0  0  0  0  0  0  0  0  0  0
  150.6174  143.7521  159.2563 H   0  0  0  0  0  0  0  0  0  0  0  0
  149.7420  142.9743  157.0560 H   0  0  0  0  0  0  0  0  0  0  0  0
  147.4279  138.7292  156.6750 H   0  0  0  0  0  0  0  0  0  0  0  0
  146.2374  136.7647  155.7752 H   0  0  0  0  0  0  0  0  0  0  0  0
  1  2  1  0  0  0  0
  1 24  1  0  0  0  0
  1 25  1  0  0  0  0
  1 26  1  0  0  0  0
  2  3  1  0  0  0  0
  2  4  1  0  0  0  0
  2 27  1  0  0  0  0
  3 28  1  0  0  0  0
  3 29  1  0  0  0  0
  3 30  1  0  0  0  0
  4 23  1  0  0  0  0
  4  5  2  0  0  0  0
  5  6  1  0  0  0  0
  5 31  1  0  0  0  0
  6  7  2  0  0  0  0
  6 32  1  0  0  0  0
  7  8  1  0  0  0  0
  7 22  1  0  0  0  0
  8  9  1  0  0  0  0
  8 10  1  0  0  0  0
  8 33  1  0  0  0  0
  9 34  1  0  0  0  0
 10 11  1  0  0  0  0
 10 35  1  0  0  0  0
 10 36  1  0  0  0  0
 11 21  1  0  0  0  0
 11 12  1  0  0  0  0
 12 13  1  0  0  0  0
 12 15  2  0  0  0  0
 13 14  1  0  0  0  0
 13 37  1  0  0  0  0
 13 38  1  0  0  0  0
 14 39  1  0  0  0  0
 15 16  1  0  0  0  0
 16 21  2  0  0  0  0
 16 17  1  0  0  0  0
 17 18  2  0  0  0  0
 17 40  1  0  0  0  0
 18 19  1  0  0  0  0
 18 41  1  0  0  0  0
 19 20  2  0  0  0  0
 19 42  1  0  0  0  0
 20 21  1  0  0  0  0
 20 43  1  0  0  0  0
 22 23  2  0  0  0  0
 22 44  1  0  0  0  0
 23 45  1  0  0  0  0
M  END
> <s_m_source_file>
AV-unprocessed.smi

> <i_m_source_file_index>
1829

> <i_lp_mmshare_version>
43012

> <i_f3d_flags>
0

> <s_epik_input>
W0NIM11bQ0hdKFtDSDNdKWMxW2NIXVtjSF1jKFtjSF1bY0hdMSlbQ0BIXShbT0hdKVtDSDJdbihjKG4yKVtDSDJdW09IXSljKGMyMylbY0hdW2NIXVtjSF1bY0hdMw==

> <s_epik_cmdline>
J2VwaWtfcHl0aG9uJywgJy1waCcsICc3LjAnLCAnLXRuJywgJzgnLCAnLW1hJywgJzIwMCcsICctbWV0YWxfYmluZGluZycsICctaW1hZScsICc8aW5maWxlLm1hZT4nLCAnLW9tYWUnLCAnPG91dGZpbGUubWFlPic=

> <r_epik_Ionization_Penalty>
0.0634718

> <r_epik_Ionization_Penalty_Charging>
0

> <r_epik_Ionization_Penalty_Neutral>
0.0634718

> <r_epik_State_Penalty>
0.0551572

> <r_epik_Charging_Adjusted_Penalty>
0.0551572

> <i_epik_Tot_Q>
0

> <i_epik_Tot_abs_Q>
0

> <r_epik_Metal_State_Penalty>
5.78034e-05

> <b_epik_Metal_Only>
0

> <s_lp_Force_Field>
OPLS_2005

> <r_lp_Energy>
12.4565

> <b_lp_Chiralities_Consistent>
1

> <s_lp_Variant>
AV-unprocessed.smi:1829-1

> <Gold.Version>
5.8.1

> <Gold.Id.Protein>
6NUR|6NUR_protein|mol2

> <Gold.PLP.Fitness>
43.6117

> <Gold.PLP.PLP>
-36.5755

> <Gold.PLP.part.hbond>
-3.0000

> <Gold.PLP.part.metal>
0.0000

> <Gold.PLP.part.buried>
-3.5557

> <Gold.PLP.part.nonpolar>
-31.1122

> <Gold.PLP.part.repulsive>
0.0000

> <Gold.PLP.ligand.clash>
0.0000

> <Gold.PLP.ligand.torsion>
0.9307

> <Gold.PLP.Chemscore.Hbond>
2.9440

> <Gold.PLP.Chemscore.CHOScore>
0.0000

> <Gold.PLP.Chemscore.Metal>
0.0000

> <Gold.Chemscore.Hbonds>
donor molecule, donor type, donor heavy atom, donor atom, acceptor molecule, acceptor atom, score
      L1  H     9    34       P1  8028  1.00
      P1  H  7997  8008       L1    15  0.95
      P1  H 10752 10765       L1    14  0.96

> <Gold.PLP.Chemscore.Internal.Correction>
0.0656

> <Gold.Rescore>
     Score         DG    S(hbond)    S(metal)    S(lipo)     H(rot)  DE(clash)    DE(int)     intcor
     14.85     -16.38       1.86        0.00      98.65       2.68       0.68       0.86       ----

> <Gold.Chemscore.Fitness>
14.8471

> <Gold.Chemscore.DG>
-16.3833

> <Gold.Chemscore.ZeroCoef>
-5.4800

> <Gold.Chemscore.Hbond>
1.8597

> <Gold.Chemscore.Metal>
0.0000

> <Gold.Chemscore.Lipo>
98.6541

> <Gold.Chemscore.Internal_Hbond>
0.0000

> <Gold.Chemscore.DEClash>
0.6792

> <Gold.Chemscore.DEInternal>
0.8569

> <Gold.Chemscore.Rot>
2.6761

> <Gold.Chemscore.Internal.Correction>
   9.000000E+99

> <Gold.Chemscore.Hbonds>
donor molecule, donor type, donor heavy atom, donor atom, acceptor molecule, acceptor atom, score
      L1  H     9    34       P1  8028  0.92
      P1  H  7997  8008       L1    15  0.12
      P1  H 10752 10765       L1    14  0.35

> <Gold.Chemscore.Hbond.Weighted>
-6.2115

> <Gold.Chemscore.Metal.Weighted>
-0.0000

> <Gold.Chemscore.Lipo.Weighted>
-11.5425

> <Gold.Chemscore.Internal_Hbond.Weighted>
0.0000

> <Gold.Chemscore.DEClash.Weighted>
0.6792

> <Gold.Chemscore.DEInternal.Weighted>
0.8569

> <Gold.Chemscore.Rot.Weighted>
6.8507

> <Gold.Chemscore.Internal.Correction.Weighted>
   9.000000E+99

> <Gold.Protein.RotatedTorsions>
[ 6907 6896 6895 6894 ] final -147.70 input  -60.11 | X-H torsion
[ 7974 7965 7964 7962 ] final  163.74 input  175.53 | X-H torsion
[ 8008 7997 7996 7995 ] final  -33.68 input   59.86 | X-H torsion
[ 10167 10162 10161 10158 ] final  110.67 input  -65.29 | X-H torsion
[ 10718 10713 10712 10709 ] final  -57.13 input   66.30 | X-H torsion
[ 10763 10752 10751 10750 ] final  175.75 input  -60.55 | X-H torsion
[ 11005 11000 10999 10996 ] final  -92.30 input  -57.11 | X-H torsion

> <Gold.Protein.ActiveResidues>
 VAL166  LYS551  ARG553  GLY616  TRP617  ASP618  TYR619  PRO620  LYS621  CYS622 
 ASP623  PHE694  ASN695  SER759  ASP760  ASP761  ALA762  ILE779  LEU786  VAL792 
 PHE793  MET794  SER795  GLU796  ALA797  LYS798  CYS799  TRP800  GLU811  SER814 

> <Gold.Protein.RotatedAtoms>
  151.1593  133.4855  159.2594 H   0  0  0  0  0  0  0  0  0  0  0  0  # atno 6907 bound_to 6896
  151.1471  135.0208  159.8661 H   0  0  0  0  0  0  0  0  0  0  0  0  # atno 6908 bound_to 6896
  152.5463  134.1481  159.8560 H   0  0  0  0  0  0  0  0  0  0  0  0  # atno 6909 bound_to 6896
  144.7576  139.8226  143.6344 H   0  0  0  0  0  0  0  0  0  0  0  0  # atno 7974 bound_to 7965
  154.4142  140.1704  156.1927 H   0  0  0  0  0  0  0  0  0  0  0  0  # atno 8008 bound_to 7997
  155.9590  140.3395  155.6450 H   0  0  0  0  0  0  0  0  0  0  0  0  # atno 8009 bound_to 7997
  155.6773  140.0718  157.2488 H   0  0  0  0  0  0  0  0  0  0  0  0  # atno 8010 bound_to 7997
  139.6670  144.7127  151.1758 H   0  0  0  0  0  0  0  0  0  0  0  0  # atno 10167 bound_to 10162
  156.1234  130.4164  150.0399 H   0  0  0  0  0  0  0  0  0  0  0  0  # atno 10718 bound_to 10713
  154.4718  135.2771  155.1637 H   0  0  0  0  0  0  0  0  0  0  0  0  # atno 10763 bound_to 10752
  154.3382  135.6175  153.5587 H   0  0  0  0  0  0  0  0  0  0  0  0  # atno 10764 bound_to 10752
  152.9865  135.5782  154.5101 H   0  0  0  0  0  0  0  0  0  0  0  0  # atno 10765 bound_to 10752
  141.1525  133.7812  157.0001 H   0  0  0  0  0  0  0  0  0  0  0  0  # atno 11005 bound_to 11000
  146.1604  139.4716  142.9992 LP  0  0  0  0  0  0  0  0  0  0  0  0  # atno 17320 bound_to 7965
  145.6727  141.0212  143.1649 LP  0  0  0  0  0  0  0  0  0  0  0  0  # atno 17321 bound_to 7965
  140.7603  143.5903  150.8803 LP  0  0  0  0  0  0  0  0  0  0  0  0  # atno 17342 bound_to 10162
  139.9565  143.6212  152.3014 LP  0  0  0  0  0  0  0  0  0  0  0  0  # atno 17343 bound_to 10162
  156.8331  130.9399  151.3636 LP  0  0  0  0  0  0  0  0  0  0  0  0  # atno 17370 bound_to 10713
  157.6417  130.8811  149.9460 LP  0  0  0  0  0  0  0  0  0  0  0  0  # atno 17371 bound_to 10713
  140.0945  134.9572  157.1829 LP  0  0  0  0  0  0  0  0  0  0  0  0  # atno 17394 bound_to 11000
  140.3400  134.2714  155.7213 LP  0  0  0  0  0  0  0  0  0  0  0  0  # atno 17395 bound_to 11000

$$$$
