AV-unprocessed.smi:3154|AV-procd|sdf|12024|dock6
  -GOLD-   2272017443D 1   1.00000     0.00000
 Structure written by MMmdl.
 34 35  0  0  0  0  0  0  0  0  1 V2000
  147.3687  132.1916  152.9795 C   0  0  0  0  0  0  0  0  0  0  0  0
  147.7239  133.6689  152.7372 C   0  0  1  0  0  0  0  0  0  0  0  0
  146.4940  134.5228  152.3431 C   0  0  0  0  0  0  0  0  0  0  0  0
  145.8435  134.0556  151.1318 N   0  0  0  0  0  0  0  0  0  0  0  0
  146.2303  133.0346  150.2893 C   0  0  0  0  0  0  0  0  0  0  0  0
  145.3028  132.9587  149.2899 C   0  0  0  0  0  0  0  0  0  0  0  0
  144.3705  133.9829  149.6161 C   0  0  0  0  0  0  0  0  0  0  0  0
  144.6941  134.6344  150.7214 N   0  0  0  0  0  0  0  0  0  0  0  0
  148.3378  134.1706  153.9629 N   0  0  0  0  0  0  0  0  0  0  0  0
  149.7333  133.7400  154.1190 C   0  0  0  0  0  0  0  0  0  0  0  0
  150.5277  134.7406  154.9548 C   0  0  0  0  0  0  0  0  0  0  0  0
  150.8795  134.4468  156.0970 O   0  0  0  0  0  0  0  0  0  0  0  0
  150.8034  135.9159  154.3699 N   0  0  0  0  0  0  0  0  0  0  0  0
  151.5335  136.9878  154.9650 C   0  0  0  0  0  0  0  0  0  0  0  0
  151.6939  138.2599  154.1614 C   0  0  0  0  0  0  0  0  0  0  0  0
  152.8726  137.3469  154.3579 C   0  0  0  0  0  0  0  0  0  0  0  0
  146.9855  131.7191  152.0749 H   0  0  0  0  0  0  0  0  0  0  0  0
  146.6095  132.0871  153.7556 H   0  0  0  0  0  0  0  0  0  0  0  0
  148.2444  131.6208  153.2906 H   0  0  0  0  0  0  0  0  0  0  0  0
  148.4617  133.6994  151.9338 H   0  0  0  0  0  0  0  0  0  0  0  0
  145.7587  134.5151  153.1491 H   0  0  0  0  0  0  0  0  0  0  0  0
  146.7701  135.5651  152.1847 H   0  0  0  0  0  0  0  0  0  0  0  0
  147.1245  132.4556  150.4673 H   0  0  0  0  0  0  0  0  0  0  0  0
  145.2907  132.2747  148.4542 H   0  0  0  0  0  0  0  0  0  0  0  0
  143.4734  134.2694  149.0873 H   0  0  0  0  0  0  0  0  0  0  0  0
  147.7812  133.8583  154.7454 H   0  0  0  0  0  0  0  0  0  0  0  0
  149.7716  132.7600  154.5974 H   0  0  0  0  0  0  0  0  0  0  0  0
  150.2158  133.6443  153.1467 H   0  0  0  0  0  0  0  0  0  0  0  0
  150.4696  136.0619  153.4282 H   0  0  0  0  0  0  0  0  0  0  0  0
  151.4495  137.1120  156.0437 H   0  0  0  0  0  0  0  0  0  0  0  0
  151.2468  138.2964  153.1697 H   0  0  0  0  0  0  0  0  0  0  0  0
  151.6910  139.2010  154.7076 H   0  0  0  0  0  0  0  0  0  0  0  0
  153.6574  137.6783  155.0350 H   0  0  0  0  0  0  0  0  0  0  0  0
  153.2123  136.7736  153.4974 H   0  0  0  0  0  0  0  0  0  0  0  0
  1  2  1  0  0  0  0
  1 17  1  0  0  0  0
  1 18  1  0  0  0  0
  1 19  1  0  0  0  0
  2  3  1  0  0  0  0
  2  9  1  0  0  0  0
  2 20  1  0  0  0  0
  3  4  1  0  0  0  0
  3 21  1  0  0  0  0
  3 22  1  0  0  0  0
  4  8  1  0  0  0  0
  4  5  1  0  0  0  0
  5  6  2  0  0  0  0
  5 23  1  0  0  0  0
  6  7  1  0  0  0  0
  6 24  1  0  0  0  0
  7  8  2  0  0  0  0
  7 25  1  0  0  0  0
  9 10  1  0  0  0  0
  9 26  1  0  0  0  0
 10 11  1  0  0  0  0
 10 27  1  0  0  0  0
 10 28  1  0  0  0  0
 11 12  2  0  0  0  0
 11 13  1  0  0  0  0
 13 14  1  0  0  0  0
 13 29  1  0  0  0  0
 14 16  1  0  0  0  0
 14 15  1  0  0  0  0
 14 30  1  0  0  0  0
 15 16  1  0  0  0  0
 15 31  1  0  0  0  0
 15 32  1  0  0  0  0
 16 33  1  0  0  0  0
 16 34  1  0  0  0  0
M  END
> <s_m_source_file>
AV-unprocessed.smi

> <i_m_source_file_index>
3154

> <i_lp_mmshare_version>
43012

> <i_f3d_flags>
0

> <s_epik_input>
bjFbY0hdW2NIXVtjSF1uMVtDSDJdW0NAQEhdKFtDSDNdKVtOSF1bQ0gyXUMoPU8pW05IXVtDSF0yW0NIMl1bQ0gyXTI=

> <s_epik_cmdline>
J2VwaWtfcHl0aG9uJywgJy1waCcsICc3LjAnLCAnLXRuJywgJzgnLCAnLW1hJywgJzIwMCcsICctbWV0YWxfYmluZGluZycsICctaW1hZScsICc8aW5maWxlLm1hZT4nLCAnLW9tYWUnLCAnPG91dGZpbGUubWFlPic=

> <r_lp_tautomer_probability>
1

> <r_epik_Ionization_Penalty>
1.00229

> <r_epik_Ionization_Penalty_Charging>
0

> <r_epik_Ionization_Penalty_Neutral>
1.00229

> <r_epik_State_Penalty>
1.0509

> <r_epik_Charging_Adjusted_Penalty>
1.0509

> <i_epik_Tot_Q>
0

> <i_epik_Tot_abs_Q>
0

> <r_epik_Metal_State_Penalty>
1.05084

> <b_epik_Metal_Only>
0

> <s_lp_Force_Field>
OPLS_2005

> <r_lp_Energy>
18.1237

> <b_lp_Chiralities_Consistent>
1

> <s_lp_Variant>
AV-unprocessed.smi:3154-4

> <Gold.Version>
5.8.1

> <Gold.Id.Protein>
6NUR|6NUR_protein|mol2

> <Gold.PLP.Fitness>
40.0970

> <Gold.PLP.PLP>
-32.0265

> <Gold.PLP.part.hbond>
-1.7258

> <Gold.PLP.part.metal>
0.0000

> <Gold.PLP.part.buried>
-5.5070

> <Gold.PLP.part.nonpolar>
-25.6673

> <Gold.PLP.part.repulsive>
0.2172

> <Gold.PLP.ligand.clash>
0.0000

> <Gold.PLP.ligand.torsion>
0.4951

> <Gold.PLP.Chemscore.Hbond>
1.0000

> <Gold.PLP.Chemscore.CHOScore>
2.0000

> <Gold.PLP.Chemscore.Metal>
0.0000

> <Gold.Chemscore.Hbonds>
donor molecule, donor type, donor heavy atom, donor atom, acceptor molecule, acceptor atom, score
      L1  H    13    29       P1  7949  0.15
      L1  C     5    23       P1 10747  1.00
      L1  C     7    25       P1 10186  1.00

> <Gold.PLP.Chemscore.Internal.Correction>
0.0606

> <Gold.Rescore>
     Score         DG    S(hbond)    S(metal)    S(lipo)     H(rot)  DE(clash)    DE(int)     intcor
     10.19     -11.33       0.94        0.00      69.58       2.12       0.03       1.11       ----

> <Gold.Chemscore.Fitness>
10.1913

> <Gold.Chemscore.DG>
-11.3251

> <Gold.Chemscore.ZeroCoef>
-5.4800

> <Gold.Chemscore.Hbond>
0.9395

> <Gold.Chemscore.Metal>
0.0000

> <Gold.Chemscore.Lipo>
69.5811

> <Gold.Chemscore.Internal_Hbond>
0.0000

> <Gold.Chemscore.DEClash>
0.0279

> <Gold.Chemscore.DEInternal>
1.1059

> <Gold.Chemscore.Rot>
2.1225

> <Gold.Chemscore.Internal.Correction>
   9.000000E+99

> <Gold.Chemscore.Hbond.Weighted>
-3.1378

> <Gold.Chemscore.Metal.Weighted>
-0.0000

> <Gold.Chemscore.Lipo.Weighted>
-8.1410

> <Gold.Chemscore.Internal_Hbond.Weighted>
0.0000

> <Gold.Chemscore.DEClash.Weighted>
0.0279

> <Gold.Chemscore.DEInternal.Weighted>
1.1059

> <Gold.Chemscore.Rot.Weighted>
5.4337

> <Gold.Chemscore.Internal.Correction.Weighted>
   9.000000E+99

> <Gold.Protein.RotatedTorsions>
[ 6907 6896 6895 6894 ] final -127.71 input  -60.11 | X-H torsion
[ 7974 7965 7964 7962 ] final -169.68 input  175.53 | X-H torsion
[ 8008 7997 7996 7995 ] final   68.16 input   59.86 | X-H torsion
[ 10167 10162 10161 10158 ] final  -97.96 input  -65.29 | X-H torsion
[ 10718 10713 10712 10709 ] final -111.72 input   66.30 | X-H torsion
[ 10763 10752 10751 10750 ] final   26.06 input  -60.55 | X-H torsion
[ 11005 11000 10999 10996 ] final  -29.40 input  -57.11 | X-H torsion

> <Gold.Protein.ActiveResidues>
 VAL166  LYS551  ARG553  GLY616  TRP617  ASP618  TYR619  PRO620  LYS621  CYS622 
 ASP623  PHE694  ASN695  SER759  ASP760  ASP761  ALA762  ILE779  LEU786  VAL792 
 PHE793  MET794  SER795  GLU796  ALA797  LYS798  CYS799  TRP800  GLU811  SER814 

> <Gold.Protein.RotatedAtoms>
  150.9102  133.7007  159.2856 H   0  0  0  0  0  0  0  0  0  0  0  0  # atno 6907 bound_to 6896
  151.4497  135.1027  159.9703 H   0  0  0  0  0  0  0  0  0  0  0  0  # atno 6908 bound_to 6896
  152.4925  133.8491  159.7247 H   0  0  0  0  0  0  0  0  0  0  0  0  # atno 6909 bound_to 6896
  144.7181  140.2184  143.6319 H   0  0  0  0  0  0  0  0  0  0  0  0  # atno 7974 bound_to 7965
  155.7041  140.3495  155.4945 H   0  0  0  0  0  0  0  0  0  0  0  0  # atno 8008 bound_to 7997
  155.9414  140.1102  157.1074 H   0  0  0  0  0  0  0  0  0  0  0  0  # atno 8009 bound_to 7997
  154.4103  140.1212  156.4919 H   0  0  0  0  0  0  0  0  0  0  0  0  # atno 8010 bound_to 7997
  140.2780  143.3301  152.0470 H   0  0  0  0  0  0  0  0  0  0  0  0  # atno 10167 bound_to 10162
  156.0663  130.5882  150.8412 H   0  0  0  0  0  0  0  0  0  0  0  0  # atno 10718 bound_to 10713
  153.0648  135.6569  154.0379 H   0  0  0  0  0  0  0  0  0  0  0  0  # atno 10763 bound_to 10752
  154.0038  135.2934  155.3401 H   0  0  0  0  0  0  0  0  0  0  0  0  # atno 10764 bound_to 10752
  154.7002  135.5248  153.8584 H   0  0  0  0  0  0  0  0  0  0  0  0  # atno 10765 bound_to 10752
  140.9293  133.7348  156.0913 H   0  0  0  0  0  0  0  0  0  0  0  0  # atno 11005 bound_to 11000
  145.8524  139.2182  143.1764 LP  0  0  0  0  0  0  0  0  0  0  0  0  # atno 17320 bound_to 7965
  146.0248  140.8314  142.9905 LP  0  0  0  0  0  0  0  0  0  0  0  0  # atno 17321 bound_to 7965
  139.4970  144.6611  151.6462 LP  0  0  0  0  0  0  0  0  0  0  0  0  # atno 17342 bound_to 10162
  140.5835  143.9904  150.6282 LP  0  0  0  0  0  0  0  0  0  0  0  0  # atno 17343 bound_to 10162
  157.5707  131.0946  150.9421 LP  0  0  0  0  0  0  0  0  0  0  0  0  # atno 17370 bound_to 10713
  156.9638  130.5465  149.5287 LP  0  0  0  0  0  0  0  0  0  0  0  0  # atno 17371 bound_to 10713
  140.7884  134.3646  157.5471 LP  0  0  0  0  0  0  0  0  0  0  0  0  # atno 17394 bound_to 11000
  139.8792  134.9125  156.3061 LP  0  0  0  0  0  0  0  0  0  0  0  0  # atno 17395 bound_to 11000

$$$$
