AV-unprocessed.smi:2971|AV-procd|sdf|11334|dock5
  -GOLD-   2272016243D 1   1.00000     0.00000
 Structure written by MMmdl.
 37 39  0  0  0  0  0  0  0  0  2 V2000
  148.0276  139.0165  158.4349 O   0  0  0  0  0  0  0  0  0  0  0  0
  149.2938  138.4028  158.2934 C   0  0  2  0  0  0  0  0  0  0  0  0
  149.2762  137.0703  159.0589 C   0  0  0  0  0  0  0  0  0  0  0  0
  148.6172  137.2637  160.3036 O   0  0  0  0  0  0  0  0  0  0  0  0
  147.9540  136.1936  160.8668 C   0  0  0  0  0  0  0  0  0  0  0  0
  147.8162  134.9262  160.2446 C   0  0  0  0  0  0  0  0  0  0  0  0
  147.1211  133.8854  160.8907 C   0  0  0  0  0  0  0  0  0  0  0  0
  146.5559  134.0955  162.1618 C   0  0  0  0  0  0  0  0  0  0  0  0
  146.6866  135.3492  162.7868 C   0  0  0  0  0  0  0  0  0  0  0  0
  147.3822  136.3906  162.1421 C   0  0  0  0  0  0  0  0  0  0  0  0
  147.5007  137.5925  162.7555 F   0  0  0  0  0  0  0  0  0  0  0  0
  150.3830  139.3546  158.8271 C   0  0  0  0  0  0  0  0  0  0  0  0
  150.4682  140.6114  158.0689 N   0  0  0  0  0  0  0  0  0  0  0  0
  149.7385  141.0290  156.9990 C   0  0  0  0  0  0  0  0  0  0  0  0
  150.1949  142.2621  156.6447 N   0  3  0  0  0  0  0  0  0  0  0  0
  151.2300  142.6403  157.5021 C   0  0  0  0  0  0  0  0  0  0  0  0
  152.0023  143.7972  157.5418 C   0  0  0  0  0  0  0  0  0  0  0  0
  152.9809  143.8704  158.5547 C   0  0  0  0  0  0  0  0  0  0  0  0
  153.1622  142.8203  159.4780 C   0  0  0  0  0  0  0  0  0  0  0  0
  152.3748  141.6511  159.4271 C   0  0  0  0  0  0  0  0  0  0  0  0
  151.4102  141.5852  158.4218 C   0  0  0  0  0  0  0  0  0  0  0  0
  147.5841  138.6188  159.1690 H   0  0  0  0  0  0  0  0  0  0  0  0
  149.4786  138.2141  157.2349 H   0  0  0  0  0  0  0  0  0  0  0  0
  148.7131  136.3337  158.4835 H   0  0  0  0  0  0  0  0  0  0  0  0
  150.2889  136.6858  159.1932 H   0  0  0  0  0  0  0  0  0  0  0  0
  148.2341  134.7259  159.2701 H   0  0  0  0  0  0  0  0  0  0  0  0
  147.0216  132.9240  160.4090 H   0  0  0  0  0  0  0  0  0  0  0  0
  146.0229  133.2967  162.6563 H   0  0  0  0  0  0  0  0  0  0  0  0
  146.2530  135.5133  163.7623 H   0  0  0  0  0  0  0  0  0  0  0  0
  150.2329  139.5781  159.8838 H   0  0  0  0  0  0  0  0  0  0  0  0
  151.3600  138.8756  158.7540 H   0  0  0  0  0  0  0  0  0  0  0  0
  148.9423  140.4802  156.5169 H   0  0  0  0  0  0  0  0  0  0  0  0
  151.8643  144.6039  156.8368 H   0  0  0  0  0  0  0  0  0  0  0  0
  153.6039  144.7503  158.6261 H   0  0  0  0  0  0  0  0  0  0  0  0
  153.9196  142.9132  160.2427 H   0  0  0  0  0  0  0  0  0  0  0  0
  152.5184  140.8562  160.1437 H   0  0  0  0  0  0  0  0  0  0  0  0
  149.8246  142.8034  155.8740 H   0  0  0  0  0  0  0  0  0  0  0  0
  1  2  1  0  0  0  0
  1 22  1  0  0  0  0
  2  3  1  0  0  0  0
  2 12  1  0  0  0  0
  2 23  1  0  0  0  0
  3  4  1  0  0  0  0
  3 24  1  0  0  0  0
  3 25  1  0  0  0  0
  4  5  1  0  0  0  0
  5 10  1  0  0  0  0
  5  6  2  0  0  0  0
  6  7  1  0  0  0  0
  6 26  1  0  0  0  0
  7  8  2  0  0  0  0
  7 27  1  0  0  0  0
  8  9  1  0  0  0  0
  8 28  1  0  0  0  0
  9 10  2  0  0  0  0
  9 29  1  0  0  0  0
 10 11  1  0  0  0  0
 12 13  1  0  0  0  0
 12 30  1  0  0  0  0
 12 31  1  0  0  0  0
 13 21  1  0  0  0  0
 13 14  1  0  0  0  0
 14 15  2  0  0  0  0
 14 32  1  0  0  0  0
 15 16  1  0  0  0  0
 15 37  1  0  0  0  0
 16 21  2  0  0  0  0
 16 17  1  0  0  0  0
 17 18  2  0  0  0  0
 17 33  1  0  0  0  0
 18 19  1  0  0  0  0
 18 34  1  0  0  0  0
 19 20  2  0  0  0  0
 19 35  1  0  0  0  0
 20 21  1  0  0  0  0
 20 36  1  0  0  0  0
M  CHG  1  15   1
M  END
> <s_m_source_file>
AV-unprocessed.smi

> <i_m_source_file_index>
2971

> <i_lp_mmshare_version>
43012

> <i_f3d_flags>
0

> <s_epik_input>
W2NIXTFbY0hdW2NIXVtjSF1jKGMxMiluKFtjSF1uMilbQ0gyXVtDQEhdKFtPSF0pW0NIMl1PYzNbY0hdW2NIXVtjSF1bY0hdYzNG

> <s_epik_cmdline>
J2VwaWtfcHl0aG9uJywgJy1waCcsICc3LjAnLCAnLXRuJywgJzgnLCAnLW1hJywgJzIwMCcsICctbWV0YWxfYmluZGluZycsICctaW1hZScsICc8aW5maWxlLm1hZT4nLCAnLW9tYWUnLCAnPG91dGZpbGUubWFlPic=

> <r_lp_tautomer_probability>
1

> <r_epik_Ionization_Penalty>
1.38569

> <r_epik_Ionization_Penalty_Charging>
1.38568

> <r_epik_Ionization_Penalty_Neutral>
2.3993e-06

> <r_epik_State_Penalty>
1.46659

> <r_epik_Charging_Adjusted_Penalty>
2.85227

> <i_epik_Tot_Q>
1

> <i_epik_Tot_abs_Q>
1

> <r_epik_Metal_State_Penalty>
5.50731

> <b_epik_Metal_Only>
0

> <s_lp_Force_Field>
OPLS_2005

> <r_lp_Energy>
22.099

> <b_lp_Chiralities_Consistent>
1

> <s_lp_Variant>
AV-unprocessed.smi:2971-3

> <Gold.Version>
5.8.1

> <Gold.Id.Protein>
6NUR|6NUR_protein|mol2

> <Gold.PLP.Fitness>
52.5913

> <Gold.PLP.PLP>
-45.4025

> <Gold.PLP.part.hbond>
-3.1793

> <Gold.PLP.part.metal>
0.0000

> <Gold.PLP.part.buried>
-2.1918

> <Gold.PLP.part.nonpolar>
-41.5285

> <Gold.PLP.part.repulsive>
0.0179

> <Gold.PLP.ligand.clash>
0.0000

> <Gold.PLP.ligand.torsion>
0.3519

> <Gold.PLP.Chemscore.Hbond>
2.6240

> <Gold.PLP.Chemscore.CHOScore>
0.0000

> <Gold.PLP.Chemscore.Metal>
0.0000

> <Gold.Chemscore.Hbonds>
donor molecule, donor type, donor heavy atom, donor atom, acceptor molecule, acceptor atom, score
      L1  H    15    37       P1  8028  1.03
      P1  H  6931  6943       L1     4  0.61
      P1  H  6934  6947       L1     4  0.11

> <Gold.PLP.Chemscore.Internal.Correction>
0.0206

> <Gold.Rescore>
     Score         DG    S(hbond)    S(metal)    S(lipo)     H(rot)  DE(clash)    DE(int)     intcor
     16.11     -17.49       1.39        0.00     116.76       2.46       0.77       0.61       ----

> <Gold.Chemscore.Fitness>
16.1106

> <Gold.Chemscore.DG>
-17.4945

> <Gold.Chemscore.ZeroCoef>
-5.4800

> <Gold.Chemscore.Hbond>
1.3915

> <Gold.Chemscore.Metal>
0.0000

> <Gold.Chemscore.Lipo>
116.7571

> <Gold.Chemscore.Internal_Hbond>
0.0000

> <Gold.Chemscore.DEClash>
0.7742

> <Gold.Chemscore.DEInternal>
0.6096

> <Gold.Chemscore.Rot>
2.4584

> <Gold.Chemscore.Internal.Correction>
   9.000000E+99

> <Gold.Chemscore.Hbonds>
donor molecule, donor type, donor heavy atom, donor atom, acceptor molecule, acceptor atom, score
      L1  H    15    37       P1  8028  0.51
      P1  H  6931  6943       L1     4  0.18
      P1  H  6934  6947       L1     4  0.03

> <Gold.Chemscore.Hbond.Weighted>
-4.6475

> <Gold.Chemscore.Metal.Weighted>
-0.0000

> <Gold.Chemscore.Lipo.Weighted>
-13.6606

> <Gold.Chemscore.Internal_Hbond.Weighted>
0.0000

> <Gold.Chemscore.DEClash.Weighted>
0.7742

> <Gold.Chemscore.DEInternal.Weighted>
0.6096

> <Gold.Chemscore.Rot.Weighted>
6.2936

> <Gold.Chemscore.Internal.Correction.Weighted>
   9.000000E+99

> <Gold.Protein.RotatedTorsions>
[ 6907 6896 6895 6894 ] final  -72.57 input  -60.11 | X-H torsion
[ 7974 7965 7964 7962 ] final -158.94 input  175.53 | X-H torsion
[ 8008 7997 7996 7995 ] final  -89.66 input   59.86 | X-H torsion
[ 10167 10162 10161 10158 ] final    0.86 input  -65.29 | X-H torsion
[ 10718 10713 10712 10709 ] final  -96.54 input   66.30 | X-H torsion
[ 10763 10752 10751 10750 ] final   77.84 input  -60.55 | X-H torsion
[ 11005 11000 10999 10996 ] final  126.90 input  -57.11 | X-H torsion

> <Gold.Protein.ActiveResidues>
 VAL166  LYS551  ARG553  GLY616  TRP617  ASP618  TYR619  PRO620  LYS621  CYS622 
 ASP623  PHE694  ASN695  SER759  ASP760  ASP761  ALA762  ILE779  LEU786  VAL792 
 PHE793  MET794  SER795  GLU796  ALA797  LYS798  CYS799  TRP800  GLU811  SER814 

> <Gold.Protein.RotatedAtoms>
  150.7164  134.5144  159.5622 H   0  0  0  0  0  0  0  0  0  0  0  0  # atno 6907 bound_to 6896
  152.2713  134.7927  160.0422 H   0  0  0  0  0  0  0  0  0  0  0  0  # atno 6908 bound_to 6896
  151.8606  133.3421  159.3739 H   0  0  0  0  0  0  0  0  0  0  0  0  # atno 6909 bound_to 6896
  144.7485  140.3755  143.6066 H   0  0  0  0  0  0  0  0  0  0  0  0  # atno 7974 bound_to 7965
  154.6892  140.0539  157.0346 H   0  0  0  0  0  0  0  0  0  0  0  0  # atno 8008 bound_to 7997
  155.0841  140.3212  155.4574 H   0  0  0  0  0  0  0  0  0  0  0  0  # atno 8009 bound_to 7997
  156.2722  140.2060  156.5968 H   0  0  0  0  0  0  0  0  0  0  0  0  # atno 8010 bound_to 7997
  140.6709  143.7050  150.7922 H   0  0  0  0  0  0  0  0  0  0  0  0  # atno 10167 bound_to 10162
  156.0064  130.5156  150.6241 H   0  0  0  0  0  0  0  0  0  0  0  0  # atno 10718 bound_to 10713
  153.0829  135.4899  154.8538 H   0  0  0  0  0  0  0  0  0  0  0  0  # atno 10763 bound_to 10752
  154.7173  135.3032  154.9105 H   0  0  0  0  0  0  0  0  0  0  0  0  # atno 10764 bound_to 10752
  153.9780  135.6793  153.4802 H   0  0  0  0  0  0  0  0  0  0  0  0  # atno 10765 bound_to 10752
  139.9479  134.9627  156.8775 H   0  0  0  0  0  0  0  0  0  0  0  0  # atno 11005 bound_to 11000
  145.7032  139.1666  143.2581 LP  0  0  0  0  0  0  0  0  0  0  0  0  # atno 17320 bound_to 7965
  146.1400  140.7070  142.9371 LP  0  0  0  0  0  0  0  0  0  0  0  0  # atno 17321 bound_to 7965
  140.0735  143.5038  152.2567 LP  0  0  0  0  0  0  0  0  0  0  0  0  # atno 17342 bound_to 10162
  139.5978  144.7572  151.3245 LP  0  0  0  0  0  0  0  0  0  0  0  0  # atno 17343 bound_to 10162
  157.4051  131.0815  151.1273 LP  0  0  0  0  0  0  0  0  0  0  0  0  # atno 17370 bound_to 10713
  157.1922  130.6357  149.5708 LP  0  0  0  0  0  0  0  0  0  0  0  0  # atno 17371 bound_to 10713
  140.5789  134.0371  155.7457 LP  0  0  0  0  0  0  0  0  0  0  0  0  # atno 17394 bound_to 11000
  141.1135  133.9578  157.2866 LP  0  0  0  0  0  0  0  0  0  0  0  0  # atno 17395 bound_to 11000

$$$$
