AV-unprocessed.smi:17|AV-procd|sdf|100|dock5
  -GOLD-   2262015243D 1   1.00000     0.00000
 Structure written by MMmdl.
 57 59  0  0  0  0  0  0  0  0  1 V2000
  147.1226  142.1172  152.9964 C   0  0  0  0  0  0  0  0  0  0  0  0
  148.4496  141.3532  153.1073 C   0  0  0  0  0  0  0  0  0  0  0  0
  148.4699  140.4345  154.2494 N   0  0  0  0  0  0  0  0  0  0  0  0
  147.7055  139.3092  154.2018 C   0  0  0  0  0  0  0  0  0  0  0  0
  147.4589  138.6509  155.3655 N   0  0  0  0  0  0  0  0  0  0  0  0
  146.6960  137.5549  155.3799 C   0  0  0  0  0  0  0  0  0  0  0  0
  146.0929  136.9463  154.3588 N   0  0  0  0  0  0  0  0  0  0  0  0
  146.3507  137.5862  153.1832 C   0  0  0  0  0  0  0  0  0  0  0  0
  147.1440  138.7571  153.0117 C   0  0  0  0  0  0  0  0  0  0  0  0
  147.1970  139.0876  151.6609 N   0  0  0  0  0  0  0  0  0  0  0  0
  146.4581  138.1858  151.0758 C   0  0  0  0  0  0  0  0  0  0  0  0
  145.9032  137.2510  151.9183 N   0  0  0  0  0  0  0  0  0  0  0  0
  145.0421  136.1425  151.5484 C   0  0  0  0  0  0  0  0  0  0  0  0
  145.6116  134.7518  151.9371 C   0  0  1  0  0  0  0  0  0  0  0  0
  145.0480  134.2422  153.2888 C   0  0  0  0  0  0  0  0  0  0  0  0
  143.6350  134.2357  153.3033 O   0  0  0  0  0  0  0  0  0  0  0  0
  145.3601  133.7234  150.8033 C   0  0  2  0  0  0  0  0  0  0  0  0
  143.9006  133.5757  150.3872 C   0  0  0  0  0  0  0  0  0  0  0  0
  143.7986  132.1459  149.8501 C   0  0  0  0  0  0  0  0  0  0  0  0
  145.0321  131.5135  150.1671 O   0  0  0  0  0  0  0  0  0  0  0  0
  145.6928  132.2741  151.1641 C   0  0  0  0  0  0  0  0  0  0  0  0
  149.2845  140.7189  155.4364 C   0  0  2  0  0  0  0  0  0  0  0  0
  148.9690  142.1125  156.0041 C   0  0  0  0  0  0  0  0  0  0  0  0
  150.7966  140.5323  155.1844 C   0  0  0  0  0  0  0  0  0  0  0  0
  151.7892  140.4206  156.7445 S   0  0  0  0  0  0  0  0  0  0  0  0
  150.8291  139.2141  157.7493 C   0  0  0  0  0  0  0  0  0  0  0  0
  153.0786  139.7939  156.4173 O   0  0  0  0  0  0  0  0  0  0  0  0
  151.7624  141.7192  157.4352 O   0  0  0  0  0  0  0  0  0  0  0  0
  147.1493  142.8159  152.1603 H   0  0  0  0  0  0  0  0  0  0  0  0
  146.9202  142.6902  153.9016 H   0  0  0  0  0  0  0  0  0  0  0  0
  146.2841  141.4399  152.8331 H   0  0  0  0  0  0  0  0  0  0  0  0
  148.6503  140.8145  152.1810 H   0  0  0  0  0  0  0  0  0  0  0  0
  149.2581  142.0766  153.2068 H   0  0  0  0  0  0  0  0  0  0  0  0
  146.5458  137.1023  156.3487 H   0  0  0  0  0  0  0  0  0  0  0  0
  146.2917  138.1819  150.0085 H   0  0  0  0  0  0  0  0  0  0  0  0
  144.0658  136.2917  152.0111 H   0  0  0  0  0  0  0  0  0  0  0  0
  144.8864  136.2108  150.4721 H   0  0  0  0  0  0  0  0  0  0  0  0
  146.6935  134.8476  152.0419 H   0  0  0  0  0  0  0  0  0  0  0  0
  145.4220  133.2430  153.5139 H   0  0  0  0  0  0  0  0  0  0  0  0
  145.3559  134.8835  154.1133 H   0  0  0  0  0  0  0  0  0  0  0  0
  143.3402  133.4404  153.7200 H   0  0  0  0  0  0  0  0  0  0  0  0
  145.9459  133.9992  149.9247 H   0  0  0  0  0  0  0  0  0  0  0  0
  143.2436  133.6866  151.2510 H   0  0  0  0  0  0  0  0  0  0  0  0
  143.6002  134.3136  149.6427 H   0  0  0  0  0  0  0  0  0  0  0  0
  142.9703  131.6114  150.3165 H   0  0  0  0  0  0  0  0  0  0  0  0
  143.6486  132.1287  148.7704 H   0  0  0  0  0  0  0  0  0  0  0  0
  146.7631  132.0674  151.1573 H   0  0  0  0  0  0  0  0  0  0  0  0
  145.2956  132.0103  152.1458 H   0  0  0  0  0  0  0  0  0  0  0  0
  149.0391  140.0091  156.2232 H   0  0  0  0  0  0  0  0  0  0  0  0
  149.5112  142.2879  156.9333 H   0  0  0  0  0  0  0  0  0  0  0  0
  147.9055  142.2144  156.2220 H   0  0  0  0  0  0  0  0  0  0  0  0
  149.2440  142.9046  155.3076 H   0  0  0  0  0  0  0  0  0  0  0  0
  151.0201  139.6698  154.5579 H   0  0  0  0  0  0  0  0  0  0  0  0
  151.1727  141.4060  154.6513 H   0  0  0  0  0  0  0  0  0  0  0  0
  151.3700  139.0051  158.6718 H   0  0  0  0  0  0  0  0  0  0  0  0
  150.7021  138.2883  157.1892 H   0  0  0  0  0  0  0  0  0  0  0  0
  149.8541  139.6256  157.9986 H   0  0  0  0  0  0  0  0  0  0  0  0
  1  2  1  0  0  0  0
  1 29  1  0  0  0  0
  1 30  1  0  0  0  0
  1 31  1  0  0  0  0
  2  3  1  0  0  0  0
  2 32  1  0  0  0  0
  2 33  1  0  0  0  0
  3  4  1  0  0  0  0
  3 22  1  0  0  0  0
  4  9  1  0  0  0  0
  4  5  2  0  0  0  0
  5  6  1  0  0  0  0
  6  7  2  0  0  0  0
  6 34  1  0  0  0  0
  7  8  1  0  0  0  0
  8 12  1  0  0  0  0
  8  9  2  0  0  0  0
  9 10  1  0  0  0  0
 10 11  2  0  0  0  0
 11 12  1  0  0  0  0
 11 35  1  0  0  0  0
 12 13  1  0  0  0  0
 13 14  1  0  0  0  0
 13 36  1  0  0  0  0
 13 37  1  0  0  0  0
 14 15  1  0  0  0  0
 14 17  1  0  0  0  0
 14 38  1  0  0  0  0
 15 16  1  0  0  0  0
 15 39  1  0  0  0  0
 15 40  1  0  0  0  0
 16 41  1  0  0  0  0
 17 21  1  0  0  0  0
 17 18  1  0  0  0  0
 17 42  1  0  0  0  0
 18 19  1  0  0  0  0
 18 43  1  0  0  0  0
 18 44  1  0  0  0  0
 19 20  1  0  0  0  0
 19 45  1  0  0  0  0
 19 46  1  0  0  0  0
 20 21  1  0  0  0  0
 21 47  1  0  0  0  0
 21 48  1  0  0  0  0
 22 23  1  0  0  0  0
 22 24  1  0  0  0  0
 22 49  1  0  0  0  0
 23 50  1  0  0  0  0
 23 51  1  0  0  0  0
 23 52  1  0  0  0  0
 24 25  1  0  0  0  0
 24 53  1  0  0  0  0
 24 54  1  0  0  0  0
 25 26  1  0  0  0  0
 25 27  2  0  0  0  0
 25 28  2  0  0  0  0
 26 55  1  0  0  0  0
 26 56  1  0  0  0  0
 26 57  1  0  0  0  0
M  END
> <s_m_source_file>
AV-unprocessed.smi

> <i_m_source_file_index>
17

> <i_lp_mmshare_version>
43012

> <i_f3d_flags>
0

> <s_epik_input>
W0NIM11TKD1PKSg9TylbQ0gyXVtDQEBIXShbQ0gzXSlOKFtDSDJdW0NIM10pYyhuW2NIXW4xKWMoYzEyKW5bY0hdbjJbQ0gyXVtDQEhdKFtDSDJdW09IXSlbQ0BASF0zW0NIMl1bQ0gyXU9bQ0gyXTM=

> <s_epik_cmdline>
J2VwaWtfcHl0aG9uJywgJy1waCcsICc3LjAnLCAnLXRuJywgJzgnLCAnLW1hJywgJzIwMCcsICctbWV0YWxfYmluZGluZycsICctaW1hZScsICc8aW5maWxlLm1hZT4nLCAnLW9tYWUnLCAnPG91dGZpbGUubWFlPic=

> <r_lp_tautomer_probability>
1

> <r_epik_Ionization_Penalty>
0.00119955

> <r_epik_Ionization_Penalty_Charging>
0

> <r_epik_Ionization_Penalty_Neutral>
0.00119955

> <r_epik_State_Penalty>
0.000665399

> <r_epik_Charging_Adjusted_Penalty>
0.000665399

> <i_epik_Tot_Q>
0

> <i_epik_Tot_abs_Q>
0

> <r_epik_Metal_State_Penalty>
-0

> <b_epik_Metal_Only>
0

> <s_lp_Force_Field>
OPLS_2005

> <r_lp_Energy>
33.0306

> <b_lp_Chiralities_Consistent>
1

> <s_lp_Variant>
AV-unprocessed.smi:17-2

> <Gold.Version>
5.8.1

> <Gold.Id.Protein>
6NUR|6NUR_protein|mol2

> <Gold.PLP.Fitness>
45.4270

> <Gold.PLP.PLP>
-39.2693

> <Gold.PLP.part.hbond>
-1.8314

> <Gold.PLP.part.metal>
0.0000

> <Gold.PLP.part.buried>
-7.0667

> <Gold.PLP.part.nonpolar>
-33.4549

> <Gold.PLP.part.repulsive>
2.2665

> <Gold.PLP.ligand.clash>
0.0000

> <Gold.PLP.ligand.torsion>
1.3962

> <Gold.PLP.Chemscore.Hbond>
2.0000

> <Gold.PLP.Chemscore.CHOScore>
0.7907

> <Gold.PLP.Chemscore.Metal>
0.0000

> <Gold.Chemscore.Hbonds>
donor molecule, donor type, donor heavy atom, donor atom, acceptor molecule, acceptor atom, score
      L1  H    16    41       P1 10957  0.84
      P1  H  7997  8010       L1    27  0.42
      L1  C    11    35       P1 10171  0.49

> <Gold.PLP.Chemscore.Internal.Correction>
0.5781

> <Gold.Rescore>
     Score         DG    S(hbond)    S(metal)    S(lipo)     H(rot)  DE(clash)    DE(int)     intcor
      8.99     -12.30       1.99        0.00      78.25       3.51       0.43       2.88       ----

> <Gold.Chemscore.Fitness>
8.9924

> <Gold.Chemscore.DG>
-12.2964

> <Gold.Chemscore.ZeroCoef>
-5.4800

> <Gold.Chemscore.Hbond>
1.9867

> <Gold.Chemscore.Metal>
0.0000

> <Gold.Chemscore.Lipo>
78.2539

> <Gold.Chemscore.Internal_Hbond>
0.0000

> <Gold.Chemscore.DEClash>
0.4286

> <Gold.Chemscore.DEInternal>
2.8754

> <Gold.Chemscore.Rot>
3.5059

> <Gold.Chemscore.Internal.Correction>
   9.000000E+99

> <Gold.Chemscore.Hbonds>
donor molecule, donor type, donor heavy atom, donor atom, acceptor molecule, acceptor atom, score
      L1  H    16    41       P1 10957  0.82
      P1  H  7997  8010       L1    27  0.41

> <Gold.Chemscore.Hbond.Weighted>
-6.6357

> <Gold.Chemscore.Metal.Weighted>
-0.0000

> <Gold.Chemscore.Lipo.Weighted>
-9.1557

> <Gold.Chemscore.Internal_Hbond.Weighted>
0.0000

> <Gold.Chemscore.DEClash.Weighted>
0.4286

> <Gold.Chemscore.DEInternal.Weighted>
2.8754

> <Gold.Chemscore.Rot.Weighted>
8.9750

> <Gold.Chemscore.Internal.Correction.Weighted>
   9.000000E+99

> <Gold.Protein.RotatedTorsions>
[ 6907 6896 6895 6894 ] final  -42.27 input  -60.11 | X-H torsion
[ 7974 7965 7964 7962 ] final -114.69 input  175.53 | X-H torsion
[ 8008 7997 7996 7995 ] final   75.72 input   59.86 | X-H torsion
[ 10167 10162 10161 10158 ] final  -33.98 input  -65.29 | X-H torsion
[ 10718 10713 10712 10709 ] final  -98.01 input   66.30 | X-H torsion
[ 10763 10752 10751 10750 ] final   66.89 input  -60.55 | X-H torsion
[ 11005 11000 10999 10996 ] final -166.49 input  -57.11 | X-H torsion

> <Gold.Protein.ActiveResidues>
 VAL166  LYS551  ARG553  GLY616  TRP617  ASP618  TYR619  PRO620  LYS621  CYS622 
 ASP623  PHE694  ASN695  SER759  ASP760  ASP761  ALA762  ILE779  LEU786  VAL792 
 PHE793  MET794  SER795  GLU796  ALA797  LYS798  CYS799  TRP800  GLU811  SER814 

> <Gold.Protein.RotatedAtoms>
  150.9572  134.8965  159.7708 H   0  0  0  0  0  0  0  0  0  0  0  0  # atno 6907 bound_to 6896
  152.5142  134.3723  159.9332 H   0  0  0  0  0  0  0  0  0  0  0  0  # atno 6908 bound_to 6896
  151.3737  133.3805  159.2737 H   0  0  0  0  0  0  0  0  0  0  0  0  # atno 6909 bound_to 6896
  145.1172  140.8647  143.3835 H   0  0  0  0  0  0  0  0  0  0  0  0  # atno 7974 bound_to 7965
  155.8171  140.3471  155.5492 H   0  0  0  0  0  0  0  0  0  0  0  0  # atno 8008 bound_to 7997
  155.8381  140.0937  157.1771 H   0  0  0  0  0  0  0  0  0  0  0  0  # atno 8009 bound_to 7997
  154.4004  140.1399  156.3683 H   0  0  0  0  0  0  0  0  0  0  0  0  # atno 8010 bound_to 7997
  140.7194  143.3581  151.2018 H   0  0  0  0  0  0  0  0  0  0  0  0  # atno 10167 bound_to 10162
  156.0097  130.5219  150.6459 H   0  0  0  0  0  0  0  0  0  0  0  0  # atno 10718 bound_to 10713
  153.0160  135.5304  154.6894 H   0  0  0  0  0  0  0  0  0  0  0  0  # atno 10763 bound_to 10752
  154.6033  135.2870  155.0514 H   0  0  0  0  0  0  0  0  0  0  0  0  # atno 10764 bound_to 10752
  154.1563  135.6555  153.5028 H   0  0  0  0  0  0  0  0  0  0  0  0  # atno 10765 bound_to 10752
  140.5639  134.5305  157.5149 H   0  0  0  0  0  0  0  0  0  0  0  0  # atno 11005 bound_to 11000
  145.0781  139.2980  143.5798 LP  0  0  0  0  0  0  0  0  0  0  0  0  # atno 17320 bound_to 7965
  146.3523  140.0278  142.8653 LP  0  0  0  0  0  0  0  0  0  0  0  0  # atno 17321 bound_to 7965
  139.7127  143.9351  152.2954 LP  0  0  0  0  0  0  0  0  0  0  0  0  # atno 17342 bound_to 10162
  139.9081  144.6872  150.8592 LP  0  0  0  0  0  0  0  0  0  0  0  0  # atno 17343 bound_to 10162
  157.4230  131.0839  151.1113 LP  0  0  0  0  0  0  0  0  0  0  0  0  # atno 17370 bound_to 10713
  157.1709  130.6267  149.5640 LP  0  0  0  0  0  0  0  0  0  0  0  0  # atno 17371 bound_to 10713
  139.9394  134.7814  156.0717 LP  0  0  0  0  0  0  0  0  0  0  0  0  # atno 17394 bound_to 11000
  141.1098  133.6647  156.2950 LP  0  0  0  0  0  0  0  0  0  0  0  0  # atno 17395 bound_to 11000

$$$$
