AV-unprocessed.smi:2100|AV-procd|sdf|8573|dock8
  -GOLD-   2272011303D 1   1.00000     0.00000
 Structure written by MMmdl.
 41 42  0  0  0  0  0  0  0  0  1 V2000
  145.6014  141.6677  157.0594 C   0  0  0  0  0  0  0  0  0  0  0  0
  146.6327  141.2129  156.0210 C   0  0  2  0  0  0  0  0  0  0  0  0
  148.0301  141.0367  156.6392 C   0  0  0  0  0  0  0  0  0  0  0  0
  149.0274  140.7292  155.6017 N   0  0  0  0  0  0  0  0  0  0  0  0
  150.5741  140.1552  156.1242 S   0  0  0  0  0  0  0  0  0  0  0  0
  150.3986  139.3644  157.3521 O   0  0  0  0  0  0  0  0  0  0  0  0
  151.2855  139.5996  154.9629 O   0  0  0  0  0  0  0  0  0  0  0  0
  151.3016  141.6592  156.5596 N   0  0  0  0  0  0  0  0  0  0  0  0
  150.5983  142.5777  157.4569 C   0  0  0  0  0  0  0  0  0  0  0  0
  151.5251  143.6955  157.9609 C   0  0  0  0  0  0  0  0  0  0  0  0
  152.0316  143.4257  159.3651 C   0  0  0  0  0  0  0  0  0  0  0  0
  152.8468  142.3057  159.6354 C   0  0  0  0  0  0  0  0  0  0  0  0
  153.2973  142.1070  160.9550 C   0  0  0  0  0  0  0  0  0  0  0  0
  152.9188  143.0315  161.9475 C   0  0  0  0  0  0  0  0  0  0  0  0
  152.1028  144.1184  161.5749 C   0  0  0  0  0  0  0  0  0  0  0  0
  151.6654  144.3180  160.3129 N   0  0  0  0  0  0  0  0  0  0  0  0
  149.0156  141.6934  154.4907 C   0  0  0  0  0  0  0  0  0  0  0  0
  147.5930  141.9034  153.9367 C   0  0  1  0  0  0  0  0  0  0  0  0
  147.1066  140.7422  153.0509 C   0  0  0  0  0  0  0  0  0  0  0  0
  146.6796  142.1944  154.9919 O   0  0  0  0  0  0  0  0  0  0  0  0
  145.5152  140.9444  157.8707 H   0  0  0  0  0  0  0  0  0  0  0  0
  144.6157  141.7773  156.6064 H   0  0  0  0  0  0  0  0  0  0  0  0
  145.8764  142.6288  157.4949 H   0  0  0  0  0  0  0  0  0  0  0  0
  146.2944  140.2619  155.6094 H   0  0  0  0  0  0  0  0  0  0  0  0
  148.3341  141.9465  157.1589 H   0  0  0  0  0  0  0  0  0  0  0  0
  148.0057  140.2406  157.3828 H   0  0  0  0  0  0  0  0  0  0  0  0
  151.7327  142.1263  155.7622 H   0  0  0  0  0  0  0  0  0  0  0  0
  149.7600  143.0131  156.9125 H   0  0  0  0  0  0  0  0  0  0  0  0
  150.1775  142.0150  158.2911 H   0  0  0  0  0  0  0  0  0  0  0  0
  152.3871  143.8043  157.3018 H   0  0  0  0  0  0  0  0  0  0  0  0
  151.0014  144.6525  157.9432 H   0  0  0  0  0  0  0  0  0  0  0  0
  153.1226  141.6153  158.8518 H   0  0  0  0  0  0  0  0  0  0  0  0
  153.9224  141.2613  161.2010 H   0  0  0  0  0  0  0  0  0  0  0  0
  153.2459  142.9113  162.9696 H   0  0  0  0  0  0  0  0  0  0  0  0
  151.7934  144.8467  162.3097 H   0  0  0  0  0  0  0  0  0  0  0  0
  149.4152  142.6412  154.8538 H   0  0  0  0  0  0  0  0  0  0  0  0
  149.6810  141.3562  153.6958 H   0  0  0  0  0  0  0  0  0  0  0  0
  147.6129  142.7916  153.3045 H   0  0  0  0  0  0  0  0  0  0  0  0
  147.7381  140.6399  152.1681 H   0  0  0  0  0  0  0  0  0  0  0  0
  146.0865  140.9152  152.7075 H   0  0  0  0  0  0  0  0  0  0  0  0
  147.1279  139.7862  153.5735 H   0  0  0  0  0  0  0  0  0  0  0  0
  1  2  1  0  0  0  0
  1 21  1  0  0  0  0
  1 22  1  0  0  0  0
  1 23  1  0  0  0  0
  2 20  1  0  0  0  0
  2  3  1  0  0  0  0
  2 24  1  0  0  0  0
  3  4  1  0  0  0  0
  3 25  1  0  0  0  0
  3 26  1  0  0  0  0
  4  5  1  0  0  0  0
  4 17  1  0  0  0  0
  5  6  2  0  0  0  0
  5  7  2  0  0  0  0
  5  8  1  0  0  0  0
  8  9  1  0  0  0  0
  8 27  1  0  0  0  0
  9 10  1  0  0  0  0
  9 28  1  0  0  0  0
  9 29  1  0  0  0  0
 10 11  1  0  0  0  0
 10 30  1  0  0  0  0
 10 31  1  0  0  0  0
 11 16  1  0  0  0  0
 11 12  2  0  0  0  0
 12 13  1  0  0  0  0
 12 32  1  0  0  0  0
 13 14  2  0  0  0  0
 13 33  1  0  0  0  0
 14 15  1  0  0  0  0
 14 34  1  0  0  0  0
 15 16  2  0  0  0  0
 15 35  1  0  0  0  0
 17 18  1  0  0  0  0
 17 36  1  0  0  0  0
 17 37  1  0  0  0  0
 18 19  1  0  0  0  0
 18 20  1  0  0  0  0
 18 38  1  0  0  0  0
 19 39  1  0  0  0  0
 19 40  1  0  0  0  0
 19 41  1  0  0  0  0
M  END
> <s_m_source_file>
AV-unprocessed.smi

> <i_m_source_file_index>
2100

> <i_lp_mmshare_version>
43012

> <i_f3d_flags>
0

> <s_epik_input>
W0NIM11bQ0BASF0xW0NIMl1OKFtDSDJdW0NASF0oTzEpW0NIM10pUyg9TykoPU8pW05IXVtDSDJdW0NIMl1jMltjSF1bY0hdW2NIXVtjSF1uMg==

> <s_epik_cmdline>
J2VwaWtfcHl0aG9uJywgJy1waCcsICc3LjAnLCAnLXRuJywgJzgnLCAnLW1hJywgJzIwMCcsICctbWV0YWxfYmluZGluZycsICctaW1hZScsICc8aW5maWxlLm1hZT4nLCAnLW9tYWUnLCAnPG91dGZpbGUubWFlPic=

> <r_epik_Ionization_Penalty>
0.085378

> <r_epik_Ionization_Penalty_Charging>
0

> <r_epik_Ionization_Penalty_Neutral>
0.085378

> <r_epik_State_Penalty>
0.0441186

> <r_epik_Charging_Adjusted_Penalty>
0.0441186

> <i_epik_Tot_Q>
0

> <i_epik_Tot_abs_Q>
0

> <r_epik_Metal_State_Penalty>
0.24397

> <b_epik_Metal_Only>
0

> <s_lp_Force_Field>
OPLS_2005

> <r_lp_Energy>
7.96462

> <b_lp_Chiralities_Consistent>
1

> <s_lp_Variant>
AV-unprocessed.smi:2100-1

> <Gold.Version>
5.8.1

> <Gold.Id.Protein>
6NUR|6NUR_protein|mol2

> <Gold.PLP.Fitness>
42.1980

> <Gold.PLP.PLP>
-40.3093

> <Gold.PLP.part.hbond>
-1.0000

> <Gold.PLP.part.metal>
0.0000

> <Gold.PLP.part.buried>
-3.9068

> <Gold.PLP.part.nonpolar>
-34.6215

> <Gold.PLP.part.repulsive>
0.3517

> <Gold.PLP.ligand.clash>
0.0000

> <Gold.PLP.ligand.torsion>
0.9246

> <Gold.PLP.Chemscore.Hbond>
1.0000

> <Gold.PLP.Chemscore.CHOScore>
0.0000

> <Gold.PLP.Chemscore.Metal>
0.0000

> <Gold.Chemscore.Hbonds>
donor molecule, donor type, donor heavy atom, donor atom, acceptor molecule, acceptor atom, score
      P1  H  7989  7998       L1     7  1.00

> <Gold.PLP.Chemscore.Internal.Correction>
0.7379

> <Gold.Rescore>
     Score         DG    S(hbond)    S(metal)    S(lipo)     H(rot)  DE(clash)    DE(int)     intcor
     15.35     -16.84       0.94        0.00     107.51       1.71       0.50       0.98       ----

> <Gold.Chemscore.Fitness>
15.3543

> <Gold.Chemscore.DG>
-16.8362

> <Gold.Chemscore.ZeroCoef>
-5.4800

> <Gold.Chemscore.Hbond>
0.9418

> <Gold.Chemscore.Metal>
0.0000

> <Gold.Chemscore.Lipo>
107.5052

> <Gold.Chemscore.Internal_Hbond>
0.0000

> <Gold.Chemscore.DEClash>
0.5030

> <Gold.Chemscore.DEInternal>
0.9789

> <Gold.Chemscore.Rot>
1.7060

> <Gold.Chemscore.Internal.Correction>
   9.000000E+99

> <Gold.Chemscore.Hbonds>
donor molecule, donor type, donor heavy atom, donor atom, acceptor molecule, acceptor atom, score
      P1  H  7989  7998       L1     7  0.91

> <Gold.Chemscore.Hbond.Weighted>
-3.1455

> <Gold.Chemscore.Metal.Weighted>
-0.0000

> <Gold.Chemscore.Lipo.Weighted>
-12.5781

> <Gold.Chemscore.Internal_Hbond.Weighted>
0.0000

> <Gold.Chemscore.DEClash.Weighted>
0.5030

> <Gold.Chemscore.DEInternal.Weighted>
0.9789

> <Gold.Chemscore.Rot.Weighted>
4.3674

> <Gold.Chemscore.Internal.Correction.Weighted>
   9.000000E+99

> <Gold.Protein.RotatedTorsions>
[ 6907 6896 6895 6894 ] final -128.35 input  -60.11 | X-H torsion
[ 7974 7965 7964 7962 ] final   26.16 input  175.53 | X-H torsion
[ 8008 7997 7996 7995 ] final   93.22 input   59.86 | X-H torsion
[ 10167 10162 10161 10158 ] final  -63.35 input  -65.29 | X-H torsion
[ 10718 10713 10712 10709 ] final  -54.14 input   66.30 | X-H torsion
[ 10763 10752 10751 10750 ] final  157.88 input  -60.55 | X-H torsion
[ 11005 11000 10999 10996 ] final  177.22 input  -57.11 | X-H torsion

> <Gold.Protein.ActiveResidues>
 VAL166  LYS551  ARG553  GLY616  TRP617  ASP618  TYR619  PRO620  LYS621  CYS622 
 ASP623  PHE694  ASN695  SER759  ASP760  ASP761  ALA762  ILE779  LEU786  VAL792 
 PHE793  MET794  SER795  GLU796  ALA797  LYS798  CYS799  TRP800  GLU811  SER814 

> <Gold.Protein.RotatedAtoms>
  150.9170  133.6927  159.2840 H   0  0  0  0  0  0  0  0  0  0  0  0  # atno 6907 bound_to 6896
  151.4394  135.1017  159.9675 H   0  0  0  0  0  0  0  0  0  0  0  0  # atno 6908 bound_to 6896
  152.4960  133.8582  159.7291 H   0  0  0  0  0  0  0  0  0  0  0  0  # atno 6909 bound_to 6896
  146.1852  139.7367  142.8872 H   0  0  0  0  0  0  0  0  0  0  0  0  # atno 7974 bound_to 7965
  156.0443  140.3315  155.7278 H   0  0  0  0  0  0  0  0  0  0  0  0  # atno 8008 bound_to 7997
  155.5698  140.0627  157.2827 H   0  0  0  0  0  0  0  0  0  0  0  0  # atno 8009 bound_to 7997
  154.4407  140.1863  156.0856 H   0  0  0  0  0  0  0  0  0  0  0  0  # atno 8010 bound_to 7997
  140.5877  143.2336  151.6208 H   0  0  0  0  0  0  0  0  0  0  0  0  # atno 10167 bound_to 10162
  156.1476  130.4152  149.9999 H   0  0  0  0  0  0  0  0  0  0  0  0  # atno 10718 bound_to 10713
  154.2072  135.2787  155.2970 H   0  0  0  0  0  0  0  0  0  0  0  0  # atno 10763 bound_to 10752
  154.5807  135.5590  153.7186 H   0  0  0  0  0  0  0  0  0  0  0  0  # atno 10764 bound_to 10752
  153.0073  135.6344  154.2211 H   0  0  0  0  0  0  0  0  0  0  0  0  # atno 10765 bound_to 10752
  140.3817  134.6941  157.4455 H   0  0  0  0  0  0  0  0  0  0  0  0  # atno 11005 bound_to 11000
  145.3960  141.0379  143.3097 LP  0  0  0  0  0  0  0  0  0  0  0  0  # atno 17320 bound_to 7965
  144.8384  139.5512  143.6911 LP  0  0  0  0  0  0  0  0  0  0  0  0  # atno 17321 bound_to 7965
  139.5207  144.3213  152.0908 LP  0  0  0  0  0  0  0  0  0  0  0  0  # atno 17342 bound_to 10162
  140.2373  144.4306  150.6275 LP  0  0  0  0  0  0  0  0  0  0  0  0  # atno 17343 bound_to 10162
  156.7866  130.9241  151.3646 LP  0  0  0  0  0  0  0  0  0  0  0  0  # atno 17370 bound_to 10713
  157.6629  130.8982  149.9870 LP  0  0  0  0  0  0  0  0  0  0  0  0  # atno 17371 bound_to 10713
  140.0474  134.6180  155.8904 LP  0  0  0  0  0  0  0  0  0  0  0  0  # atno 17394 bound_to 11000
  141.1921  133.6574  156.5487 LP  0  0  0  0  0  0  0  0  0  0  0  0  # atno 17395 bound_to 11000

$$$$
