AV-unprocessed.smi:1032|AV-procd|sdf|4484|dock3
  -GOLD-   22720 2463D 1   1.00000     0.00000
 Structure written by MMmdl.
 46 47  0  0  0  0  0  0  0  0  2 V2000
  145.9201  131.7071  149.4387 C   0  0  0  0  0  0  0  0  0  0  0  0
  144.4119  132.0095  149.3968 C   0  0  2  0  0  0  0  0  0  0  0  0
  144.0906  133.3471  148.7057 C   0  0  0  0  0  0  0  0  0  0  0  0
  144.4373  134.5587  149.5893 C   0  0  0  0  0  0  0  0  0  0  0  0
  143.7558  134.4761  150.9067 N   0  3  2  0  0  0  0  0  0  0  0  0
  143.9520  135.7053  151.7186 C   0  0  0  0  0  0  0  0  0  0  0  0
  145.3733  136.2904  151.5845 C   0  0  2  0  0  0  0  0  0  0  0  0
  146.2946  135.2679  151.9126 O   0  0  0  0  0  0  0  0  0  0  0  0
  145.5974  137.4665  152.5571 C   0  0  0  0  0  0  0  0  0  0  0  0
  147.0041  137.6164  152.9164 N   0  0  0  0  0  0  0  0  0  0  0  0
  147.5067  138.6263  153.6416 C   0  0  0  0  0  0  0  0  0  0  0  0
  146.8222  139.5566  154.0678 O   0  0  0  0  0  0  0  0  0  0  0  0
  148.8338  138.4943  153.8104 N   0  0  0  0  0  0  0  0  0  0  0  0
  149.7160  139.3125  154.5678 C   0  0  0  0  0  0  0  0  0  0  0  0
  149.2563  140.5851  154.9657 C   0  0  0  0  0  0  0  0  0  0  0  0
  150.1223  141.4224  155.6971 C   0  0  0  0  0  0  0  0  0  0  0  0
  151.3822  141.0741  156.0330 N   0  0  0  0  0  0  0  0  0  0  0  0
  151.8255  139.8616  155.6391 C   0  0  0  0  0  0  0  0  0  0  0  0
  151.0417  138.9482  154.9057 C   0  0  0  0  0  0  0  0  0  0  0  0
  144.1139  133.2251  151.6274 C   0  0  0  0  0  0  0  0  0  0  0  0
  143.7594  131.9823  150.7910 C   0  0  0  0  0  0  0  0  0  0  0  0
  146.4739  132.4489  150.0134 H   0  0  0  0  0  0  0  0  0  0  0  0
  146.3418  131.6881  148.4333 H   0  0  0  0  0  0  0  0  0  0  0  0
  146.1099  130.7327  149.8896 H   0  0  0  0  0  0  0  0  0  0  0  0
  143.9554  131.2154  148.8045 H   0  0  0  0  0  0  0  0  0  0  0  0
  144.6154  133.4153  147.7522 H   0  0  0  0  0  0  0  0  0  0  0  0
  143.0267  133.3787  148.4670 H   0  0  0  0  0  0  0  0  0  0  0  0
  145.5156  134.6311  149.7378 H   0  0  0  0  0  0  0  0  0  0  0  0
  144.1302  135.4693  149.0733 H   0  0  0  0  0  0  0  0  0  0  0  0
  143.2040  136.4448  151.4279 H   0  0  0  0  0  0  0  0  0  0  0  0
  143.7671  135.4868  152.7718 H   0  0  0  0  0  0  0  0  0  0  0  0
  145.5512  136.6168  150.5605 H   0  0  0  0  0  0  0  0  0  0  0  0
  147.1268  135.6642  152.1229 H   0  0  0  0  0  0  0  0  0  0  0  0
  145.2599  138.3990  152.1008 H   0  0  0  0  0  0  0  0  0  0  0  0
  145.0011  137.3478  153.4627 H   0  0  0  0  0  0  0  0  0  0  0  0
  147.6364  136.8970  152.5962 H   0  0  0  0  0  0  0  0  0  0  0  0
  149.2722  137.7334  153.3125 H   0  0  0  0  0  0  0  0  0  0  0  0
  148.2577  140.9175  154.7221 H   0  0  0  0  0  0  0  0  0  0  0  0
  149.7943  142.3997  156.0184 H   0  0  0  0  0  0  0  0  0  0  0  0
  152.8407  139.6133  155.9106 H   0  0  0  0  0  0  0  0  0  0  0  0
  151.4738  138.0052  154.6090 H   0  0  0  0  0  0  0  0  0  0  0  0
  145.1774  133.2317  151.8698 H   0  0  0  0  0  0  0  0  0  0  0  0
  143.5814  133.1658  152.5755 H   0  0  0  0  0  0  0  0  0  0  0  0
  142.6756  131.9325  150.6768 H   0  0  0  0  0  0  0  0  0  0  0  0
  144.0474  131.0762  151.3252 H   0  0  0  0  0  0  0  0  0  0  0  0
  142.7663  134.4276  150.7081 H   0  0  0  0  0  0  0  0  0  0  0  0
  1  2  1  0  0  0  0
  1 22  1  0  0  0  0
  1 23  1  0  0  0  0
  1 24  1  0  0  0  0
  2 21  1  0  0  0  0
  2  3  1  0  0  0  0
  2 25  1  0  0  0  0
  3  4  1  0  0  0  0
  3 26  1  0  0  0  0
  3 27  1  0  0  0  0
  4  5  1  0  0  0  0
  4 28  1  0  0  0  0
  4 29  1  0  0  0  0
  5  6  1  0  0  0  0
  5 20  1  0  0  0  0
  5 46  1  0  0  0  0
  6  7  1  0  0  0  0
  6 30  1  0  0  0  0
  6 31  1  0  0  0  0
  7  8  1  0  0  0  0
  7  9  1  0  0  0  0
  7 32  1  0  0  0  0
  8 33  1  0  0  0  0
  9 10  1  0  0  0  0
  9 34  1  0  0  0  0
  9 35  1  0  0  0  0
 10 11  1  0  0  0  0
 10 36  1  0  0  0  0
 11 12  2  0  0  0  0
 11 13  1  0  0  0  0
 13 14  1  0  0  0  0
 13 37  1  0  0  0  0
 14 19  1  0  0  0  0
 14 15  2  0  0  0  0
 15 16  1  0  0  0  0
 15 38  1  0  0  0  0
 16 17  2  0  0  0  0
 16 39  1  0  0  0  0
 17 18  1  0  0  0  0
 18 19  2  0  0  0  0
 18 40  1  0  0  0  0
 19 41  1  0  0  0  0
 20 21  1  0  0  0  0
 20 42  1  0  0  0  0
 20 43  1  0  0  0  0
 21 44  1  0  0  0  0
 21 45  1  0  0  0  0
M  CHG  1   5   1
M  END
> <s_m_source_file>
AV-unprocessed.smi

> <i_m_source_file_index>
1032

> <i_lp_mmshare_version>
43012

> <i_f3d_flags>
0

> <s_epik_input>
W0NIM11bQ0hdMVtDSDJdW0NIMl1OKFtDSDJdW0NIMl0xKVtDSDJdW0NASF0oW09IXSlbQ0gyXVtOSF1DKD1PKVtOSF1jMltjSF1bY0hdbltjSF1bY0hdMg==

> <s_epik_cmdline>
J2VwaWtfcHl0aG9uJywgJy1waCcsICc3LjAnLCAnLXRuJywgJzgnLCAnLW1hJywgJzIwMCcsICctbWV0YWxfYmluZGluZycsICctaW1hZScsICc8aW5maWxlLm1hZT4nLCAnLW9tYWUnLCAnPG91dGZpbGUubWFlPic=

> <r_epik_Ionization_Penalty>
0.11743

> <r_epik_Ionization_Penalty_Charging>
0.00147689

> <r_epik_Ionization_Penalty_Neutral>
0.115954

> <r_epik_State_Penalty>
0.105552

> <r_epik_Charging_Adjusted_Penalty>
0.107029

> <i_epik_Tot_Q>
1

> <i_epik_Tot_abs_Q>
1

> <r_epik_Metal_State_Penalty>
0.0881315

> <b_epik_Metal_Only>
0

> <s_lp_Force_Field>
OPLS_2005

> <r_lp_Energy>
27.8134

> <b_lp_Chiralities_Consistent>
1

> <s_lp_Variant>
AV-unprocessed.smi:1032-3

> <Gold.Version>
5.8.1

> <Gold.Id.Protein>
6NUR|6NUR_protein|mol2

> <Gold.PLP.Fitness>
55.6244

> <Gold.PLP.PLP>
-39.2199

> <Gold.PLP.part.hbond>
-5.5777

> <Gold.PLP.part.metal>
0.0000

> <Gold.PLP.part.buried>
4.8829

> <Gold.PLP.part.nonpolar>
-39.7596

> <Gold.PLP.part.repulsive>
0.2719

> <Gold.PLP.ligand.clash>
0.0000

> <Gold.PLP.ligand.torsion>
0.6734

> <Gold.PLP.Chemscore.Hbond>
4.9048

> <Gold.PLP.Chemscore.CHOScore>
1.0000

> <Gold.PLP.Chemscore.Metal>
0.0000

> <Gold.Chemscore.Hbonds>
donor molecule, donor type, donor heavy atom, donor atom, acceptor molecule, acceptor atom, score
      L1  H     5    46       P1 10186  1.69
      L1  H     8    33       P1  7948  1.00
      L1  H    10    36       P1  7948  1.00
      L1  H    13    37       P1  7948  0.77
      L1  C    16    39       P1  8028  1.00

> <Gold.PLP.Chemscore.Internal.Correction>
0.0371

> <Gold.Rescore>
     Score         DG    S(hbond)    S(metal)    S(lipo)     H(rot)  DE(clash)    DE(int)     intcor
     17.93     -24.49       3.28        0.00     118.82       2.29       3.35       3.20       ----

> <Gold.Chemscore.Fitness>
17.9342

> <Gold.Chemscore.DG>
-24.4882

> <Gold.Chemscore.ZeroCoef>
-5.4800

> <Gold.Chemscore.Hbond>
3.2816

> <Gold.Chemscore.Metal>
0.0000

> <Gold.Chemscore.Lipo>
118.8151

> <Gold.Chemscore.Internal_Hbond>
0.0000

> <Gold.Chemscore.DEClash>
3.3498

> <Gold.Chemscore.DEInternal>
3.2042

> <Gold.Chemscore.Rot>
2.2865

> <Gold.Chemscore.Internal.Correction>
   9.000000E+99

> <Gold.Chemscore.Hbonds>
donor molecule, donor type, donor heavy atom, donor atom, acceptor molecule, acceptor atom, score
      L1  H     5    46       P1 10186  0.32
      L1  H     8    33       P1  7948  0.98
      L1  H    10    36       P1  7948  0.99
      L1  H    13    37       P1  7948  0.73

> <Gold.Chemscore.Hbond.Weighted>
-10.9604

> <Gold.Chemscore.Metal.Weighted>
-0.0000

> <Gold.Chemscore.Lipo.Weighted>
-13.9014

> <Gold.Chemscore.Internal_Hbond.Weighted>
0.0000

> <Gold.Chemscore.DEClash.Weighted>
3.3498

> <Gold.Chemscore.DEInternal.Weighted>
3.2042

> <Gold.Chemscore.Rot.Weighted>
5.8536

> <Gold.Chemscore.Internal.Correction.Weighted>
   9.000000E+99

> <Gold.Protein.RotatedTorsions>
[ 6907 6896 6895 6894 ] final   77.55 input  -60.11 | X-H torsion
[ 7974 7965 7964 7962 ] final  -77.87 input  175.53 | X-H torsion
[ 8008 7997 7996 7995 ] final  -69.42 input   59.86 | X-H torsion
[ 10167 10162 10161 10158 ] final  -24.05 input  -65.29 | X-H torsion
[ 10718 10713 10712 10709 ] final   26.04 input   66.30 | X-H torsion
[ 10763 10752 10751 10750 ] final  -30.67 input  -60.55 | X-H torsion
[ 11005 11000 10999 10996 ] final   83.89 input  -57.11 | X-H torsion

> <Gold.Protein.ActiveResidues>
 VAL166  LYS551  ARG553  GLY616  TRP617  ASP618  TYR619  PRO620  LYS621  CYS622 
 ASP623  PHE694  ASN695  SER759  ASP760  ASP761  ALA762  ILE779  LEU786  VAL792 
 PHE793  MET794  SER795  GLU796  ALA797  LYS798  CYS799  TRP800  GLU811  SER814 

> <Gold.Protein.RotatedAtoms>
  152.5122  134.3800  159.9347 H   0  0  0  0  0  0  0  0  0  0  0  0  # atno 6907 bound_to 6896
  151.3757  133.3833  159.2712 H   0  0  0  0  0  0  0  0  0  0  0  0  # atno 6908 bound_to 6896
  150.9543  134.8959  159.7750 H   0  0  0  0  0  0  0  0  0  0  0  0  # atno 6909 bound_to 6896
  145.5939  140.9423  143.1277 H   0  0  0  0  0  0  0  0  0  0  0  0  # atno 7974 bound_to 7965
  154.4937  140.0854  156.7651 H   0  0  0  0  0  0  0  0  0  0  0  0  # atno 8008 bound_to 7997
  155.4167  140.3444  155.4250 H   0  0  0  0  0  0  0  0  0  0  0  0  # atno 8009 bound_to 7997
  156.1365  140.1517  156.8974 H   0  0  0  0  0  0  0  0  0  0  0  0  # atno 8010 bound_to 7997
  140.7288  143.4388  151.0689 H   0  0  0  0  0  0  0  0  0  0  0  0  # atno 10167 bound_to 10162
  157.2015  130.6892  149.6190 H   0  0  0  0  0  0  0  0  0  0  0  0  # atno 10718 bound_to 10713
  153.7848  135.6902  153.4882 H   0  0  0  0  0  0  0  0  0  0  0  0  # atno 10763 bound_to 10752
  153.1788  135.4514  154.9999 H   0  0  0  0  0  0  0  0  0  0  0  0  # atno 10764 bound_to 10752
  154.8067  135.3360  154.7349 H   0  0  0  0  0  0  0  0  0  0  0  0  # atno 10765 bound_to 10752
  139.9017  134.8177  156.2371 H   0  0  0  0  0  0  0  0  0  0  0  0  # atno 11005 bound_to 11000
  144.7339  139.7643  143.7337 LP  0  0  0  0  0  0  0  0  0  0  0  0  # atno 17320 bound_to 7965
  146.1626  139.4746  142.9978 LP  0  0  0  0  0  0  0  0  0  0  0  0  # atno 17321 bound_to 7965
  139.8053  143.8027  152.3167 LP  0  0  0  0  0  0  0  0  0  0  0  0  # atno 17342 bound_to 10162
  139.8057  144.7356  150.9764 LP  0  0  0  0  0  0  0  0  0  0  0  0  # atno 17343 bound_to 10162
  155.9700  130.4581  150.5987 LP  0  0  0  0  0  0  0  0  0  0  0  0  # atno 17370 bound_to 10713
  157.3762  131.0773  151.1516 LP  0  0  0  0  0  0  0  0  0  0  0  0  # atno 17371 bound_to 10713
  141.0309  133.6989  156.1428 LP  0  0  0  0  0  0  0  0  0  0  0  0  # atno 17394 bound_to 11000
  140.7098  134.4474  157.5582 LP  0  0  0  0  0  0  0  0  0  0  0  0  # atno 17395 bound_to 11000

$$$$
