AV-unprocessed.smi:2448|AV-procd|sdf|9652|dock4
  -GOLD-   2272013283D 1   1.00000     0.00000
 Structure written by MMmdl.
 37 38  0  0  0  0  0  0  0  0  1 V2000
  149.7111  142.9335  159.2811 O   0  0  0  0  0  0  0  0  0  0  0  0
  150.8803  142.9164  158.4807 C   0  0  2  0  0  0  0  0  0  0  0  0
  150.6058  142.0292  157.2491 C   0  0  0  0  0  0  0  0  0  0  0  0
  149.3001  142.3173  156.6505 N   0  0  0  0  0  0  0  0  0  0  0  0
  148.6989  141.2547  155.8304 C   0  0  2  0  0  0  0  0  0  0  0  0
  149.7048  140.9221  154.7027 C   0  0  0  0  0  0  0  0  0  0  0  0
  150.4748  139.6274  154.8964 C   0  0  0  0  0  0  0  0  0  0  0  0
  150.1062  138.4564  154.2014 C   0  0  0  0  0  0  0  0  0  0  0  0
  150.8568  137.2832  154.4159 C   0  0  0  0  0  0  0  0  0  0  0  0
  151.9155  137.2224  155.2521 N   0  0  0  0  0  0  0  0  0  0  0  0
  152.2654  138.3481  155.9106 C   0  0  0  0  0  0  0  0  0  0  0  0
  151.5823  139.5725  155.7678 C   0  0  0  0  0  0  0  0  0  0  0  0
  147.2956  141.6502  155.2897 C   0  0  0  0  0  0  0  0  0  0  0  0
  146.6276  140.5865  154.8466 F   0  0  0  0  0  0  0  0  0  0  0  0
  146.5802  142.2373  156.2498 F   0  0  0  0  0  0  0  0  0  0  0  0
  147.3949  142.4897  154.2603 F   0  0  0  0  0  0  0  0  0  0  0  0
  152.0196  142.3501  159.3442 C   0  0  0  0  0  0  0  0  0  0  0  0
  152.4291  143.4307  160.3503 C   0  0  0  0  0  0  0  0  0  0  0  0
  152.2234  145.0370  159.5411 S   0  0  0  0  0  0  0  0  0  0  0  0
  151.3045  144.3559  158.1343 C   0  0  0  0  0  0  0  0  0  0  0  0
  149.4114  142.0444  159.3904 H   0  0  0  0  0  0  0  0  0  0  0  0
  151.3876  142.1939  156.5066 H   0  0  0  0  0  0  0  0  0  0  0  0
  150.6756  140.9857  157.5522 H   0  0  0  0  0  0  0  0  0  0  0  0
  148.6496  142.5837  157.3830 H   0  0  0  0  0  0  0  0  0  0  0  0
  148.5875  140.3625  156.4478 H   0  0  0  0  0  0  0  0  0  0  0  0
  149.1903  140.8962  153.7411 H   0  0  0  0  0  0  0  0  0  0  0  0
  150.4430  141.7218  154.6248 H   0  0  0  0  0  0  0  0  0  0  0  0
  149.2667  138.4514  153.5219 H   0  0  0  0  0  0  0  0  0  0  0  0
  150.6004  136.3691  153.9010 H   0  0  0  0  0  0  0  0  0  0  0  0
  153.1164  138.2719  156.5712 H   0  0  0  0  0  0  0  0  0  0  0  0
  151.9033  140.4461  156.3161 H   0  0  0  0  0  0  0  0  0  0  0  0
  151.7418  141.4196  159.8412 H   0  0  0  0  0  0  0  0  0  0  0  0
  152.8767  142.1240  158.7084 H   0  0  0  0  0  0  0  0  0  0  0  0
  151.7723  143.4013  161.2204 H   0  0  0  0  0  0  0  0  0  0  0  0
  153.4518  143.2970  160.7027 H   0  0  0  0  0  0  0  0  0  0  0  0
  151.9813  144.3483  157.2791 H   0  0  0  0  0  0  0  0  0  0  0  0
  150.4591  144.9939  157.8742 H   0  0  0  0  0  0  0  0  0  0  0  0
  1  2  1  0  0  0  0
  1 21  1  0  0  0  0
  2 20  1  0  0  0  0
  2  3  1  0  0  0  0
  2 17  1  0  0  0  0
  3  4  1  0  0  0  0
  3 22  1  0  0  0  0
  3 23  1  0  0  0  0
  4  5  1  0  0  0  0
  4 24  1  0  0  0  0
  5  6  1  0  0  0  0
  5 13  1  0  0  0  0
  5 25  1  0  0  0  0
  6  7  1  0  0  0  0
  6 26  1  0  0  0  0
  6 27  1  0  0  0  0
  7 12  1  0  0  0  0
  7  8  2  0  0  0  0
  8  9  1  0  0  0  0
  8 28  1  0  0  0  0
  9 10  2  0  0  0  0
  9 29  1  0  0  0  0
 10 11  1  0  0  0  0
 11 12  2  0  0  0  0
 11 30  1  0  0  0  0
 12 31  1  0  0  0  0
 13 14  1  0  0  0  0
 13 15  1  0  0  0  0
 13 16  1  0  0  0  0
 17 18  1  0  0  0  0
 17 32  1  0  0  0  0
 17 33  1  0  0  0  0
 18 19  1  0  0  0  0
 18 34  1  0  0  0  0
 18 35  1  0  0  0  0
 19 20  1  0  0  0  0
 20 36  1  0  0  0  0
 20 37  1  0  0  0  0
M  END
> <s_m_source_file>
AV-unprocessed.smi

> <i_m_source_file_index>
2448

> <i_lp_mmshare_version>
43012

> <i_f3d_flags>
0

> <s_epik_input>
W0NIMl0xU1tDSDJdW0NIMl1bQ0BAXTEoW09IXSlbQ0gyXVtOSF1bQ0BASF0oQyhGKShGKUYpW0NIMl1jMltjSF1bY0hdbltjSF1bY0hdMg==

> <s_epik_cmdline>
J2VwaWtfcHl0aG9uJywgJy1waCcsICc3LjAnLCAnLXRuJywgJzgnLCAnLW1hJywgJzIwMCcsICctbWV0YWxfYmluZGluZycsICctaW1hZScsICc8aW5maWxlLm1hZT4nLCAnLW9tYWUnLCAnPG91dGZpbGUubWFlPic=

> <r_epik_Ionization_Penalty>
0.187708

> <r_epik_Ionization_Penalty_Charging>
0

> <r_epik_Ionization_Penalty_Neutral>
0.187708

> <r_epik_State_Penalty>
0.22769

> <r_epik_Charging_Adjusted_Penalty>
0.22769

> <i_epik_Tot_Q>
0

> <i_epik_Tot_abs_Q>
0

> <r_epik_Metal_State_Penalty>
0.176206

> <b_epik_Metal_Only>
0

> <s_lp_Force_Field>
OPLS_2005

> <r_lp_Energy>
30.9139

> <b_lp_Chiralities_Consistent>
1

> <s_lp_Variant>
AV-unprocessed.smi:2448-2

> <Gold.Version>
5.8.1

> <Gold.Id.Protein>
6NUR|6NUR_protein|mol2

> <Gold.PLP.Fitness>
47.5241

> <Gold.PLP.PLP>
-45.1024

> <Gold.PLP.part.hbond>
-3.0000

> <Gold.PLP.part.metal>
0.0000

> <Gold.PLP.part.buried>
-1.1119

> <Gold.PLP.part.nonpolar>
-41.3287

> <Gold.PLP.part.repulsive>
0.0618

> <Gold.PLP.ligand.clash>
0.0000

> <Gold.PLP.ligand.torsion>
1.5989

> <Gold.PLP.Chemscore.Hbond>
0.7680

> <Gold.PLP.Chemscore.CHOScore>
0.8926

> <Gold.PLP.Chemscore.Metal>
0.0000

> <Gold.Chemscore.Hbonds>
donor molecule, donor type, donor heavy atom, donor atom, acceptor molecule, acceptor atom, score
      P1  H 10752 10763       L1    10  0.94
      L1  C     9    29       P1  7948  0.31
      L1  C     9    29       P1  7949  0.47

> <Gold.PLP.Chemscore.Internal.Correction>
0.6376

> <Gold.Rescore>
     Score         DG    S(hbond)    S(metal)    S(lipo)     H(rot)  DE(clash)    DE(int)     intcor
     14.51     -16.62       0.91        0.00     119.73       2.31       0.33       1.79       ----

> <Gold.Chemscore.Fitness>
14.5084

> <Gold.Chemscore.DG>
-16.6249

> <Gold.Chemscore.ZeroCoef>
-5.4800

> <Gold.Chemscore.Hbond>
0.9140

> <Gold.Chemscore.Metal>
0.0000

> <Gold.Chemscore.Lipo>
119.7318

> <Gold.Chemscore.Internal_Hbond>
0.0000

> <Gold.Chemscore.DEClash>
0.3309

> <Gold.Chemscore.DEInternal>
1.7855

> <Gold.Chemscore.Rot>
2.3111

> <Gold.Chemscore.Internal.Correction>
   9.000000E+99

> <Gold.Chemscore.Hbonds>
donor molecule, donor type, donor heavy atom, donor atom, acceptor molecule, acceptor atom, score
      P1  H 10752 10763       L1    10  0.42

> <Gold.Chemscore.Hbond.Weighted>
-3.0526

> <Gold.Chemscore.Metal.Weighted>
-0.0000

> <Gold.Chemscore.Lipo.Weighted>
-14.0086

> <Gold.Chemscore.Internal_Hbond.Weighted>
0.0000

> <Gold.Chemscore.DEClash.Weighted>
0.3309

> <Gold.Chemscore.DEInternal.Weighted>
1.7855

> <Gold.Chemscore.Rot.Weighted>
5.9164

> <Gold.Chemscore.Internal.Correction.Weighted>
   9.000000E+99

> <Gold.Protein.RotatedTorsions>
[ 6907 6896 6895 6894 ] final -152.86 input  -60.11 | X-H torsion
[ 7974 7965 7964 7962 ] final  108.83 input  175.53 | X-H torsion
[ 8008 7997 7996 7995 ] final  -15.89 input   59.86 | X-H torsion
[ 10167 10162 10161 10158 ] final -124.34 input  -65.29 | X-H torsion
[ 10718 10713 10712 10709 ] final  -51.53 input   66.30 | X-H torsion
[ 10763 10752 10751 10750 ] final   64.19 input  -60.55 | X-H torsion
[ 11005 11000 10999 10996 ] final  158.95 input  -57.11 | X-H torsion

> <Gold.Protein.ActiveResidues>
 VAL166  LYS551  ARG553  GLY616  TRP617  ASP618  TYR619  PRO620  LYS621  CYS622 
 ASP623  PHE694  ASN695  SER759  ASP760  ASP761  ALA762  ILE779  LEU786  VAL792 
 PHE793  MET794  SER795  GLU796  ALA797  LYS798  CYS799  TRP800  GLU811  SER814 

> <Gold.Protein.RotatedAtoms>
  151.2340  133.4435  159.2604 H   0  0  0  0  0  0  0  0  0  0  0  0  # atno 6907 bound_to 6896
  151.0768  134.9833  159.8346 H   0  0  0  0  0  0  0  0  0  0  0  0  # atno 6908 bound_to 6896
  152.5419  134.2282  159.8867 H   0  0  0  0  0  0  0  0  0  0  0  0  # atno 6909 bound_to 6896
  145.2756  139.2651  143.3943 H   0  0  0  0  0  0  0  0  0  0  0  0  # atno 7974 bound_to 7965
  154.5095  140.2184  155.9184 H   0  0  0  0  0  0  0  0  0  0  0  0  # atno 8008 bound_to 7997
  156.1535  140.3157  155.8653 H   0  0  0  0  0  0  0  0  0  0  0  0  # atno 8009 bound_to 7997
  155.3893  140.0477  157.3032 H   0  0  0  0  0  0  0  0  0  0  0  0  # atno 8010 bound_to 7997
  139.9938  143.5612  152.2331 H   0  0  0  0  0  0  0  0  0  0  0  0  # atno 10167 bound_to 10162
  156.1702  130.4149  149.9659 H   0  0  0  0  0  0  0  0  0  0  0  0  # atno 10718 bound_to 10713
  153.0046  135.5402  154.6471 H   0  0  0  0  0  0  0  0  0  0  0  0  # atno 10763 bound_to 10752
  154.5712  135.2842  155.0828 H   0  0  0  0  0  0  0  0  0  0  0  0  # atno 10764 bound_to 10752
  154.1993  135.6487  153.5135 H   0  0  0  0  0  0  0  0  0  0  0  0  # atno 10765 bound_to 10752
  140.1914  134.8404  157.2917 H   0  0  0  0  0  0  0  0  0  0  0  0  # atno 11005 bound_to 11000
  146.3233  140.3210  142.8633 LP  0  0  0  0  0  0  0  0  0  0  0  0  # atno 17320 bound_to 7965
  144.9297  140.7961  143.5697 LP  0  0  0  0  0  0  0  0  0  0  0  0  # atno 17321 bound_to 7965
  139.6321  144.7645  151.2515 LP  0  0  0  0  0  0  0  0  0  0  0  0  # atno 17342 bound_to 10162
  140.7445  143.6462  150.8290 LP  0  0  0  0  0  0  0  0  0  0  0  0  # atno 17343 bound_to 10162
  156.7461  130.9098  151.3635 LP  0  0  0  0  0  0  0  0  0  0  0  0  # atno 17370 bound_to 10713
  157.6797  130.9128  150.0237 LP  0  0  0  0  0  0  0  0  0  0  0  0  # atno 17371 bound_to 10713
  140.2155  134.4087  155.7591 LP  0  0  0  0  0  0  0  0  0  0  0  0  # atno 17394 bound_to 11000
  141.2226  133.7139  156.8406 LP  0  0  0  0  0  0  0  0  0  0  0  0  # atno 17395 bound_to 11000

$$$$
