AV-unprocessed.smi:543|AV-procd|sdf|2875|dock1
  -GOLD-   2262023363D 1   1.00000     0.00000
 Structure written by MMmdl.
 46 48  0  0  0  0  0  0  0  0  1 V2000
  149.3783  135.0896  154.9388 C   0  0  0  0  0  0  0  0  0  0  0  0
  149.3221  136.1844  155.8349 O   0  0  0  0  0  0  0  0  0  0  0  0
  147.9979  136.6438  156.0530 C   0  0  0  0  0  0  0  0  0  0  0  0
  148.0155  137.8110  157.0497 C   0  0  0  0  0  0  0  0  0  0  0  0
  149.0422  137.6340  158.0758 N   0  0  0  0  0  0  0  0  0  0  0  0
  149.0181  136.8634  159.2015 C   0  0  0  0  0  0  0  0  0  0  0  0
  147.9028  136.1023  159.5739 N   0  0  0  0  0  0  0  0  0  0  0  0
  146.6450  136.0217  158.8412 C   0  0  0  0  0  0  0  0  0  0  0  0
  147.7723  135.4144  160.8590 C   0  0  0  0  0  0  0  0  0  0  0  0
  146.4214  135.5574  161.5427 C   0  0  0  0  0  0  0  0  0  0  0  0
  145.8402  136.8344  161.6912 C   0  0  0  0  0  0  0  0  0  0  0  0
  144.5841  136.9738  162.3128 C   0  0  0  0  0  0  0  0  0  0  0  0
  143.9045  135.8372  162.7912 C   0  0  0  0  0  0  0  0  0  0  0  0
  144.4821  134.5609  162.6488 C   0  0  0  0  0  0  0  0  0  0  0  0
  145.7384  134.4212  162.0278 C   0  0  0  0  0  0  0  0  0  0  0  0
  150.1641  136.8649  159.8895 N   0  0  0  0  0  0  0  0  0  0  0  0
  150.9771  137.7169  159.1632 C   0  0  0  0  0  0  0  0  0  0  0  0
  150.3281  138.1803  158.0662 C   0  0  0  0  0  0  0  0  0  0  0  0
  150.9737  139.0701  157.0906 C   0  0  0  0  0  0  0  0  0  0  0  0
  150.4162  139.4855  156.0770 O   0  0  0  0  0  0  0  0  0  0  0  0
  152.2517  139.3811  157.4176 N   0  0  0  0  0  0  0  0  0  0  0  0
  152.9571  138.9575  158.5104 C   0  0  0  0  0  0  0  0  0  0  0  0
  154.1190  139.3289  158.6750 O   0  0  0  0  0  0  0  0  0  0  0  0
  152.3237  138.1191  159.3914 N   0  0  0  0  0  0  0  0  0  0  0  0
  153.0293  137.6348  160.5795 C   0  0  0  0  0  0  0  0  0  0  0  0
  152.7406  139.9925  156.7804 H   0  0  0  0  0  0  0  0  0  0  0  0
  150.4132  134.7698  154.8178 H   0  0  0  0  0  0  0  0  0  0  0  0
  148.9940  135.3658  153.9562 H   0  0  0  0  0  0  0  0  0  0  0  0
  148.8045  134.2415  155.3147 H   0  0  0  0  0  0  0  0  0  0  0  0
  147.5527  136.9652  155.1102 H   0  0  0  0  0  0  0  0  0  0  0  0
  147.3825  135.8325  156.4440 H   0  0  0  0  0  0  0  0  0  0  0  0
  148.1879  138.7518  156.5293 H   0  0  0  0  0  0  0  0  0  0  0  0
  147.0354  137.9221  157.5014 H   0  0  0  0  0  0  0  0  0  0  0  0
  146.5989  136.7893  158.0684 H   0  0  0  0  0  0  0  0  0  0  0  0
  145.7895  136.1784  159.4994 H   0  0  0  0  0  0  0  0  0  0  0  0
  146.5400  135.0444  158.3695 H   0  0  0  0  0  0  0  0  0  0  0  0
  147.9958  134.3505  160.7650 H   0  0  0  0  0  0  0  0  0  0  0  0
  148.5427  135.8156  161.5185 H   0  0  0  0  0  0  0  0  0  0  0  0
  146.3521  137.7113  161.3229 H   0  0  0  0  0  0  0  0  0  0  0  0
  144.1416  137.9530  162.4209 H   0  0  0  0  0  0  0  0  0  0  0  0
  142.9407  135.9438  163.2666 H   0  0  0  0  0  0  0  0  0  0  0  0
  143.9611  133.6887  163.0147 H   0  0  0  0  0  0  0  0  0  0  0  0
  146.1721  133.4383  161.9195 H   0  0  0  0  0  0  0  0  0  0  0  0
  153.9252  137.0817  160.2950 H   0  0  0  0  0  0  0  0  0  0  0  0
  152.4178  136.9704  161.1898 H   0  0  0  0  0  0  0  0  0  0  0  0
  153.3315  138.4707  161.2116 H   0  0  0  0  0  0  0  0  0  0  0  0
  1  2  1  0  0  0  0
  1 27  1  0  0  0  0
  1 28  1  0  0  0  0
  1 29  1  0  0  0  0
  2  3  1  0  0  0  0
  3  4  1  0  0  0  0
  3 30  1  0  0  0  0
  3 31  1  0  0  0  0
  4  5  1  0  0  0  0
  4 32  1  0  0  0  0
  4 33  1  0  0  0  0
  5 18  1  0  0  0  0
  5  6  1  0  0  0  0
  6  7  1  0  0  0  0
  6 16  2  0  0  0  0
  7  8  1  0  0  0  0
  7  9  1  0  0  0  0
  8 34  1  0  0  0  0
  8 35  1  0  0  0  0
  8 36  1  0  0  0  0
  9 10  1  0  0  0  0
  9 37  1  0  0  0  0
  9 38  1  0  0  0  0
 10 15  1  0  0  0  0
 10 11  2  0  0  0  0
 11 12  1  0  0  0  0
 11 39  1  0  0  0  0
 12 13  2  0  0  0  0
 12 40  1  0  0  0  0
 13 14  1  0  0  0  0
 13 41  1  0  0  0  0
 14 15  2  0  0  0  0
 14 42  1  0  0  0  0
 15 43  1  0  0  0  0
 16 17  1  0  0  0  0
 17 24  1  0  0  0  0
 17 18  2  0  0  0  0
 18 19  1  0  0  0  0
 19 20  2  0  0  0  0
 19 21  1  0  0  0  0
 21 26  1  0  0  0  0
 21 22  1  0  0  0  0
 22 23  2  0  0  0  0
 22 24  1  0  0  0  0
 24 25  1  0  0  0  0
 25 44  1  0  0  0  0
 25 45  1  0  0  0  0
 25 46  1  0  0  0  0
M  END
> <s_m_source_file>
AV-unprocessed.smi

> <i_m_source_file_index>
543

> <i_lp_mmshare_version>
43012

> <i_f3d_flags>
0

> <s_epik_input>
W0NIM11uMWMoPU8pW25IXWMoPU8pYyhjMTIpbihbQ0gyXVtDSDJdT1tDSDNdKWMobjIpTihbQ0gzXSlbQ0gyXWMzW2NIXVtjSF1bY0hdW2NIXVtjSF0z

> <s_epik_cmdline>
J2VwaWtfcHl0aG9uJywgJy1waCcsICc3LjAnLCAnLXRuJywgJzgnLCAnLW1hJywgJzIwMCcsICctbWV0YWxfYmluZGluZycsICctaW1hZScsICc8aW5maWxlLm1hZT4nLCAnLW9tYWUnLCAnPG91dGZpbGUubWFlPic=

> <r_lp_tautomer_probability>
1

> <r_epik_Ionization_Penalty>
3.94324e-05

> <r_epik_Ionization_Penalty_Charging>
1.70393e-05

> <r_epik_Ionization_Penalty_Neutral>
2.23931e-05

> <r_epik_State_Penalty>
-0

> <r_epik_Charging_Adjusted_Penalty>
1.70393e-05

> <i_epik_Tot_Q>
0

> <i_epik_Tot_abs_Q>
0

> <r_epik_Metal_State_Penalty>
0.0163311

> <b_epik_Metal_Only>
0

> <s_lp_Force_Field>
OPLS_2005

> <r_lp_Energy>
32.7304

> <b_lp_Chiralities_Consistent>
1

> <s_lp_Variant>
AV-unprocessed.smi:543-1

> <Gold.Version>
5.8.1

> <Gold.Id.Protein>
6NUR|6NUR_protein|mol2

> <Gold.PLP.Fitness>
37.7015

> <Gold.PLP.PLP>
-33.2013

> <Gold.PLP.part.hbond>
-2.6626

> <Gold.PLP.part.metal>
0.0000

> <Gold.PLP.part.buried>
-6.3930

> <Gold.PLP.part.nonpolar>
-25.2583

> <Gold.PLP.part.repulsive>
0.1500

> <Gold.PLP.ligand.clash>
3.9488

> <Gold.PLP.ligand.torsion>
0.8296

> <Gold.PLP.Chemscore.Hbond>
2.0000

> <Gold.PLP.Chemscore.CHOScore>
0.0000

> <Gold.PLP.Chemscore.Metal>
0.0000

> <Gold.Chemscore.Hbonds>
donor molecule, donor type, donor heavy atom, donor atom, acceptor molecule, acceptor atom, score
      P1  H  6896  6907       L1    16  1.00
      P1  H  7997  8009       L1    23  1.00

> <Gold.PLP.Chemscore.Internal.Correction>
4.1082

> <Gold.Rescore>
     Score         DG    S(hbond)    S(metal)    S(lipo)     H(rot)  DE(clash)    DE(int)     intcor
     12.20     -14.47       1.82        0.00      65.61       1.86       0.17       2.09       ----

> <Gold.Chemscore.Fitness>
12.2002

> <Gold.Chemscore.DG>
-14.4667

> <Gold.Chemscore.ZeroCoef>
-5.4800

> <Gold.Chemscore.Hbond>
1.8164

> <Gold.Chemscore.Metal>
0.0000

> <Gold.Chemscore.Lipo>
65.6110

> <Gold.Chemscore.Internal_Hbond>
0.0000

> <Gold.Chemscore.DEClash>
0.1726

> <Gold.Chemscore.DEInternal>
2.0939

> <Gold.Chemscore.Rot>
1.8580

> <Gold.Chemscore.Internal.Correction>
   9.000000E+99

> <Gold.Chemscore.Hbonds>
donor molecule, donor type, donor heavy atom, donor atom, acceptor molecule, acceptor atom, score
      P1  H  6896  6907       L1    16  0.38
      P1  H  7997  8009       L1    23  0.96

> <Gold.Chemscore.Hbond.Weighted>
-6.0666

> <Gold.Chemscore.Metal.Weighted>
-0.0000

> <Gold.Chemscore.Lipo.Weighted>
-7.6765

> <Gold.Chemscore.Internal_Hbond.Weighted>
0.0000

> <Gold.Chemscore.DEClash.Weighted>
0.1726

> <Gold.Chemscore.DEInternal.Weighted>
2.0939

> <Gold.Chemscore.Rot.Weighted>
4.7564

> <Gold.Chemscore.Internal.Correction.Weighted>
   9.000000E+99

> <Gold.Protein.RotatedTorsions>
[ 6907 6896 6895 6894 ] final  -24.42 input  -60.11 | X-H torsion
[ 7974 7965 7964 7962 ] final  -98.49 input  175.53 | X-H torsion
[ 8008 7997 7996 7995 ] final  128.58 input   59.86 | X-H torsion
[ 10167 10162 10161 10158 ] final  149.08 input  -65.29 | X-H torsion
[ 10718 10713 10712 10709 ] final  156.02 input   66.30 | X-H torsion
[ 10763 10752 10751 10750 ] final  -77.35 input  -60.55 | X-H torsion
[ 11005 11000 10999 10996 ] final   79.73 input  -57.11 | X-H torsion

> <Gold.Protein.ActiveResidues>
 VAL166  LYS551  ARG553  GLY616  TRP617  ASP618  TYR619  PRO620  LYS621  CYS622 
 ASP623  PHE694  ASN695  SER759  ASP760  ASP761  ALA762  ILE779  LEU786  VAL792 
 PHE793  MET794  SER795  GLU796  ALA797  LYS798  CYS799  TRP800  GLU811  SER814 

> <Gold.Protein.RotatedAtoms>
  151.1898  135.0397  159.8827 H   0  0  0  0  0  0  0  0  0  0  0  0  # atno 6907 bound_to 6896
  152.5440  134.0969  159.8311 H   0  0  0  0  0  0  0  0  0  0  0  0  # atno 6908 bound_to 6896
  151.1096  133.5135  159.2638 H   0  0  0  0  0  0  0  0  0  0  0  0  # atno 6909 bound_to 6896
  145.3200  140.9419  143.2721 H   0  0  0  0  0  0  0  0  0  0  0  0  # atno 7974 bound_to 7965
  156.2918  140.2641  156.2459 H   0  0  0  0  0  0  0  0  0  0  0  0  # atno 8008 bound_to 7997
  154.9931  140.0388  157.2346 H   0  0  0  0  0  0  0  0  0  0  0  0  # atno 8009 bound_to 7997
  154.7668  140.2771  155.6174 H   0  0  0  0  0  0  0  0  0  0  0  0  # atno 8010 bound_to 7997
  139.4866  144.5630  151.7197 H   0  0  0  0  0  0  0  0  0  0  0  0  # atno 10167 bound_to 10162
  157.2105  131.0696  151.1972 H   0  0  0  0  0  0  0  0  0  0  0  0  # atno 10718 bound_to 10713
  154.5118  135.5767  153.6611 H   0  0  0  0  0  0  0  0  0  0  0  0  # atno 10763 bound_to 10752
  152.9898  135.6160  154.2869 H   0  0  0  0  0  0  0  0  0  0  0  0  # atno 10764 bound_to 10752
  154.2784  135.2851  155.2687 H   0  0  0  0  0  0  0  0  0  0  0  0  # atno 10765 bound_to 10752
  139.9161  134.7865  156.1816 H   0  0  0  0  0  0  0  0  0  0  0  0  # atno 11005 bound_to 11000
  144.8947  139.4728  143.6661 LP  0  0  0  0  0  0  0  0  0  0  0  0  # atno 17320 bound_to 7965
  146.3086  139.7666  142.9037 LP  0  0  0  0  0  0  0  0  0  0  0  0  # atno 17321 bound_to 7965
  140.5203  144.0889  150.6020 LP  0  0  0  0  0  0  0  0  0  0  0  0  # atno 17342 bound_to 10162
  140.3845  143.2785  152.0132 LP  0  0  0  0  0  0  0  0  0  0  0  0  # atno 17343 bound_to 10162
  157.3677  130.7164  149.6544 LP  0  0  0  0  0  0  0  0  0  0  0  0  # atno 17370 bound_to 10713
  155.9691  130.4208  150.4438 LP  0  0  0  0  0  0  0  0  0  0  0  0  # atno 17371 bound_to 10713
  141.0638  133.6829  156.2005 LP  0  0  0  0  0  0  0  0  0  0  0  0  # atno 17394 bound_to 11000
  140.6617  134.4960  157.5583 LP  0  0  0  0  0  0  0  0  0  0  0  0  # atno 17395 bound_to 11000

$$$$
