AV-unprocessed.smi:37|AV-procd|sdf|321|dock4
  -GOLD-   2262016143D 1   1.00000     0.00000
 Structure written by MMmdl.
 43 44  0  0  0  0  0  0  0  0  2 V2000
  145.8373  134.0410  162.1383 C   0  0  0  0  0  0  0  0  0  0  0  0
  146.8827  135.1609  162.2322 C   0  0  0  0  0  0  0  0  0  0  0  0
  146.9202  136.0327  160.9785 C   0  0  0  0  0  0  0  0  0  0  0  0
  146.7094  137.2443  161.0324 O   0  0  0  0  0  0  0  0  0  0  0  0
  147.1789  135.3278  159.8673 O   0  0  0  0  0  0  0  0  0  0  0  0
  147.7614  135.9654  158.7436 C   0  0  0  0  0  0  0  0  0  0  0  0
  148.2792  134.8983  157.7702 C   0  0  2  0  0  0  0  0  0  0  0  0
  149.7065  134.8331  157.8016 O   0  0  0  0  0  0  0  0  0  0  0  0
  150.2269  134.7201  156.5060 C   0  0  2  0  0  0  0  0  0  0  0  0
  150.8940  136.0226  156.1036 N   0  0  0  0  0  0  0  0  0  0  0  0
  150.5026  136.7235  154.9738 C   0  0  0  0  0  0  0  0  0  0  0  0
  151.1052  137.8771  154.6206 C   0  0  0  0  0  0  0  0  0  0  0  0
  150.7024  138.5315  153.5180 F   0  0  0  0  0  0  0  0  0  0  0  0
  152.1909  138.4074  155.4422 C   0  0  0  0  0  0  0  0  0  0  0  0
  152.7426  139.4555  155.1104 O   0  0  0  0  0  0  0  0  0  0  0  0
  152.5474  137.7060  156.5566 N   0  5  0  0  0  0  0  0  0  0  0  0
  151.9393  136.5387  156.9190 C   0  0  0  0  0  0  0  0  0  0  0  0
  152.2548  135.9006  157.9233 O   0  0  0  0  0  0  0  0  0  0  0  0
  149.0415  134.4225  155.5821 C   0  0  1  0  0  0  0  0  0  0  0  0
  148.7340  132.4504  155.5418 Br  0  0  0  0  0  0  0  0  0  0  0  0
  147.9121  135.1366  156.3015 C   0  0  1  0  0  0  0  0  0  0  0  0
  146.6494  134.5901  155.9379 O   0  0  0  0  0  0  0  0  0  0  0  0
  146.1248  134.8250  154.7225 C   0  0  0  0  0  0  0  0  0  0  0  0
  146.7113  135.3466  153.7725 O   0  0  0  0  0  0  0  0  0  0  0  0
  144.6661  134.3730  154.6343 C   0  0  0  0  0  0  0  0  0  0  0  0
  144.0207  134.6459  153.2676 C   0  0  0  0  0  0  0  0  0  0  0  0
  145.8769  133.4056  163.0231 H   0  0  0  0  0  0  0  0  0  0  0  0
  146.0107  133.4074  161.2680 H   0  0  0  0  0  0  0  0  0  0  0  0
  144.8257  134.4425  162.0684 H   0  0  0  0  0  0  0  0  0  0  0  0
  146.6748  135.7948  163.0945 H   0  0  0  0  0  0  0  0  0  0  0  0
  147.8715  134.7293  162.3888 H   0  0  0  0  0  0  0  0  0  0  0  0
  147.0369  136.6164  158.2529 H   0  0  0  0  0  0  0  0  0  0  0  0
  148.5885  136.5893  159.0844 H   0  0  0  0  0  0  0  0  0  0  0  0
  147.9255  133.9146  158.0836 H   0  0  0  0  0  0  0  0  0  0  0  0
  151.0212  133.9724  156.4758 H   0  0  0  0  0  0  0  0  0  0  0  0
  149.7009  136.3585  154.3524 H   0  0  0  0  0  0  0  0  0  0  0  0
  149.1995  134.7648  154.5593 H   0  0  0  0  0  0  0  0  0  0  0  0
  147.9804  136.2014  156.0722 H   0  0  0  0  0  0  0  0  0  0  0  0
  144.6219  133.3066  154.8557 H   0  0  0  0  0  0  0  0  0  0  0  0
  144.0988  134.8810  155.4145 H   0  0  0  0  0  0  0  0  0  0  0  0
  142.9876  134.2993  153.2553 H   0  0  0  0  0  0  0  0  0  0  0  0
  144.5501  134.1305  152.4655 H   0  0  0  0  0  0  0  0  0  0  0  0
  144.0131  135.7122  153.0387 H   0  0  0  0  0  0  0  0  0  0  0  0
  1  2  1  0  0  0  0
  1 27  1  0  0  0  0
  1 28  1  0  0  0  0
  1 29  1  0  0  0  0
  2  3  1  0  0  0  0
  2 30  1  0  0  0  0
  2 31  1  0  0  0  0
  3  4  2  0  0  0  0
  3  5  1  0  0  0  0
  5  6  1  0  0  0  0
  6  7  1  0  0  0  0
  6 32  1  0  0  0  0
  6 33  1  0  0  0  0
  7 21  1  0  0  0  0
  7  8  1  0  0  0  0
  7 34  1  0  0  0  0
  8  9  1  0  0  0  0
  9 10  1  0  0  0  0
  9 19  1  0  0  0  0
  9 35  1  0  0  0  0
 10 17  1  0  0  0  0
 10 11  1  0  0  0  0
 11 12  2  0  0  0  0
 11 36  1  0  0  0  0
 12 13  1  0  0  0  0
 12 14  1  0  0  0  0
 14 15  2  0  0  0  0
 14 16  1  0  0  0  0
 16 17  1  0  0  0  0
 17 18  2  0  0  0  0
 19 20  1  0  0  0  0
 19 21  1  0  0  0  0
 19 37  1  0  0  0  0
 21 22  1  0  0  0  0
 21 38  1  0  0  0  0
 22 23  1  0  0  0  0
 23 24  2  0  0  0  0
 23 25  1  0  0  0  0
 25 26  1  0  0  0  0
 25 39  1  0  0  0  0
 25 40  1  0  0  0  0
 26 41  1  0  0  0  0
 26 42  1  0  0  0  0
 26 43  1  0  0  0  0
M  CHG  1  16  -1
M  END
> <s_m_source_file>
AV-unprocessed.smi

> <i_m_source_file_index>
37

> <i_lp_mmshare_version>
43012

> <i_f3d_flags>
0

> <s_epik_input>
W0NIM11bQ0gyXUMoPU8pT1tDSDJdW0NAQEhdMU9bQ0BASF0objJbY0hdYyhGKWMoPU8pW25IXWMyPU8pW0NAQEhdKEJyKVtDQEhdMU9DKD1PKVtDSDJdW0NIM10=

> <s_epik_cmdline>
J2VwaWtfcHl0aG9uJywgJy1waCcsICc3LjAnLCAnLXRuJywgJzgnLCAnLW1hJywgJzIwMCcsICctbWV0YWxfYmluZGluZycsICctaW1hZScsICc8aW5maWxlLm1hZT4nLCAnLW9tYWUnLCAnPG91dGZpbGUubWFlPic=

> <r_epik_Ionization_Penalty>
1.08158

> <r_epik_Ionization_Penalty_Charging>
9.05154e-09

> <r_epik_Ionization_Penalty_Neutral>
1.08158

> <r_epik_State_Penalty>
1.13706

> <r_epik_Charging_Adjusted_Penalty>
1.13706

> <i_epik_Tot_Q>
-1

> <i_epik_Tot_abs_Q>
1

> <r_epik_Metal_State_Penalty>
0.00343535

> <b_epik_Metal_Only>
0

> <s_epik_Chemistry_Notes>
This compound has an ester and may undergo hydrolysis at high or low pH. This compound contains an acetal/aminal-like group ( X-CH(R)-Y where X, Y are N, S, or O) that may be acid/base labile, releasing an aldehyde.

> <s_lp_Force_Field>
OPLS_2005

> <r_lp_Energy>
31.9514

> <b_lp_Chiralities_Consistent>
1

> <s_lp_Variant>
AV-unprocessed.smi:37-19

> <Gold.Version>
5.8.1

> <Gold.Id.Protein>
6NUR|6NUR_protein|mol2

> <Gold.PLP.Fitness>
44.1688

> <Gold.PLP.PLP>
-32.4981

> <Gold.PLP.part.hbond>
-6.0000

> <Gold.PLP.part.metal>
0.0000

> <Gold.PLP.part.buried>
-2.7750

> <Gold.PLP.part.nonpolar>
-23.2799

> <Gold.PLP.part.repulsive>
0.0979

> <Gold.PLP.ligand.clash>
0.0000

> <Gold.PLP.ligand.torsion>
1.2595

> <Gold.PLP.Chemscore.Hbond>
3.9852

> <Gold.PLP.Chemscore.CHOScore>
0.7081

> <Gold.PLP.Chemscore.Metal>
0.0000

> <Gold.Chemscore.Hbonds>
donor molecule, donor type, donor heavy atom, donor atom, acceptor molecule, acceptor atom, score
      P1  H  6896  6908       L1     8  1.00
      P1  H  6896  6909       L1    18  0.06
      P1  H  6934  6947       L1     4  1.00
      P1  H  7989  7998       L1    15  0.07
      P1  H  7997  8008       L1    15  1.00
      L1  C    11    36       P1  7948  0.89

> <Gold.PLP.Chemscore.Internal.Correction>
0.1098

> <Gold.Rescore>
     Score         DG    S(hbond)    S(metal)    S(lipo)     H(rot)  DE(clash)    DE(int)     intcor
     11.98     -14.91       3.71        0.00      46.17       3.27       0.07       2.86       ----

> <Gold.Chemscore.Fitness>
11.9823

> <Gold.Chemscore.DG>
-14.9110

> <Gold.Chemscore.ZeroCoef>
-5.4800

> <Gold.Chemscore.Hbond>
3.7104

> <Gold.Chemscore.Metal>
0.0000

> <Gold.Chemscore.Lipo>
46.1670

> <Gold.Chemscore.Internal_Hbond>
0.0000

> <Gold.Chemscore.DEClash>
0.0653

> <Gold.Chemscore.DEInternal>
2.8634

> <Gold.Chemscore.Rot>
3.2669

> <Gold.Chemscore.Internal.Correction>
   9.000000E+99

> <Gold.Chemscore.Hbonds>
donor molecule, donor type, donor heavy atom, donor atom, acceptor molecule, acceptor atom, score
      P1  H  6896  6908       L1     8  0.93
      P1  H  6896  6909       L1    18  0.07
      P1  H  6934  6947       L1     4  1.00
      P1  H  7989  7998       L1    15  0.08
      P1  H  7997  8008       L1    15  0.94

> <Gold.Chemscore.Hbond.Weighted>
-12.3928

> <Gold.Chemscore.Metal.Weighted>
-0.0000

> <Gold.Chemscore.Lipo.Weighted>
-5.4015

> <Gold.Chemscore.Internal_Hbond.Weighted>
0.0000

> <Gold.Chemscore.DEClash.Weighted>
0.0653

> <Gold.Chemscore.DEInternal.Weighted>
2.8634

> <Gold.Chemscore.Rot.Weighted>
8.3634

> <Gold.Chemscore.Internal.Correction.Weighted>
   9.000000E+99

> <Gold.Protein.RotatedTorsions>
[ 6907 6896 6895 6894 ] final  150.02 input  -60.11 | X-H torsion
[ 7974 7965 7964 7962 ] final    5.97 input  175.53 | X-H torsion
[ 8008 7997 7996 7995 ] final  -15.85 input   59.86 | X-H torsion
[ 10167 10162 10161 10158 ] final  109.76 input  -65.29 | X-H torsion
[ 10718 10713 10712 10709 ] final   83.99 input   66.30 | X-H torsion
[ 10763 10752 10751 10750 ] final   69.38 input  -60.55 | X-H torsion
[ 11005 11000 10999 10996 ] final    5.14 input  -57.11 | X-H torsion

> <Gold.Protein.ActiveResidues>
 VAL166  LYS551  ARG553  GLY616  TRP617  ASP618  TYR619  PRO620  LYS621  CYS622 
 ASP623  PHE694  ASN695  SER759  ASP760  ASP761  ALA762  ILE779  LEU786  VAL792 
 PHE793  MET794  SER795  GLU796  ALA797  LYS798  CYS799  TRP800  GLU811  SER814 

> <Gold.Protein.RotatedAtoms>
  152.1201  133.4348  159.4671 H   0  0  0  0  0  0  0  0  0  0  0  0  # atno 6907 bound_to 6896
  150.6871  134.2545  159.4533 H   0  0  0  0  0  0  0  0  0  0  0  0  # atno 6908 bound_to 6896
  152.0421  134.9705  160.0624 H   0  0  0  0  0  0  0  0  0  0  0  0  # atno 6909 bound_to 6896
  146.2437  140.0304  142.8390 H   0  0  0  0  0  0  0  0  0  0  0  0  # atno 7974 bound_to 7965
  154.5098  140.2185  155.9178 H   0  0  0  0  0  0  0  0  0  0  0  0  # atno 8008 bound_to 7997
  156.1539  140.3156  155.8659 H   0  0  0  0  0  0  0  0  0  0  0  0  # atno 8009 bound_to 7997
  155.3886  140.0477  157.3032 H   0  0  0  0  0  0  0  0  0  0  0  0  # atno 8010 bound_to 7997
  139.6741  144.7123  151.1633 H   0  0  0  0  0  0  0  0  0  0  0  0  # atno 10167 bound_to 10162
  157.6890  131.0114  150.2606 H   0  0  0  0  0  0  0  0  0  0  0  0  # atno 10718 bound_to 10713
  153.0284  135.5212  154.7280 H   0  0  0  0  0  0  0  0  0  0  0  0  # atno 10763 bound_to 10752
  154.6316  135.2901  155.0212 H   0  0  0  0  0  0  0  0  0  0  0  0  # atno 10764 bound_to 10752
  154.1162  135.6614  153.4947 H   0  0  0  0  0  0  0  0  0  0  0  0  # atno 10765 bound_to 10752
  140.5740  134.0075  155.8020 H   0  0  0  0  0  0  0  0  0  0  0  0  # atno 11005 bound_to 11000
  145.1160  140.9434  143.4628 LP  0  0  0  0  0  0  0  0  0  0  0  0  # atno 17320 bound_to 7965
  145.0529  139.3167  143.5919 LP  0  0  0  0  0  0  0  0  0  0  0  0  # atno 17321 bound_to 7965
  140.7629  143.5798  150.8907 LP  0  0  0  0  0  0  0  0  0  0  0  0  # atno 17342 bound_to 10162
  139.9466  143.6321  152.3040 LP  0  0  0  0  0  0  0  0  0  0  0  0  # atno 17343 bound_to 10162
  156.3186  130.3782  149.7596 LP  0  0  0  0  0  0  0  0  0  0  0  0  # atno 17370 bound_to 10713
  156.5173  130.8199  151.3191 LP  0  0  0  0  0  0  0  0  0  0  0  0  # atno 17371 bound_to 10713
  141.1038  133.9726  157.3033 LP  0  0  0  0  0  0  0  0  0  0  0  0  # atno 17394 bound_to 11000
  139.9348  135.0197  156.8520 LP  0  0  0  0  0  0  0  0  0  0  0  0  # atno 17395 bound_to 11000

$$$$
