AV-unprocessed.smi:240|AV-procd|sdf|1824|dock7
  -GOLD-   2262020423D 1   1.00000     0.00000
 Structure written by MMmdl.
 55 59  0  0  0  0  0  0  0  0  1 V2000
  146.6017  134.9632  152.5399 O   0  0  0  0  0  0  0  0  0  0  0  0
  145.7877  133.8480  152.2402 C   0  0  2  0  0  0  0  0  0  0  0  0
  146.3365  133.0570  151.0512 C   0  0  0  0  0  0  0  0  0  0  0  0
  145.1246  132.3170  150.4692 C   0  0  0  0  0  0  0  0  0  0  0  0
  143.8748  133.0233  151.0198 C   0  0  0  0  0  0  0  0  0  0  0  0
  144.3855  134.2618  151.7761 C   0  0  1  0  0  0  0  0  0  0  0  0
  143.4398  134.8358  152.8756 C   0  0  2  0  0  0  0  0  0  0  0  0
  142.0337  134.1835  152.8948 C   0  0  0  0  0  0  0  0  0  0  0  0
  141.2442  134.7436  153.9379 O   0  0  0  0  0  0  0  0  0  0  0  0
  141.0373  136.1377  153.7560 C   0  0  0  0  0  0  0  0  0  0  0  0
  142.3943  136.8521  153.7988 C   0  0  0  0  0  0  0  0  0  0  0  0
  143.2925  136.2962  152.7935 N   0  0  0  0  0  0  0  0  0  0  0  0
  144.4289  137.0247  152.7132 C   0  0  0  0  0  0  0  0  0  0  0  0
  145.0761  137.0247  151.5222 N   0  0  0  0  0  0  0  0  0  0  0  0
  146.2154  137.7085  151.3812 C   0  0  0  0  0  0  0  0  0  0  0  0
  146.8646  138.4453  152.2855 N   0  0  0  0  0  0  0  0  0  0  0  0
  146.2090  138.4559  153.4816 C   0  0  0  0  0  0  0  0  0  0  0  0
  144.9903  137.7839  153.7793 C   0  0  0  0  0  0  0  0  0  0  0  0
  144.6211  138.0337  155.0953 N   0  0  0  0  0  0  0  0  0  0  0  0
  145.5718  138.8018  155.5524 C   0  0  0  0  0  0  0  0  0  0  0  0
  146.5716  139.0971  154.6533 N   0  0  0  0  0  0  0  0  0  0  0  0
  147.7482  139.9165  154.8990 C   0  0  0  0  0  0  0  0  0  0  0  0
  147.4309  141.4267  154.9992 C   0  0  1  0  0  0  0  0  0  0  0  0
  148.6310  142.1324  155.2657 O   0  0  0  0  0  0  0  0  0  0  0  0
  146.7910  142.0157  153.7450 C   0  0  0  0  0  0  0  0  0  0  0  0
  145.8955  143.1123  154.3039 C   0  0  0  0  0  0  0  0  0  0  0  0
  145.3740  142.5144  155.4784 O   0  0  0  0  0  0  0  0  0  0  0  0
  146.4118  141.7667  156.1051 C   0  0  0  0  0  0  0  0  0  0  0  0
  147.3506  134.9531  151.9636 H   0  0  0  0  0  0  0  0  0  0  0  0
  145.7407  133.1894  153.1069 H   0  0  0  0  0  0  0  0  0  0  0  0
  146.7316  133.7403  150.2975 H   0  0  0  0  0  0  0  0  0  0  0  0
  147.1434  132.3810  151.3360 H   0  0  0  0  0  0  0  0  0  0  0  0
  145.1467  132.3339  149.3791 H   0  0  0  0  0  0  0  0  0  0  0  0
  145.1282  131.2712  150.7785 H   0  0  0  0  0  0  0  0  0  0  0  0
  143.1806  133.2964  150.2245 H   0  0  0  0  0  0  0  0  0  0  0  0
  143.3464  132.3411  151.6840 H   0  0  0  0  0  0  0  0  0  0  0  0
  144.5454  135.0354  151.0233 H   0  0  0  0  0  0  0  0  0  0  0  0
  143.8928  134.6108  153.8413 H   0  0  0  0  0  0  0  0  0  0  0  0
  141.5128  134.3078  151.9455 H   0  0  0  0  0  0  0  0  0  0  0  0
  142.1031  133.1132  153.0829 H   0  0  0  0  0  0  0  0  0  0  0  0
  140.5241  136.3258  152.8115 H   0  0  0  0  0  0  0  0  0  0  0  0
  140.3913  136.5090  154.5515 H   0  0  0  0  0  0  0  0  0  0  0  0
  142.2532  137.9202  153.6258 H   0  0  0  0  0  0  0  0  0  0  0  0
  142.8397  136.7420  154.7887 H   0  0  0  0  0  0  0  0  0  0  0  0
  146.6745  137.6550  150.4049 H   0  0  0  0  0  0  0  0  0  0  0  0
  145.5744  139.1710  156.5678 H   0  0  0  0  0  0  0  0  0  0  0  0
  148.2180  139.5707  155.8207 H   0  0  0  0  0  0  0  0  0  0  0  0
  148.4689  139.7320  154.1012 H   0  0  0  0  0  0  0  0  0  0  0  0
  148.4587  143.0579  155.1817 H   0  0  0  0  0  0  0  0  0  0  0  0
  147.5104  142.3773  153.0088 H   0  0  0  0  0  0  0  0  0  0  0  0
  146.1626  141.2701  153.2565 H   0  0  0  0  0  0  0  0  0  0  0  0
  146.4742  143.9997  154.5654 H   0  0  0  0  0  0  0  0  0  0  0  0
  145.1035  143.4041  153.6138 H   0  0  0  0  0  0  0  0  0  0  0  0
  145.9812  140.8752  156.5622 H   0  0  0  0  0  0  0  0  0  0  0  0
  146.8564  142.3598  156.9061 H   0  0  0  0  0  0  0  0  0  0  0  0
  1  2  1  0  0  0  0
  1 29  1  0  0  0  0
  2  6  1  0  0  0  0
  2  3  1  0  0  0  0
  2 30  1  0  0  0  0
  3  4  1  0  0  0  0
  3 31  1  0  0  0  0
  3 32  1  0  0  0  0
  4  5  1  0  0  0  0
  4 33  1  0  0  0  0
  4 34  1  0  0  0  0
  5  6  1  0  0  0  0
  5 35  1  0  0  0  0
  5 36  1  0  0  0  0
  6  7  1  0  0  0  0
  6 37  1  0  0  0  0
  7 12  1  0  0  0  0
  7  8  1  0  0  0  0
  7 38  1  0  0  0  0
  8  9  1  0  0  0  0
  8 39  1  0  0  0  0
  8 40  1  0  0  0  0
  9 10  1  0  0  0  0
 10 11  1  0  0  0  0
 10 41  1  0  0  0  0
 10 42  1  0  0  0  0
 11 12  1  0  0  0  0
 11 43  1  0  0  0  0
 11 44  1  0  0  0  0
 12 13  1  0  0  0  0
 13 18  1  0  0  0  0
 13 14  2  0  0  0  0
 14 15  1  0  0  0  0
 15 16  2  0  0  0  0
 15 45  1  0  0  0  0
 16 17  1  0  0  0  0
 17 21  1  0  0  0  0
 17 18  2  0  0  0  0
 18 19  1  0  0  0  0
 19 20  2  0  0  0  0
 20 21  1  0  0  0  0
 20 46  1  0  0  0  0
 21 22  1  0  0  0  0
 22 23  1  0  0  0  0
 22 47  1  0  0  0  0
 22 48  1  0  0  0  0
 23 28  1  0  0  0  0
 23 24  1  0  0  0  0
 23 25  1  0  0  0  0
 24 49  1  0  0  0  0
 25 26  1  0  0  0  0
 25 50  1  0  0  0  0
 25 51  1  0  0  0  0
 26 27  1  0  0  0  0
 26 52  1  0  0  0  0
 26 53  1  0  0  0  0
 27 28  1  0  0  0  0
 28 54  1  0  0  0  0
 28 55  1  0  0  0  0
M  END
> <s_m_source_file>
AV-unprocessed.smi

> <i_m_source_file_index>
240

> <i_lp_mmshare_version>
43012

> <i_f3d_flags>
0

> <s_epik_input>
W09IXVtDQEBIXTFbQ0gyXVtDSDJdW0NIMl1bQ0BIXTFbQ0BASF0yW0NIMl1PW0NIMl1bQ0gyXU4yYyhuW2NIXW4zKWMoYzM0KW5bY0hdbjRbQ0gyXVtDQEBdNShbT0hdKVtDSDJdW0NIMl1PW0NIMl01

> <s_epik_cmdline>
J2VwaWtfcHl0aG9uJywgJy1waCcsICc3LjAnLCAnLXRuJywgJzgnLCAnLW1hJywgJzIwMCcsICctbWV0YWxfYmluZGluZycsICctaW1hZScsICc8aW5maWxlLm1hZT4nLCAnLW9tYWUnLCAnPG91dGZpbGUubWFlPic=

> <r_lp_tautomer_probability>
1

> <r_epik_Ionization_Penalty>
0.000130618

> <r_epik_Ionization_Penalty_Charging>
0

> <r_epik_Ionization_Penalty_Neutral>
0.000130618

> <r_epik_State_Penalty>
-0

> <r_epik_Charging_Adjusted_Penalty>
0

> <i_epik_Tot_Q>
0

> <i_epik_Tot_abs_Q>
0

> <r_epik_Metal_State_Penalty>
-0

> <b_epik_Metal_Only>
0

> <s_lp_Force_Field>
OPLS_2005

> <r_lp_Energy>
60.7436

> <b_lp_Chiralities_Consistent>
1

> <s_lp_Variant>
AV-unprocessed.smi:240-1

> <Gold.Version>
5.8.1

> <Gold.Id.Protein>
6NUR|6NUR_protein|mol2

> <Gold.PLP.Fitness>
41.9773

> <Gold.PLP.PLP>
-38.0308

> <Gold.PLP.part.hbond>
-3.0154

> <Gold.PLP.part.metal>
0.0000

> <Gold.PLP.part.buried>
-7.3957

> <Gold.PLP.part.nonpolar>
-33.3507

> <Gold.PLP.part.repulsive>
4.8708

> <Gold.PLP.ligand.clash>
0.0000

> <Gold.PLP.ligand.torsion>
2.0597

> <Gold.PLP.Chemscore.Hbond>
2.6240

> <Gold.PLP.Chemscore.CHOScore>
0.0000

> <Gold.PLP.Chemscore.Metal>
0.0000

> <Gold.Chemscore.Hbonds>
donor molecule, donor type, donor heavy atom, donor atom, acceptor molecule, acceptor atom, score
      L1  H     1    29       P1  7948  0.64
      L1  H    24    49       P1  8028  0.99
      P1  H 11000 11005       L1     9  1.00

> <Gold.PLP.Chemscore.Internal.Correction>
0.1939

> <Gold.Rescore>
     Score         DG    S(hbond)    S(metal)    S(lipo)     H(rot)  DE(clash)    DE(int)     intcor
      5.80     -12.70       1.86        0.00      74.42       3.00       1.96       4.94       ----

> <Gold.Chemscore.Fitness>
5.7964

> <Gold.Chemscore.DG>
-12.6953

> <Gold.Chemscore.ZeroCoef>
-5.4800

> <Gold.Chemscore.Hbond>
1.8555

> <Gold.Chemscore.Metal>
0.0000

> <Gold.Chemscore.Lipo>
74.4248

> <Gold.Chemscore.Internal_Hbond>
0.0000

> <Gold.Chemscore.DEClash>
1.9579

> <Gold.Chemscore.DEInternal>
4.9410

> <Gold.Chemscore.Rot>
3.0039

> <Gold.Chemscore.Internal.Correction>
   9.000000E+99

> <Gold.Chemscore.Hbonds>
donor molecule, donor type, donor heavy atom, donor atom, acceptor molecule, acceptor atom, score
      L1  H     1    29       P1  7948  0.55
      L1  H    24    49       P1  8028  0.93
      P1  H 11000 11005       L1     9  0.73

> <Gold.Chemscore.Hbond.Weighted>
-6.1975

> <Gold.Chemscore.Metal.Weighted>
-0.0000

> <Gold.Chemscore.Lipo.Weighted>
-8.7077

> <Gold.Chemscore.Internal_Hbond.Weighted>
0.0000

> <Gold.Chemscore.DEClash.Weighted>
1.9579

> <Gold.Chemscore.DEInternal.Weighted>
4.9410

> <Gold.Chemscore.Rot.Weighted>
7.6899

> <Gold.Chemscore.Internal.Correction.Weighted>
   9.000000E+99

> <Gold.Protein.RotatedTorsions>
[ 6907 6896 6895 6894 ] final  -11.44 input  -60.11 | X-H torsion
[ 7974 7965 7964 7962 ] final -166.61 input  175.53 | X-H torsion
[ 8008 7997 7996 7995 ] final -131.55 input   59.86 | X-H torsion
[ 10167 10162 10161 10158 ] final  -83.39 input  -65.29 | X-H torsion
[ 10718 10713 10712 10709 ] final  160.78 input   66.30 | X-H torsion
[ 10763 10752 10751 10750 ] final -128.11 input  -60.55 | X-H torsion
[ 11005 11000 10999 10996 ] final   14.29 input  -57.11 | X-H torsion

> <Gold.Protein.ActiveResidues>
 VAL166  LYS551  ARG553  GLY616  TRP617  ASP618  TYR619  PRO620  LYS621  CYS622 
 ASP623  PHE694  ASN695  SER759  ASP760  ASP761  ALA762  ILE779  LEU786  VAL792 
 PHE793  MET794  SER795  GLU796  ALA797  LYS798  CYS799  TRP800  GLU811  SER814 

> <Gold.Protein.RotatedAtoms>
  151.3862  135.0948  159.9511 H   0  0  0  0  0  0  0  0  0  0  0  0  # atno 6907 bound_to 6896
  152.5093  133.9024  159.7458 H   0  0  0  0  0  0  0  0  0  0  0  0  # atno 6908 bound_to 6896
  150.9468  133.6539  159.2808 H   0  0  0  0  0  0  0  0  0  0  0  0  # atno 6909 bound_to 6896
  144.7241  140.2641  143.6260 H   0  0  0  0  0  0  0  0  0  0  0  0  # atno 7974 bound_to 7965
  155.3141  140.0459  157.3036 H   0  0  0  0  0  0  0  0  0  0  0  0  # atno 8008 bound_to 7997
  154.5416  140.2289  155.8598 H   0  0  0  0  0  0  0  0  0  0  0  0  # atno 8009 bound_to 7997
  156.1886  140.3056  155.9294 H   0  0  0  0  0  0  0  0  0  0  0  0  # atno 8010 bound_to 7997
  140.4231  143.2577  151.8863 H   0  0  0  0  0  0  0  0  0  0  0  0  # atno 10167 bound_to 10162
  157.1456  131.0551  151.2305 H   0  0  0  0  0  0  0  0  0  0  0  0  # atno 10718 bound_to 10713
  154.8755  135.3939  154.3704 H   0  0  0  0  0  0  0  0  0  0  0  0  # atno 10763 bound_to 10752
  153.4464  135.7027  153.6141 H   0  0  0  0  0  0  0  0  0  0  0  0  # atno 10764 bound_to 10752
  153.4700  135.3792  155.2355 H   0  0  0  0  0  0  0  0  0  0  0  0  # atno 10765 bound_to 10752
  140.4712  134.1029  155.7733 H   0  0  0  0  0  0  0  0  0  0  0  0  # atno 11005 bound_to 11000
  145.8107  139.2002  143.1995 LP  0  0  0  0  0  0  0  0  0  0  0  0  # atno 17320 bound_to 7965
  146.0599  140.7982  142.9740 LP  0  0  0  0  0  0  0  0  0  0  0  0  # atno 17321 bound_to 7965
  139.4783  144.5416  151.8519 LP  0  0  0  0  0  0  0  0  0  0  0  0  # atno 17342 bound_to 10162
  140.4512  144.1853  150.5897 LP  0  0  0  0  0  0  0  0  0  0  0  0  # atno 17343 bound_to 10162
  157.4267  130.7468  149.6957 LP  0  0  0  0  0  0  0  0  0  0  0  0  # atno 17370 bound_to 10713
  155.9780  130.4056  150.3675 LP  0  0  0  0  0  0  0  0  0  0  0  0  # atno 17371 bound_to 10713
  141.1576  133.8853  157.1935 LP  0  0  0  0  0  0  0  0  0  0  0  0  # atno 17394 bound_to 11000
  139.9884  135.0073  156.9917 LP  0  0  0  0  0  0  0  0  0  0  0  0  # atno 17395 bound_to 11000

$$$$
