AV-unprocessed.smi:3202|AV-procd|sdf|12248|dock5
  -GOLD-   2272018 83D 1   1.00000     0.00000
 Structure written by MMmdl.
 43 44  0  0  0  0  0  0  0  0  2 V2000
  146.5973  138.7181  152.0384 C   0  0  0  0  0  0  0  0  0  0  0  0
  147.1536  139.3912  153.2584 C   0  0  0  0  0  0  0  0  0  0  0  0
  147.6758  140.7127  153.3736 C   0  0  0  0  0  0  0  0  0  0  0  0
  148.0513  140.8148  154.6837 C   0  0  0  0  0  0  0  0  0  0  0  0
  148.6799  141.9377  155.4437 C   0  0  0  0  0  0  0  0  0  0  0  0
  149.8498  141.5084  156.3502 C   0  0  1  0  0  0  0  0  0  0  0  0
  150.8580  140.5982  155.6303 C   0  0  0  0  0  0  0  0  0  0  0  0
  150.5474  142.7075  156.8654 N   0  3  0  0  0  0  0  0  0  0  0  0
  151.0378  142.6123  158.2590 C   0  0  1  0  0  0  0  0  0  0  0  0
  152.0150  141.4479  158.4769 C   0  0  0  0  0  0  0  0  0  0  0  0
  152.9002  141.8679  159.6572 C   0  0  0  0  0  0  0  0  0  0  0  0
  152.5432  143.3291  159.9665 C   0  0  0  0  0  0  0  0  0  0  0  0
  151.8011  143.8687  158.7304 C   0  0  0  0  0  0  0  0  0  0  0  0
  152.8223  144.3785  157.6868 C   0  0  0  0  0  0  0  0  0  0  0  0
  150.8410  145.0109  159.1122 C   0  0  0  0  0  0  0  0  0  0  0  0
  147.7457  139.6056  155.2659 N   0  0  0  0  0  0  0  0  0  0  0  0
  147.1979  138.7289  154.4045 N   0  0  0  0  0  0  0  0  0  0  0  0
  147.9019  139.3660  156.2348 H   0  0  0  0  0  0  0  0  0  0  0  0
  146.5247  139.4142  151.2024 H   0  0  0  0  0  0  0  0  0  0  0  0
  145.5991  138.3215  152.2264 H   0  0  0  0  0  0  0  0  0  0  0  0
  147.2328  137.8898  151.7244 H   0  0  0  0  0  0  0  0  0  0  0  0
  147.7658  141.4680  152.6068 H   0  0  0  0  0  0  0  0  0  0  0  0
  147.9149  142.4269  156.0484 H   0  0  0  0  0  0  0  0  0  0  0  0
  149.0266  142.6926  154.7369 H   0  0  0  0  0  0  0  0  0  0  0  0
  149.4377  140.9421  157.1868 H   0  0  0  0  0  0  0  0  0  0  0  0
  150.3923  139.6714  155.2940 H   0  0  0  0  0  0  0  0  0  0  0  0
  151.6787  140.3228  156.2937 H   0  0  0  0  0  0  0  0  0  0  0  0
  151.2867  141.0915  154.7573 H   0  0  0  0  0  0  0  0  0  0  0  0
  151.3364  142.9050  156.2666 H   0  0  0  0  0  0  0  0  0  0  0  0
  150.1783  142.4674  158.9170 H   0  0  0  0  0  0  0  0  0  0  0  0
  151.4957  140.5087  158.6701 H   0  0  0  0  0  0  0  0  0  0  0  0
  152.6366  141.2979  157.5928 H   0  0  0  0  0  0  0  0  0  0  0  0
  152.7327  141.2350  160.5292 H   0  0  0  0  0  0  0  0  0  0  0  0
  153.9528  141.7765  159.3866 H   0  0  0  0  0  0  0  0  0  0  0  0
  151.8818  143.3472  160.8342 H   0  0  0  0  0  0  0  0  0  0  0  0
  153.4206  143.9222  160.2280 H   0  0  0  0  0  0  0  0  0  0  0  0
  153.4240  145.1921  158.0939 H   0  0  0  0  0  0  0  0  0  0  0  0
  152.3285  144.7640  156.7944 H   0  0  0  0  0  0  0  0  0  0  0  0
  153.5116  143.5958  157.3695 H   0  0  0  0  0  0  0  0  0  0  0  0
  151.3855  145.8628  159.5212 H   0  0  0  0  0  0  0  0  0  0  0  0
  150.1168  144.6950  159.8640 H   0  0  0  0  0  0  0  0  0  0  0  0
  150.2805  145.3632  158.2458 H   0  0  0  0  0  0  0  0  0  0  0  0
  149.9061  143.4859  156.8101 H   0  0  0  0  0  0  0  0  0  0  0  0
  1 19  1  0  0  0  0
  1 20  1  0  0  0  0
  1 21  1  0  0  0  0
  1  2  1  0  0  0  0
  2 17  2  0  0  0  0
  2  3  1  0  0  0  0
  3  4  2  0  0  0  0
  3 22  1  0  0  0  0
  4 16  1  0  0  0  0
  4  5  1  0  0  0  0
  5  6  1  0  0  0  0
  5 23  1  0  0  0  0
  5 24  1  0  0  0  0
  6  7  1  0  0  0  0
  6  8  1  0  0  0  0
  6 25  1  0  0  0  0
  7 26  1  0  0  0  0
  7 27  1  0  0  0  0
  7 28  1  0  0  0  0
  8  9  1  0  0  0  0
  8 29  1  0  0  0  0
  8 43  1  0  0  0  0
  9 13  1  0  0  0  0
  9 10  1  0  0  0  0
  9 30  1  0  0  0  0
 10 11  1  0  0  0  0
 10 31  1  0  0  0  0
 10 32  1  0  0  0  0
 11 12  1  0  0  0  0
 11 33  1  0  0  0  0
 11 34  1  0  0  0  0
 12 13  1  0  0  0  0
 12 35  1  0  0  0  0
 12 36  1  0  0  0  0
 13 14  1  0  0  0  0
 13 15  1  0  0  0  0
 14 37  1  0  0  0  0
 14 38  1  0  0  0  0
 14 39  1  0  0  0  0
 15 40  1  0  0  0  0
 15 41  1  0  0  0  0
 15 42  1  0  0  0  0
 16 17  1  0  0  0  0
 16 18  1  0  0  0  0
M  CHG  1   8   1
M  END
> <s_m_source_file>
AV-unprocessed.smi

> <i_m_source_file_index>
3202

> <i_lp_mmshare_version>
43012

> <i_f3d_flags>
0

> <s_epik_input>
W0NIM11jMVtjSF1jKG5bbkhdMSlbQ0gyXVtDQEhdKFtDSDNdKVtOSF1bQ0BASF0oQzIoW0NIM10pW0NIM10pW0NIMl1bQ0gyXVtDSDJdMg==

> <s_epik_cmdline>
J2VwaWtfcHl0aG9uJywgJy1waCcsICc3LjAnLCAnLXRuJywgJzgnLCAnLW1hJywgJzIwMCcsICctbWV0YWxfYmluZGluZycsICctaW1hZScsICc8aW5maWxlLm1hZT4nLCAnLW9tYWUnLCAnPG91dGZpbGUubWFlPic=

> <r_lp_tautomer_probability>
0.5

> <r_epik_Ionization_Penalty>
0.000449684

> <r_epik_Ionization_Penalty_Charging>
0.000404963

> <r_epik_Ionization_Penalty_Neutral>
4.47208e-05

> <r_epik_State_Penalty>
0.41068

> <r_epik_Charging_Adjusted_Penalty>
0.411085

> <i_epik_Tot_Q>
1

> <i_epik_Tot_abs_Q>
1

> <r_epik_Metal_State_Penalty>
0.410687

> <b_epik_Metal_Only>
0

> <s_lp_Force_Field>
OPLS_2005

> <r_lp_Energy>
32.3918

> <b_lp_Chiralities_Consistent>
1

> <s_lp_Variant>
AV-unprocessed.smi:3202-8

> <Gold.Version>
5.8.1

> <Gold.Id.Protein>
6NUR|6NUR_protein|mol2

> <Gold.PLP.Fitness>
41.5689

> <Gold.PLP.PLP>
-37.2261

> <Gold.PLP.part.hbond>
-1.0000

> <Gold.PLP.part.metal>
0.0000

> <Gold.PLP.part.buried>
1.1482

> <Gold.PLP.part.nonpolar>
-37.6110

> <Gold.PLP.part.repulsive>
0.1624

> <Gold.PLP.ligand.clash>
0.0000

> <Gold.PLP.ligand.torsion>
0.7161

> <Gold.PLP.Chemscore.Hbond>
1.9200

> <Gold.PLP.Chemscore.CHOScore>
0.0000

> <Gold.PLP.Chemscore.Metal>
0.0000

> <Gold.Chemscore.Hbonds>
donor molecule, donor type, donor heavy atom, donor atom, acceptor molecule, acceptor atom, score
      L1  H     8    43       P1  8028  1.92

> <Gold.PLP.Chemscore.Internal.Correction>
0.0151

> <Gold.Rescore>
     Score         DG    S(hbond)    S(metal)    S(lipo)     H(rot)  DE(clash)    DE(int)     intcor
     16.91     -19.65       0.94        0.00     126.06       1.46       2.14       0.59       ----

> <Gold.Chemscore.Fitness>
16.9111

> <Gold.Chemscore.DG>
-19.6455

> <Gold.Chemscore.ZeroCoef>
-5.4800

> <Gold.Chemscore.Hbond>
0.9440

> <Gold.Chemscore.Metal>
0.0000

> <Gold.Chemscore.Lipo>
126.0601

> <Gold.Chemscore.Internal_Hbond>
0.0000

> <Gold.Chemscore.DEClash>
2.1412

> <Gold.Chemscore.DEInternal>
0.5932

> <Gold.Chemscore.Rot>
1.4596

> <Gold.Chemscore.Internal.Correction>
   9.000000E+99

> <Gold.Chemscore.Hbonds>
donor molecule, donor type, donor heavy atom, donor atom, acceptor molecule, acceptor atom, score
      L1  H     8    43       P1  8028  0.91

> <Gold.Chemscore.Hbond.Weighted>
-3.1530

> <Gold.Chemscore.Metal.Weighted>
-0.0000

> <Gold.Chemscore.Lipo.Weighted>
-14.7490

> <Gold.Chemscore.Internal_Hbond.Weighted>
0.0000

> <Gold.Chemscore.DEClash.Weighted>
2.1412

> <Gold.Chemscore.DEInternal.Weighted>
0.5932

> <Gold.Chemscore.Rot.Weighted>
3.7365

> <Gold.Chemscore.Internal.Correction.Weighted>
   9.000000E+99

> <Gold.Protein.RotatedTorsions>
[ 6907 6896 6895 6894 ] final   98.67 input  -60.11 | X-H torsion
[ 7974 7965 7964 7962 ] final  138.87 input  175.53 | X-H torsion
[ 8008 7997 7996 7995 ] final  151.29 input   59.86 | X-H torsion
[ 10167 10162 10161 10158 ] final  113.00 input  -65.29 | X-H torsion
[ 10718 10713 10712 10709 ] final  146.17 input   66.30 | X-H torsion
[ 10763 10752 10751 10750 ] final -124.18 input  -60.55 | X-H torsion
[ 11005 11000 10999 10996 ] final  132.10 input  -57.11 | X-H torsion

> <Gold.Protein.ActiveResidues>
 VAL166  LYS551  ARG553  GLY616  TRP617  ASP618  TYR619  PRO620  LYS621  CYS622 
 ASP623  PHE694  ASN695  SER759  ASP760  ASP761  ALA762  ILE779  LEU786  VAL792 
 PHE793  MET794  SER795  GLU796  ALA797  LYS798  CYS799  TRP800  GLU811  SER814 

> <Gold.Protein.RotatedAtoms>
  152.5405  134.0546  159.8124 H   0  0  0  0  0  0  0  0  0  0  0  0  # atno 6907 bound_to 6896
  151.0682  133.5480  159.2636 H   0  0  0  0  0  0  0  0  0  0  0  0  # atno 6908 bound_to 6896
  151.2353  135.0577  159.9057 H   0  0  0  0  0  0  0  0  0  0  0  0  # atno 6909 bound_to 6896
  144.9332  139.5022  143.5608 H   0  0  0  0  0  0  0  0  0  0  0  0  # atno 7974 bound_to 7965
  156.2680  140.2052  156.6152 H   0  0  0  0  0  0  0  0  0  0  0  0  # atno 8008 bound_to 7997
  154.6800  140.0541  157.0280 H   0  0  0  0  0  0  0  0  0  0  0  0  # atno 8009 bound_to 7997
  155.1014  140.3206  155.4549 H   0  0  0  0  0  0  0  0  0  0  0  0  # atno 8010 bound_to 7997
  139.6494  144.7128  151.2078 H   0  0  0  0  0  0  0  0  0  0  0  0  # atno 10167 bound_to 10162
  157.3365  131.0929  151.1119 H   0  0  0  0  0  0  0  0  0  0  0  0  # atno 10718 bound_to 10713
  154.8719  135.4072  154.3063 H   0  0  0  0  0  0  0  0  0  0  0  0  # atno 10763 bound_to 10752
  153.3914  135.7015  153.6497 H   0  0  0  0  0  0  0  0  0  0  0  0  # atno 10764 bound_to 10752
  153.5278  135.3674  155.2633 H   0  0  0  0  0  0  0  0  0  0  0  0  # atno 10765 bound_to 10752
  139.9770  134.9560  156.9534 H   0  0  0  0  0  0  0  0  0  0  0  0  # atno 11005 bound_to 11000
  146.3255  139.8297  142.8911 LP  0  0  0  0  0  0  0  0  0  0  0  0  # atno 17320 bound_to 7965
  145.3109  141.0219  143.3555 LP  0  0  0  0  0  0  0  0  0  0  0  0  # atno 17321 bound_to 7965
  140.7530  143.6176  150.8544 LP  0  0  0  0  0  0  0  0  0  0  0  0  # atno 17342 bound_to 10162
  139.9822  143.5938  152.2939 LP  0  0  0  0  0  0  0  0  0  0  0  0  # atno 17343 bound_to 10162
  157.2347  130.6541  149.5864 LP  0  0  0  0  0  0  0  0  0  0  0  0  # atno 17370 bound_to 10713
  155.9702  130.4587  150.6010 LP  0  0  0  0  0  0  0  0  0  0  0  0  # atno 17371 bound_to 10713
  140.5174  134.0941  155.7284 LP  0  0  0  0  0  0  0  0  0  0  0  0  # atno 17394 bound_to 11000
  141.1446  133.9078  157.2246 LP  0  0  0  0  0  0  0  0  0  0  0  0  # atno 17395 bound_to 11000

$$$$
