AV-unprocessed.smi:2335|AV-procd|sdf|9324|dock2
  -GOLD-   2272012543D 1   1.00000     0.00000
 Structure written by MMmdl.
 42 43  0  0  0  0  0  0  0  0  1 V2000
  150.4634  141.5641  158.0304 C   0  0  0  0  0  0  0  0  0  0  0  0
  151.0483  141.6651  156.6177 C   0  0  0  0  0  0  0  0  0  0  0  0
  150.6258  140.5343  155.7406 C   0  0  0  0  0  0  0  0  0  0  0  0
  151.4749  139.8910  154.9295 N   0  0  0  0  0  0  0  0  0  0  0  0
  150.8596  138.8585  154.2354 N   0  0  0  0  0  0  0  0  0  0  0  0
  149.5638  138.7431  154.5568 C   0  0  0  0  0  0  0  0  0  0  0  0
  148.6951  137.7686  153.9988 N   0  0  0  0  0  0  0  0  0  0  0  0
  147.4777  137.3927  154.4278 C   0  0  0  0  0  0  0  0  0  0  0  0
  146.8913  137.8577  155.4052 O   0  0  0  0  0  0  0  0  0  0  0  0
  146.9691  136.4276  153.6494 N   0  0  0  0  0  0  0  0  0  0  0  0
  145.6777  135.7736  153.8529 C   0  0  1  0  0  0  0  0  0  0  0  0
  144.6097  136.7657  154.2686 C   0  0  0  0  0  0  0  0  0  0  0  0
  143.3079  136.0712  153.8510 C   0  0  0  0  0  0  0  0  0  0  0  0
  142.7450  135.1800  154.9715 C   0  0  0  0  0  0  0  0  0  0  0  0
  142.2490  137.0685  153.3568 C   0  0  0  0  0  0  0  0  0  0  0  0
  143.6651  135.2149  152.7671 O   0  0  0  0  0  0  0  0  0  0  0  0
  145.0775  135.1568  152.5701 C   0  0  0  0  0  0  0  0  0  0  0  0
  145.3718  135.9551  151.2827 C   0  0  0  0  0  0  0  0  0  0  0  0
  145.4689  133.6810  152.3957 C   0  0  0  0  0  0  0  0  0  0  0  0
  148.9847  139.8995  155.7435 S   0  0  0  0  0  0  0  0  0  0  0  0
  150.7889  142.4022  158.6466 H   0  0  0  0  0  0  0  0  0  0  0  0
  150.7815  140.6447  158.5227 H   0  0  0  0  0  0  0  0  0  0  0  0
  149.3733  141.5712  158.0059 H   0  0  0  0  0  0  0  0  0  0  0  0
  150.7379  142.6016  156.1535 H   0  0  0  0  0  0  0  0  0  0  0  0
  152.1376  141.6875  156.6663 H   0  0  0  0  0  0  0  0  0  0  0  0
  149.0449  137.2975  153.1778 H   0  0  0  0  0  0  0  0  0  0  0  0
  147.5206  136.1065  152.8675 H   0  0  0  0  0  0  0  0  0  0  0  0
  145.7553  135.0149  154.6342 H   0  0  0  0  0  0  0  0  0  0  0  0
  144.6457  137.0072  155.3318 H   0  0  0  0  0  0  0  0  0  0  0  0
  144.7338  137.6998  153.7179 H   0  0  0  0  0  0  0  0  0  0  0  0
  142.4679  135.7717  155.8445 H   0  0  0  0  0  0  0  0  0  0  0  0
  143.4722  134.4343  155.2939 H   0  0  0  0  0  0  0  0  0  0  0  0
  141.8554  134.6448  154.6380 H   0  0  0  0  0  0  0  0  0  0  0  0
  141.9635  137.7640  154.1465 H   0  0  0  0  0  0  0  0  0  0  0  0
  141.3471  136.5531  153.0251 H   0  0  0  0  0  0  0  0  0  0  0  0
  142.6191  137.6539  152.5145 H   0  0  0  0  0  0  0  0  0  0  0  0
  146.4312  135.9286  151.0263 H   0  0  0  0  0  0  0  0  0  0  0  0
  145.0781  137.0002  151.3814 H   0  0  0  0  0  0  0  0  0  0  0  0
  144.8240  135.5427  150.4351 H   0  0  0  0  0  0  0  0  0  0  0  0
  146.5409  133.5726  152.2305 H   0  0  0  0  0  0  0  0  0  0  0  0
  144.9568  133.2349  151.5428 H   0  0  0  0  0  0  0  0  0  0  0  0
  145.2073  133.0956  153.2777 H   0  0  0  0  0  0  0  0  0  0  0  0
  1  2  1  0  0  0  0
  1 21  1  0  0  0  0
  1 22  1  0  0  0  0
  1 23  1  0  0  0  0
  2  3  1  0  0  0  0
  2 24  1  0  0  0  0
  2 25  1  0  0  0  0
  3 20  1  0  0  0  0
  3  4  2  0  0  0  0
  4  5  1  0  0  0  0
  5  6  2  0  0  0  0
  6  7  1  0  0  0  0
  6 20  1  0  0  0  0
  7  8  1  0  0  0  0
  7 26  1  0  0  0  0
  8  9  2  0  0  0  0
  8 10  1  0  0  0  0
 10 11  1  0  0  0  0
 10 27  1  0  0  0  0
 11 17  1  0  0  0  0
 11 12  1  0  0  0  0
 11 28  1  0  0  0  0
 12 13  1  0  0  0  0
 12 29  1  0  0  0  0
 12 30  1  0  0  0  0
 13 14  1  0  0  0  0
 13 15  1  0  0  0  0
 13 16  1  0  0  0  0
 14 31  1  0  0  0  0
 14 32  1  0  0  0  0
 14 33  1  0  0  0  0
 15 34  1  0  0  0  0
 15 35  1  0  0  0  0
 15 36  1  0  0  0  0
 16 17  1  0  0  0  0
 17 18  1  0  0  0  0
 17 19  1  0  0  0  0
 18 37  1  0  0  0  0
 18 38  1  0  0  0  0
 18 39  1  0  0  0  0
 19 40  1  0  0  0  0
 19 41  1  0  0  0  0
 19 42  1  0  0  0  0
M  END
> <s_m_source_file>
AV-unprocessed.smi

> <i_m_source_file_index>
2335

> <i_lp_mmshare_version>
43012

> <i_f3d_flags>
0

> <s_epik_input>
W0NIM11bQ0gyXWMxbm5jKHMxKVtOSF1DKD1PKVtOSF1bQ0BASF0oQyhPMikoW0NIM10pW0NIM10pW0NIMl1DMihbQ0gzXSlbQ0gzXQ==

> <s_epik_cmdline>
J2VwaWtfcHl0aG9uJywgJy1waCcsICc3LjAnLCAnLXRuJywgJzgnLCAnLW1hJywgJzIwMCcsICctbWV0YWxfYmluZGluZycsICctaW1hZScsICc8aW5maWxlLm1hZT4nLCAnLW9tYWUnLCAnPG91dGZpbGUubWFlPic=

> <r_lp_tautomer_probability>
1

> <r_epik_Ionization_Penalty>
0.000542824

> <r_epik_Ionization_Penalty_Charging>
0

> <r_epik_Ionization_Penalty_Neutral>
0.000542824

> <r_epik_State_Penalty>
-0

> <r_epik_Charging_Adjusted_Penalty>
0

> <i_epik_Tot_Q>
0

> <i_epik_Tot_abs_Q>
0

> <r_epik_Metal_State_Penalty>
0.227439

> <b_epik_Metal_Only>
0

> <s_lp_Force_Field>
OPLS_2005

> <r_lp_Energy>
12.5908

> <b_lp_Chiralities_Consistent>
1

> <s_lp_Variant>
AV-unprocessed.smi:2335-2

> <Gold.Version>
5.8.1

> <Gold.Id.Protein>
6NUR|6NUR_protein|mol2

> <Gold.PLP.Fitness>
31.7794

> <Gold.PLP.PLP>
-24.6806

> <Gold.PLP.part.hbond>
-3.3282

> <Gold.PLP.part.metal>
0.0000

> <Gold.PLP.part.buried>
-4.6123

> <Gold.PLP.part.nonpolar>
-17.4773

> <Gold.PLP.part.repulsive>
0.4281

> <Gold.PLP.ligand.clash>
0.0000

> <Gold.PLP.ligand.torsion>
0.5837

> <Gold.PLP.Chemscore.Hbond>
2.7500

> <Gold.PLP.Chemscore.CHOScore>
0.0000

> <Gold.PLP.Chemscore.Metal>
0.0000

> <Gold.Chemscore.Hbonds>
donor molecule, donor type, donor heavy atom, donor atom, acceptor molecule, acceptor atom, score
      L1  H     7    26       P1  7948  1.00
      L1  H    10    27       P1  7948  1.00
      P1  H  7989  7998       L1     4  0.65

> <Gold.PLP.Chemscore.Internal.Correction>
0.0162

> <Gold.Rescore>
     Score         DG    S(hbond)    S(metal)    S(lipo)     H(rot)  DE(clash)    DE(int)     intcor
     12.14     -15.29       1.98        0.00      53.85       1.21       0.25       2.90       ----

> <Gold.Chemscore.Fitness>
12.1381

> <Gold.Chemscore.DG>
-15.2916

> <Gold.Chemscore.ZeroCoef>
-5.4800

> <Gold.Chemscore.Hbond>
1.9764

> <Gold.Chemscore.Metal>
0.0000

> <Gold.Chemscore.Lipo>
53.8458

> <Gold.Chemscore.Internal_Hbond>
0.0000

> <Gold.Chemscore.DEClash>
0.2516

> <Gold.Chemscore.DEInternal>
2.9019

> <Gold.Chemscore.Rot>
1.2068

> <Gold.Chemscore.Internal.Correction>
   9.000000E+99

> <Gold.Chemscore.Hbonds>
donor molecule, donor type, donor heavy atom, donor atom, acceptor molecule, acceptor atom, score
      L1  H     7    26       P1  7948  0.99
      L1  H    10    27       P1  7948  0.95
      P1  H  7989  7998       L1     4  0.03

> <Gold.Chemscore.Hbond.Weighted>
-6.6012

> <Gold.Chemscore.Metal.Weighted>
-0.0000

> <Gold.Chemscore.Lipo.Weighted>
-6.3000

> <Gold.Chemscore.Internal_Hbond.Weighted>
0.0000

> <Gold.Chemscore.DEClash.Weighted>
0.2516

> <Gold.Chemscore.DEInternal.Weighted>
2.9019

> <Gold.Chemscore.Rot.Weighted>
3.0895

> <Gold.Chemscore.Internal.Correction.Weighted>
   9.000000E+99

> <Gold.Protein.RotatedTorsions>
[ 6907 6896 6895 6894 ] final  151.67 input  -60.11 | X-H torsion
[ 7974 7965 7964 7962 ] final    6.37 input  175.53 | X-H torsion
[ 8008 7997 7996 7995 ] final   10.87 input   59.86 | X-H torsion
[ 10167 10162 10161 10158 ] final    3.48 input  -65.29 | X-H torsion
[ 10718 10713 10712 10709 ] final  -44.99 input   66.30 | X-H torsion
[ 10763 10752 10751 10750 ] final   33.94 input  -60.55 | X-H torsion
[ 11005 11000 10999 10996 ] final   -5.71 input  -57.11 | X-H torsion

> <Gold.Protein.ActiveResidues>
 VAL166  LYS551  ARG553  GLY616  TRP617  ASP618  TYR619  PRO620  LYS621  CYS622 
 ASP623  PHE694  ASN695  SER759  ASP760  ASP761  ALA762  ILE779  LEU786  VAL792 
 PHE793  MET794  SER795  GLU796  ALA797  LYS798  CYS799  TRP800  GLU811  SER814 

> <Gold.Protein.RotatedAtoms>
  152.0974  133.4232  159.4571 H   0  0  0  0  0  0  0  0  0  0  0  0  # atno 6907 bound_to 6896
  150.6863  134.2800  159.4632 H   0  0  0  0  0  0  0  0  0  0  0  0  # atno 6908 bound_to 6896
  152.0657  134.9565  160.0625 H   0  0  0  0  0  0  0  0  0  0  0  0  # atno 6909 bound_to 6896
  146.2435  140.0244  142.8395 H   0  0  0  0  0  0  0  0  0  0  0  0  # atno 7974 bound_to 7965
  154.7992  140.2849  155.5934 H   0  0  0  0  0  0  0  0  0  0  0  0  # atno 8008 bound_to 7997
  156.2975  140.2590  156.2785 H   0  0  0  0  0  0  0  0  0  0  0  0  # atno 8009 bound_to 7997
  154.9578  140.0378  157.2165 H   0  0  0  0  0  0  0  0  0  0  0  0  # atno 8010 bound_to 7997
  140.6583  143.7369  150.7693 H   0  0  0  0  0  0  0  0  0  0  0  0  # atno 10167 bound_to 10162
  156.2329  130.4174  149.8853 H   0  0  0  0  0  0  0  0  0  0  0  0  # atno 10718 bound_to 10713
  153.0188  135.6374  154.1590 H   0  0  0  0  0  0  0  0  0  0  0  0  # atno 10763 bound_to 10752
  154.1327  135.2839  155.3183 H   0  0  0  0  0  0  0  0  0  0  0  0  # atno 10764 bound_to 10752
  154.6183  135.5533  153.7609 H   0  0  0  0  0  0  0  0  0  0  0  0  # atno 10765 bound_to 10752
  140.6941  133.9045  155.8638 H   0  0  0  0  0  0  0  0  0  0  0  0  # atno 11005 bound_to 11000
  145.1212  140.9463  143.4599 LP  0  0  0  0  0  0  0  0  0  0  0  0  # atno 17320 bound_to 7965
  145.0479  139.3205  143.5943 LP  0  0  0  0  0  0  0  0  0  0  0  0  # atno 17321 bound_to 7965
  140.1033  143.4767  152.2412 LP  0  0  0  0  0  0  0  0  0  0  0  0  # atno 17342 bound_to 10162
  139.5811  144.7511  151.3638 LP  0  0  0  0  0  0  0  0  0  0  0  0  # atno 17343 bound_to 10162
  156.6461  130.8724  151.3523 LP  0  0  0  0  0  0  0  0  0  0  0  0  # atno 17370 bound_to 10713
  157.7141  130.9476  150.1193 LP  0  0  0  0  0  0  0  0  0  0  0  0  # atno 17371 bound_to 10713
  141.0217  134.0880  157.4113 LP  0  0  0  0  0  0  0  0  0  0  0  0  # atno 17394 bound_to 11000
  139.8915  135.0119  156.6794 LP  0  0  0  0  0  0  0  0  0  0  0  0  # atno 17395 bound_to 11000

$$$$
