AV-unprocessed.smi:1|AV-procd|sdf|20|dock9
  -GOLD-   2262015123D 1   1.00000     0.00000
 Structure written by MMmdl.
 56 61  0  0  0  0  0  0  0  0  2 V2000
  152.8908  139.7626  158.1413 O   0  0  0  0  0  0  0  0  0  0  0  0
  152.1229  140.6338  157.7272 C   0  0  0  0  0  0  0  0  0  0  0  0
  151.3293  140.5896  156.6270 N   0  5  0  0  0  0  0  0  0  0  0  0
  151.1806  139.4346  155.9601 C   0  0  0  0  0  0  0  0  0  0  0  0
  151.5670  139.3372  154.6626 N   0  0  0  0  0  0  0  0  0  0  0  0
  151.4248  138.1840  153.9998 C   0  0  0  0  0  0  0  0  0  0  0  0
  150.9275  137.0221  154.4337 N   0  0  0  0  0  0  0  0  0  0  0  0
  150.5225  137.1082  155.7341 C   0  0  0  0  0  0  0  0  0  0  0  0
  150.6114  138.2730  156.5513 C   0  0  0  0  0  0  0  0  0  0  0  0
  150.1079  138.0247  157.8190 N   0  0  0  0  0  0  0  0  0  0  0  0
  149.7487  136.7472  157.7195 C   0  0  0  0  0  0  0  0  0  0  0  0
  149.9634  136.1288  156.5411 N   0  0  0  0  0  0  0  0  0  0  0  0
  149.6406  134.7091  156.2009 C   0  0  1  0  0  0  0  0  0  0  0  0
  149.4033  133.9959  157.3785 O   0  0  0  0  0  0  0  0  0  0  0  0
  148.0549  133.5365  157.4252 C   0  0  2  0  0  0  0  0  0  0  0  0
  147.9464  132.2276  158.2150 C   0  0  0  0  0  0  0  0  0  0  0  0
  146.6415  131.7005  158.0435 O   0  0  0  0  0  0  0  0  0  0  0  0
  145.6607  132.0246  158.9063 C   0  0  0  0  0  0  0  0  0  0  0  0
  145.8090  132.8111  159.8438 O   0  0  0  0  0  0  0  0  0  0  0  0
  144.3752  131.3299  158.6076 C   0  0  0  0  0  0  0  0  0  0  0  0
  143.3757  131.2613  159.6060 C   0  0  0  0  0  0  0  0  0  0  0  0
  142.1512  130.6136  159.3518 C   0  0  0  0  0  0  0  0  0  0  0  0
  141.9112  130.0262  158.0961 C   0  0  0  0  0  0  0  0  0  0  0  0
  142.8975  130.0870  157.0947 C   0  0  0  0  0  0  0  0  0  0  0  0
  144.1228  130.7344  157.3468 C   0  0  0  0  0  0  0  0  0  0  0  0
  147.6478  133.4305  155.9571 C   0  0  2  0  0  0  0  0  0  0  0  0
  148.1284  132.2313  155.3719 O   0  0  0  0  0  0  0  0  0  0  0  0
  148.7504  132.5939  153.8643 S   0  0  0  0  0  0  0  0  0  0  0  0
  150.1515  132.1480  153.8255 O   0  0  0  0  0  0  0  0  0  0  0  0
  147.7629  132.1976  152.8490 O   0  0  0  0  0  0  0  0  0  0  0  0
  148.7321  134.2606  153.9871 O   0  0  0  0  0  0  0  0  0  0  0  0
  148.3881  134.6079  155.3166 C   0  0  2  0  0  0  0  0  0  0  0  0
  152.0610  141.9507  158.4535 C   0  0  0  0  0  0  0  0  0  0  0  0
  152.8672  142.1588  159.5958 C   0  0  0  0  0  0  0  0  0  0  0  0
  152.8038  143.3737  160.3057 C   0  0  0  0  0  0  0  0  0  0  0  0
  151.9255  144.3905  159.8864 C   0  0  0  0  0  0  0  0  0  0  0  0
  151.1082  144.1898  158.7584 C   0  0  0  0  0  0  0  0  0  0  0  0
  151.1714  142.9753  158.0476 C   0  0  0  0  0  0  0  0  0  0  0  0
  151.7614  138.1927  152.9738 H   0  0  0  0  0  0  0  0  0  0  0  0
  149.3067  136.2283  158.5572 H   0  0  0  0  0  0  0  0  0  0  0  0
  150.5417  134.3232  155.7223 H   0  0  0  0  0  0  0  0  0  0  0  0
  147.4362  134.2982  157.8989 H   0  0  0  0  0  0  0  0  0  0  0  0
  148.6724  131.5061  157.8378 H   0  0  0  0  0  0  0  0  0  0  0  0
  148.1609  132.3936  159.2716 H   0  0  0  0  0  0  0  0  0  0  0  0
  143.5375  131.7055  160.5774 H   0  0  0  0  0  0  0  0  0  0  0  0
  141.3956  130.5676  160.1220 H   0  0  0  0  0  0  0  0  0  0  0  0
  140.9719  129.5298  157.9016 H   0  0  0  0  0  0  0  0  0  0  0  0
  142.7150  129.6372  156.1298 H   0  0  0  0  0  0  0  0  0  0  0  0
  144.8575  130.7638  156.5555 H   0  0  0  0  0  0  0  0  0  0  0  0
  146.5681  133.4891  155.8167 H   0  0  0  0  0  0  0  0  0  0  0  0
  147.7965  135.5229  155.3593 H   0  0  0  0  0  0  0  0  0  0  0  0
  153.5448  141.3873  159.9321 H   0  0  0  0  0  0  0  0  0  0  0  0
  153.4287  143.5240  161.1736 H   0  0  0  0  0  0  0  0  0  0  0  0
  151.8760  145.3214  160.4312 H   0  0  0  0  0  0  0  0  0  0  0  0
  150.4286  144.9660  158.4391 H   0  0  0  0  0  0  0  0  0  0  0  0
  150.5273  142.8370  157.1911 H   0  0  0  0  0  0  0  0  0  0  0  0
  1  2  2  0  0  0  0
  2  3  1  0  0  0  0
  2 33  1  0  0  0  0
  3  4  1  0  0  0  0
  4  9  1  0  0  0  0
  4  5  2  0  0  0  0
  5  6  1  0  0  0  0
  6  7  2  0  0  0  0
  6 39  1  0  0  0  0
  7  8  1  0  0  0  0
  8 12  1  0  0  0  0
  8  9  2  0  0  0  0
  9 10  1  0  0  0  0
 10 11  2  0  0  0  0
 11 12  1  0  0  0  0
 11 40  1  0  0  0  0
 12 13  1  0  0  0  0
 13 32  1  0  0  0  0
 13 14  1  0  0  0  0
 13 41  1  0  0  0  0
 14 15  1  0  0  0  0
 15 16  1  0  0  0  0
 15 26  1  0  0  0  0
 15 42  1  0  0  0  0
 16 17  1  0  0  0  0
 16 43  1  0  0  0  0
 16 44  1  0  0  0  0
 17 18  1  0  0  0  0
 18 19  2  0  0  0  0
 18 20  1  0  0  0  0
 20 25  1  0  0  0  0
 20 21  2  0  0  0  0
 21 22  1  0  0  0  0
 21 45  1  0  0  0  0
 22 23  2  0  0  0  0
 22 46  1  0  0  0  0
 23 24  1  0  0  0  0
 23 47  1  0  0  0  0
 24 25  2  0  0  0  0
 24 48  1  0  0  0  0
 25 49  1  0  0  0  0
 26 32  1  0  0  0  0
 26 27  1  0  0  0  0
 26 50  1  0  0  0  0
 27 28  1  0  0  0  0
 28 29  2  0  0  0  0
 28 30  2  0  0  0  0
 28 31  1  0  0  0  0
 31 32  1  0  0  0  0
 32 51  1  0  0  0  0
 33 38  1  0  0  0  0
 33 34  2  0  0  0  0
 34 35  1  0  0  0  0
 34 52  1  0  0  0  0
 35 36  2  0  0  0  0
 35 53  1  0  0  0  0
 36 37  1  0  0  0  0
 36 54  1  0  0  0  0
 37 38  2  0  0  0  0
 37 55  1  0  0  0  0
 38 56  1  0  0  0  0
M  CHG  1   3  -1
M  END
> <s_m_source_file>
AV-unprocessed.smi

> <i_m_source_file_index>
1

> <i_lp_mmshare_version>
43012

> <i_f3d_flags>
0

> <s_epik_input>
W2NIXTFbY0hdW2NIXVtjSF1bY0hdYzFDKD1PKVtOSF1jKG5bY0hdbjIpYyhjMjMpbltjSF1uM1tDQEBIXShbQ0BIXShbQ0BIXTQ1KU9TKE81KSg9Tyk9TylPW0NASF00W0NIMl1PQyg9TyljNltjSF1bY0hdW2NIXVtjSF1bY0hdNg==

> <s_epik_cmdline>
J2VwaWtfcHl0aG9uJywgJy1waCcsICc3LjAnLCAnLXRuJywgJzgnLCAnLW1hJywgJzIwMCcsICctbWV0YWxfYmluZGluZycsICctaW1hZScsICc8aW5maWxlLm1hZT4nLCAnLW9tYWUnLCAnPG91dGZpbGUubWFlPic=

> <r_lp_tautomer_probability>
1

> <r_epik_Ionization_Penalty>
4.39121

> <r_epik_Ionization_Penalty_Charging>
3.39398

> <r_epik_Ionization_Penalty_Neutral>
0.997232

> <r_epik_State_Penalty>
3.39839

> <r_epik_Charging_Adjusted_Penalty>
6.79237

> <i_epik_Tot_Q>
-1

> <i_epik_Tot_abs_Q>
1

> <r_epik_Metal_State_Penalty>
0.497663

> <b_epik_Metal_Only>
1

> <s_epik_Chemistry_Notes>
This compound has an ester and may undergo hydrolysis at high or low pH. This compound contains an acetal/aminal-like group ( X-CH(R)-Y where X, Y are N, S, or O) that may be acid/base labile, releasing an aldehyde.

> <s_lp_Force_Field>
OPLS_2005

> <r_lp_Energy>
42.8802

> <b_lp_Chiralities_Consistent>
1

> <s_lp_Variant>
AV-unprocessed.smi:1-20

> <Gold.Version>
5.8.1

> <Gold.Id.Protein>
6NUR|6NUR_protein|mol2

> <Gold.PLP.Fitness>
55.2477

> <Gold.PLP.PLP>
-45.4278

> <Gold.PLP.part.hbond>
-3.0000

> <Gold.PLP.part.metal>
0.0000

> <Gold.PLP.part.buried>
-9.1297

> <Gold.PLP.part.nonpolar>
-34.2165

> <Gold.PLP.part.repulsive>
0.4927

> <Gold.PLP.ligand.clash>
0.0000

> <Gold.PLP.ligand.torsion>
1.3597

> <Gold.PLP.Chemscore.Hbond>
3.0000

> <Gold.PLP.Chemscore.CHOScore>
0.9678

> <Gold.PLP.Chemscore.Metal>
0.0000

> <Gold.Chemscore.Hbonds>
donor molecule, donor type, donor heavy atom, donor atom, acceptor molecule, acceptor atom, score
      P1  H  6896  6909       L1    14  0.24
      P1  H  7989  7998       L1     5  1.00
      P1  H  7997  8010       L1     1  0.80
      L1  C     6    39       P1  7949  0.40

> <Gold.PLP.Chemscore.Internal.Correction>
0.6358

> <Gold.Rescore>
     Score         DG    S(hbond)    S(metal)    S(lipo)     H(rot)  DE(clash)    DE(int)     intcor
     18.64     -21.18       2.81        0.00     100.26       2.11       0.02       2.52       ----

> <Gold.Chemscore.Fitness>
18.6356

> <Gold.Chemscore.DG>
-21.1780

> <Gold.Chemscore.ZeroCoef>
-5.4800

> <Gold.Chemscore.Hbond>
2.8077

> <Gold.Chemscore.Metal>
0.0000

> <Gold.Chemscore.Lipo>
100.2645

> <Gold.Chemscore.Internal_Hbond>
0.0000

> <Gold.Chemscore.DEClash>
0.0182

> <Gold.Chemscore.DEInternal>
2.5242

> <Gold.Chemscore.Rot>
2.1136

> <Gold.Chemscore.Internal.Correction>
   9.000000E+99

> <Gold.Chemscore.Hbonds>
donor molecule, donor type, donor heavy atom, donor atom, acceptor molecule, acceptor atom, score
      P1  H  6896  6909       L1    14  0.24
      P1  H  7989  7998       L1     5  0.81
      P1  H  7997  8010       L1     1  0.15

> <Gold.Chemscore.Hbond.Weighted>
-9.3778

> <Gold.Chemscore.Metal.Weighted>
-0.0000

> <Gold.Chemscore.Lipo.Weighted>
-11.7309

> <Gold.Chemscore.Internal_Hbond.Weighted>
0.0000

> <Gold.Chemscore.DEClash.Weighted>
0.0182

> <Gold.Chemscore.DEInternal.Weighted>
2.5242

> <Gold.Chemscore.Rot.Weighted>
5.4107

> <Gold.Chemscore.Internal.Correction.Weighted>
   9.000000E+99

> <Gold.Protein.RotatedTorsions>
[ 6907 6896 6895 6894 ] final   18.55 input  -60.11 | X-H torsion
[ 7974 7965 7964 7962 ] final -172.77 input  175.53 | X-H torsion
[ 8008 7997 7996 7995 ] final   51.68 input   59.86 | X-H torsion
[ 10167 10162 10161 10158 ] final  -22.90 input  -65.29 | X-H torsion
[ 10718 10713 10712 10709 ] final -166.46 input   66.30 | X-H torsion
[ 10763 10752 10751 10750 ] final   20.86 input  -60.55 | X-H torsion
[ 11005 11000 10999 10996 ] final -178.15 input  -57.11 | X-H torsion

> <Gold.Protein.ActiveResidues>
 VAL166  LYS551  ARG553  GLY616  TRP617  ASP618  TYR619  PRO620  LYS621  CYS622 
 ASP623  PHE694  ASN695  SER759  ASP760  ASP761  ALA762  ILE779  LEU786  VAL792 
 PHE793  MET794  SER795  GLU796  ALA797  LYS798  CYS799  TRP800  GLU811  SER814 

> <Gold.Protein.RotatedAtoms>
  151.8670  135.0503  160.0475 H   0  0  0  0  0  0  0  0  0  0  0  0  # atno 6907 bound_to 6896
  152.2618  133.5300  159.5395 H   0  0  0  0  0  0  0  0  0  0  0  0  # atno 6908 bound_to 6896
  150.7119  134.0735  159.3915 H   0  0  0  0  0  0  0  0  0  0  0  0  # atno 6909 bound_to 6896
  144.7143  140.1723  143.6366 H   0  0  0  0  0  0  0  0  0  0  0  0  # atno 7974 bound_to 7965
  155.4392  140.3454  155.4288 H   0  0  0  0  0  0  0  0  0  0  0  0  # atno 8008 bound_to 7997
  156.1289  140.1508  156.9125 H   0  0  0  0  0  0  0  0  0  0  0  0  # atno 8009 bound_to 7997
  154.4879  140.0850  156.7509 H   0  0  0  0  0  0  0  0  0  0  0  0  # atno 8010 bound_to 7997
  140.7287  143.4493  151.0541 H   0  0  0  0  0  0  0  0  0  0  0  0  # atno 10167 bound_to 10162
  156.6682  130.9073  151.3039 H   0  0  0  0  0  0  0  0  0  0  0  0  # atno 10718 bound_to 10713
  153.1042  135.6680  153.9617 H   0  0  0  0  0  0  0  0  0  0  0  0  # atno 10763 bound_to 10752
  153.9179  135.3018  155.3449 H   0  0  0  0  0  0  0  0  0  0  0  0  # atno 10764 bound_to 10752
  154.7463  135.5056  153.9286 H   0  0  0  0  0  0  0  0  0  0  0  0  # atno 10765 bound_to 10752
  140.4329  134.6502  157.4721 H   0  0  0  0  0  0  0  0  0  0  0  0  # atno 11005 bound_to 11000
  145.8932  139.2388  143.1537 LP  0  0  0  0  0  0  0  0  0  0  0  0  # atno 17320 bound_to 7965
  145.9883  140.8625  143.0079 LP  0  0  0  0  0  0  0  0  0  0  0  0  # atno 17321 bound_to 7965
  139.8167  143.7876  152.3175 LP  0  0  0  0  0  0  0  0  0  0  0  0  # atno 17342 bound_to 10162
  139.7944  144.7398  150.9910 LP  0  0  0  0  0  0  0  0  0  0  0  0  # atno 17343 bound_to 10162
  157.7086  130.9414  150.1014 LP  0  0  0  0  0  0  0  0  0  0  0  0  # atno 17370 bound_to 10713
  156.1959  130.3657  149.8850 LP  0  0  0  0  0  0  0  0  0  0  0  0  # atno 17371 bound_to 10713
  140.0122  134.6674  155.9364 LP  0  0  0  0  0  0  0  0  0  0  0  0  # atno 17394 bound_to 11000
  141.1738  133.6539  156.4750 LP  0  0  0  0  0  0  0  0  0  0  0  0  # atno 17395 bound_to 11000

$$$$
