AV-unprocessed.smi:72|AV-procd|sdf|694|dock9
  -GOLD-   2262017 13D 1   1.00000     0.00000
 Structure written by MMmdl.
 29 30  0  0  0  0  0  0  0  0  1 V2000
  153.2781  138.6764  156.4377 N   0  0  0  0  0  0  0  0  0  0  0  0
  152.2510  139.2677  155.9417 C   0  0  0  0  0  0  0  0  0  0  0  0
  151.5868  138.8912  154.7645 N   0  0  0  0  0  0  0  0  0  0  0  0
  150.5662  139.5920  154.3762 C   0  0  0  0  0  0  0  0  0  0  0  0
  150.0988  140.7554  155.1143 N   0  0  0  0  0  0  0  0  0  0  0  0
  148.9006  141.5504  154.6491 C   0  0  1  0  0  0  0  0  0  0  0  0
  148.5700  141.1593  153.3484 O   0  0  0  0  0  0  0  0  0  0  0  0
  147.1627  140.9697  153.2430 C   0  0  1  0  0  0  0  0  0  0  0  0
  146.8548  139.9772  152.1114 C   0  0  0  0  0  0  0  0  0  0  0  0
  147.6640  138.8279  152.2403 O   0  0  0  0  0  0  0  0  0  0  0  0
  146.7991  140.4458  154.6330 C   0  0  2  0  0  0  0  0  0  0  0  0
  145.4200  140.5608  154.9292 O   0  0  0  0  0  0  0  0  0  0  0  0
  147.6873  141.2781  155.5525 C   0  0  2  0  0  0  0  0  0  0  0  0
  147.0755  142.4906  155.9527 O   0  0  0  0  0  0  0  0  0  0  0  0
  150.7369  141.1280  156.3220 C   0  0  0  0  0  0  0  0  0  0  0  0
  150.3520  142.0734  157.0097 O   0  0  0  0  0  0  0  0  0  0  0  0
  151.7965  140.3697  156.6777 N   0  0  0  0  0  0  0  0  0  0  0  0
  149.2101  142.5969  154.6288 H   0  0  0  0  0  0  0  0  0  0  0  0
  146.6777  141.9332  153.0729 H   0  0  0  0  0  0  0  0  0  0  0  0
  147.0896  139.3972  154.7141 H   0  0  0  0  0  0  0  0  0  0  0  0
  147.9745  140.7237  156.4471 H   0  0  0  0  0  0  0  0  0  0  0  0
  153.5443  137.8965  155.8537 H   0  0  0  0  0  0  0  0  0  0  0  0
  149.9944  139.3521  153.4789 H   0  0  0  0  0  0  0  0  0  0  0  0
  145.7999  139.7010  152.1017 H   0  0  0  0  0  0  0  0  0  0  0  0
  147.0803  140.4283  151.1448 H   0  0  0  0  0  0  0  0  0  0  0  0
  148.4970  138.9986  151.8281 H   0  0  0  0  0  0  0  0  0  0  0  0
  144.9271  140.3303  154.1566 H   0  0  0  0  0  0  0  0  0  0  0  0
  147.7329  143.1697  155.9626 H   0  0  0  0  0  0  0  0  0  0  0  0
  152.2811  140.6115  157.5295 H   0  0  0  0  0  0  0  0  0  0  0  0
  1  2  2  0  0  0  0
  1 22  1  0  0  0  0
  2 17  1  0  0  0  0
  2  3  1  0  0  0  0
  3  4  2  0  0  0  0
  4  5  1  0  0  0  0
  4 23  1  0  0  0  0
  5  6  1  0  0  0  0
  5 15  1  0  0  0  0
  6 18  1  0  0  0  0
  6 13  1  0  0  0  0
  6  7  1  0  0  0  0
  7  8  1  0  0  0  0
  8 19  1  0  0  0  0
  8  9  1  0  0  0  0
  8 11  1  0  0  0  0
  9 10  1  0  0  0  0
  9 24  1  0  0  0  0
  9 25  1  0  0  0  0
 10 26  1  0  0  0  0
 11 20  1  0  0  0  0
 11 12  1  0  0  0  0
 11 13  1  0  0  0  0
 12 27  1  0  0  0  0
 13 21  1  0  0  0  0
 13 14  1  0  0  0  0
 14 28  1  0  0  0  0
 15 16  2  0  0  0  0
 15 17  1  0  0  0  0
 17 29  1  0  0  0  0
M  END
> <s_m_source_file>
AV-unprocessed.smi

> <i_m_source_file_index>
72

> <i_lp_mmshare_version>
43012

> <i_f3d_flags>
0

> <s_epik_input>
W05IMl1jMW5bY0hdbihjKD1PKW4xKVtDQEBIXTJPW0NASF0oW0NIMl1bT0hdKVtDQEBIXShbT0hdKVtDQEhdMltPSF0=

> <s_epik_cmdline>
J2VwaWtfcHl0aG9uJywgJy1waCcsICc3LjAnLCAnLXRuJywgJzgnLCAnLW1hJywgJzIwMCcsICctbWV0YWxfYmluZGluZycsICctaW1hZScsICc8aW5maWxlLm1hZT4nLCAnLW9tYWUnLCAnPG91dGZpbGUubWFlPic=

> <r_lp_tautomer_probability>
7.17554e-07

> <r_epik_Ionization_Penalty>
0.0066451

> <r_epik_Ionization_Penalty_Charging>
0.00663793

> <r_epik_Ionization_Penalty_Neutral>
7.17052e-06

> <r_epik_State_Penalty>
0.419231

> <r_epik_Charging_Adjusted_Penalty>
0.425868

> <i_epik_Tot_Q>
0

> <i_epik_Tot_abs_Q>
0

> <r_epik_Metal_State_Penalty>
1.44144

> <b_epik_Metal_Only>
0

> <s_epik_Chemistry_Notes>
This compound contains an acetal/aminal-like group ( X-CH(R)-Y where X, Y are N, S, or O) that may be acid/base labile, releasing an aldehyde.

> <s_lp_Force_Field>
OPLS_2005

> <r_lp_Energy>
41.633

> <b_lp_Chiralities_Consistent>
1

> <s_lp_Variant>
AV-unprocessed.smi:72-32

> <Gold.Version>
5.8.1

> <Gold.Id.Protein>
6NUR|6NUR_protein|mol2

> <Gold.PLP.Fitness>
40.9139

> <Gold.PLP.PLP>
-23.9437

> <Gold.PLP.part.hbond>
-6.0000

> <Gold.PLP.part.metal>
0.0000

> <Gold.PLP.part.buried>
1.1690

> <Gold.PLP.part.nonpolar>
-21.7892

> <Gold.PLP.part.repulsive>
3.4939

> <Gold.PLP.ligand.clash>
0.0000

> <Gold.PLP.ligand.torsion>
0.2821

> <Gold.PLP.Chemscore.Hbond>
4.8388

> <Gold.PLP.Chemscore.CHOScore>
1.0000

> <Gold.PLP.Chemscore.Metal>
0.0000

> <Gold.Chemscore.Hbonds>
donor molecule, donor type, donor heavy atom, donor atom, acceptor molecule, acceptor atom, score
      L1  H    10    26       P1  7957  1.00
      L1  H    12    27       P1 10175  0.84
      L1  H    14    28       P1  8028  0.95
      P1  H  7997  8008       L1     1  0.98
      P1  H  8011  8017       L1     7  0.88
      L1  C     4    23       P1  7957  1.00

> <Gold.PLP.Chemscore.Internal.Correction>
0.0180

> <Gold.Rescore>
     Score         DG    S(hbond)    S(metal)    S(lipo)     H(rot)  DE(clash)    DE(int)     intcor
      5.12      -7.46       2.79        0.00      26.05       4.06       2.13       0.21       ----

> <Gold.Chemscore.Fitness>
5.1160

> <Gold.Chemscore.DG>
-7.4641

> <Gold.Chemscore.ZeroCoef>
-5.4800

> <Gold.Chemscore.Hbond>
2.7933

> <Gold.Chemscore.Metal>
0.0000

> <Gold.Chemscore.Lipo>
26.0524

> <Gold.Chemscore.Internal_Hbond>
0.0000

> <Gold.Chemscore.DEClash>
2.1345

> <Gold.Chemscore.DEInternal>
0.2136

> <Gold.Chemscore.Rot>
4.0600

> <Gold.Chemscore.Internal.Correction>
   9.000000E+99

> <Gold.Chemscore.Hbonds>
donor molecule, donor type, donor heavy atom, donor atom, acceptor molecule, acceptor atom, score
      L1  H    10    26       P1  7957  0.87
      L1  H    12    27       P1 10175  0.84
      L1  H    14    28       P1  8028  0.21
      P1  H  7997  8008       L1     1  0.27
      P1  H  8011  8017       L1     7  0.18

> <Gold.Chemscore.Hbond.Weighted>
-9.3296

> <Gold.Chemscore.Metal.Weighted>
-0.0000

> <Gold.Chemscore.Lipo.Weighted>
-3.0481

> <Gold.Chemscore.Internal_Hbond.Weighted>
0.0000

> <Gold.Chemscore.DEClash.Weighted>
2.1345

> <Gold.Chemscore.DEInternal.Weighted>
0.2136

> <Gold.Chemscore.Rot.Weighted>
10.3936

> <Gold.Chemscore.Internal.Correction.Weighted>
   9.000000E+99

> <Gold.Protein.RotatedTorsions>
[ 6907 6896 6895 6894 ] final  122.39 input  -60.11 | X-H torsion
[ 7974 7965 7964 7962 ] final -144.66 input  175.53 | X-H torsion
[ 8008 7997 7996 7995 ] final  -60.37 input   59.86 | X-H torsion
[ 10167 10162 10161 10158 ] final  -67.09 input  -65.29 | X-H torsion
[ 10718 10713 10712 10709 ] final -172.67 input   66.30 | X-H torsion
[ 10763 10752 10751 10750 ] final  -56.09 input  -60.55 | X-H torsion
[ 11005 11000 10999 10996 ] final   31.43 input  -57.11 | X-H torsion

> <Gold.Protein.ActiveResidues>
 VAL166  LYS551  ARG553  GLY616  TRP617  ASP618  TYR619  PRO620  LYS621  CYS622 
 ASP623  PHE694  ASN695  SER759  ASP760  ASP761  ALA762  ILE779  LEU786  VAL792 
 PHE793  MET794  SER795  GLU796  ALA797  LYS798  CYS799  TRP800  GLU811  SER814 

> <Gold.Protein.RotatedAtoms>
  152.4247  133.7175  159.6513 H   0  0  0  0  0  0  0  0  0  0  0  0  # atno 6907 bound_to 6896
  150.8123  133.8388  159.3182 H   0  0  0  0  0  0  0  0  0  0  0  0  # atno 6908 bound_to 6896
  151.6095  135.1043  160.0129 H   0  0  0  0  0  0  0  0  0  0  0  0  # atno 6909 bound_to 6896
  144.8282  140.5682  143.5533 H   0  0  0  0  0  0  0  0  0  0  0  0  # atno 7974 bound_to 7965
  154.4396  140.1041  156.6263 H   0  0  0  0  0  0  0  0  0  0  0  0  # atno 8008 bound_to 7997
  155.5653  140.3488  155.4483 H   0  0  0  0  0  0  0  0  0  0  0  0  # atno 8009 bound_to 7997
  156.0430  140.1286  157.0124 H   0  0  0  0  0  0  0  0  0  0  0  0  # atno 8010 bound_to 7997
  140.5609  143.2313  151.6730 H   0  0  0  0  0  0  0  0  0  0  0  0  # atno 10167 bound_to 10162
  156.7590  130.9406  151.3117 H   0  0  0  0  0  0  0  0  0  0  0  0  # atno 10718 bound_to 10713
  154.2011  135.6411  153.5087 H   0  0  0  0  0  0  0  0  0  0  0  0  # atno 10763 bound_to 10752
  153.0011  135.5451  154.6314 H   0  0  0  0  0  0  0  0  0  0  0  0  # atno 10764 bound_to 10752
  154.5727  135.2918  155.0784 H   0  0  0  0  0  0  0  0  0  0  0  0  # atno 10765 bound_to 10752
  140.2840  134.2940  155.7793 H   0  0  0  0  0  0  0  0  0  0  0  0  # atno 11005 bound_to 11000
  145.4954  139.1486  143.3687 LP  0  0  0  0  0  0  0  0  0  0  0  0  # atno 17320 bound_to 7965
  146.2586  140.5092  142.8863 LP  0  0  0  0  0  0  0  0  0  0  0  0  # atno 17321 bound_to 7965
  139.5069  144.3663  152.0513 LP  0  0  0  0  0  0  0  0  0  0  0  0  # atno 17342 bound_to 10162
  140.2790  144.3881  150.6125 LP  0  0  0  0  0  0  0  0  0  0  0  0  # atno 17343 bound_to 10162
  157.6743  130.9080  150.0113 LP  0  0  0  0  0  0  0  0  0  0  0  0  # atno 17370 bound_to 10713
  156.1351  130.3643  149.9670 LP  0  0  0  0  0  0  0  0  0  0  0  0  # atno 17371 bound_to 10713
  141.2158  133.7543  156.9524 LP  0  0  0  0  0  0  0  0  0  0  0  0  # atno 17394 bound_to 11000
  140.1257  134.9388  157.2266 LP  0  0  0  0  0  0  0  0  0  0  0  0  # atno 17395 bound_to 11000

$$$$
