AV-unprocessed.smi:2489|AV-procd|sdf|9805|dock3
  -GOLD-   2272013433D 1   1.00000     0.00000
 Structure written by MMmdl.
 34 35  0  0  0  0  0  0  0  0  2 V2000
  153.3967  142.0918  161.3629 C   0  0  0  0  0  0  0  0  0  0  0  0
  153.2389  141.6975  160.0077 O   0  0  0  0  0  0  0  0  0  0  0  0
  152.4648  142.4899  159.1876 C   0  0  0  0  0  0  0  0  0  0  0  0
  152.4049  143.8665  159.4881 C   0  0  0  0  0  0  0  0  0  0  0  0
  151.6416  144.7253  158.6753 C   0  0  0  0  0  0  0  0  0  0  0  0
  150.9667  144.2257  157.6189 N   0  3  0  0  0  0  0  0  0  0  0  0
  150.9670  142.9151  157.2874 C   0  0  0  0  0  0  0  0  0  0  0  0
  150.2248  142.5336  156.1387 N   0  0  0  0  0  0  0  0  0  0  0  0
  149.9744  141.2911  155.6839 C   0  0  0  0  0  0  0  0  0  0  0  0
  150.3198  140.2622  156.2653 O   0  0  0  0  0  0  0  0  0  0  0  0
  149.1574  141.1907  154.3861 C   0  0  2  0  0  0  0  0  0  0  0  0
  147.8160  141.9487  154.4218 C   0  0  0  0  0  0  0  0  0  0  0  0
  146.7779  140.8451  154.3786 C   0  0  0  0  0  0  0  0  0  0  0  0
  147.5066  139.7543  153.6034 C   0  0  2  0  0  0  0  0  0  0  0  0
  146.9226  138.3512  153.7971 C   0  0  0  0  0  0  0  0  0  0  0  0
  148.8217  139.8245  154.1314 O   0  0  0  0  0  0  0  0  0  0  0  0
  151.7359  142.0139  158.0664 C   0  0  0  0  0  0  0  0  0  0  0  0
  154.0291  141.3680  161.8768 H   0  0  0  0  0  0  0  0  0  0  0  0
  152.4390  142.1207  161.8843 H   0  0  0  0  0  0  0  0  0  0  0  0
  153.8804  143.0664  161.4412 H   0  0  0  0  0  0  0  0  0  0  0  0
  152.9478  144.2623  160.3344 H   0  0  0  0  0  0  0  0  0  0  0  0
  151.5520  145.7897  158.8369 H   0  0  0  0  0  0  0  0  0  0  0  0
  149.7860  143.2859  155.6274 H   0  0  0  0  0  0  0  0  0  0  0  0
  149.7678  141.5619  153.5619 H   0  0  0  0  0  0  0  0  0  0  0  0
  147.6799  142.5914  155.2924 H   0  0  0  0  0  0  0  0  0  0  0  0
  147.7273  142.5788  153.5359 H   0  0  0  0  0  0  0  0  0  0  0  0
  146.5534  140.5081  155.3914 H   0  0  0  0  0  0  0  0  0  0  0  0
  145.8452  141.1543  153.9063 H   0  0  0  0  0  0  0  0  0  0  0  0
  147.5391  140.0081  152.5424 H   0  0  0  0  0  0  0  0  0  0  0  0
  145.8969  138.3009  153.4311 H   0  0  0  0  0  0  0  0  0  0  0  0
  146.9175  138.0667  154.8495 H   0  0  0  0  0  0  0  0  0  0  0  0
  147.5068  137.6084  153.2538 H   0  0  0  0  0  0  0  0  0  0  0  0
  151.7744  140.9714  157.7935 H   0  0  0  0  0  0  0  0  0  0  0  0
  150.4230  144.8729  157.0471 H   0  0  0  0  0  0  0  0  0  0  0  0
  1  2  1  0  0  0  0
  1 18  1  0  0  0  0
  1 19  1  0  0  0  0
  1 20  1  0  0  0  0
  2  3  1  0  0  0  0
  3 17  1  0  0  0  0
  3  4  2  0  0  0  0
  4  5  1  0  0  0  0
  4 21  1  0  0  0  0
  5  6  2  0  0  0  0
  5 22  1  0  0  0  0
  6  7  1  0  0  0  0
  6 34  1  0  0  0  0
  7  8  1  0  0  0  0
  7 17  2  0  0  0  0
  8  9  1  0  0  0  0
  8 23  1  0  0  0  0
  9 10  2  0  0  0  0
  9 11  1  0  0  0  0
 11 16  1  0  0  0  0
 11 12  1  0  0  0  0
 11 24  1  0  0  0  0
 12 13  1  0  0  0  0
 12 25  1  0  0  0  0
 12 26  1  0  0  0  0
 13 14  1  0  0  0  0
 13 27  1  0  0  0  0
 13 28  1  0  0  0  0
 14 15  1  0  0  0  0
 14 16  1  0  0  0  0
 14 29  1  0  0  0  0
 15 30  1  0  0  0  0
 15 31  1  0  0  0  0
 15 32  1  0  0  0  0
 17 33  1  0  0  0  0
M  CHG  1   6   1
M  END
> <s_m_source_file>
AV-unprocessed.smi

> <i_m_source_file_index>
2489

> <i_lp_mmshare_version>
43012

> <i_f3d_flags>
0

> <s_epik_input>
W0NIM11PYzFbY0hdW2NIXW5jKFtjSF0xKVtOSF1DKD1PKVtDQEBIXTJbQ0gyXVtDSDJdW0NASF0oTzIpW0NIM10=

> <s_epik_cmdline>
J2VwaWtfcHl0aG9uJywgJy1waCcsICc3LjAnLCAnLXRuJywgJzgnLCAnLW1hJywgJzIwMCcsICctbWV0YWxfYmluZGluZycsICctaW1hZScsICc8aW5maWxlLm1hZT4nLCAnLW9tYWUnLCAnPG91dGZpbGUubWFlPic=

> <r_epik_Ionization_Penalty>
1.58956

> <r_epik_Ionization_Penalty_Charging>
1.1784

> <r_epik_Ionization_Penalty_Neutral>
0.411158

> <r_epik_State_Penalty>
1.31089

> <r_epik_Charging_Adjusted_Penalty>
2.48928

> <i_epik_Tot_Q>
1

> <i_epik_Tot_abs_Q>
1

> <r_epik_Metal_State_Penalty>
5.00213

> <b_epik_Metal_Only>
0

> <s_lp_Force_Field>
OPLS_2005

> <r_lp_Energy>
31.9404

> <b_lp_Chiralities_Consistent>
1

> <s_lp_Variant>
AV-unprocessed.smi:2489-11

> <Gold.Version>
5.8.1

> <Gold.Id.Protein>
6NUR|6NUR_protein|mol2

> <Gold.PLP.Fitness>
43.9825

> <Gold.PLP.PLP>
-37.3025

> <Gold.PLP.part.hbond>
-2.0000

> <Gold.PLP.part.metal>
0.0000

> <Gold.PLP.part.buried>
-4.9017

> <Gold.PLP.part.nonpolar>
-31.4537

> <Gold.PLP.part.repulsive>
0.6001

> <Gold.PLP.ligand.clash>
0.0000

> <Gold.PLP.ligand.torsion>
0.4583

> <Gold.PLP.Chemscore.Hbond>
2.5280

> <Gold.PLP.Chemscore.CHOScore>
0.0000

> <Gold.PLP.Chemscore.Metal>
0.0000

> <Gold.Chemscore.Hbonds>
donor molecule, donor type, donor heavy atom, donor atom, acceptor molecule, acceptor atom, score
      L1  H     6    34       P1  8028  1.52
      L1  H     8    23       P1  8028  0.98

> <Gold.PLP.Chemscore.Internal.Correction>
0.0125

> <Gold.Rescore>
     Score         DG    S(hbond)    S(metal)    S(lipo)     H(rot)  DE(clash)    DE(int)     intcor
     15.49     -17.24       1.48        0.00      85.53       1.24       0.00       1.75       ----

> <Gold.Chemscore.Fitness>
15.4898

> <Gold.Chemscore.DG>
-17.2406

> <Gold.Chemscore.ZeroCoef>
-5.4800

> <Gold.Chemscore.Hbond>
1.4762

> <Gold.Chemscore.Metal>
0.0000

> <Gold.Chemscore.Lipo>
85.5290

> <Gold.Chemscore.Internal_Hbond>
0.0000

> <Gold.Chemscore.DEClash>
0.0000

> <Gold.Chemscore.DEInternal>
1.7507

> <Gold.Chemscore.Rot>
1.2409

> <Gold.Chemscore.Internal.Correction>
   9.000000E+99

> <Gold.Chemscore.Hbonds>
donor molecule, donor type, donor heavy atom, donor atom, acceptor molecule, acceptor atom, score
      L1  H     6    34       P1  8028  0.32
      L1  H     8    23       P1  8028  0.93

> <Gold.Chemscore.Hbond.Weighted>
-4.9304

> <Gold.Chemscore.Metal.Weighted>
-0.0000

> <Gold.Chemscore.Lipo.Weighted>
-10.0069

> <Gold.Chemscore.Internal_Hbond.Weighted>
0.0000

> <Gold.Chemscore.DEClash.Weighted>
0.0000

> <Gold.Chemscore.DEInternal.Weighted>
1.7507

> <Gold.Chemscore.Rot.Weighted>
3.1767

> <Gold.Chemscore.Internal.Correction.Weighted>
   9.000000E+99

> <Gold.Protein.RotatedTorsions>
[ 6907 6896 6895 6894 ] final   47.15 input  -60.11 | X-H torsion
[ 7974 7965 7964 7962 ] final  -99.50 input  175.53 | X-H torsion
[ 8008 7997 7996 7995 ] final   49.13 input   59.86 | X-H torsion
[ 10167 10162 10161 10158 ] final    6.99 input  -65.29 | X-H torsion
[ 10718 10713 10712 10709 ] final  138.55 input   66.30 | X-H torsion
[ 10763 10752 10751 10750 ] final  -61.41 input  -60.55 | X-H torsion
[ 11005 11000 10999 10996 ] final  -10.35 input  -57.11 | X-H torsion

> <Gold.Protein.ActiveResidues>
 VAL166  LYS551  ARG553  GLY616  TRP617  ASP618  TYR619  PRO620  LYS621  CYS622 
 ASP623  PHE694  ASN695  SER759  ASP760  ASP761  ALA762  ILE779  LEU786  VAL792 
 PHE793  MET794  SER795  GLU796  ALA797  LYS798  CYS799  TRP800  GLU811  SER814 

> <Gold.Protein.RotatedAtoms>
  152.2647  134.7997  160.0424 H   0  0  0  0  0  0  0  0  0  0  0  0  # atno 6907 bound_to 6896
  151.8631  133.3456  159.3718 H   0  0  0  0  0  0  0  0  0  0  0  0  # atno 6908 bound_to 6896
  150.7129  134.5114  159.5653 H   0  0  0  0  0  0  0  0  0  0  0  0  # atno 6909 bound_to 6896
  145.3068  140.9391  143.2792 H   0  0  0  0  0  0  0  0  0  0  0  0  # atno 7974 bound_to 7965
  155.3971  140.3436  155.4254 H   0  0  0  0  0  0  0  0  0  0  0  0  # atno 8008 bound_to 7997
  156.1525  140.1575  156.8779 H   0  0  0  0  0  0  0  0  0  0  0  0  # atno 8009 bound_to 7997
  154.5065  140.0801  156.7885 H   0  0  0  0  0  0  0  0  0  0  0  0  # atno 8010 bound_to 7997
  140.6397  143.7803  150.7410 H   0  0  0  0  0  0  0  0  0  0  0  0  # atno 10167 bound_to 10162
  157.4240  131.1041  151.0322 H   0  0  0  0  0  0  0  0  0  0  0  0  # atno 10718 bound_to 10713
  154.2842  135.6266  153.5359 H   0  0  0  0  0  0  0  0  0  0  0  0  # atno 10763 bound_to 10752
  152.9861  135.5640  154.5462 H   0  0  0  0  0  0  0  0  0  0  0  0  # atno 10764 bound_to 10752
  154.5059  135.2874  155.1358 H   0  0  0  0  0  0  0  0  0  0  0  0  # atno 10765 bound_to 10752
  140.7438  133.8648  155.8989 H   0  0  0  0  0  0  0  0  0  0  0  0  # atno 11005 bound_to 11000
  144.9048  139.4603  143.6615 LP  0  0  0  0  0  0  0  0  0  0  0  0  # atno 17320 bound_to 7965
  146.3132  139.7823  142.9003 LP  0  0  0  0  0  0  0  0  0  0  0  0  # atno 17321 bound_to 7965
  140.1432  143.4423  152.2180 LP  0  0  0  0  0  0  0  0  0  0  0  0  # atno 17342 bound_to 10162
  139.5606  144.7403  151.4165 LP  0  0  0  0  0  0  0  0  0  0  0  0  # atno 17343 bound_to 10162
  157.1242  130.6075  149.5513 LP  0  0  0  0  0  0  0  0  0  0  0  0  # atno 17370 bound_to 10713
  155.9890  130.4936  150.7196 LP  0  0  0  0  0  0  0  0  0  0  0  0  # atno 17371 bound_to 10713
  140.9813  134.1402  157.4492 LP  0  0  0  0  0  0  0  0  0  0  0  0  # atno 17394 bound_to 11000
  139.8801  135.0011  156.6049 LP  0  0  0  0  0  0  0  0  0  0  0  0  # atno 17395 bound_to 11000

$$$$
