AV-unprocessed.smi:263|AV-procd|sdf|2003|dock10
  -GOLD-   2262021193D 1   1.00000     0.00000
 Structure written by MMmdl.
 57 61  0  0  0  0  0  0  0  0  1 V2000
  150.0746  135.1024  153.8811 O   0  0  0  0  0  0  0  0  0  0  0  0
  149.4910  134.4823  155.0143 C   0  0  0  0  0  0  0  0  0  0  0  0
  150.4653  134.6707  156.2038 C   0  0  0  0  0  0  0  0  0  0  0  0
  150.6476  136.0589  156.6001 N   0  0  0  0  0  0  0  0  0  0  0  0
  150.3352  136.6195  157.8178 C   0  0  0  0  0  0  0  0  0  0  0  0
  150.5998  137.8929  157.9282 N   0  0  0  0  0  0  0  0  0  0  0  0
  151.1364  138.2378  156.6930 C   0  0  0  0  0  0  0  0  0  0  0  0
  151.6330  139.4476  156.1296 C   0  0  0  0  0  0  0  0  0  0  0  0
  151.6867  140.6135  156.8234 N   0  0  0  0  0  0  0  0  0  0  0  0
  150.7644  141.6432  156.3445 C   0  0  0  0  0  0  0  0  0  0  0  0
  151.1208  143.0277  156.9194 C   0  0  0  0  0  0  0  0  0  0  0  0
  151.2383  143.0031  158.4579 C   0  0  2  0  0  0  0  0  0  0  0  0
  149.9465  142.7369  158.9807 O   0  0  0  0  0  0  0  0  0  0  0  0
  151.6979  144.3675  159.0191 C   0  0  0  0  0  0  0  0  0  0  0  0
  151.9265  144.3260  160.5423 C   0  0  0  0  0  0  0  0  0  0  0  0
  152.8992  143.2037  160.9386 C   0  0  0  0  0  0  0  0  0  0  0  0
  152.4354  141.8402  160.3999 C   0  0  0  0  0  0  0  0  0  0  0  0
  152.2338  141.8888  158.8728 C   0  0  1  0  0  0  0  0  0  0  0  0
  151.8307  140.5259  158.2784 C   0  0  0  0  0  0  0  0  0  0  0  0
  152.0709  139.4028  154.8422 N   0  0  0  0  0  0  0  0  0  0  0  0
  152.0357  138.2572  154.1553 C   0  0  0  0  0  0  0  0  0  0  0  0
  151.6078  137.0583  154.5543 N   0  0  0  0  0  0  0  0  0  0  0  0
  151.1611  137.0967  155.8422 C   0  0  0  0  0  0  0  0  0  0  0  0
  148.1101  135.1284  155.2648 C   0  0  0  0  0  0  0  0  0  0  0  0
  147.0913  134.7621  154.1712 C   0  0  0  0  0  0  0  0  0  0  0  0
  146.9889  133.3484  154.0524 O   0  0  0  0  0  0  0  0  0  0  0  0
  148.2097  132.7436  153.6440 C   0  0  0  0  0  0  0  0  0  0  0  0
  149.2988  132.9834  154.7053 C   0  0  0  0  0  0  0  0  0  0  0  0
  149.3837  135.4636  153.3473 H   0  0  0  0  0  0  0  0  0  0  0  0
  150.1019  134.1192  157.0720 H   0  0  0  0  0  0  0  0  0  0  0  0
  151.4437  134.2495  155.9680 H   0  0  0  0  0  0  0  0  0  0  0  0
  149.9060  136.0493  158.6290 H   0  0  0  0  0  0  0  0  0  0  0  0
  150.7649  141.7009  155.2567 H   0  0  0  0  0  0  0  0  0  0  0  0
  149.7509  141.3656  156.6365 H   0  0  0  0  0  0  0  0  0  0  0  0
  152.0691  143.3518  156.4886 H   0  0  0  0  0  0  0  0  0  0  0  0
  150.3778  143.7616  156.6047 H   0  0  0  0  0  0  0  0  0  0  0  0
  149.9369  142.9844  159.8926 H   0  0  0  0  0  0  0  0  0  0  0  0
  152.6294  144.6626  158.5341 H   0  0  0  0  0  0  0  0  0  0  0  0
  150.9711  145.1436  158.7753 H   0  0  0  0  0  0  0  0  0  0  0  0
  152.3117  145.2869  160.8847 H   0  0  0  0  0  0  0  0  0  0  0  0
  150.9748  144.1801  161.0545 H   0  0  0  0  0  0  0  0  0  0  0  0
  153.8927  143.4300  160.5493 H   0  0  0  0  0  0  0  0  0  0  0  0
  152.9954  143.1615  162.0238 H   0  0  0  0  0  0  0  0  0  0  0  0
  153.1737  141.0789  160.6536 H   0  0  0  0  0  0  0  0  0  0  0  0
  151.5083  141.5449  160.8927 H   0  0  0  0  0  0  0  0  0  0  0  0
  153.2032  142.1418  158.4392 H   0  0  0  0  0  0  0  0  0  0  0  0
  150.8936  140.1816  158.7185 H   0  0  0  0  0  0  0  0  0  0  0  0
  152.5927  139.7857  158.5265 H   0  0  0  0  0  0  0  0  0  0  0  0
  152.4052  138.3081  153.1417 H   0  0  0  0  0  0  0  0  0  0  0  0
  147.7233  134.7869  156.2258 H   0  0  0  0  0  0  0  0  0  0  0  0
  148.1937  136.2136  155.3355 H   0  0  0  0  0  0  0  0  0  0  0  0
  146.1110  135.1640  154.4274 H   0  0  0  0  0  0  0  0  0  0  0  0
  147.3698  135.2005  153.2116 H   0  0  0  0  0  0  0  0  0  0  0  0
  148.0438  131.6738  153.5169 H   0  0  0  0  0  0  0  0  0  0  0  0
  148.5145  133.1324  152.6712 H   0  0  0  0  0  0  0  0  0  0  0  0
  150.2394  132.5335  154.3850 H   0  0  0  0  0  0  0  0  0  0  0  0
  149.0077  132.4618  155.6180 H   0  0  0  0  0  0  0  0  0  0  0  0
  1  2  1  0  0  0  0
  1 29  1  0  0  0  0
  2 28  1  0  0  0  0
  2  3  1  0  0  0  0
  2 24  1  0  0  0  0
  3  4  1  0  0  0  0
  3 30  1  0  0  0  0
  3 31  1  0  0  0  0
  4 23  1  0  0  0  0
  4  5  1  0  0  0  0
  5  6  2  0  0  0  0
  5 32  1  0  0  0  0
  6  7  1  0  0  0  0
  7 23  2  0  0  0  0
  7  8  1  0  0  0  0
  8  9  1  0  0  0  0
  8 20  2  0  0  0  0
  9 19  1  0  0  0  0
  9 10  1  0  0  0  0
 10 11  1  0  0  0  0
 10 33  1  0  0  0  0
 10 34  1  0  0  0  0
 11 12  1  0  0  0  0
 11 35  1  0  0  0  0
 11 36  1  0  0  0  0
 12 18  1  0  0  0  0
 12 13  1  0  0  0  0
 12 14  1  0  0  0  0
 13 37  1  0  0  0  0
 14 15  1  0  0  0  0
 14 38  1  0  0  0  0
 14 39  1  0  0  0  0
 15 16  1  0  0  0  0
 15 40  1  0  0  0  0
 15 41  1  0  0  0  0
 16 17  1  0  0  0  0
 16 42  1  0  0  0  0
 16 43  1  0  0  0  0
 17 18  1  0  0  0  0
 17 44  1  0  0  0  0
 17 45  1  0  0  0  0
 18 19  1  0  0  0  0
 18 46  1  0  0  0  0
 19 47  1  0  0  0  0
 19 48  1  0  0  0  0
 20 21  1  0  0  0  0
 21 22  2  0  0  0  0
 21 49  1  0  0  0  0
 22 23  1  0  0  0  0
 24 25  1  0  0  0  0
 24 50  1  0  0  0  0
 24 51  1  0  0  0  0
 25 26  1  0  0  0  0
 25 52  1  0  0  0  0
 25 53  1  0  0  0  0
 26 27  1  0  0  0  0
 27 28  1  0  0  0  0
 27 54  1  0  0  0  0
 27 55  1  0  0  0  0
 28 56  1  0  0  0  0
 28 57  1  0  0  0  0
M  END
> <s_m_source_file>
AV-unprocessed.smi

> <i_m_source_file_index>
263

> <i_lp_mmshare_version>
43012

> <i_f3d_flags>
0

> <s_epik_input>
W0NIMl0xW0NIMl1PW0NIMl1bQ0gyXUMxKFtPSF0pW0NIMl1uKFtjSF1uMiljKGMyMyluW2NIXW5jM04oW0NIMl1bQ0gyXTQpW0NIMl1bQ0BASF0oW0NAXTQ1W09IXSlbQ0gyXVtDSDJdW0NIMl1bQ0gyXTU=

> <s_epik_cmdline>
J2VwaWtfcHl0aG9uJywgJy1waCcsICc3LjAnLCAnLXRuJywgJzgnLCAnLW1hJywgJzIwMCcsICctbWV0YWxfYmluZGluZycsICctaW1hZScsICc8aW5maWxlLm1hZT4nLCAnLW9tYWUnLCAnPG91dGZpbGUubWFlPic=

> <r_lp_tautomer_probability>
1

> <r_epik_Ionization_Penalty>
0.00747493

> <r_epik_Ionization_Penalty_Charging>
0

> <r_epik_Ionization_Penalty_Neutral>
0.00747493

> <r_epik_State_Penalty>
0.00549307

> <r_epik_Charging_Adjusted_Penalty>
0.00549307

> <i_epik_Tot_Q>
0

> <i_epik_Tot_abs_Q>
0

> <r_epik_Metal_State_Penalty>
-0

> <b_epik_Metal_Only>
0

> <s_lp_Force_Field>
OPLS_2005

> <r_lp_Energy>
38.6154

> <b_lp_Chiralities_Consistent>
1

> <s_lp_Variant>
AV-unprocessed.smi:263-1

> <Gold.Version>
5.8.1

> <Gold.Id.Protein>
6NUR|6NUR_protein|mol2

> <Gold.PLP.Fitness>
53.0281

> <Gold.PLP.PLP>
-45.5035

> <Gold.PLP.part.hbond>
-4.8623

> <Gold.PLP.part.metal>
0.0000

> <Gold.PLP.part.buried>
-3.7165

> <Gold.PLP.part.nonpolar>
-37.8176

> <Gold.PLP.part.repulsive>
0.2564

> <Gold.PLP.ligand.clash>
0.0000

> <Gold.PLP.ligand.torsion>
0.4569

> <Gold.PLP.Chemscore.Hbond>
2.6880

> <Gold.PLP.Chemscore.CHOScore>
0.0000

> <Gold.PLP.Chemscore.Metal>
0.0000

> <Gold.Chemscore.Hbonds>
donor molecule, donor type, donor heavy atom, donor atom, acceptor molecule, acceptor atom, score
      L1  H     1    29       P1  7948  0.76
      P1  H  7989  7998       L1    20  0.90
      P1  H 10752 10765       L1    22  1.00

> <Gold.PLP.Chemscore.Internal.Correction>
0.3743

> <Gold.Rescore>
     Score         DG    S(hbond)    S(metal)    S(lipo)     H(rot)  DE(clash)    DE(int)     intcor
     12.55     -17.02       1.39        0.00     116.51       2.62       0.37       4.10       ----

> <Gold.Chemscore.Fitness>
12.5503

> <Gold.Chemscore.DG>
-17.0229

> <Gold.Chemscore.ZeroCoef>
-5.4800

> <Gold.Chemscore.Hbond>
1.3852

> <Gold.Chemscore.Metal>
0.0000

> <Gold.Chemscore.Lipo>
116.5128

> <Gold.Chemscore.Internal_Hbond>
0.0000

> <Gold.Chemscore.DEClash>
0.3740

> <Gold.Chemscore.DEInternal>
4.0987

> <Gold.Chemscore.Rot>
2.6232

> <Gold.Chemscore.Internal.Correction>
   9.000000E+99

> <Gold.Chemscore.Hbonds>
donor molecule, donor type, donor heavy atom, donor atom, acceptor molecule, acceptor atom, score
      L1  H     1    29       P1  7948  0.13
      P1  H  7989  7998       L1    20  0.46
      P1  H 10752 10765       L1    22  0.66

> <Gold.Chemscore.Hbond.Weighted>
-4.6265

> <Gold.Chemscore.Metal.Weighted>
-0.0000

> <Gold.Chemscore.Lipo.Weighted>
-13.6320

> <Gold.Chemscore.Internal_Hbond.Weighted>
0.0000

> <Gold.Chemscore.DEClash.Weighted>
0.3740

> <Gold.Chemscore.DEInternal.Weighted>
4.0987

> <Gold.Chemscore.Rot.Weighted>
6.7155

> <Gold.Chemscore.Internal.Correction.Weighted>
   9.000000E+99

> <Gold.Protein.RotatedTorsions>
[ 6907 6896 6895 6894 ] final  102.61 input  -60.11 | X-H torsion
[ 7974 7965 7964 7962 ] final   95.50 input  175.53 | X-H torsion
[ 8008 7997 7996 7995 ] final  -58.57 input   59.86 | X-H torsion
[ 10167 10162 10161 10158 ] final   88.08 input  -65.29 | X-H torsion
[ 10718 10713 10712 10709 ] final  139.25 input   66.30 | X-H torsion
[ 10763 10752 10751 10750 ] final  163.82 input  -60.55 | X-H torsion
[ 11005 11000 10999 10996 ] final  -98.20 input  -57.11 | X-H torsion

> <Gold.Protein.ActiveResidues>
 VAL166  LYS551  ARG553  GLY616  TRP617  ASP618  TYR619  PRO620  LYS621  CYS622 
 ASP623  PHE694  ASN695  SER759  ASP760  ASP761  ALA762  ILE779  LEU786  VAL792 
 PHE793  MET794  SER795  GLU796  ALA797  LYS798  CYS799  TRP800  GLU811  SER814 

> <Gold.Protein.RotatedAtoms>
  152.5319  133.9949  159.7867 H   0  0  0  0  0  0  0  0  0  0  0  0  # atno 6907 bound_to 6896
  151.0178  133.5896  159.2682 H   0  0  0  0  0  0  0  0  0  0  0  0  # atno 6908 bound_to 6896
  151.2947  135.0758  159.9270 H   0  0  0  0  0  0  0  0  0  0  0  0  # atno 6909 bound_to 6896
  145.4514  139.2293  143.3038 H   0  0  0  0  0  0  0  0  0  0  0  0  # atno 7974 bound_to 7965
  154.4314  140.1081  156.5977 H   0  0  0  0  0  0  0  0  0  0  0  0  # atno 8008 bound_to 7997
  155.5944  140.3492  155.4557 H   0  0  0  0  0  0  0  0  0  0  0  0  # atno 8009 bound_to 7997
  156.0222  140.1242  157.0335 H   0  0  0  0  0  0  0  0  0  0  0  0  # atno 8010 bound_to 7997
  139.8709  144.6493  150.8951 H   0  0  0  0  0  0  0  0  0  0  0  0  # atno 10167 bound_to 10162
  157.4164  131.1034  151.0400 H   0  0  0  0  0  0  0  0  0  0  0  0  # atno 10718 bound_to 10713
  154.2996  135.2759  155.2617 H   0  0  0  0  0  0  0  0  0  0  0  0  # atno 10763 bound_to 10752
  154.5060  135.5795  153.6571 H   0  0  0  0  0  0  0  0  0  0  0  0  # atno 10764 bound_to 10752
  152.9902  135.6169  154.3165 H   0  0  0  0  0  0  0  0  0  0  0  0  # atno 10765 bound_to 10752
  141.1353  133.8227  157.0807 H   0  0  0  0  0  0  0  0  0  0  0  0  # atno 11005 bound_to 11000
  146.2502  140.5273  142.8896 LP  0  0  0  0  0  0  0  0  0  0  0  0  # atno 17320 bound_to 7965
  144.8059  140.6299  143.6447 LP  0  0  0  0  0  0  0  0  0  0  0  0  # atno 17321 bound_to 7965
  140.7761  143.3665  151.1730 LP  0  0  0  0  0  0  0  0  0  0  0  0  # atno 17342 bound_to 10162
  139.7285  143.9110  152.3011 LP  0  0  0  0  0  0  0  0  0  0  0  0  # atno 17343 bound_to 10162
  157.1345  130.6116  149.5538 LP  0  0  0  0  0  0  0  0  0  0  0  0  # atno 17370 bound_to 10713
  155.9866  130.4902  150.7089 LP  0  0  0  0  0  0  0  0  0  0  0  0  # atno 17371 bound_to 10713
  140.0453  134.9833  157.1037 LP  0  0  0  0  0  0  0  0  0  0  0  0  # atno 17394 bound_to 11000
  140.4072  134.2019  155.7163 LP  0  0  0  0  0  0  0  0  0  0  0  0  # atno 17395 bound_to 11000

$$$$
