AV-unprocessed.smi:3292|AV-procd|sdf|12624|dock3
  -GOLD-   2272018553D 1   1.00000     0.00000
 Structure written by MMmdl.
 39 40  0  0  0  0  0  0  0  0  2 V2000
  144.1576  137.1658  152.9558 C   0  0  0  0  0  0  0  0  0  0  0  0
  145.1037  136.0236  152.5513 C   0  0  1  0  0  0  0  0  0  0  0  0
  145.0508  135.6980  151.0427 C   0  0  0  0  0  0  0  0  0  0  0  0
  145.3415  134.2908  150.7544 N   0  0  0  0  0  0  0  0  0  0  0  0
  144.4891  133.3661  150.2081 C   0  0  0  0  0  0  0  0  0  0  0  0
  145.1883  132.1895  150.1280 C   0  0  0  0  0  0  0  0  0  0  0  0
  146.4356  132.4446  150.6318 N   0  3  0  0  0  0  0  0  0  0  0  0
  146.5260  133.7224  151.0152 C   0  0  0  0  0  0  0  0  0  0  0  0
  146.4678  136.3655  152.9439 N   0  0  0  0  0  0  0  0  0  0  0  0
  146.8297  136.8138  154.1547 C   0  0  0  0  0  0  0  0  0  0  0  0
  146.0423  136.9966  155.0835 O   0  0  0  0  0  0  0  0  0  0  0  0
  148.1509  137.0248  154.2343 N   0  0  0  0  0  0  0  0  0  0  0  0
  148.8609  137.4891  155.4220 C   0  0  0  0  0  0  0  0  0  0  0  0
  149.6683  138.7714  155.1440 C   0  0  1  0  0  0  0  0  0  0  0  0
  150.1862  139.4503  156.3951 C   0  0  0  0  0  0  0  0  0  0  0  0
  151.2755  140.3596  155.8340 C   0  0  0  0  0  0  0  0  0  0  0  0
  151.7927  139.6873  154.6895 O   0  0  0  0  0  0  0  0  0  0  0  0
  150.9716  138.5691  154.3677 C   0  0  0  0  0  0  0  0  0  0  0  0
  143.1158  136.9098  152.7623 H   0  0  0  0  0  0  0  0  0  0  0  0
  144.3836  138.0812  152.4081 H   0  0  0  0  0  0  0  0  0  0  0  0
  144.2422  137.3857  154.0204 H   0  0  0  0  0  0  0  0  0  0  0  0
  144.7984  135.1365  153.1099 H   0  0  0  0  0  0  0  0  0  0  0  0
  144.0700  135.9404  150.6300 H   0  0  0  0  0  0  0  0  0  0  0  0
  145.7798  136.2948  150.4925 H   0  0  0  0  0  0  0  0  0  0  0  0
  143.4753  133.6097  149.9238 H   0  0  0  0  0  0  0  0  0  0  0  0
  144.8988  131.2154  149.7612 H   0  0  0  0  0  0  0  0  0  0  0  0
  147.3876  134.2004  151.4466 H   0  0  0  0  0  0  0  0  0  0  0  0
  147.1873  136.2477  152.2454 H   0  0  0  0  0  0  0  0  0  0  0  0
  148.7113  136.8441  153.4140 H   0  0  0  0  0  0  0  0  0  0  0  0
  148.1163  137.6898  156.1926 H   0  0  0  0  0  0  0  0  0  0  0  0
  149.5068  136.7045  155.8204 H   0  0  0  0  0  0  0  0  0  0  0  0
  149.0434  139.4825  154.6008 H   0  0  0  0  0  0  0  0  0  0  0  0
  149.4145  139.9982  156.9368 H   0  0  0  0  0  0  0  0  0  0  0  0
  150.6249  138.7170  157.0734 H   0  0  0  0  0  0  0  0  0  0  0  0
  150.8488  141.3104  155.5124 H   0  0  0  0  0  0  0  0  0  0  0  0
  152.0591  140.5691  156.5624 H   0  0  0  0  0  0  0  0  0  0  0  0
  151.4822  137.6639  154.6991 H   0  0  0  0  0  0  0  0  0  0  0  0
  150.8107  138.4922  153.2922 H   0  0  0  0  0  0  0  0  0  0  0  0
  147.1831  131.7659  150.7060 H   0  0  0  0  0  0  0  0  0  0  0  0
  1  2  1  0  0  0  0
  1 19  1  0  0  0  0
  1 20  1  0  0  0  0
  1 21  1  0  0  0  0
  2  3  1  0  0  0  0
  2  9  1  0  0  0  0
  2 22  1  0  0  0  0
  3  4  1  0  0  0  0
  3 23  1  0  0  0  0
  3 24  1  0  0  0  0
  4  8  1  0  0  0  0
  4  5  1  0  0  0  0
  5  6  2  0  0  0  0
  5 25  1  0  0  0  0
  6  7  1  0  0  0  0
  6 26  1  0  0  0  0
  7  8  2  0  0  0  0
  7 39  1  0  0  0  0
  8 27  1  0  0  0  0
  9 10  1  0  0  0  0
  9 28  1  0  0  0  0
 10 11  2  0  0  0  0
 10 12  1  0  0  0  0
 12 13  1  0  0  0  0
 12 29  1  0  0  0  0
 13 14  1  0  0  0  0
 13 30  1  0  0  0  0
 13 31  1  0  0  0  0
 14 18  1  0  0  0  0
 14 15  1  0  0  0  0
 14 32  1  0  0  0  0
 15 16  1  0  0  0  0
 15 33  1  0  0  0  0
 15 34  1  0  0  0  0
 16 17  1  0  0  0  0
 16 35  1  0  0  0  0
 16 36  1  0  0  0  0
 17 18  1  0  0  0  0
 18 37  1  0  0  0  0
 18 38  1  0  0  0  0
M  CHG  1   7   1
M  END
> <s_m_source_file>
AV-unprocessed.smi

> <i_m_source_file_index>
3292

> <i_lp_mmshare_version>
43012

> <i_f3d_flags>
0

> <s_epik_input>
W2NIXTFuW2NIXVtjSF1uMVtDSDJdW0NAQEhdKFtDSDNdKVtOSF1DKD1PKVtOSF1bQ0gyXVtDQEBIXTJbQ0gyXVtDSDJdT1tDSDJdMg==

> <s_epik_cmdline>
J2VwaWtfcHl0aG9uJywgJy1waCcsICc3LjAnLCAnLXRuJywgJzgnLCAnLW1hJywgJzIwMCcsICctbWV0YWxfYmluZGluZycsICctaW1hZScsICc8aW5maWxlLm1hZT4nLCAnLW9tYWUnLCAnPG91dGZpbGUubWFlPic=

> <r_lp_tautomer_probability>
1

> <r_epik_Ionization_Penalty>
0.255703

> <r_epik_Ionization_Penalty_Charging>
0

> <r_epik_Ionization_Penalty_Neutral>
0.255703

> <r_epik_State_Penalty>
0.247169

> <r_epik_Charging_Adjusted_Penalty>
0.247169

> <i_epik_Tot_Q>
1

> <i_epik_Tot_abs_Q>
1

> <r_epik_Metal_State_Penalty>
0.536791

> <b_epik_Metal_Only>
0

> <s_lp_Force_Field>
OPLS_2005

> <r_lp_Energy>
19.2817

> <b_lp_Chiralities_Consistent>
1

> <s_lp_Variant>
AV-unprocessed.smi:3292-4

> <Gold.Version>
5.8.1

> <Gold.Id.Protein>
6NUR|6NUR_protein|mol2

> <Gold.PLP.Fitness>
46.1525

> <Gold.PLP.PLP>
-30.4385

> <Gold.PLP.part.hbond>
-4.0000

> <Gold.PLP.part.metal>
0.0000

> <Gold.PLP.part.buried>
-5.0758

> <Gold.PLP.part.nonpolar>
-21.5999

> <Gold.PLP.part.repulsive>
0.1743

> <Gold.PLP.ligand.clash>
0.0000

> <Gold.PLP.ligand.torsion>
0.5470

> <Gold.PLP.Chemscore.Hbond>
3.9508

> <Gold.PLP.Chemscore.CHOScore>
1.6152

> <Gold.PLP.Chemscore.Metal>
0.0000

> <Gold.Chemscore.Hbonds>
donor molecule, donor type, donor heavy atom, donor atom, acceptor molecule, acceptor atom, score
      L1  H     7    39       P1 10747  0.94
      L1  H     9    28       P1  7948  0.98
      L1  H    12    29       P1  7948  1.00
      P1  H  7989  7998       L1    17  1.00
      L1  C     5    25       P1 10186  0.77
      L1  C     8    27       P1  7948  0.85

> <Gold.PLP.Chemscore.Internal.Correction>
0.1101

> <Gold.Rescore>
     Score         DG    S(hbond)    S(metal)    S(lipo)     H(rot)  DE(clash)    DE(int)     intcor
     17.28     -19.01       3.75        0.00      57.67       2.24       0.04       1.70       ----

> <Gold.Chemscore.Fitness>
17.2754

> <Gold.Chemscore.DG>
-19.0146

> <Gold.Chemscore.ZeroCoef>
-5.4800

> <Gold.Chemscore.Hbond>
3.7463

> <Gold.Chemscore.Metal>
0.0000

> <Gold.Chemscore.Lipo>
57.6730

> <Gold.Chemscore.Internal_Hbond>
0.0000

> <Gold.Chemscore.DEClash>
0.0370

> <Gold.Chemscore.DEInternal>
1.7022

> <Gold.Chemscore.Rot>
2.2367

> <Gold.Chemscore.Internal.Correction>
   9.000000E+99

> <Gold.Chemscore.Hbonds>
donor molecule, donor type, donor heavy atom, donor atom, acceptor molecule, acceptor atom, score
      L1  H     7    39       P1 10747  0.89
      L1  H     9    28       P1  7948  0.93
      L1  H    12    29       P1  7948  0.97
      P1  H  7989  7998       L1    17  0.25

> <Gold.Chemscore.Hbond.Weighted>
-12.5127

> <Gold.Chemscore.Metal.Weighted>
-0.0000

> <Gold.Chemscore.Lipo.Weighted>
-6.7477

> <Gold.Chemscore.Internal_Hbond.Weighted>
0.0000

> <Gold.Chemscore.DEClash.Weighted>
0.0370

> <Gold.Chemscore.DEInternal.Weighted>
1.7022

> <Gold.Chemscore.Rot.Weighted>
5.7259

> <Gold.Chemscore.Internal.Correction.Weighted>
   9.000000E+99

> <Gold.Protein.RotatedTorsions>
[ 6907 6896 6895 6894 ] final  -29.20 input  -60.11 | X-H torsion
[ 7974 7965 7964 7962 ] final   97.31 input  175.53 | X-H torsion
[ 8008 7997 7996 7995 ] final  130.66 input   59.86 | X-H torsion
[ 10167 10162 10161 10158 ] final  147.07 input  -65.29 | X-H torsion
[ 10718 10713 10712 10709 ] final  131.43 input   66.30 | X-H torsion
[ 10763 10752 10751 10750 ] final   81.67 input  -60.55 | X-H torsion
[ 11005 11000 10999 10996 ] final  177.94 input  -57.11 | X-H torsion

> <Gold.Protein.ActiveResidues>
 VAL166  LYS551  ARG553  GLY616  TRP617  ASP618  TYR619  PRO620  LYS621  CYS622 
 ASP623  PHE694  ASN695  SER759  ASP760  ASP761  ALA762  ILE779  LEU786  VAL792 
 PHE793  MET794  SER795  GLU796  ALA797  LYS798  CYS799  TRP800  GLU811  SER814 

> <Gold.Protein.RotatedAtoms>
  151.1224  135.0086  159.8544 H   0  0  0  0  0  0  0  0  0  0  0  0  # atno 6907 bound_to 6896
  152.5448  134.1706  159.8605 H   0  0  0  0  0  0  0  0  0  0  0  0  # atno 6908 bound_to 6896
  151.1766  133.4706  159.2627 H   0  0  0  0  0  0  0  0  0  0  0  0  # atno 6909 bound_to 6896
  145.4272  139.2314  143.3164 H   0  0  0  0  0  0  0  0  0  0  0  0  # atno 7974 bound_to 7965
  156.2958  140.2590  156.2799 H   0  0  0  0  0  0  0  0  0  0  0  0  # atno 8008 bound_to 7997
  154.9612  140.0392  157.2209 H   0  0  0  0  0  0  0  0  0  0  0  0  # atno 8009 bound_to 7997
  154.7945  140.2817  155.5972 H   0  0  0  0  0  0  0  0  0  0  0  0  # atno 8010 bound_to 7997
  139.4896  144.5783  151.6922 H   0  0  0  0  0  0  0  0  0  0  0  0  # atno 10167 bound_to 10162
  157.4968  131.1093  150.9482 H   0  0  0  0  0  0  0  0  0  0  0  0  # atno 10718 bound_to 10713
  153.1136  135.4757  154.9078 H   0  0  0  0  0  0  0  0  0  0  0  0  # atno 10763 bound_to 10752
  154.7506  135.3105  154.8567 H   0  0  0  0  0  0  0  0  0  0  0  0  # atno 10764 bound_to 10752
  153.9149  135.6861  153.4803 H   0  0  0  0  0  0  0  0  0  0  0  0  # atno 10765 bound_to 10752
  140.3897  134.6873  157.4500 H   0  0  0  0  0  0  0  0  0  0  0  0  # atno 11005 bound_to 11000
  146.2626  140.5004  142.8847 LP  0  0  0  0  0  0  0  0  0  0  0  0  # atno 17320 bound_to 7965
  144.8207  140.6544  143.6355 LP  0  0  0  0  0  0  0  0  0  0  0  0  # atno 17321 bound_to 7965
  140.5383  144.0619  150.6079 LP  0  0  0  0  0  0  0  0  0  0  0  0  # atno 17342 bound_to 10162
  140.3633  143.2895  152.0359 LP  0  0  0  0  0  0  0  0  0  0  0  0  # atno 17343 bound_to 10162
  157.0166  130.5657  149.5326 LP  0  0  0  0  0  0  0  0  0  0  0  0  # atno 17370 bound_to 10713
  156.0205  130.5300  150.8262 LP  0  0  0  0  0  0  0  0  0  0  0  0  # atno 17371 bound_to 10713
  140.0416  134.6259  155.8973 LP  0  0  0  0  0  0  0  0  0  0  0  0  # atno 17394 bound_to 11000
  141.1895  133.6565  156.5371 LP  0  0  0  0  0  0  0  0  0  0  0  0  # atno 17395 bound_to 11000

$$$$
