AV-unprocessed.smi:236|AV-procd|sdf|1816|dock7
  -GOLD-   2262020403D 1   1.00000     0.00000
 Structure written by MMmdl.
 58 62  0  0  0  0  0  0  0  0  1 V2000
  143.8923  135.1958  162.3487 C   0  0  0  0  0  0  0  0  0  0  0  0
  145.3501  135.4150  162.7787 C   0  0  1  0  0  0  0  0  0  0  0  0
  145.9914  134.1701  163.0437 O   0  0  0  0  0  0  0  0  0  0  0  0
  147.3706  134.2438  162.6933 C   0  0  0  0  0  0  0  0  0  0  0  0
  147.6234  135.6991  162.3097 C   0  0  0  0  0  0  0  0  0  0  0  0
  146.2667  136.1458  161.7792 C   0  0  2  0  0  0  0  0  0  0  0  0
  146.1521  137.5469  161.9407 O   0  0  0  0  0  0  0  0  0  0  0  0
  146.0168  135.7658  160.2931 C   0  0  0  0  0  0  0  0  0  0  0  0
  146.7316  136.6021  159.3416 N   0  0  0  0  0  0  0  0  0  0  0  0
  147.9115  136.2999  158.7002 C   0  0  0  0  0  0  0  0  0  0  0  0
  148.3597  137.2243  157.8954 N   0  0  0  0  0  0  0  0  0  0  0  0
  147.4059  138.2332  157.9693 C   0  0  0  0  0  0  0  0  0  0  0  0
  147.2657  139.5140  157.3619 C   0  0  0  0  0  0  0  0  0  0  0  0
  148.1683  140.0142  156.4789 N   0  0  0  0  0  0  0  0  0  0  0  0
  148.5749  139.1656  155.3611 C   0  0  0  0  0  0  0  0  0  0  0  0
  149.3737  139.9860  154.3367 C   0  0  0  0  0  0  0  0  0  0  0  0
  150.4727  140.6133  154.9883 O   0  0  0  0  0  0  0  0  0  0  0  0
  150.0511  141.5295  155.9961 C   0  0  2  0  0  0  0  0  0  0  0  0
  151.2951  142.2193  156.5696 C   0  0  0  0  0  0  0  0  0  0  0  0
  150.8948  143.1096  157.5982 O   0  0  0  0  0  0  0  0  0  0  0  0
  151.6155  144.3291  157.5779 C   0  0  0  0  0  0  0  0  0  0  0  0
  152.5710  144.3560  158.7517 C   0  0  0  0  0  0  0  0  0  0  0  0
  152.5367  143.2609  159.7934 C   0  0  0  0  0  0  0  0  0  0  0  0
  152.0700  144.6501  160.1474 C   0  0  0  0  0  0  0  0  0  0  0  0
  149.2802  140.7470  157.0774 C   0  0  0  0  0  0  0  0  0  0  0  0
  146.1722  140.2483  157.7029 N   0  0  0  0  0  0  0  0  0  0  0  0
  145.2730  139.7646  158.5645 C   0  0  0  0  0  0  0  0  0  0  0  0
  145.2733  138.5918  159.1997 N   0  0  0  0  0  0  0  0  0  0  0  0
  146.3732  137.8545  158.8741 C   0  0  0  0  0  0  0  0  0  0  0  0
  143.4077  136.1430  162.1104 H   0  0  0  0  0  0  0  0  0  0  0  0
  143.3223  134.7248  163.1497 H   0  0  0  0  0  0  0  0  0  0  0  0
  143.8212  134.5482  161.4748 H   0  0  0  0  0  0  0  0  0  0  0  0
  145.3534  135.9631  163.7230 H   0  0  0  0  0  0  0  0  0  0  0  0
  148.0075  133.9174  163.5157 H   0  0  0  0  0  0  0  0  0  0  0  0
  147.5507  133.5846  161.8435 H   0  0  0  0  0  0  0  0  0  0  0  0
  147.8781  136.2596  163.2110 H   0  0  0  0  0  0  0  0  0  0  0  0
  148.4511  135.8228  161.6128 H   0  0  0  0  0  0  0  0  0  0  0  0
  145.9886  137.7320  162.8529 H   0  0  0  0  0  0  0  0  0  0  0  0
  146.3026  134.7290  160.1119 H   0  0  0  0  0  0  0  0  0  0  0  0
  144.9538  135.8314  160.0579 H   0  0  0  0  0  0  0  0  0  0  0  0
  148.4397  135.3708  158.8589 H   0  0  0  0  0  0  0  0  0  0  0  0
  149.1856  138.3412  155.7321 H   0  0  0  0  0  0  0  0  0  0  0  0
  147.6979  138.7323  154.8784 H   0  0  0  0  0  0  0  0  0  0  0  0
  149.7511  139.3362  153.5472 H   0  0  0  0  0  0  0  0  0  0  0  0
  148.7420  140.7359  153.8580 H   0  0  0  0  0  0  0  0  0  0  0  0
  149.3962  142.2856  155.5585 H   0  0  0  0  0  0  0  0  0  0  0  0
  151.9727  141.4724  156.9869 H   0  0  0  0  0  0  0  0  0  0  0  0
  151.8349  142.7503  155.7837 H   0  0  0  0  0  0  0  0  0  0  0  0
  152.1713  144.4285  156.6440 H   0  0  0  0  0  0  0  0  0  0  0  0
  150.9348  145.1779  157.6573 H   0  0  0  0  0  0  0  0  0  0  0  0
  153.5568  144.7466  158.5059 H   0  0  0  0  0  0  0  0  0  0  0  0
  151.7771  142.4880  159.6946 H   0  0  0  0  0  0  0  0  0  0  0  0
  153.4882  142.9294  160.2045 H   0  0  0  0  0  0  0  0  0  0  0  0
  152.7096  145.2469  160.7945 H   0  0  0  0  0  0  0  0  0  0  0  0
  151.0006  144.8030  160.2800 H   0  0  0  0  0  0  0  0  0  0  0  0
  148.9337  141.4386  157.8441 H   0  0  0  0  0  0  0  0  0  0  0  0
  149.9442  140.0357  157.5709 H   0  0  0  0  0  0  0  0  0  0  0  0
  144.4341  140.4112  158.7759 H   0  0  0  0  0  0  0  0  0  0  0  0
  1  2  1  0  0  0  0
  1 30  1  0  0  0  0
  1 31  1  0  0  0  0
  1 32  1  0  0  0  0
  2  6  1  0  0  0  0
  2  3  1  0  0  0  0
  2 33  1  0  0  0  0
  3  4  1  0  0  0  0
  4  5  1  0  0  0  0
  4 34  1  0  0  0  0
  4 35  1  0  0  0  0
  5  6  1  0  0  0  0
  5 36  1  0  0  0  0
  5 37  1  0  0  0  0
  6  7  1  0  0  0  0
  6  8  1  0  0  0  0
  7 38  1  0  0  0  0
  8  9  1  0  0  0  0
  8 39  1  0  0  0  0
  8 40  1  0  0  0  0
  9 29  1  0  0  0  0
  9 10  1  0  0  0  0
 10 11  2  0  0  0  0
 10 41  1  0  0  0  0
 11 12  1  0  0  0  0
 12 29  2  0  0  0  0
 12 13  1  0  0  0  0
 13 14  1  0  0  0  0
 13 26  2  0  0  0  0
 14 25  1  0  0  0  0
 14 15  1  0  0  0  0
 15 16  1  0  0  0  0
 15 42  1  0  0  0  0
 15 43  1  0  0  0  0
 16 17  1  0  0  0  0
 16 44  1  0  0  0  0
 16 45  1  0  0  0  0
 17 18  1  0  0  0  0
 18 19  1  0  0  0  0
 18 25  1  0  0  0  0
 18 46  1  0  0  0  0
 19 20  1  0  0  0  0
 19 47  1  0  0  0  0
 19 48  1  0  0  0  0
 20 21  1  0  0  0  0
 21 22  1  0  0  0  0
 21 49  1  0  0  0  0
 21 50  1  0  0  0  0
 22 24  1  0  0  0  0
 22 23  1  0  0  0  0
 22 51  1  0  0  0  0
 23 24  1  0  0  0  0
 23 52  1  0  0  0  0
 23 53  1  0  0  0  0
 24 54  1  0  0  0  0
 24 55  1  0  0  0  0
 25 56  1  0  0  0  0
 25 57  1  0  0  0  0
 26 27  1  0  0  0  0
 27 28  2  0  0  0  0
 27 58  1  0  0  0  0
 28 29  1  0  0  0  0
M  END
> <s_m_source_file>
AV-unprocessed.smi

> <i_m_source_file_index>
236

> <i_lp_mmshare_version>
43012

> <i_f3d_flags>
0

> <s_epik_input>
W0NIMl0xW0NIMl1PW0NAQEhdKFtDSDNdKVtDQEBdMShbT0hdKVtDSDJdbihbY0hdbjIpYyhjMjMpbltjSF1uYzNONFtDSDJdW0NIMl1PW0NASF0oW0NIMl00KVtDSDJdT1tDSDJdW0NIXTVbQ0gyXVtDSDJdNQ==

> <s_epik_cmdline>
J2VwaWtfcHl0aG9uJywgJy1waCcsICc3LjAnLCAnLXRuJywgJzgnLCAnLW1hJywgJzIwMCcsICctbWV0YWxfYmluZGluZycsICctaW1hZScsICc8aW5maWxlLm1hZT4nLCAnLW9tYWUnLCAnPG91dGZpbGUubWFlPic=

> <r_lp_tautomer_probability>
1

> <r_epik_Ionization_Penalty>
7.21838e-05

> <r_epik_Ionization_Penalty_Charging>
0

> <r_epik_Ionization_Penalty_Neutral>
7.21838e-05

> <r_epik_State_Penalty>
-0

> <r_epik_Charging_Adjusted_Penalty>
0

> <i_epik_Tot_Q>
0

> <i_epik_Tot_abs_Q>
0

> <r_epik_Metal_State_Penalty>
-0

> <b_epik_Metal_Only>
0

> <s_lp_Force_Field>
OPLS_2005

> <r_lp_Energy>
48.2383

> <b_lp_Chiralities_Consistent>
1

> <s_lp_Variant>
AV-unprocessed.smi:236-8

> <Gold.Version>
5.8.1

> <Gold.Id.Protein>
6NUR|6NUR_protein|mol2

> <Gold.PLP.Fitness>
48.1352

> <Gold.PLP.PLP>
-45.7720

> <Gold.PLP.part.hbond>
-3.5450

> <Gold.PLP.part.metal>
0.0000

> <Gold.PLP.part.buried>
-6.9100

> <Gold.PLP.part.nonpolar>
-35.6477

> <Gold.PLP.part.repulsive>
0.2532

> <Gold.PLP.ligand.clash>
0.0000

> <Gold.PLP.ligand.torsion>
1.9499

> <Gold.PLP.Chemscore.Hbond>
1.7600

> <Gold.PLP.Chemscore.CHOScore>
0.0000

> <Gold.PLP.Chemscore.Metal>
0.0000

> <Gold.Chemscore.Hbonds>
donor molecule, donor type, donor heavy atom, donor atom, acceptor molecule, acceptor atom, score
      P1  H  6934  6947       L1     7  0.80
      P1  H  7989  7998       L1    17  0.94

> <Gold.PLP.Chemscore.Internal.Correction>
0.9831

> <Gold.Rescore>
     Score         DG    S(hbond)    S(metal)    S(lipo)     H(rot)  DE(clash)    DE(int)     intcor
     15.13     -17.57       1.46        0.00     124.36       2.87       0.53       1.90       ----

> <Gold.Chemscore.Fitness>
15.1336

> <Gold.Chemscore.DG>
-17.5652

> <Gold.Chemscore.ZeroCoef>
-5.4800

> <Gold.Chemscore.Hbond>
1.4584

> <Gold.Chemscore.Metal>
0.0000

> <Gold.Chemscore.Lipo>
124.3584

> <Gold.Chemscore.Internal_Hbond>
0.0000

> <Gold.Chemscore.DEClash>
0.5335

> <Gold.Chemscore.DEInternal>
1.8981

> <Gold.Chemscore.Rot>
2.8655

> <Gold.Chemscore.Internal.Correction>
   9.000000E+99

> <Gold.Chemscore.Hbonds>
donor molecule, donor type, donor heavy atom, donor atom, acceptor molecule, acceptor atom, score
      P1  H  6934  6947       L1     7  0.65
      P1  H  7989  7998       L1    17  0.23

> <Gold.Chemscore.Hbond.Weighted>
-4.8710

> <Gold.Chemscore.Metal.Weighted>
-0.0000

> <Gold.Chemscore.Lipo.Weighted>
-14.5499

> <Gold.Chemscore.Internal_Hbond.Weighted>
0.0000

> <Gold.Chemscore.DEClash.Weighted>
0.5335

> <Gold.Chemscore.DEInternal.Weighted>
1.8981

> <Gold.Chemscore.Rot.Weighted>
7.3358

> <Gold.Chemscore.Internal.Correction.Weighted>
   9.000000E+99

> <Gold.Protein.RotatedTorsions>
[ 6907 6896 6895 6894 ] final  -49.26 input  -60.11 | X-H torsion
[ 7974 7965 7964 7962 ] final  145.89 input  175.53 | X-H torsion
[ 8008 7997 7996 7995 ] final   13.80 input   59.86 | X-H torsion
[ 10167 10162 10161 10158 ] final  -39.79 input  -65.29 | X-H torsion
[ 10718 10713 10712 10709 ] final  178.00 input   66.30 | X-H torsion
[ 10763 10752 10751 10750 ] final   46.39 input  -60.55 | X-H torsion
[ 11005 11000 10999 10996 ] final   67.44 input  -57.11 | X-H torsion

> <Gold.Protein.ActiveResidues>
 VAL166  LYS551  ARG553  GLY616  TRP617  ASP618  TYR619  PRO620  LYS621  CYS622 
 ASP623  PHE694  ASN695  SER759  ASP760  ASP761  ALA762  ILE779  LEU786  VAL792 
 PHE793  MET794  SER795  GLU796  ALA797  LYS798  CYS799  TRP800  GLU811  SER814 

> <Gold.Protein.RotatedAtoms>
  150.8823  134.8216  159.7233 H   0  0  0  0  0  0  0  0  0  0  0  0  # atno 6907 bound_to 6896
  152.4786  134.4777  159.9665 H   0  0  0  0  0  0  0  0  0  0  0  0  # atno 6908 bound_to 6896
  151.4850  133.3499  159.2879 H   0  0  0  0  0  0  0  0  0  0  0  0  # atno 6909 bound_to 6896
  144.8715  139.5838  143.5884 H   0  0  0  0  0  0  0  0  0  0  0  0  # atno 7974 bound_to 7965
  154.8395  140.2912  155.5668 H   0  0  0  0  0  0  0  0  0  0  0  0  # atno 8008 bound_to 7997
  156.3011  140.2516  156.3267 H   0  0  0  0  0  0  0  0  0  0  0  0  # atno 8009 bound_to 7997
  154.9141  140.0387  157.1951 H   0  0  0  0  0  0  0  0  0  0  0  0  # atno 8010 bound_to 7997
  140.7054  143.3193  151.2832 H   0  0  0  0  0  0  0  0  0  0  0  0  # atno 10167 bound_to 10162
  156.8971  130.9866  151.3041 H   0  0  0  0  0  0  0  0  0  0  0  0  # atno 10718 bound_to 10713
  152.9811  135.6009  154.3592 H   0  0  0  0  0  0  0  0  0  0  0  0  # atno 10763 bound_to 10752
  154.3275  135.2769  155.2490 H   0  0  0  0  0  0  0  0  0  0  0  0  # atno 10764 bound_to 10752
  154.4629  135.5961  153.6324 H   0  0  0  0  0  0  0  0  0  0  0  0  # atno 10765 bound_to 10752
  139.9771  134.6805  156.0334 H   0  0  0  0  0  0  0  0  0  0  0  0  # atno 11005 bound_to 11000
  146.2933  139.7204  142.9145 LP  0  0  0  0  0  0  0  0  0  0  0  0  # atno 17320 bound_to 7965
  145.4121  141.0397  143.3011 LP  0  0  0  0  0  0  0  0  0  0  0  0  # atno 17321 bound_to 7965
  139.6641  144.0136  152.2712 LP  0  0  0  0  0  0  0  0  0  0  0  0  # atno 17342 bound_to 10162
  139.9713  144.6492  150.7987 LP  0  0  0  0  0  0  0  0  0  0  0  0  # atno 17343 bound_to 10162
  157.6049  130.8539  149.8859 LP  0  0  0  0  0  0  0  0  0  0  0  0  # atno 17370 bound_to 10713
  156.0600  130.3701  150.1003 LP  0  0  0  0  0  0  0  0  0  0  0  0  # atno 17371 bound_to 10713
  141.1447  133.6558  156.3831 LP  0  0  0  0  0  0  0  0  0  0  0  0  # atno 17394 bound_to 11000
  140.5173  134.6338  157.5306 LP  0  0  0  0  0  0  0  0  0  0  0  0  # atno 17395 bound_to 11000

$$$$
