AV-unprocessed.smi:2448|AV-procd|sdf|9657|dock5
  -GOLD-   2272013293D 1   1.00000     0.00000
 Structure written by MMmdl.
 38 39  0  0  0  0  0  0  0  0  2 V2000
  146.9880  135.1774  153.1253 O   0  0  0  0  0  0  0  0  0  0  0  0
  145.9677  136.1608  153.1567 C   0  0  1  0  0  0  0  0  0  0  0  0
  146.4746  137.3515  153.9955 C   0  0  0  0  0  0  0  0  0  0  0  0
  147.5447  138.0951  153.2932 N   0  3  0  0  0  0  0  0  0  0  0  0
  148.2612  139.1132  154.0965 C   0  0  1  0  0  0  0  0  0  0  0  0
  149.7032  139.3064  153.5656 C   0  0  0  0  0  0  0  0  0  0  0  0
  150.7727  139.2884  154.6427 C   0  0  0  0  0  0  0  0  0  0  0  0
  151.7676  138.2888  154.6541 C   0  0  0  0  0  0  0  0  0  0  0  0
  152.7411  138.3212  155.6726 C   0  0  0  0  0  0  0  0  0  0  0  0
  152.7691  139.2615  156.6414 N   0  0  0  0  0  0  0  0  0  0  0  0
  151.8111  140.2128  156.6272 C   0  0  0  0  0  0  0  0  0  0  0  0
  150.7930  140.2715  155.6541 C   0  0  0  0  0  0  0  0  0  0  0  0
  147.4266  140.4148  154.1173 C   0  0  0  0  0  0  0  0  0  0  0  0
  148.1394  141.3878  154.6863 F   0  0  0  0  0  0  0  0  0  0  0  0
  147.1084  140.8143  152.8869 F   0  0  0  0  0  0  0  0  0  0  0  0
  146.3090  140.2380  154.8224 F   0  0  0  0  0  0  0  0  0  0  0  0
  145.6561  136.5634  151.7056 C   0  0  0  0  0  0  0  0  0  0  0  0
  144.8733  135.4165  151.0583 C   0  0  0  0  0  0  0  0  0  0  0  0
  143.8371  134.6719  152.3420 S   0  0  0  0  0  0  0  0  0  0  0  0
  144.6684  135.5382  153.7000 C   0  0  0  0  0  0  0  0  0  0  0  0
  147.7097  135.5038  152.6092 H   0  0  0  0  0  0  0  0  0  0  0  0
  145.6474  138.0278  154.2159 H   0  0  0  0  0  0  0  0  0  0  0  0
  146.8510  136.9895  154.9522 H   0  0  0  0  0  0  0  0  0  0  0  0
  148.2158  137.4420  152.9150 H   0  0  0  0  0  0  0  0  0  0  0  0
  148.3108  138.7462  155.1229 H   0  0  0  0  0  0  0  0  0  0  0  0
  149.9560  138.5205  152.8541 H   0  0  0  0  0  0  0  0  0  0  0  0
  149.7703  140.2440  153.0120 H   0  0  0  0  0  0  0  0  0  0  0  0
  151.7920  137.5155  153.9003 H   0  0  0  0  0  0  0  0  0  0  0  0
  153.5184  137.5721  155.7089 H   0  0  0  0  0  0  0  0  0  0  0  0
  151.8577  140.9504  157.4146 H   0  0  0  0  0  0  0  0  0  0  0  0
  150.0503  141.0550  155.6866 H   0  0  0  0  0  0  0  0  0  0  0  0
  145.0295  137.4564  151.7046 H   0  0  0  0  0  0  0  0  0  0  0  0
  146.5549  136.8090  151.1383 H   0  0  0  0  0  0  0  0  0  0  0  0
  144.2707  135.7539  150.2148 H   0  0  0  0  0  0  0  0  0  0  0  0
  145.5601  134.6534  150.6904 H   0  0  0  0  0  0  0  0  0  0  0  0
  144.8410  134.8672  154.5425 H   0  0  0  0  0  0  0  0  0  0  0  0
  143.9922  136.3224  154.0424 H   0  0  0  0  0  0  0  0  0  0  0  0
  147.1059  138.5777  152.5212 H   0  0  0  0  0  0  0  0  0  0  0  0
  1  2  1  0  0  0  0
  1 21  1  0  0  0  0
  2 20  1  0  0  0  0
  2  3  1  0  0  0  0
  2 17  1  0  0  0  0
  3  4  1  0  0  0  0
  3 22  1  0  0  0  0
  3 23  1  0  0  0  0
  4  5  1  0  0  0  0
  4 24  1  0  0  0  0
  4 38  1  0  0  0  0
  5  6  1  0  0  0  0
  5 13  1  0  0  0  0
  5 25  1  0  0  0  0
  6  7  1  0  0  0  0
  6 26  1  0  0  0  0
  6 27  1  0  0  0  0
  7 12  1  0  0  0  0
  7  8  2  0  0  0  0
  8  9  1  0  0  0  0
  8 28  1  0  0  0  0
  9 10  2  0  0  0  0
  9 29  1  0  0  0  0
 10 11  1  0  0  0  0
 11 12  2  0  0  0  0
 11 30  1  0  0  0  0
 12 31  1  0  0  0  0
 13 14  1  0  0  0  0
 13 15  1  0  0  0  0
 13 16  1  0  0  0  0
 17 18  1  0  0  0  0
 17 32  1  0  0  0  0
 17 33  1  0  0  0  0
 18 19  1  0  0  0  0
 18 34  1  0  0  0  0
 18 35  1  0  0  0  0
 19 20  1  0  0  0  0
 20 36  1  0  0  0  0
 20 37  1  0  0  0  0
M  CHG  1   4   1
M  END
> <s_m_source_file>
AV-unprocessed.smi

> <i_m_source_file_index>
2448

> <i_lp_mmshare_version>
43012

> <i_f3d_flags>
0

> <s_epik_input>
W0NIMl0xU1tDSDJdW0NIMl1bQ0BAXTEoW09IXSlbQ0gyXVtOSF1bQ0BASF0oQyhGKShGKUYpW0NIMl1jMltjSF1bY0hdbltjSF1bY0hdMg==

> <s_epik_cmdline>
J2VwaWtfcHl0aG9uJywgJy1waCcsICc3LjAnLCAnLXRuJywgJzgnLCAnLW1hJywgJzIwMCcsICctbWV0YWxfYmluZGluZycsICctaW1hZScsICc8aW5maWxlLm1hZT4nLCAnLW9tYWUnLCAnPG91dGZpbGUubWFlPic=

> <r_epik_Ionization_Penalty>
1.19945

> <r_epik_Ionization_Penalty_Charging>
1.19892

> <r_epik_Ionization_Penalty_Neutral>
0.000532129

> <r_epik_State_Penalty>
0.752927

> <r_epik_Charging_Adjusted_Penalty>
1.95185

> <i_epik_Tot_Q>
1

> <i_epik_Tot_abs_Q>
1

> <r_epik_Metal_State_Penalty>
0.804507

> <b_epik_Metal_Only>
0

> <s_lp_Force_Field>
OPLS_2005

> <r_lp_Energy>
21.3844

> <b_lp_Chiralities_Consistent>
1

> <s_lp_Variant>
AV-unprocessed.smi:2448-7

> <Gold.Version>
5.8.1

> <Gold.Id.Protein>
6NUR|6NUR_protein|mol2

> <Gold.PLP.Fitness>
43.7388

> <Gold.PLP.PLP>
-33.4224

> <Gold.PLP.part.hbond>
-3.0000

> <Gold.PLP.part.metal>
0.0000

> <Gold.PLP.part.buried>
1.1536

> <Gold.PLP.part.nonpolar>
-30.8149

> <Gold.PLP.part.repulsive>
0.0296

> <Gold.PLP.ligand.clash>
0.0000

> <Gold.PLP.ligand.torsion>
1.2185

> <Gold.PLP.Chemscore.Hbond>
4.0000

> <Gold.PLP.Chemscore.CHOScore>
0.0000

> <Gold.PLP.Chemscore.Metal>
0.0000

> <Gold.Chemscore.Hbonds>
donor molecule, donor type, donor heavy atom, donor atom, acceptor molecule, acceptor atom, score
      L1  H     1    21       P1  7948  1.00
      L1  H     4    24       P1  7948  2.00
      P1  H  7997  8008       L1    10  1.00

> <Gold.PLP.Chemscore.Internal.Correction>
0.7533

> <Gold.Rescore>
     Score         DG    S(hbond)    S(metal)    S(lipo)     H(rot)  DE(clash)    DE(int)     intcor
     13.17     -17.11       2.63        0.00      76.45       2.39       1.53       2.41       ----

> <Gold.Chemscore.Fitness>
13.1700

> <Gold.Chemscore.DG>
-17.1142

> <Gold.Chemscore.ZeroCoef>
-5.4800

> <Gold.Chemscore.Hbond>
2.6346

> <Gold.Chemscore.Metal>
0.0000

> <Gold.Chemscore.Lipo>
76.4480

> <Gold.Chemscore.Internal_Hbond>
0.0000

> <Gold.Chemscore.DEClash>
1.5302

> <Gold.Chemscore.DEInternal>
2.4139

> <Gold.Chemscore.Rot>
2.3866

> <Gold.Chemscore.Internal.Correction>
   9.000000E+99

> <Gold.Chemscore.Hbonds>
donor molecule, donor type, donor heavy atom, donor atom, acceptor molecule, acceptor atom, score
      L1  H     1    21       P1  7948  0.99
      L1  H     4    24       P1  7948  1.00
      P1  H  7997  8008       L1    10  0.36

> <Gold.Chemscore.Hbond.Weighted>
-8.7994

> <Gold.Chemscore.Metal.Weighted>
-0.0000

> <Gold.Chemscore.Lipo.Weighted>
-8.9444

> <Gold.Chemscore.Internal_Hbond.Weighted>
0.0000

> <Gold.Chemscore.DEClash.Weighted>
1.5302

> <Gold.Chemscore.DEInternal.Weighted>
2.4139

> <Gold.Chemscore.Rot.Weighted>
6.1096

> <Gold.Chemscore.Internal.Correction.Weighted>
   9.000000E+99

> <Gold.Protein.RotatedTorsions>
[ 6907 6896 6895 6894 ] final   28.02 input  -60.11 | X-H torsion
[ 7974 7965 7964 7962 ] final   25.40 input  175.53 | X-H torsion
[ 8008 7997 7996 7995 ] final  -52.49 input   59.86 | X-H torsion
[ 10167 10162 10161 10158 ] final  144.80 input  -65.29 | X-H torsion
[ 10718 10713 10712 10709 ] final   61.03 input   66.30 | X-H torsion
[ 10763 10752 10751 10750 ] final  105.98 input  -60.55 | X-H torsion
[ 11005 11000 10999 10996 ] final   92.26 input  -57.11 | X-H torsion

> <Gold.Protein.ActiveResidues>
 VAL166  LYS551  ARG553  GLY616  TRP617  ASP618  TYR619  PRO620  LYS621  CYS622 
 ASP623  PHE694  ASN695  SER759  ASP760  ASP761  ALA762  ILE779  LEU786  VAL792 
 PHE793  MET794  SER795  GLU796  ALA797  LYS798  CYS799  TRP800  GLU811  SER814 

> <Gold.Protein.RotatedAtoms>
  152.0108  134.9877  160.0567 H   0  0  0  0  0  0  0  0  0  0  0  0  # atno 6907 bound_to 6896
  152.1430  133.4471  159.4784 H   0  0  0  0  0  0  0  0  0  0  0  0  # atno 6908 bound_to 6896
  150.6867  134.2200  159.4436 H   0  0  0  0  0  0  0  0  0  0  0  0  # atno 6909 bound_to 6896
  146.1890  139.7471  142.8845 H   0  0  0  0  0  0  0  0  0  0  0  0  # atno 7974 bound_to 7965
  154.4108  140.1222  156.5000 H   0  0  0  0  0  0  0  0  0  0  0  0  # atno 8008 bound_to 7997
  155.6904  140.3495  155.4872 H   0  0  0  0  0  0  0  0  0  0  0  0  # atno 8009 bound_to 7997
  155.9473  140.1098  157.0996 H   0  0  0  0  0  0  0  0  0  0  0  0  # atno 8010 bound_to 7997
  139.4939  144.5947  151.6608 H   0  0  0  0  0  0  0  0  0  0  0  0  # atno 10167 bound_to 10162
  157.5797  130.8972  149.9410 H   0  0  0  0  0  0  0  0  0  0  0  0  # atno 10718 bound_to 10713
  153.3867  135.3892  155.1895 H   0  0  0  0  0  0  0  0  0  0  0  0  # atno 10763 bound_to 10752
  154.8714  135.3738  154.4788 H   0  0  0  0  0  0  0  0  0  0  0  0  # atno 10764 bound_to 10752
  153.5271  135.7086  153.5763 H   0  0  0  0  0  0  0  0  0  0  0  0  # atno 10765 bound_to 10752
  139.8826  134.8722  156.3546 H   0  0  0  0  0  0  0  0  0  0  0  0  # atno 11005 bound_to 11000
  145.3850  141.0364  143.3156 LP  0  0  0  0  0  0  0  0  0  0  0  0  # atno 17320 bound_to 7965
  144.8451  139.5410  143.6882 LP  0  0  0  0  0  0  0  0  0  0  0  0  # atno 17321 bound_to 7965
  140.5582  144.0313  150.6157 LP  0  0  0  0  0  0  0  0  0  0  0  0  # atno 17342 bound_to 10162
  140.3390  143.3031  152.0608 LP  0  0  0  0  0  0  0  0  0  0  0  0  # atno 17343 bound_to 10162
  156.0843  130.3670  150.0519 LP  0  0  0  0  0  0  0  0  0  0  0  0  # atno 17370 bound_to 10713
  156.8660  130.9508  151.3614 LP  0  0  0  0  0  0  0  0  0  0  0  0  # atno 17371 bound_to 10713
  140.9571  133.7413  156.0350 LP  0  0  0  0  0  0  0  0  0  0  0  0  # atno 17394 bound_to 11000
  140.8035  134.3481  157.5432 LP  0  0  0  0  0  0  0  0  0  0  0  0  # atno 17395 bound_to 11000

$$$$
