AV-unprocessed.smi:763|AV-procd|sdf|3640|dock5
  -GOLD-   22720 1 43D 1   1.00000     0.00000
 Structure written by MMmdl.
 43 44  0  0  0  0  0  0  0  0  2 V2000
  156.6246  138.6288  159.3172 C   0  0  0  0  0  0  0  0  0  0  0  0
  155.6347  139.6454  159.3187 O   0  0  0  0  0  0  0  0  0  0  0  0
  154.8041  139.6417  160.4719 C   0  0  0  0  0  0  0  0  0  0  0  0
  153.9511  140.9146  160.5725 C   0  0  0  0  0  0  0  0  0  0  0  0
  152.9215  140.8423  159.5916 O   0  0  0  0  0  0  0  0  0  0  0  0
  152.5093  142.0047  158.9655 C   0  0  0  0  0  0  0  0  0  0  0  0
  153.1489  143.1592  159.2835 N   0  0  0  0  0  0  0  0  0  0  0  0
  152.7594  144.2982  158.6796 C   0  0  0  0  0  0  0  0  0  0  0  0
  151.7225  144.3465  157.7338 C   0  0  0  0  0  0  0  0  0  0  0  0
  151.0634  143.1478  157.4071 C   0  0  0  0  0  0  0  0  0  0  0  0
  151.4484  141.9332  158.0268 C   0  0  0  0  0  0  0  0  0  0  0  0
  150.8601  140.7545  157.7591 N   0  5  0  0  0  0  0  0  0  0  0  0
  150.5119  140.1631  156.2936 S   0  0  0  0  0  0  0  0  0  0  0  0
  151.6496  140.3070  155.3723 O   0  0  0  0  0  0  0  0  0  0  0  0
  149.9097  138.8249  156.3846 O   0  0  0  0  0  0  0  0  0  0  0  0
  149.1863  141.3644  155.7388 C   0  0  2  0  0  0  0  0  0  0  0  0
  147.9918  141.4124  156.7235 C   0  0  0  0  0  0  0  0  0  0  0  0
  147.0335  140.2060  156.6210 C   0  0  0  0  0  0  0  0  0  0  0  0
  146.6066  139.9195  155.1714 C   0  0  0  0  0  0  0  0  0  0  0  0
  147.8133  139.8236  154.2230 C   0  0  0  0  0  0  0  0  0  0  0  0
  148.6544  141.1076  154.3063 C   0  0  2  0  0  0  0  0  0  0  0  0
  149.6786  141.1004  153.3339 O   0  0  0  0  0  0  0  0  0  0  0  0
  157.2515  138.7349  158.4320 H   0  0  0  0  0  0  0  0  0  0  0  0
  156.1827  137.6328  159.2906 H   0  0  0  0  0  0  0  0  0  0  0  0
  157.2699  138.7035  160.1936 H   0  0  0  0  0  0  0  0  0  0  0  0
  154.1818  138.7461  160.5053 H   0  0  0  0  0  0  0  0  0  0  0  0
  155.4625  139.5921  161.3395 H   0  0  0  0  0  0  0  0  0  0  0  0
  153.5145  140.9831  161.5700 H   0  0  0  0  0  0  0  0  0  0  0  0
  154.5654  141.8004  160.4066 H   0  0  0  0  0  0  0  0  0  0  0  0
  153.2899  145.1966  158.9583 H   0  0  0  0  0  0  0  0  0  0  0  0
  151.4380  145.2789  157.2694 H   0  0  0  0  0  0  0  0  0  0  0  0
  150.2650  143.1784  156.6808 H   0  0  0  0  0  0  0  0  0  0  0  0
  149.6684  142.3428  155.7389 H   0  0  0  0  0  0  0  0  0  0  0  0
  148.3498  141.5145  157.7481 H   0  0  0  0  0  0  0  0  0  0  0  0
  147.4198  142.3184  156.5201 H   0  0  0  0  0  0  0  0  0  0  0  0
  147.4854  139.3149  157.0512 H   0  0  0  0  0  0  0  0  0  0  0  0
  146.1480  140.3971  157.2279 H   0  0  0  0  0  0  0  0  0  0  0  0
  146.0256  138.9977  155.1306 H   0  0  0  0  0  0  0  0  0  0  0  0
  145.9442  140.7153  154.8288 H   0  0  0  0  0  0  0  0  0  0  0  0
  148.4184  138.9504  154.4678 H   0  0  0  0  0  0  0  0  0  0  0  0
  147.4582  139.6755  153.2024 H   0  0  0  0  0  0  0  0  0  0  0  0
  148.0080  141.9437  154.0359 H   0  0  0  0  0  0  0  0  0  0  0  0
  149.4803  140.4290  152.6972 H   0  0  0  0  0  0  0  0  0  0  0  0
  1  2  1  0  0  0  0
  1 23  1  0  0  0  0
  1 24  1  0  0  0  0
  1 25  1  0  0  0  0
  2  3  1  0  0  0  0
  3  4  1  0  0  0  0
  3 26  1  0  0  0  0
  3 27  1  0  0  0  0
  4  5  1  0  0  0  0
  4 28  1  0  0  0  0
  4 29  1  0  0  0  0
  5  6  1  0  0  0  0
  6 11  1  0  0  0  0
  6  7  2  0  0  0  0
  7  8  1  0  0  0  0
  8  9  2  0  0  0  0
  8 30  1  0  0  0  0
  9 10  1  0  0  0  0
  9 31  1  0  0  0  0
 10 11  2  0  0  0  0
 10 32  1  0  0  0  0
 11 12  1  0  0  0  0
 12 13  1  0  0  0  0
 13 14  2  0  0  0  0
 13 15  2  0  0  0  0
 13 16  1  0  0  0  0
 16 21  1  0  0  0  0
 16 17  1  0  0  0  0
 16 33  1  0  0  0  0
 17 18  1  0  0  0  0
 17 34  1  0  0  0  0
 17 35  1  0  0  0  0
 18 19  1  0  0  0  0
 18 36  1  0  0  0  0
 18 37  1  0  0  0  0
 19 20  1  0  0  0  0
 19 38  1  0  0  0  0
 19 39  1  0  0  0  0
 20 21  1  0  0  0  0
 20 40  1  0  0  0  0
 20 41  1  0  0  0  0
 21 22  1  0  0  0  0
 21 42  1  0  0  0  0
 22 43  1  0  0  0  0
M  CHG  1  12  -1
M  END
> <s_m_source_file>
AV-unprocessed.smi

> <i_m_source_file_index>
763

> <i_lp_mmshare_version>
43012

> <i_f3d_flags>
0

> <s_epik_input>
W0NIM11PW0NIMl1bQ0gyXU9jMW5bY0hdW2NIXVtjSF1jMVtOSF1TKD1PKSg9TylbQ0BASF0yW0NIMl1bQ0gyXVtDSDJdW0NIMl1bQ0BIXTJbT0hd

> <s_epik_cmdline>
J2VwaWtfcHl0aG9uJywgJy1waCcsICc3LjAnLCAnLXRuJywgJzgnLCAnLW1hJywgJzIwMCcsICctbWV0YWxfYmluZGluZycsICctaW1hZScsICc8aW5maWxlLm1hZT4nLCAnLW9tYWUnLCAnPG91dGZpbGUubWFlPic=

> <r_epik_Ionization_Penalty>
0.985866

> <r_epik_Ionization_Penalty_Charging>
0.984689

> <r_epik_Ionization_Penalty_Neutral>
0.00117669

> <r_epik_State_Penalty>
1.03185

> <r_epik_Charging_Adjusted_Penalty>
2.01654

> <i_epik_Tot_Q>
-1

> <i_epik_Tot_abs_Q>
1

> <r_epik_Metal_State_Penalty>
0.379327

> <b_epik_Metal_Only>
0

> <s_lp_Force_Field>
OPLS_2005

> <r_lp_Energy>
11.7701

> <b_lp_Chiralities_Consistent>
1

> <s_lp_Variant>
AV-unprocessed.smi:763-7

> <Gold.Version>
5.8.1

> <Gold.Id.Protein>
6NUR|6NUR_protein|mol2

> <Gold.PLP.Fitness>
47.3031

> <Gold.PLP.PLP>
-37.5971

> <Gold.PLP.part.hbond>
-4.8299

> <Gold.PLP.part.metal>
0.0000

> <Gold.PLP.part.buried>
-5.6739

> <Gold.PLP.part.nonpolar>
-27.8057

> <Gold.PLP.part.repulsive>
0.0236

> <Gold.PLP.ligand.clash>
0.0000

> <Gold.PLP.ligand.torsion>
1.2665

> <Gold.PLP.Chemscore.Hbond>
3.6640

> <Gold.PLP.Chemscore.CHOScore>
0.0000

> <Gold.PLP.Chemscore.Metal>
0.0000

> <Gold.Chemscore.Hbonds>
donor molecule, donor type, donor heavy atom, donor atom, acceptor molecule, acceptor atom, score
      L1  H    22    43       P1  7957  0.86
      P1  H  7989  7998       L1    14  0.86
      P1  H  7997  8010       L1     2  0.99
      P1  H  8011  8017       L1    22  1.00

> <Gold.PLP.Chemscore.Internal.Correction>
1.2470

> <Gold.Rescore>
     Score         DG    S(hbond)    S(metal)    S(lipo)     H(rot)  DE(clash)    DE(int)     intcor
     18.79     -20.24       3.27        0.00      84.23       2.35       0.18       1.27       ----

> <Gold.Chemscore.Fitness>
18.7943

> <Gold.Chemscore.DG>
-20.2449

> <Gold.Chemscore.ZeroCoef>
-5.4800

> <Gold.Chemscore.Hbond>
3.2718

> <Gold.Chemscore.Metal>
0.0000

> <Gold.Chemscore.Lipo>
84.2335

> <Gold.Chemscore.Internal_Hbond>
0.0000

> <Gold.Chemscore.DEClash>
0.1812

> <Gold.Chemscore.DEInternal>
1.2694

> <Gold.Chemscore.Rot>
2.3509

> <Gold.Chemscore.Internal.Correction>
   9.000000E+99

> <Gold.Chemscore.Hbonds>
donor molecule, donor type, donor heavy atom, donor atom, acceptor molecule, acceptor atom, score
      L1  H    22    43       P1  7957  0.83
      P1  H  7989  7998       L1    14  0.84
      P1  H  7997  8010       L1     2  0.50
      P1  H  8011  8017       L1    22  0.24

> <Gold.Chemscore.Hbond.Weighted>
-10.9279

> <Gold.Chemscore.Metal.Weighted>
-0.0000

> <Gold.Chemscore.Lipo.Weighted>
-9.8553

> <Gold.Chemscore.Internal_Hbond.Weighted>
0.0000

> <Gold.Chemscore.DEClash.Weighted>
0.1812

> <Gold.Chemscore.DEInternal.Weighted>
1.2694

> <Gold.Chemscore.Rot.Weighted>
6.0182

> <Gold.Chemscore.Internal.Correction.Weighted>
   9.000000E+99

> <Gold.Protein.RotatedTorsions>
[ 6907 6896 6895 6894 ] final    0.76 input  -60.11 | X-H torsion
[ 7974 7965 7964 7962 ] final  150.63 input  175.53 | X-H torsion
[ 8008 7997 7996 7995 ] final   -5.69 input   59.86 | X-H torsion
[ 10167 10162 10161 10158 ] final  120.08 input  -65.29 | X-H torsion
[ 10718 10713 10712 10709 ] final  -43.88 input   66.30 | X-H torsion
[ 10763 10752 10751 10750 ] final  -65.15 input  -60.55 | X-H torsion
[ 11005 11000 10999 10996 ] final -161.26 input  -57.11 | X-H torsion

> <Gold.Protein.ActiveResidues>
 VAL166  LYS551  ARG553  GLY616  TRP617  ASP618  TYR619  PRO620  LYS621  CYS622 
 ASP623  PHE694  ASN695  SER759  ASP760  ASP761  ALA762  ILE779  LEU786  VAL792 
 PHE793  MET794  SER795  GLU796  ALA797  LYS798  CYS799  TRP800  GLU811  SER814 

> <Gold.Protein.RotatedAtoms>
  151.5817  135.1058  160.0018 H   0  0  0  0  0  0  0  0  0  0  0  0  # atno 6907 bound_to 6896
  152.4351  133.7341  159.6615 H   0  0  0  0  0  0  0  0  0  0  0  0  # atno 6908 bound_to 6896
  150.8247  133.8122  159.3146 H   0  0  0  0  0  0  0  0  0  0  0  0  # atno 6909 bound_to 6896
  144.8350  139.6433  143.6042 H   0  0  0  0  0  0  0  0  0  0  0  0  # atno 7974 bound_to 7965
  154.6013  140.2452  155.7789 H   0  0  0  0  0  0  0  0  0  0  0  0  # atno 8008 bound_to 7997
  156.2313  140.2966  156.0147 H   0  0  0  0  0  0  0  0  0  0  0  0  # atno 8009 bound_to 7997
  155.2206  140.0400  157.2938 H   0  0  0  0  0  0  0  0  0  0  0  0  # atno 8010 bound_to 7997
  139.6005  144.7055  151.3074 H   0  0  0  0  0  0  0  0  0  0  0  0  # atno 10167 bound_to 10162
  156.2444  130.4182  149.8722 H   0  0  0  0  0  0  0  0  0  0  0  0  # atno 10718 bound_to 10713
  154.3407  135.6157  153.5595 H   0  0  0  0  0  0  0  0  0  0  0  0  # atno 10763 bound_to 10752
  152.9804  135.5769  154.4856 H   0  0  0  0  0  0  0  0  0  0  0  0  # atno 10764 bound_to 10752
  154.4559  135.2854  155.1725 H   0  0  0  0  0  0  0  0  0  0  0  0  # atno 10765 bound_to 10752
  140.6224  134.4737  157.5224 H   0  0  0  0  0  0  0  0  0  0  0  0  # atno 11005 bound_to 11000
  146.2650  139.6498  142.9336 LP  0  0  0  0  0  0  0  0  0  0  0  0  # atno 17320 bound_to 7965
  145.4814  141.0438  143.2644 LP  0  0  0  0  0  0  0  0  0  0  0  0  # atno 17321 bound_to 7965
  140.7246  143.7041  150.7822 LP  0  0  0  0  0  0  0  0  0  0  0  0  # atno 17342 bound_to 10162
  140.0616  143.5149  152.2625 LP  0  0  0  0  0  0  0  0  0  0  0  0  # atno 17343 bound_to 10162
  156.6293  130.8659  151.3492 LP  0  0  0  0  0  0  0  0  0  0  0  0  # atno 17370 bound_to 10713
  157.7189  130.9532  150.1360 LP  0  0  0  0  0  0  0  0  0  0  0  0  # atno 17371 bound_to 10713
  139.9148  134.8269  156.1403 LP  0  0  0  0  0  0  0  0  0  0  0  0  # atno 17394 bound_to 11000
  141.0733  133.6787  156.2185 LP  0  0  0  0  0  0  0  0  0  0  0  0  # atno 17395 bound_to 11000

$$$$
