AV-unprocessed.smi:2099|AV-procd|sdf|8570|dock2
  -GOLD-   2272011303D 1   1.00000     0.00000
 Structure written by MMmdl.
 32 33  0  0  0  0  0  0  0  0  1 V2000
  145.9573  132.4773  150.6585 C   0  0  0  0  0  0  0  0  0  0  0  0
  145.2044  133.5179  151.4991 C   0  0  2  0  0  0  0  0  0  0  0  0
  145.1339  134.8799  150.7821 C   0  0  0  0  0  0  0  0  0  0  0  0
  144.3782  135.9241  151.6231 C   0  0  0  0  0  0  0  0  0  0  0  0
  144.9800  136.0841  153.0354 C   0  0  2  0  0  0  0  0  0  0  0  0
  146.2890  136.7340  152.9893 N   0  0  0  0  0  0  0  0  0  0  0  0
  146.6298  137.8440  153.6601 C   0  0  0  0  0  0  0  0  0  0  0  0
  145.8584  138.4531  154.4018 O   0  0  0  0  0  0  0  0  0  0  0  0
  147.9054  138.1890  153.4119 N   0  0  0  0  0  0  0  0  0  0  0  0
  148.6361  139.2915  153.9290 C   0  0  0  0  0  0  0  0  0  0  0  0
  149.9415  139.2412  154.2378 N   0  0  0  0  0  0  0  0  0  0  0  0
  150.4082  140.4566  154.7219 N   0  0  0  0  0  0  0  0  0  0  0  0
  149.4377  141.3739  154.7601 C   0  0  0  0  0  0  0  0  0  0  0  0
  147.8584  140.8430  154.2083 S   0  0  0  0  0  0  0  0  0  0  0  0
  145.0862  134.7195  153.7433 C   0  0  0  0  0  0  0  0  0  0  0  0
  145.8363  133.6771  152.8949 C   0  0  0  0  0  0  0  0  0  0  0  0
  146.9910  132.7785  150.4865 H   0  0  0  0  0  0  0  0  0  0  0  0
  145.4834  132.3407  149.6860 H   0  0  0  0  0  0  0  0  0  0  0  0
  145.9714  131.5073  151.1564 H   0  0  0  0  0  0  0  0  0  0  0  0
  144.1836  133.1557  151.6315 H   0  0  0  0  0  0  0  0  0  0  0  0
  146.1416  135.2398  150.5702 H   0  0  0  0  0  0  0  0  0  0  0  0
  144.6404  134.7671  149.8162 H   0  0  0  0  0  0  0  0  0  0  0  0
  144.3626  136.8823  151.1024 H   0  0  0  0  0  0  0  0  0  0  0  0
  143.3358  135.6170  151.7149 H   0  0  0  0  0  0  0  0  0  0  0  0
  144.3126  136.7130  153.6274 H   0  0  0  0  0  0  0  0  0  0  0  0
  146.9861  136.3020  152.4008 H   0  0  0  0  0  0  0  0  0  0  0  0
  148.4159  137.5900  152.7803 H   0  0  0  0  0  0  0  0  0  0  0  0
  149.6539  142.3705  155.1155 H   0  0  0  0  0  0  0  0  0  0  0  0
  145.5732  134.8334  154.7125 H   0  0  0  0  0  0  0  0  0  0  0  0
  144.0821  134.3483  153.9525 H   0  0  0  0  0  0  0  0  0  0  0  0
  145.8350  132.7183  153.4146 H   0  0  0  0  0  0  0  0  0  0  0  0
  146.8827  133.9685  152.7952 H   0  0  0  0  0  0  0  0  0  0  0  0
  1  2  1  0  0  0  0
  1 17  1  0  0  0  0
  1 18  1  0  0  0  0
  1 19  1  0  0  0  0
  2 16  1  0  0  0  0
  2  3  1  0  0  0  0
  2 20  1  0  0  0  0
  3  4  1  0  0  0  0
  3 21  1  0  0  0  0
  3 22  1  0  0  0  0
  4  5  1  0  0  0  0
  4 23  1  0  0  0  0
  4 24  1  0  0  0  0
  5  6  1  0  0  0  0
  5 15  1  0  0  0  0
  5 25  1  0  0  0  0
  6  7  1  0  0  0  0
  6 26  1  0  0  0  0
  7  8  2  0  0  0  0
  7  9  1  0  0  0  0
  9 10  1  0  0  0  0
  9 27  1  0  0  0  0
 10 14  1  0  0  0  0
 10 11  2  0  0  0  0
 11 12  1  0  0  0  0
 12 13  2  0  0  0  0
 13 14  1  0  0  0  0
 13 28  1  0  0  0  0
 15 16  1  0  0  0  0
 15 29  1  0  0  0  0
 15 30  1  0  0  0  0
 16 31  1  0  0  0  0
 16 32  1  0  0  0  0
M  END
> <s_m_source_file>
AV-unprocessed.smi

> <i_m_source_file_index>
2099

> <i_lp_mmshare_version>
43012

> <i_f3d_flags>
0

> <s_epik_input>
W0NIM11bQ0BASF0xW0NIMl1bQ0gyXVtDQEhdKFtDSDJdW0NIMl0xKVtOSF1DKD1PKVtOSF1jMm5uW2NIXXMy

> <s_epik_cmdline>
J2VwaWtfcHl0aG9uJywgJy1waCcsICc3LjAnLCAnLXRuJywgJzgnLCAnLW1hJywgJzIwMCcsICctbWV0YWxfYmluZGluZycsICctaW1hZScsICc8aW5maWxlLm1hZT4nLCAnLW9tYWUnLCAnPG91dGZpbGUubWFlPic=

> <r_lp_tautomer_probability>
1

> <r_epik_Ionization_Penalty>
0.000322846

> <r_epik_Ionization_Penalty_Charging>
0

> <r_epik_Ionization_Penalty_Neutral>
0.000322846

> <r_epik_State_Penalty>
-0

> <r_epik_Charging_Adjusted_Penalty>
0

> <i_epik_Tot_Q>
0

> <i_epik_Tot_abs_Q>
0

> <r_epik_Metal_State_Penalty>
0.17121

> <b_epik_Metal_Only>
0

> <s_lp_Force_Field>
OPLS_2005

> <r_lp_Energy>
7.13427

> <b_lp_Chiralities_Consistent>
1

> <s_lp_Variant>
AV-unprocessed.smi:2099-2

> <Gold.Version>
5.8.1

> <Gold.Id.Protein>
6NUR|6NUR_protein|mol2

> <Gold.PLP.Fitness>
34.2722

> <Gold.PLP.PLP>
-22.9927

> <Gold.PLP.part.hbond>
-3.0000

> <Gold.PLP.part.metal>
0.0000

> <Gold.PLP.part.buried>
-2.8692

> <Gold.PLP.part.nonpolar>
-17.4658

> <Gold.PLP.part.repulsive>
0.4113

> <Gold.PLP.ligand.clash>
0.0000

> <Gold.PLP.ligand.torsion>
0.3035

> <Gold.PLP.Chemscore.Hbond>
2.9600

> <Gold.PLP.Chemscore.CHOScore>
1.0000

> <Gold.PLP.Chemscore.Metal>
0.0000

> <Gold.Chemscore.Hbonds>
donor molecule, donor type, donor heavy atom, donor atom, acceptor molecule, acceptor atom, score
      L1  H     6    26       P1  7948  0.94
      L1  H     9    27       P1  7948  1.00
      P1  H  7989  7998       L1    12  1.00
      L1  C    13    28       P1  8028  1.00

> <Gold.PLP.Chemscore.Internal.Correction>
0.0066

> <Gold.Rescore>
     Score         DG    S(hbond)    S(metal)    S(lipo)     H(rot)  DE(clash)    DE(int)     intcor
     15.32     -15.71       2.14        0.00      48.26       1.00       0.11       0.27       ----

> <Gold.Chemscore.Fitness>
15.3238

> <Gold.Chemscore.DG>
-15.7055

> <Gold.Chemscore.ZeroCoef>
-5.4800

> <Gold.Chemscore.Hbond>
2.1374

> <Gold.Chemscore.Metal>
0.0000

> <Gold.Chemscore.Lipo>
48.2620

> <Gold.Chemscore.Internal_Hbond>
0.0000

> <Gold.Chemscore.DEClash>
0.1119

> <Gold.Chemscore.DEInternal>
0.2698

> <Gold.Chemscore.Rot>
1.0000

> <Gold.Chemscore.Internal.Correction>
   9.000000E+99

> <Gold.Chemscore.Hbonds>
donor molecule, donor type, donor heavy atom, donor atom, acceptor molecule, acceptor atom, score
      L1  H     6    26       P1  7948  0.86
      L1  H     9    27       P1  7948  1.00
      P1  H  7989  7998       L1    12  0.25

> <Gold.Chemscore.Hbond.Weighted>
-7.1388

> <Gold.Chemscore.Metal.Weighted>
-0.0000

> <Gold.Chemscore.Lipo.Weighted>
-5.6467

> <Gold.Chemscore.Internal_Hbond.Weighted>
0.0000

> <Gold.Chemscore.DEClash.Weighted>
0.1119

> <Gold.Chemscore.DEInternal.Weighted>
0.2698

> <Gold.Chemscore.Rot.Weighted>
2.5600

> <Gold.Chemscore.Internal.Correction.Weighted>
   9.000000E+99

> <Gold.Protein.RotatedTorsions>
[ 6907 6896 6895 6894 ] final  176.97 input  -60.11 | X-H torsion
[ 7974 7965 7964 7962 ] final   40.00 input  175.53 | X-H torsion
[ 8008 7997 7996 7995 ] final  143.74 input   59.86 | X-H torsion
[ 10167 10162 10161 10158 ] final    0.85 input  -65.29 | X-H torsion
[ 10718 10713 10712 10709 ] final   28.16 input   66.30 | X-H torsion
[ 10763 10752 10751 10750 ] final  112.38 input  -60.55 | X-H torsion
[ 11005 11000 10999 10996 ] final -174.33 input  -57.11 | X-H torsion

> <Gold.Protein.ActiveResidues>
 VAL166  LYS551  ARG553  GLY616  TRP617  ASP618  TYR619  PRO620  LYS621  CYS622 
 ASP623  PHE694  ASN695  SER759  ASP760  ASP761  ALA762  ILE779  LEU786  VAL792 
 PHE793  MET794  SER795  GLU796  ALA797  LYS798  CYS799  TRP800  GLU811  SER814 

> <Gold.Protein.RotatedAtoms>
  151.7115  133.3312  159.3291 H   0  0  0  0  0  0  0  0  0  0  0  0  # atno 6907 bound_to 6896
  150.7692  134.6528  159.6306 H   0  0  0  0  0  0  0  0  0  0  0  0  # atno 6908 bound_to 6896
  152.3708  134.6739  160.0228 H   0  0  0  0  0  0  0  0  0  0  0  0  # atno 6909 bound_to 6896
  146.0940  139.5585  142.9457 H   0  0  0  0  0  0  0  0  0  0  0  0  # atno 7974 bound_to 7965
  156.2924  140.2254  156.4939 H   0  0  0  0  0  0  0  0  0  0  0  0  # atno 8008 bound_to 7997
  154.7747  140.0464  157.1101 H   0  0  0  0  0  0  0  0  0  0  0  0  # atno 8009 bound_to 7997
  154.9831  140.3081  155.4941 H   0  0  0  0  0  0  0  0  0  0  0  0  # atno 8010 bound_to 7997
  140.6710  143.7050  150.7922 H   0  0  0  0  0  0  0  0  0  0  0  0  # atno 10167 bound_to 10162
  157.2297  130.7018  149.6308 H   0  0  0  0  0  0  0  0  0  0  0  0  # atno 10718 bound_to 10713
  153.4770  135.3688  155.2421 H   0  0  0  0  0  0  0  0  0  0  0  0  # atno 10763 bound_to 10752
  154.8756  135.3945  154.3745 H   0  0  0  0  0  0  0  0  0  0  0  0  # atno 10764 bound_to 10752
  153.4343  135.7083  153.6275 H   0  0  0  0  0  0  0  0  0  0  0  0  # atno 10765 bound_to 10752
  140.4757  134.6123  157.4900 H   0  0  0  0  0  0  0  0  0  0  0  0  # atno 11005 bound_to 11000
  145.5984  141.0359  143.2032 LP  0  0  0  0  0  0  0  0  0  0  0  0  # atno 17320 bound_to 7965
  144.7381  139.7526  143.7321 LP  0  0  0  0  0  0  0  0  0  0  0  0  # atno 17321 bound_to 7965
  140.0735  143.5038  152.2567 LP  0  0  0  0  0  0  0  0  0  0  0  0  # atno 17342 bound_to 10162
  139.5978  144.7573  151.3244 LP  0  0  0  0  0  0  0  0  0  0  0  0  # atno 17343 bound_to 10162
  155.9676  130.4493  150.5652 LP  0  0  0  0  0  0  0  0  0  0  0  0  # atno 17370 bound_to 10713
  157.3490  131.0730  151.1728 LP  0  0  0  0  0  0  0  0  0  0  0  0  # atno 17371 bound_to 10713
  139.9857  134.7065  155.9778 LP  0  0  0  0  0  0  0  0  0  0  0  0  # atno 17394 bound_to 11000
  141.1555  133.6543  156.4149 LP  0  0  0  0  0  0  0  0  0  0  0  0  # atno 17395 bound_to 11000

$$$$
