AV-unprocessed.smi:833|AV-procd|sdf|3882|dock8
  -GOLD-   22720 1333D 1   1.00000     0.00000
 Structure written by MMmdl.
 40 41  0  0  0  0  0  0  0  0  2 V2000
  154.7501  137.3511  163.5133 C   0  0  0  0  0  0  0  0  0  0  0  0
  153.9965  137.8761  162.2839 C   0  0  2  0  0  0  0  0  0  0  0  0
  154.1041  136.8829  161.2850 O   0  0  0  0  0  0  0  0  0  0  0  0
  154.5979  139.1943  161.7548 C   0  0  0  0  0  0  0  0  0  0  0  0
  153.7278  139.8392  160.7769 N   0  0  0  0  0  0  0  0  0  0  0  0
  153.4315  141.1457  160.7519 C   0  0  0  0  0  0  0  0  0  0  0  0
  153.8689  141.9603  161.5642 O   0  0  0  0  0  0  0  0  0  0  0  0
  152.6227  141.4433  159.7214 N   0  0  0  0  0  0  0  0  0  0  0  0
  152.1577  142.7289  159.3253 C   0  0  0  0  0  0  0  0  0  0  0  0
  152.4231  143.8764  160.1162 C   0  0  0  0  0  0  0  0  0  0  0  0
  151.8952  145.1262  159.7418 C   0  0  0  0  0  0  0  0  0  0  0  0
  151.0941  145.2081  158.5902 C   0  0  0  0  0  0  0  0  0  0  0  0
  150.8490  144.0965  157.8662 N   0  3  0  0  0  0  0  0  0  0  0  0
  151.3406  142.8681  158.1655 C   0  0  0  0  0  0  0  0  0  0  0  0
  151.0067  141.7976  157.3041 N   0  0  0  0  0  0  0  0  0  0  0  0
  150.1855  140.6916  157.7837 C   0  0  0  0  0  0  0  0  0  0  0  0
  149.7396  139.9520  156.5253 C   0  0  0  0  0  0  0  0  0  0  0  0
  149.5768  141.0866  155.5184 C   0  0  0  0  0  0  0  0  0  0  0  0
  150.6751  142.0800  155.9111 C   0  0  0  0  0  0  0  0  0  0  0  0
  154.6895  138.0575  164.3414 H   0  0  0  0  0  0  0  0  0  0  0  0
  155.8055  137.1864  163.2933 H   0  0  0  0  0  0  0  0  0  0  0  0
  154.3299  136.4057  163.8588 H   0  0  0  0  0  0  0  0  0  0  0  0
  152.9455  138.0107  162.5439 H   0  0  0  0  0  0  0  0  0  0  0  0
  154.3676  136.0723  161.6941 H   0  0  0  0  0  0  0  0  0  0  0  0
  154.6953  139.9033  162.5777 H   0  0  0  0  0  0  0  0  0  0  0  0
  155.6064  139.0516  161.3615 H   0  0  0  0  0  0  0  0  0  0  0  0
  153.3248  139.2431  160.0687 H   0  0  0  0  0  0  0  0  0  0  0  0
  152.4172  140.6881  159.0839 H   0  0  0  0  0  0  0  0  0  0  0  0
  153.0079  143.8127  161.0214 H   0  0  0  0  0  0  0  0  0  0  0  0
  152.0919  146.0056  160.3374 H   0  0  0  0  0  0  0  0  0  0  0  0
  150.6408  146.1205  158.2303 H   0  0  0  0  0  0  0  0  0  0  0  0
  150.7447  140.0422  158.4577 H   0  0  0  0  0  0  0  0  0  0  0  0
  149.3104  141.0685  158.3147 H   0  0  0  0  0  0  0  0  0  0  0  0
  150.5233  139.2694  156.1941 H   0  0  0  0  0  0  0  0  0  0  0  0
  148.8260  139.3752  156.6720 H   0  0  0  0  0  0  0  0  0  0  0  0
  149.6568  140.7536  154.4832 H   0  0  0  0  0  0  0  0  0  0  0  0
  148.5982  141.5514  155.6466 H   0  0  0  0  0  0  0  0  0  0  0  0
  150.3483  143.1103  155.7642 H   0  0  0  0  0  0  0  0  0  0  0  0
  151.5626  141.9141  155.3000 H   0  0  0  0  0  0  0  0  0  0  0  0
  150.2626  144.1884  157.0366 H   0  0  0  0  0  0  0  0  0  0  0  0
  1  2  1  0  0  0  0
  1 20  1  0  0  0  0
  1 21  1  0  0  0  0
  1 22  1  0  0  0  0
  2  3  1  0  0  0  0
  2  4  1  0  0  0  0
  2 23  1  0  0  0  0
  3 24  1  0  0  0  0
  4  5  1  0  0  0  0
  4 25  1  0  0  0  0
  4 26  1  0  0  0  0
  5  6  1  0  0  0  0
  5 27  1  0  0  0  0
  6  7  2  0  0  0  0
  6  8  1  0  0  0  0
  8  9  1  0  0  0  0
  8 28  1  0  0  0  0
  9 14  1  0  0  0  0
  9 10  2  0  0  0  0
 10 11  1  0  0  0  0
 10 29  1  0  0  0  0
 11 12  2  0  0  0  0
 11 30  1  0  0  0  0
 12 13  1  0  0  0  0
 12 31  1  0  0  0  0
 13 14  2  0  0  0  0
 13 40  1  0  0  0  0
 14 15  1  0  0  0  0
 15 19  1  0  0  0  0
 15 16  1  0  0  0  0
 16 17  1  0  0  0  0
 16 32  1  0  0  0  0
 16 33  1  0  0  0  0
 17 18  1  0  0  0  0
 17 34  1  0  0  0  0
 17 35  1  0  0  0  0
 18 19  1  0  0  0  0
 18 36  1  0  0  0  0
 18 37  1  0  0  0  0
 19 38  1  0  0  0  0
 19 39  1  0  0  0  0
M  CHG  1  13   1
M  END
> <s_m_source_file>
AV-unprocessed.smi

> <i_m_source_file_index>
833

> <i_lp_mmshare_version>
43012

> <i_f3d_flags>
0

> <s_epik_input>
W0NIM11bQ0BIXShbT0hdKVtDSDJdW05IXUMoPU8pW05IXWMxW2NIXVtjSF1bY0hdbmMxTjJbQ0gyXVtDSDJdW0NIMl1bQ0gyXTI=

> <s_epik_cmdline>
J2VwaWtfcHl0aG9uJywgJy1waCcsICc3LjAnLCAnLXRuJywgJzgnLCAnLW1hJywgJzIwMCcsICctbWV0YWxfYmluZGluZycsICctaW1hZScsICc8aW5maWxlLm1hZT4nLCAnLW9tYWUnLCAnPG91dGZpbGUubWFlPic=

> <r_lp_tautomer_probability>
0.999994

> <r_epik_Ionization_Penalty>
1.11387

> <r_epik_Ionization_Penalty_Charging>
1.11385

> <r_epik_Ionization_Penalty_Neutral>
1.95796e-05

> <r_epik_State_Penalty>
1.17209

> <r_epik_Charging_Adjusted_Penalty>
2.28594

> <i_epik_Tot_Q>
1

> <i_epik_Tot_abs_Q>
1

> <r_epik_Metal_State_Penalty>
1.25763

> <b_epik_Metal_Only>
0

> <s_lp_Force_Field>
OPLS_2005

> <r_lp_Energy>
38.091

> <b_lp_Chiralities_Consistent>
1

> <s_lp_Variant>
AV-unprocessed.smi:833-3

> <Gold.Version>
5.8.1

> <Gold.Id.Protein>
6NUR|6NUR_protein|mol2

> <Gold.PLP.Fitness>
40.9309

> <Gold.PLP.PLP>
-35.6717

> <Gold.PLP.part.hbond>
-1.6004

> <Gold.PLP.part.metal>
0.0000

> <Gold.PLP.part.buried>
-6.2340

> <Gold.PLP.part.nonpolar>
-28.4360

> <Gold.PLP.part.repulsive>
0.2361

> <Gold.PLP.ligand.clash>
0.0000

> <Gold.PLP.ligand.torsion>
0.5699

> <Gold.PLP.Chemscore.Hbond>
2.0000

> <Gold.PLP.Chemscore.CHOScore>
0.0000

> <Gold.PLP.Chemscore.Metal>
0.0000

> <Gold.Chemscore.Hbonds>
donor molecule, donor type, donor heavy atom, donor atom, acceptor molecule, acceptor atom, score
      L1  H    13    40       P1  8028  2.00

> <Gold.PLP.Chemscore.Internal.Correction>
0.3989

> <Gold.Rescore>
     Score         DG    S(hbond)    S(metal)    S(lipo)     H(rot)  DE(clash)    DE(int)     intcor
     12.10     -13.99       0.95        0.00      90.85       2.06       0.06       1.83       ----

> <Gold.Chemscore.Fitness>
12.0996

> <Gold.Chemscore.DG>
-13.9901

> <Gold.Chemscore.ZeroCoef>
-5.4800

> <Gold.Chemscore.Hbond>
0.9474

> <Gold.Chemscore.Metal>
0.0000

> <Gold.Chemscore.Lipo>
90.8472

> <Gold.Chemscore.Internal_Hbond>
0.0000

> <Gold.Chemscore.DEClash>
0.0573

> <Gold.Chemscore.DEInternal>
1.8332

> <Gold.Chemscore.Rot>
2.0637

> <Gold.Chemscore.Internal.Correction>
   9.000000E+99

> <Gold.Chemscore.Hbonds>
donor molecule, donor type, donor heavy atom, donor atom, acceptor molecule, acceptor atom, score
      L1  H    13    40       P1  8028  0.88

> <Gold.Chemscore.Hbond.Weighted>
-3.1642

> <Gold.Chemscore.Metal.Weighted>
-0.0000

> <Gold.Chemscore.Lipo.Weighted>
-10.6291

> <Gold.Chemscore.Internal_Hbond.Weighted>
0.0000

> <Gold.Chemscore.DEClash.Weighted>
0.0573

> <Gold.Chemscore.DEInternal.Weighted>
1.8332

> <Gold.Chemscore.Rot.Weighted>
5.2832

> <Gold.Chemscore.Internal.Correction.Weighted>
   9.000000E+99

> <Gold.Protein.RotatedTorsions>
[ 6907 6896 6895 6894 ] final  108.61 input  -60.11 | X-H torsion
[ 7974 7965 7964 7962 ] final   16.61 input  175.53 | X-H torsion
[ 8008 7997 7996 7995 ] final  -86.71 input   59.86 | X-H torsion
[ 10167 10162 10161 10158 ] final  -56.34 input  -65.29 | X-H torsion
[ 10718 10713 10712 10709 ] final   -0.49 input   66.30 | X-H torsion
[ 10763 10752 10751 10750 ] final -120.36 input  -60.55 | X-H torsion
[ 11005 11000 10999 10996 ] final -100.56 input  -57.11 | X-H torsion

> <Gold.Protein.ActiveResidues>
 VAL166  LYS551  ARG553  GLY616  TRP617  ASP618  TYR619  PRO620  LYS621  CYS622 
 ASP623  PHE694  ASN695  SER759  ASP760  ASP761  ALA762  ILE779  LEU786  VAL792 
 PHE793  MET794  SER795  GLU796  ALA797  LYS798  CYS799  TRP800  GLU811  SER814 

> <Gold.Protein.RotatedAtoms>
  152.5104  133.9063  159.7465 H   0  0  0  0  0  0  0  0  0  0  0  0  # atno 6907 bound_to 6896
  150.9467  133.6586  159.2787 H   0  0  0  0  0  0  0  0  0  0  0  0  # atno 6908 bound_to 6896
  151.3879  135.0956  159.9569 H   0  0  0  0  0  0  0  0  0  0  0  0  # atno 6909 bound_to 6896
  146.2244  139.8723  142.8585 H   0  0  0  0  0  0  0  0  0  0  0  0  # atno 7974 bound_to 7965
  154.6549  140.0575  156.9998 H   0  0  0  0  0  0  0  0  0  0  0  0  # atno 8008 bound_to 7997
  155.1315  140.3257  155.4454 H   0  0  0  0  0  0  0  0  0  0  0  0  # atno 8009 bound_to 7997
  156.2593  140.1980  156.6434 H   0  0  0  0  0  0  0  0  0  0  0  0  # atno 8010 bound_to 7997
  140.6323  143.2465  151.5209 H   0  0  0  0  0  0  0  0  0  0  0  0  # atno 10167 bound_to 10162
  156.8197  130.5452  149.5699 H   0  0  0  0  0  0  0  0  0  0  0  0  # atno 10718 bound_to 10713
  154.8642  135.4206  154.2446 H   0  0  0  0  0  0  0  0  0  0  0  0  # atno 10763 bound_to 10752
  153.3405  135.6993  153.6877 H   0  0  0  0  0  0  0  0  0  0  0  0  # atno 10764 bound_to 10752
  153.5857  135.3564  155.2865 H   0  0  0  0  0  0  0  0  0  0  0  0  # atno 10765 bound_to 10752
  141.1265  133.8409  157.1119 H   0  0  0  0  0  0  0  0  0  0  0  0  # atno 11005 bound_to 11000
  145.2596  141.0072  143.3834 LP  0  0  0  0  0  0  0  0  0  0  0  0  # atno 17320 bound_to 7965
  144.9309  139.4300  143.6495 LP  0  0  0  0  0  0  0  0  0  0  0  0  # atno 17321 bound_to 7965
  139.5536  144.2333  152.1573 LP  0  0  0  0  0  0  0  0  0  0  0  0  # atno 17342 bound_to 10162
  140.1580  144.5053  150.6649 LP  0  0  0  0  0  0  0  0  0  0  0  0  # atno 17343 bound_to 10162
  156.0996  130.5959  150.9872 LP  0  0  0  0  0  0  0  0  0  0  0  0  # atno 17370 bound_to 10713
  157.6463  131.0903  150.8146 LP  0  0  0  0  0  0  0  0  0  0  0  0  # atno 17371 bound_to 10713
  140.0270  134.9919  157.0705 LP  0  0  0  0  0  0  0  0  0  0  0  0  # atno 17394 bound_to 11000
  140.4347  134.1744  155.7170 LP  0  0  0  0  0  0  0  0  0  0  0  0  # atno 17395 bound_to 11000

$$$$
