AV-unprocessed.smi:103|AV-procd|sdf|989|dock6
  -GOLD-   2262017563D 1   1.00000     0.00000
 Structure written by MMmdl.
 53 55  0  0  0  0  0  0  0  0  1 V2000
  151.7962  131.7905  156.1664 C   0  0  0  0  0  0  0  0  0  0  0  0
  150.9074  132.3742  157.2562 C   0  0  0  0  0  0  0  0  0  0  0  0
  150.8543  131.8721  158.3791 O   0  0  0  0  0  0  0  0  0  0  0  0
  150.2255  133.4559  156.8370 O   0  0  0  0  0  0  0  0  0  0  0  0
  149.1690  133.9884  157.6234 C   0  0  0  0  0  0  0  0  0  0  0  0
  148.6787  135.3353  157.0470 C   0  0  2  0  0  0  0  0  0  0  0  0
  149.7302  136.2922  157.0898 O   0  0  0  0  0  0  0  0  0  0  0  0
  149.7773  136.8711  158.3561 C   0  0  1  0  0  0  0  0  0  0  0  0
  150.1659  138.3067  158.2018 N   0  0  0  0  0  0  0  0  0  0  0  0
  151.3622  138.9365  158.4843 C   0  0  0  0  0  0  0  0  0  0  0  0
  152.8289  138.1790  159.1768 S   0  0  0  0  0  0  0  0  0  0  0  0
  153.4907  139.5250  160.2415 C   0  0  0  0  0  0  0  0  0  0  0  0
  152.3812  137.0616  160.0218 O   0  0  0  0  0  0  0  0  0  0  0  0
  153.7608  137.9458  158.0621 O   0  0  0  0  0  0  0  0  0  0  0  0
  151.4069  140.2258  158.2835 N   0  0  0  0  0  0  0  0  0  0  0  0
  150.1491  140.5084  157.7702 C   0  0  0  0  0  0  0  0  0  0  0  0
  149.5123  141.6914  157.3177 C   0  0  0  0  0  0  0  0  0  0  0  0
  150.1129  142.8894  157.3142 N   0  0  0  0  0  0  0  0  0  0  0  0
  148.2390  141.6085  156.8662 N   0  0  0  0  0  0  0  0  0  0  0  0
  147.6187  140.4241  156.8587 C   0  0  0  0  0  0  0  0  0  0  0  0
  148.0829  139.2351  157.2524 N   0  0  0  0  0  0  0  0  0  0  0  0
  149.3679  139.3190  157.7067 C   0  0  0  0  0  0  0  0  0  0  0  0
  148.3840  136.7366  158.9877 C   0  0  2  0  0  0  0  0  0  0  0  0
  148.4970  135.9529  160.1718 O   0  0  0  0  0  0  0  0  0  0  0  0
  147.7302  136.2185  161.2431 C   0  0  0  0  0  0  0  0  0  0  0  0
  147.5418  134.9986  162.1342 C   0  0  0  0  0  0  0  0  0  0  0  0
  147.2146  137.3019  161.5180 O   0  0  0  0  0  0  0  0  0  0  0  0
  147.5973  136.0260  157.8877 C   0  0  2  0  0  0  0  0  0  0  0  0
  146.5960  135.1513  158.3981 O   0  0  0  0  0  0  0  0  0  0  0  0
  145.8079  134.4585  157.5593 C   0  0  0  0  0  0  0  0  0  0  0  0
  144.8608  133.5215  158.2966 C   0  0  0  0  0  0  0  0  0  0  0  0
  145.8151  134.5315  156.3307 O   0  0  0  0  0  0  0  0  0  0  0  0
  151.1936  131.4792  155.3133 H   0  0  0  0  0  0  0  0  0  0  0  0
  152.3406  130.9230  156.5398 H   0  0  0  0  0  0  0  0  0  0  0  0
  152.5194  132.5331  155.8287 H   0  0  0  0  0  0  0  0  0  0  0  0
  148.3560  133.2635  157.5873 H   0  0  0  0  0  0  0  0  0  0  0  0
  149.4535  134.0737  158.6728 H   0  0  0  0  0  0  0  0  0  0  0  0
  148.3352  135.1943  156.0217 H   0  0  0  0  0  0  0  0  0  0  0  0
  150.5588  136.4058  158.9514 H   0  0  0  0  0  0  0  0  0  0  0  0
  154.4175  139.1937  160.7085 H   0  0  0  0  0  0  0  0  0  0  0  0
  152.7661  139.7736  161.0148 H   0  0  0  0  0  0  0  0  0  0  0  0
  153.6867  140.4068  159.6319 H   0  0  0  0  0  0  0  0  0  0  0  0
  151.0631  142.9758  157.6452 H   0  0  0  0  0  0  0  0  0  0  0  0
  149.6178  143.7014  156.9751 H   0  0  0  0  0  0  0  0  0  0  0  0
  146.6051  140.4297  156.4854 H   0  0  0  0  0  0  0  0  0  0  0  0
  147.9701  137.7250  159.1941 H   0  0  0  0  0  0  0  0  0  0  0  0
  148.5028  134.6652  162.5258 H   0  0  0  0  0  0  0  0  0  0  0  0
  147.0949  134.1818  161.5673 H   0  0  0  0  0  0  0  0  0  0  0  0
  146.8886  135.2343  162.9747 H   0  0  0  0  0  0  0  0  0  0  0  0
  147.1292  136.7980  157.2757 H   0  0  0  0  0  0  0  0  0  0  0  0
  144.2507  134.0812  159.0056 H   0  0  0  0  0  0  0  0  0  0  0  0
  145.4255  132.7669  158.8444 H   0  0  0  0  0  0  0  0  0  0  0  0
  144.1979  133.0158  157.5941 H   0  0  0  0  0  0  0  0  0  0  0  0
  1  2  1  0  0  0  0
  1 33  1  0  0  0  0
  1 34  1  0  0  0  0
  1 35  1  0  0  0  0
  2  3  2  0  0  0  0
  2  4  1  0  0  0  0
  4  5  1  0  0  0  0
  5  6  1  0  0  0  0
  5 36  1  0  0  0  0
  5 37  1  0  0  0  0
  6 28  1  0  0  0  0
  6  7  1  0  0  0  0
  6 38  1  0  0  0  0
  7  8  1  0  0  0  0
  8  9  1  0  0  0  0
  8 23  1  0  0  0  0
  8 39  1  0  0  0  0
  9 22  1  0  0  0  0
  9 10  1  0  0  0  0
 10 11  1  0  0  0  0
 10 15  2  0  0  0  0
 11 12  1  0  0  0  0
 11 13  2  0  0  0  0
 11 14  2  0  0  0  0
 12 40  1  0  0  0  0
 12 41  1  0  0  0  0
 12 42  1  0  0  0  0
 15 16  1  0  0  0  0
 16 22  2  0  0  0  0
 16 17  1  0  0  0  0
 17 18  1  0  0  0  0
 17 19  2  0  0  0  0
 18 43  1  0  0  0  0
 18 44  1  0  0  0  0
 19 20  1  0  0  0  0
 20 21  2  0  0  0  0
 20 45  1  0  0  0  0
 21 22  1  0  0  0  0
 23 24  1  0  0  0  0
 23 28  1  0  0  0  0
 23 46  1  0  0  0  0
 24 25  1  0  0  0  0
 25 26  1  0  0  0  0
 25 27  2  0  0  0  0
 26 47  1  0  0  0  0
 26 48  1  0  0  0  0
 26 49  1  0  0  0  0
 28 29  1  0  0  0  0
 28 50  1  0  0  0  0
 29 30  1  0  0  0  0
 30 31  1  0  0  0  0
 30 32  2  0  0  0  0
 31 51  1  0  0  0  0
 31 52  1  0  0  0  0
 31 53  1  0  0  0  0
M  END
> <s_m_source_file>
AV-unprocessed.smi

> <i_m_source_file_index>
103

> <i_lp_mmshare_version>
43012

> <i_f3d_flags>
0

> <s_epik_input>
W0NIM11DKD1PKU9bQ0gyXVtDQEBIXTFPW0NASF0oW0NAQEhdKE9DKD1PKVtDSDNdKVtDQEhdMU9DKD1PKVtDSDNdKW4oYyhuMilTKD1PKSg9TylbQ0gzXSljKGMyMyluW2NIXW5jM1tOSDJd

> <s_epik_cmdline>
J2VwaWtfcHl0aG9uJywgJy1waCcsICc3LjAnLCAnLXRuJywgJzgnLCAnLW1hJywgJzIwMCcsICctbWV0YWxfYmluZGluZycsICctaW1hZScsICc8aW5maWxlLm1hZT4nLCAnLW9tYWUnLCAnPG91dGZpbGUubWFlPic=

> <r_lp_tautomer_probability>
1

> <r_epik_Ionization_Penalty>
1.51338e-05

> <r_epik_Ionization_Penalty_Charging>
0

> <r_epik_Ionization_Penalty_Neutral>
1.51338e-05

> <r_epik_State_Penalty>
-0

> <r_epik_Charging_Adjusted_Penalty>
0

> <i_epik_Tot_Q>
0

> <i_epik_Tot_abs_Q>
0

> <r_epik_Metal_State_Penalty>
-0

> <b_epik_Metal_Only>
0

> <s_epik_Chemistry_Notes>
This compound has an ester and may undergo hydrolysis at high or low pH. This compound contains an acetal/aminal-like group ( X-CH(R)-Y where X, Y are N, S, or O) that may be acid/base labile, releasing an aldehyde.

> <s_lp_Force_Field>
OPLS_2005

> <r_lp_Energy>
21.2574

> <b_lp_Chiralities_Consistent>
1

> <s_lp_Variant>
AV-unprocessed.smi:103-13

> <Gold.Version>
5.8.1

> <Gold.Id.Protein>
6NUR|6NUR_protein|mol2

> <Gold.PLP.Fitness>
38.3669

> <Gold.PLP.PLP>
-29.5299

> <Gold.PLP.part.hbond>
-5.0708

> <Gold.PLP.part.metal>
0.0000

> <Gold.PLP.part.buried>
-7.2906

> <Gold.PLP.part.nonpolar>
-16.7457

> <Gold.PLP.part.repulsive>
0.1601

> <Gold.PLP.ligand.clash>
0.0000

> <Gold.PLP.ligand.torsion>
2.5503

> <Gold.PLP.Chemscore.Hbond>
3.9041

> <Gold.PLP.Chemscore.CHOScore>
0.0000

> <Gold.PLP.Chemscore.Metal>
0.0000

> <Gold.Chemscore.Hbonds>
donor molecule, donor type, donor heavy atom, donor atom, acceptor molecule, acceptor atom, score
      L1  H    18    44       P1  8028  1.00
      P1  H  6896  6907       L1    13  1.00
      P1  H  6896  6909       L1     3  0.14
      P1  H  6931  6943       L1    27  0.54
      P1  H  6934  6947       L1    27  0.94

> <Gold.PLP.Chemscore.Internal.Correction>
2.2251

> <Gold.Rescore>
     Score         DG    S(hbond)    S(metal)    S(lipo)     H(rot)  DE(clash)    DE(int)     intcor
      8.82     -11.11       3.72        0.00      34.99       4.25       0.00       2.29       ----

> <Gold.Chemscore.Fitness>
8.8178

> <Gold.Chemscore.DG>
-11.1137

> <Gold.Chemscore.ZeroCoef>
-5.4800

> <Gold.Chemscore.Hbond>
3.7153

> <Gold.Chemscore.Metal>
0.0000

> <Gold.Chemscore.Lipo>
34.9862

> <Gold.Chemscore.Internal_Hbond>
0.0000

> <Gold.Chemscore.DEClash>
0.0048

> <Gold.Chemscore.DEInternal>
2.2911

> <Gold.Chemscore.Rot>
4.2456

> <Gold.Chemscore.Internal.Correction>
   9.000000E+99

> <Gold.Chemscore.Hbonds>
donor molecule, donor type, donor heavy atom, donor atom, acceptor molecule, acceptor atom, score
      L1  H    18    44       P1  8028  0.90
      P1  H  6896  6907       L1    13  0.93
      P1  H  6896  6909       L1     3  0.01
      P1  H  6931  6943       L1    27  0.06
      P1  H  6934  6947       L1    27  0.91

> <Gold.Chemscore.Hbond.Weighted>
-12.4090

> <Gold.Chemscore.Metal.Weighted>
-0.0000

> <Gold.Chemscore.Lipo.Weighted>
-4.0934

> <Gold.Chemscore.Internal_Hbond.Weighted>
0.0000

> <Gold.Chemscore.DEClash.Weighted>
0.0048

> <Gold.Chemscore.DEInternal.Weighted>
2.2911

> <Gold.Chemscore.Rot.Weighted>
10.8687

> <Gold.Chemscore.Internal.Correction.Weighted>
   9.000000E+99

> <Gold.Protein.RotatedTorsions>
[ 6907 6896 6895 6894 ] final    4.63 input  -60.11 | X-H torsion
[ 7974 7965 7964 7962 ] final  131.72 input  175.53 | X-H torsion
[ 8008 7997 7996 7995 ] final  -22.80 input   59.86 | X-H torsion
[ 10167 10162 10161 10158 ] final  -89.86 input  -65.29 | X-H torsion
[ 10718 10713 10712 10709 ] final  -78.36 input   66.30 | X-H torsion
[ 10763 10752 10751 10750 ] final   81.25 input  -60.55 | X-H torsion
[ 11005 11000 10999 10996 ] final  144.72 input  -57.11 | X-H torsion

> <Gold.Protein.ActiveResidues>
 VAL166  LYS551  ARG553  GLY616  TRP617  ASP618  TYR619  PRO620  LYS621  CYS622 
 ASP623  PHE694  ASN695  SER759  ASP760  ASP761  ALA762  ILE779  LEU786  VAL792 
 PHE793  MET794  SER795  GLU796  ALA797  LYS798  CYS799  TRP800  GLU811  SER814 

> <Gold.Protein.RotatedAtoms>
  151.6445  135.1009  160.0147 H   0  0  0  0  0  0  0  0  0  0  0  0  # atno 6907 bound_to 6896
  152.4036  133.6850  159.6345 H   0  0  0  0  0  0  0  0  0  0  0  0  # atno 6908 bound_to 6896
  150.7932  133.8666  159.3288 H   0  0  0  0  0  0  0  0  0  0  0  0  # atno 6909 bound_to 6896
  145.0044  139.4281  143.5276 H   0  0  0  0  0  0  0  0  0  0  0  0  # atno 7974 bound_to 7965
  154.4622  140.1998  156.0213 H   0  0  0  0  0  0  0  0  0  0  0  0  # atno 8008 bound_to 7997
  156.0862  140.3264  155.7728 H   0  0  0  0  0  0  0  0  0  0  0  0  # atno 8009 bound_to 7997
  155.5032  140.0555  157.2926 H   0  0  0  0  0  0  0  0  0  0  0  0  # atno 8010 bound_to 7997
  140.3606  143.2844  151.9619 H   0  0  0  0  0  0  0  0  0  0  0  0  # atno 10167 bound_to 10162
  156.0120  130.4516  150.3484 H   0  0  0  0  0  0  0  0  0  0  0  0  # atno 10718 bound_to 10713
  153.1101  135.4772  154.9019 H   0  0  0  0  0  0  0  0  0  0  0  0  # atno 10763 bound_to 10752
  154.7471  135.3096  154.8627 H   0  0  0  0  0  0  0  0  0  0  0  0  # atno 10764 bound_to 10752
  153.9219  135.6854  153.4801 H   0  0  0  0  0  0  0  0  0  0  0  0  # atno 10765 bound_to 10752
  140.0655  134.9181  157.1256 H   0  0  0  0  0  0  0  0  0  0  0  0  # atno 11005 bound_to 11000
  146.3458  139.9451  142.8736 LP  0  0  0  0  0  0  0  0  0  0  0  0  # atno 17320 bound_to 7965
  145.2109  140.9895  143.4101 LP  0  0  0  0  0  0  0  0  0  0  0  0  # atno 17321 bound_to 7965
  139.4814  144.5996  151.7629 LP  0  0  0  0  0  0  0  0  0  0  0  0  # atno 17342 bound_to 10162
  140.5131  144.0995  150.6000 LP  0  0  0  0  0  0  0  0  0  0  0  0  # atno 17343 bound_to 10162
  157.1577  131.0337  151.2855 LP  0  0  0  0  0  0  0  0  0  0  0  0  # atno 17370 bound_to 10713
  157.4338  130.7505  149.7012 LP  0  0  0  0  0  0  0  0  0  0  0  0  # atno 17371 bound_to 10713
  140.3706  134.2395  155.7178 LP  0  0  0  0  0  0  0  0  0  0  0  0  # atno 17394 bound_to 11000
  141.1991  133.8020  157.0553 LP  0  0  0  0  0  0  0  0  0  0  0  0  # atno 17395 bound_to 11000

$$$$
