AV-unprocessed.smi:411|AV-procd|sdf|2509|dock9
  -GOLD-   2262022463D 1   1.00000     0.00000
 Structure written by MMmdl.
 35 36  0  0  0  0  0  0  0  0  1 V2000
  152.2281  138.4145  160.1462 O   0  0  0  0  0  0  0  0  0  0  0  0
  152.9771  139.1756  159.5322 C   0  0  0  0  0  0  0  0  0  0  0  0
  154.0035  140.0448  160.2739 C   0  0  0  0  0  0  0  0  0  0  0  0
  153.4714  141.3510  160.7002 N   0  0  0  0  0  0  0  0  0  0  0  0
  153.5806  141.6662  162.0663 C   0  0  0  0  0  0  0  0  0  0  0  0
  153.1307  142.8274  162.5607 C   0  0  0  0  0  0  0  0  0  0  0  0
  152.5227  143.7664  161.6502 C   0  0  0  0  0  0  0  0  0  0  0  0
  152.3979  143.4890  160.3317 C   0  0  0  0  0  0  0  0  0  0  0  0
  151.7609  144.4735  159.3538 C   0  0  0  0  0  0  0  0  0  0  0  0
  152.5598  144.6794  158.3059 F   0  0  0  0  0  0  0  0  0  0  0  0
  150.5984  143.9994  158.9047 F   0  0  0  0  0  0  0  0  0  0  0  0
  151.5262  145.6561  159.9246 F   0  0  0  0  0  0  0  0  0  0  0  0
  152.8937  142.2037  159.7981 C   0  0  0  0  0  0  0  0  0  0  0  0
  152.7980  141.9028  158.6069 O   0  0  0  0  0  0  0  0  0  0  0  0
  152.9705  139.2904  158.1955 N   0  0  0  0  0  0  0  0  0  0  0  0
  152.0845  138.5626  157.2907 C   0  0  1  0  0  0  0  0  0  0  0  0
  150.5991  138.7190  157.7185 C   0  0  0  0  0  0  0  0  0  0  0  0
  149.7532  139.3083  156.5794 C   0  0  0  0  0  0  0  0  0  0  0  0
  150.6390  138.8793  155.0472 S   0  0  0  0  0  0  0  0  0  0  0  0
  150.3802  137.4662  154.7323 O   0  0  0  0  0  0  0  0  0  0  0  0
  150.4603  139.9339  154.0377 O   0  0  0  0  0  0  0  0  0  0  0  0
  152.2793  139.0149  155.8285 C   0  0  0  0  0  0  0  0  0  0  0  0
  154.3650  139.4812  161.1351 H   0  0  0  0  0  0  0  0  0  0  0  0
  154.8805  140.1858  159.6395 H   0  0  0  0  0  0  0  0  0  0  0  0
  154.0419  140.9069  162.6809 H   0  0  0  0  0  0  0  0  0  0  0  0
  153.2182  143.0530  163.6133 H   0  0  0  0  0  0  0  0  0  0  0  0
  152.1646  144.7051  162.0462 H   0  0  0  0  0  0  0  0  0  0  0  0
  153.6212  139.9367  157.7732 H   0  0  0  0  0  0  0  0  0  0  0  0
  152.3254  137.4994  157.3514 H   0  0  0  0  0  0  0  0  0  0  0  0
  150.2067  137.7327  157.9694 H   0  0  0  0  0  0  0  0  0  0  0  0
  150.4901  139.3226  158.6206 H   0  0  0  0  0  0  0  0  0  0  0  0
  148.7339  138.9229  156.5508 H   0  0  0  0  0  0  0  0  0  0  0  0
  149.7167  140.3957  156.6500 H   0  0  0  0  0  0  0  0  0  0  0  0
  152.5814  140.0614  155.7730 H   0  0  0  0  0  0  0  0  0  0  0  0
  153.0081  138.4126  155.2855 H   0  0  0  0  0  0  0  0  0  0  0  0
  1  2  2  0  0  0  0
  2  3  1  0  0  0  0
  2 15  1  0  0  0  0
  3  4  1  0  0  0  0
  3 23  1  0  0  0  0
  3 24  1  0  0  0  0
  4 13  1  0  0  0  0
  4  5  1  0  0  0  0
  5  6  2  0  0  0  0
  5 25  1  0  0  0  0
  6  7  1  0  0  0  0
  6 26  1  0  0  0  0
  7  8  2  0  0  0  0
  7 27  1  0  0  0  0
  8  9  1  0  0  0  0
  8 13  1  0  0  0  0
  9 10  1  0  0  0  0
  9 11  1  0  0  0  0
  9 12  1  0  0  0  0
 13 14  2  0  0  0  0
 15 16  1  0  0  0  0
 15 28  1  0  0  0  0
 16 22  1  0  0  0  0
 16 17  1  0  0  0  0
 16 29  1  0  0  0  0
 17 18  1  0  0  0  0
 17 30  1  0  0  0  0
 17 31  1  0  0  0  0
 18 19  1  0  0  0  0
 18 32  1  0  0  0  0
 18 33  1  0  0  0  0
 19 20  2  0  0  0  0
 19 21  2  0  0  0  0
 19 22  1  0  0  0  0
 22 34  1  0  0  0  0
 22 35  1  0  0  0  0
M  END
> <s_m_source_file>
AV-unprocessed.smi

> <i_m_source_file_index>
411

> <i_lp_mmshare_version>
43012

> <i_f3d_flags>
0

> <s_epik_input>
Tz1TMSg9TylbQ0gyXVtDSDJdW0NASF0oW0NIMl0xKVtOSF1DKD1PKVtDSDJdbjJbY0hdW2NIXVtjSF1jKEMoRikoRilGKWMyPU8=

> <s_epik_cmdline>
J2VwaWtfcHl0aG9uJywgJy1waCcsICc3LjAnLCAnLXRuJywgJzgnLCAnLW1hJywgJzIwMCcsICctbWV0YWxfYmluZGluZycsICctaW1hZScsICc8aW5maWxlLm1hZT4nLCAnLW9tYWUnLCAnPG91dGZpbGUubWFlPic=

> <r_lp_tautomer_probability>
1

> <r_epik_Ionization_Penalty>
1.08759e-07

> <r_epik_Ionization_Penalty_Charging>
1.56656e-09

> <r_epik_Ionization_Penalty_Neutral>
1.07193e-07

> <r_epik_State_Penalty>
-0

> <r_epik_Charging_Adjusted_Penalty>
1.56656e-09

> <i_epik_Tot_Q>
0

> <i_epik_Tot_abs_Q>
0

> <r_epik_Metal_State_Penalty>
-0

> <b_epik_Metal_Only>
0

> <s_lp_Force_Field>
OPLS_2005

> <r_lp_Energy>
15.8783

> <b_lp_Chiralities_Consistent>
1

> <s_lp_Variant>
AV-unprocessed.smi:411-2

> <Gold.Version>
5.8.1

> <Gold.Id.Protein>
6NUR|6NUR_protein|mol2

> <Gold.PLP.Fitness>
51.8187

> <Gold.PLP.PLP>
-49.8852

> <Gold.PLP.part.hbond>
-1.0000

> <Gold.PLP.part.metal>
0.0000

> <Gold.PLP.part.buried>
-4.3586

> <Gold.PLP.part.nonpolar>
-44.4857

> <Gold.PLP.part.repulsive>
1.8867

> <Gold.PLP.ligand.clash>
0.1376

> <Gold.PLP.ligand.torsion>
0.6348

> <Gold.PLP.Chemscore.Hbond>
1.0000

> <Gold.PLP.Chemscore.CHOScore>
0.0000

> <Gold.PLP.Chemscore.Metal>
0.0000

> <Gold.Chemscore.Hbonds>
donor molecule, donor type, donor heavy atom, donor atom, acceptor molecule, acceptor atom, score
      P1  H  7989  7998       L1    21  1.00

> <Gold.PLP.Chemscore.Internal.Correction>
0.3407

> <Gold.Rescore>
     Score         DG    S(hbond)    S(metal)    S(lipo)     H(rot)  DE(clash)    DE(int)     intcor
      9.80     -16.35       1.66        0.00      83.29       1.73       2.04       4.51       ----

> <Gold.Chemscore.Fitness>
9.8032

> <Gold.Chemscore.DG>
-16.3493

> <Gold.Chemscore.ZeroCoef>
-5.4800

> <Gold.Chemscore.Hbond>
1.6638

> <Gold.Chemscore.Metal>
0.0000

> <Gold.Chemscore.Lipo>
83.2867

> <Gold.Chemscore.Internal_Hbond>
0.0000

> <Gold.Chemscore.DEClash>
2.0408

> <Gold.Chemscore.DEInternal>
4.5054

> <Gold.Chemscore.Rot>
1.7314

> <Gold.Chemscore.Internal.Correction>
   9.000000E+99

> <Gold.Chemscore.Hbonds>
donor molecule, donor type, donor heavy atom, donor atom, acceptor molecule, acceptor atom, score
      P1  H  7989  7998       L1    21  0.96

> <Gold.Chemscore.Hbond.Weighted>
-5.5572

> <Gold.Chemscore.Metal.Weighted>
-0.0000

> <Gold.Chemscore.Lipo.Weighted>
-9.7445

> <Gold.Chemscore.Internal_Hbond.Weighted>
0.0000

> <Gold.Chemscore.DEClash.Weighted>
2.0408

> <Gold.Chemscore.DEInternal.Weighted>
4.5054

> <Gold.Chemscore.Rot.Weighted>
4.4324

> <Gold.Chemscore.Internal.Correction.Weighted>
   9.000000E+99

> <Gold.Protein.RotatedTorsions>
[ 6907 6896 6895 6894 ] final -179.95 input  -60.11 | X-H torsion
[ 7974 7965 7964 7962 ] final  -74.53 input  175.53 | X-H torsion
[ 8008 7997 7996 7995 ] final   80.02 input   59.86 | X-H torsion
[ 10167 10162 10161 10158 ] final  -89.95 input  -65.29 | X-H torsion
[ 10718 10713 10712 10709 ] final   -2.34 input   66.30 | X-H torsion
[ 10763 10752 10751 10750 ] final  153.05 input  -60.55 | X-H torsion
[ 11005 11000 10999 10996 ] final   46.35 input  -57.11 | X-H torsion

> <Gold.Protein.ActiveResidues>
 VAL166  LYS551  ARG553  GLY616  TRP617  ASP618  TYR619  PRO620  LYS621  CYS622 
 ASP623  PHE694  ASN695  SER759  ASP760  ASP761  ALA762  ILE779  LEU786  VAL792 
 PHE793  MET794  SER795  GLU796  ALA797  LYS798  CYS799  TRP800  GLU811  SER814 

> <Gold.Protein.RotatedAtoms>
  151.6617  133.3316  159.3175 H   0  0  0  0  0  0  0  0  0  0  0  0  # atno 6907 bound_to 6896
  150.7910  134.6937  159.6521 H   0  0  0  0  0  0  0  0  0  0  0  0  # atno 6908 bound_to 6896
  152.3989  134.6322  160.0130 H   0  0  0  0  0  0  0  0  0  0  0  0  # atno 6909 bound_to 6896
  145.6379  140.9319  143.1052 H   0  0  0  0  0  0  0  0  0  0  0  0  # atno 7974 bound_to 7965
  155.8777  140.3446  155.5865 H   0  0  0  0  0  0  0  0  0  0  0  0  # atno 8008 bound_to 7997
  155.7756  140.0851  157.2105 H   0  0  0  0  0  0  0  0  0  0  0  0  # atno 8009 bound_to 7997
  154.4022  140.1510  156.2979 H   0  0  0  0  0  0  0  0  0  0  0  0  # atno 8010 bound_to 7997
  140.3597  143.2848  151.9629 H   0  0  0  0  0  0  0  0  0  0  0  0  # atno 10167 bound_to 10162
  156.7922  130.5365  149.5734 H   0  0  0  0  0  0  0  0  0  0  0  0  # atno 10718 bound_to 10713
  154.1299  135.2827  155.3188 H   0  0  0  0  0  0  0  0  0  0  0  0  # atno 10763 bound_to 10752
  154.6363  135.5418  153.7741 H   0  0  0  0  0  0  0  0  0  0  0  0  # atno 10764 bound_to 10752
  153.0285  135.6475  154.1449 H   0  0  0  0  0  0  0  0  0  0  0  0  # atno 10765 bound_to 10752
  140.1377  134.4623  155.8473 H   0  0  0  0  0  0  0  0  0  0  0  0  # atno 11005 bound_to 11000
  144.7169  139.8167  143.7396 LP  0  0  0  0  0  0  0  0  0  0  0  0  # atno 17320 bound_to 7965
  146.1305  139.4339  143.0172 LP  0  0  0  0  0  0  0  0  0  0  0  0  # atno 17321 bound_to 7965
  139.4815  144.6003  151.7617 LP  0  0  0  0  0  0  0  0  0  0  0  0  # atno 17342 bound_to 10162
  140.5139  144.0983  150.6003 LP  0  0  0  0  0  0  0  0  0  0  0  0  # atno 17343 bound_to 10162
  156.1152  130.6069  151.0109 LP  0  0  0  0  0  0  0  0  0  0  0  0  # atno 17370 bound_to 10713
  157.6595  131.0883  150.7872 LP  0  0  0  0  0  0  0  0  0  0  0  0  # atno 17371 bound_to 10713
  141.2181  133.6821  156.7188 LP  0  0  0  0  0  0  0  0  0  0  0  0  # atno 17394 bound_to 11000
  140.2761  134.8353  157.3892 LP  0  0  0  0  0  0  0  0  0  0  0  0  # atno 17395 bound_to 11000

$$$$
