AV-unprocessed.smi:1756|AV-procd|sdf|7071|dock8
  -GOLD-   22720 8293D 1   1.00000     0.00000
 Structure written by MMmdl.
 38 39  0  0  0  0  0  0  0  0  1 V2000
  152.4124  139.9822  156.7964 O   0  0  0  0  0  0  0  0  0  0  0  0
  151.5403  140.1149  157.6545 C   0  0  0  0  0  0  0  0  0  0  0  0
  151.7785  140.6201  158.8732 N   0  0  0  0  0  0  0  0  0  0  0  0
  153.0784  141.0632  159.3690 C   0  0  0  0  0  0  0  0  0  0  0  0
  153.0973  142.5685  159.6924 C   0  0  2  0  0  0  0  0  0  0  0  0
  152.3010  142.9369  160.9631 C   0  0  0  0  0  0  0  0  0  0  0  0
  152.2678  144.4564  161.1618 C   0  0  0  0  0  0  0  0  0  0  0  0
  151.7648  145.1355  159.8844 C   0  0  0  0  0  0  0  0  0  0  0  0
  152.5888  144.6670  158.6757 C   0  0  0  0  0  0  0  0  0  0  0  0
  152.5317  143.2476  158.5729 O   0  0  0  0  0  0  0  0  0  0  0  0
  150.2384  139.8048  157.5116 N   0  0  0  0  0  0  0  0  0  0  0  0
  149.5677  139.2445  156.4106 C   0  0  0  0  0  0  0  0  0  0  0  0
  148.5831  138.3109  156.4886 C   0  0  0  0  0  0  0  0  0  0  0  0
  147.9285  137.7785  155.3049 C   0  0  0  0  0  0  0  0  0  0  0  0
  146.7892  136.7761  155.4072 C   0  0  0  0  0  0  0  0  0  0  0  0
  145.6691  137.2598  154.8686 F   0  0  0  0  0  0  0  0  0  0  0  0
  147.1117  135.6573  154.7597 F   0  0  0  0  0  0  0  0  0  0  0  0
  146.5402  136.4625  156.6788 F   0  0  0  0  0  0  0  0  0  0  0  0
  148.3278  138.2798  154.1216 C   0  0  0  0  0  0  0  0  0  0  0  0
  149.3399  139.2378  154.0320 N   0  0  0  0  0  0  0  0  0  0  0  0
  149.9883  139.7603  155.0969 C   0  0  0  0  0  0  0  0  0  0  0  0
  150.8656  140.6079  154.9344 O   0  0  0  0  0  0  0  0  0  0  0  0
  149.5900  139.5559  153.1068 H   0  0  0  0  0  0  0  0  0  0  0  0
  151.0011  140.7019  159.5121 H   0  0  0  0  0  0  0  0  0  0  0  0
  153.2866  140.4978  160.2778 H   0  0  0  0  0  0  0  0  0  0  0  0
  153.8771  140.8124  158.6689 H   0  0  0  0  0  0  0  0  0  0  0  0
  154.1349  142.8885  159.8056 H   0  0  0  0  0  0  0  0  0  0  0  0
  151.2819  142.5572  160.8802 H   0  0  0  0  0  0  0  0  0  0  0  0
  152.7394  142.4661  161.8428 H   0  0  0  0  0  0  0  0  0  0  0  0
  151.6309  144.7163  162.0077 H   0  0  0  0  0  0  0  0  0  0  0  0
  153.2692  144.8173  161.3996 H   0  0  0  0  0  0  0  0  0  0  0  0
  150.7142  144.8889  159.7264 H   0  0  0  0  0  0  0  0  0  0  0  0
  151.8213  146.2196  159.9843 H   0  0  0  0  0  0  0  0  0  0  0  0
  152.1906  145.1030  157.7595 H   0  0  0  0  0  0  0  0  0  0  0  0
  153.6257  144.9956  158.7597 H   0  0  0  0  0  0  0  0  0  0  0  0
  149.6392  140.0307  158.2925 H   0  0  0  0  0  0  0  0  0  0  0  0
  148.2436  137.9377  157.4404 H   0  0  0  0  0  0  0  0  0  0  0  0
  147.9084  137.9954  153.1678 H   0  0  0  0  0  0  0  0  0  0  0  0
  1  2  2  0  0  0  0
  2  3  1  0  0  0  0
  2 11  1  0  0  0  0
  3  4  1  0  0  0  0
  3 24  1  0  0  0  0
  4  5  1  0  0  0  0
  4 25  1  0  0  0  0
  4 26  1  0  0  0  0
  5 10  1  0  0  0  0
  5  6  1  0  0  0  0
  5 27  1  0  0  0  0
  6  7  1  0  0  0  0
  6 28  1  0  0  0  0
  6 29  1  0  0  0  0
  7  8  1  0  0  0  0
  7 30  1  0  0  0  0
  7 31  1  0  0  0  0
  8  9  1  0  0  0  0
  8 32  1  0  0  0  0
  8 33  1  0  0  0  0
  9 10  1  0  0  0  0
  9 34  1  0  0  0  0
  9 35  1  0  0  0  0
 11 12  1  0  0  0  0
 11 36  1  0  0  0  0
 12 21  1  0  0  0  0
 12 13  2  0  0  0  0
 13 14  1  0  0  0  0
 13 37  1  0  0  0  0
 14 15  1  0  0  0  0
 14 19  2  0  0  0  0
 15 16  1  0  0  0  0
 15 17  1  0  0  0  0
 15 18  1  0  0  0  0
 19 20  1  0  0  0  0
 19 38  1  0  0  0  0
 20 23  1  0  0  0  0
 20 21  1  0  0  0  0
 21 22  2  0  0  0  0
M  END
> <s_m_source_file>
AV-unprocessed.smi

> <i_m_source_file_index>
1756

> <i_lp_mmshare_version>
43012

> <i_f3d_flags>
0

> <s_epik_input>
Tz1jMVtuSF1bY0hdYyhDKEYpKEYpRilbY0hdYzFbTkhdQyg9TylbTkhdW0NIMl1bQ0BASF0yW0NIMl1bQ0gyXVtDSDJdW0NIMl1PMg==

> <s_epik_cmdline>
J2VwaWtfcHl0aG9uJywgJy1waCcsICc3LjAnLCAnLXRuJywgJzgnLCAnLW1hJywgJzIwMCcsICctbWV0YWxfYmluZGluZycsICctaW1hZScsICc8aW5maWxlLm1hZT4nLCAnLW9tYWUnLCAnPG91dGZpbGUubWFlPic=

> <r_lp_tautomer_probability>
1

> <r_epik_Ionization_Penalty>
0.00380944

> <r_epik_Ionization_Penalty_Charging>
0.00379057

> <r_epik_Ionization_Penalty_Neutral>
1.88732e-05

> <r_epik_State_Penalty>
-0

> <r_epik_Charging_Adjusted_Penalty>
0.00379057

> <i_epik_Tot_Q>
0

> <i_epik_Tot_abs_Q>
0

> <r_epik_Metal_State_Penalty>
0.371099

> <b_epik_Metal_Only>
0

> <s_lp_Force_Field>
OPLS_2005

> <r_lp_Energy>
19.4174

> <b_lp_Chiralities_Consistent>
1

> <s_lp_Variant>
AV-unprocessed.smi:1756-1

> <Gold.Version>
5.8.1

> <Gold.Id.Protein>
6NUR|6NUR_protein|mol2

> <Gold.PLP.Fitness>
42.9499

> <Gold.PLP.PLP>
-32.0291

> <Gold.PLP.part.hbond>
-3.0000

> <Gold.PLP.part.metal>
0.0000

> <Gold.PLP.part.buried>
-3.2664

> <Gold.PLP.part.nonpolar>
-26.1264

> <Gold.PLP.part.repulsive>
0.3572

> <Gold.PLP.ligand.clash>
0.0000

> <Gold.PLP.ligand.torsion>
0.4000

> <Gold.PLP.Chemscore.Hbond>
2.9913

> <Gold.PLP.Chemscore.CHOScore>
0.8998

> <Gold.PLP.Chemscore.Metal>
0.0000

> <Gold.Chemscore.Hbonds>
donor molecule, donor type, donor heavy atom, donor atom, acceptor molecule, acceptor atom, score
      L1  H    20    23       P1  7957  1.00
      P1  H  7989  7998       L1    22  0.98
      P1  H  7997  8010       L1     1  1.00
      L1  C    19    38       P1  7948  0.80

> <Gold.PLP.Chemscore.Internal.Correction>
0.0474

> <Gold.Rescore>
     Score         DG    S(hbond)    S(metal)    S(lipo)     H(rot)  DE(clash)    DE(int)     intcor
     16.29     -20.89       2.93        0.00      77.34       1.33       0.13       4.48       ----

> <Gold.Chemscore.Fitness>
16.2867

> <Gold.Chemscore.DG>
-20.8935

> <Gold.Chemscore.ZeroCoef>
-5.4800

> <Gold.Chemscore.Hbond>
2.9285

> <Gold.Chemscore.Metal>
0.0000

> <Gold.Chemscore.Lipo>
77.3356

> <Gold.Chemscore.Internal_Hbond>
0.0000

> <Gold.Chemscore.DEClash>
0.1305

> <Gold.Chemscore.DEInternal>
4.4763

> <Gold.Chemscore.Rot>
1.3344

> <Gold.Chemscore.Internal.Correction>
   9.000000E+99

> <Gold.Chemscore.Hbonds>
donor molecule, donor type, donor heavy atom, donor atom, acceptor molecule, acceptor atom, score
      L1  H    20    23       P1  7957  0.96
      P1  H  7989  7998       L1    22  0.93
      P1  H  7997  8010       L1     1  0.96

> <Gold.Chemscore.Hbond.Weighted>
-9.7812

> <Gold.Chemscore.Metal.Weighted>
-0.0000

> <Gold.Chemscore.Lipo.Weighted>
-9.0483

> <Gold.Chemscore.Internal_Hbond.Weighted>
0.0000

> <Gold.Chemscore.DEClash.Weighted>
0.1305

> <Gold.Chemscore.DEInternal.Weighted>
4.4763

> <Gold.Chemscore.Rot.Weighted>
3.4160

> <Gold.Chemscore.Internal.Correction.Weighted>
   9.000000E+99

> <Gold.Protein.RotatedTorsions>
[ 6907 6896 6895 6894 ] final  117.08 input  -60.11 | X-H torsion
[ 7974 7965 7964 7962 ] final  -19.75 input  175.53 | X-H torsion
[ 8008 7997 7996 7995 ] final   57.32 input   59.86 | X-H torsion
[ 10167 10162 10161 10158 ] final   17.24 input  -65.29 | X-H torsion
[ 10718 10713 10712 10709 ] final  159.66 input   66.30 | X-H torsion
[ 10763 10752 10751 10750 ] final  -85.20 input  -60.55 | X-H torsion
[ 11005 11000 10999 10996 ] final   91.72 input  -57.11 | X-H torsion

> <Gold.Protein.ActiveResidues>
 VAL166  LYS551  ARG553  GLY616  TRP617  ASP618  TYR619  PRO620  LYS621  CYS622 
 ASP623  PHE694  ASN695  SER759  ASP760  ASP761  ALA762  ILE779  LEU786  VAL792 
 PHE793  MET794  SER795  GLU796  ALA797  LYS798  CYS799  TRP800  GLU811  SER814 

> <Gold.Protein.RotatedAtoms>
  152.4636  133.7874  159.6883 H   0  0  0  0  0  0  0  0  0  0  0  0  # atno 6907 bound_to 6896
  150.8590  133.7662  159.3005 H   0  0  0  0  0  0  0  0  0  0  0  0  # atno 6908 bound_to 6896
  151.5233  135.1070  159.9936 H   0  0  0  0  0  0  0  0  0  0  0  0  # atno 6909 bound_to 6896
  146.1825  140.4105  142.8489 H   0  0  0  0  0  0  0  0  0  0  0  0  # atno 7974 bound_to 7965
  155.5318  140.3482  155.4428 H   0  0  0  0  0  0  0  0  0  0  0  0  # atno 8008 bound_to 7997
  156.0713  140.1364  156.9852 H   0  0  0  0  0  0  0  0  0  0  0  0  # atno 8009 bound_to 7997
  154.4530  140.0965  156.6648 H   0  0  0  0  0  0  0  0  0  0  0  0  # atno 8010 bound_to 7997
  140.5740  143.9107  150.6735 H   0  0  0  0  0  0  0  0  0  0  0  0  # atno 10167 bound_to 10162
  157.1611  131.0587  151.2231 H   0  0  0  0  0  0  0  0  0  0  0  0  # atno 10718 bound_to 10713
  154.6083  135.5493  153.7446 H   0  0  0  0  0  0  0  0  0  0  0  0  # atno 10763 bound_to 10752
  153.0184  135.6383  154.1615 H   0  0  0  0  0  0  0  0  0  0  0  0  # atno 10764 bound_to 10752
  154.1553  135.2900  155.3104 H   0  0  0  0  0  0  0  0  0  0  0  0  # atno 10765 bound_to 10752
  139.8834  134.8691  156.3469 H   0  0  0  0  0  0  0  0  0  0  0  0  # atno 11005 bound_to 11000
  144.8339  140.6751  143.6273 LP  0  0  0  0  0  0  0  0  0  0  0  0  # atno 17320 bound_to 7965
  145.4035  139.1593  143.4164 LP  0  0  0  0  0  0  0  0  0  0  0  0  # atno 17321 bound_to 7965
  140.2590  143.3538  152.1339 LP  0  0  0  0  0  0  0  0  0  0  0  0  # atno 17342 bound_to 10162
  139.5133  144.6930  151.5709 LP  0  0  0  0  0  0  0  0  0  0  0  0  # atno 17343 bound_to 10162
  157.4131  130.7396  149.6855 LP  0  0  0  0  0  0  0  0  0  0  0  0  # atno 17370 bound_to 10713
  155.9753  130.4090  150.3855 LP  0  0  0  0  0  0  0  0  0  0  0  0  # atno 17371 bound_to 10713
  140.9620  133.7382  156.0415 LP  0  0  0  0  0  0  0  0  0  0  0  0  # atno 17394 bound_to 11000
  140.7977  134.3544  157.5448 LP  0  0  0  0  0  0  0  0  0  0  0  0  # atno 17395 bound_to 11000

$$$$
