AV-unprocessed.smi:1976|AV-procd|sdf|7988|dock2
  -GOLD-   2272010173D 1   1.00000     0.00000
 Structure written by MMmdl.
 45 47  0  0  0  0  0  0  0  0  2 V2000
  150.5945  139.0394  158.9107 O   0  0  0  0  0  0  0  0  0  0  0  0
  151.4861  139.2686  158.0922 C   0  0  0  0  0  0  0  0  0  0  0  0
  152.9153  139.5921  158.5510 C   0  0  0  0  0  0  0  0  0  0  0  0
  152.9814  140.6852  159.5360 N   0  0  0  0  0  0  0  0  0  0  0  0
  152.5024  141.9456  159.1284 C   0  0  0  0  0  0  0  0  0  0  0  0
  152.5164  143.0290  159.9286 C   0  0  0  0  0  0  0  0  0  0  0  0
  151.9398  144.3626  159.4793 C   0  0  0  0  0  0  0  0  0  0  0  0
  151.9900  145.2628  160.4614 F   0  0  0  0  0  0  0  0  0  0  0  0
  152.6401  144.8337  158.4484 F   0  0  0  0  0  0  0  0  0  0  0  0
  150.6697  144.2336  159.0940 F   0  0  0  0  0  0  0  0  0  0  0  0
  153.0259  142.8325  161.2715 C   0  0  0  0  0  0  0  0  0  0  0  0
  153.4771  141.6308  161.6813 C   0  0  0  0  0  0  0  0  0  0  0  0
  153.4747  140.4670  160.7921 C   0  0  0  0  0  0  0  0  0  0  0  0
  153.8861  139.3638  161.1531 O   0  0  0  0  0  0  0  0  0  0  0  0
  151.2853  139.2578  156.7659 N   0  0  0  0  0  0  0  0  0  0  0  0
  150.0212  138.9406  156.1080 C   0  0  1  0  0  0  0  0  0  0  0  0
  149.4632  140.1084  155.2829 C   0  0  0  0  0  0  0  0  0  0  0  0
  148.8399  139.4623  154.0293 C   0  0  0  0  0  0  0  0  0  0  0  0
  148.9905  137.9966  154.1834 N   0  3  2  0  0  0  0  0  0  0  0  0
  147.7439  137.3567  154.6875 C   0  0  0  0  0  0  0  0  0  0  0  0
  147.9614  135.8876  155.0717 C   0  0  0  0  0  0  0  0  0  0  0  0
  149.0598  135.7766  156.1319 C   0  0  0  0  0  0  0  0  0  0  0  0
  150.3551  136.3849  155.5858 C   0  0  0  0  0  0  0  0  0  0  0  0
  150.1732  137.8282  155.0622 C   0  0  2  0  0  0  0  0  0  0  0  0
  153.3720  138.6924  158.9683 H   0  0  0  0  0  0  0  0  0  0  0  0
  153.5106  139.8305  157.6685 H   0  0  0  0  0  0  0  0  0  0  0  0
  152.1132  141.9744  158.1211 H   0  0  0  0  0  0  0  0  0  0  0  0
  153.0481  143.6637  161.9608 H   0  0  0  0  0  0  0  0  0  0  0  0
  153.8501  141.5212  162.6890 H   0  0  0  0  0  0  0  0  0  0  0  0
  152.0719  139.4677  156.1681 H   0  0  0  0  0  0  0  0  0  0  0  0
  149.2673  138.6552  156.8440 H   0  0  0  0  0  0  0  0  0  0  0  0
  148.7278  140.6760  155.8544 H   0  0  0  0  0  0  0  0  0  0  0  0
  150.2525  140.8010  154.9862 H   0  0  0  0  0  0  0  0  0  0  0  0
  147.8015  139.7623  153.8802 H   0  0  0  0  0  0  0  0  0  0  0  0
  149.3942  139.7739  153.1432 H   0  0  0  0  0  0  0  0  0  0  0  0
  147.3690  137.9034  155.5543 H   0  0  0  0  0  0  0  0  0  0  0  0
  146.9734  137.4270  153.9188 H   0  0  0  0  0  0  0  0  0  0  0  0
  147.0328  135.4612  155.4521 H   0  0  0  0  0  0  0  0  0  0  0  0
  148.2326  135.3066  154.1890 H   0  0  0  0  0  0  0  0  0  0  0  0
  148.7568  136.2900  157.0452 H   0  0  0  0  0  0  0  0  0  0  0  0
  149.2206  134.7320  156.3994 H   0  0  0  0  0  0  0  0  0  0  0  0
  151.1382  136.3467  156.3432 H   0  0  0  0  0  0  0  0  0  0  0  0
  150.7084  135.7596  154.7647 H   0  0  0  0  0  0  0  0  0  0  0  0
  151.0485  138.0638  154.4531 H   0  0  0  0  0  0  0  0  0  0  0  0
  149.1950  137.5851  153.2838 H   0  0  0  0  0  0  0  0  0  0  0  0
  1  2  2  0  0  0  0
  2  3  1  0  0  0  0
  2 15  1  0  0  0  0
  3  4  1  0  0  0  0
  3 25  1  0  0  0  0
  3 26  1  0  0  0  0
  4 13  1  0  0  0  0
  4  5  1  0  0  0  0
  5  6  2  0  0  0  0
  5 27  1  0  0  0  0
  6  7  1  0  0  0  0
  6 11  1  0  0  0  0
  7  8  1  0  0  0  0
  7  9  1  0  0  0  0
  7 10  1  0  0  0  0
 11 12  2  0  0  0  0
 11 28  1  0  0  0  0
 12 13  1  0  0  0  0
 12 29  1  0  0  0  0
 13 14  2  0  0  0  0
 15 16  1  0  0  0  0
 15 30  1  0  0  0  0
 16 24  1  0  0  0  0
 16 17  1  0  0  0  0
 16 31  1  0  0  0  0
 17 18  1  0  0  0  0
 17 32  1  0  0  0  0
 17 33  1  0  0  0  0
 18 19  1  0  0  0  0
 18 34  1  0  0  0  0
 18 35  1  0  0  0  0
 19 24  1  0  0  0  0
 19 20  1  0  0  0  0
 19 45  1  0  0  0  0
 20 21  1  0  0  0  0
 20 36  1  0  0  0  0
 20 37  1  0  0  0  0
 21 22  1  0  0  0  0
 21 38  1  0  0  0  0
 21 39  1  0  0  0  0
 22 23  1  0  0  0  0
 22 40  1  0  0  0  0
 22 41  1  0  0  0  0
 23 24  1  0  0  0  0
 23 42  1  0  0  0  0
 23 43  1  0  0  0  0
 24 44  1  0  0  0  0
M  CHG  1  19   1
M  END
> <s_m_source_file>
AV-unprocessed.smi

> <i_m_source_file_index>
1976

> <i_lp_mmshare_version>
43012

> <i_f3d_flags>
0

> <s_epik_input>
W0NIMl0xW0NIMl1bQ0gyXVtDSDJdW0NASF0oTjEyKVtDQEBIXShbQ0gyXVtDSDJdMilbTkhdQyg9TylbQ0gyXW4zW2NIXWMoQyhGKShGKUYpW2NIXVtjSF1jMz1P

> <s_epik_cmdline>
J2VwaWtfcHl0aG9uJywgJy1waCcsICc3LjAnLCAnLXRuJywgJzgnLCAnLW1hJywgJzIwMCcsICctbWV0YWxfYmluZGluZycsICctaW1hZScsICc8aW5maWxlLm1hZT4nLCAnLW9tYWUnLCAnPG91dGZpbGUubWFlPic=

> <r_lp_tautomer_probability>
1

> <r_epik_Ionization_Penalty>
0.00171506

> <r_epik_Ionization_Penalty_Charging>
0.00171498

> <r_epik_Ionization_Penalty_Neutral>
7.81737e-08

> <r_epik_State_Penalty>
0.00115937

> <r_epik_Charging_Adjusted_Penalty>
0.00287436

> <i_epik_Tot_Q>
1

> <i_epik_Tot_abs_Q>
1

> <r_epik_Metal_State_Penalty>
-0

> <b_epik_Metal_Only>
0

> <s_lp_Force_Field>
OPLS_2005

> <r_lp_Energy>
48.7142

> <b_lp_Chiralities_Consistent>
1

> <s_lp_Variant>
AV-unprocessed.smi:1976-6

> <Gold.Version>
5.8.1

> <Gold.Id.Protein>
6NUR|6NUR_protein|mol2

> <Gold.PLP.Fitness>
52.3015

> <Gold.PLP.PLP>
-46.4552

> <Gold.PLP.part.hbond>
-1.0000

> <Gold.PLP.part.metal>
0.0000

> <Gold.PLP.part.buried>
-3.9685

> <Gold.PLP.part.nonpolar>
-40.1563

> <Gold.PLP.part.repulsive>
0.0818

> <Gold.PLP.ligand.clash>
0.0000

> <Gold.PLP.ligand.torsion>
0.1036

> <Gold.PLP.Chemscore.Hbond>
2.0000

> <Gold.PLP.Chemscore.CHOScore>
0.0000

> <Gold.PLP.Chemscore.Metal>
0.0000

> <Gold.Chemscore.Hbonds>
donor molecule, donor type, donor heavy atom, donor atom, acceptor molecule, acceptor atom, score
      L1  H    19    45       P1  7948  2.00

> <Gold.PLP.Chemscore.Internal.Correction>
0.0536

> <Gold.Rescore>
     Score         DG    S(hbond)    S(metal)    S(lipo)     H(rot)  DE(clash)    DE(int)     intcor
     15.28     -15.49       1.00        0.00      91.71       1.58       0.08       0.13       ----

> <Gold.Chemscore.Fitness>
15.2824

> <Gold.Chemscore.DG>
-15.4921

> <Gold.Chemscore.ZeroCoef>
-5.4800

> <Gold.Chemscore.Hbond>
0.9983

> <Gold.Chemscore.Metal>
0.0000

> <Gold.Chemscore.Lipo>
91.7102

> <Gold.Chemscore.Internal_Hbond>
0.0000

> <Gold.Chemscore.DEClash>
0.0815

> <Gold.Chemscore.DEInternal>
0.1282

> <Gold.Chemscore.Rot>
1.5830

> <Gold.Chemscore.Internal.Correction>
   9.000000E+99

> <Gold.Chemscore.Hbonds>
donor molecule, donor type, donor heavy atom, donor atom, acceptor molecule, acceptor atom, score
      L1  H    19    45       P1  7948  0.96

> <Gold.Chemscore.Hbond.Weighted>
-3.3344

> <Gold.Chemscore.Metal.Weighted>
-0.0000

> <Gold.Chemscore.Lipo.Weighted>
-10.7301

> <Gold.Chemscore.Internal_Hbond.Weighted>
0.0000

> <Gold.Chemscore.DEClash.Weighted>
0.0815

> <Gold.Chemscore.DEInternal.Weighted>
0.1282

> <Gold.Chemscore.Rot.Weighted>
4.0524

> <Gold.Chemscore.Internal.Correction.Weighted>
   9.000000E+99

> <Gold.Protein.RotatedTorsions>
[ 6907 6896 6895 6894 ] final  -84.77 input  -60.11 | X-H torsion
[ 7974 7965 7964 7962 ] final  -19.20 input  175.53 | X-H torsion
[ 8008 7997 7996 7995 ] final   31.33 input   59.86 | X-H torsion
[ 10167 10162 10161 10158 ] final   76.55 input  -65.29 | X-H torsion
[ 10718 10713 10712 10709 ] final -123.13 input   66.30 | X-H torsion
[ 10763 10752 10751 10750 ] final -104.75 input  -60.55 | X-H torsion
[ 11005 11000 10999 10996 ] final -163.86 input  -57.11 | X-H torsion

> <Gold.Protein.ActiveResidues>
 VAL166  LYS551  ARG553  GLY616  TRP617  ASP618  TYR619  PRO620  LYS621  CYS622 
 ASP623  PHE694  ASN695  SER759  ASP760  ASP761  ALA762  ILE779  LEU786  VAL792 
 PHE793  MET794  SER795  GLU796  ALA797  LYS798  CYS799  TRP800  GLU811  SER814 

> <Gold.Protein.RotatedAtoms>
  150.6874  134.3307  159.4825 H   0  0  0  0  0  0  0  0  0  0  0  0  # atno 6907 bound_to 6896
  152.1172  134.9229  160.0573 H   0  0  0  0  0  0  0  0  0  0  0  0  # atno 6908 bound_to 6896
  152.0449  133.3959  159.4389 H   0  0  0  0  0  0  0  0  0  0  0  0  # atno 6909 bound_to 6896
  146.1853  140.4028  142.8478 H   0  0  0  0  0  0  0  0  0  0  0  0  # atno 7974 bound_to 7965
  155.1047  140.3233  155.4537 H   0  0  0  0  0  0  0  0  0  0  0  0  # atno 8008 bound_to 7997
  156.2707  140.2055  156.6119 H   0  0  0  0  0  0  0  0  0  0  0  0  # atno 8009 bound_to 7997
  154.6802  140.0527  157.0245 H   0  0  0  0  0  0  0  0  0  0  0  0  # atno 8010 bound_to 7997
  139.9910  144.5757  150.7818 H   0  0  0  0  0  0  0  0  0  0  0  0  # atno 10167 bound_to 10162
  156.1476  130.6511  150.9865 H   0  0  0  0  0  0  0  0  0  0  0  0  # atno 10718 bound_to 10713
  154.7900  135.4774  154.0030 H   0  0  0  0  0  0  0  0  0  0  0  0  # atno 10763 bound_to 10752
  153.1616  135.6809  153.8741 H   0  0  0  0  0  0  0  0  0  0  0  0  # atno 10764 bound_to 10752
  153.8353  135.3186  155.3400 H   0  0  0  0  0  0  0  0  0  0  0  0  # atno 10765 bound_to 10752
  140.5933  134.5022  157.5196 H   0  0  0  0  0  0  0  0  0  0  0  0  # atno 11005 bound_to 11000
  144.8387  140.6823  143.6243 LP  0  0  0  0  0  0  0  0  0  0  0  0  # atno 17320 bound_to 7965
  145.3955  139.1608  143.4206 LP  0  0  0  0  0  0  0  0  0  0  0  0  # atno 17321 bound_to 7965
  140.7454  143.2876  151.3420 LP  0  0  0  0  0  0  0  0  0  0  0  0  # atno 17342 bound_to 10162
  139.6340  144.0666  152.2500 LP  0  0  0  0  0  0  0  0  0  0  0  0  # atno 17343 bound_to 10162
  157.6630  131.0877  150.7795 LP  0  0  0  0  0  0  0  0  0  0  0  0  # atno 17370 bound_to 10713
  156.7865  130.4876  149.5392 LP  0  0  0  0  0  0  0  0  0  0  0  0  # atno 17371 bound_to 10713
  139.9264  134.8047  156.1056 LP  0  0  0  0  0  0  0  0  0  0  0  0  # atno 17394 bound_to 11000
  141.0920  133.6710  156.2562 LP  0  0  0  0  0  0  0  0  0  0  0  0  # atno 17395 bound_to 11000

$$$$
