AV-unprocessed.smi:467|AV-procd|sdf|2648|dock1
  -GOLD-   2262023 53D 1   1.00000     0.00000
 Structure written by MMmdl.
 45 47  0  0  0  0  0  0  0  0  2 V2000
  152.4864  143.4911  161.2796 C   0  0  0  0  0  0  0  0  0  0  0  0
  152.2446  142.7455  159.9780 C   0  0  0  0  0  0  0  0  0  0  0  0
  151.2934  143.2643  159.0708 C   0  0  0  0  0  0  0  0  0  0  0  0
  151.0972  142.5625  157.8872 C   0  0  0  0  0  0  0  0  0  0  0  0
  150.2497  142.8131  156.8060 N   0  3  0  0  0  0  0  0  0  0  0  0
  150.4107  141.8398  155.8672 C   0  0  0  0  0  0  0  0  0  0  0  0
  151.3455  140.9687  156.3345 N   0  0  0  0  0  0  0  0  0  0  0  0
  151.8791  139.7459  155.7167 C   0  0  0  0  0  0  0  0  0  0  0  0
  150.7826  138.8489  155.1094 C   0  0  1  0  0  0  0  0  0  0  0  0
  150.4744  139.2954  153.8036 O   0  0  0  0  0  0  0  0  0  0  0  0
  151.2406  137.3794  155.0245 C   0  0  0  0  0  0  0  0  0  0  0  0
  150.3883  136.4109  155.7171 N   0  0  0  0  0  0  0  0  0  0  0  0
  150.2731  136.6757  157.1503 C   0  0  0  0  0  0  0  0  0  0  0  0
  149.3958  135.6278  157.8580 C   0  0  0  0  0  0  0  0  0  0  0  0
  149.9193  134.3251  157.6226 O   0  0  0  0  0  0  0  0  0  0  0  0
  150.0033  134.0107  156.2368 C   0  0  0  0  0  0  0  0  0  0  0  0
  150.8856  135.0522  155.5272 C   0  0  0  0  0  0  0  0  0  0  0  0
  151.8042  141.3807  157.5918 C   0  0  0  0  0  0  0  0  0  0  0  0
  152.7442  140.8559  158.4758 C   0  0  0  0  0  0  0  0  0  0  0  0
  152.9632  141.5580  159.6825 C   0  0  0  0  0  0  0  0  0  0  0  0
  153.9916  141.0143  160.6595 C   0  0  0  0  0  0  0  0  0  0  0  0
  151.8149  144.3442  161.3814 H   0  0  0  0  0  0  0  0  0  0  0  0
  153.5099  143.8646  161.3204 H   0  0  0  0  0  0  0  0  0  0  0  0
  152.3217  142.8362  162.1353 H   0  0  0  0  0  0  0  0  0  0  0  0
  150.7446  144.1693  159.2875 H   0  0  0  0  0  0  0  0  0  0  0  0
  149.8892  141.7704  154.9234 H   0  0  0  0  0  0  0  0  0  0  0  0
  152.6301  140.0160  154.9738 H   0  0  0  0  0  0  0  0  0  0  0  0
  152.4086  139.2004  156.4988 H   0  0  0  0  0  0  0  0  0  0  0  0
  149.8882  138.9395  155.7244 H   0  0  0  0  0  0  0  0  0  0  0  0
  150.5011  138.5502  153.2222 H   0  0  0  0  0  0  0  0  0  0  0  0
  151.3047  137.1089  153.9692 H   0  0  0  0  0  0  0  0  0  0  0  0
  152.2579  137.2980  155.4109 H   0  0  0  0  0  0  0  0  0  0  0  0
  151.2643  136.6843  157.6066 H   0  0  0  0  0  0  0  0  0  0  0  0
  149.8398  137.6595  157.3245 H   0  0  0  0  0  0  0  0  0  0  0  0
  149.3727  135.8146  158.9316 H   0  0  0  0  0  0  0  0  0  0  0  0
  148.3661  135.6825  157.5010 H   0  0  0  0  0  0  0  0  0  0  0  0
  150.4270  133.0129  156.1226 H   0  0  0  0  0  0  0  0  0  0  0  0
  149.0040  133.9880  155.7995 H   0  0  0  0  0  0  0  0  0  0  0  0
  150.9290  134.8193  154.4625 H   0  0  0  0  0  0  0  0  0  0  0  0
  151.9068  134.9754  155.9044 H   0  0  0  0  0  0  0  0  0  0  0  0
  153.2949  139.9549  158.2493 H   0  0  0  0  0  0  0  0  0  0  0  0
  154.4741  140.1165  160.2722 H   0  0  0  0  0  0  0  0  0  0  0  0
  153.5207  140.7565  161.6083 H   0  0  0  0  0  0  0  0  0  0  0  0
  154.7697  141.7543  160.8479 H   0  0  0  0  0  0  0  0  0  0  0  0
  149.6086  143.5906  156.7129 H   0  0  0  0  0  0  0  0  0  0  0  0
  1  2  1  0  0  0  0
  1 22  1  0  0  0  0
  1 23  1  0  0  0  0
  1 24  1  0  0  0  0
  2 20  1  0  0  0  0
  2  3  2  0  0  0  0
  3  4  1  0  0  0  0
  3 25  1  0  0  0  0
  4 18  2  0  0  0  0
  4  5  1  0  0  0  0
  5  6  2  0  0  0  0
  5 45  1  0  0  0  0
  6  7  1  0  0  0  0
  6 26  1  0  0  0  0
  7  8  1  0  0  0  0
  7 18  1  0  0  0  0
  8  9  1  0  0  0  0
  8 27  1  0  0  0  0
  8 28  1  0  0  0  0
  9 10  1  0  0  0  0
  9 11  1  0  0  0  0
  9 29  1  0  0  0  0
 10 30  1  0  0  0  0
 11 12  1  0  0  0  0
 11 31  1  0  0  0  0
 11 32  1  0  0  0  0
 12 17  1  0  0  0  0
 12 13  1  0  0  0  0
 13 14  1  0  0  0  0
 13 33  1  0  0  0  0
 13 34  1  0  0  0  0
 14 15  1  0  0  0  0
 14 35  1  0  0  0  0
 14 36  1  0  0  0  0
 15 16  1  0  0  0  0
 16 17  1  0  0  0  0
 16 37  1  0  0  0  0
 16 38  1  0  0  0  0
 17 39  1  0  0  0  0
 17 40  1  0  0  0  0
 18 19  1  0  0  0  0
 19 20  2  0  0  0  0
 19 41  1  0  0  0  0
 20 21  1  0  0  0  0
 21 42  1  0  0  0  0
 21 43  1  0  0  0  0
 21 44  1  0  0  0  0
M  CHG  1   5   1
M  END
> <s_m_source_file>
AV-unprocessed.smi

> <i_m_source_file_index>
467

> <i_lp_mmshare_version>
43012

> <i_f3d_flags>
0

> <s_epik_input>
W0NIM11jKFtjSF0xKWMoW0NIM10pW2NIXWMoYzEyKW4oW2NIXW4yKVtDSDJdW0NASF0oW09IXSlbQ0gyXU4zW0NIMl1bQ0gyXU9bQ0gyXVtDSDJdMw==

> <s_epik_cmdline>
J2VwaWtfcHl0aG9uJywgJy1waCcsICc3LjAnLCAnLXRuJywgJzgnLCAnLW1hJywgJzIwMCcsICctbWV0YWxfYmluZGluZycsICctaW1hZScsICc8aW5maWxlLm1hZT4nLCAnLW9tYWUnLCAnPG91dGZpbGUubWFlPic=

> <r_epik_Ionization_Penalty>
1.42557

> <r_epik_Ionization_Penalty_Charging>
1.21121

> <r_epik_Ionization_Penalty_Neutral>
0.214359

> <r_epik_State_Penalty>
1.47019

> <r_epik_Charging_Adjusted_Penalty>
2.68141

> <i_epik_Tot_Q>
1

> <i_epik_Tot_abs_Q>
1

> <r_epik_Metal_State_Penalty>
5.48819

> <b_epik_Metal_Only>
0

> <s_lp_Force_Field>
OPLS_2005

> <r_lp_Energy>
35.2286

> <b_lp_Chiralities_Consistent>
1

> <s_lp_Variant>
AV-unprocessed.smi:467-6

> <Gold.Version>
5.8.1

> <Gold.Id.Protein>
6NUR|6NUR_protein|mol2

> <Gold.PLP.Fitness>
51.2621

> <Gold.PLP.PLP>
-41.5553

> <Gold.PLP.part.hbond>
-4.0000

> <Gold.PLP.part.metal>
0.0000

> <Gold.PLP.part.buried>
-4.4272

> <Gold.PLP.part.nonpolar>
-32.9277

> <Gold.PLP.part.repulsive>
0.1188

> <Gold.PLP.ligand.clash>
0.0000

> <Gold.PLP.ligand.torsion>
1.1997

> <Gold.PLP.Chemscore.Hbond>
4.0000

> <Gold.PLP.Chemscore.CHOScore>
0.0000

> <Gold.PLP.Chemscore.Metal>
0.0000

> <Gold.Chemscore.Hbonds>
donor molecule, donor type, donor heavy atom, donor atom, acceptor molecule, acceptor atom, score
      L1  H     5    45       P1  8028  1.89
      P1  H  6896  6907       L1    15  0.86
      P1  H  7989  7998       L1    10  1.00

> <Gold.PLP.Chemscore.Internal.Correction>
0.1061

> <Gold.Rescore>
     Score         DG    S(hbond)    S(metal)    S(lipo)     H(rot)  DE(clash)    DE(int)     intcor
     20.65     -22.15       2.70        0.00     110.90       2.08       0.24       1.25       ----

> <Gold.Chemscore.Fitness>
20.6545

> <Gold.Chemscore.DG>
-22.1502

> <Gold.Chemscore.ZeroCoef>
-5.4800

> <Gold.Chemscore.Hbond>
2.7012

> <Gold.Chemscore.Metal>
0.0000

> <Gold.Chemscore.Lipo>
110.9025

> <Gold.Chemscore.Internal_Hbond>
0.0000

> <Gold.Chemscore.DEClash>
0.2414

> <Gold.Chemscore.DEInternal>
1.2543

> <Gold.Chemscore.Rot>
2.0811

> <Gold.Chemscore.Internal.Correction>
   9.000000E+99

> <Gold.Chemscore.Hbonds>
donor molecule, donor type, donor heavy atom, donor atom, acceptor molecule, acceptor atom, score
      L1  H     5    45       P1  8028  0.90
      P1  H  6896  6907       L1    15  0.16
      P1  H  7989  7998       L1    10  0.55

> <Gold.Chemscore.Hbond.Weighted>
-9.0221

> <Gold.Chemscore.Metal.Weighted>
-0.0000

> <Gold.Chemscore.Lipo.Weighted>
-12.9756

> <Gold.Chemscore.Internal_Hbond.Weighted>
0.0000

> <Gold.Chemscore.DEClash.Weighted>
0.2414

> <Gold.Chemscore.DEInternal.Weighted>
1.2543

> <Gold.Chemscore.Rot.Weighted>
5.3275

> <Gold.Chemscore.Internal.Correction.Weighted>
   9.000000E+99

> <Gold.Protein.RotatedTorsions>
[ 6907 6896 6895 6894 ] final -103.60 input  -60.11 | X-H torsion
[ 7974 7965 7964 7962 ] final  -26.85 input  175.53 | X-H torsion
[ 8008 7997 7996 7995 ] final   53.82 input   59.86 | X-H torsion
[ 10167 10162 10161 10158 ] final  -13.83 input  -65.29 | X-H torsion
[ 10718 10713 10712 10709 ] final  -63.80 input   66.30 | X-H torsion
[ 10763 10752 10751 10750 ] final -109.10 input  -60.55 | X-H torsion
[ 11005 11000 10999 10996 ] final  -97.81 input  -57.11 | X-H torsion

> <Gold.Protein.ActiveResidues>
 VAL166  LYS551  ARG553  GLY616  TRP617  ASP618  TYR619  PRO620  LYS621  CYS622 
 ASP623  PHE694  ASN695  SER759  ASP760  ASP761  ALA762  ILE779  LEU786  VAL792 
 PHE793  MET794  SER795  GLU796  ALA797  LYS798  CYS799  TRP800  GLU811  SER814 

> <Gold.Protein.RotatedAtoms>
  150.7248  134.0405  159.3763 H   0  0  0  0  0  0  0  0  0  0  0  0  # atno 6907 bound_to 6896
  151.8378  135.0598  160.0454 H   0  0  0  0  0  0  0  0  0  0  0  0  # atno 6908 bound_to 6896
  152.2885  133.5503  159.5579 H   0  0  0  0  0  0  0  0  0  0  0  0  # atno 6909 bound_to 6896
  146.1397  140.5074  142.8657 H   0  0  0  0  0  0  0  0  0  0  0  0  # atno 7974 bound_to 7965
  155.4746  140.3466  155.4330 H   0  0  0  0  0  0  0  0  0  0  0  0  # atno 8008 bound_to 7997
  156.1078  140.1453  156.9408 H   0  0  0  0  0  0  0  0  0  0  0  0  # atno 8009 bound_to 7997
  154.4736  140.0892  156.7185 H   0  0  0  0  0  0  0  0  0  0  0  0  # atno 8010 bound_to 7997
  140.7190  143.5385  150.9437 H   0  0  0  0  0  0  0  0  0  0  0  0  # atno 10167 bound_to 10162
  156.0768  130.4225  150.1328 H   0  0  0  0  0  0  0  0  0  0  0  0  # atno 10718 bound_to 10713
  154.8174  135.4613  154.0681 H   0  0  0  0  0  0  0  0  0  0  0  0  # atno 10763 bound_to 10752
  153.2063  135.6876  153.8175 H   0  0  0  0  0  0  0  0  0  0  0  0  # atno 10764 bound_to 10752
  153.7642  135.3279  155.3319 H   0  0  0  0  0  0  0  0  0  0  0  0  # atno 10765 bound_to 10752
  141.1366  133.8198  157.0756 H   0  0  0  0  0  0  0  0  0  0  0  0  # atno 11005 bound_to 11000
  144.7779  140.5779  143.6625 LP  0  0  0  0  0  0  0  0  0  0  0  0  # atno 17320 bound_to 7965
  145.5074  139.1480  143.3624 LP  0  0  0  0  0  0  0  0  0  0  0  0  # atno 17321 bound_to 7965
  139.9107  143.6724  152.3115 LP  0  0  0  0  0  0  0  0  0  0  0  0  # atno 17342 bound_to 10162
  139.7106  144.7621  151.1119 LP  0  0  0  0  0  0  0  0  0  0  0  0  # atno 17343 bound_to 10162
  156.9368  130.9731  151.3523 LP  0  0  0  0  0  0  0  0  0  0  0  0  # atno 17370 bound_to 10713
  157.5868  130.8415  149.8601 LP  0  0  0  0  0  0  0  0  0  0  0  0  # atno 17371 bound_to 10713
  140.0484  134.9818  157.1091 LP  0  0  0  0  0  0  0  0  0  0  0  0  # atno 17394 bound_to 11000
  140.4028  134.2065  155.7163 LP  0  0  0  0  0  0  0  0  0  0  0  0  # atno 17395 bound_to 11000

$$$$
