AV-unprocessed.smi:1833|AV-procd|sdf|7467|dock9
  -GOLD-   22720 9163D 1   1.00000     0.00000
 Structure written by MMmdl.
 42 43  0  0  0  0  0  0  0  0  2 V2000
  144.2360  144.0923  154.8519 C   0  0  0  0  0  0  0  0  0  0  0  0
  144.4880  142.7113  155.4748 C   0  0  0  0  0  0  0  0  0  0  0  0
  145.3405  141.8519  154.6160 N   0  3  1  0  0  0  0  0  0  0  0  0
  146.4079  142.6221  153.9256 C   0  0  0  0  0  0  0  0  0  0  0  0
  147.1778  141.7381  152.9289 C   0  0  0  0  0  0  0  0  0  0  0  0
  147.7384  140.4793  153.6116 C   0  0  0  0  0  0  0  0  0  0  0  0
  146.6305  139.7212  154.3640 C   0  0  2  0  0  0  0  0  0  0  0  0
  145.7054  139.1130  153.4073 N   0  0  0  0  0  0  0  0  0  0  0  0
  145.5384  137.7959  153.2253 C   0  0  0  0  0  0  0  0  0  0  0  0
  146.1276  136.9328  153.8754 O   0  0  0  0  0  0  0  0  0  0  0  0
  144.6637  137.5358  152.2429 N   0  0  0  0  0  0  0  0  0  0  0  0
  144.2904  136.2027  151.7754 C   0  0  0  0  0  0  0  0  0  0  0  0
  145.2830  135.6392  150.7404 C   0  0  0  0  0  0  0  0  0  0  0  0
  145.3169  134.1459  150.6732 C   0  0  0  0  0  0  0  0  0  0  0  0
  146.3876  133.4200  151.0073 N   0  0  0  0  0  0  0  0  0  0  0  0
  146.1852  132.0508  150.8186 C   0  0  0  0  0  0  0  0  0  0  0  0
  144.9414  131.7432  150.3288 C   0  0  0  0  0  0  0  0  0  0  0  0
  143.9727  133.1703  150.0856 S   0  0  0  0  0  0  0  0  0  0  0  0
  145.9061  140.6795  155.3353 C   0  0  0  0  0  0  0  0  0  0  0  0
  143.6793  144.7273  155.5412 H   0  0  0  0  0  0  0  0  0  0  0  0
  143.6554  144.0297  153.9321 H   0  0  0  0  0  0  0  0  0  0  0  0
  145.1745  144.5982  154.6231 H   0  0  0  0  0  0  0  0  0  0  0  0
  144.9837  142.8673  156.4337 H   0  0  0  0  0  0  0  0  0  0  0  0
  143.5456  142.2067  155.6933 H   0  0  0  0  0  0  0  0  0  0  0  0
  145.9692  143.4642  153.3887 H   0  0  0  0  0  0  0  0  0  0  0  0
  147.0922  143.0403  154.6657 H   0  0  0  0  0  0  0  0  0  0  0  0
  146.5166  141.4515  152.1102 H   0  0  0  0  0  0  0  0  0  0  0  0
  147.9908  142.3081  152.4782 H   0  0  0  0  0  0  0  0  0  0  0  0
  148.2174  139.8304  152.8770 H   0  0  0  0  0  0  0  0  0  0  0  0
  148.5182  140.7705  154.3166 H   0  0  0  0  0  0  0  0  0  0  0  0
  147.0958  138.9184  154.9389 H   0  0  0  0  0  0  0  0  0  0  0  0
  145.1845  139.7426  152.8143 H   0  0  0  0  0  0  0  0  0  0  0  0
  144.2365  138.3171  151.7669 H   0  0  0  0  0  0  0  0  0  0  0  0
  144.1952  135.5121  152.6149 H   0  0  0  0  0  0  0  0  0  0  0  0
  143.2994  136.2694  151.3265 H   0  0  0  0  0  0  0  0  0  0  0  0
  145.0369  136.0251  149.7505 H   0  0  0  0  0  0  0  0  0  0  0  0
  146.2890  135.9951  150.9644 H   0  0  0  0  0  0  0  0  0  0  0  0
  146.9833  131.3637  151.0581 H   0  0  0  0  0  0  0  0  0  0  0  0
  144.5391  130.7683  150.0973 H   0  0  0  0  0  0  0  0  0  0  0  0
  146.6020  141.0281  156.1002 H   0  0  0  0  0  0  0  0  0  0  0  0
  145.1213  140.1410  155.8647 H   0  0  0  0  0  0  0  0  0  0  0  0
  144.7389  141.4892  153.8903 H   0  0  0  0  0  0  0  0  0  0  0  0
  1  2  1  0  0  0  0
  1 20  1  0  0  0  0
  1 21  1  0  0  0  0
  1 22  1  0  0  0  0
  2  3  1  0  0  0  0
  2 23  1  0  0  0  0
  2 24  1  0  0  0  0
  3 19  1  0  0  0  0
  3  4  1  0  0  0  0
  3 42  1  0  0  0  0
  4  5  1  0  0  0  0
  4 25  1  0  0  0  0
  4 26  1  0  0  0  0
  5  6  1  0  0  0  0
  5 27  1  0  0  0  0
  5 28  1  0  0  0  0
  6  7  1  0  0  0  0
  6 29  1  0  0  0  0
  6 30  1  0  0  0  0
  7  8  1  0  0  0  0
  7 19  1  0  0  0  0
  7 31  1  0  0  0  0
  8  9  1  0  0  0  0
  8 32  1  0  0  0  0
  9 10  2  0  0  0  0
  9 11  1  0  0  0  0
 11 12  1  0  0  0  0
 11 33  1  0  0  0  0
 12 13  1  0  0  0  0
 12 34  1  0  0  0  0
 12 35  1  0  0  0  0
 13 14  1  0  0  0  0
 13 36  1  0  0  0  0
 13 37  1  0  0  0  0
 14 18  1  0  0  0  0
 14 15  2  0  0  0  0
 15 16  1  0  0  0  0
 16 17  2  0  0  0  0
 16 38  1  0  0  0  0
 17 18  1  0  0  0  0
 17 39  1  0  0  0  0
 19 40  1  0  0  0  0
 19 41  1  0  0  0  0
M  CHG  1   3   1
M  END
> <s_m_source_file>
AV-unprocessed.smi

> <i_m_source_file_index>
1833

> <i_lp_mmshare_version>
43012

> <i_f3d_flags>
0

> <s_epik_input>
W0NIM11bQ0gyXU4xW0NIMl1bQ0gyXVtDSDJdW0NASF0oW0NIMl0xKVtOSF1DKD1PKVtOSF1bQ0gyXVtDSDJdYzJuW2NIXVtjSF1zMg==

> <s_epik_cmdline>
J2VwaWtfcHl0aG9uJywgJy1waCcsICc3LjAnLCAnLXRuJywgJzgnLCAnLW1hJywgJzIwMCcsICctbWV0YWxfYmluZGluZycsICctaW1hZScsICc8aW5maWxlLm1hZT4nLCAnLW9tYWUnLCAnPG91dGZpbGUubWFlPic=

> <r_lp_tautomer_probability>
1

> <r_epik_Ionization_Penalty>
0.00269629

> <r_epik_Ionization_Penalty_Charging>
0.00233899

> <r_epik_Ionization_Penalty_Neutral>
0.000357304

> <r_epik_State_Penalty>
-0

> <r_epik_Charging_Adjusted_Penalty>
0.00233899

> <i_epik_Tot_Q>
1

> <i_epik_Tot_abs_Q>
1

> <r_epik_Metal_State_Penalty>
-0

> <b_epik_Metal_Only>
0

> <s_lp_Force_Field>
OPLS_2005

> <r_lp_Energy>
15.7918

> <b_lp_Chiralities_Consistent>
1

> <s_lp_Variant>
AV-unprocessed.smi:1833-3

> <Gold.Version>
5.8.1

> <Gold.Id.Protein>
6NUR|6NUR_protein|mol2

> <Gold.PLP.Fitness>
44.2490

> <Gold.PLP.PLP>
-31.5347

> <Gold.PLP.part.hbond>
-3.8306

> <Gold.PLP.part.metal>
0.0000

> <Gold.PLP.part.buried>
-5.3241

> <Gold.PLP.part.nonpolar>
-23.4993

> <Gold.PLP.part.repulsive>
0.2966

> <Gold.PLP.ligand.clash>
0.0000

> <Gold.PLP.ligand.torsion>
0.5559

> <Gold.PLP.Chemscore.Hbond>
3.5889

> <Gold.PLP.Chemscore.CHOScore>
1.0000

> <Gold.PLP.Chemscore.Metal>
0.0000

> <Gold.Chemscore.Hbonds>
donor molecule, donor type, donor heavy atom, donor atom, acceptor molecule, acceptor atom, score
      L1  H     3    42       P1 10175  1.90
      L1  H     8    32       P1 10175  0.94
      L1  H    11    33       P1 10171  0.61
      L1  C    16    38       P1 10747  1.00

> <Gold.PLP.Chemscore.Internal.Correction>
0.0592

> <Gold.Rescore>
     Score         DG    S(hbond)    S(metal)    S(lipo)     H(rot)  DE(clash)    DE(int)     intcor
     17.60     -18.35       2.47        0.00      76.97       1.71       0.21       0.53       ----

> <Gold.Chemscore.Fitness>
17.6042

> <Gold.Chemscore.DG>
-18.3479

> <Gold.Chemscore.ZeroCoef>
-5.4800

> <Gold.Chemscore.Hbond>
2.4706

> <Gold.Chemscore.Metal>
0.0000

> <Gold.Chemscore.Lipo>
76.9713

> <Gold.Chemscore.Internal_Hbond>
0.0000

> <Gold.Chemscore.DEClash>
0.2110

> <Gold.Chemscore.DEInternal>
0.5327

> <Gold.Chemscore.Rot>
1.7147

> <Gold.Chemscore.Internal.Correction>
   9.000000E+99

> <Gold.Chemscore.Hbonds>
donor molecule, donor type, donor heavy atom, donor atom, acceptor molecule, acceptor atom, score
      L1  H     3    42       P1 10175  0.21
      L1  H     8    32       P1 10175  0.92
      L1  H    11    33       P1 10171  0.60

> <Gold.Chemscore.Hbond.Weighted>
-8.2519

> <Gold.Chemscore.Metal.Weighted>
-0.0000

> <Gold.Chemscore.Lipo.Weighted>
-9.0056

> <Gold.Chemscore.Internal_Hbond.Weighted>
0.0000

> <Gold.Chemscore.DEClash.Weighted>
0.2110

> <Gold.Chemscore.DEInternal.Weighted>
0.5327

> <Gold.Chemscore.Rot.Weighted>
4.3896

> <Gold.Chemscore.Internal.Correction.Weighted>
   9.000000E+99

> <Gold.Protein.RotatedTorsions>
[ 6907 6896 6895 6894 ] final -144.83 input  -60.11 | X-H torsion
[ 7974 7965 7964 7962 ] final -117.39 input  175.53 | X-H torsion
[ 8008 7997 7996 7995 ] final  142.65 input   59.86 | X-H torsion
[ 10167 10162 10161 10158 ] final   63.74 input  -65.29 | X-H torsion
[ 10718 10713 10712 10709 ] final   22.97 input   66.30 | X-H torsion
[ 10763 10752 10751 10750 ] final  -49.47 input  -60.55 | X-H torsion
[ 11005 11000 10999 10996 ] final  -81.62 input  -57.11 | X-H torsion

> <Gold.Protein.ActiveResidues>
 VAL166  LYS551  ARG553  GLY616  TRP617  ASP618  TYR619  PRO620  LYS621  CYS622 
 ASP623  PHE694  ASN695  SER759  ASP760  ASP761  ALA762  ILE779  LEU786  VAL792 
 PHE793  MET794  SER795  GLU796  ALA797  LYS798  CYS799  TRP800  GLU811  SER814 

> <Gold.Protein.RotatedAtoms>
  151.1195  133.5114  159.2602 H   0  0  0  0  0  0  0  0  0  0  0  0  # atno 6907 bound_to 6896
  151.1878  135.0388  159.8829 H   0  0  0  0  0  0  0  0  0  0  0  0  # atno 6908 bound_to 6896
  152.5455  134.1039  159.8383 H   0  0  0  0  0  0  0  0  0  0  0  0  # atno 6909 bound_to 6896
  145.0857  140.8456  143.4012 H   0  0  0  0  0  0  0  0  0  0  0  0  # atno 7974 bound_to 7965
  156.2945  140.2283  156.4763 H   0  0  0  0  0  0  0  0  0  0  0  0  # atno 8008 bound_to 7997
  154.7891  140.0455  157.1208 H   0  0  0  0  0  0  0  0  0  0  0  0  # atno 8009 bound_to 7997
  154.9666  140.3061  155.5010 H   0  0  0  0  0  0  0  0  0  0  0  0  # atno 8010 bound_to 7997
  140.1298  144.4654  150.6871 H   0  0  0  0  0  0  0  0  0  0  0  0  # atno 10167 bound_to 10162
  157.1597  130.6711  149.6040 H   0  0  0  0  0  0  0  0  0  0  0  0  # atno 10718 bound_to 10713
  154.0946  135.6572  153.4858 H   0  0  0  0  0  0  0  0  0  0  0  0  # atno 10763 bound_to 10752
  153.0309  135.5210  154.7346 H   0  0  0  0  0  0  0  0  0  0  0  0  # atno 10764 bound_to 10752
  154.6480  135.2997  154.9991 H   0  0  0  0  0  0  0  0  0  0  0  0  # atno 10765 bound_to 10752
  141.1666  133.7205  156.8450 H   0  0  0  0  0  0  0  0  0  0  0  0  # atno 11005 bound_to 11000
  145.1125  139.2747  143.5630 LP  0  0  0  0  0  0  0  0  0  0  0  0  # atno 17320 bound_to 7965
  146.3531  140.0725  142.8622 LP  0  0  0  0  0  0  0  0  0  0  0  0  # atno 17321 bound_to 7965
  140.6824  143.2333  151.5350 LP  0  0  0  0  0  0  0  0  0  0  0  0  # atno 17342 bound_to 10162
  139.5525  144.2358  152.1556 LP  0  0  0  0  0  0  0  0  0  0  0  0  # atno 17343 bound_to 10162
  155.9756  130.4716  150.6470 LP  0  0  0  0  0  0  0  0  0  0  0  0  # atno 17370 bound_to 10713
  157.4144  131.0828  151.1190 LP  0  0  0  0  0  0  0  0  0  0  0  0  # atno 17371 bound_to 10713
  140.1956  134.8934  157.3110 LP  0  0  0  0  0  0  0  0  0  0  0  0  # atno 17394 bound_to 11000
  140.2243  134.3986  155.7551 LP  0  0  0  0  0  0  0  0  0  0  0  0  # atno 17395 bound_to 11000

$$$$
