AV-unprocessed.smi:1019|AV-procd|sdf|4446|dock1
  -GOLD-   22720 2403D 1   1.00000     0.00000
 Structure written by MMmdl.
 44 46  0  0  0  0  0  0  0  0  2 V2000
  147.0246  140.1337  151.8496 C   0  0  0  0  0  0  0  0  0  0  0  0
  146.4630  139.6647  153.1366 N   0  3  2  0  0  0  0  0  0  0  0  0
  146.9706  140.4501  154.2883 C   0  0  0  0  0  0  0  0  0  0  0  0
  146.1585  141.7162  154.5027 C   0  0  0  0  0  0  0  0  0  0  0  0
  146.1482  142.7219  153.5128 C   0  0  0  0  0  0  0  0  0  0  0  0
  145.3840  143.8903  153.6983 C   0  0  0  0  0  0  0  0  0  0  0  0
  144.6313  144.0602  154.8763 C   0  0  0  0  0  0  0  0  0  0  0  0
  144.6440  143.0622  155.8697 C   0  0  0  0  0  0  0  0  0  0  0  0
  145.4066  141.8927  155.6841 C   0  0  0  0  0  0  0  0  0  0  0  0
  146.5877  138.1936  153.3119 C   0  0  0  0  0  0  0  0  0  0  0  0
  145.7731  137.4265  152.2543 C   0  0  1  0  0  0  0  0  0  0  0  0
  146.5824  137.2568  151.1077 O   0  0  0  0  0  0  0  0  0  0  0  0
  145.2998  136.0479  152.7609 C   0  0  0  0  0  0  0  0  0  0  0  0
  144.9950  135.1315  151.6775 N   0  0  0  0  0  0  0  0  0  0  0  0
  144.2851  135.4030  150.5656 C   0  0  0  0  0  0  0  0  0  0  0  0
  144.1193  134.4153  149.6912 N   0  0  0  0  0  0  0  0  0  0  0  0
  144.8007  133.3797  150.3072 C   0  0  0  0  0  0  0  0  0  0  0  0
  145.0057  132.0438  149.8942 C   0  0  0  0  0  0  0  0  0  0  0  0
  145.7447  131.1526  150.6996 C   0  0  0  0  0  0  0  0  0  0  0  0
  146.2890  131.5821  151.9275 C   0  0  0  0  0  0  0  0  0  0  0  0
  146.0985  132.9086  152.3602 C   0  0  0  0  0  0  0  0  0  0  0  0
  145.3600  133.7948  151.5538 C   0  0  0  0  0  0  0  0  0  0  0  0
  148.1078  140.0075  151.8269 H   0  0  0  0  0  0  0  0  0  0  0  0
  146.8010  141.1896  151.6941 H   0  0  0  0  0  0  0  0  0  0  0  0
  146.5988  139.5814  151.0115 H   0  0  0  0  0  0  0  0  0  0  0  0
  146.9774  139.8343  155.1892 H   0  0  0  0  0  0  0  0  0  0  0  0
  148.0037  140.7498  154.1066 H   0  0  0  0  0  0  0  0  0  0  0  0
  146.7214  142.5980  152.6056 H   0  0  0  0  0  0  0  0  0  0  0  0
  145.3749  144.6569  152.9372 H   0  0  0  0  0  0  0  0  0  0  0  0
  144.0450  144.9564  155.0188 H   0  0  0  0  0  0  0  0  0  0  0  0
  144.0681  143.1941  156.7740 H   0  0  0  0  0  0  0  0  0  0  0  0
  145.4086  141.1312  156.4503 H   0  0  0  0  0  0  0  0  0  0  0  0
  147.6418  137.9135  153.2662 H   0  0  0  0  0  0  0  0  0  0  0  0
  146.2468  137.8856  154.3003 H   0  0  0  0  0  0  0  0  0  0  0  0
  144.9105  138.0208  151.9513 H   0  0  0  0  0  0  0  0  0  0  0  0
  147.4257  136.9236  151.3753 H   0  0  0  0  0  0  0  0  0  0  0  0
  146.0549  135.5939  153.4041 H   0  0  0  0  0  0  0  0  0  0  0  0
  144.4017  136.1549  153.3702 H   0  0  0  0  0  0  0  0  0  0  0  0
  143.8673  136.3829  150.3868 H   0  0  0  0  0  0  0  0  0  0  0  0
  144.5935  131.7043  148.9555 H   0  0  0  0  0  0  0  0  0  0  0  0
  145.8947  130.1340  150.3731 H   0  0  0  0  0  0  0  0  0  0  0  0
  146.8536  130.8917  152.5369 H   0  0  0  0  0  0  0  0  0  0  0  0
  146.5157  133.2389  153.2997 H   0  0  0  0  0  0  0  0  0  0  0  0
  145.4729  139.8601  153.0995 H   0  0  0  0  0  0  0  0  0  0  0  0
  1  2  1  0  0  0  0
  1 23  1  0  0  0  0
  1 24  1  0  0  0  0
  1 25  1  0  0  0  0
  2  3  1  0  0  0  0
  2 10  1  0  0  0  0
  2 44  1  0  0  0  0
  3  4  1  0  0  0  0
  3 26  1  0  0  0  0
  3 27  1  0  0  0  0
  4  9  1  0  0  0  0
  4  5  2  0  0  0  0
  5  6  1  0  0  0  0
  5 28  1  0  0  0  0
  6  7  2  0  0  0  0
  6 29  1  0  0  0  0
  7  8  1  0  0  0  0
  7 30  1  0  0  0  0
  8  9  2  0  0  0  0
  8 31  1  0  0  0  0
  9 32  1  0  0  0  0
 10 11  1  0  0  0  0
 10 33  1  0  0  0  0
 10 34  1  0  0  0  0
 11 12  1  0  0  0  0
 11 13  1  0  0  0  0
 11 35  1  0  0  0  0
 12 36  1  0  0  0  0
 13 14  1  0  0  0  0
 13 37  1  0  0  0  0
 13 38  1  0  0  0  0
 14 22  1  0  0  0  0
 14 15  1  0  0  0  0
 15 16  2  0  0  0  0
 15 39  1  0  0  0  0
 16 17  1  0  0  0  0
 17 22  2  0  0  0  0
 17 18  1  0  0  0  0
 18 19  2  0  0  0  0
 18 40  1  0  0  0  0
 19 20  1  0  0  0  0
 19 41  1  0  0  0  0
 20 21  2  0  0  0  0
 20 42  1  0  0  0  0
 21 22  1  0  0  0  0
 21 43  1  0  0  0  0
M  CHG  1   2   1
M  END
> <s_m_source_file>
AV-unprocessed.smi

> <i_m_source_file_index>
1019

> <i_lp_mmshare_version>
43012

> <i_f3d_flags>
0

> <s_epik_input>
W2NIXTFbY0hdW2NIXVtjSF1bY0hdYzFbQ0gyXU4oW0NIM10pW0NIMl1bQ0BIXShbT0hdKVtDSDJdbihbY0hdbjIpYyhjMjMpW2NIXVtjSF1bY0hdW2NIXTM=

> <s_epik_cmdline>
J2VwaWtfcHl0aG9uJywgJy1waCcsICc3LjAnLCAnLXRuJywgJzgnLCAnLW1hJywgJzIwMCcsICctbWV0YWxfYmluZGluZycsICctaW1hZScsICc8aW5maWxlLm1hZT4nLCAnLW9tYWUnLCAnPG91dGZpbGUubWFlPic=

> <r_epik_Ionization_Penalty>
0.0996557

> <r_epik_Ionization_Penalty_Charging>
0.0475377

> <r_epik_Ionization_Penalty_Neutral>
0.0521179

> <r_epik_State_Penalty>
0.0851777

> <r_epik_Charging_Adjusted_Penalty>
0.132715

> <i_epik_Tot_Q>
1

> <i_epik_Tot_abs_Q>
1

> <r_epik_Metal_State_Penalty>
0.0423478

> <b_epik_Metal_Only>
0

> <s_lp_Force_Field>
OPLS_2005

> <r_lp_Energy>
16.6774

> <b_lp_Chiralities_Consistent>
1

> <s_lp_Variant>
AV-unprocessed.smi:1019-4

> <Gold.Version>
5.8.1

> <Gold.Id.Protein>
6NUR|6NUR_protein|mol2

> <Gold.PLP.Fitness>
49.8538

> <Gold.PLP.PLP>
-39.5364

> <Gold.PLP.part.hbond>
-3.1818

> <Gold.PLP.part.metal>
0.0000

> <Gold.PLP.part.buried>
-5.5589

> <Gold.PLP.part.nonpolar>
-33.5772

> <Gold.PLP.part.repulsive>
1.8724

> <Gold.PLP.ligand.clash>
0.0000

> <Gold.PLP.ligand.torsion>
1.1614

> <Gold.PLP.Chemscore.Hbond>
3.0000

> <Gold.PLP.Chemscore.CHOScore>
1.0000

> <Gold.PLP.Chemscore.Metal>
0.0000

> <Gold.Chemscore.Hbonds>
donor molecule, donor type, donor heavy atom, donor atom, acceptor molecule, acceptor atom, score
      L1  H     2    44       P1 10175  2.00
      L1  H    12    36       P1  7948  1.00
      L1  C    15    39       P1 10171  1.00

> <Gold.PLP.Chemscore.Internal.Correction>
0.6401

> <Gold.Rescore>
     Score         DG    S(hbond)    S(metal)    S(lipo)     H(rot)  DE(clash)    DE(int)     intcor
     14.51     -18.65       2.00        0.00     107.26       2.36       2.06       2.07       ----

> <Gold.Chemscore.Fitness>
14.5143

> <Gold.Chemscore.DG>
-18.6489

> <Gold.Chemscore.ZeroCoef>
-5.4800

> <Gold.Chemscore.Hbond>
1.9954

> <Gold.Chemscore.Metal>
0.0000

> <Gold.Chemscore.Lipo>
107.2642

> <Gold.Chemscore.Internal_Hbond>
0.0000

> <Gold.Chemscore.DEClash>
2.0632

> <Gold.Chemscore.DEInternal>
2.0714

> <Gold.Chemscore.Rot>
2.3616

> <Gold.Chemscore.Internal.Correction>
   9.000000E+99

> <Gold.Chemscore.Hbonds>
donor molecule, donor type, donor heavy atom, donor atom, acceptor molecule, acceptor atom, score
      L1  H     2    44       P1 10175  0.97
      L1  H    12    36       P1  7948  1.00

> <Gold.Chemscore.Hbond.Weighted>
-6.6647

> <Gold.Chemscore.Metal.Weighted>
-0.0000

> <Gold.Chemscore.Lipo.Weighted>
-12.5499

> <Gold.Chemscore.Internal_Hbond.Weighted>
0.0000

> <Gold.Chemscore.DEClash.Weighted>
2.0632

> <Gold.Chemscore.DEInternal.Weighted>
2.0714

> <Gold.Chemscore.Rot.Weighted>
6.0457

> <Gold.Chemscore.Internal.Correction.Weighted>
   9.000000E+99

> <Gold.Protein.RotatedTorsions>
[ 6907 6896 6895 6894 ] final  -39.74 input  -60.11 | X-H torsion
[ 7974 7965 7964 7962 ] final  167.21 input  175.53 | X-H torsion
[ 8008 7997 7996 7995 ] final   69.44 input   59.86 | X-H torsion
[ 10167 10162 10161 10158 ] final -119.92 input  -65.29 | X-H torsion
[ 10718 10713 10712 10709 ] final  148.23 input   66.30 | X-H torsion
[ 10763 10752 10751 10750 ] final  178.44 input  -60.55 | X-H torsion
[ 11005 11000 10999 10996 ] final  116.83 input  -57.11 | X-H torsion

> <Gold.Protein.ActiveResidues>
 VAL166  LYS551  ARG553  GLY616  TRP617  ASP618  TYR619  PRO620  LYS621  CYS622 
 ASP623  PHE694  ASN695  SER759  ASP760  ASP761  ALA762  ILE779  LEU786  VAL792 
 PHE793  MET794  SER795  GLU796  ALA797  LYS798  CYS799  TRP800  GLU811  SER814 

> <Gold.Protein.RotatedAtoms>
  150.9867  134.9211  159.7875 H   0  0  0  0  0  0  0  0  0  0  0  0  # atno 6907 bound_to 6896
  152.5239  134.3336  159.9202 H   0  0  0  0  0  0  0  0  0  0  0  0  # atno 6908 bound_to 6896
  151.3343  133.3947  159.2700 H   0  0  0  0  0  0  0  0  0  0  0  0  # atno 6909 bound_to 6896
  144.7433  139.8728  143.6390 H   0  0  0  0  0  0  0  0  0  0  0  0  # atno 7974 bound_to 7965
  155.7236  140.3493  155.5027 H   0  0  0  0  0  0  0  0  0  0  0  0  # atno 8008 bound_to 7997
  155.9247  140.1073  157.1201 H   0  0  0  0  0  0  0  0  0  0  0  0  # atno 8009 bound_to 7997
  154.4075  140.1243  156.4711 H   0  0  0  0  0  0  0  0  0  0  0  0  # atno 8010 bound_to 7997
  140.0414  143.5150  152.2128 H   0  0  0  0  0  0  0  0  0  0  0  0  # atno 10167 bound_to 10162
  157.3112  131.0888  151.1314 H   0  0  0  0  0  0  0  0  0  0  0  0  # atno 10718 bound_to 10713
  154.5077  135.2787  155.1368 H   0  0  0  0  0  0  0  0  0  0  0  0  # atno 10763 bound_to 10752
  154.2976  135.6254  153.5415 H   0  0  0  0  0  0  0  0  0  0  0  0  # atno 10764 bound_to 10752
  152.9913  135.5689  154.5535 H   0  0  0  0  0  0  0  0  0  0  0  0  # atno 10765 bound_to 10752
  139.9054  134.9603  156.7258 H   0  0  0  0  0  0  0  0  0  0  0  0  # atno 11005 bound_to 11000
  146.1267  139.4295  143.0194 LP  0  0  0  0  0  0  0  0  0  0  0  0  # atno 17320 bound_to 7965
  145.7224  141.0070  143.1395 LP  0  0  0  0  0  0  0  0  0  0  0  0  # atno 17321 bound_to 7965
  139.6011  144.7583  151.3169 LP  0  0  0  0  0  0  0  0  0  0  0  0  # atno 17342 bound_to 10162
  140.7258  143.7007  150.7847 LP  0  0  0  0  0  0  0  0  0  0  0  0  # atno 17343 bound_to 10162
  157.2635  130.6670  149.5986 LP  0  0  0  0  0  0  0  0  0  0  0  0  # atno 17370 bound_to 10713
  155.9678  130.4501  150.5684 LP  0  0  0  0  0  0  0  0  0  0  0  0  # atno 17371 bound_to 10713
  140.6964  133.9344  155.7997 LP  0  0  0  0  0  0  0  0  0  0  0  0  # atno 17394 bound_to 11000
  141.0403  134.0630  157.3909 LP  0  0  0  0  0  0  0  0  0  0  0  0  # atno 17395 bound_to 11000

$$$$
