AV-unprocessed.smi:3314|AV-procd|sdf|12743|dock2
  -GOLD-   2272019 83D 1   1.00000     0.00000
 Structure written by MMmdl.
 37 38  0  0  0  0  0  0  0  0  3 V2000
  152.0699  144.6388  158.4096 C   0  0  0  0  0  0  0  0  0  0  0  0
  152.2326  143.1432  158.5811 C   0  0  0  0  0  0  0  0  0  0  0  0
  153.0575  142.6170  159.5933 C   0  0  0  0  0  0  0  0  0  0  0  0
  153.1709  141.2166  159.6939 C   0  0  0  0  0  0  0  0  0  0  0  0
  154.0403  140.5821  160.7590 C   0  0  0  0  0  0  0  0  0  0  0  0
  152.5256  140.3626  158.8705 N   0  0  0  0  0  0  0  0  0  0  0  0
  151.7217  140.8560  157.8986 C   0  0  0  0  0  0  0  0  0  0  0  0
  151.0953  139.9972  157.0812 N   0  5  0  0  0  0  0  0  0  0  0  0
  151.5301  139.8324  155.8080 C   0  0  0  0  0  0  0  0  0  0  0  0
  152.6809  139.8946  155.3710 O   0  0  0  0  0  0  0  0  0  0  0  0
  150.3710  139.5446  154.8431 C   0  0  2  0  0  0  0  0  0  0  0  0
  149.4503  140.7719  154.6673 C   0  0  0  0  0  0  0  0  0  0  0  0
  148.2996  140.4280  153.8014 N   0  3  2  0  0  0  0  0  0  0  0  0
  147.4069  141.5800  153.5539 C   0  0  0  0  0  0  0  0  0  0  0  0
  147.5780  139.2472  154.3276 C   0  0  0  0  0  0  0  0  0  0  0  0
  148.5497  138.0719  154.5236 C   0  0  0  0  0  0  0  0  0  0  0  0
  149.6093  138.4689  155.3840 O   0  0  0  0  0  0  0  0  0  0  0  0
  151.5600  142.2501  157.7232 C   0  0  0  0  0  0  0  0  0  0  0  0
  152.4856  145.1819  159.2587 H   0  0  0  0  0  0  0  0  0  0  0  0
  151.0146  144.8986  158.3237 H   0  0  0  0  0  0  0  0  0  0  0  0
  152.5813  144.9711  157.5059 H   0  0  0  0  0  0  0  0  0  0  0  0
  153.5897  143.2675  160.2718 H   0  0  0  0  0  0  0  0  0  0  0  0
  154.7223  141.3118  161.1959 H   0  0  0  0  0  0  0  0  0  0  0  0
  154.6368  139.7732  160.3362 H   0  0  0  0  0  0  0  0  0  0  0  0
  153.4193  140.1724  161.5559 H   0  0  0  0  0  0  0  0  0  0  0  0
  150.7569  139.2472  153.8642 H   0  0  0  0  0  0  0  0  0  0  0  0
  149.0802  141.1217  155.6331 H   0  0  0  0  0  0  0  0  0  0  0  0
  150.0084  141.5954  154.2195 H   0  0  0  0  0  0  0  0  0  0  0  0
  146.9555  141.9326  154.4824 H   0  0  0  0  0  0  0  0  0  0  0  0
  146.6065  141.3053  152.8665 H   0  0  0  0  0  0  0  0  0  0  0  0
  147.9610  142.4059  153.1070 H   0  0  0  0  0  0  0  0  0  0  0  0
  147.1039  139.5000  155.2773 H   0  0  0  0  0  0  0  0  0  0  0  0
  146.7839  138.9614  153.6368 H   0  0  0  0  0  0  0  0  0  0  0  0
  148.0298  137.2251  154.9720 H   0  0  0  0  0  0  0  0  0  0  0  0
  148.9486  137.7300  153.5673 H   0  0  0  0  0  0  0  0  0  0  0  0
  150.9234  142.6314  156.9377 H   0  0  0  0  0  0  0  0  0  0  0  0
  148.6841  140.1584  152.9070 H   0  0  0  0  0  0  0  0  0  0  0  0
  1  2  1  0  0  0  0
  1 19  1  0  0  0  0
  1 20  1  0  0  0  0
  1 21  1  0  0  0  0
  2 18  2  0  0  0  0
  2  3  1  0  0  0  0
  3  4  2  0  0  0  0
  3 22  1  0  0  0  0
  4  5  1  0  0  0  0
  4  6  1  0  0  0  0
  5 23  1  0  0  0  0
  5 24  1  0  0  0  0
  5 25  1  0  0  0  0
  6  7  2  0  0  0  0
  7  8  1  0  0  0  0
  7 18  1  0  0  0  0
  8  9  1  0  0  0  0
  9 10  2  0  0  0  0
  9 11  1  0  0  0  0
 11 17  1  0  0  0  0
 11 12  1  0  0  0  0
 11 26  1  0  0  0  0
 12 13  1  0  0  0  0
 12 27  1  0  0  0  0
 12 28  1  0  0  0  0
 13 14  1  0  0  0  0
 13 15  1  0  0  0  0
 13 37  1  0  0  0  0
 14 29  1  0  0  0  0
 14 30  1  0  0  0  0
 14 31  1  0  0  0  0
 15 16  1  0  0  0  0
 15 32  1  0  0  0  0
 15 33  1  0  0  0  0
 16 17  1  0  0  0  0
 16 34  1  0  0  0  0
 16 35  1  0  0  0  0
 18 36  1  0  0  0  0
M  CHG  1   8  -1
M  CHG  1  13   1
M  END
> <s_m_source_file>
AV-unprocessed.smi

> <i_m_source_file_index>
3314

> <i_lp_mmshare_version>
43012

> <i_f3d_flags>
0

> <s_epik_input>
W0NIM11jMVtjSF1jKFtDSDNdKW5jKFtjSF0xKVtOSF1DKD1PKVtDQEBIXTJbQ0gyXU4oW0NIM10pW0NIMl1bQ0gyXU8y

> <s_epik_cmdline>
J2VwaWtfcHl0aG9uJywgJy1waCcsICc3LjAnLCAnLXRuJywgJzgnLCAnLW1hJywgJzIwMCcsICctbWV0YWxfYmluZGluZycsICctaW1hZScsICc8aW5maWxlLm1hZT4nLCAnLW9tYWUnLCAnPG91dGZpbGUubWFlPic=

> <r_epik_Ionization_Penalty>
13.8964

> <r_epik_Ionization_Penalty_Charging>
7.88995

> <r_epik_Ionization_Penalty_Neutral>
6.00641

> <r_epik_State_Penalty>
8.39989

> <r_epik_Charging_Adjusted_Penalty>
16.2898

> <i_epik_Tot_Q>
0

> <i_epik_Tot_abs_Q>
2

> <r_epik_Metal_State_Penalty>
4.31145

> <b_epik_Metal_Only>
1

> <s_lp_Force_Field>
OPLS_2005

> <r_lp_Energy>
9.48457

> <b_lp_Chiralities_Consistent>
1

> <s_lp_Variant>
AV-unprocessed.smi:3314-13

> <Gold.Version>
5.8.1

> <Gold.Id.Protein>
6NUR|6NUR_protein|mol2

> <Gold.PLP.Fitness>
41.3768

> <Gold.PLP.PLP>
-37.3414

> <Gold.PLP.part.hbond>
-2.9441

> <Gold.PLP.part.metal>
0.0000

> <Gold.PLP.part.buried>
-4.2487

> <Gold.PLP.part.nonpolar>
-30.8555

> <Gold.PLP.part.repulsive>
0.1693

> <Gold.PLP.ligand.clash>
0.0000

> <Gold.PLP.ligand.torsion>
1.0620

> <Gold.PLP.Chemscore.Hbond>
2.0464

> <Gold.PLP.Chemscore.CHOScore>
0.0000

> <Gold.PLP.Chemscore.Metal>
0.0000

> <Gold.Chemscore.Hbonds>
donor molecule, donor type, donor heavy atom, donor atom, acceptor molecule, acceptor atom, score
      L1  H    13    37       P1  7957  1.00
      P1  H  7989  7998       L1    10  0.04
      P1  H  7997  8009       L1    10  1.00

> <Gold.PLP.Chemscore.Internal.Correction>
0.0201

> <Gold.Rescore>
     Score         DG    S(hbond)    S(metal)    S(lipo)     H(rot)  DE(clash)    DE(int)     intcor
     19.61     -20.77       1.97        0.00      96.48       1.00       0.12       1.04       ----

> <Gold.Chemscore.Fitness>
19.6086

> <Gold.Chemscore.DG>
-20.7740

> <Gold.Chemscore.ZeroCoef>
-5.4800

> <Gold.Chemscore.Hbond>
1.9659

> <Gold.Chemscore.Metal>
0.0000

> <Gold.Chemscore.Lipo>
96.4769

> <Gold.Chemscore.Internal_Hbond>
0.0000

> <Gold.Chemscore.DEClash>
0.1234

> <Gold.Chemscore.DEInternal>
1.0419

> <Gold.Chemscore.Rot>
1.0000

> <Gold.Chemscore.Internal.Correction>
   9.000000E+99

> <Gold.Chemscore.Hbonds>
donor molecule, donor type, donor heavy atom, donor atom, acceptor molecule, acceptor atom, score
      L1  H    13    37       P1  7957  0.98
      P1  H  7997  8009       L1    10  1.00

> <Gold.Chemscore.Hbond.Weighted>
-6.5662

> <Gold.Chemscore.Metal.Weighted>
-0.0000

> <Gold.Chemscore.Lipo.Weighted>
-11.2878

> <Gold.Chemscore.Internal_Hbond.Weighted>
0.0000

> <Gold.Chemscore.DEClash.Weighted>
0.1234

> <Gold.Chemscore.DEInternal.Weighted>
1.0419

> <Gold.Chemscore.Rot.Weighted>
2.5600

> <Gold.Chemscore.Internal.Correction.Weighted>
   9.000000E+99

> <Gold.Protein.RotatedTorsions>
[ 6907 6896 6895 6894 ] final  129.43 input  -60.11 | X-H torsion
[ 7974 7965 7964 7962 ] final -172.95 input  175.53 | X-H torsion
[ 8008 7997 7996 7995 ] final -134.67 input   59.86 | X-H torsion
[ 10167 10162 10161 10158 ] final  137.59 input  -65.29 | X-H torsion
[ 10718 10713 10712 10709 ] final  130.25 input   66.30 | X-H torsion
[ 10763 10752 10751 10750 ] final -108.26 input  -60.55 | X-H torsion
[ 11005 11000 10999 10996 ] final -124.44 input  -57.11 | X-H torsion

> <Gold.Protein.ActiveResidues>
 VAL166  LYS551  ARG553  GLY616  TRP617  ASP618  TYR619  PRO620  LYS621  CYS622 
 ASP623  PHE694  ASN695  SER759  ASP760  ASP761  ALA762  ILE779  LEU786  VAL792 
 PHE793  MET794  SER795  GLU796  ALA797  LYS798  CYS799  TRP800  GLU811  SER814 

> <Gold.Protein.RotatedAtoms>
  152.3624  133.6314  159.6024 H   0  0  0  0  0  0  0  0  0  0  0  0  # atno 6907 bound_to 6896
  150.7610  133.9402  159.3462 H   0  0  0  0  0  0  0  0  0  0  0  0  # atno 6908 bound_to 6896
  151.7238  135.0890  160.0340 H   0  0  0  0  0  0  0  0  0  0  0  0  # atno 6909 bound_to 6896
  144.7142  140.1695  143.6369 H   0  0  0  0  0  0  0  0  0  0  0  0  # atno 7974 bound_to 7965
  155.3659  140.0485  157.3046 H   0  0  0  0  0  0  0  0  0  0  0  0  # atno 8008 bound_to 7997
  154.5154  140.2206  155.9038 H   0  0  0  0  0  0  0  0  0  0  0  0  # atno 8009 bound_to 7997
  156.1631  140.3112  155.8847 H   0  0  0  0  0  0  0  0  0  0  0  0  # atno 8010 bound_to 7997
  139.5139  144.6401  151.5592 H   0  0  0  0  0  0  0  0  0  0  0  0  # atno 10167 bound_to 10162
  157.5079  131.1096  150.9334 H   0  0  0  0  0  0  0  0  0  0  0  0  # atno 10718 bound_to 10713
  154.8125  135.4644  154.0554 H   0  0  0  0  0  0  0  0  0  0  0  0  # atno 10763 bound_to 10752
  153.1973  135.6864  153.8282 H   0  0  0  0  0  0  0  0  0  0  0  0  # atno 10764 bound_to 10752
  153.7779  135.3261  155.3339 H   0  0  0  0  0  0  0  0  0  0  0  0  # atno 10765 bound_to 10752
  140.9841  134.0632  157.3732 H   0  0  0  0  0  0  0  0  0  0  0  0  # atno 11005 bound_to 11000
  145.8957  139.2401  143.1523 LP  0  0  0  0  0  0  0  0  0  0  0  0  # atno 17320 bound_to 7965
  145.9860  140.8643  143.0090 LP  0  0  0  0  0  0  0  0  0  0  0  0  # atno 17321 bound_to 7965
  140.6164  143.9340  150.6492 LP  0  0  0  0  0  0  0  0  0  0  0  0  # atno 17342 bound_to 10162
  140.2599  143.3531  152.1332 LP  0  0  0  0  0  0  0  0  0  0  0  0  # atno 17343 bound_to 10162
  156.9984  130.5590  149.5309 LP  0  0  0  0  0  0  0  0  0  0  0  0  # atno 17370 bound_to 10713
  156.0270  130.5363  150.8434 LP  0  0  0  0  0  0  0  0  0  0  0  0  # atno 17371 bound_to 10713
  139.8963  135.0145  156.7043 LP  0  0  0  0  0  0  0  0  0  0  0  0  # atno 17394 bound_to 11000
  140.7142  133.9197  155.8104 LP  0  0  0  0  0  0  0  0  0  0  0  0  # atno 17395 bound_to 11000

$$$$
