AV-unprocessed.smi:2124|AV-procd|sdf|8663|dock5
  -GOLD-   2272011413D 1   1.00000     0.00000
 Structure written by MMmdl.
 47 49  0  0  0  0  0  0  0  0  1 V2000
  157.4989  135.9814  162.5571 C   0  0  0  0  0  0  0  0  0  0  0  0
  156.2503  136.4689  161.8551 C   0  0  0  0  0  0  0  0  0  0  0  0
  155.8934  137.7645  162.1911 N   0  0  0  0  0  0  0  0  0  0  0  0
  154.7641  138.2995  161.5975 C   0  0  0  0  0  0  0  0  0  0  0  0
  154.4418  139.7218  162.0219 C   0  0  0  0  0  0  0  0  0  0  0  0
  154.0259  137.5790  160.7153 C   0  0  0  0  0  0  0  0  0  0  0  0
  152.7675  138.1291  160.0446 C   0  0  0  0  0  0  0  0  0  0  0  0
  152.9510  139.3842  159.1870 C   0  0  0  0  0  0  0  0  0  0  0  0
  154.0775  139.8060  158.9231 O   0  0  0  0  0  0  0  0  0  0  0  0
  151.8240  139.9708  158.7562 N   0  0  0  0  0  0  0  0  0  0  0  0
  151.7563  141.1797  157.9378 C   0  0  1  0  0  0  0  0  0  0  0  0
  150.7241  140.9701  156.8148 C   0  0  0  0  0  0  0  0  0  0  0  0
  151.4152  142.4007  158.8266 C   0  0  2  0  0  0  0  0  0  0  0  0
  151.1740  143.7026  158.0237 C   0  0  0  0  0  0  0  0  0  0  0  0
  152.1438  144.7065  158.6725 C   0  0  1  0  0  0  0  0  0  0  0  0
  151.6555  145.0528  160.0906 C   0  0  0  0  0  0  0  0  0  0  0  0
  151.9535  143.7609  160.8741 C   0  0  0  0  0  0  0  0  0  0  0  0
  152.5473  142.8365  159.7934 C   0  0  2  0  0  0  0  0  0  0  0  0
  153.3526  143.8257  158.9572 C   0  0  0  0  0  0  0  0  0  0  0  0
  154.4549  136.1962  160.3994 C   0  0  0  0  0  0  0  0  0  0  0  0
  153.8215  135.4887  159.6172 O   0  0  0  0  0  0  0  0  0  0  0  0
  155.6115  135.7024  161.0241 N   0  0  0  0  0  0  0  0  0  0  0  0
  156.4115  138.3338  162.8448 H   0  0  0  0  0  0  0  0  0  0  0  0
  157.7085  134.9415  162.3036 H   0  0  0  0  0  0  0  0  0  0  0  0
  157.3785  136.0496  163.6388 H   0  0  0  0  0  0  0  0  0  0  0  0
  158.3589  136.5843  162.2642 H   0  0  0  0  0  0  0  0  0  0  0  0
  153.4400  139.7752  162.4490 H   0  0  0  0  0  0  0  0  0  0  0  0
  154.4881  140.3943  161.1651 H   0  0  0  0  0  0  0  0  0  0  0  0
  155.1451  140.0865  162.7719 H   0  0  0  0  0  0  0  0  0  0  0  0
  151.9948  138.3283  160.7883 H   0  0  0  0  0  0  0  0  0  0  0  0
  152.3463  137.3494  159.4096 H   0  0  0  0  0  0  0  0  0  0  0  0
  150.9437  139.5545  159.0231 H   0  0  0  0  0  0  0  0  0  0  0  0
  152.7326  141.3502  157.4806 H   0  0  0  0  0  0  0  0  0  0  0  0
  150.6683  141.8335  156.1524 H   0  0  0  0  0  0  0  0  0  0  0  0
  149.7265  140.7990  157.2206 H   0  0  0  0  0  0  0  0  0  0  0  0
  150.9824  140.1086  156.1982 H   0  0  0  0  0  0  0  0  0  0  0  0
  150.5230  142.1552  159.4053 H   0  0  0  0  0  0  0  0  0  0  0  0
  151.4271  143.5777  156.9701 H   0  0  0  0  0  0  0  0  0  0  0  0
  150.1367  144.0351  158.0755 H   0  0  0  0  0  0  0  0  0  0  0  0
  152.3461  145.5809  158.0533 H   0  0  0  0  0  0  0  0  0  0  0  0
  152.2198  145.8900  160.5032 H   0  0  0  0  0  0  0  0  0  0  0  0
  150.5980  145.3184  160.1101 H   0  0  0  0  0  0  0  0  0  0  0  0
  152.6826  143.9517  161.6628 H   0  0  0  0  0  0  0  0  0  0  0  0
  151.0619  143.3410  161.3410 H   0  0  0  0  0  0  0  0  0  0  0  0
  153.1302  142.0174  160.2144 H   0  0  0  0  0  0  0  0  0  0  0  0
  153.7906  143.3856  158.0599 H   0  0  0  0  0  0  0  0  0  0  0  0
  154.1351  144.3347  159.5233 H   0  0  0  0  0  0  0  0  0  0  0  0
  1 24  1  0  0  0  0
  1 25  1  0  0  0  0
  1 26  1  0  0  0  0
  1  2  1  0  0  0  0
  2  3  1  0  0  0  0
  2 22  2  0  0  0  0
  3  4  1  0  0  0  0
  3 23  1  0  0  0  0
  4  6  2  0  0  0  0
  4  5  1  0  0  0  0
  5 27  1  0  0  0  0
  5 28  1  0  0  0  0
  5 29  1  0  0  0  0
  6 20  1  0  0  0  0
  6  7  1  0  0  0  0
  7  8  1  0  0  0  0
  7 30  1  0  0  0  0
  7 31  1  0  0  0  0
  8  9  2  0  0  0  0
  8 10  1  0  0  0  0
 10 11  1  0  0  0  0
 10 32  1  0  0  0  0
 11 12  1  0  0  0  0
 11 13  1  0  0  0  0
 11 33  1  0  0  0  0
 12 34  1  0  0  0  0
 12 35  1  0  0  0  0
 12 36  1  0  0  0  0
 13 18  1  0  0  0  0
 13 14  1  0  0  0  0
 13 37  1  0  0  0  0
 14 15  1  0  0  0  0
 14 38  1  0  0  0  0
 14 39  1  0  0  0  0
 15 19  1  0  0  0  0
 15 16  1  0  0  0  0
 15 40  1  0  0  0  0
 16 17  1  0  0  0  0
 16 41  1  0  0  0  0
 16 42  1  0  0  0  0
 17 18  1  0  0  0  0
 17 43  1  0  0  0  0
 17 44  1  0  0  0  0
 18 19  1  0  0  0  0
 18 45  1  0  0  0  0
 19 46  1  0  0  0  0
 19 47  1  0  0  0  0
 20 21  2  0  0  0  0
 20 22  1  0  0  0  0
M  END
> <s_m_source_file>
AV-unprocessed.smi

> <i_m_source_file_index>
2124

> <i_lp_mmshare_version>
43012

> <i_f3d_flags>
0

> <s_epik_input>
W0NIM11jMW5jKFtDSDNdKWMoYyg9TylbbkhdMSlbQ0gyXUMoPU8pW05IXVtDQEhdKFtDSDNdKVtDQEhdKFtDSDJdW0NASF0yMylbQ0BIXShbQ0gyXTMpW0NIMl1bQ0gyXTI=

> <s_epik_cmdline>
J2VwaWtfcHl0aG9uJywgJy1waCcsICc3LjAnLCAnLXRuJywgJzgnLCAnLW1hJywgJzIwMCcsICctbWV0YWxfYmluZGluZycsICctaW1hZScsICc8aW5maWxlLm1hZT4nLCAnLW9tYWUnLCAnPG91dGZpbGUubWFlPic=

> <r_lp_tautomer_probability>
0.156392

> <r_epik_Ionization_Penalty>
0.0139374

> <r_epik_Ionization_Penalty_Charging>
0.0138122

> <r_epik_Ionization_Penalty_Neutral>
0.000125146

> <r_epik_State_Penalty>
1.15342

> <r_epik_Charging_Adjusted_Penalty>
1.16723

> <i_epik_Tot_Q>
0

> <i_epik_Tot_abs_Q>
0

> <r_epik_Metal_State_Penalty>
1.3173

> <b_epik_Metal_Only>
0

> <s_lp_Force_Field>
OPLS_2005

> <r_lp_Energy>
55.952

> <b_lp_Chiralities_Consistent>
1

> <s_lp_Variant>
AV-unprocessed.smi:2124-14

> <Gold.Version>
5.8.1

> <Gold.Id.Protein>
6NUR|6NUR_protein|mol2

> <Gold.PLP.Fitness>
44.1687

> <Gold.PLP.PLP>
-38.9231

> <Gold.PLP.part.hbond>
-2.0000

> <Gold.PLP.part.metal>
0.0000

> <Gold.PLP.part.buried>
-4.5970

> <Gold.PLP.part.nonpolar>
-31.5974

> <Gold.PLP.part.repulsive>
0.1270

> <Gold.PLP.ligand.clash>
0.0000

> <Gold.PLP.ligand.torsion>
0.3878

> <Gold.PLP.Chemscore.Hbond>
2.0000

> <Gold.PLP.Chemscore.CHOScore>
0.0000

> <Gold.PLP.Chemscore.Metal>
0.0000

> <Gold.Chemscore.Hbonds>
donor molecule, donor type, donor heavy atom, donor atom, acceptor molecule, acceptor atom, score
      P1  H  6896  6908       L1    21  1.00
      P1  H  7997  8008       L1     9  1.00

> <Gold.PLP.Chemscore.Internal.Correction>
0.0211

> <Gold.Rescore>
     Score         DG    S(hbond)    S(metal)    S(lipo)     H(rot)  DE(clash)    DE(int)     intcor
     21.95     -22.28       1.99        0.00     122.89       1.65       0.03       0.30       ----

> <Gold.Chemscore.Fitness>
21.9485

> <Gold.Chemscore.DG>
-22.2794

> <Gold.Chemscore.ZeroCoef>
-5.4800

> <Gold.Chemscore.Hbond>
1.9921

> <Gold.Chemscore.Metal>
0.0000

> <Gold.Chemscore.Lipo>
122.8933

> <Gold.Chemscore.Internal_Hbond>
0.0000

> <Gold.Chemscore.DEClash>
0.0341

> <Gold.Chemscore.DEInternal>
0.2969

> <Gold.Chemscore.Rot>
1.6534

> <Gold.Chemscore.Internal.Correction>
   9.000000E+99

> <Gold.Chemscore.Hbonds>
donor molecule, donor type, donor heavy atom, donor atom, acceptor molecule, acceptor atom, score
      P1  H  6896  6908       L1    21  0.99
      P1  H  7997  8008       L1     9  0.99

> <Gold.Chemscore.Hbond.Weighted>
-6.6535

> <Gold.Chemscore.Metal.Weighted>
-0.0000

> <Gold.Chemscore.Lipo.Weighted>
-14.3785

> <Gold.Chemscore.Internal_Hbond.Weighted>
0.0000

> <Gold.Chemscore.DEClash.Weighted>
0.0341

> <Gold.Chemscore.DEInternal.Weighted>
0.2969

> <Gold.Chemscore.Rot.Weighted>
4.2326

> <Gold.Chemscore.Internal.Correction.Weighted>
   9.000000E+99

> <Gold.Protein.RotatedTorsions>
[ 6907 6896 6895 6894 ] final  -52.49 input  -60.11 | X-H torsion
[ 7974 7965 7964 7962 ] final -104.43 input  175.53 | X-H torsion
[ 8008 7997 7996 7995 ] final -102.24 input   59.86 | X-H torsion
[ 10167 10162 10161 10158 ] final  -71.74 input  -65.29 | X-H torsion
[ 10718 10713 10712 10709 ] final -131.41 input   66.30 | X-H torsion
[ 10763 10752 10751 10750 ] final -148.56 input  -60.55 | X-H torsion
[ 11005 11000 10999 10996 ] final  152.75 input  -57.11 | X-H torsion

> <Gold.Protein.ActiveResidues>
 VAL166  LYS551  ARG553  GLY616  TRP617  ASP618  TYR619  PRO620  LYS621  CYS622 
 ASP623  PHE694  ASN695  SER759  ASP760  ASP761  ALA762  ILE779  LEU786  VAL792 
 PHE793  MET794  SER795  GLU796  ALA797  LYS798  CYS799  TRP800  GLU811  SER814 

> <Gold.Protein.RotatedAtoms>
  150.8513  134.7838  159.7010 H   0  0  0  0  0  0  0  0  0  0  0  0  # atno 6907 bound_to 6896
  152.4577  134.5252  159.9804 H   0  0  0  0  0  0  0  0  0  0  0  0  # atno 6908 bound_to 6896
  151.5372  133.3401  159.2964 H   0  0  0  0  0  0  0  0  0  0  0  0  # atno 6909 bound_to 6896
  145.2433  140.9212  143.3137 H   0  0  0  0  0  0  0  0  0  0  0  0  # atno 7974 bound_to 7965
  154.8539  140.0429  157.1621 H   0  0  0  0  0  0  0  0  0  0  0  0  # atno 8008 bound_to 7997
  154.8913  140.2987  155.5348 H   0  0  0  0  0  0  0  0  0  0  0  0  # atno 8009 bound_to 7997
  156.2997  140.2393  156.3929 H   0  0  0  0  0  0  0  0  0  0  0  0  # atno 8010 bound_to 7997
  140.5248  143.2327  151.7366 H   0  0  0  0  0  0  0  0  0  0  0  0  # atno 10167 bound_to 10162
  156.2242  130.6997  151.0788 H   0  0  0  0  0  0  0  0  0  0  0  0  # atno 10718 bound_to 10713
  154.8226  135.3331  154.6992 H   0  0  0  0  0  0  0  0  0  0  0  0  # atno 10763 bound_to 10752
  153.7623  135.6931  153.4927 H   0  0  0  0  0  0  0  0  0  0  0  0  # atno 10764 bound_to 10752
  153.2102  135.4485  155.0319 H   0  0  0  0  0  0  0  0  0  0  0  0  # atno 10765 bound_to 10752
  140.1336  134.8786  157.2236 H   0  0  0  0  0  0  0  0  0  0  0  0  # atno 11005 bound_to 11000
  144.9569  139.4021  143.6375 LP  0  0  0  0  0  0  0  0  0  0  0  0  # atno 17320 bound_to 7965
  146.3323  139.8604  142.8857 LP  0  0  0  0  0  0  0  0  0  0  0  0  # atno 17321 bound_to 7965
  139.4935  144.4201  151.9987 LP  0  0  0  0  0  0  0  0  0  0  0  0  # atno 17342 bound_to 10162
  140.3300  144.3328  150.5989 LP  0  0  0  0  0  0  0  0  0  0  0  0  # atno 17343 bound_to 10162
  157.7102  131.0738  150.6527 LP  0  0  0  0  0  0  0  0  0  0  0  0  # atno 17370 bound_to 10713
  156.6591  130.4507  149.5693 LP  0  0  0  0  0  0  0  0  0  0  0  0  # atno 17371 bound_to 10713
  140.2811  134.3348  155.7343 LP  0  0  0  0  0  0  0  0  0  0  0  0  # atno 17394 bound_to 11000
  141.2174  133.7479  156.9365 LP  0  0  0  0  0  0  0  0  0  0  0  0  # atno 17395 bound_to 11000

$$$$
