AV-unprocessed.smi:973|AV-procd|sdf|4299|dock2
  -GOLD-   22720 2203D 1   1.00000     0.00000
 Structure written by MMmdl.
 41 42  0  0  0  0  0  0  0  0  1 V2000
  152.4282  139.7992  155.4309 C   0  0  0  0  0  0  0  0  0  0  0  0
  151.1047  140.1220  154.8914 N   0  0  0  0  0  0  0  0  0  0  0  0
  150.6318  141.4332  155.0705 C   0  0  0  0  0  0  0  0  0  0  0  0
  149.4321  141.8167  154.6128 C   0  0  0  0  0  0  0  0  0  0  0  0
  148.6185  140.8453  153.9217 C   0  0  0  0  0  0  0  0  0  0  0  0
  149.0514  139.5713  153.7468 C   0  0  0  0  0  0  0  0  0  0  0  0
  148.3267  138.5682  153.0796 N   0  0  0  0  0  0  0  0  0  0  0  0
  146.9951  138.3867  153.0062 C   0  0  0  0  0  0  0  0  0  0  0  0
  146.1412  139.0800  153.5588 O   0  0  0  0  0  0  0  0  0  0  0  0
  146.6990  137.3156  152.2561 N   0  0  0  0  0  0  0  0  0  0  0  0
  145.3530  136.8148  152.0026 C   0  0  0  0  0  0  0  0  0  0  0  0
  145.3263  135.8241  150.8255 C   0  0  0  0  0  0  0  0  0  0  0  0
  145.4337  134.3768  151.2769 C   0  0  0  0  0  0  0  0  0  0  0  0
  146.4489  133.9447  152.0501 C   0  0  0  0  0  0  0  0  0  0  0  0
  146.6171  132.5084  152.5139 C   0  0  0  0  0  0  0  0  0  0  0  0
  145.7162  131.5327  151.7383 C   0  0  0  0  0  0  0  0  0  0  0  0
  144.3036  132.1040  151.5649 C   0  0  0  0  0  0  0  0  0  0  0  0
  144.3292  133.4396  150.8001 C   0  0  0  0  0  0  0  0  0  0  0  0
  150.3787  139.1613  154.2457 C   0  0  0  0  0  0  0  0  0  0  0  0
  150.8208  138.0191  154.0980 O   0  0  0  0  0  0  0  0  0  0  0  0
  152.9126  140.6558  155.9006 H   0  0  0  0  0  0  0  0  0  0  0  0
  153.0909  139.4465  154.6393 H   0  0  0  0  0  0  0  0  0  0  0  0
  152.3516  139.0151  156.1854 H   0  0  0  0  0  0  0  0  0  0  0  0
  151.2980  142.1003  155.5978 H   0  0  0  0  0  0  0  0  0  0  0  0
  149.0813  142.8278  154.7588 H   0  0  0  0  0  0  0  0  0  0  0  0
  147.6678  141.1804  153.5398 H   0  0  0  0  0  0  0  0  0  0  0  0
  148.8991  137.8680  152.6308 H   0  0  0  0  0  0  0  0  0  0  0  0
  147.4614  136.7988  151.8426 H   0  0  0  0  0  0  0  0  0  0  0  0
  145.0052  136.3286  152.9140 H   0  0  0  0  0  0  0  0  0  0  0  0
  144.6733  137.6484  151.8165 H   0  0  0  0  0  0  0  0  0  0  0  0
  144.4036  135.9531  150.2575 H   0  0  0  0  0  0  0  0  0  0  0  0
  146.1426  136.0369  150.1344 H   0  0  0  0  0  0  0  0  0  0  0  0
  147.2046  134.6413  152.3835 H   0  0  0  0  0  0  0  0  0  0  0  0
  147.6615  132.2148  152.4047 H   0  0  0  0  0  0  0  0  0  0  0  0
  146.3857  132.4697  153.5788 H   0  0  0  0  0  0  0  0  0  0  0  0
  146.1474  131.3410  150.7548 H   0  0  0  0  0  0  0  0  0  0  0  0
  145.6783  130.5714  152.2517 H   0  0  0  0  0  0  0  0  0  0  0  0
  143.6665  131.3889  151.0436 H   0  0  0  0  0  0  0  0  0  0  0  0
  143.8563  132.2562  152.5480 H   0  0  0  0  0  0  0  0  0  0  0  0
  143.3622  133.9338  150.8995 H   0  0  0  0  0  0  0  0  0  0  0  0
  144.4787  133.2491  149.7370 H   0  0  0  0  0  0  0  0  0  0  0  0
  1  2  1  0  0  0  0
  1 21  1  0  0  0  0
  1 22  1  0  0  0  0
  1 23  1  0  0  0  0
  2 19  1  0  0  0  0
  2  3  1  0  0  0  0
  3  4  2  0  0  0  0
  3 24  1  0  0  0  0
  4  5  1  0  0  0  0
  4 25  1  0  0  0  0
  5  6  2  0  0  0  0
  5 26  1  0  0  0  0
  6  7  1  0  0  0  0
  6 19  1  0  0  0  0
  7  8  1  0  0  0  0
  7 27  1  0  0  0  0
  8  9  2  0  0  0  0
  8 10  1  0  0  0  0
 10 11  1  0  0  0  0
 10 28  1  0  0  0  0
 11 12  1  0  0  0  0
 11 29  1  0  0  0  0
 11 30  1  0  0  0  0
 12 13  1  0  0  0  0
 12 31  1  0  0  0  0
 12 32  1  0  0  0  0
 13 18  1  0  0  0  0
 13 14  2  0  0  0  0
 14 15  1  0  0  0  0
 14 33  1  0  0  0  0
 15 16  1  0  0  0  0
 15 34  1  0  0  0  0
 15 35  1  0  0  0  0
 16 17  1  0  0  0  0
 16 36  1  0  0  0  0
 16 37  1  0  0  0  0
 17 18  1  0  0  0  0
 17 38  1  0  0  0  0
 17 39  1  0  0  0  0
 18 40  1  0  0  0  0
 18 41  1  0  0  0  0
 19 20  2  0  0  0  0
M  END
> <s_m_source_file>
AV-unprocessed.smi

> <i_m_source_file_index>
973

> <i_lp_mmshare_version>
43012

> <i_f3d_flags>
0

> <s_epik_input>
W0NIM11uMVtjSF1bY0hdW2NIXWMoYzE9TylbTkhdQyg9TylbTkhdW0NIMl1bQ0gyXUMyPVtDSF1bQ0gyXVtDSDJdW0NIMl1bQ0gyXTI=

> <s_epik_cmdline>
J2VwaWtfcHl0aG9uJywgJy1waCcsICc3LjAnLCAnLXRuJywgJzgnLCAnLW1hJywgJzIwMCcsICctbWV0YWxfYmluZGluZycsICctaW1hZScsICc8aW5maWxlLm1hZT4nLCAnLW9tYWUnLCAnPG91dGZpbGUubWFlPic=

> <r_lp_tautomer_probability>
1

> <r_epik_Ionization_Penalty>
2.5397e-05

> <r_epik_Ionization_Penalty_Charging>
4.7783e-06

> <r_epik_Ionization_Penalty_Neutral>
2.06187e-05

> <r_epik_State_Penalty>
-0

> <r_epik_Charging_Adjusted_Penalty>
4.7783e-06

> <i_epik_Tot_Q>
0

> <i_epik_Tot_abs_Q>
0

> <r_epik_Metal_State_Penalty>
-0

> <b_epik_Metal_Only>
0

> <s_lp_Force_Field>
OPLS_2005

> <r_lp_Energy>
20.1854

> <b_lp_Chiralities_Consistent>
1

> <s_lp_Variant>
AV-unprocessed.smi:973-1

> <Gold.Version>
5.8.1

> <Gold.Id.Protein>
6NUR|6NUR_protein|mol2

> <Gold.PLP.Fitness>
45.0458

> <Gold.PLP.PLP>
-40.2062

> <Gold.PLP.part.hbond>
-2.9183

> <Gold.PLP.part.metal>
0.0000

> <Gold.PLP.part.buried>
-0.4236

> <Gold.PLP.part.nonpolar>
-37.5909

> <Gold.PLP.part.repulsive>
0.5025

> <Gold.PLP.ligand.clash>
0.0000

> <Gold.PLP.ligand.torsion>
0.5589

> <Gold.PLP.Chemscore.Hbond>
1.9760

> <Gold.PLP.Chemscore.CHOScore>
0.0000

> <Gold.PLP.Chemscore.Metal>
0.0000

> <Gold.Chemscore.Hbonds>
donor molecule, donor type, donor heavy atom, donor atom, acceptor molecule, acceptor atom, score
      L1  H     7    27       P1  7948  0.96
      L1  H    10    28       P1  7948  1.00

> <Gold.PLP.Chemscore.Internal.Correction>
0.0295

> <Gold.Rescore>
     Score         DG    S(hbond)    S(metal)    S(lipo)     H(rot)  DE(clash)    DE(int)     intcor
     17.81     -18.64       1.90        0.00      88.66       1.40       0.07       0.76       ----

> <Gold.Chemscore.Fitness>
17.8084

> <Gold.Chemscore.DG>
-18.6358

> <Gold.Chemscore.ZeroCoef>
-5.4800

> <Gold.Chemscore.Hbond>
1.9031

> <Gold.Chemscore.Metal>
0.0000

> <Gold.Chemscore.Lipo>
88.6563

> <Gold.Chemscore.Internal_Hbond>
0.0000

> <Gold.Chemscore.DEClash>
0.0674

> <Gold.Chemscore.DEInternal>
0.7601

> <Gold.Chemscore.Rot>
1.3958

> <Gold.Chemscore.Internal.Correction>
   9.000000E+99

> <Gold.Chemscore.Hbonds>
donor molecule, donor type, donor heavy atom, donor atom, acceptor molecule, acceptor atom, score
      L1  H     7    27       P1  7948  0.92
      L1  H    10    28       P1  7948  0.95

> <Gold.Chemscore.Hbond.Weighted>
-6.3564

> <Gold.Chemscore.Metal.Weighted>
-0.0000

> <Gold.Chemscore.Lipo.Weighted>
-10.3728

> <Gold.Chemscore.Internal_Hbond.Weighted>
0.0000

> <Gold.Chemscore.DEClash.Weighted>
0.0674

> <Gold.Chemscore.DEInternal.Weighted>
0.7601

> <Gold.Chemscore.Rot.Weighted>
3.5733

> <Gold.Chemscore.Internal.Correction.Weighted>
   9.000000E+99

> <Gold.Protein.RotatedTorsions>
[ 6907 6896 6895 6894 ] final  128.61 input  -60.11 | X-H torsion
[ 7974 7965 7964 7962 ] final  -49.44 input  175.53 | X-H torsion
[ 8008 7997 7996 7995 ] final -153.95 input   59.86 | X-H torsion
[ 10167 10162 10161 10158 ] final   68.84 input  -65.29 | X-H torsion
[ 10718 10713 10712 10709 ] final   -7.54 input   66.30 | X-H torsion
[ 10763 10752 10751 10750 ] final -137.41 input  -60.55 | X-H torsion
[ 11005 11000 10999 10996 ] final   56.78 input  -57.11 | X-H torsion

> <Gold.Protein.ActiveResidues>
 VAL166  LYS551  ARG553  GLY616  TRP617  ASP618  TYR619  PRO620  LYS621  CYS622 
 ASP623  PHE694  ASN695  SER759  ASP760  ASP761  ALA762  ILE779  LEU786  VAL792 
 PHE793  MET794  SER795  GLU796  ALA797  LYS798  CYS799  TRP800  GLU811  SER814 

> <Gold.Protein.RotatedAtoms>
  152.3703  133.6410  159.6081 H   0  0  0  0  0  0  0  0  0  0  0  0  # atno 6907 bound_to 6896
  150.7664  133.9280  159.3427 H   0  0  0  0  0  0  0  0  0  0  0  0  # atno 6908 bound_to 6896
  151.7104  135.0915  160.0318 H   0  0  0  0  0  0  0  0  0  0  0  0  # atno 6909 bound_to 6896
  145.9405  140.7666  142.9554 H   0  0  0  0  0  0  0  0  0  0  0  0  # atno 7974 bound_to 7965
  155.6789  140.0742  157.2492 H   0  0  0  0  0  0  0  0  0  0  0  0  # atno 8008 bound_to 7997
  154.4109  140.1685  156.2012 H   0  0  0  0  0  0  0  0  0  0  0  0  # atno 8009 bound_to 7997
  155.9552  140.3374  155.6445 H   0  0  0  0  0  0  0  0  0  0  0  0  # atno 8010 bound_to 7997
  140.0742  144.5126  150.7206 H   0  0  0  0  0  0  0  0  0  0  0  0  # atno 10167 bound_to 10162
  156.7158  130.5136  149.5880 H   0  0  0  0  0  0  0  0  0  0  0  0  # atno 10718 bound_to 10713
  154.8662  135.3643  154.5218 H   0  0  0  0  0  0  0  0  0  0  0  0  # atno 10763 bound_to 10752
  153.5848  135.7017  153.5453 H   0  0  0  0  0  0  0  0  0  0  0  0  # atno 10764 bound_to 10752
  153.3425  135.4094  155.1545 H   0  0  0  0  0  0  0  0  0  0  0  0  # atno 10765 bound_to 10752
  140.0503  134.5747  155.9272 H   0  0  0  0  0  0  0  0  0  0  0  0  # atno 11005 bound_to 11000
  144.6778  140.2273  143.7359 LP  0  0  0  0  0  0  0  0  0  0  0  0  # atno 17320 bound_to 7965
  145.8305  139.2084  143.1885 LP  0  0  0  0  0  0  0  0  0  0  0  0  # atno 17321 bound_to 7965
  140.7110  143.2505  151.4581 LP  0  0  0  0  0  0  0  0  0  0  0  0  # atno 17342 bound_to 10162
  139.5817  144.1694  152.1977 LP  0  0  0  0  0  0  0  0  0  0  0  0  # atno 17343 bound_to 10162
  156.1629  130.6386  151.0742 LP  0  0  0  0  0  0  0  0  0  0  0  0  # atno 17370 bound_to 10713
  157.6918  131.0807  150.7085 LP  0  0  0  0  0  0  0  0  0  0  0  0  # atno 17371 bound_to 10713
  141.1927  133.6576  156.5513 LP  0  0  0  0  0  0  0  0  0  0  0  0  # atno 17394 bound_to 11000
  140.3928  134.7425  157.4732 LP  0  0  0  0  0  0  0  0  0  0  0  0  # atno 17395 bound_to 11000

$$$$
