AV-unprocessed.smi:2664|AV-procd|sdf|10327|dock3
  -GOLD-   2272014343D 1   1.00000     0.00000
 Structure written by MMmdl.
 43 44  0  0  0  0  0  0  0  0  1 V2000
  144.3752  136.3444  152.0757 O   0  0  0  0  0  0  0  0  0  0  0  0
  145.5989  136.2512  151.9844 C   0  0  0  0  0  0  0  0  0  0  0  0
  146.2612  135.2261  151.4209 N   0  0  0  0  0  0  0  0  0  0  0  0
  145.7403  134.0219  150.8737 C   0  0  0  0  0  0  0  0  0  0  0  0
  144.3426  133.9264  150.7120 C   0  0  0  0  0  0  0  0  0  0  0  0
  143.8011  132.7510  150.1543 C   0  0  0  0  0  0  0  0  0  0  0  0
  144.5542  131.7050  149.7544 N   0  0  0  0  0  0  0  0  0  0  0  0
  145.8930  131.8029  149.8975 C   0  0  0  0  0  0  0  0  0  0  0  0
  146.5355  132.9324  150.4429 C   0  0  0  0  0  0  0  0  0  0  0  0
  146.4513  137.1889  152.4263 N   0  0  0  0  0  0  0  0  0  0  0  0
  146.0862  138.4403  153.0961 C   0  0  1  0  0  0  0  0  0  0  0  0
  145.4075  138.1051  154.4490 C   0  0  0  0  0  0  0  0  0  0  0  0
  146.1824  137.1200  155.3447 C   0  0  0  0  0  0  0  0  0  0  0  0
  145.4544  136.8408  156.5217 O   0  0  0  0  0  0  0  0  0  0  0  0
  147.3387  139.3540  153.2365 C   0  0  0  0  0  0  0  0  0  0  0  0
  148.4195  138.7397  154.1602 C   0  0  0  0  0  0  0  0  0  0  0  0
  149.6501  139.6488  154.3106 C   0  0  0  0  0  0  0  0  0  0  0  0
  149.2585  141.0420  154.8174 C   0  0  0  0  0  0  0  0  0  0  0  0
  148.2094  141.6770  153.8971 C   0  0  0  0  0  0  0  0  0  0  0  0
  146.9762  140.7718  153.7502 C   0  0  0  0  0  0  0  0  0  0  0  0
  147.2613  135.3369  151.3428 H   0  0  0  0  0  0  0  0  0  0  0  0
  143.6923  134.7349  151.0127 H   0  0  0  0  0  0  0  0  0  0  0  0
  142.7339  132.6499  150.0236 H   0  0  0  0  0  0  0  0  0  0  0  0
  146.4726  130.9565  149.5595 H   0  0  0  0  0  0  0  0  0  0  0  0
  147.6126  132.9419  150.5058 H   0  0  0  0  0  0  0  0  0  0  0  0
  147.4387  137.0245  152.2955 H   0  0  0  0  0  0  0  0  0  0  0  0
  145.3584  138.9823  152.4898 H   0  0  0  0  0  0  0  0  0  0  0  0
  145.2488  139.0300  155.0049 H   0  0  0  0  0  0  0  0  0  0  0  0
  144.4180  137.6821  154.2827 H   0  0  0  0  0  0  0  0  0  0  0  0
  146.4063  136.1892  154.8238 H   0  0  0  0  0  0  0  0  0  0  0  0
  147.1396  137.5564  155.6311 H   0  0  0  0  0  0  0  0  0  0  0  0
  145.5376  137.5761  157.1097 H   0  0  0  0  0  0  0  0  0  0  0  0
  147.7785  139.4686  152.2444 H   0  0  0  0  0  0  0  0  0  0  0  0
  147.9922  138.5421  155.1442 H   0  0  0  0  0  0  0  0  0  0  0  0
  148.7617  137.7813  153.7734 H   0  0  0  0  0  0  0  0  0  0  0  0
  150.3651  139.1934  154.9962 H   0  0  0  0  0  0  0  0  0  0  0  0
  150.1580  139.7379  153.3494 H   0  0  0  0  0  0  0  0  0  0  0  0
  148.8618  140.9666  155.8305 H   0  0  0  0  0  0  0  0  0  0  0  0
  150.1407  141.6803  154.8752 H   0  0  0  0  0  0  0  0  0  0  0  0
  147.9112  142.6489  154.2909 H   0  0  0  0  0  0  0  0  0  0  0  0
  148.6460  141.8625  152.9150 H   0  0  0  0  0  0  0  0  0  0  0  0
  146.2769  141.2633  153.0743 H   0  0  0  0  0  0  0  0  0  0  0  0
  146.4671  140.6925  154.7120 H   0  0  0  0  0  0  0  0  0  0  0  0
  1  2  2  0  0  0  0
  2  3  1  0  0  0  0
  2 10  1  0  0  0  0
  3  4  1  0  0  0  0
  3 21  1  0  0  0  0
  4  9  1  0  0  0  0
  4  5  2  0  0  0  0
  5  6  1  0  0  0  0
  5 22  1  0  0  0  0
  6  7  2  0  0  0  0
  6 23  1  0  0  0  0
  7  8  1  0  0  0  0
  8  9  2  0  0  0  0
  8 24  1  0  0  0  0
  9 25  1  0  0  0  0
 10 11  1  0  0  0  0
 10 26  1  0  0  0  0
 11 12  1  0  0  0  0
 11 15  1  0  0  0  0
 11 27  1  0  0  0  0
 12 13  1  0  0  0  0
 12 28  1  0  0  0  0
 12 29  1  0  0  0  0
 13 14  1  0  0  0  0
 13 30  1  0  0  0  0
 13 31  1  0  0  0  0
 14 32  1  0  0  0  0
 15 20  1  0  0  0  0
 15 16  1  0  0  0  0
 15 33  1  0  0  0  0
 16 17  1  0  0  0  0
 16 34  1  0  0  0  0
 16 35  1  0  0  0  0
 17 18  1  0  0  0  0
 17 36  1  0  0  0  0
 17 37  1  0  0  0  0
 18 19  1  0  0  0  0
 18 38  1  0  0  0  0
 18 39  1  0  0  0  0
 19 20  1  0  0  0  0
 19 40  1  0  0  0  0
 19 41  1  0  0  0  0
 20 42  1  0  0  0  0
 20 43  1  0  0  0  0
M  END
> <s_m_source_file>
AV-unprocessed.smi

> <i_m_source_file_index>
2664

> <i_lp_mmshare_version>
43012

> <i_f3d_flags>
0

> <s_epik_input>
W2NIXTFbY0hdbltjSF1bY0hdYzFbTkhdQyg9TylbTkhdW0NASF0oW0NIMl1bQ0gyXVtPSF0pW0NIXTJbQ0gyXVtDSDJdW0NIMl1bQ0gyXVtDSDJdMg==

> <s_epik_cmdline>
J2VwaWtfcHl0aG9uJywgJy1waCcsICc3LjAnLCAnLXRuJywgJzgnLCAnLW1hJywgJzIwMCcsICctbWV0YWxfYmluZGluZycsICctaW1hZScsICc8aW5maWxlLm1hZT4nLCAnLW9tYWUnLCAnPG91dGZpbGUubWFlPic=

> <r_epik_Ionization_Penalty>
0.119281

> <r_epik_Ionization_Penalty_Charging>
0

> <r_epik_Ionization_Penalty_Neutral>
0.119281

> <r_epik_State_Penalty>
0.108806

> <r_epik_Charging_Adjusted_Penalty>
0.108806

> <i_epik_Tot_Q>
0

> <i_epik_Tot_abs_Q>
0

> <r_epik_Metal_State_Penalty>
0.0904205

> <b_epik_Metal_Only>
0

> <s_lp_Force_Field>
OPLS_2005

> <r_lp_Energy>
21.6864

> <b_lp_Chiralities_Consistent>
1

> <s_lp_Variant>
AV-unprocessed.smi:2664-2

> <Gold.Version>
5.8.1

> <Gold.Id.Protein>
6NUR|6NUR_protein|mol2

> <Gold.PLP.Fitness>
45.3193

> <Gold.PLP.PLP>
-34.1738

> <Gold.PLP.part.hbond>
-3.0000

> <Gold.PLP.part.metal>
0.0000

> <Gold.PLP.part.buried>
-2.8305

> <Gold.PLP.part.nonpolar>
-29.6187

> <Gold.PLP.part.repulsive>
0.4403

> <Gold.PLP.ligand.clash>
0.0000

> <Gold.PLP.ligand.torsion>
0.1643

> <Gold.PLP.Chemscore.Hbond>
2.1638

> <Gold.PLP.Chemscore.CHOScore>
1.6465

> <Gold.PLP.Chemscore.Metal>
0.0000

> <Gold.Chemscore.Hbonds>
donor molecule, donor type, donor heavy atom, donor atom, acceptor molecule, acceptor atom, score
      L1  H     3    21       P1  7948  1.00
      L1  H    10    26       P1  7948  1.00
      P1  H 10785 10796       L1     7  0.17
      L1  C     6    23       P1 10186  1.00
      L1  C     8    24       P1 10747  0.67

> <Gold.PLP.Chemscore.Internal.Correction>
0.0433

> <Gold.Rescore>
     Score         DG    S(hbond)    S(metal)    S(lipo)     H(rot)  DE(clash)    DE(int)     intcor
     15.50     -17.30       2.09        0.00      90.02       2.23       0.10       1.70       ----

> <Gold.Chemscore.Fitness>
15.5036

> <Gold.Chemscore.DG>
-17.3049

> <Gold.Chemscore.ZeroCoef>
-5.4800

> <Gold.Chemscore.Hbond>
2.0924

> <Gold.Chemscore.Metal>
0.0000

> <Gold.Chemscore.Lipo>
90.0206

> <Gold.Chemscore.Internal_Hbond>
0.0000

> <Gold.Chemscore.DEClash>
0.0968

> <Gold.Chemscore.DEInternal>
1.7045

> <Gold.Chemscore.Rot>
2.2251

> <Gold.Chemscore.Internal.Correction>
   9.000000E+99

> <Gold.Chemscore.Hbonds>
donor molecule, donor type, donor heavy atom, donor atom, acceptor molecule, acceptor atom, score
      L1  H     3    21       P1  7948  0.82
      L1  H    10    26       P1  7948  1.00
      P1  H 10785 10796       L1     7  0.13

> <Gold.Chemscore.Hbond.Weighted>
-6.9887

> <Gold.Chemscore.Metal.Weighted>
-0.0000

> <Gold.Chemscore.Lipo.Weighted>
-10.5324

> <Gold.Chemscore.Internal_Hbond.Weighted>
0.0000

> <Gold.Chemscore.DEClash.Weighted>
0.0968

> <Gold.Chemscore.DEInternal.Weighted>
1.7045

> <Gold.Chemscore.Rot.Weighted>
5.6962

> <Gold.Chemscore.Internal.Correction.Weighted>
   9.000000E+99

> <Gold.Protein.RotatedTorsions>
[ 6907 6896 6895 6894 ] final  122.53 input  -60.11 | X-H torsion
[ 7974 7965 7964 7962 ] final -161.55 input  175.53 | X-H torsion
[ 8008 7997 7996 7995 ] final  -72.04 input   59.86 | X-H torsion
[ 10167 10162 10161 10158 ] final   82.63 input  -65.29 | X-H torsion
[ 10718 10713 10712 10709 ] final -152.13 input   66.30 | X-H torsion
[ 10763 10752 10751 10750 ] final   90.67 input  -60.55 | X-H torsion
[ 11005 11000 10999 10996 ] final -156.29 input  -57.11 | X-H torsion

> <Gold.Protein.ActiveResidues>
 VAL166  LYS551  ARG553  GLY616  TRP617  ASP618  TYR619  PRO620  LYS621  CYS622 
 ASP623  PHE694  ASN695  SER759  ASP760  ASP761  ALA762  ILE779  LEU786  VAL792 
 PHE793  MET794  SER795  GLU796  ALA797  LYS798  CYS799  TRP800  GLU811  SER814 

> <Gold.Protein.RotatedAtoms>
  152.4235  133.7156  159.6503 H   0  0  0  0  0  0  0  0  0  0  0  0  # atno 6907 bound_to 6896
  150.8111  133.8408  159.3187 H   0  0  0  0  0  0  0  0  0  0  0  0  # atno 6908 bound_to 6896
  151.6118  135.1041  160.0134 H   0  0  0  0  0  0  0  0  0  0  0  0  # atno 6909 bound_to 6896
  144.7387  140.3381  143.6140 H   0  0  0  0  0  0  0  0  0  0  0  0  # atno 7974 bound_to 7965
  154.5135  140.0804  156.8036 H   0  0  0  0  0  0  0  0  0  0  0  0  # atno 8008 bound_to 7997
  155.3732  140.3424  155.4226 H   0  0  0  0  0  0  0  0  0  0  0  0  # atno 8009 bound_to 7997
  156.1601  140.1585  156.8614 H   0  0  0  0  0  0  0  0  0  0  0  0  # atno 8010 bound_to 7997
  139.9267  144.6178  150.8385 H   0  0  0  0  0  0  0  0  0  0  0  0  # atno 10167 bound_to 10162
  156.4684  130.8247  151.2476 H   0  0  0  0  0  0  0  0  0  0  0  0  # atno 10718 bound_to 10713
  153.2001  135.4425  155.0255 H   0  0  0  0  0  0  0  0  0  0  0  0  # atno 10763 bound_to 10752
  154.8141  135.3307  154.7226 H   0  0  0  0  0  0  0  0  0  0  0  0  # atno 10764 bound_to 10752
  153.7672  135.6987  153.4969 H   0  0  0  0  0  0  0  0  0  0  0  0  # atno 10765 bound_to 10752
  140.6772  134.4184  157.5228 H   0  0  0  0  0  0  0  0  0  0  0  0  # atno 11005 bound_to 11000
  145.7403  139.1762  143.2380 LP  0  0  0  0  0  0  0  0  0  0  0  0  # atno 17320 bound_to 7965
  146.1139  140.7394  142.9490 LP  0  0  0  0  0  0  0  0  0  0  0  0  # atno 17321 bound_to 7965
  140.7648  143.3258  151.2518 LP  0  0  0  0  0  0  0  0  0  0  0  0  # atno 17342 bound_to 10162
  139.6816  143.9845  152.2811 LP  0  0  0  0  0  0  0  0  0  0  0  0  # atno 17343 bound_to 10162
  157.7493  131.0084  150.3228 LP  0  0  0  0  0  0  0  0  0  0  0  0  # atno 17370 bound_to 10713
  156.3644  130.3852  149.7225 LP  0  0  0  0  0  0  0  0  0  0  0  0  # atno 17371 bound_to 10713
  139.8963  134.8663  156.2094 LP  0  0  0  0  0  0  0  0  0  0  0  0  # atno 17394 bound_to 11000
  141.0346  133.6970  156.1490 LP  0  0  0  0  0  0  0  0  0  0  0  0  # atno 17395 bound_to 11000

$$$$
