AV-unprocessed.smi:99|AV-procd|sdf|888|dock4
  -GOLD-   2262017373D 1   1.00000     0.00000
 Structure written by MMmdl.
 52 55  0  0  0  0  0  0  0  0  2 V2000
  147.8919  137.2273  160.6383 O   0  0  0  0  0  0  0  0  0  0  0  0
  148.1592  136.1439  160.1147 C   0  0  0  0  0  0  0  0  0  0  0  0
  149.0387  135.9980  159.1034 O   0  0  0  0  0  0  0  0  0  0  0  0
  149.6493  137.1386  158.5192 C   0  0  0  0  0  0  0  0  0  0  0  0
  149.8584  136.9106  157.0091 C   0  0  1  0  0  0  0  0  0  0  0  0
  148.5890  136.6435  156.4247 O   0  0  0  0  0  0  0  0  0  0  0  0
  148.0879  137.8252  155.8831 C   0  0  2  0  0  0  0  0  0  0  0  0
  146.8903  137.5207  154.9943 N   0  0  0  0  0  0  0  0  0  0  0  0
  146.9401  136.5453  154.0085 C   0  0  0  0  0  0  0  0  0  0  0  0
  145.8921  136.3050  153.1941 C   0  0  0  0  0  0  0  0  0  0  0  0
  144.6794  137.1035  153.3338 C   0  0  0  0  0  0  0  0  0  0  0  0
  143.7102  136.8462  152.6225 O   0  0  0  0  0  0  0  0  0  0  0  0
  144.6814  138.1135  154.2494 N   0  5  0  0  0  0  0  0  0  0  0  0
  145.7497  138.3726  155.0590 C   0  0  0  0  0  0  0  0  0  0  0  0
  145.7747  139.3245  155.8395 O   0  0  0  0  0  0  0  0  0  0  0  0
  149.3240  138.4308  155.1953 C   0  0  2  0  0  0  0  0  0  0  0  0
  149.6548  137.8287  153.9561 O   0  0  0  0  0  0  0  0  0  0  0  0
  150.4249  138.1019  156.1980 C   0  0  1  0  0  0  0  0  0  0  0  0
  150.6787  139.2486  157.0073 O   0  0  0  0  0  0  0  0  0  0  0  0
  151.1246  140.4070  156.4686 C   0  0  0  0  0  0  0  0  0  0  0  0
  151.2161  140.6141  155.2572 O   0  0  0  0  0  0  0  0  0  0  0  0
  151.5431  141.3978  157.5012 C   0  0  0  0  0  0  0  0  0  0  0  0
  151.3111  142.7744  157.2736 C   0  0  0  0  0  0  0  0  0  0  0  0
  151.7321  143.7374  158.2108 C   0  0  0  0  0  0  0  0  0  0  0  0
  152.3888  143.3354  159.3883 C   0  0  0  0  0  0  0  0  0  0  0  0
  152.6214  141.9685  159.6288 C   0  0  0  0  0  0  0  0  0  0  0  0
  152.2004  141.0039  158.6930 C   0  0  0  0  0  0  0  0  0  0  0  0
  147.5803  134.8467  160.5678 C   0  0  0  0  0  0  0  0  0  0  0  0
  146.7176  134.8277  161.6883 C   0  0  0  0  0  0  0  0  0  0  0  0
  146.1861  133.6133  162.1634 C   0  0  0  0  0  0  0  0  0  0  0  0
  146.5091  132.4033  161.5220 C   0  0  0  0  0  0  0  0  0  0  0  0
  147.3629  132.4094  160.4038 C   0  0  0  0  0  0  0  0  0  0  0  0
  147.8956  133.6229  159.9275 C   0  0  0  0  0  0  0  0  0  0  0  0
  149.0085  138.0053  158.6837 H   0  0  0  0  0  0  0  0  0  0  0  0
  150.6078  137.3516  158.9953 H   0  0  0  0  0  0  0  0  0  0  0  0
  150.4847  136.0298  156.8645 H   0  0  0  0  0  0  0  0  0  0  0  0
  147.6909  138.4690  156.6706 H   0  0  0  0  0  0  0  0  0  0  0  0
  147.8366  135.9662  153.8535 H   0  0  0  0  0  0  0  0  0  0  0  0
  145.9569  135.5433  152.4309 H   0  0  0  0  0  0  0  0  0  0  0  0
  149.1871  139.5030  155.0473 H   0  0  0  0  0  0  0  0  0  0  0  0
  148.8759  137.4228  153.6068 H   0  0  0  0  0  0  0  0  0  0  0  0
  151.3246  137.7880  155.6667 H   0  0  0  0  0  0  0  0  0  0  0  0
  150.8189  143.1083  156.3716 H   0  0  0  0  0  0  0  0  0  0  0  0
  151.5547  144.7861  158.0230 H   0  0  0  0  0  0  0  0  0  0  0  0
  152.7149  144.0743  160.1053 H   0  0  0  0  0  0  0  0  0  0  0  0
  153.1278  141.6586  160.5310 H   0  0  0  0  0  0  0  0  0  0  0  0
  152.4036  139.9643  158.9041 H   0  0  0  0  0  0  0  0  0  0  0  0
  146.4635  135.7431  162.2029 H   0  0  0  0  0  0  0  0  0  0  0  0
  145.5326  133.6103  163.0232 H   0  0  0  0  0  0  0  0  0  0  0  0
  146.1032  131.4717  161.8879 H   0  0  0  0  0  0  0  0  0  0  0  0
  147.6133  131.4813  159.9118 H   0  0  0  0  0  0  0  0  0  0  0  0
  148.5546  133.5914  159.0723 H   0  0  0  0  0  0  0  0  0  0  0  0
  1  2  2  0  0  0  0
  2  3  1  0  0  0  0
  2 28  1  0  0  0  0
  3  4  1  0  0  0  0
  4  5  1  0  0  0  0
  4 34  1  0  0  0  0
  4 35  1  0  0  0  0
  5 18  1  0  0  0  0
  5  6  1  0  0  0  0
  5 36  1  0  0  0  0
  6  7  1  0  0  0  0
  7  8  1  0  0  0  0
  7 16  1  0  0  0  0
  7 37  1  0  0  0  0
  8 14  1  0  0  0  0
  8  9  1  0  0  0  0
  9 10  2  0  0  0  0
  9 38  1  0  0  0  0
 10 11  1  0  0  0  0
 10 39  1  0  0  0  0
 11 12  2  0  0  0  0
 11 13  1  0  0  0  0
 13 14  1  0  0  0  0
 14 15  2  0  0  0  0
 16 17  1  0  0  0  0
 16 18  1  0  0  0  0
 16 40  1  0  0  0  0
 17 41  1  0  0  0  0
 18 19  1  0  0  0  0
 18 42  1  0  0  0  0
 19 20  1  0  0  0  0
 20 21  2  0  0  0  0
 20 22  1  0  0  0  0
 22 27  1  0  0  0  0
 22 23  2  0  0  0  0
 23 24  1  0  0  0  0
 23 43  1  0  0  0  0
 24 25  2  0  0  0  0
 24 44  1  0  0  0  0
 25 26  1  0  0  0  0
 25 45  1  0  0  0  0
 26 27  2  0  0  0  0
 26 46  1  0  0  0  0
 27 47  1  0  0  0  0
 28 33  1  0  0  0  0
 28 29  2  0  0  0  0
 29 30  1  0  0  0  0
 29 48  1  0  0  0  0
 30 31  2  0  0  0  0
 30 49  1  0  0  0  0
 31 32  1  0  0  0  0
 31 50  1  0  0  0  0
 32 33  2  0  0  0  0
 32 51  1  0  0  0  0
 33 52  1  0  0  0  0
M  CHG  1  13  -1
M  END
> <s_m_source_file>
AV-unprocessed.smi

> <i_m_source_file_index>
99

> <i_lp_mmshare_version>
43012

> <i_f3d_flags>
0

> <s_epik_input>
W2NIXTFbY0hdW2NIXVtjSF1bY0hdYzFDKD1PKU9bQ0gyXVtDQEBIXTJPW0NAQEhdKG4zW2NIXVtjSF1jKD1PKVtuSF1jMz1PKVtDQEBIXShbT0hdKVtDQEhdMk9DKD1PKWM0W2NIXVtjSF1bY0hdW2NIXVtjSF00

> <s_epik_cmdline>
J2VwaWtfcHl0aG9uJywgJy1waCcsICc3LjAnLCAnLXRuJywgJzgnLCAnLW1hJywgJzIwMCcsICctbWV0YWxfYmluZGluZycsICctaW1hZScsICc8aW5maWxlLm1hZT4nLCAnLW9tYWUnLCAnPG91dGZpbGUubWFlPic=

> <r_lp_tautomer_probability>
1

> <r_epik_Ionization_Penalty>
2.89159

> <r_epik_Ionization_Penalty_Charging>
2.1077e-08

> <r_epik_Ionization_Penalty_Neutral>
2.89159

> <r_epik_State_Penalty>
2.88671

> <r_epik_Charging_Adjusted_Penalty>
2.88671

> <i_epik_Tot_Q>
-1

> <i_epik_Tot_abs_Q>
1

> <r_epik_Metal_State_Penalty>
0.0727308

> <b_epik_Metal_Only>
1

> <s_epik_Chemistry_Notes>
This compound has an ester and may undergo hydrolysis at high or low pH. This compound contains an acetal/aminal-like group ( X-CH(R)-Y where X, Y are N, S, or O) that may be acid/base labile, releasing an aldehyde.

> <s_lp_Force_Field>
OPLS_2005

> <r_lp_Energy>
52.0393

> <b_lp_Chiralities_Consistent>
1

> <s_lp_Variant>
AV-unprocessed.smi:99-24

> <Gold.Version>
5.8.1

> <Gold.Id.Protein>
6NUR|6NUR_protein|mol2

> <Gold.PLP.Fitness>
52.6604

> <Gold.PLP.PLP>
-44.0622

> <Gold.PLP.part.hbond>
-4.7339

> <Gold.PLP.part.metal>
0.0000

> <Gold.PLP.part.buried>
-5.2389

> <Gold.PLP.part.nonpolar>
-34.1181

> <Gold.PLP.part.repulsive>
0.3573

> <Gold.PLP.ligand.clash>
0.0000

> <Gold.PLP.ligand.torsion>
1.1578

> <Gold.PLP.Chemscore.Hbond>
2.6677

> <Gold.PLP.Chemscore.CHOScore>
0.8306

> <Gold.PLP.Chemscore.Metal>
0.0000

> <Gold.Chemscore.Hbonds>
donor molecule, donor type, donor heavy atom, donor atom, acceptor molecule, acceptor atom, score
      L1  H    17    41       P1  7948  0.33
      P1  H  6931  6943       L1     1  0.78
      P1  H  6934  6947       L1     1  0.82
      P1  H  7989  7998       L1    21  0.86
      L1  C     9    38       P1  7948  0.77

> <Gold.PLP.Chemscore.Internal.Correction>
0.4189

> <Gold.Rescore>
     Score         DG    S(hbond)    S(metal)    S(lipo)     H(rot)  DE(clash)    DE(int)     intcor
     17.30     -19.94       2.85        0.00     110.68       3.13       0.02       2.62       ----

> <Gold.Chemscore.Fitness>
17.2995

> <Gold.Chemscore.DG>
-19.9365

> <Gold.Chemscore.ZeroCoef>
-5.4800

> <Gold.Chemscore.Hbond>
2.8537

> <Gold.Chemscore.Metal>
0.0000

> <Gold.Chemscore.Lipo>
110.6808

> <Gold.Chemscore.Internal_Hbond>
0.0000

> <Gold.Chemscore.DEClash>
0.0208

> <Gold.Chemscore.DEInternal>
2.6162

> <Gold.Chemscore.Rot>
3.1346

> <Gold.Chemscore.Internal.Correction>
   9.000000E+99

> <Gold.Chemscore.Hbonds>
donor molecule, donor type, donor heavy atom, donor atom, acceptor molecule, acceptor atom, score
      L1  H    17    41       P1  7948  0.33
      P1  H  6931  6943       L1     1  0.76
      P1  H  6934  6947       L1     1  0.81
      P1  H  7989  7998       L1    21  0.87

> <Gold.Chemscore.Hbond.Weighted>
-9.5314

> <Gold.Chemscore.Metal.Weighted>
-0.0000

> <Gold.Chemscore.Lipo.Weighted>
-12.9497

> <Gold.Chemscore.Internal_Hbond.Weighted>
0.0000

> <Gold.Chemscore.DEClash.Weighted>
0.0208

> <Gold.Chemscore.DEInternal.Weighted>
2.6162

> <Gold.Chemscore.Rot.Weighted>
8.0246

> <Gold.Chemscore.Internal.Correction.Weighted>
   9.000000E+99

> <Gold.Protein.RotatedTorsions>
[ 6907 6896 6895 6894 ] final  100.69 input  -60.11 | X-H torsion
[ 7974 7965 7964 7962 ] final -154.47 input  175.53 | X-H torsion
[ 8008 7997 7996 7995 ] final  179.48 input   59.86 | X-H torsion
[ 10167 10162 10161 10158 ] final   47.09 input  -65.29 | X-H torsion
[ 10718 10713 10712 10709 ] final    5.03 input   66.30 | X-H torsion
[ 10763 10752 10751 10750 ] final   13.39 input  -60.55 | X-H torsion
[ 11005 11000 10999 10996 ] final  117.55 input  -57.11 | X-H torsion

> <Gold.Protein.ActiveResidues>
 VAL166  LYS551  ARG553  GLY616  TRP617  ASP618  TYR619  PRO620  LYS621  CYS622 
 ASP623  PHE694  ASN695  SER759  ASP760  ASP761  ALA762  ILE779  LEU786  VAL792 
 PHE793  MET794  SER795  GLU796  ALA797  LYS798  CYS799  TRP800  GLU811  SER814 

> <Gold.Protein.RotatedAtoms>
  152.5366  134.0238  159.7993 H   0  0  0  0  0  0  0  0  0  0  0  0  # atno 6907 bound_to 6896
  151.0420  133.5690  159.2657 H   0  0  0  0  0  0  0  0  0  0  0  0  # atno 6908 bound_to 6896
  151.2656  135.0675  159.9168 H   0  0  0  0  0  0  0  0  0  0  0  0  # atno 6909 bound_to 6896
  144.7688  140.4384  143.5922 H   0  0  0  0  0  0  0  0  0  0  0  0  # atno 7974 bound_to 7965
  156.0430  140.1307  157.0135 H   0  0  0  0  0  0  0  0  0  0  0  0  # atno 8008 bound_to 7997
  154.4399  140.1026  156.6335 H   0  0  0  0  0  0  0  0  0  0  0  0  # atno 8009 bound_to 7997
  155.5639  140.3465  155.4500 H   0  0  0  0  0  0  0  0  0  0  0  0  # atno 8010 bound_to 7997
  140.3072  144.2864  150.6207 H   0  0  0  0  0  0  0  0  0  0  0  0  # atno 10167 bound_to 10162
  156.9014  130.5723  149.5648 H   0  0  0  0  0  0  0  0  0  0  0  0  # atno 10718 bound_to 10713
  153.1726  135.6815  153.8587 H   0  0  0  0  0  0  0  0  0  0  0  0  # atno 10763 bound_to 10752
  153.7946  135.3164  155.3384 H   0  0  0  0  0  0  0  0  0  0  0  0  # atno 10764 bound_to 10752
  154.8008  135.4779  154.0363 H   0  0  0  0  0  0  0  0  0  0  0  0  # atno 10765 bound_to 10752
  139.9078  134.9611  156.7367 H   0  0  0  0  0  0  0  0  0  0  0  0  # atno 11005 bound_to 11000
  145.6387  139.1547  143.2927 LP  0  0  0  0  0  0  0  0  0  0  0  0  # atno 17320 bound_to 7965
  146.1818  140.6486  142.9186 LP  0  0  0  0  0  0  0  0  0  0  0  0  # atno 17321 bound_to 7965
  140.5600  143.2193  151.7781 LP  0  0  0  0  0  0  0  0  0  0  0  0  # atno 17342 bound_to 10162
  139.4902  144.4361  151.9817 LP  0  0  0  0  0  0  0  0  0  0  0  0  # atno 17343 bound_to 10162
  156.0580  130.5638  150.9133 LP  0  0  0  0  0  0  0  0  0  0  0  0  # atno 17370 bound_to 10713
  157.6024  131.0940  150.8938 LP  0  0  0  0  0  0  0  0  0  0  0  0  # atno 17371 bound_to 10713
  140.6882  133.9414  155.7950 LP  0  0  0  0  0  0  0  0  0  0  0  0  # atno 17394 bound_to 11000
  141.0461  134.0552  157.3842 LP  0  0  0  0  0  0  0  0  0  0  0  0  # atno 17395 bound_to 11000

$$$$
