AV-unprocessed.smi:3310|AV-procd|sdf|12717|dock1
  -GOLD-   2272019 53D 1   1.00000     0.00000
 Structure written by MMmdl.
 45 46  0  0  0  0  0  0  0  0  2 V2000
  145.8494  141.9647  154.3674 C   0  0  0  0  0  0  0  0  0  0  0  0
  147.0218  142.1656  153.4013 C   0  0  0  0  0  0  0  0  0  0  0  0
  148.1950  141.2956  153.7312 C   0  0  0  0  0  0  0  0  0  0  0  0
  149.3961  141.7793  154.0696 N   0  0  0  0  0  0  0  0  0  0  0  0
  150.1991  140.6753  154.2735 N   0  0  0  0  0  0  0  0  0  0  0  0
  149.4055  139.6343  154.0293 C   0  0  0  0  0  0  0  0  0  0  0  0
  148.1470  139.9473  153.6840 N   0  0  0  0  0  0  0  0  0  0  0  0
  147.0558  139.0482  153.3570 C   0  0  0  0  0  0  0  0  0  0  0  0
  146.7505  139.0580  151.8530 C   0  0  0  0  0  0  0  0  0  0  0  0
  146.5738  137.6863  151.3390 N   0  3  0  0  0  0  0  0  0  0  0  0
  145.5121  136.9211  152.0231 C   0  0  0  0  0  0  0  0  0  0  0  0
  145.3493  135.5121  151.4234 C   0  0  2  0  0  0  0  0  0  0  0  0
  144.0640  134.8383  151.9440 C   0  0  0  0  0  0  0  0  0  0  0  0
  143.8837  133.4263  151.3632 C   0  0  0  0  0  0  0  0  0  0  0  0
  145.1024  132.5328  151.6585 C   0  0  1  0  0  0  0  0  0  0  0  0
  144.9233  131.1241  151.0747 C   0  0  0  0  0  0  0  0  0  0  0  0
  146.3889  133.2002  151.1390 C   0  0  0  0  0  0  0  0  0  0  0  0
  146.5682  134.6123  151.7200 C   0  0  0  0  0  0  0  0  0  0  0  0
  145.0071  142.6002  154.0941 H   0  0  0  0  0  0  0  0  0  0  0  0
  146.1345  142.2106  155.3905 H   0  0  0  0  0  0  0  0  0  0  0  0
  145.5033  140.9307  154.3555 H   0  0  0  0  0  0  0  0  0  0  0  0
  146.6982  141.9385  152.3847 H   0  0  0  0  0  0  0  0  0  0  0  0
  147.3282  143.2115  153.3943 H   0  0  0  0  0  0  0  0  0  0  0  0
  149.7528  138.6141  154.1034 H   0  0  0  0  0  0  0  0  0  0  0  0
  147.3092  138.0431  153.6959 H   0  0  0  0  0  0  0  0  0  0  0  0
  146.1763  139.3569  153.9238 H   0  0  0  0  0  0  0  0  0  0  0  0
  145.8419  139.6308  151.6615 H   0  0  0  0  0  0  0  0  0  0  0  0
  147.5593  139.5448  151.3068 H   0  0  0  0  0  0  0  0  0  0  0  0
  146.3519  137.7349  150.3548 H   0  0  0  0  0  0  0  0  0  0  0  0
  145.7355  136.8531  153.0888 H   0  0  0  0  0  0  0  0  0  0  0  0
  144.5770  137.4752  151.9290 H   0  0  0  0  0  0  0  0  0  0  0  0
  145.2531  135.6136  150.3410 H   0  0  0  0  0  0  0  0  0  0  0  0
  144.0914  134.7806  153.0334 H   0  0  0  0  0  0  0  0  0  0  0  0
  143.1945  135.4461  151.6909 H   0  0  0  0  0  0  0  0  0  0  0  0
  142.9819  132.9745  151.7777 H   0  0  0  0  0  0  0  0  0  0  0  0
  143.7269  133.4937  150.2857 H   0  0  0  0  0  0  0  0  0  0  0  0
  145.1900  132.4298  152.7411 H   0  0  0  0  0  0  0  0  0  0  0  0
  144.8206  131.1537  149.9895 H   0  0  0  0  0  0  0  0  0  0  0  0
  144.0337  130.6413  151.4801 H   0  0  0  0  0  0  0  0  0  0  0  0
  145.7779  130.4895  151.3110 H   0  0  0  0  0  0  0  0  0  0  0  0
  147.2549  132.5887  151.3946 H   0  0  0  0  0  0  0  0  0  0  0  0
  146.3626  133.2561  150.0498 H   0  0  0  0  0  0  0  0  0  0  0  0
  147.4756  135.0542  151.3080 H   0  0  0  0  0  0  0  0  0  0  0  0
  146.7229  134.5427  152.7976 H   0  0  0  0  0  0  0  0  0  0  0  0
  147.4458  137.1889  151.4494 H   0  0  0  0  0  0  0  0  0  0  0  0
  1  2  1  0  0  0  0
  1 19  1  0  0  0  0
  1 20  1  0  0  0  0
  1 21  1  0  0  0  0
  2  3  1  0  0  0  0
  2 22  1  0  0  0  0
  2 23  1  0  0  0  0
  3  7  1  0  0  0  0
  3  4  2  0  0  0  0
  4  5  1  0  0  0  0
  5  6  2  0  0  0  0
  6  7  1  0  0  0  0
  6 24  1  0  0  0  0
  7  8  1  0  0  0  0
  8  9  1  0  0  0  0
  8 25  1  0  0  0  0
  8 26  1  0  0  0  0
  9 10  1  0  0  0  0
  9 27  1  0  0  0  0
  9 28  1  0  0  0  0
 10 11  1  0  0  0  0
 10 29  1  0  0  0  0
 10 45  1  0  0  0  0
 11 12  1  0  0  0  0
 11 30  1  0  0  0  0
 11 31  1  0  0  0  0
 12 18  1  0  0  0  0
 12 13  1  0  0  0  0
 12 32  1  0  0  0  0
 13 14  1  0  0  0  0
 13 33  1  0  0  0  0
 13 34  1  0  0  0  0
 14 15  1  0  0  0  0
 14 35  1  0  0  0  0
 14 36  1  0  0  0  0
 15 16  1  0  0  0  0
 15 17  1  0  0  0  0
 15 37  1  0  0  0  0
 16 38  1  0  0  0  0
 16 39  1  0  0  0  0
 16 40  1  0  0  0  0
 17 18  1  0  0  0  0
 17 41  1  0  0  0  0
 17 42  1  0  0  0  0
 18 43  1  0  0  0  0
 18 44  1  0  0  0  0
M  CHG  1  10   1
M  END
> <s_m_source_file>
AV-unprocessed.smi

> <i_m_source_file_index>
3310

> <i_lp_mmshare_version>
43012

> <i_f3d_flags>
0

> <s_epik_input>
W0NIM11bQ0gyXWMxbm5bY0hdbjFbQ0gyXVtDSDJdW05IXVtDSDJdW0NAQEhdMltDSDJdW0NIMl1bQ0BASF0oW0NIM10pW0NIMl1bQ0gyXTI=

> <s_epik_cmdline>
J2VwaWtfcHl0aG9uJywgJy1waCcsICc3LjAnLCAnLXRuJywgJzgnLCAnLW1hJywgJzIwMCcsICctbWV0YWxfYmluZGluZycsICctaW1hZScsICc8aW5maWxlLm1hZT4nLCAnLW9tYWUnLCAnPG91dGZpbGUubWFlPic=

> <r_lp_tautomer_probability>
1

> <r_epik_Ionization_Penalty>
0.00127868

> <r_epik_Ionization_Penalty_Charging>
0.00126792

> <r_epik_Ionization_Penalty_Neutral>
1.07546e-05

> <r_epik_State_Penalty>
-0

> <r_epik_Charging_Adjusted_Penalty>
0.00126792

> <i_epik_Tot_Q>
1

> <i_epik_Tot_abs_Q>
1

> <r_epik_Metal_State_Penalty>
-0

> <b_epik_Metal_Only>
0

> <s_lp_Force_Field>
OPLS_2005

> <r_lp_Energy>
15.677

> <b_lp_Chiralities_Consistent>
1

> <s_lp_Variant>
AV-unprocessed.smi:3310-1

> <Gold.Version>
5.8.1

> <Gold.Id.Protein>
6NUR|6NUR_protein|mol2

> <Gold.PLP.Fitness>
47.1551

> <Gold.PLP.PLP>
-38.6494

> <Gold.PLP.part.hbond>
-4.2730

> <Gold.PLP.part.metal>
0.0000

> <Gold.PLP.part.buried>
-0.6486

> <Gold.PLP.part.nonpolar>
-32.9574

> <Gold.PLP.part.repulsive>
0.3879

> <Gold.PLP.ligand.clash>
0.0000

> <Gold.PLP.ligand.torsion>
0.5340

> <Gold.PLP.Chemscore.Hbond>
3.1512

> <Gold.PLP.Chemscore.CHOScore>
0.0000

> <Gold.PLP.Chemscore.Metal>
0.0000

> <Gold.Chemscore.Hbonds>
donor molecule, donor type, donor heavy atom, donor atom, acceptor molecule, acceptor atom, score
      L1  H    10    45       P1  7948  2.00
      P1  H  7989  7998       L1     5  0.77
      P1  H  8011  8017       L1     4  0.38

> <Gold.PLP.Chemscore.Internal.Correction>
0.1202

> <Gold.Rescore>
     Score         DG    S(hbond)    S(metal)    S(lipo)     H(rot)  DE(clash)    DE(int)     intcor
     12.60     -14.74       1.71        0.00      74.77       2.03       1.42       0.72       ----

> <Gold.Chemscore.Fitness>
12.6026

> <Gold.Chemscore.DG>
-14.7408

> <Gold.Chemscore.ZeroCoef>
-5.4800

> <Gold.Chemscore.Hbond>
1.7091

> <Gold.Chemscore.Metal>
0.0000

> <Gold.Chemscore.Lipo>
74.7698

> <Gold.Chemscore.Internal_Hbond>
0.0000

> <Gold.Chemscore.DEClash>
1.4226

> <Gold.Chemscore.DEInternal>
0.7156

> <Gold.Chemscore.Rot>
2.0295

> <Gold.Chemscore.Internal.Correction>
   9.000000E+99

> <Gold.Chemscore.Hbonds>
donor molecule, donor type, donor heavy atom, donor atom, acceptor molecule, acceptor atom, score
      L1  H    10    45       P1  7948  1.00
      P1  H  7989  7998       L1     5  0.52
      P1  H  8011  8017       L1     4  0.03

> <Gold.Chemscore.Hbond.Weighted>
-5.7083

> <Gold.Chemscore.Metal.Weighted>
-0.0000

> <Gold.Chemscore.Lipo.Weighted>
-8.7481

> <Gold.Chemscore.Internal_Hbond.Weighted>
0.0000

> <Gold.Chemscore.DEClash.Weighted>
1.4226

> <Gold.Chemscore.DEInternal.Weighted>
0.7156

> <Gold.Chemscore.Rot.Weighted>
5.1956

> <Gold.Chemscore.Internal.Correction.Weighted>
   9.000000E+99

> <Gold.Protein.RotatedTorsions>
[ 6907 6896 6895 6894 ] final  -45.31 input  -60.11 | X-H torsion
[ 7974 7965 7964 7962 ] final  127.88 input  175.53 | X-H torsion
[ 8008 7997 7996 7995 ] final    6.65 input   59.86 | X-H torsion
[ 10167 10162 10161 10158 ] final -145.21 input  -65.29 | X-H torsion
[ 10718 10713 10712 10709 ] final  -94.49 input   66.30 | X-H torsion
[ 10763 10752 10751 10750 ] final  148.80 input  -60.55 | X-H torsion
[ 11005 11000 10999 10996 ] final  -41.29 input  -57.11 | X-H torsion

> <Gold.Protein.ActiveResidues>
 VAL166  LYS551  ARG553  GLY616  TRP617  ASP618  TYR619  PRO620  LYS621  CYS622 
 ASP623  PHE694  ASN695  SER759  ASP760  ASP761  ALA762  ILE779  LEU786  VAL792 
 PHE793  MET794  SER795  GLU796  ALA797  LYS798  CYS799  TRP800  GLU811  SER814 

> <Gold.Protein.RotatedAtoms>
  150.9233  134.8651  159.7503 H   0  0  0  0  0  0  0  0  0  0  0  0  # atno 6907 bound_to 6896
  152.5003  134.4185  159.9482 H   0  0  0  0  0  0  0  0  0  0  0  0  # atno 6908 bound_to 6896
  151.4218  133.3656  159.2792 H   0  0  0  0  0  0  0  0  0  0  0  0  # atno 6909 bound_to 6896
  145.0457  139.3925  143.5079 H   0  0  0  0  0  0  0  0  0  0  0  0  # atno 7974 bound_to 7965
  154.7437  140.2754  155.6351 H   0  0  0  0  0  0  0  0  0  0  0  0  # atno 8008 bound_to 7997
  156.2879  140.2692  156.2097 H   0  0  0  0  0  0  0  0  0  0  0  0  # atno 8009 bound_to 7997
  155.0226  140.0371  157.2433 H   0  0  0  0  0  0  0  0  0  0  0  0  # atno 8010 bound_to 7997
  139.7827  143.8078  152.2641 H   0  0  0  0  0  0  0  0  0  0  0  0  # atno 10167 bound_to 10162
  156.0028  130.5070  150.5935 H   0  0  0  0  0  0  0  0  0  0  0  0  # atno 10718 bound_to 10713
  154.0607  135.2874  155.3325 H   0  0  0  0  0  0  0  0  0  0  0  0  # atno 10763 bound_to 10752
  154.6810  135.5263  153.8266 H   0  0  0  0  0  0  0  0  0  0  0  0  # atno 10764 bound_to 10752
  153.0523  135.6581  154.0796 H   0  0  0  0  0  0  0  0  0  0  0  0  # atno 10765 bound_to 10752
  141.0235  133.6852  156.2437 H   0  0  0  0  0  0  0  0  0  0  0  0  # atno 11005 bound_to 11000
  146.3513  140.0081  142.8669 LP  0  0  0  0  0  0  0  0  0  0  0  0  # atno 17320 bound_to 7965
  145.1591  140.9663  143.4388 LP  0  0  0  0  0  0  0  0  0  0  0  0  # atno 17321 bound_to 7965
  139.8145  144.7322  150.9653 LP  0  0  0  0  0  0  0  0  0  0  0  0  # atno 17342 bound_to 10162
  140.7819  143.4218  151.0830 LP  0  0  0  0  0  0  0  0  0  0  0  0  # atno 17343 bound_to 10162
  157.3796  131.0778  151.1488 LP  0  0  0  0  0  0  0  0  0  0  0  0  # atno 17370 bound_to 10713
  157.2215  130.6483  149.5813 LP  0  0  0  0  0  0  0  0  0  0  0  0  # atno 17371 bound_to 10713
  140.6531  134.5046  157.5579 LP  0  0  0  0  0  0  0  0  0  0  0  0  # atno 17394 bound_to 11000
  139.9161  134.8243  156.1361 LP  0  0  0  0  0  0  0  0  0  0  0  0  # atno 17395 bound_to 11000

$$$$
