AV-unprocessed.smi:77|AV-procd|sdf|771|dock8
  -GOLD-   2262017113D 1   1.00000     0.00000
 Structure written by MMmdl.
 57 61  0  0  0  0  0  0  0  0  1 V2000
  153.9698  140.1534  158.9790 O   0  0  0  0  0  0  0  0  0  0  0  0
  152.8941  140.6869  159.2540 C   0  0  0  0  0  0  0  0  0  0  0  0
  151.6428  140.4072  158.4109 C   0  0  0  0  0  0  0  0  0  0  0  0
  151.6848  141.0480  157.0919 N   0  0  0  0  0  0  0  0  0  0  0  0
  151.1343  140.3222  156.0923 C   0  0  0  0  0  0  0  0  0  0  0  0
  151.7959  139.2453  155.5924 N   0  0  0  0  0  0  0  0  0  0  0  0
  151.2524  138.5327  154.6005 C   0  0  0  0  0  0  0  0  0  0  0  0
  150.0859  138.7204  153.9781 N   0  0  0  0  0  0  0  0  0  0  0  0
  149.4229  139.8001  154.4838 C   0  0  0  0  0  0  0  0  0  0  0  0
  149.8694  140.6452  155.5364 C   0  0  0  0  0  0  0  0  0  0  0  0
  148.9288  141.6356  155.7877 N   0  0  0  0  0  0  0  0  0  0  0  0
  147.9815  141.3970  154.9222 C   0  0  0  0  0  0  0  0  0  0  0  0
  148.2016  140.3191  154.0936 N   0  0  0  0  0  0  0  0  0  0  0  0
  147.3262  139.8332  153.0426 C   0  0  0  0  0  0  0  0  0  0  0  0
  146.9322  138.3391  153.1916 C   0  0  2  0  0  0  0  0  0  0  0  0
  146.2329  137.7820  151.9246 C   0  0  0  0  0  0  0  0  0  0  0  0
  147.0144  137.9692  150.7624 O   0  0  0  0  0  0  0  0  0  0  0  0
  146.0488  138.1360  154.4503 C   0  0  2  0  0  0  0  0  0  0  0  0
  146.6970  138.5481  155.7620 C   0  0  0  0  0  0  0  0  0  0  0  0
  145.8394  137.8197  156.7889 C   0  0  0  0  0  0  0  0  0  0  0  0
  145.4656  136.5972  156.1666 O   0  0  0  0  0  0  0  0  0  0  0  0
  145.7005  136.6741  154.7636 C   0  0  0  0  0  0  0  0  0  0  0  0
  151.2973  142.4510  157.0434 C   0  0  0  0  0  0  0  0  0  0  0  0
  151.8391  143.4036  158.0845 C   0  0  0  0  0  0  0  0  0  0  0  0
  150.3874  142.9828  158.1237 C   0  0  0  0  0  0  0  0  0  0  0  0
  152.7369  141.5492  160.2686 N   0  0  0  0  0  0  0  0  0  0  0  0
  153.7585  141.9506  161.1809 C   0  0  0  0  0  0  0  0  0  0  0  0
  154.1562  140.9697  162.2627 C   0  0  0  0  0  0  0  0  0  0  0  0
  153.3614  142.1951  162.6206 C   0  0  0  0  0  0  0  0  0  0  0  0
  151.4894  139.3310  158.3118 H   0  0  0  0  0  0  0  0  0  0  0  0
  150.7830  140.7867  158.9649 H   0  0  0  0  0  0  0  0  0  0  0  0
  151.8373  137.6939  154.2528 H   0  0  0  0  0  0  0  0  0  0  0  0
  147.0947  142.0106  154.8585 H   0  0  0  0  0  0  0  0  0  0  0  0
  146.4405  140.4685  153.0478 H   0  0  0  0  0  0  0  0  0  0  0  0
  147.8170  139.9962  152.0822 H   0  0  0  0  0  0  0  0  0  0  0  0
  147.8460  137.7633  153.3482 H   0  0  0  0  0  0  0  0  0  0  0  0
  146.0624  136.7096  152.0051 H   0  0  0  0  0  0  0  0  0  0  0  0
  145.2548  138.2436  151.7868 H   0  0  0  0  0  0  0  0  0  0  0  0
  147.7708  137.4048  150.8127 H   0  0  0  0  0  0  0  0  0  0  0  0
  145.1204  138.6985  154.3362 H   0  0  0  0  0  0  0  0  0  0  0  0
  147.7257  138.1875  155.8103 H   0  0  0  0  0  0  0  0  0  0  0  0
  146.7036  139.6265  155.9227 H   0  0  0  0  0  0  0  0  0  0  0  0
  146.3651  137.6473  157.7284 H   0  0  0  0  0  0  0  0  0  0  0  0
  144.9362  138.3920  157.0042 H   0  0  0  0  0  0  0  0  0  0  0  0
  144.8283  136.3253  154.2106 H   0  0  0  0  0  0  0  0  0  0  0  0
  146.5362  136.0155  154.5234 H   0  0  0  0  0  0  0  0  0  0  0  0
  151.1477  142.8665  156.0483 H   0  0  0  0  0  0  0  0  0  0  0  0
  152.4964  143.0022  158.8535 H   0  0  0  0  0  0  0  0  0  0  0  0
  152.0612  144.4198  157.7659 H   0  0  0  0  0  0  0  0  0  0  0  0
  149.6413  143.7193  157.8329 H   0  0  0  0  0  0  0  0  0  0  0  0
  150.0843  142.2979  158.9135 H   0  0  0  0  0  0  0  0  0  0  0  0
  151.8192  141.9451  160.4125 H   0  0  0  0  0  0  0  0  0  0  0  0
  154.5595  142.5774  160.7911 H   0  0  0  0  0  0  0  0  0  0  0  0
  153.6421  140.0108  162.2955 H   0  0  0  0  0  0  0  0  0  0  0  0
  155.2031  140.9463  162.5585 H   0  0  0  0  0  0  0  0  0  0  0  0
  153.8774  142.9906  163.1546 H   0  0  0  0  0  0  0  0  0  0  0  0
  152.3164  142.0550  162.8910 H   0  0  0  0  0  0  0  0  0  0  0  0
  1  2  2  0  0  0  0
  2  3  1  0  0  0  0
  2 26  1  0  0  0  0
  3  4  1  0  0  0  0
  3 30  1  0  0  0  0
  3 31  1  0  0  0  0
  4  5  1  0  0  0  0
  4 23  1  0  0  0  0
  5 10  1  0  0  0  0
  5  6  2  0  0  0  0
  6  7  1  0  0  0  0
  7  8  2  0  0  0  0
  7 32  1  0  0  0  0
  8  9  1  0  0  0  0
  9 13  1  0  0  0  0
  9 10  2  0  0  0  0
 10 11  1  0  0  0  0
 11 12  2  0  0  0  0
 12 13  1  0  0  0  0
 12 33  1  0  0  0  0
 13 14  1  0  0  0  0
 14 15  1  0  0  0  0
 14 34  1  0  0  0  0
 14 35  1  0  0  0  0
 15 16  1  0  0  0  0
 15 18  1  0  0  0  0
 15 36  1  0  0  0  0
 16 17  1  0  0  0  0
 16 37  1  0  0  0  0
 16 38  1  0  0  0  0
 17 39  1  0  0  0  0
 18 22  1  0  0  0  0
 18 19  1  0  0  0  0
 18 40  1  0  0  0  0
 19 20  1  0  0  0  0
 19 41  1  0  0  0  0
 19 42  1  0  0  0  0
 20 21  1  0  0  0  0
 20 43  1  0  0  0  0
 20 44  1  0  0  0  0
 21 22  1  0  0  0  0
 22 45  1  0  0  0  0
 22 46  1  0  0  0  0
 23 25  1  0  0  0  0
 23 24  1  0  0  0  0
 23 47  1  0  0  0  0
 24 25  1  0  0  0  0
 24 48  1  0  0  0  0
 24 49  1  0  0  0  0
 25 50  1  0  0  0  0
 25 51  1  0  0  0  0
 26 27  1  0  0  0  0
 26 52  1  0  0  0  0
 27 29  1  0  0  0  0
 27 28  1  0  0  0  0
 27 53  1  0  0  0  0
 28 29  1  0  0  0  0
 28 54  1  0  0  0  0
 28 55  1  0  0  0  0
 29 56  1  0  0  0  0
 29 57  1  0  0  0  0
M  END
> <s_m_source_file>
AV-unprocessed.smi

> <i_m_source_file_index>
77

> <i_lp_mmshare_version>
43012

> <i_f3d_flags>
0

> <s_epik_input>
W0NIMl0xW0NIMl1bQ0hdMVtOSF1DKD1PKVtDSDJdTihbQ0hdMltDSDJdW0NIMl0yKWMobltjSF1uMyljKGMzNCluW2NIXW40W0NIMl1bQ0BIXShbQ0gyXVtPSF0pW0NAQEhdNVtDSDJdW0NIMl1PW0NIMl01

> <s_epik_cmdline>
J2VwaWtfcHl0aG9uJywgJy1waCcsICc3LjAnLCAnLXRuJywgJzgnLCAnLW1hJywgJzIwMCcsICctbWV0YWxfYmluZGluZycsICctaW1hZScsICc8aW5maWxlLm1hZT4nLCAnLW9tYWUnLCAnPG91dGZpbGUubWFlPic=

> <r_lp_tautomer_probability>
1

> <r_epik_Ionization_Penalty>
0.000703847

> <r_epik_Ionization_Penalty_Charging>
0

> <r_epik_Ionization_Penalty_Neutral>
0.000703847

> <r_epik_State_Penalty>
0.00034025

> <r_epik_Charging_Adjusted_Penalty>
0.00034025

> <i_epik_Tot_Q>
0

> <i_epik_Tot_abs_Q>
0

> <r_epik_Metal_State_Penalty>
-0

> <b_epik_Metal_Only>
0

> <s_lp_Force_Field>
OPLS_2005

> <r_lp_Energy>
55.2708

> <b_lp_Chiralities_Consistent>
1

> <s_lp_Variant>
AV-unprocessed.smi:77-1

> <Gold.Version>
5.8.1

> <Gold.Id.Protein>
6NUR|6NUR_protein|mol2

> <Gold.PLP.Fitness>
50.7602

> <Gold.PLP.PLP>
-47.0583

> <Gold.PLP.part.hbond>
-3.5636

> <Gold.PLP.part.metal>
0.0000

> <Gold.PLP.part.buried>
-4.7021

> <Gold.PLP.part.nonpolar>
-39.5851

> <Gold.PLP.part.repulsive>
1.5518

> <Gold.PLP.ligand.clash>
0.0000

> <Gold.PLP.ligand.torsion>
2.0696

> <Gold.PLP.Chemscore.Hbond>
1.9280

> <Gold.PLP.Chemscore.CHOScore>
0.0000

> <Gold.PLP.Chemscore.Metal>
0.0000

> <Gold.Chemscore.Hbonds>
donor molecule, donor type, donor heavy atom, donor atom, acceptor molecule, acceptor atom, score
      L1  H    17    39       P1  7948  1.00
      P1  H  7997  8008       L1     1  0.96

> <Gold.PLP.Chemscore.Internal.Correction>
2.0571

> <Gold.Rescore>
     Score         DG    S(hbond)    S(metal)    S(lipo)     H(rot)  DE(clash)    DE(int)     intcor
      6.19     -12.96       1.97        0.00      90.26       3.77       0.91       5.87       ----

> <Gold.Chemscore.Fitness>
6.1861

> <Gold.Chemscore.DG>
-12.9649

> <Gold.Chemscore.ZeroCoef>
-5.4800

> <Gold.Chemscore.Hbond>
1.9698

> <Gold.Chemscore.Metal>
0.0000

> <Gold.Chemscore.Lipo>
90.2616

> <Gold.Chemscore.Internal_Hbond>
0.0000

> <Gold.Chemscore.DEClash>
0.9072

> <Gold.Chemscore.DEInternal>
5.8717

> <Gold.Chemscore.Rot>
3.7714

> <Gold.Chemscore.Internal.Correction>
   9.000000E+99

> <Gold.Chemscore.Hbonds>
donor molecule, donor type, donor heavy atom, donor atom, acceptor molecule, acceptor atom, score
      L1  H    17    39       P1  7948  0.89
      P1  H  7997  8008       L1     1  0.91

> <Gold.Chemscore.Hbond.Weighted>
-6.5791

> <Gold.Chemscore.Metal.Weighted>
-0.0000

> <Gold.Chemscore.Lipo.Weighted>
-10.5606

> <Gold.Chemscore.Internal_Hbond.Weighted>
0.0000

> <Gold.Chemscore.DEClash.Weighted>
0.9072

> <Gold.Chemscore.DEInternal.Weighted>
5.8717

> <Gold.Chemscore.Rot.Weighted>
9.6548

> <Gold.Chemscore.Internal.Correction.Weighted>
   9.000000E+99

> <Gold.Protein.RotatedTorsions>
[ 6907 6896 6895 6894 ] final  -56.30 input  -60.11 | X-H torsion
[ 7974 7965 7964 7962 ] final  -49.97 input  175.53 | X-H torsion
[ 8008 7997 7996 7995 ] final -109.17 input   59.86 | X-H torsion
[ 10167 10162 10161 10158 ] final  -35.49 input  -65.29 | X-H torsion
[ 10718 10713 10712 10709 ] final -174.88 input   66.30 | X-H torsion
[ 10763 10752 10751 10750 ] final   82.68 input  -60.55 | X-H torsion
[ 11005 11000 10999 10996 ] final -163.94 input  -57.11 | X-H torsion

> <Gold.Protein.ActiveResidues>
 VAL166  LYS551  ARG553  GLY616  TRP617  ASP618  TYR619  PRO620  LYS621  CYS622 
 ASP623  PHE694  ASN695  SER759  ASP760  ASP761  ALA762  ILE779  LEU786  VAL792 
 PHE793  MET794  SER795  GLU796  ALA797  LYS798  CYS799  TRP800  GLU811  SER814 

> <Gold.Protein.RotatedAtoms>
  150.8179  134.7371  159.6745 H   0  0  0  0  0  0  0  0  0  0  0  0  # atno 6907 bound_to 6896
  152.4297  134.5799  159.9954 H   0  0  0  0  0  0  0  0  0  0  0  0  # atno 6908 bound_to 6896
  151.5990  133.3321  159.3079 H   0  0  0  0  0  0  0  0  0  0  0  0  # atno 6909 bound_to 6896
  145.9348  140.7716  142.9581 H   0  0  0  0  0  0  0  0  0  0  0  0  # atno 7974 bound_to 7965
  154.9553  140.0400  157.2163 H   0  0  0  0  0  0  0  0  0  0  0  0  # atno 8008 bound_to 7997
  154.7940  140.2840  155.5948 H   0  0  0  0  0  0  0  0  0  0  0  0  # atno 8009 bound_to 7997
  156.2953  140.2568  156.2794 H   0  0  0  0  0  0  0  0  0  0  0  0  # atno 8010 bound_to 7997
  140.7164  143.3474  151.2228 H   0  0  0  0  0  0  0  0  0  0  0  0  # atno 10167 bound_to 10162
  156.7917  130.9520  151.3120 H   0  0  0  0  0  0  0  0  0  0  0  0  # atno 10718 bound_to 10713
  153.1224  135.4719  154.9217 H   0  0  0  0  0  0  0  0  0  0  0  0  # atno 10763 bound_to 10752
  154.7588  135.3125  154.8421 H   0  0  0  0  0  0  0  0  0  0  0  0  # atno 10764 bound_to 10752
  153.8982  135.6878  153.4810 H   0  0  0  0  0  0  0  0  0  0  0  0  # atno 10765 bound_to 10752
  140.5924  134.5031  157.5194 H   0  0  0  0  0  0  0  0  0  0  0  0  # atno 11005 bound_to 11000
  144.6770  140.2185  143.7369 LP  0  0  0  0  0  0  0  0  0  0  0  0  # atno 17320 bound_to 7965
  145.8378  139.2115  143.1845 LP  0  0  0  0  0  0  0  0  0  0  0  0  # atno 17321 bound_to 7965
  139.6996  143.9555  152.2899 LP  0  0  0  0  0  0  0  0  0  0  0  0  # atno 17342 bound_to 10162
  139.9243  144.6780  150.8428 LP  0  0  0  0  0  0  0  0  0  0  0  0  # atno 17343 bound_to 10162
  157.6597  130.8955  149.9804 LP  0  0  0  0  0  0  0  0  0  0  0  0  # atno 17370 bound_to 10713
  156.1155  130.3648  149.9975 LP  0  0  0  0  0  0  0  0  0  0  0  0  # atno 17371 bound_to 10713
  139.9268  134.8040  156.1045 LP  0  0  0  0  0  0  0  0  0  0  0  0  # atno 17394 bound_to 11000
  141.0926  133.6708  156.2574 LP  0  0  0  0  0  0  0  0  0  0  0  0  # atno 17395 bound_to 11000

$$$$
