AV-unprocessed.smi:696|AV-procd|sdf|3387|dock6
  -GOLD-   22720 0363D 1   1.00000     0.00000
 Structure written by MMmdl.
 37 38  0  0  0  0  0  0  0  0  2 V2000
  152.5339  139.6154  156.4435 O   0  0  0  0  0  0  0  0  0  0  0  0
  151.5889  140.3963  156.5615 C   0  0  0  0  0  0  0  0  0  0  0  0
  150.6025  140.4985  155.6570 N   0  0  0  0  0  0  0  0  0  0  0  0
  150.5017  139.7126  154.4326 C   0  0  0  0  0  0  0  0  0  0  0  0
  149.8717  138.3299  154.7002 C   0  0  0  0  0  0  0  0  0  0  0  0
  150.7842  137.3247  155.3898 C   0  0  0  0  0  0  0  0  0  0  0  0
  152.0660  137.2857  155.3781 N   0  0  0  0  0  0  0  0  0  0  0  0
  152.4107  136.1511  156.1825 N   0  5  0  0  0  0  0  0  0  0  0  0
  151.2487  135.6029  156.6132 C   0  0  0  0  0  0  0  0  0  0  0  0
  151.0818  134.6172  157.3283 O   0  0  0  0  0  0  0  0  0  0  0  0
  150.2360  136.3158  156.1321 N   0  0  0  0  0  0  0  0  0  0  0  0
  151.4970  141.3176  157.7875 C   0  0  0  0  0  0  0  0  0  0  0  0
  151.3050  142.7849  157.3373 C   0  0  0  0  0  0  0  0  0  0  0  0
  150.7799  143.6950  158.4608 C   0  0  0  0  0  0  0  0  0  0  0  0
  151.8574  144.3220  159.3638 C   0  0  0  0  0  0  0  0  0  0  0  0
  153.0627  143.4335  159.7204 C   0  0  0  0  0  0  0  0  0  0  0  0
  152.7388  141.9536  159.9806 C   0  0  0  0  0  0  0  0  0  0  0  0
  152.7281  141.1079  158.6946 C   0  0  0  0  0  0  0  0  0  0  0  0
  149.2512  136.1541  156.2808 H   0  0  0  0  0  0  0  0  0  0  0  0
  149.8651  141.1657  155.8322 H   0  0  0  0  0  0  0  0  0  0  0  0
  149.8872  140.2756  153.7290 H   0  0  0  0  0  0  0  0  0  0  0  0
  151.4882  139.6107  153.9763 H   0  0  0  0  0  0  0  0  0  0  0  0
  148.9736  138.4435  155.3084 H   0  0  0  0  0  0  0  0  0  0  0  0
  149.5471  137.8952  153.7541 H   0  0  0  0  0  0  0  0  0  0  0  0
  150.6117  141.0175  158.3510 H   0  0  0  0  0  0  0  0  0  0  0  0
  152.2238  143.1910  156.9117 H   0  0  0  0  0  0  0  0  0  0  0  0
  150.5710  142.8090  156.5298 H   0  0  0  0  0  0  0  0  0  0  0  0
  150.2046  144.5080  158.0167 H   0  0  0  0  0  0  0  0  0  0  0  0
  150.0650  143.1438  159.0729 H   0  0  0  0  0  0  0  0  0  0  0  0
  152.2356  145.2286  158.8902 H   0  0  0  0  0  0  0  0  0  0  0  0
  151.3754  144.6548  160.2836 H   0  0  0  0  0  0  0  0  0  0  0  0
  153.8157  143.5064  158.9347 H   0  0  0  0  0  0  0  0  0  0  0  0
  153.5363  143.8538  160.6083 H   0  0  0  0  0  0  0  0  0  0  0  0
  153.5161  141.5515  160.6313 H   0  0  0  0  0  0  0  0  0  0  0  0
  151.8045  141.8464  160.5328 H   0  0  0  0  0  0  0  0  0  0  0  0
  152.7674  140.0565  158.9840 H   0  0  0  0  0  0  0  0  0  0  0  0
  153.6473  141.2904  158.1354 H   0  0  0  0  0  0  0  0  0  0  0  0
  1  2  2  0  0  0  0
  2  3  1  0  0  0  0
  2 12  1  0  0  0  0
  3  4  1  0  0  0  0
  3 20  1  0  0  0  0
  4  5  1  0  0  0  0
  4 21  1  0  0  0  0
  4 22  1  0  0  0  0
  5  6  1  0  0  0  0
  5 23  1  0  0  0  0
  5 24  1  0  0  0  0
  6 11  1  0  0  0  0
  6  7  2  0  0  0  0
  7  8  1  0  0  0  0
  8  9  1  0  0  0  0
  9 10  2  0  0  0  0
  9 11  1  0  0  0  0
 11 19  1  0  0  0  0
 12 18  1  0  0  0  0
 12 13  1  0  0  0  0
 12 25  1  0  0  0  0
 13 14  1  0  0  0  0
 13 26  1  0  0  0  0
 13 27  1  0  0  0  0
 14 15  1  0  0  0  0
 14 28  1  0  0  0  0
 14 29  1  0  0  0  0
 15 16  1  0  0  0  0
 15 30  1  0  0  0  0
 15 31  1  0  0  0  0
 16 17  1  0  0  0  0
 16 32  1  0  0  0  0
 16 33  1  0  0  0  0
 17 18  1  0  0  0  0
 17 34  1  0  0  0  0
 17 35  1  0  0  0  0
 18 36  1  0  0  0  0
 18 37  1  0  0  0  0
M  CHG  1   8  -1
M  END
> <s_m_source_file>
AV-unprocessed.smi

> <i_m_source_file_index>
696

> <i_lp_mmshare_version>
43012

> <i_f3d_flags>
0

> <s_epik_input>
W0NIMl0xW0NIMl1bQ0gyXVtDSDJdW0NIMl1bQ0gyXVtDSF0xQyg9TylbTkhdW0NIMl1bQ0gyXWMybltuSF1jKD1PKVtuSF0y

> <s_epik_cmdline>
J2VwaWtfcHl0aG9uJywgJy1waCcsICc3LjAnLCAnLXRuJywgJzgnLCAnLW1hJywgJzIwMCcsICctbWV0YWxfYmluZGluZycsICctaW1hZScsICc8aW5maWxlLm1hZT4nLCAnLW9tYWUnLCAnPG91dGZpbGUubWFlPic=

> <r_lp_tautomer_probability>
1

> <r_epik_Ionization_Penalty>
14.1589

> <r_epik_Ionization_Penalty_Charging>
13.7723

> <r_epik_Ionization_Penalty_Neutral>
0.386566

> <r_epik_State_Penalty>
4.88838

> <r_epik_Charging_Adjusted_Penalty>
18.6607

> <i_epik_Tot_Q>
-1

> <i_epik_Tot_abs_Q>
1

> <r_epik_Metal_State_Penalty>
1.30742

> <b_epik_Metal_Only>
1

> <s_lp_Force_Field>
OPLS_2005

> <r_lp_Energy>
24.8818

> <b_lp_Chiralities_Consistent>
1

> <s_lp_Variant>
AV-unprocessed.smi:696-2

> <Gold.Version>
5.8.1

> <Gold.Id.Protein>
6NUR|6NUR_protein|mol2

> <Gold.PLP.Fitness>
42.5163

> <Gold.PLP.PLP>
-33.7808

> <Gold.PLP.part.hbond>
-4.0000

> <Gold.PLP.part.metal>
0.0000

> <Gold.PLP.part.buried>
-3.4316

> <Gold.PLP.part.nonpolar>
-26.9184

> <Gold.PLP.part.repulsive>
0.2309

> <Gold.PLP.ligand.clash>
0.0000

> <Gold.PLP.ligand.torsion>
0.6313

> <Gold.PLP.Chemscore.Hbond>
3.3200

> <Gold.PLP.Chemscore.CHOScore>
0.0000

> <Gold.PLP.Chemscore.Metal>
0.0000

> <Gold.Chemscore.Hbonds>
donor molecule, donor type, donor heavy atom, donor atom, acceptor molecule, acceptor atom, score
      P1  H  6896  6907       L1    10  0.25
      P1  H  7997  8008       L1     1  1.00
      P1  H 10752 10763       L1     8  2.00

> <Gold.PLP.Chemscore.Internal.Correction>
0.0381

> <Gold.Rescore>
     Score         DG    S(hbond)    S(metal)    S(lipo)     H(rot)  DE(clash)    DE(int)     intcor
     13.94     -16.36       2.06        0.00      83.51       2.25       0.31       2.10       ----

> <Gold.Chemscore.Fitness>
13.9439

> <Gold.Chemscore.DG>
-16.3558

> <Gold.Chemscore.ZeroCoef>
-5.4800

> <Gold.Chemscore.Hbond>
2.0554

> <Gold.Chemscore.Metal>
0.0000

> <Gold.Chemscore.Lipo>
83.5142

> <Gold.Chemscore.Internal_Hbond>
0.0000

> <Gold.Chemscore.DEClash>
0.3120

> <Gold.Chemscore.DEInternal>
2.0999

> <Gold.Chemscore.Rot>
2.2501

> <Gold.Chemscore.Internal.Correction>
   9.000000E+99

> <Gold.Chemscore.Hbonds>
donor molecule, donor type, donor heavy atom, donor atom, acceptor molecule, acceptor atom, score
      P1  H  6896  6907       L1    10  0.24
      P1  H  7997  8008       L1     1  1.00
      P1  H 10752 10763       L1     8  0.36

> <Gold.Chemscore.Hbond.Weighted>
-6.8649

> <Gold.Chemscore.Metal.Weighted>
-0.0000

> <Gold.Chemscore.Lipo.Weighted>
-9.7712

> <Gold.Chemscore.Internal_Hbond.Weighted>
0.0000

> <Gold.Chemscore.DEClash.Weighted>
0.3120

> <Gold.Chemscore.DEInternal.Weighted>
2.0999

> <Gold.Chemscore.Rot.Weighted>
5.7603

> <Gold.Chemscore.Internal.Correction.Weighted>
   9.000000E+99

> <Gold.Protein.RotatedTorsions>
[ 6907 6896 6895 6894 ] final -106.53 input  -60.11 | X-H torsion
[ 7974 7965 7964 7962 ] final -148.74 input  175.53 | X-H torsion
[ 8008 7997 7996 7995 ] final  -47.81 input   59.86 | X-H torsion
[ 10167 10162 10161 10158 ] final  118.42 input  -65.29 | X-H torsion
[ 10718 10713 10712 10709 ] final   17.54 input   66.30 | X-H torsion
[ 10763 10752 10751 10750 ] final  113.91 input  -60.55 | X-H torsion
[ 11005 11000 10999 10996 ] final  130.60 input  -57.11 | X-H torsion

> <Gold.Protein.ActiveResidues>
 VAL166  LYS551  ARG553  GLY616  TRP617  ASP618  TYR619  PRO620  LYS621  CYS622 
 ASP623  PHE694  ASN695  SER759  ASP760  ASP761  ALA762  ILE779  LEU786  VAL792 
 PHE793  MET794  SER795  GLU796  ALA797  LYS798  CYS799  TRP800  GLU811  SER814 

> <Gold.Protein.RotatedAtoms>
  150.7394  133.9962  159.3622 H   0  0  0  0  0  0  0  0  0  0  0  0  # atno 6907 bound_to 6896
  151.7913  135.0733  160.0397 H   0  0  0  0  0  0  0  0  0  0  0  0  # atno 6908 bound_to 6896
  152.3206  133.5813  159.5778 H   0  0  0  0  0  0  0  0  0  0  0  0  # atno 6909 bound_to 6896
  144.8011  140.5157  143.5707 H   0  0  0  0  0  0  0  0  0  0  0  0  # atno 7974 bound_to 7965
  154.4021  140.1337  156.4236 H   0  0  0  0  0  0  0  0  0  0  0  0  # atno 8008 bound_to 7997
  155.7618  140.3486  155.5182 H   0  0  0  0  0  0  0  0  0  0  0  0  # atno 8009 bound_to 7997
  155.8851  140.0994  157.1448 H   0  0  0  0  0  0  0  0  0  0  0  0  # atno 8010 bound_to 7997
  139.6113  144.7082  151.2838 H   0  0  0  0  0  0  0  0  0  0  0  0  # atno 10167 bound_to 10162
  157.0835  130.6398  149.5832 H   0  0  0  0  0  0  0  0  0  0  0  0  # atno 10718 bound_to 10713
  153.4995  135.3641  155.2533 H   0  0  0  0  0  0  0  0  0  0  0  0  # atno 10763 bound_to 10752
  154.8748  135.3996  154.3495 H   0  0  0  0  0  0  0  0  0  0  0  0  # atno 10764 bound_to 10752
  153.4128  135.7078  153.6413 H   0  0  0  0  0  0  0  0  0  0  0  0  # atno 10765 bound_to 10752
  139.9681  134.9585  156.9318 H   0  0  0  0  0  0  0  0  0  0  0  0  # atno 11005 bound_to 11000
  145.5552  139.1477  143.3372 LP  0  0  0  0  0  0  0  0  0  0  0  0  # atno 17320 bound_to 7965
  146.2292  140.5689  142.8983 LP  0  0  0  0  0  0  0  0  0  0  0  0  # atno 17321 bound_to 7965
  140.7321  143.6833  150.7982 LP  0  0  0  0  0  0  0  0  0  0  0  0  # atno 17342 bound_to 10162
  140.0428  143.5328  152.2710 LP  0  0  0  0  0  0  0  0  0  0  0  0  # atno 17343 bound_to 10162
  155.9917  130.4972  150.7310 LP  0  0  0  0  0  0  0  0  0  0  0  0  # atno 17370 bound_to 10713
  157.4780  131.0899  151.0568 LP  0  0  0  0  0  0  0  0  0  0  0  0  # atno 17371 bound_to 10713
  140.5351  134.0775  155.7326 LP  0  0  0  0  0  0  0  0  0  0  0  0  # atno 17394 bound_to 11000
  141.1361  133.9218  157.2430 LP  0  0  0  0  0  0  0  0  0  0  0  0  # atno 17395 bound_to 11000

$$$$
