AV-unprocessed.smi:2630|AV-procd|sdf|10247|dock9
  -GOLD-   2272014253D 1   1.00000     0.00000
 Structure written by MMmdl.
 34 35  0  0  0  0  0  0  0  0  2 V2000
  149.7261  140.9360  154.6063 C   0  0  0  0  0  0  0  0  0  0  0  0
  150.8127  140.0283  154.5795 O   0  0  0  0  0  0  0  0  0  0  0  0
  150.4113  138.7045  154.2690 C   0  0  0  0  0  0  0  0  0  0  0  0
  149.5503  138.1370  155.4105 C   0  0  0  0  0  0  0  0  0  0  0  0
  149.2724  136.6964  155.2260 N   0  0  0  0  0  0  0  0  0  0  0  0
  147.9222  136.2628  155.1496 C   0  0  0  0  0  0  0  0  0  0  0  0
  146.8910  137.1821  155.2523 N   0  0  0  0  0  0  0  0  0  0  0  0
  147.6572  134.9492  154.9708 C   0  0  0  0  0  0  0  0  0  0  0  0
  146.0394  134.2216  154.8311 S   0  0  0  0  0  0  0  0  0  0  0  0
  146.0902  133.6101  153.1789 C   0  0  0  0  0  0  0  0  0  0  0  0
  145.9480  132.2297  152.9348 C   0  0  0  0  0  0  0  0  0  0  0  0
  145.9836  131.7434  151.6132 C   0  0  0  0  0  0  0  0  0  0  0  0
  146.1625  132.6362  150.5379 C   0  0  0  0  0  0  0  0  0  0  0  0
  146.3070  134.0160  150.7837 C   0  0  0  0  0  0  0  0  0  0  0  0
  146.2717  134.5038  152.1045 C   0  0  0  0  0  0  0  0  0  0  0  0
  148.7481  133.9786  154.8622 C   0  0  0  0  0  0  0  0  0  0  0  0
  148.5226  132.7771  154.7105 O   0  0  0  0  0  0  0  0  0  0  0  0
  150.0135  134.4736  154.9353 N   0  5  0  0  0  0  0  0  0  0  0  0
  150.3016  135.7986  155.1063 C   0  0  0  0  0  0  0  0  0  0  0  0
  151.4638  136.2033  155.1548 O   0  0  0  0  0  0  0  0  0  0  0  0
  150.0903  141.9348  154.8463 H   0  0  0  0  0  0  0  0  0  0  0  0
  148.9942  140.6530  155.3636 H   0  0  0  0  0  0  0  0  0  0  0  0
  149.2282  140.9832  153.6369 H   0  0  0  0  0  0  0  0  0  0  0  0
  149.8299  138.7122  153.3459 H   0  0  0  0  0  0  0  0  0  0  0  0
  151.2836  138.0727  154.0951 H   0  0  0  0  0  0  0  0  0  0  0  0
  150.0318  138.3445  156.3672 H   0  0  0  0  0  0  0  0  0  0  0  0
  148.6138  138.6913  155.4718 H   0  0  0  0  0  0  0  0  0  0  0  0
  147.0726  138.1669  155.3819 H   0  0  0  0  0  0  0  0  0  0  0  0
  145.9298  136.9202  155.0884 H   0  0  0  0  0  0  0  0  0  0  0  0
  145.8092  131.5434  153.7572 H   0  0  0  0  0  0  0  0  0  0  0  0
  145.8731  130.6860  151.4240 H   0  0  0  0  0  0  0  0  0  0  0  0
  146.1886  132.2632  149.5248 H   0  0  0  0  0  0  0  0  0  0  0  0
  146.4439  134.7008  149.9598 H   0  0  0  0  0  0  0  0  0  0  0  0
  146.3801  135.5625  152.2906 H   0  0  0  0  0  0  0  0  0  0  0  0
  1  2  1  0  0  0  0
  1 21  1  0  0  0  0
  1 22  1  0  0  0  0
  1 23  1  0  0  0  0
  2  3  1  0  0  0  0
  3  4  1  0  0  0  0
  3 24  1  0  0  0  0
  3 25  1  0  0  0  0
  4  5  1  0  0  0  0
  4 26  1  0  0  0  0
  4 27  1  0  0  0  0
  5 19  1  0  0  0  0
  5  6  1  0  0  0  0
  6  7  1  0  0  0  0
  6  8  2  0  0  0  0
  7 28  1  0  0  0  0
  7 29  1  0  0  0  0
  8  9  1  0  0  0  0
  8 16  1  0  0  0  0
  9 10  1  0  0  0  0
 10 15  1  0  0  0  0
 10 11  2  0  0  0  0
 11 12  1  0  0  0  0
 11 30  1  0  0  0  0
 12 13  2  0  0  0  0
 12 31  1  0  0  0  0
 13 14  1  0  0  0  0
 13 32  1  0  0  0  0
 14 15  2  0  0  0  0
 14 33  1  0  0  0  0
 15 34  1  0  0  0  0
 16 17  2  0  0  0  0
 16 18  1  0  0  0  0
 18 19  1  0  0  0  0
 19 20  2  0  0  0  0
M  CHG  1  18  -1
M  END
> <s_m_source_file>
AV-unprocessed.smi

> <i_m_source_file_index>
2630

> <i_lp_mmshare_version>
43012

> <i_f3d_flags>
0

> <s_epik_input>
W0NIM11PW0NIMl1bQ0gyXW4xYyhbTkgyXSljKGMoPU8pW25IXWMxPU8pU2MyW2NIXVtjSF1bY0hdW2NIXVtjSF0y

> <s_epik_cmdline>
J2VwaWtfcHl0aG9uJywgJy1waCcsICc3LjAnLCAnLXRuJywgJzgnLCAnLW1hJywgJzIwMCcsICctbWV0YWxfYmluZGluZycsICctaW1hZScsICc8aW5maWxlLm1hZT4nLCAnLW9tYWUnLCAnPG91dGZpbGUubWFlPic=

> <r_lp_tautomer_probability>
1

> <r_epik_Ionization_Penalty>
6.52921

> <r_epik_Ionization_Penalty_Charging>
0.111036

> <r_epik_Ionization_Penalty_Neutral>
6.41817

> <r_epik_State_Penalty>
6.41816

> <r_epik_Charging_Adjusted_Penalty>
6.5292

> <i_epik_Tot_Q>
-1

> <i_epik_Tot_abs_Q>
1

> <r_epik_Metal_State_Penalty>
2.337

> <b_epik_Metal_Only>
1

> <s_epik_Chemistry_Notes>
This compound has an imine and may undergo hydrolysis.

> <s_lp_Force_Field>
OPLS_2005

> <r_lp_Energy>
30.4306

> <b_lp_Chiralities_Consistent>
1

> <s_lp_Variant>
AV-unprocessed.smi:2630-2

> <Gold.Version>
5.8.1

> <Gold.Id.Protein>
6NUR|6NUR_protein|mol2

> <Gold.PLP.Fitness>
32.7596

> <Gold.PLP.PLP>
-26.8344

> <Gold.PLP.part.hbond>
-2.0000

> <Gold.PLP.part.metal>
0.0000

> <Gold.PLP.part.buried>
-4.5117

> <Gold.PLP.part.nonpolar>
-20.5298

> <Gold.PLP.part.repulsive>
0.4310

> <Gold.PLP.ligand.clash>
0.0000

> <Gold.PLP.ligand.torsion>
0.0542

> <Gold.PLP.Chemscore.Hbond>
2.0000

> <Gold.PLP.Chemscore.CHOScore>
0.0000

> <Gold.PLP.Chemscore.Metal>
0.0000

> <Gold.Chemscore.Hbonds>
donor molecule, donor type, donor heavy atom, donor atom, acceptor molecule, acceptor atom, score
      P1  H  7989  7998       L1     2  0.70
      P1  H 10752 10764       L1    20  1.00

> <Gold.PLP.Chemscore.Internal.Correction>
0.0335

> <Gold.Rescore>
     Score         DG    S(hbond)    S(metal)    S(lipo)     H(rot)  DE(clash)    DE(int)     intcor
     12.95     -13.23       1.94        0.00      55.20       2.02       0.00       0.28       ----

> <Gold.Chemscore.Fitness>
12.9482

> <Gold.Chemscore.DG>
-13.2296

> <Gold.Chemscore.ZeroCoef>
-5.4800

> <Gold.Chemscore.Hbond>
1.9373

> <Gold.Chemscore.Metal>
0.0000

> <Gold.Chemscore.Lipo>
55.2048

> <Gold.Chemscore.Internal_Hbond>
0.0000

> <Gold.Chemscore.DEClash>
0.0000

> <Gold.Chemscore.DEInternal>
0.2814

> <Gold.Chemscore.Rot>
2.0234

> <Gold.Chemscore.Internal.Correction>
   9.000000E+99

> <Gold.Chemscore.Hbonds>
donor molecule, donor type, donor heavy atom, donor atom, acceptor molecule, acceptor atom, score
      P1  H  7989  7998       L1     2  0.07
      P1  H 10752 10764       L1    20  1.00

> <Gold.Chemscore.Hbond.Weighted>
-6.4705

> <Gold.Chemscore.Metal.Weighted>
-0.0000

> <Gold.Chemscore.Lipo.Weighted>
-6.4590

> <Gold.Chemscore.Internal_Hbond.Weighted>
0.0000

> <Gold.Chemscore.DEClash.Weighted>
0.0000

> <Gold.Chemscore.DEInternal.Weighted>
0.2814

> <Gold.Chemscore.Rot.Weighted>
5.1798

> <Gold.Chemscore.Internal.Correction.Weighted>
   9.000000E+99

> <Gold.Protein.RotatedTorsions>
[ 6907 6896 6895 6894 ] final    4.47 input  -60.11 | X-H torsion
[ 7974 7965 7964 7962 ] final   96.14 input  175.53 | X-H torsion
[ 8008 7997 7996 7995 ] final  153.46 input   59.86 | X-H torsion
[ 10167 10162 10161 10158 ] final  145.10 input  -65.29 | X-H torsion
[ 10718 10713 10712 10709 ] final   19.79 input   66.30 | X-H torsion
[ 10763 10752 10751 10750 ] final  -50.97 input  -60.55 | X-H torsion
[ 11005 11000 10999 10996 ] final  121.87 input  -57.11 | X-H torsion

> <Gold.Protein.ActiveResidues>
 VAL166  LYS551  ARG553  GLY616  TRP617  ASP618  TYR619  PRO620  LYS621  CYS622 
 ASP623  PHE694  ASN695  SER759  ASP760  ASP761  ALA762  ILE779  LEU786  VAL792 
 PHE793  MET794  SER795  GLU796  ALA797  LYS798  CYS799  TRP800  GLU811  SER814 

> <Gold.Protein.RotatedAtoms>
  151.6419  135.1012  160.0142 H   0  0  0  0  0  0  0  0  0  0  0  0  # atno 6907 bound_to 6896
  152.4049  133.6870  159.6356 H   0  0  0  0  0  0  0  0  0  0  0  0  # atno 6908 bound_to 6896
  150.7945  133.8643  159.3281 H   0  0  0  0  0  0  0  0  0  0  0  0  # atno 6909 bound_to 6896
  145.4428  139.2300  143.3082 H   0  0  0  0  0  0  0  0  0  0  0  0  # atno 7974 bound_to 7965
  156.2580  140.1993  156.6494 H   0  0  0  0  0  0  0  0  0  0  0  0  # atno 8008 bound_to 7997
  154.6548  140.0567  157.0021 H   0  0  0  0  0  0  0  0  0  0  0  0  # atno 8009 bound_to 7997
  155.1364  140.3238  155.4465 H   0  0  0  0  0  0  0  0  0  0  0  0  # atno 8010 bound_to 7997
  139.4933  144.5925  151.6650 H   0  0  0  0  0  0  0  0  0  0  0  0  # atno 10167 bound_to 10162
  157.1154  130.6526  149.5909 H   0  0  0  0  0  0  0  0  0  0  0  0  # atno 10718 bound_to 10713
  154.1189  135.6538  153.4899 H   0  0  0  0  0  0  0  0  0  0  0  0  # atno 10763 bound_to 10752
  153.0232  135.5265  154.7117 H   0  0  0  0  0  0  0  0  0  0  0  0  # atno 10764 bound_to 10752
  154.6318  135.2977  155.0177 H   0  0  0  0  0  0  0  0  0  0  0  0  # atno 10765 bound_to 10752
  139.9244  134.9640  156.8023 H   0  0  0  0  0  0  0  0  0  0  0  0  # atno 11005 bound_to 11000
  146.2547  140.5178  142.8878 LP  0  0  0  0  0  0  0  0  0  0  0  0  # atno 17320 bound_to 7965
  144.8110  140.6386  143.6415 LP  0  0  0  0  0  0  0  0  0  0  0  0  # atno 17321 bound_to 7965
  140.5556  144.0354  150.6146 LP  0  0  0  0  0  0  0  0  0  0  0  0  # atno 17342 bound_to 10162
  140.3422  143.3012  152.0576 LP  0  0  0  0  0  0  0  0  0  0  0  0  # atno 17343 bound_to 10162
  155.9841  130.4863  150.6965 LP  0  0  0  0  0  0  0  0  0  0  0  0  # atno 17370 bound_to 10713
  157.4523  131.0874  151.0833 LP  0  0  0  0  0  0  0  0  0  0  0  0  # atno 17371 bound_to 10713
  140.6379  133.9845  155.7693 LP  0  0  0  0  0  0  0  0  0  0  0  0  # atno 17394 bound_to 11000
  141.0790  134.0091  157.3414 LP  0  0  0  0  0  0  0  0  0  0  0  0  # atno 17395 bound_to 11000

$$$$
