AV-unprocessed.smi:2822|AV-procd|sdf|10879|dock8
  -GOLD-   2272015323D 1   1.00000     0.00000
 Structure written by MMmdl.
 40 42  0  0  0  0  0  0  0  0  2 V2000
  146.5873  142.0427  157.9958 Cl  0  0  0  0  0  0  0  0  0  0  0  0
  146.9048  141.6268  156.3478 C   0  0  0  0  0  0  0  0  0  0  0  0
  145.8215  141.3819  155.4788 C   0  0  0  0  0  0  0  0  0  0  0  0
  146.0499  141.0566  154.1887 N   0  3  0  0  0  0  0  0  0  0  0  0
  147.2927  140.9497  153.6732 C   0  0  0  0  0  0  0  0  0  0  0  0
  148.4162  141.1821  154.4922 C   0  0  0  0  0  0  0  0  0  0  0  0
  148.2295  141.5280  155.8542 C   0  0  0  0  0  0  0  0  0  0  0  0
  149.3064  141.7702  156.7207 N   0  0  0  0  0  0  0  0  0  0  0  0
  150.6724  141.8383  156.2241 C   0  0  0  0  0  0  0  0  0  0  0  0
  151.6768  142.0364  157.3672 C   0  0  1  0  0  0  0  0  0  0  0  0
  151.1134  142.9522  158.4696 C   0  0  0  0  0  0  0  0  0  0  0  0
  152.0373  143.0854  159.5885 N   0  0  0  0  0  0  0  0  0  0  0  0
  151.4907  143.9545  160.6292 C   0  0  0  0  0  0  0  0  0  0  0  0
  152.4612  144.1408  161.8062 C   0  0  0  0  0  0  0  0  0  0  0  0
  152.8489  142.7785  162.3990 C   0  0  0  0  0  0  0  0  0  0  0  0
  153.3705  141.8491  161.2920 C   0  0  0  0  0  0  0  0  0  0  0  0
  152.3649  141.7608  160.1251 C   0  0  2  0  0  0  0  0  0  0  0  0
  152.9001  140.8351  159.0134 C   0  0  0  0  0  0  0  0  0  0  0  0
  151.9609  140.7649  157.9450 O   0  0  0  0  0  0  0  0  0  0  0  0
  144.7844  141.4363  155.7762 H   0  0  0  0  0  0  0  0  0  0  0  0
  147.3520  140.6824  152.6282 H   0  0  0  0  0  0  0  0  0  0  0  0
  149.4024  141.0890  154.0627 H   0  0  0  0  0  0  0  0  0  0  0  0
  149.1221  142.1013  157.6578 H   0  0  0  0  0  0  0  0  0  0  0  0
  150.8971  140.9060  155.7045 H   0  0  0  0  0  0  0  0  0  0  0  0
  150.7650  142.6472  155.4981 H   0  0  0  0  0  0  0  0  0  0  0  0
  152.5965  142.4719  156.9715 H   0  0  0  0  0  0  0  0  0  0  0  0
  150.9010  143.9366  158.0508 H   0  0  0  0  0  0  0  0  0  0  0  0
  150.1617  142.5519  158.8228 H   0  0  0  0  0  0  0  0  0  0  0  0
  151.2567  144.9311  160.2038 H   0  0  0  0  0  0  0  0  0  0  0  0
  150.5490  143.5445  160.9974 H   0  0  0  0  0  0  0  0  0  0  0  0
  153.3559  144.6629  161.4645 H   0  0  0  0  0  0  0  0  0  0  0  0
  152.0063  144.7686  162.5728 H   0  0  0  0  0  0  0  0  0  0  0  0
  153.6027  142.9034  163.1767 H   0  0  0  0  0  0  0  0  0  0  0  0
  151.9783  142.3264  162.8757 H   0  0  0  0  0  0  0  0  0  0  0  0
  154.3285  142.2213  160.9260 H   0  0  0  0  0  0  0  0  0  0  0  0
  153.5593  140.8571  161.7037 H   0  0  0  0  0  0  0  0  0  0  0  0
  151.4493  141.3097  160.5119 H   0  0  0  0  0  0  0  0  0  0  0  0
  153.8589  141.1933  158.6350 H   0  0  0  0  0  0  0  0  0  0  0  0
  153.0654  139.8295  159.4007 H   0  0  0  0  0  0  0  0  0  0  0  0
  145.2501  140.8841  153.5788 H   0  0  0  0  0  0  0  0  0  0  0  0
  1  2  1  0  0  0  0
  2  7  1  0  0  0  0
  2  3  2  0  0  0  0
  3  4  1  0  0  0  0
  3 20  1  0  0  0  0
  4  5  2  0  0  0  0
  4 40  1  0  0  0  0
  5  6  1  0  0  0  0
  5 21  1  0  0  0  0
  6  7  2  0  0  0  0
  6 22  1  0  0  0  0
  7  8  1  0  0  0  0
  8  9  1  0  0  0  0
  8 23  1  0  0  0  0
  9 10  1  0  0  0  0
  9 24  1  0  0  0  0
  9 25  1  0  0  0  0
 10 19  1  0  0  0  0
 10 11  1  0  0  0  0
 10 26  1  0  0  0  0
 11 12  1  0  0  0  0
 11 27  1  0  0  0  0
 11 28  1  0  0  0  0
 12 17  1  0  0  0  0
 12 13  1  0  0  0  0
 13 14  1  0  0  0  0
 13 29  1  0  0  0  0
 13 30  1  0  0  0  0
 14 15  1  0  0  0  0
 14 31  1  0  0  0  0
 14 32  1  0  0  0  0
 15 16  1  0  0  0  0
 15 33  1  0  0  0  0
 15 34  1  0  0  0  0
 16 17  1  0  0  0  0
 16 35  1  0  0  0  0
 16 36  1  0  0  0  0
 17 18  1  0  0  0  0
 17 37  1  0  0  0  0
 18 19  1  0  0  0  0
 18 38  1  0  0  0  0
 18 39  1  0  0  0  0
M  CHG  1   4   1
M  END
> <s_m_source_file>
AV-unprocessed.smi

> <i_m_source_file_index>
2822

> <i_lp_mmshare_version>
43012

> <i_f3d_flags>
0

> <s_epik_input>
Q2xjMVtjSF1uW2NIXVtjSF1jMVtOSF1bQ0gyXVtDQEhdKFtDSDJdMilPW0NIMl1bQ0BASF0oTjIzKVtDSDJdW0NIMl1bQ0gyXVtDSDJdMw==

> <s_epik_cmdline>
J2VwaWtfcHl0aG9uJywgJy1waCcsICc3LjAnLCAnLXRuJywgJzgnLCAnLW1hJywgJzIwMCcsICctbWV0YWxfYmluZGluZycsICctaW1hZScsICc8aW5maWxlLm1hZT4nLCAnLW9tYWUnLCAnPG91dGZpbGUubWFlPic=

> <r_epik_Ionization_Penalty>
1.37653

> <r_epik_Ionization_Penalty_Charging>
0.152973

> <r_epik_Ionization_Penalty_Neutral>
1.22356

> <r_epik_State_Penalty>
1.42693

> <r_epik_Charging_Adjusted_Penalty>
1.5799

> <i_epik_Tot_Q>
1

> <i_epik_Tot_abs_Q>
1

> <r_epik_Metal_State_Penalty>
4.59822

> <b_epik_Metal_Only>
0

> <s_lp_Force_Field>
OPLS_2005

> <r_lp_Energy>
43.1838

> <b_lp_Chiralities_Consistent>
1

> <s_lp_Variant>
AV-unprocessed.smi:2822-20

> <Gold.Version>
5.8.1

> <Gold.Id.Protein>
6NUR|6NUR_protein|mol2

> <Gold.PLP.Fitness>
43.8993

> <Gold.PLP.PLP>
-38.4261

> <Gold.PLP.part.hbond>
-2.0000

> <Gold.PLP.part.metal>
0.0000

> <Gold.PLP.part.buried>
-5.7773

> <Gold.PLP.part.nonpolar>
-30.1866

> <Gold.PLP.part.repulsive>
0.0195

> <Gold.PLP.ligand.clash>
0.0000

> <Gold.PLP.ligand.torsion>
0.2637

> <Gold.PLP.Chemscore.Hbond>
2.0000

> <Gold.PLP.Chemscore.CHOScore>
0.0000

> <Gold.PLP.Chemscore.Metal>
0.0000

> <Gold.Chemscore.Hbonds>
donor molecule, donor type, donor heavy atom, donor atom, acceptor molecule, acceptor atom, score
      L1  H     4    40       P1 10175  2.00

> <Gold.PLP.Chemscore.Internal.Correction>
0.0006

> <Gold.Rescore>
     Score         DG    S(hbond)    S(metal)    S(lipo)     H(rot)  DE(clash)    DE(int)     intcor
     18.36     -19.10       0.94        0.00     115.44       1.18       0.52       0.22       ----

> <Gold.Chemscore.Fitness>
18.3640

> <Gold.Chemscore.DG>
-19.0980

> <Gold.Chemscore.ZeroCoef>
-5.4800

> <Gold.Chemscore.Hbond>
0.9370

> <Gold.Chemscore.Metal>
0.0000

> <Gold.Chemscore.Lipo>
115.4369

> <Gold.Chemscore.Internal_Hbond>
0.0000

> <Gold.Chemscore.DEClash>
0.5169

> <Gold.Chemscore.DEInternal>
0.2171

> <Gold.Chemscore.Rot>
1.1788

> <Gold.Chemscore.Internal.Correction>
   9.000000E+99

> <Gold.Chemscore.Hbonds>
donor molecule, donor type, donor heavy atom, donor atom, acceptor molecule, acceptor atom, score
      L1  H     4    40       P1 10175  0.81

> <Gold.Chemscore.Hbond.Weighted>
-3.1295

> <Gold.Chemscore.Metal.Weighted>
-0.0000

> <Gold.Chemscore.Lipo.Weighted>
-13.5061

> <Gold.Chemscore.Internal_Hbond.Weighted>
0.0000

> <Gold.Chemscore.DEClash.Weighted>
0.5169

> <Gold.Chemscore.DEInternal.Weighted>
0.2171

> <Gold.Chemscore.Rot.Weighted>
3.0177

> <Gold.Chemscore.Internal.Correction.Weighted>
   9.000000E+99

> <Gold.Protein.RotatedTorsions>
[ 6907 6896 6895 6894 ] final  175.76 input  -60.11 | X-H torsion
[ 7974 7965 7964 7962 ] final -141.42 input  175.53 | X-H torsion
[ 8008 7997 7996 7995 ] final -168.46 input   59.86 | X-H torsion
[ 10167 10162 10161 10158 ] final    4.02 input  -65.29 | X-H torsion
[ 10718 10713 10712 10709 ] final -141.66 input   66.30 | X-H torsion
[ 10763 10752 10751 10750 ] final  132.38 input  -60.55 | X-H torsion
[ 11005 11000 10999 10996 ] final  -21.80 input  -57.11 | X-H torsion

> <Gold.Protein.ActiveResidues>
 VAL166  LYS551  ARG553  GLY616  TRP617  ASP618  TYR619  PRO620  LYS621  CYS622 
 ASP623  PHE694  ASN695  SER759  ASP760  ASP761  ALA762  ILE779  LEU786  VAL792 
 PHE793  MET794  SER795  GLU796  ALA797  LYS798  CYS799  TRP800  GLU811  SER814 

> <Gold.Protein.RotatedAtoms>
  151.7310  133.3318  159.3340 H   0  0  0  0  0  0  0  0  0  0  0  0  # atno 6907 bound_to 6896
  150.7612  134.6363  159.6222 H   0  0  0  0  0  0  0  0  0  0  0  0  # atno 6908 bound_to 6896
  152.3592  134.6899  160.0264 H   0  0  0  0  0  0  0  0  0  0  0  0  # atno 6909 bound_to 6896
  144.8521  140.6082  143.5383 H   0  0  0  0  0  0  0  0  0  0  0  0  # atno 7974 bound_to 7965
  155.8918  140.1026  157.1413 H   0  0  0  0  0  0  0  0  0  0  0  0  # atno 8008 bound_to 7997
  154.4016  140.1309  156.4389 H   0  0  0  0  0  0  0  0  0  0  0  0  # atno 8009 bound_to 7997
  155.7525  140.3465  155.5160 H   0  0  0  0  0  0  0  0  0  0  0  0  # atno 8010 bound_to 7997
  140.6556  143.7436  150.7648 H   0  0  0  0  0  0  0  0  0  0  0  0  # atno 10167 bound_to 10162
  156.3366  130.7615  151.1743 H   0  0  0  0  0  0  0  0  0  0  0  0  # atno 10718 bound_to 10713
  153.7898  135.3157  155.3377 H   0  0  0  0  0  0  0  0  0  0  0  0  # atno 10763 bound_to 10752
  154.8130  135.4655  154.0570 H   0  0  0  0  0  0  0  0  0  0  0  0  # atno 10764 bound_to 10752
  153.1885  135.6904  153.8470 H   0  0  0  0  0  0  0  0  0  0  0  0  # atno 10765 bound_to 10752
  140.8596  133.7798  156.0059 H   0  0  0  0  0  0  0  0  0  0  0  0  # atno 11005 bound_to 11000
  145.4479  139.1527  143.3934 LP  0  0  0  0  0  0  0  0  0  0  0  0  # atno 17320 bound_to 7965
  146.2793  140.4604  142.8783 LP  0  0  0  0  0  0  0  0  0  0  0  0  # atno 17321 bound_to 7965
  140.1095  143.4713  152.2378 LP  0  0  0  0  0  0  0  0  0  0  0  0  # atno 17342 bound_to 10162
  139.5778  144.7496  151.3719 LP  0  0  0  0  0  0  0  0  0  0  0  0  # atno 17343 bound_to 10162
  157.7440  131.0466  150.4903 LP  0  0  0  0  0  0  0  0  0  0  0  0  # atno 17370 bound_to 10713
  156.5077  130.4132  149.6318 LP  0  0  0  0  0  0  0  0  0  0  0  0  # atno 17371 bound_to 10713
  140.8698  134.2740  157.5196 LP  0  0  0  0  0  0  0  0  0  0  0  0  # atno 17394 bound_to 11000
  139.8706  134.9561  156.4228 LP  0  0  0  0  0  0  0  0  0  0  0  0  # atno 17395 bound_to 11000

$$$$
