AV-unprocessed.smi:743|AV-procd|sdf|3567|dock5
  -GOLD-   22720 0563D 1   1.00000     0.00000
 Structure written by MMmdl.
 28 29  0  0  0  0  0  0  0  0  1 V2000
  146.7203  142.4936  155.0234 C   0  0  0  0  0  0  0  0  0  0  0  0
  147.9749  141.8269  155.2984 N   0  0  0  0  0  0  0  0  0  0  0  0
  148.7823  141.1219  154.4331 C   0  0  0  0  0  0  0  0  0  0  0  0
  149.8657  140.6789  155.1427 C   0  0  0  0  0  0  0  0  0  0  0  0
  151.0573  139.8623  154.6802 C   0  0  1  0  0  0  0  0  0  0  0  0
  152.0804  139.8012  155.7279 N   0  0  0  0  0  0  0  0  0  0  0  0
  152.2809  138.7921  156.5968 C   0  0  0  0  0  0  0  0  0  0  0  0
  153.0919  138.8902  157.5145 O   0  0  0  0  0  0  0  0  0  0  0  0
  151.5162  137.4706  156.4061 C   0  0  0  0  0  0  0  0  0  0  0  0
  150.3233  137.5622  155.4377 C   0  0  0  0  0  0  0  0  0  0  0  0
  150.6733  138.4329  154.2245 C   0  0  1  0  0  0  0  0  0  0  0  0
  149.5932  138.4283  153.2542 N   0  0  0  0  0  0  0  0  0  0  0  0
  149.6125  141.1724  156.4557 C   0  0  0  0  0  0  0  0  0  0  0  0
  148.4843  141.8571  156.5459 N   0  0  0  0  0  0  0  0  0  0  0  0
  151.5376  137.9866  153.7304 H   0  0  0  0  0  0  0  0  0  0  0  0
  146.4674  142.3939  153.9675 H   0  0  0  0  0  0  0  0  0  0  0  0
  146.8034  143.5528  155.2687 H   0  0  0  0  0  0  0  0  0  0  0  0
  145.9257  142.0472  155.6220 H   0  0  0  0  0  0  0  0  0  0  0  0
  148.5252  140.9983  153.3913 H   0  0  0  0  0  0  0  0  0  0  0  0
  151.5250  140.3644  153.8325 H   0  0  0  0  0  0  0  0  0  0  0  0
  152.6336  140.6360  155.8577 H   0  0  0  0  0  0  0  0  0  0  0  0
  152.2304  136.7405  156.0243 H   0  0  0  0  0  0  0  0  0  0  0  0
  151.1826  137.0988  157.3752 H   0  0  0  0  0  0  0  0  0  0  0  0
  150.0445  136.5588  155.1140 H   0  0  0  0  0  0  0  0  0  0  0  0
  149.4544  137.9667  155.9588 H   0  0  0  0  0  0  0  0  0  0  0  0
  149.7663  139.1285  152.5473 H   0  0  0  0  0  0  0  0  0  0  0  0
  149.5652  137.5374  152.7790 H   0  0  0  0  0  0  0  0  0  0  0  0
  150.2173  141.0542  157.3427 H   0  0  0  0  0  0  0  0  0  0  0  0
  1  2  1  0  0  0  0
  1 16  1  0  0  0  0
  1 17  1  0  0  0  0
  1 18  1  0  0  0  0
  2 14  1  0  0  0  0
  2  3  1  0  0  0  0
  3  4  2  0  0  0  0
  3 19  1  0  0  0  0
  4  5  1  0  0  0  0
  4 13  1  0  0  0  0
  5 11  1  0  0  0  0
  5  6  1  0  0  0  0
  5 20  1  0  0  0  0
  6  7  1  0  0  0  0
  6 21  1  0  0  0  0
  7  8  2  0  0  0  0
  7  9  1  0  0  0  0
  9 10  1  0  0  0  0
  9 22  1  0  0  0  0
  9 23  1  0  0  0  0
 10 11  1  0  0  0  0
 10 24  1  0  0  0  0
 10 25  1  0  0  0  0
 11 15  1  0  0  0  0
 11 12  1  0  0  0  0
 12 26  1  0  0  0  0
 12 27  1  0  0  0  0
 13 14  2  0  0  0  0
 13 28  1  0  0  0  0
M  END
> <s_m_source_file>
AV-unprocessed.smi

> <i_m_source_file_index>
743

> <i_lp_mmshare_version>
43012

> <i_f3d_flags>
0

> <s_epik_input>
W0NIM11uMVtjSF1jKFtjSF1uMSlbQ0BASF0yW05IXUMoPU8pW0NIMl1bQ0gyXVtDQEBIXTJbTkgyXQ==

> <s_epik_cmdline>
J2VwaWtfcHl0aG9uJywgJy1waCcsICc3LjAnLCAnLXRuJywgJzgnLCAnLW1hJywgJzIwMCcsICctbWV0YWxfYmluZGluZycsICctaW1hZScsICc8aW5maWxlLm1hZT4nLCAnLW9tYWUnLCAnPG91dGZpbGUubWFlPic=

> <r_lp_tautomer_probability>
1

> <r_epik_Ionization_Penalty>
2.50279

> <r_epik_Ionization_Penalty_Charging>
0

> <r_epik_Ionization_Penalty_Neutral>
2.50279

> <r_epik_State_Penalty>
2.66754

> <r_epik_Charging_Adjusted_Penalty>
2.66754

> <i_epik_Tot_Q>
0

> <i_epik_Tot_abs_Q>
0

> <r_epik_Metal_State_Penalty>
2.66721

> <b_epik_Metal_Only>
0

> <s_lp_Force_Field>
OPLS_2005

> <r_lp_Energy>
9.07018

> <b_lp_Chiralities_Consistent>
1

> <s_lp_Variant>
AV-unprocessed.smi:743-8

> <Gold.Version>
5.8.1

> <Gold.Id.Protein>
6NUR|6NUR_protein|mol2

> <Gold.PLP.Fitness>
33.5239

> <Gold.PLP.PLP>
-21.7126

> <Gold.PLP.part.hbond>
-3.4335

> <Gold.PLP.part.metal>
0.0000

> <Gold.PLP.part.buried>
0.4412

> <Gold.PLP.part.nonpolar>
-19.6910

> <Gold.PLP.part.repulsive>
0.3692

> <Gold.PLP.ligand.clash>
0.0000

> <Gold.PLP.ligand.torsion>
0.1033

> <Gold.PLP.Chemscore.Hbond>
3.0000

> <Gold.PLP.Chemscore.CHOScore>
1.0000

> <Gold.PLP.Chemscore.Metal>
0.0000

> <Gold.Chemscore.Hbonds>
donor molecule, donor type, donor heavy atom, donor atom, acceptor molecule, acceptor atom, score
      L1  H    12    26       P1  7957  1.00
      L1  H    12    27       P1  7948  1.00
      P1  H  7997  8008       L1     8  1.00
      L1  C     3    19       P1  7957  0.70

> <Gold.PLP.Chemscore.Internal.Correction>
0.0179

> <Gold.Rescore>
     Score         DG    S(hbond)    S(metal)    S(lipo)     H(rot)  DE(clash)    DE(int)     intcor
     15.89     -18.20       2.88        0.00      48.44       1.00       1.36       0.96       ----

> <Gold.Chemscore.Fitness>
15.8855

> <Gold.Chemscore.DG>
-18.2049

> <Gold.Chemscore.ZeroCoef>
-5.4800

> <Gold.Chemscore.Hbond>
2.8796

> <Gold.Chemscore.Metal>
0.0000

> <Gold.Chemscore.Lipo>
48.4366

> <Gold.Chemscore.Internal_Hbond>
0.0000

> <Gold.Chemscore.DEClash>
1.3583

> <Gold.Chemscore.DEInternal>
0.9611

> <Gold.Chemscore.Rot>
1.0000

> <Gold.Chemscore.Internal.Correction>
   9.000000E+99

> <Gold.Chemscore.Hbonds>
donor molecule, donor type, donor heavy atom, donor atom, acceptor molecule, acceptor atom, score
      L1  H    12    26       P1  7957  0.88
      L1  H    12    27       P1  7948  0.65
      P1  H  7997  8008       L1     8  0.55

> <Gold.Chemscore.Hbond.Weighted>
-9.6178

> <Gold.Chemscore.Metal.Weighted>
-0.0000

> <Gold.Chemscore.Lipo.Weighted>
-5.6671

> <Gold.Chemscore.Internal_Hbond.Weighted>
0.0000

> <Gold.Chemscore.DEClash.Weighted>
1.3583

> <Gold.Chemscore.DEInternal.Weighted>
0.9611

> <Gold.Chemscore.Rot.Weighted>
2.5600

> <Gold.Chemscore.Internal.Correction.Weighted>
   9.000000E+99

> <Gold.Protein.RotatedTorsions>
[ 6907 6896 6895 6894 ] final -118.80 input  -60.11 | X-H torsion
[ 7974 7965 7964 7962 ] final  174.02 input  175.53 | X-H torsion
[ 8008 7997 7996 7995 ] final  -74.27 input   59.86 | X-H torsion
[ 10167 10162 10161 10158 ] final   95.18 input  -65.29 | X-H torsion
[ 10718 10713 10712 10709 ] final   98.17 input   66.30 | X-H torsion
[ 10763 10752 10751 10750 ] final  143.83 input  -60.55 | X-H torsion
[ 11005 11000 10999 10996 ] final  102.28 input  -57.11 | X-H torsion

> <Gold.Protein.ActiveResidues>
 VAL166  LYS551  ARG553  GLY616  TRP617  ASP618  TYR619  PRO620  LYS621  CYS622 
 ASP623  PHE694  ASN695  SER759  ASP760  ASP761  ALA762  ILE779  LEU786  VAL792 
 PHE793  MET794  SER795  GLU796  ALA797  LYS798  CYS799  TRP800  GLU811  SER814 

> <Gold.Protein.RotatedAtoms>
  150.8250  133.8187  159.3122 H   0  0  0  0  0  0  0  0  0  0  0  0  # atno 6907 bound_to 6896
  151.5934  135.1050  160.0053 H   0  0  0  0  0  0  0  0  0  0  0  0  # atno 6908 bound_to 6896
  152.4336  133.7280  159.6627 H   0  0  0  0  0  0  0  0  0  0  0  0  # atno 6909 bound_to 6896
  144.7230  139.9734  143.6437 H   0  0  0  0  0  0  0  0  0  0  0  0  # atno 7974 bound_to 7965
  154.5317  140.0764  156.8356 H   0  0  0  0  0  0  0  0  0  0  0  0  # atno 8008 bound_to 7997
  155.3362  140.3404  155.4221 H   0  0  0  0  0  0  0  0  0  0  0  0  # atno 8009 bound_to 7997
  156.1787  140.1645  156.8301 H   0  0  0  0  0  0  0  0  0  0  0  0  # atno 8010 bound_to 7997
  139.8013  144.6812  150.9761 H   0  0  0  0  0  0  0  0  0  0  0  0  # atno 10167 bound_to 10162
  157.6900  131.0632  150.4755 H   0  0  0  0  0  0  0  0  0  0  0  0  # atno 10718 bound_to 10713
  153.9789  135.2943  155.3422 H   0  0  0  0  0  0  0  0  0  0  0  0  # atno 10763 bound_to 10752
  154.7280  135.5080  153.8921 H   0  0  0  0  0  0  0  0  0  0  0  0  # atno 10764 bound_to 10752
  153.0864  135.6694  154.0055 H   0  0  0  0  0  0  0  0  0  0  0  0  # atno 10765 bound_to 10752
  139.8777  134.9217  156.5034 H   0  0  0  0  0  0  0  0  0  0  0  0  # atno 11005 bound_to 11000
  146.0545  139.3543  143.0619 LP  0  0  0  0  0  0  0  0  0  0  0  0  # atno 17320 bound_to 7965
  145.8173  140.9696  143.0917 LP  0  0  0  0  0  0  0  0  0  0  0  0  # atno 17321 bound_to 7965
  140.7820  143.4278  151.0740 LP  0  0  0  0  0  0  0  0  0  0  0  0  # atno 17342 bound_to 10162
  139.7950  143.8164  152.3156 LP  0  0  0  0  0  0  0  0  0  0  0  0  # atno 17343 bound_to 10162
  156.5090  130.4135  149.6311 LP  0  0  0  0  0  0  0  0  0  0  0  0  # atno 17370 bound_to 10713
  156.3258  130.7305  151.2225 LP  0  0  0  0  0  0  0  0  0  0  0  0  # atno 17371 bound_to 10713
  140.8573  133.8086  155.9229 LP  0  0  0  0  0  0  0  0  0  0  0  0  # atno 17394 bound_to 11000
  140.9085  134.2290  157.5000 LP  0  0  0  0  0  0  0  0  0  0  0  0  # atno 17395 bound_to 11000

$$$$
