AV-unprocessed.smi:830|AV-procd|sdf|3872|dock10
  -GOLD-   22720 1323D 1   1.00000     0.00000
 Structure written by MMmdl.
 53 55  0  0  0  0  0  0  0  0  2 V2000
  147.0618  130.3254  158.9164 C   0  0  0  0  0  0  0  0  0  0  0  0
  146.0455  129.5100  158.0996 C   0  0  2  0  0  0  0  0  0  0  0  0
  146.1795  129.8051  156.6742 N   0  0  0  0  0  0  0  0  0  0  0  0
  146.5510  128.9340  155.7259 C   0  0  0  0  0  0  0  0  0  0  0  0
  146.8456  127.7610  155.9538 O   0  0  0  0  0  0  0  0  0  0  0  0
  146.5756  129.5177  154.5161 N   0  0  0  0  0  0  0  0  0  0  0  0
  146.9501  128.9451  153.2673 C   0  0  0  0  0  0  0  0  0  0  0  0
  147.5562  127.6641  153.1949 C   0  0  0  0  0  0  0  0  0  0  0  0
  147.9355  127.1347  151.9472 C   0  0  0  0  0  0  0  0  0  0  0  0
  147.6992  127.8918  150.7873 C   0  0  0  0  0  0  0  0  0  0  0  0
  147.1021  129.0971  150.8866 N   0  3  0  0  0  0  0  0  0  0  0  0
  146.7000  129.6546  152.0562 C   0  0  0  0  0  0  0  0  0  0  0  0
  146.0741  130.9212  152.0000 N   0  0  0  0  0  0  0  0  0  0  0  0
  146.8739  132.1405  151.9766 C   0  0  0  0  0  0  0  0  0  0  0  0
  145.9011  133.2441  151.5702 C   0  0  0  0  0  0  0  0  0  0  0  0
  144.9765  132.5220  150.5949 C   0  0  0  0  0  0  0  0  0  0  0  0
  144.8951  131.0988  151.1579 C   0  0  0  0  0  0  0  0  0  0  0  0
  144.5981  129.6991  158.5679 C   0  0  0  0  0  0  0  0  0  0  0  0
  144.2875  129.4967  159.7428 O   0  0  0  0  0  0  0  0  0  0  0  0
  143.7155  130.0753  157.6299 N   0  0  0  0  0  0  0  0  0  0  0  0
  142.2911  130.3003  157.8592 C   0  0  0  0  0  0  0  0  0  0  0  0
  142.0755  131.5442  158.7408 C   0  0  0  0  0  0  0  0  0  0  0  0
  141.6249  131.0198  160.1043 C   0  0  0  0  0  0  0  0  0  0  0  0
  140.8611  129.7408  159.7761 C   0  0  0  0  0  0  0  0  0  0  0  0
  141.6407  129.1222  158.6143 C   0  0  0  0  0  0  0  0  0  0  0  0
  146.9796  130.1061  159.9814 H   0  0  0  0  0  0  0  0  0  0  0  0
  146.9078  131.3971  158.7853 H   0  0  0  0  0  0  0  0  0  0  0  0
  148.0851  130.0975  158.6162 H   0  0  0  0  0  0  0  0  0  0  0  0
  146.2764  128.4526  158.2445 H   0  0  0  0  0  0  0  0  0  0  0  0
  145.9560  130.7491  156.3940 H   0  0  0  0  0  0  0  0  0  0  0  0
  146.4013  130.5120  154.5034 H   0  0  0  0  0  0  0  0  0  0  0  0
  147.7326  127.0723  154.0801 H   0  0  0  0  0  0  0  0  0  0  0  0
  148.4023  126.1628  151.8827 H   0  0  0  0  0  0  0  0  0  0  0  0
  147.9591  127.5695  149.7894 H   0  0  0  0  0  0  0  0  0  0  0  0
  147.3289  132.3387  152.9474 H   0  0  0  0  0  0  0  0  0  0  0  0
  147.6678  132.0613  151.2330 H   0  0  0  0  0  0  0  0  0  0  0  0
  145.3346  133.5827  152.4389 H   0  0  0  0  0  0  0  0  0  0  0  0
  146.3981  134.1089  151.1296 H   0  0  0  0  0  0  0  0  0  0  0  0
  143.9993  132.9968  150.5021 H   0  0  0  0  0  0  0  0  0  0  0  0
  145.4350  132.5002  149.6053 H   0  0  0  0  0  0  0  0  0  0  0  0
  144.8437  130.3584  150.3585 H   0  0  0  0  0  0  0  0  0  0  0  0
  144.0037  130.9951  151.7770 H   0  0  0  0  0  0  0  0  0  0  0  0
  144.0533  130.2145  156.6887 H   0  0  0  0  0  0  0  0  0  0  0  0
  141.7906  130.4577  156.9018 H   0  0  0  0  0  0  0  0  0  0  0  0
  142.9578  132.1815  158.8169 H   0  0  0  0  0  0  0  0  0  0  0  0
  141.2785  132.1533  158.3119 H   0  0  0  0  0  0  0  0  0  0  0  0
  142.4973  130.7810  160.7140 H   0  0  0  0  0  0  0  0  0  0  0  0
  141.0203  131.7421  160.6535 H   0  0  0  0  0  0  0  0  0  0  0  0
  140.7777  129.0690  160.6307 H   0  0  0  0  0  0  0  0  0  0  0  0
  139.8511  129.9910  159.4488 H   0  0  0  0  0  0  0  0  0  0  0  0
  140.9993  128.5238  157.9666 H   0  0  0  0  0  0  0  0  0  0  0  0
  142.4040  128.4538  159.0165 H   0  0  0  0  0  0  0  0  0  0  0  0
  146.9349  129.6180  150.0257 H   0  0  0  0  0  0  0  0  0  0  0  0
  1  2  1  0  0  0  0
  1 26  1  0  0  0  0
  1 27  1  0  0  0  0
  1 28  1  0  0  0  0
  2  3  1  0  0  0  0
  2 18  1  0  0  0  0
  2 29  1  0  0  0  0
  3  4  1  0  0  0  0
  3 30  1  0  0  0  0
  4  5  2  0  0  0  0
  4  6  1  0  0  0  0
  6  7  1  0  0  0  0
  6 31  1  0  0  0  0
  7 12  1  0  0  0  0
  7  8  2  0  0  0  0
  8  9  1  0  0  0  0
  8 32  1  0  0  0  0
  9 10  2  0  0  0  0
  9 33  1  0  0  0  0
 10 11  1  0  0  0  0
 10 34  1  0  0  0  0
 11 12  2  0  0  0  0
 11 53  1  0  0  0  0
 12 13  1  0  0  0  0
 13 17  1  0  0  0  0
 13 14  1  0  0  0  0
 14 15  1  0  0  0  0
 14 35  1  0  0  0  0
 14 36  1  0  0  0  0
 15 16  1  0  0  0  0
 15 37  1  0  0  0  0
 15 38  1  0  0  0  0
 16 17  1  0  0  0  0
 16 39  1  0  0  0  0
 16 40  1  0  0  0  0
 17 41  1  0  0  0  0
 17 42  1  0  0  0  0
 18 19  2  0  0  0  0
 18 20  1  0  0  0  0
 20 21  1  0  0  0  0
 20 43  1  0  0  0  0
 21 25  1  0  0  0  0
 21 22  1  0  0  0  0
 21 44  1  0  0  0  0
 22 23  1  0  0  0  0
 22 45  1  0  0  0  0
 22 46  1  0  0  0  0
 23 24  1  0  0  0  0
 23 47  1  0  0  0  0
 23 48  1  0  0  0  0
 24 25  1  0  0  0  0
 24 49  1  0  0  0  0
 24 50  1  0  0  0  0
 25 51  1  0  0  0  0
 25 52  1  0  0  0  0
M  CHG  1  11   1
M  END
> <s_m_source_file>
AV-unprocessed.smi

> <i_m_source_file_index>
830

> <i_lp_mmshare_version>
43012

> <i_f3d_flags>
0

> <s_epik_input>
W0NIMl0xW0NIMl1bQ0gyXVtDSDJdW0NIXTFbTkhdQyg9TylbQ0BIXShbQ0gzXSlbTkhdQyg9TylbTkhdYzJbY0hdW2NIXVtjSF1uYzJOM1tDSDJdW0NIMl1bQ0gyXVtDSDJdMw==

> <s_epik_cmdline>
J2VwaWtfcHl0aG9uJywgJy1waCcsICc3LjAnLCAnLXRuJywgJzgnLCAnLW1hJywgJzIwMCcsICctbWV0YWxfYmluZGluZycsICctaW1hZScsICc8aW5maWxlLm1hZT4nLCAnLW9tYWUnLCAnPG91dGZpbGUubWFlPic=

> <r_lp_tautomer_probability>
0.999994

> <r_epik_Ionization_Penalty>
1.21091

> <r_epik_Ionization_Penalty_Charging>
1.21089

> <r_epik_Ionization_Penalty_Neutral>
1.88713e-05

> <r_epik_State_Penalty>
1.27732

> <r_epik_Charging_Adjusted_Penalty>
2.48821

> <i_epik_Tot_Q>
1

> <i_epik_Tot_abs_Q>
1

> <r_epik_Metal_State_Penalty>
1.3505

> <b_epik_Metal_Only>
0

> <s_lp_Force_Field>
OPLS_2005

> <r_lp_Energy>
52.1076

> <b_lp_Chiralities_Consistent>
1

> <s_lp_Variant>
AV-unprocessed.smi:830-3

> <Gold.Version>
5.8.1

> <Gold.Id.Protein>
6NUR|6NUR_protein|mol2

> <Gold.PLP.Fitness>
40.6684

> <Gold.PLP.PLP>
-39.4043

> <Gold.PLP.part.hbond>
-2.3616

> <Gold.PLP.part.metal>
0.0000

> <Gold.PLP.part.buried>
-3.7488

> <Gold.PLP.part.nonpolar>
-32.4919

> <Gold.PLP.part.repulsive>
0.4013

> <Gold.PLP.ligand.clash>
0.0000

> <Gold.PLP.ligand.torsion>
0.5257

> <Gold.PLP.Chemscore.Hbond>
0.6183

> <Gold.PLP.Chemscore.CHOScore>
0.0000

> <Gold.PLP.Chemscore.Metal>
0.0000

> <Gold.Chemscore.Hbonds>
donor molecule, donor type, donor heavy atom, donor atom, acceptor molecule, acceptor atom, score
      L1  H    20    43       P1 10956  0.47

> <Gold.PLP.Chemscore.Internal.Correction>
0.4608

> <Gold.Rescore>
     Score         DG    S(hbond)    S(metal)    S(lipo)     H(rot)  DE(clash)    DE(int)     intcor
     10.99     -14.60       0.56        0.00      98.42       1.67       0.49       3.12       ----

> <Gold.Chemscore.Fitness>
10.9933

> <Gold.Chemscore.DG>
-14.6036

> <Gold.Chemscore.ZeroCoef>
-5.4800

> <Gold.Chemscore.Hbond>
0.5622

> <Gold.Chemscore.Metal>
0.0000

> <Gold.Chemscore.Lipo>
98.4187

> <Gold.Chemscore.Internal_Hbond>
0.0000

> <Gold.Chemscore.DEClash>
0.4887

> <Gold.Chemscore.DEInternal>
3.1216

> <Gold.Chemscore.Rot>
1.6676

> <Gold.Chemscore.Internal.Correction>
   9.000000E+99

> <Gold.Chemscore.Hbonds>
donor molecule, donor type, donor heavy atom, donor atom, acceptor molecule, acceptor atom, score
      L1  H    20    43       P1 10956  0.24

> <Gold.Chemscore.Hbond.Weighted>
-1.8778

> <Gold.Chemscore.Metal.Weighted>
-0.0000

> <Gold.Chemscore.Lipo.Weighted>
-11.5150

> <Gold.Chemscore.Internal_Hbond.Weighted>
0.0000

> <Gold.Chemscore.DEClash.Weighted>
0.4887

> <Gold.Chemscore.DEInternal.Weighted>
3.1216

> <Gold.Chemscore.Rot.Weighted>
4.2691

> <Gold.Chemscore.Internal.Correction.Weighted>
   9.000000E+99

> <Gold.Protein.RotatedTorsions>
[ 6907 6896 6895 6894 ] final  -77.38 input  -60.11 | X-H torsion
[ 7974 7965 7964 7962 ] final   77.27 input  175.53 | X-H torsion
[ 8008 7997 7996 7995 ] final -175.49 input   59.86 | X-H torsion
[ 10167 10162 10161 10158 ] final   -0.80 input  -65.29 | X-H torsion
[ 10718 10713 10712 10709 ] final   34.14 input   66.30 | X-H torsion
[ 10763 10752 10751 10750 ] final  115.38 input  -60.55 | X-H torsion
[ 11005 11000 10999 10996 ] final  125.61 input  -57.11 | X-H torsion

> <Gold.Protein.ActiveResidues>
 VAL166  LYS551  ARG553  GLY616  TRP617  ASP618  TYR619  PRO620  LYS621  CYS622 
 ASP623  PHE694  ASN695  SER759  ASP760  ASP761  ALA762  ILE779  LEU786  VAL792 
 PHE793  MET794  SER795  GLU796  ALA797  LYS798  CYS799  TRP800  GLU811  SER814 

> <Gold.Protein.RotatedAtoms>
  150.7000  134.4431  159.5301 H   0  0  0  0  0  0  0  0  0  0  0  0  # atno 6907 bound_to 6896
  152.2137  134.8475  160.0503 H   0  0  0  0  0  0  0  0  0  0  0  0  # atno 6908 bound_to 6896
  151.9350  133.3587  159.3981 H   0  0  0  0  0  0  0  0  0  0  0  0  # atno 6909 bound_to 6896
  145.6921  139.2556  143.1753 H   0  0  0  0  0  0  0  0  0  0  0  0  # atno 7974 bound_to 7965
  155.9832  140.1186  157.0707 H   0  0  0  0  0  0  0  0  0  0  0  0  # atno 8008 bound_to 7997
  154.4189  140.1140  156.5531 H   0  0  0  0  0  0  0  0  0  0  0  0  # atno 8009 bound_to 7997
  155.6443  140.3473  155.4728 H   0  0  0  0  0  0  0  0  0  0  0  0  # atno 8010 bound_to 7997
  140.6783  143.6851  150.8074 H   0  0  0  0  0  0  0  0  0  0  0  0  # atno 10167 bound_to 10162
  157.3066  130.7378  149.6699 H   0  0  0  0  0  0  0  0  0  0  0  0  # atno 10718 bound_to 10713
  153.5214  135.3597  155.2633 H   0  0  0  0  0  0  0  0  0  0  0  0  # atno 10763 bound_to 10752
  154.8735  135.4046  154.3256 H   0  0  0  0  0  0  0  0  0  0  0  0  # atno 10764 bound_to 10752
  153.3927  135.7072  153.6550 H   0  0  0  0  0  0  0  0  0  0  0  0  # atno 10765 bound_to 10752
  139.9415  134.9635  156.8584 H   0  0  0  0  0  0  0  0  0  0  0  0  # atno 11005 bound_to 11000
  146.0872  140.7697  142.9613 LP  0  0  0  0  0  0  0  0  0  0  0  0  # atno 17320 bound_to 7965
  144.6993  140.3581  143.7169 LP  0  0  0  0  0  0  0  0  0  0  0  0  # atno 17321 bound_to 7965
  140.0547  143.5214  152.2657 LP  0  0  0  0  0  0  0  0  0  0  0  0  # atno 17342 bound_to 10162
  139.6089  144.7603  151.2997 LP  0  0  0  0  0  0  0  0  0  0  0  0  # atno 17343 bound_to 10162
  155.9675  130.4264  150.4696 LP  0  0  0  0  0  0  0  0  0  0  0  0  # atno 17370 bound_to 10713
  157.2687  131.0582  151.2274 LP  0  0  0  0  0  0  0  0  0  0  0  0  # atno 17371 bound_to 10713
  140.5940  134.0234  155.7511 LP  0  0  0  0  0  0  0  0  0  0  0  0  # atno 17394 bound_to 11000
  141.1051  133.9707  157.3011 LP  0  0  0  0  0  0  0  0  0  0  0  0  # atno 17395 bound_to 11000

$$$$
