AV-unprocessed.smi:942|AV-procd|sdf|4224|dock1
  -GOLD-   22720 2133D 1   1.00000     0.00000
 Structure written by MMmdl.
 43 45  0  0  0  0  0  0  0  0  2 V2000
  150.8336  140.6016  158.0967 O   0  0  0  0  0  0  0  0  0  0  0  0
  150.5731  141.7503  157.7386 C   0  0  0  0  0  0  0  0  0  0  0  0
  149.6622  142.0361  156.7958 N   0  0  0  0  0  0  0  0  0  0  0  0
  148.8557  141.0489  156.0825 C   0  0  1  0  0  0  0  0  0  0  0  0
  147.4096  141.5468  155.8790 C   0  0  0  0  0  0  0  0  0  0  0  0
  147.2438  141.7843  154.3764 C   0  0  0  0  0  0  0  0  0  0  0  0
  148.2064  140.7941  153.7293 C   0  0  0  0  0  0  0  0  0  0  0  0
  149.4201  140.8001  154.6668 C   0  0  2  0  0  0  0  0  0  0  0  0
  150.2378  139.5811  154.5758 N   0  0  0  0  0  0  0  0  0  0  0  0
  151.3417  139.2488  155.3220 C   0  0  0  0  0  0  0  0  0  0  0  0
  151.7713  138.0291  154.8669 C   0  0  0  0  0  0  0  0  0  0  0  0
  150.9197  137.6710  153.8570 N   0  3  0  0  0  0  0  0  0  0  0  0
  149.9921  138.6171  153.6783 C   0  0  0  0  0  0  0  0  0  0  0  0
  151.2959  142.9441  158.3771 C   0  0  0  0  0  0  0  0  0  0  0  0
  152.2357  142.4812  159.5115 C   0  0  0  0  0  0  0  0  0  0  0  0
  152.9458  143.6733  160.1741 C   0  0  0  0  0  0  0  0  0  0  0  0
  151.9330  144.7066  160.6922 C   0  0  0  0  0  0  0  0  0  0  0  0
  150.9926  145.1722  159.5696 C   0  0  0  0  0  0  0  0  0  0  0  0
  150.2819  143.9793  158.9094 C   0  0  0  0  0  0  0  0  0  0  0  0
  149.5064  143.0073  156.5682 H   0  0  0  0  0  0  0  0  0  0  0  0
  148.8305  140.1164  156.6499 H   0  0  0  0  0  0  0  0  0  0  0  0
  146.7154  140.7692  156.1999 H   0  0  0  0  0  0  0  0  0  0  0  0
  147.1726  142.4415  156.4570 H   0  0  0  0  0  0  0  0  0  0  0  0
  146.2146  141.6507  154.0417 H   0  0  0  0  0  0  0  0  0  0  0  0
  147.5448  142.8034  154.1299 H   0  0  0  0  0  0  0  0  0  0  0  0
  147.7376  139.8100  153.6985 H   0  0  0  0  0  0  0  0  0  0  0  0
  148.4656  141.0705  152.7069 H   0  0  0  0  0  0  0  0  0  0  0  0
  150.0479  141.6446  154.3740 H   0  0  0  0  0  0  0  0  0  0  0  0
  151.7308  139.8879  156.1015 H   0  0  0  0  0  0  0  0  0  0  0  0
  152.5992  137.4076  155.1756 H   0  0  0  0  0  0  0  0  0  0  0  0
  149.2002  138.6025  152.9508 H   0  0  0  0  0  0  0  0  0  0  0  0
  151.9040  143.4282  157.6103 H   0  0  0  0  0  0  0  0  0  0  0  0
  151.6712  141.9357  160.2697 H   0  0  0  0  0  0  0  0  0  0  0  0
  152.9802  141.7855  159.1221 H   0  0  0  0  0  0  0  0  0  0  0  0
  153.5720  143.3235  160.9952 H   0  0  0  0  0  0  0  0  0  0  0  0
  153.6152  144.1468  159.4549 H   0  0  0  0  0  0  0  0  0  0  0  0
  151.3468  144.2697  161.5017 H   0  0  0  0  0  0  0  0  0  0  0  0
  152.4583  145.5624  161.1170 H   0  0  0  0  0  0  0  0  0  0  0  0
  150.2557  145.8703  159.9675 H   0  0  0  0  0  0  0  0  0  0  0  0
  151.5633  145.7198  158.8184 H   0  0  0  0  0  0  0  0  0  0  0  0
  149.6497  144.3384  158.0963 H   0  0  0  0  0  0  0  0  0  0  0  0
  149.6138  143.5138  159.6361 H   0  0  0  0  0  0  0  0  0  0  0  0
  150.9828  136.8158  153.3188 H   0  0  0  0  0  0  0  0  0  0  0  0
  1  2  2  0  0  0  0
  2  3  1  0  0  0  0
  2 14  1  0  0  0  0
  3  4  1  0  0  0  0
  3 20  1  0  0  0  0
  4  8  1  0  0  0  0
  4  5  1  0  0  0  0
  4 21  1  0  0  0  0
  5  6  1  0  0  0  0
  5 22  1  0  0  0  0
  5 23  1  0  0  0  0
  6  7  1  0  0  0  0
  6 24  1  0  0  0  0
  6 25  1  0  0  0  0
  7  8  1  0  0  0  0
  7 26  1  0  0  0  0
  7 27  1  0  0  0  0
  8  9  1  0  0  0  0
  8 28  1  0  0  0  0
  9 13  1  0  0  0  0
  9 10  1  0  0  0  0
 10 11  2  0  0  0  0
 10 29  1  0  0  0  0
 11 12  1  0  0  0  0
 11 30  1  0  0  0  0
 12 13  2  0  0  0  0
 12 43  1  0  0  0  0
 13 31  1  0  0  0  0
 14 19  1  0  0  0  0
 14 15  1  0  0  0  0
 14 32  1  0  0  0  0
 15 16  1  0  0  0  0
 15 33  1  0  0  0  0
 15 34  1  0  0  0  0
 16 17  1  0  0  0  0
 16 35  1  0  0  0  0
 16 36  1  0  0  0  0
 17 18  1  0  0  0  0
 17 37  1  0  0  0  0
 17 38  1  0  0  0  0
 18 19  1  0  0  0  0
 18 39  1  0  0  0  0
 18 40  1  0  0  0  0
 19 41  1  0  0  0  0
 19 42  1  0  0  0  0
M  CHG  1  12   1
M  END
> <s_m_source_file>
AV-unprocessed.smi

> <i_m_source_file_index>
942

> <i_lp_mmshare_version>
43012

> <i_f3d_flags>
0

> <s_epik_input>
W0NIMl0xW0NIMl1bQ0gyXVtDSDJdW0NIMl1bQ0hdMUMoPU8pW05IXVtDQEBIXTJbQ0gyXVtDSDJdW0NIMl1bQ0BIXTJuM1tjSF1bY0hdbltjSF0z

> <s_epik_cmdline>
J2VwaWtfcHl0aG9uJywgJy1waCcsICc3LjAnLCAnLXRuJywgJzgnLCAnLW1hJywgJzIwMCcsICctbWV0YWxfYmluZGluZycsICctaW1hZScsICc8aW5maWxlLm1hZT4nLCAnLW9tYWUnLCAnPG91dGZpbGUubWFlPic=

> <r_lp_tautomer_probability>
1

> <r_epik_Ionization_Penalty>
0.185467

> <r_epik_Ionization_Penalty_Charging>
0

> <r_epik_Ionization_Penalty_Neutral>
0.185467

> <r_epik_State_Penalty>
0.175036

> <r_epik_Charging_Adjusted_Penalty>
0.175036

> <i_epik_Tot_Q>
1

> <i_epik_Tot_abs_Q>
1

> <r_epik_Metal_State_Penalty>
0.487091

> <b_epik_Metal_Only>
0

> <s_lp_Force_Field>
OPLS_2005

> <r_lp_Energy>
33.5167

> <b_lp_Chiralities_Consistent>
1

> <s_lp_Variant>
AV-unprocessed.smi:942-4

> <Gold.Version>
5.8.1

> <Gold.Id.Protein>
6NUR|6NUR_protein|mol2

> <Gold.PLP.Fitness>
53.1124

> <Gold.PLP.PLP>
-41.4202

> <Gold.PLP.part.hbond>
-2.7885

> <Gold.PLP.part.metal>
0.0000

> <Gold.PLP.part.buried>
0.2509

> <Gold.PLP.part.nonpolar>
-39.1274

> <Gold.PLP.part.repulsive>
0.1315

> <Gold.PLP.ligand.clash>
0.0000

> <Gold.PLP.ligand.torsion>
0.3752

> <Gold.PLP.Chemscore.Hbond>
2.9840

> <Gold.PLP.Chemscore.CHOScore>
1.1559

> <Gold.PLP.Chemscore.Metal>
0.0000

> <Gold.Chemscore.Hbonds>
donor molecule, donor type, donor heavy atom, donor atom, acceptor molecule, acceptor atom, score
      L1  H     3    20       P1  8028  0.99
      L1  H    12    43       P1  7949  1.86
      L1  C    13    31       P1  7948  0.54
      L1  C    13    31       P1  7957  0.66

> <Gold.PLP.Chemscore.Internal.Correction>
0.0230

> <Gold.Rescore>
     Score         DG    S(hbond)    S(metal)    S(lipo)     H(rot)  DE(clash)    DE(int)     intcor
     17.97     -18.95       1.40        0.00     107.65       1.48       0.64       0.34       ----

> <Gold.Chemscore.Fitness>
17.9657

> <Gold.Chemscore.DG>
-18.9548

> <Gold.Chemscore.ZeroCoef>
-5.4800

> <Gold.Chemscore.Hbond>
1.3969

> <Gold.Chemscore.Metal>
0.0000

> <Gold.Chemscore.Lipo>
107.6539

> <Gold.Chemscore.Internal_Hbond>
0.0000

> <Gold.Chemscore.DEClash>
0.6446

> <Gold.Chemscore.DEInternal>
0.3445

> <Gold.Chemscore.Rot>
1.4790

> <Gold.Chemscore.Internal.Correction>
   9.000000E+99

> <Gold.Chemscore.Hbonds>
donor molecule, donor type, donor heavy atom, donor atom, acceptor molecule, acceptor atom, score
      L1  H     3    20       P1  8028  0.92
      L1  H    12    43       P1  7949  0.22

> <Gold.Chemscore.Hbond.Weighted>
-4.6656

> <Gold.Chemscore.Metal.Weighted>
-0.0000

> <Gold.Chemscore.Lipo.Weighted>
-12.5955

> <Gold.Chemscore.Internal_Hbond.Weighted>
0.0000

> <Gold.Chemscore.DEClash.Weighted>
0.6446

> <Gold.Chemscore.DEInternal.Weighted>
0.3445

> <Gold.Chemscore.Rot.Weighted>
3.7863

> <Gold.Chemscore.Internal.Correction.Weighted>
   9.000000E+99

> <Gold.Protein.RotatedTorsions>
[ 6907 6896 6895 6894 ] final  136.65 input  -60.11 | X-H torsion
[ 7974 7965 7964 7962 ] final -106.54 input  175.53 | X-H torsion
[ 8008 7997 7996 7995 ] final   12.29 input   59.86 | X-H torsion
[ 10167 10162 10161 10158 ] final  -45.27 input  -65.29 | X-H torsion
[ 10718 10713 10712 10709 ] final  140.81 input   66.30 | X-H torsion
[ 10763 10752 10751 10750 ] final -150.79 input  -60.55 | X-H torsion
[ 11005 11000 10999 10996 ] final   44.48 input  -57.11 | X-H torsion

> <Gold.Protein.ActiveResidues>
 VAL166  LYS551  ARG553  GLY616  TRP617  ASP618  TYR619  PRO620  LYS621  CYS622 
 ASP623  PHE694  ASN695  SER759  ASP760  ASP761  ALA762  ILE779  LEU786  VAL792 
 PHE793  MET794  SER795  GLU796  ALA797  LYS798  CYS799  TRP800  GLU811  SER814 

> <Gold.Protein.RotatedAtoms>
  152.2869  133.5524  159.5532 H   0  0  0  0  0  0  0  0  0  0  0  0  # atno 6907 bound_to 6896
  150.7219  134.0484  159.3798 H   0  0  0  0  0  0  0  0  0  0  0  0  # atno 6908 bound_to 6896
  151.8392  135.0596  160.0497 H   0  0  0  0  0  0  0  0  0  0  0  0  # atno 6909 bound_to 6896
  145.2166  140.9117  143.3284 H   0  0  0  0  0  0  0  0  0  0  0  0  # atno 7974 bound_to 7965
  154.8186  140.2880  155.5802 H   0  0  0  0  0  0  0  0  0  0  0  0  # atno 8008 bound_to 7997
  156.2995  140.2554  156.3019 H   0  0  0  0  0  0  0  0  0  0  0  0  # atno 8009 bound_to 7997
  154.9364  140.0382  157.2064 H   0  0  0  0  0  0  0  0  0  0  0  0  # atno 8010 bound_to 7997
  140.6864  143.2888  151.3615 H   0  0  0  0  0  0  0  0  0  0  0  0  # atno 10167 bound_to 10162
  157.3991  131.1014  151.0570 H   0  0  0  0  0  0  0  0  0  0  0  0  # atno 10718 bound_to 10713
  154.8097  135.3275  154.7337 H   0  0  0  0  0  0  0  0  0  0  0  0  # atno 10763 bound_to 10752
  153.7988  135.6905  153.4863 H   0  0  0  0  0  0  0  0  0  0  0  0  # atno 10764 bound_to 10752
  153.1867  135.4566  155.0044 H   0  0  0  0  0  0  0  0  0  0  0  0  # atno 10765 bound_to 10752
  140.1548  134.4416  155.8357 H   0  0  0  0  0  0  0  0  0  0  0  0  # atno 11005 bound_to 11000
  144.9805  139.3788  143.6264 LP  0  0  0  0  0  0  0  0  0  0  0  0  # atno 17320 bound_to 7965
  146.3385  139.8944  142.8804 LP  0  0  0  0  0  0  0  0  0  0  0  0  # atno 17321 bound_to 7965
  139.6227  144.0875  152.2406 LP  0  0  0  0  0  0  0  0  0  0  0  0  # atno 17342 bound_to 10162
  140.0325  144.6070  150.7477 LP  0  0  0  0  0  0  0  0  0  0  0  0  # atno 17343 bound_to 10162
  157.1575  130.6211  149.5601 LP  0  0  0  0  0  0  0  0  0  0  0  0  # atno 17370 bound_to 10713
  155.9818  130.4828  150.6849 LP  0  0  0  0  0  0  0  0  0  0  0  0  # atno 17371 bound_to 10713
  141.2203  133.6887  156.7487 LP  0  0  0  0  0  0  0  0  0  0  0  0  # atno 17394 bound_to 11000
  140.2561  134.8503  157.3714 LP  0  0  0  0  0  0  0  0  0  0  0  0  # atno 17395 bound_to 11000

$$$$
