AV-unprocessed.smi:1074|AV-procd|sdf|4692|dock2
  -GOLD-   22720 3213D 1   1.00000     0.00000
 Structure written by MMmdl.
 44 45  0  0  0  0  0  0  0  0  1 V2000
  148.6814  141.3177  154.0663 C   0  0  0  0  0  0  0  0  0  0  0  0
  149.5748  140.4336  154.7989 N   0  0  0  0  0  0  0  0  0  0  0  0
  150.4837  140.8484  155.6938 C   0  0  0  0  0  0  0  0  0  0  0  0
  150.6402  142.0352  155.9809 O   0  0  0  0  0  0  0  0  0  0  0  0
  151.3399  139.7521  156.3560 C   0  0  2  0  0  0  0  0  0  0  0  0
  152.2193  138.9823  155.3425 C   0  0  0  0  0  0  0  0  0  0  0  0
  151.4445  137.9399  154.5139 C   0  0  0  0  0  0  0  0  0  0  0  0
  150.6584  136.9700  155.4176 C   0  0  2  0  0  0  0  0  0  0  0  0
  149.8752  136.0367  154.6140 N   0  0  0  0  0  0  0  0  0  0  0  0
  149.7654  134.7198  154.8393 C   0  0  0  0  0  0  0  0  0  0  0  0
  150.3440  134.1395  155.7570 O   0  0  0  0  0  0  0  0  0  0  0  0
  148.9588  134.1436  153.9310 N   0  0  0  0  0  0  0  0  0  0  0  0
  148.5296  132.7913  153.8285 C   0  0  0  0  0  0  0  0  0  0  0  0
  149.1668  131.6873  154.4456 C   0  0  0  0  0  0  0  0  0  0  0  0
  148.6213  130.4011  154.2707 C   0  0  0  0  0  0  0  0  0  0  0  0
  147.4579  130.2527  153.4901 C   0  0  0  0  0  0  0  0  0  0  0  0
  146.9285  128.9889  153.3270 O   0  0  0  0  0  0  0  0  0  0  0  0
  146.2261  128.7009  152.1228 C   0  0  0  0  0  0  0  0  0  0  0  0
  146.8406  131.3046  152.8982 N   0  0  0  0  0  0  0  0  0  0  0  0
  147.3688  132.5346  153.0697 C   0  0  0  0  0  0  0  0  0  0  0  0
  149.7227  137.7402  156.3655 C   0  0  0  0  0  0  0  0  0  0  0  0
  150.4961  138.7734  157.2052 C   0  0  0  0  0  0  0  0  0  0  0  0
  148.0593  140.7361  153.3861 H   0  0  0  0  0  0  0  0  0  0  0  0
  149.2469  142.0407  153.4772 H   0  0  0  0  0  0  0  0  0  0  0  0
  148.0263  141.8604  154.7487 H   0  0  0  0  0  0  0  0  0  0  0  0
  149.5019  139.4440  154.6113 H   0  0  0  0  0  0  0  0  0  0  0  0
  152.0199  140.2616  157.0410 H   0  0  0  0  0  0  0  0  0  0  0  0
  152.7223  139.6809  154.6724 H   0  0  0  0  0  0  0  0  0  0  0  0
  153.0145  138.4724  155.8876 H   0  0  0  0  0  0  0  0  0  0  0  0
  150.7650  138.4390  153.8231 H   0  0  0  0  0  0  0  0  0  0  0  0
  152.1470  137.3831  153.8925 H   0  0  0  0  0  0  0  0  0  0  0  0
  151.3668  136.4069  156.0283 H   0  0  0  0  0  0  0  0  0  0  0  0
  149.3710  136.4278  153.8319 H   0  0  0  0  0  0  0  0  0  0  0  0
  148.6002  134.7584  153.2151 H   0  0  0  0  0  0  0  0  0  0  0  0
  150.0511  131.7900  155.0532 H   0  0  0  0  0  0  0  0  0  0  0  0
  149.0870  129.5424  154.7313 H   0  0  0  0  0  0  0  0  0  0  0  0
  145.8734  127.6700  152.1491 H   0  0  0  0  0  0  0  0  0  0  0  0
  146.8715  128.8078  151.2498 H   0  0  0  0  0  0  0  0  0  0  0  0
  145.3539  129.3457  152.0050 H   0  0  0  0  0  0  0  0  0  0  0  0
  146.8429  133.3430  152.5828 H   0  0  0  0  0  0  0  0  0  0  0  0
  148.9368  138.2352  155.7942 H   0  0  0  0  0  0  0  0  0  0  0  0
  149.2151  137.0416  157.0316 H   0  0  0  0  0  0  0  0  0  0  0  0
  151.1582  138.2433  157.8911 H   0  0  0  0  0  0  0  0  0  0  0  0
  149.7986  139.3264  157.8358 H   0  0  0  0  0  0  0  0  0  0  0  0
  1  2  1  0  0  0  0
  1 23  1  0  0  0  0
  1 24  1  0  0  0  0
  1 25  1  0  0  0  0
  2  3  1  0  0  0  0
  2 26  1  0  0  0  0
  3  4  2  0  0  0  0
  3  5  1  0  0  0  0
  5 22  1  0  0  0  0
  5  6  1  0  0  0  0
  5 27  1  0  0  0  0
  6  7  1  0  0  0  0
  6 28  1  0  0  0  0
  6 29  1  0  0  0  0
  7  8  1  0  0  0  0
  7 30  1  0  0  0  0
  7 31  1  0  0  0  0
  8  9  1  0  0  0  0
  8 21  1  0  0  0  0
  8 32  1  0  0  0  0
  9 10  1  0  0  0  0
  9 33  1  0  0  0  0
 10 11  2  0  0  0  0
 10 12  1  0  0  0  0
 12 13  1  0  0  0  0
 12 34  1  0  0  0  0
 13 20  1  0  0  0  0
 13 14  2  0  0  0  0
 14 15  1  0  0  0  0
 14 35  1  0  0  0  0
 15 16  2  0  0  0  0
 15 36  1  0  0  0  0
 16 17  1  0  0  0  0
 16 19  1  0  0  0  0
 17 18  1  0  0  0  0
 18 37  1  0  0  0  0
 18 38  1  0  0  0  0
 18 39  1  0  0  0  0
 19 20  2  0  0  0  0
 20 40  1  0  0  0  0
 21 22  1  0  0  0  0
 21 41  1  0  0  0  0
 21 42  1  0  0  0  0
 22 43  1  0  0  0  0
 22 44  1  0  0  0  0
M  END
> <s_m_source_file>
AV-unprocessed.smi

> <i_m_source_file_index>
1074

> <i_lp_mmshare_version>
43012

> <i_f3d_flags>
0

> <s_epik_input>
W0NIM11bTkhdQyg9TylbQ0BASF0xW0NIMl1bQ0gyXVtDQEhdKFtDSDJdW0NIMl0xKVtOSF1DKD1PKVtOSF1jMltjSF1bY0hdYyhPW0NIM10pbltjSF0y

> <s_epik_cmdline>
J2VwaWtfcHl0aG9uJywgJy1waCcsICc3LjAnLCAnLXRuJywgJzgnLCAnLW1hJywgJzIwMCcsICctbWV0YWxfYmluZGluZycsICctaW1hZScsICc8aW5maWxlLm1hZT4nLCAnLW9tYWUnLCAnPG91dGZpbGUubWFlPic=

> <r_lp_tautomer_probability>
1

> <r_epik_Ionization_Penalty>
9.85099e-05

> <r_epik_Ionization_Penalty_Charging>
0

> <r_epik_Ionization_Penalty_Neutral>
9.85099e-05

> <r_epik_State_Penalty>
-0

> <r_epik_Charging_Adjusted_Penalty>
0

> <i_epik_Tot_Q>
0

> <i_epik_Tot_abs_Q>
0

> <r_epik_Metal_State_Penalty>
-0

> <b_epik_Metal_Only>
0

> <s_lp_Force_Field>
OPLS_2005

> <r_lp_Energy>
10.6819

> <b_lp_Chiralities_Consistent>
1

> <s_lp_Variant>
AV-unprocessed.smi:1074-2

> <Gold.Version>
5.8.1

> <Gold.Id.Protein>
6NUR|6NUR_protein|mol2

> <Gold.PLP.Fitness>
41.3520

> <Gold.PLP.PLP>
-36.9935

> <Gold.PLP.part.hbond>
-2.3113

> <Gold.PLP.part.metal>
0.0000

> <Gold.PLP.part.buried>
-3.6902

> <Gold.PLP.part.nonpolar>
-31.8484

> <Gold.PLP.part.repulsive>
0.6988

> <Gold.PLP.ligand.clash>
0.0000

> <Gold.PLP.ligand.torsion>
0.7215

> <Gold.PLP.Chemscore.Hbond>
1.9120

> <Gold.PLP.Chemscore.CHOScore>
0.0000

> <Gold.PLP.Chemscore.Metal>
0.0000

> <Gold.Chemscore.Hbonds>
donor molecule, donor type, donor heavy atom, donor atom, acceptor molecule, acceptor atom, score
      L1  H     9    33       P1  7948  0.88
      L1  H    12    34       P1  7948  0.96

> <Gold.PLP.Chemscore.Internal.Correction>
0.0655

> <Gold.Rescore>
     Score         DG    S(hbond)    S(metal)    S(lipo)     H(rot)  DE(clash)    DE(int)     intcor
     12.75     -13.65       1.11        0.00      73.73       1.62       0.02       0.88       ----

> <Gold.Chemscore.Fitness>
12.7467

> <Gold.Chemscore.DG>
-13.6511

> <Gold.Chemscore.ZeroCoef>
-5.4800

> <Gold.Chemscore.Hbond>
1.1089

> <Gold.Chemscore.Metal>
0.0000

> <Gold.Chemscore.Lipo>
73.7347

> <Gold.Chemscore.Internal_Hbond>
0.0000

> <Gold.Chemscore.DEClash>
0.0202

> <Gold.Chemscore.DEInternal>
0.8841

> <Gold.Chemscore.Rot>
1.6248

> <Gold.Chemscore.Internal.Correction>
   9.000000E+99

> <Gold.Chemscore.Hbonds>
donor molecule, donor type, donor heavy atom, donor atom, acceptor molecule, acceptor atom, score
      L1  H     9    33       P1  7948  0.73
      L1  H    12    34       P1  7948  0.40

> <Gold.Chemscore.Hbond.Weighted>
-3.7036

> <Gold.Chemscore.Metal.Weighted>
-0.0000

> <Gold.Chemscore.Lipo.Weighted>
-8.6270

> <Gold.Chemscore.Internal_Hbond.Weighted>
0.0000

> <Gold.Chemscore.DEClash.Weighted>
0.0202

> <Gold.Chemscore.DEInternal.Weighted>
0.8841

> <Gold.Chemscore.Rot.Weighted>
4.1595

> <Gold.Chemscore.Internal.Correction.Weighted>
   9.000000E+99

> <Gold.Protein.RotatedTorsions>
[ 6907 6896 6895 6894 ] final -104.77 input  -60.11 | X-H torsion
[ 7974 7965 7964 7962 ] final   58.85 input  175.53 | X-H torsion
[ 8008 7997 7996 7995 ] final  170.68 input   59.86 | X-H torsion
[ 10167 10162 10161 10158 ] final -173.37 input  -65.29 | X-H torsion
[ 10718 10713 10712 10709 ] final  118.15 input   66.30 | X-H torsion
[ 10763 10752 10751 10750 ] final -143.69 input  -60.55 | X-H torsion
[ 11005 11000 10999 10996 ] final  113.44 input  -57.11 | X-H torsion

> <Gold.Protein.ActiveResidues>
 VAL166  LYS551  ARG553  GLY616  TRP617  ASP618  TYR619  PRO620  LYS621  CYS622 
 ASP623  PHE694  ASN695  SER759  ASP760  ASP761  ALA762  ILE779  LEU786  VAL792 
 PHE793  MET794  SER795  GLU796  ALA797  LYS798  CYS799  TRP800  GLU811  SER814 

> <Gold.Protein.RotatedAtoms>
  150.7304  134.0227  159.3706 H   0  0  0  0  0  0  0  0  0  0  0  0  # atno 6907 bound_to 6896
  151.8192  135.0655  160.0432 H   0  0  0  0  0  0  0  0  0  0  0  0  # atno 6908 bound_to 6896
  152.3016  133.5625  159.5658 H   0  0  0  0  0  0  0  0  0  0  0  0  # atno 6909 bound_to 6896
  145.9136  139.3674  143.0520 H   0  0  0  0  0  0  0  0  0  0  0  0  # atno 7974 bound_to 7965
  156.1342  140.1531  156.9019 H   0  0  0  0  0  0  0  0  0  0  0  0  # atno 8008 bound_to 7997
  154.4934  140.0845  156.7683 H   0  0  0  0  0  0  0  0  0  0  0  0  # atno 8009 bound_to 7997
  155.4199  140.3422  155.4273 H   0  0  0  0  0  0  0  0  0  0  0  0  # atno 8010 bound_to 7997
  139.5692  144.1682  152.1359 H   0  0  0  0  0  0  0  0  0  0  0  0  # atno 10167 bound_to 10162
  157.6049  131.1045  150.7716 H   0  0  0  0  0  0  0  0  0  0  0  0  # atno 10718 bound_to 10713
  154.8459  135.3461  154.6228 H   0  0  0  0  0  0  0  0  0  0  0  0  # atno 10763 bound_to 10752
  153.6837  135.6978  153.5115 H   0  0  0  0  0  0  0  0  0  0  0  0  # atno 10764 bound_to 10752
  153.2648  135.4311  155.0886 H   0  0  0  0  0  0  0  0  0  0  0  0  # atno 10765 bound_to 10752
  139.8953  134.9550  156.6739 H   0  0  0  0  0  0  0  0  0  0  0  0  # atno 11005 bound_to 11000
  145.8639  140.9459  143.0685 LP  0  0  0  0  0  0  0  0  0  0  0  0  # atno 17320 bound_to 7965
  144.6745  140.0567  143.7477 LP  0  0  0  0  0  0  0  0  0  0  0  0  # atno 17321 bound_to 7965
  140.1211  144.5372  150.6862 LP  0  0  0  0  0  0  0  0  0  0  0  0  # atno 17342 bound_to 10162
  140.6976  143.2414  151.4955 LP  0  0  0  0  0  0  0  0  0  0  0  0  # atno 17343 bound_to 10162
  156.8106  130.4951  149.5356 LP  0  0  0  0  0  0  0  0  0  0  0  0  # atno 17370 bound_to 10713
  156.1133  130.6056  151.0081 LP  0  0  0  0  0  0  0  0  0  0  0  0  # atno 17371 bound_to 10713
  140.7351  133.9025  155.8239 LP  0  0  0  0  0  0  0  0  0  0  0  0  # atno 17394 bound_to 11000
  141.0122  134.1005  157.4209 LP  0  0  0  0  0  0  0  0  0  0  0  0  # atno 17395 bound_to 11000

$$$$
