AV-unprocessed.smi:136|AV-procd|sdf|1172|dock3
  -GOLD-   2262018313D 1   1.00000     0.00000
 Structure written by MMmdl.
 54 58  0  0  0  0  0  0  0  0  1 V2000
  145.9460  135.2028  158.1992 O   0  0  0  0  0  0  0  0  0  0  0  0
  146.2187  136.3588  157.8699 C   0  0  0  0  0  0  0  0  0  0  0  0
  145.2513  137.1482  156.9617 C   0  0  0  0  0  0  0  0  0  0  0  0
  145.5402  136.9984  155.5188 N   0  0  0  0  0  0  0  0  0  0  0  0
  145.9628  138.1363  154.7880 C   0  0  0  0  0  0  0  0  0  0  0  0
  146.0961  139.2326  155.3335 O   0  0  0  0  0  0  0  0  0  0  0  0
  146.2168  137.9142  153.3692 C   0  0  0  0  0  0  0  0  0  0  0  0
  146.6416  138.9327  152.6021 F   0  0  0  0  0  0  0  0  0  0  0  0
  146.0353  136.6993  152.8118 C   0  0  0  0  0  0  0  0  0  0  0  0
  145.5987  135.6016  153.5326 N   0  0  0  0  0  0  0  0  0  0  0  0
  145.3996  134.2429  152.8921 C   0  0  1  0  0  0  0  0  0  0  0  0
  145.5270  134.3384  151.3584 C   0  0  0  0  0  0  0  0  0  0  0  0
  146.5652  133.2810  151.0378 C   0  0  0  0  0  0  0  0  0  0  0  0
  147.3881  133.2466  152.3164 C   0  0  0  0  0  0  0  0  0  0  0  0
  146.3951  133.3607  153.3267 O   0  0  0  0  0  0  0  0  0  0  0  0
  145.3513  135.7317  154.9166 C   0  0  0  0  0  0  0  0  0  0  0  0
  144.9723  134.7633  155.5793 O   0  0  0  0  0  0  0  0  0  0  0  0
  147.3552  136.9679  158.2757 N   0  0  0  0  0  0  0  0  0  0  0  0
  147.7325  138.1982  157.8459 N   0  0  0  0  0  0  0  0  0  0  0  0
  148.9046  138.4702  158.2863 C   0  0  0  0  0  0  0  0  0  0  0  0
  149.6290  139.7314  158.0144 C   0  0  0  0  0  0  0  0  0  0  0  0
  150.9487  139.8912  158.4947 C   0  0  0  0  0  0  0  0  0  0  0  0
  151.6390  141.0917  158.2371 C   0  0  0  0  0  0  0  0  0  0  0  0
  151.0164  142.1240  157.5068 C   0  0  0  0  0  0  0  0  0  0  0  0
  151.8672  143.5925  157.1955 Cl  0  0  0  0  0  0  0  0  0  0  0  0
  149.7002  141.9593  157.0309 C   0  0  0  0  0  0  0  0  0  0  0  0
  148.9995  140.7633  157.2825 C   0  0  0  0  0  0  0  0  0  0  0  0
  149.4985  137.3893  159.1253 C   0  0  0  0  0  0  0  0  0  0  0  0
  148.3705  136.3542  159.1410 C   0  0  1  0  0  0  0  0  0  0  0  0
  147.8689  136.0563  160.5233 C   0  0  0  0  0  0  0  0  0  0  0  0
  147.6971  134.8976  161.2290 C   0  0  0  0  0  0  0  0  0  0  0  0
  147.1967  135.2751  162.5058 C   0  0  0  0  0  0  0  0  0  0  0  0
  147.1060  136.6377  162.4869 C   0  0  0  0  0  0  0  0  0  0  0  0
  147.5164  137.1303  161.2873 O   0  0  0  0  0  0  0  0  0  0  0  0
  144.2303  136.8351  157.1860 H   0  0  0  0  0  0  0  0  0  0  0  0
  145.2755  138.2007  157.2489 H   0  0  0  0  0  0  0  0  0  0  0  0
  146.2462  136.6031  151.7578 H   0  0  0  0  0  0  0  0  0  0  0  0
  144.4250  133.8964  153.2404 H   0  0  0  0  0  0  0  0  0  0  0  0
  144.5669  134.1552  150.8752 H   0  0  0  0  0  0  0  0  0  0  0  0
  145.8872  135.3266  151.0676 H   0  0  0  0  0  0  0  0  0  0  0  0
  146.0823  132.3159  150.8791 H   0  0  0  0  0  0  0  0  0  0  0  0
  147.1581  133.5177  150.1539 H   0  0  0  0  0  0  0  0  0  0  0  0
  147.9666  132.3291  152.4230 H   0  0  0  0  0  0  0  0  0  0  0  0
  148.0726  134.0947  152.3614 H   0  0  0  0  0  0  0  0  0  0  0  0
  151.4439  139.1113  159.0550 H   0  0  0  0  0  0  0  0  0  0  0  0
  152.6478  141.2191  158.6010 H   0  0  0  0  0  0  0  0  0  0  0  0
  149.2252  142.7520  156.4714 H   0  0  0  0  0  0  0  0  0  0  0  0
  147.9915  140.6625  156.9087 H   0  0  0  0  0  0  0  0  0  0  0  0
  150.4038  136.9869  158.6693 H   0  0  0  0  0  0  0  0  0  0  0  0
  149.7409  137.7547  160.1243 H   0  0  0  0  0  0  0  0  0  0  0  0
  148.7177  135.4312  158.6732 H   0  0  0  0  0  0  0  0  0  0  0  0
  147.9036  133.9007  160.8689 H   0  0  0  0  0  0  0  0  0  0  0  0
  146.9373  134.6321  163.3337 H   0  0  0  0  0  0  0  0  0  0  0  0
  146.7877  137.3790  163.2050 H   0  0  0  0  0  0  0  0  0  0  0  0
  1  2  2  0  0  0  0
  2  3  1  0  0  0  0
  2 18  1  0  0  0  0
  3  4  1  0  0  0  0
  3 35  1  0  0  0  0
  3 36  1  0  0  0  0
  4 16  1  0  0  0  0
  4  5  1  0  0  0  0
  5  6  2  0  0  0  0
  5  7  1  0  0  0  0
  7  8  1  0  0  0  0
  7  9  2  0  0  0  0
  9 10  1  0  0  0  0
  9 37  1  0  0  0  0
 10 11  1  0  0  0  0
 10 16  1  0  0  0  0
 11 15  1  0  0  0  0
 11 12  1  0  0  0  0
 11 38  1  0  0  0  0
 12 13  1  0  0  0  0
 12 39  1  0  0  0  0
 12 40  1  0  0  0  0
 13 14  1  0  0  0  0
 13 41  1  0  0  0  0
 13 42  1  0  0  0  0
 14 15  1  0  0  0  0
 14 43  1  0  0  0  0
 14 44  1  0  0  0  0
 16 17  2  0  0  0  0
 18 29  1  0  0  0  0
 18 19  1  0  0  0  0
 19 20  2  0  0  0  0
 20 21  1  0  0  0  0
 20 28  1  0  0  0  0
 21 27  1  0  0  0  0
 21 22  2  0  0  0  0
 22 23  1  0  0  0  0
 22 45  1  0  0  0  0
 23 24  2  0  0  0  0
 23 46  1  0  0  0  0
 24 25  1  0  0  0  0
 24 26  1  0  0  0  0
 26 27  2  0  0  0  0
 26 47  1  0  0  0  0
 27 48  1  0  0  0  0
 28 29  1  0  0  0  0
 28 49  1  0  0  0  0
 28 50  1  0  0  0  0
 29 30  1  0  0  0  0
 29 51  1  0  0  0  0
 30 34  1  0  0  0  0
 30 31  2  0  0  0  0
 31 32  1  0  0  0  0
 31 52  1  0  0  0  0
 32 33  2  0  0  0  0
 32 53  1  0  0  0  0
 33 34  1  0  0  0  0
 33 54  1  0  0  0  0
M  END
> <s_m_source_file>
AV-unprocessed.smi

> <i_m_source_file_index>
136

> <i_lp_mmshare_version>
43012

> <i_f3d_flags>
0

> <s_epik_input>
bzFbY0hdW2NIXVtjSF1jMVtDQEBIXTJbQ0gyXUMoYzNbY0hdW2NIXWMoQ2wpW2NIXVtjSF0zKT1OTjJDKD1PKVtDSDJdbjRjKD1PKWMoRilbY0hdbihjND1PKVtDQEBIXTVbQ0gyXVtDSDJdW0NIMl1PNQ==

> <s_epik_cmdline>
J2VwaWtfcHl0aG9uJywgJy1waCcsICc3LjAnLCAnLXRuJywgJzgnLCAnLW1hJywgJzIwMCcsICctbWV0YWxfYmluZGluZycsICctaW1hZScsICc8aW5maWxlLm1hZT4nLCAnLW9tYWUnLCAnPG91dGZpbGUubWFlPic=

> <r_lp_tautomer_probability>
1

> <r_epik_Ionization_Penalty>
2.55467e-08

> <r_epik_Ionization_Penalty_Charging>
4.85705e-09

> <r_epik_Ionization_Penalty_Neutral>
2.06897e-08

> <r_epik_State_Penalty>
-0

> <r_epik_Charging_Adjusted_Penalty>
4.85705e-09

> <i_epik_Tot_Q>
0

> <i_epik_Tot_abs_Q>
0

> <r_epik_Metal_State_Penalty>
-0

> <b_epik_Metal_Only>
0

> <s_epik_Chemistry_Notes>
This compound has an imine and may undergo hydrolysis. This compound contains an acetal/aminal-like group ( X-CH(R)-Y where X, Y are N, S, or O) that may be acid/base labile, releasing an aldehyde.

> <s_lp_Force_Field>
OPLS_2005

> <r_lp_Energy>
41.711

> <b_lp_Chiralities_Consistent>
1

> <s_lp_Variant>
AV-unprocessed.smi:136-2

> <Gold.Version>
5.8.1

> <Gold.Id.Protein>
6NUR|6NUR_protein|mol2

> <Gold.PLP.Fitness>
48.1299

> <Gold.PLP.PLP>
-42.5613

> <Gold.PLP.part.hbond>
-2.0000

> <Gold.PLP.part.metal>
0.0000

> <Gold.PLP.part.buried>
-4.8480

> <Gold.PLP.part.nonpolar>
-35.6331

> <Gold.PLP.part.repulsive>
0.2073

> <Gold.PLP.ligand.clash>
0.0000

> <Gold.PLP.ligand.torsion>
0.6709

> <Gold.PLP.Chemscore.Hbond>
1.8720

> <Gold.PLP.Chemscore.CHOScore>
0.4077

> <Gold.PLP.Chemscore.Metal>
0.0000

> <Gold.Chemscore.Hbonds>
donor molecule, donor type, donor heavy atom, donor atom, acceptor molecule, acceptor atom, score
      P1  H  6931  6943       L1    34  0.90
      P1  H  6934  6947       L1    34  0.93
      L1  C     9    37       P1  7948  0.23

> <Gold.PLP.Chemscore.Internal.Correction>
0.0714

> <Gold.Rescore>
     Score         DG    S(hbond)    S(metal)    S(lipo)     H(rot)  DE(clash)    DE(int)     intcor
     15.15     -17.69       1.24        0.00     108.54       1.81       0.17       2.37       ----

> <Gold.Chemscore.Fitness>
15.1534

> <Gold.Chemscore.DG>
-17.6895

> <Gold.Chemscore.ZeroCoef>
-5.4800

> <Gold.Chemscore.Hbond>
1.2372

> <Gold.Chemscore.Metal>
0.0000

> <Gold.Chemscore.Lipo>
108.5433

> <Gold.Chemscore.Internal_Hbond>
0.0000

> <Gold.Chemscore.DEClash>
0.1679

> <Gold.Chemscore.DEInternal>
2.3682

> <Gold.Chemscore.Rot>
1.8056

> <Gold.Chemscore.Internal.Correction>
   9.000000E+99

> <Gold.Chemscore.Hbonds>
donor molecule, donor type, donor heavy atom, donor atom, acceptor molecule, acceptor atom, score
      P1  H  6931  6943       L1    34  0.17
      P1  H  6934  6947       L1    34  0.84

> <Gold.Chemscore.Hbond.Weighted>
-4.1323

> <Gold.Chemscore.Metal.Weighted>
-0.0000

> <Gold.Chemscore.Lipo.Weighted>
-12.6996

> <Gold.Chemscore.Internal_Hbond.Weighted>
0.0000

> <Gold.Chemscore.DEClash.Weighted>
0.1679

> <Gold.Chemscore.DEInternal.Weighted>
2.3682

> <Gold.Chemscore.Rot.Weighted>
4.6223

> <Gold.Chemscore.Internal.Correction.Weighted>
   9.000000E+99

> <Gold.Protein.RotatedTorsions>
[ 6907 6896 6895 6894 ] final   93.44 input  -60.11 | X-H torsion
[ 7974 7965 7964 7962 ] final   -0.18 input  175.53 | X-H torsion
[ 8008 7997 7996 7995 ] final   -8.49 input   59.86 | X-H torsion
[ 10167 10162 10161 10158 ] final -158.03 input  -65.29 | X-H torsion
[ 10718 10713 10712 10709 ] final  -62.30 input   66.30 | X-H torsion
[ 10763 10752 10751 10750 ] final   37.21 input  -60.55 | X-H torsion
[ 11005 11000 10999 10996 ] final  -51.26 input  -57.11 | X-H torsion

> <Gold.Protein.ActiveResidues>
 VAL166  LYS551  ARG553  GLY616  TRP617  ASP618  TYR619  PRO620  LYS621  CYS622 
 ASP623  PHE694  ASN695  SER759  ASP760  ASP761  ALA762  ILE779  LEU786  VAL792 
 PHE793  MET794  SER795  GLU796  ALA797  LYS798  CYS799  TRP800  GLU811  SER814 

> <Gold.Protein.RotatedAtoms>
  152.5452  134.1348  159.8453 H   0  0  0  0  0  0  0  0  0  0  0  0  # atno 6907 bound_to 6896
  151.1390  133.4977  159.2605 H   0  0  0  0  0  0  0  0  0  0  0  0  # atno 6908 bound_to 6896
  151.1594  135.0276  159.8758 H   0  0  0  0  0  0  0  0  0  0  0  0  # atno 6909 bound_to 6896
  146.2429  140.1232  142.8340 H   0  0  0  0  0  0  0  0  0  0  0  0  # atno 7974 bound_to 7965
  154.5736  140.2380  155.8155 H   0  0  0  0  0  0  0  0  0  0  0  0  # atno 8008 bound_to 7997
  156.2126  140.3021  155.9724 H   0  0  0  0  0  0  0  0  0  0  0  0  # atno 8009 bound_to 7997
  155.2667  140.0416  157.2993 H   0  0  0  0  0  0  0  0  0  0  0  0  # atno 8010 bound_to 7997
  139.6724  143.9721  152.2291 H   0  0  0  0  0  0  0  0  0  0  0  0  # atno 10167 bound_to 10162
  156.0864  130.4207  150.1116 H   0  0  0  0  0  0  0  0  0  0  0  0  # atno 10718 bound_to 10713
  153.0046  135.6284  154.2109 H   0  0  0  0  0  0  0  0  0  0  0  0  # atno 10763 bound_to 10752
  154.1852  135.2811  155.3041 H   0  0  0  0  0  0  0  0  0  0  0  0  # atno 10764 bound_to 10752
  154.5803  135.5649  153.7238 H   0  0  0  0  0  0  0  0  0  0  0  0  # atno 10765 bound_to 10752
  141.0861  133.6642  156.3851 H   0  0  0  0  0  0  0  0  0  0  0  0  # atno 11005 bound_to 11000
  145.0389  140.8930  143.5064 LP  0  0  0  0  0  0  0  0  0  0  0  0  # atno 17320 bound_to 7965
  145.1309  139.2633  143.5540 LP  0  0  0  0  0  0  0  0  0  0  0  0  # atno 17321 bound_to 7965
  139.9490  144.6633  150.8191 LP  0  0  0  0  0  0  0  0  0  0  0  0  # atno 17342 bound_to 10162
  140.7623  143.3195  151.2655 LP  0  0  0  0  0  0  0  0  0  0  0  0  # atno 17343 bound_to 10162
  156.9136  130.9660  151.3559 LP  0  0  0  0  0  0  0  0  0  0  0  0  # atno 17370 bound_to 10713
  157.6000  130.8505  149.8787 LP  0  0  0  0  0  0  0  0  0  0  0  0  # atno 17371 bound_to 10713
  140.5359  134.6168  157.5365 LP  0  0  0  0  0  0  0  0  0  0  0  0  # atno 17394 bound_to 11000
  139.9680  134.7340  156.0099 LP  0  0  0  0  0  0  0  0  0  0  0  0  # atno 17395 bound_to 11000

$$$$
