AV-unprocessed.smi:1291|AV-procd|sdf|5394|dock9
  -GOLD-   22720 4553D 1   1.00000     0.00000
 Structure written by MMmdl.
 44 46  0  0  0  0  0  0  0  0  2 V2000
  148.8382  142.3531  154.2429 O   0  0  0  0  0  0  0  0  0  0  0  0
  149.3984  141.2767  154.9644 C   0  0  0  0  0  0  0  0  0  0  0  0
  150.2365  141.7224  156.1199 C   0  0  0  0  0  0  0  0  0  0  0  0
  150.4166  143.0102  156.5306 N   0  3  0  0  0  0  0  0  0  0  0  0
  151.2558  143.0403  157.6444 C   0  0  0  0  0  0  0  0  0  0  0  0
  151.7241  144.1084  158.4032 C   0  0  0  0  0  0  0  0  0  0  0  0
  152.5739  143.7923  159.4834 C   0  0  0  0  0  0  0  0  0  0  0  0
  152.9287  142.4587  159.7723 C   0  0  0  0  0  0  0  0  0  0  0  0
  152.4481  141.3843  158.9951 C   0  0  0  0  0  0  0  0  0  0  0  0
  151.6054  141.7047  157.9305 C   0  0  0  0  0  0  0  0  0  0  0  0
  150.9523  140.9268  156.9661 N   0  0  0  0  0  0  0  0  0  0  0  0
  151.1054  139.4630  156.9893 C   0  0  0  0  0  0  0  0  0  0  0  0
  150.1721  138.7792  158.0093 C   0  0  1  0  0  0  0  0  0  0  0  0
  148.8430  139.2490  157.9069 O   0  0  0  0  0  0  0  0  0  0  0  0
  150.1727  137.2453  157.9094 C   0  0  0  0  0  0  0  0  0  0  0  0
  149.6731  136.6807  159.1117 O   0  0  0  0  0  0  0  0  0  0  0  0
  148.3025  136.3304  159.0311 C   0  0  0  0  0  0  0  0  0  0  0  0
  147.8227  135.6980  160.3230 C   0  0  0  0  0  0  0  0  0  0  0  0
  147.8329  136.4471  161.5185 C   0  0  0  0  0  0  0  0  0  0  0  0
  147.3948  135.8647  162.7238 C   0  0  0  0  0  0  0  0  0  0  0  0
  146.9442  134.5306  162.7384 C   0  0  0  0  0  0  0  0  0  0  0  0
  146.9356  133.7783  161.5480 C   0  0  0  0  0  0  0  0  0  0  0  0
  147.3756  134.3585  160.3421 C   0  0  0  0  0  0  0  0  0  0  0  0
  147.3687  133.6218  159.2051 F   0  0  0  0  0  0  0  0  0  0  0  0
  148.9565  143.1454  154.7449 H   0  0  0  0  0  0  0  0  0  0  0  0
  148.5949  140.6390  155.3331 H   0  0  0  0  0  0  0  0  0  0  0  0
  150.0017  140.6780  154.2820 H   0  0  0  0  0  0  0  0  0  0  0  0
  151.4551  145.1310  158.1820 H   0  0  0  0  0  0  0  0  0  0  0  0
  152.9628  144.5885  160.1017 H   0  0  0  0  0  0  0  0  0  0  0  0
  153.5840  142.2548  160.6066 H   0  0  0  0  0  0  0  0  0  0  0  0
  152.7324  140.3675  159.2233 H   0  0  0  0  0  0  0  0  0  0  0  0
  150.9527  139.0743  155.9825 H   0  0  0  0  0  0  0  0  0  0  0  0
  152.1452  139.2481  157.2383 H   0  0  0  0  0  0  0  0  0  0  0  0
  150.5044  139.0450  159.0133 H   0  0  0  0  0  0  0  0  0  0  0  0
  148.3036  138.5494  157.5720 H   0  0  0  0  0  0  0  0  0  0  0  0
  149.5321  136.9394  157.0809 H   0  0  0  0  0  0  0  0  0  0  0  0
  151.1760  136.8742  157.6937 H   0  0  0  0  0  0  0  0  0  0  0  0
  147.7044  137.2187  158.8209 H   0  0  0  0  0  0  0  0  0  0  0  0
  148.1385  135.6369  158.2048 H   0  0  0  0  0  0  0  0  0  0  0  0
  148.1786  137.4705  161.5147 H   0  0  0  0  0  0  0  0  0  0  0  0
  147.4052  136.4406  163.6376 H   0  0  0  0  0  0  0  0  0  0  0  0
  146.6076  134.0839  163.6621 H   0  0  0  0  0  0  0  0  0  0  0  0
  146.5932  132.7541  161.5597 H   0  0  0  0  0  0  0  0  0  0  0  0
  149.9942  143.8085  156.0739 H   0  0  0  0  0  0  0  0  0  0  0  0
  1  2  1  0  0  0  0
  1 25  1  0  0  0  0
  2  3  1  0  0  0  0
  2 26  1  0  0  0  0
  2 27  1  0  0  0  0
  3 11  1  0  0  0  0
  3  4  2  0  0  0  0
  4  5  1  0  0  0  0
  4 44  1  0  0  0  0
  5 10  2  0  0  0  0
  5  6  1  0  0  0  0
  6  7  2  0  0  0  0
  6 28  1  0  0  0  0
  7  8  1  0  0  0  0
  7 29  1  0  0  0  0
  8  9  2  0  0  0  0
  8 30  1  0  0  0  0
  9 10  1  0  0  0  0
  9 31  1  0  0  0  0
 10 11  1  0  0  0  0
 11 12  1  0  0  0  0
 12 13  1  0  0  0  0
 12 32  1  0  0  0  0
 12 33  1  0  0  0  0
 13 14  1  0  0  0  0
 13 15  1  0  0  0  0
 13 34  1  0  0  0  0
 14 35  1  0  0  0  0
 15 16  1  0  0  0  0
 15 36  1  0  0  0  0
 15 37  1  0  0  0  0
 16 17  1  0  0  0  0
 17 18  1  0  0  0  0
 17 38  1  0  0  0  0
 17 39  1  0  0  0  0
 18 23  1  0  0  0  0
 18 19  2  0  0  0  0
 19 20  1  0  0  0  0
 19 40  1  0  0  0  0
 20 21  2  0  0  0  0
 20 41  1  0  0  0  0
 21 22  1  0  0  0  0
 21 42  1  0  0  0  0
 22 23  2  0  0  0  0
 22 43  1  0  0  0  0
 23 24  1  0  0  0  0
M  CHG  1   4   1
M  END
> <s_m_source_file>
AV-unprocessed.smi

> <i_m_source_file_index>
1291

> <i_lp_mmshare_version>
43012

> <i_f3d_flags>
0

> <s_epik_input>
W2NIXTFbY0hdW2NIXVtjSF1jKGMxMiluKGMobjIpW0NIMl1bT0hdKVtDSDJdW0NASF0oW09IXSlbQ0gyXU9bQ0gyXWMzW2NIXVtjSF1bY0hdW2NIXWMzRg==

> <s_epik_cmdline>
J2VwaWtfcHl0aG9uJywgJy1waCcsICc3LjAnLCAnLXRuJywgJzgnLCAnLW1hJywgJzIwMCcsICctbWV0YWxfYmluZGluZycsICctaW1hZScsICc8aW5maWxlLm1hZT4nLCAnLW9tYWUnLCAnPG91dGZpbGUubWFlPic=

> <r_epik_Ionization_Penalty>
1.34314

> <r_epik_Ionization_Penalty_Charging>
1.34228

> <r_epik_Ionization_Penalty_Neutral>
0.000856861

> <r_epik_State_Penalty>
1.41963

> <r_epik_Charging_Adjusted_Penalty>
2.76191

> <i_epik_Tot_Q>
1

> <i_epik_Tot_abs_Q>
1

> <r_epik_Metal_State_Penalty>
5.45585

> <b_epik_Metal_Only>
0

> <s_lp_Force_Field>
OPLS_2005

> <r_lp_Energy>
19.0817

> <b_lp_Chiralities_Consistent>
1

> <s_lp_Variant>
AV-unprocessed.smi:1291-4

> <Gold.Version>
5.8.1

> <Gold.Id.Protein>
6NUR|6NUR_protein|mol2

> <Gold.PLP.Fitness>
67.1464

> <Gold.PLP.PLP>
-55.8418

> <Gold.PLP.part.hbond>
-4.1185

> <Gold.PLP.part.metal>
0.0000

> <Gold.PLP.part.buried>
-4.4944

> <Gold.PLP.part.nonpolar>
-48.3452

> <Gold.PLP.part.repulsive>
0.0512

> <Gold.PLP.ligand.clash>
0.0000

> <Gold.PLP.ligand.torsion>
0.7821

> <Gold.PLP.Chemscore.Hbond>
4.2272

> <Gold.PLP.Chemscore.CHOScore>
0.0000

> <Gold.PLP.Chemscore.Metal>
0.0000

> <Gold.Chemscore.Hbonds>
donor molecule, donor type, donor heavy atom, donor atom, acceptor molecule, acceptor atom, score
      L1  H     1    25       P1  8028  1.00
      L1  H     4    44       P1  8028  1.79
      P1  H  6896  6907       L1    16  0.50
      P1  H  8011  8017       L1     1  0.16

> <Gold.PLP.Chemscore.Internal.Correction>
0.1871

> <Gold.Rescore>
     Score         DG    S(hbond)    S(metal)    S(lipo)     H(rot)  DE(clash)    DE(int)     intcor
     20.12     -20.95       2.65        0.00     131.83       3.44       0.00       0.83       ----

> <Gold.Chemscore.Fitness>
20.1199

> <Gold.Chemscore.DG>
-20.9506

> <Gold.Chemscore.ZeroCoef>
-5.4800

> <Gold.Chemscore.Hbond>
2.6471

> <Gold.Chemscore.Metal>
0.0000

> <Gold.Chemscore.Lipo>
131.8273

> <Gold.Chemscore.Internal_Hbond>
0.0000

> <Gold.Chemscore.DEClash>
0.0000

> <Gold.Chemscore.DEInternal>
0.8307

> <Gold.Chemscore.Rot>
3.4353

> <Gold.Chemscore.Internal.Correction>
   9.000000E+99

> <Gold.Chemscore.Hbonds>
donor molecule, donor type, donor heavy atom, donor atom, acceptor molecule, acceptor atom, score
      L1  H     1    25       P1  8028  1.00
      L1  H     4    44       P1  8028  0.85
      P1  H  6896  6907       L1    16  0.27
      P1  H  8011  8017       L1     1  0.08

> <Gold.Chemscore.Hbond.Weighted>
-8.8412

> <Gold.Chemscore.Metal.Weighted>
-0.0000

> <Gold.Chemscore.Lipo.Weighted>
-15.4238

> <Gold.Chemscore.Internal_Hbond.Weighted>
0.0000

> <Gold.Chemscore.DEClash.Weighted>
0.0000

> <Gold.Chemscore.DEInternal.Weighted>
0.8307

> <Gold.Chemscore.Rot.Weighted>
8.7944

> <Gold.Chemscore.Internal.Correction.Weighted>
   9.000000E+99

> <Gold.Protein.RotatedTorsions>
[ 6907 6896 6895 6894 ] final  -48.14 input  -60.11 | X-H torsion
[ 7974 7965 7964 7962 ] final  122.87 input  175.53 | X-H torsion
[ 8008 7997 7996 7995 ] final -107.04 input   59.86 | X-H torsion
[ 10167 10162 10161 10158 ] final  172.79 input  -65.29 | X-H torsion
[ 10718 10713 10712 10709 ] final  176.57 input   66.30 | X-H torsion
[ 10763 10752 10751 10750 ] final   21.71 input  -60.55 | X-H torsion
[ 11005 11000 10999 10996 ] final  -27.20 input  -57.11 | X-H torsion

> <Gold.Protein.ActiveResidues>
 VAL166  LYS551  ARG553  GLY616  TRP617  ASP618  TYR619  PRO620  LYS621  CYS622 
 ASP623  PHE694  ASN695  SER759  ASP760  ASP761  ALA762  ILE779  LEU786  VAL792 
 PHE793  MET794  SER795  GLU796  ALA797  LYS798  CYS799  TRP800  GLU811  SER814 

> <Gold.Protein.RotatedAtoms>
  150.8936  134.8342  159.7310 H   0  0  0  0  0  0  0  0  0  0  0  0  # atno 6907 bound_to 6896
  152.4851  134.4611  159.9615 H   0  0  0  0  0  0  0  0  0  0  0  0  # atno 6908 bound_to 6896
  151.4670  133.3539  159.2853 H   0  0  0  0  0  0  0  0  0  0  0  0  # atno 6909 bound_to 6896
  145.1025  139.3509  143.4804 H   0  0  0  0  0  0  0  0  0  0  0  0  # atno 7974 bound_to 7965
  154.9234  140.0407  157.2010 H   0  0  0  0  0  0  0  0  0  0  0  0  # atno 8008 bound_to 7997
  154.8232  140.2887  155.5751 H   0  0  0  0  0  0  0  0  0  0  0  0  # atno 8009 bound_to 7997
  156.2981  140.2515  156.3143 H   0  0  0  0  0  0  0  0  0  0  0  0  # atno 8010 bound_to 7997
  139.5087  144.3334  152.0089 H   0  0  0  0  0  0  0  0  0  0  0  0  # atno 10167 bound_to 10162
  156.9182  130.9932  151.3009 H   0  0  0  0  0  0  0  0  0  0  0  0  # atno 10718 bound_to 10713
  153.0973  135.6663  153.9738 H   0  0  0  0  0  0  0  0  0  0  0  0  # atno 10763 bound_to 10752
  153.9318  135.3003  155.3447 H   0  0  0  0  0  0  0  0  0  0  0  0  # atno 10764 bound_to 10752
  154.7393  135.5087  153.9169 H   0  0  0  0  0  0  0  0  0  0  0  0  # atno 10765 bound_to 10752
  140.9098  133.7468  156.0655 H   0  0  0  0  0  0  0  0  0  0  0  0  # atno 11005 bound_to 11000
  146.3529  140.0908  142.8612 LP  0  0  0  0  0  0  0  0  0  0  0  0  # atno 17320 bound_to 7965
  145.0939  140.9302  143.4752 LP  0  0  0  0  0  0  0  0  0  0  0  0  # atno 17321 bound_to 7965
  140.2774  144.3898  150.6130 LP  0  0  0  0  0  0  0  0  0  0  0  0  # atno 17342 bound_to 10162
  140.6044  143.2167  151.7010 LP  0  0  0  0  0  0  0  0  0  0  0  0  # atno 17343 bound_to 10162
  157.5925  130.8454  149.8680 LP  0  0  0  0  0  0  0  0  0  0  0  0  # atno 17370 bound_to 10713
  156.0503  130.3719  150.1216 LP  0  0  0  0  0  0  0  0  0  0  0  0  # atno 17371 bound_to 10713
  140.8124  134.3383  157.5407 LP  0  0  0  0  0  0  0  0  0  0  0  0  # atno 17394 bound_to 11000
  139.8755  134.9262  156.3394 LP  0  0  0  0  0  0  0  0  0  0  0  0  # atno 17395 bound_to 11000

$$$$
