AV-unprocessed.smi:189|AV-procd|sdf|1482|dock2
  -GOLD-   2262019303D 1   1.00000     0.00000
 Structure written by MMmdl.
 53 57  0  0  0  0  0  0  0  0  1 V2000
  150.7536  139.7795  155.1630 C   0  0  0  0  0  0  0  0  0  0  0  0
  151.2503  140.6096  156.3626 C   0  0  1  0  0  0  0  0  0  0  0  0
  150.9955  142.1254  156.2684 C   0  0  0  0  0  0  0  0  0  0  0  0
  150.5824  142.5382  157.6886 C   0  0  2  0  0  0  0  0  0  0  0  0
  151.0931  143.9025  158.1948 C   0  0  0  0  0  0  0  0  0  0  0  0
  152.5447  143.8623  158.6915 C   0  0  0  0  0  0  0  0  0  0  0  0
  152.7310  142.7516  159.7327 C   0  0  0  0  0  0  0  0  0  0  0  0
  152.4051  141.3892  159.1115 C   0  0  0  0  0  0  0  0  0  0  0  0
  150.9586  141.3264  158.5667 C   0  0  2  0  0  0  0  0  0  0  0  0
  150.7862  140.1750  157.6855 N   0  0  0  0  0  0  0  0  0  0  0  0
  149.5853  139.5583  157.8017 C   0  0  0  0  0  0  0  0  0  0  0  0
  148.4867  140.0362  157.1587 N   0  0  0  0  0  0  0  0  0  0  0  0
  147.3088  139.4207  157.2999 C   0  0  0  0  0  0  0  0  0  0  0  0
  147.0130  138.3404  158.0265 N   0  0  0  0  0  0  0  0  0  0  0  0
  148.1141  137.8638  158.6760 C   0  0  0  0  0  0  0  0  0  0  0  0
  149.4271  138.4075  158.6161 C   0  0  0  0  0  0  0  0  0  0  0  0
  150.2921  137.6578  159.4024 N   0  0  0  0  0  0  0  0  0  0  0  0
  149.5311  136.7233  159.9039 C   0  0  0  0  0  0  0  0  0  0  0  0
  148.2062  136.7791  159.5307 N   0  0  0  0  0  0  0  0  0  0  0  0
  147.1438  135.8747  159.9438 C   0  0  0  0  0  0  0  0  0  0  0  0
  146.6970  136.0593  161.4162 C   0  0  1  0  0  0  0  0  0  0  0  0
  146.3176  137.4088  161.6175 O   0  0  0  0  0  0  0  0  0  0  0  0
  145.5453  135.1463  161.8430 C   0  0  0  0  0  0  0  0  0  0  0  0
  146.2616  134.0016  162.5430 C   0  0  0  0  0  0  0  0  0  0  0  0
  147.2838  134.6769  163.2542 O   0  0  0  0  0  0  0  0  0  0  0  0
  147.8219  135.6817  162.4022 C   0  0  0  0  0  0  0  0  0  0  0  0
  151.2564  140.0918  154.2477 H   0  0  0  0  0  0  0  0  0  0  0  0
  149.6827  139.8949  154.9968 H   0  0  0  0  0  0  0  0  0  0  0  0
  150.9612  138.7187  155.3057 H   0  0  0  0  0  0  0  0  0  0  0  0
  152.3308  140.4664  156.3840 H   0  0  0  0  0  0  0  0  0  0  0  0
  151.8990  142.6404  155.9408 H   0  0  0  0  0  0  0  0  0  0  0  0
  150.2037  142.3635  155.5570 H   0  0  0  0  0  0  0  0  0  0  0  0
  149.4941  142.6074  157.6767 H   0  0  0  0  0  0  0  0  0  0  0  0
  150.9796  144.6585  157.4172 H   0  0  0  0  0  0  0  0  0  0  0  0
  150.4584  144.2241  159.0215 H   0  0  0  0  0  0  0  0  0  0  0  0
  153.2214  143.7004  157.8518 H   0  0  0  0  0  0  0  0  0  0  0  0
  152.8133  144.8263  159.1241 H   0  0  0  0  0  0  0  0  0  0  0  0
  153.7579  142.7548  160.0992 H   0  0  0  0  0  0  0  0  0  0  0  0
  152.0895  142.9333  160.5960 H   0  0  0  0  0  0  0  0  0  0  0  0
  153.1294  141.1972  158.3198 H   0  0  0  0  0  0  0  0  0  0  0  0
  152.5512  140.5991  159.8488 H   0  0  0  0  0  0  0  0  0  0  0  0
  150.2748  141.2746  159.4163 H   0  0  0  0  0  0  0  0  0  0  0  0
  146.4851  139.8582  156.7555 H   0  0  0  0  0  0  0  0  0  0  0  0
  149.9165  135.9657  160.5708 H   0  0  0  0  0  0  0  0  0  0  0  0
  146.2949  136.0197  159.2746 H   0  0  0  0  0  0  0  0  0  0  0  0
  147.4873  134.8522  159.7807 H   0  0  0  0  0  0  0  0  0  0  0  0
  145.4028  137.4301  161.8536 H   0  0  0  0  0  0  0  0  0  0  0  0
  144.9026  135.6487  162.5679 H   0  0  0  0  0  0  0  0  0  0  0  0
  144.9070  134.8067  161.0287 H   0  0  0  0  0  0  0  0  0  0  0  0
  145.6085  133.4391  163.2104 H   0  0  0  0  0  0  0  0  0  0  0  0
  146.7014  133.3115  161.8212 H   0  0  0  0  0  0  0  0  0  0  0  0
  148.6853  135.2666  161.8802 H   0  0  0  0  0  0  0  0  0  0  0  0
  148.1765  136.5260  162.9950 H   0  0  0  0  0  0  0  0  0  0  0  0
  1  2  1  0  0  0  0
  1 27  1  0  0  0  0
  1 28  1  0  0  0  0
  1 29  1  0  0  0  0
  2 10  1  0  0  0  0
  2  3  1  0  0  0  0
  2 30  1  0  0  0  0
  3  4  1  0  0  0  0
  3 31  1  0  0  0  0
  3 32  1  0  0  0  0
  4  9  1  0  0  0  0
  4  5  1  0  0  0  0
  4 33  1  0  0  0  0
  5  6  1  0  0  0  0
  5 34  1  0  0  0  0
  5 35  1  0  0  0  0
  6  7  1  0  0  0  0
  6 36  1  0  0  0  0
  6 37  1  0  0  0  0
  7  8  1  0  0  0  0
  7 38  1  0  0  0  0
  7 39  1  0  0  0  0
  8  9  1  0  0  0  0
  8 40  1  0  0  0  0
  8 41  1  0  0  0  0
  9 10  1  0  0  0  0
  9 42  1  0  0  0  0
 10 11  1  0  0  0  0
 11 16  1  0  0  0  0
 11 12  2  0  0  0  0
 12 13  1  0  0  0  0
 13 14  2  0  0  0  0
 13 43  1  0  0  0  0
 14 15  1  0  0  0  0
 15 19  1  0  0  0  0
 15 16  2  0  0  0  0
 16 17  1  0  0  0  0
 17 18  2  0  0  0  0
 18 19  1  0  0  0  0
 18 44  1  0  0  0  0
 19 20  1  0  0  0  0
 20 21  1  0  0  0  0
 20 45  1  0  0  0  0
 20 46  1  0  0  0  0
 21 26  1  0  0  0  0
 21 22  1  0  0  0  0
 21 23  1  0  0  0  0
 22 47  1  0  0  0  0
 23 24  1  0  0  0  0
 23 48  1  0  0  0  0
 23 49  1  0  0  0  0
 24 25  1  0  0  0  0
 24 50  1  0  0  0  0
 24 51  1  0  0  0  0
 25 26  1  0  0  0  0
 26 52  1  0  0  0  0
 26 53  1  0  0  0  0
M  END
> <s_m_source_file>
AV-unprocessed.smi

> <i_m_source_file_index>
189

> <i_lp_mmshare_version>
43012

> <i_f3d_flags>
0

> <s_epik_input>
W0NIMl0xW0NIMl1bQ0gyXVtDSDJdW0NASF0oW0NASF0xMilOKFtDQEhdKFtDSDNdKVtDSDJdMiljKG5bY0hdbjMpYyhjMzQpbltjSF1uNFtDSDJdW0NAQF01KFtPSF0pW0NIMl1bQ0gyXU9bQ0gyXTU=

> <s_epik_cmdline>
J2VwaWtfcHl0aG9uJywgJy1waCcsICc3LjAnLCAnLXRuJywgJzgnLCAnLW1hJywgJzIwMCcsICctbWV0YWxfYmluZGluZycsICctaW1hZScsICc8aW5maWxlLm1hZT4nLCAnLW9tYWUnLCAnPG91dGZpbGUubWFlPic=

> <r_lp_tautomer_probability>
1

> <r_epik_Ionization_Penalty>
0.00594261

> <r_epik_Ionization_Penalty_Charging>
0

> <r_epik_Ionization_Penalty_Neutral>
0.00594261

> <r_epik_State_Penalty>
0.00429776

> <r_epik_Charging_Adjusted_Penalty>
0.00429776

> <i_epik_Tot_Q>
0

> <i_epik_Tot_abs_Q>
0

> <r_epik_Metal_State_Penalty>
-0

> <b_epik_Metal_Only>
0

> <s_lp_Force_Field>
OPLS_2005

> <r_lp_Energy>
63.5443

> <b_lp_Chiralities_Consistent>
1

> <s_lp_Variant>
AV-unprocessed.smi:189-8

> <Gold.Version>
5.8.1

> <Gold.Id.Protein>
6NUR|6NUR_protein|mol2

> <Gold.PLP.Fitness>
46.7938

> <Gold.PLP.PLP>
-45.0779

> <Gold.PLP.part.hbond>
-2.5483

> <Gold.PLP.part.metal>
0.0000

> <Gold.PLP.part.buried>
-5.4456

> <Gold.PLP.part.nonpolar>
-37.4663

> <Gold.PLP.part.repulsive>
0.0059

> <Gold.PLP.ligand.clash>
0.0000

> <Gold.PLP.ligand.torsion>
0.6696

> <Gold.PLP.Chemscore.Hbond>
1.0000

> <Gold.PLP.Chemscore.CHOScore>
0.0000

> <Gold.PLP.Chemscore.Metal>
0.0000

> <Gold.Chemscore.Hbonds>
donor molecule, donor type, donor heavy atom, donor atom, acceptor molecule, acceptor atom, score
      P1  H  6934  6947       L1    22  1.00

> <Gold.PLP.Chemscore.Internal.Correction>
0.0550

> <Gold.Rescore>
     Score         DG    S(hbond)    S(metal)    S(lipo)     H(rot)  DE(clash)    DE(int)     intcor
     16.75     -17.26       0.96        0.00     117.60       2.03       0.02       0.50       ----

> <Gold.Chemscore.Fitness>
16.7461

> <Gold.Chemscore.DG>
-17.2601

> <Gold.Chemscore.ZeroCoef>
-5.4800

> <Gold.Chemscore.Hbond>
0.9633

> <Gold.Chemscore.Metal>
0.0000

> <Gold.Chemscore.Lipo>
117.5955

> <Gold.Chemscore.Internal_Hbond>
0.0000

> <Gold.Chemscore.DEClash>
0.0153

> <Gold.Chemscore.DEInternal>
0.4987

> <Gold.Chemscore.Rot>
2.0297

> <Gold.Chemscore.Internal.Correction>
   9.000000E+99

> <Gold.Chemscore.Hbonds>
donor molecule, donor type, donor heavy atom, donor atom, acceptor molecule, acceptor atom, score
      P1  H  6934  6947       L1    22  0.92

> <Gold.Chemscore.Hbond.Weighted>
-3.2174

> <Gold.Chemscore.Metal.Weighted>
-0.0000

> <Gold.Chemscore.Lipo.Weighted>
-13.7587

> <Gold.Chemscore.Internal_Hbond.Weighted>
0.0000

> <Gold.Chemscore.DEClash.Weighted>
0.0153

> <Gold.Chemscore.DEInternal.Weighted>
0.4987

> <Gold.Chemscore.Rot.Weighted>
5.1960

> <Gold.Chemscore.Internal.Correction.Weighted>
   9.000000E+99

> <Gold.Protein.RotatedTorsions>
[ 6907 6896 6895 6894 ] final -176.75 input  -60.11 | X-H torsion
[ 7974 7965 7964 7962 ] final   71.40 input  175.53 | X-H torsion
[ 8008 7997 7996 7995 ] final -127.51 input   59.86 | X-H torsion
[ 10167 10162 10161 10158 ] final  -74.31 input  -65.29 | X-H torsion
[ 10718 10713 10712 10709 ] final -167.94 input   66.30 | X-H torsion
[ 10763 10752 10751 10750 ] final  175.93 input  -60.55 | X-H torsion
[ 11005 11000 10999 10996 ] final   -6.34 input  -57.11 | X-H torsion

> <Gold.Protein.ActiveResidues>
 VAL166  LYS551  ARG553  GLY616  TRP617  ASP618  TYR619  PRO620  LYS621  CYS622 
 ASP623  PHE694  ASN695  SER759  ASP760  ASP761  ALA762  ILE779  LEU786  VAL792 
 PHE793  MET794  SER795  GLU796  ALA797  LYS798  CYS799  TRP800  GLU811  SER814 

> <Gold.Protein.RotatedAtoms>
  151.6099  133.3348  159.3065 H   0  0  0  0  0  0  0  0  0  0  0  0  # atno 6907 bound_to 6896
  150.8162  134.7348  159.6743 H   0  0  0  0  0  0  0  0  0  0  0  0  # atno 6908 bound_to 6896
  152.4258  134.5877  160.0017 H   0  0  0  0  0  0  0  0  0  0  0  0  # atno 6909 bound_to 6896
  145.7663  139.2823  143.1347 H   0  0  0  0  0  0  0  0  0  0  0  0  # atno 7974 bound_to 7965
  155.2474  140.0431  157.2982 H   0  0  0  0  0  0  0  0  0  0  0  0  # atno 8008 bound_to 7997
  154.5790  140.2395  155.8050 H   0  0  0  0  0  0  0  0  0  0  0  0  # atno 8009 bound_to 7997
  156.2179  140.2979  155.9891 H   0  0  0  0  0  0  0  0  0  0  0  0  # atno 8010 bound_to 7997
  140.5038  143.2356  151.7709 H   0  0  0  0  0  0  0  0  0  0  0  0  # atno 10167 bound_to 10162
  156.6897  130.9154  151.3067 H   0  0  0  0  0  0  0  0  0  0  0  0  # atno 10718 bound_to 10713
  154.4742  135.2772  155.1620 H   0  0  0  0  0  0  0  0  0  0  0  0  # atno 10763 bound_to 10752
  154.3356  135.6181  153.5575 H   0  0  0  0  0  0  0  0  0  0  0  0  # atno 10764 bound_to 10752
  152.9867  135.5776  154.5129 H   0  0  0  0  0  0  0  0  0  0  0  0  # atno 10765 bound_to 10752
  140.7009  133.8990  155.8683 H   0  0  0  0  0  0  0  0  0  0  0  0  # atno 11005 bound_to 11000
  146.0214  140.8344  142.9921 LP  0  0  0  0  0  0  0  0  0  0  0  0  # atno 17320 bound_to 7965
  144.6821  140.2634  143.7316 LP  0  0  0  0  0  0  0  0  0  0  0  0  # atno 17321 bound_to 7965
  139.4878  144.4486  151.9681 LP  0  0  0  0  0  0  0  0  0  0  0  0  # atno 17342 bound_to 10162
  140.3576  144.3013  150.5939 LP  0  0  0  0  0  0  0  0  0  0  0  0  # atno 17343 bound_to 10162
  157.7013  130.9336  150.0795 LP  0  0  0  0  0  0  0  0  0  0  0  0  # atno 17370 bound_to 10713
  156.1807  130.3650  149.9040 LP  0  0  0  0  0  0  0  0  0  0  0  0  # atno 17371 bound_to 10713
  141.0164  134.0950  157.4167 LP  0  0  0  0  0  0  0  0  0  0  0  0  # atno 17394 bound_to 11000
  139.8897  135.0107  156.6693 LP  0  0  0  0  0  0  0  0  0  0  0  0  # atno 17395 bound_to 11000

$$$$
