AV-unprocessed.smi:1208|AV-procd|sdf|5062|dock9
  -GOLD-   22720 4103D 1   1.00000     0.00000
 Structure written by MMmdl.
 35 36  0  0  0  0  0  0  0  0  2 V2000
  151.1106  141.0124  158.7489 C   0  0  0  0  0  0  0  0  0  0  0  0
  151.3400  139.5392  158.3820 C   0  0  1  0  0  0  0  0  0  0  0  0
  150.0641  138.8309  158.4470 N   0  0  0  0  0  0  0  0  0  0  0  0
  149.8496  137.6463  159.0405 C   0  0  0  0  0  0  0  0  0  0  0  0
  150.7055  137.0427  159.6881 O   0  0  0  0  0  0  0  0  0  0  0  0
  148.4477  137.0521  158.8696 C   0  0  0  0  0  0  0  0  0  0  0  0
  148.0407  136.3046  160.0659 N   0  0  0  0  0  0  0  0  0  0  0  0
  147.5768  137.1610  161.1551 N   0  5  0  0  0  0  0  0  0  0  0  0
  147.0727  136.5879  162.2796 C   0  0  0  0  0  0  0  0  0  0  0  0
  146.6274  137.2430  163.2190 O   0  0  0  0  0  0  0  0  0  0  0  0
  147.0708  135.1370  162.3655 C   0  0  0  0  0  0  0  0  0  0  0  0
  147.5396  134.3720  161.3599 C   0  0  0  0  0  0  0  0  0  0  0  0
  148.0625  134.9424  160.1241 C   0  0  0  0  0  0  0  0  0  0  0  0
  148.4798  134.2478  159.1976 O   0  0  0  0  0  0  0  0  0  0  0  0
  151.9598  139.3873  156.9764 C   0  0  2  0  0  0  0  0  0  0  0  0
  151.1618  140.0286  155.8377 C   0  0  0  0  0  0  0  0  0  0  0  0
  151.6515  139.2447  154.6432 C   0  0  0  0  0  0  0  0  0  0  0  0
  151.7788  137.8404  155.2259 C   0  0  0  0  0  0  0  0  0  0  0  0
  152.0545  138.0108  156.6146 O   0  0  0  0  0  0  0  0  0  0  0  0
  152.0475  141.5698  158.7423 H   0  0  0  0  0  0  0  0  0  0  0  0
  150.6813  141.1059  159.7469 H   0  0  0  0  0  0  0  0  0  0  0  0
  150.4314  141.4962  158.0461 H   0  0  0  0  0  0  0  0  0  0  0  0
  152.0336  139.1208  159.1133 H   0  0  0  0  0  0  0  0  0  0  0  0
  149.2942  139.2396  157.9371 H   0  0  0  0  0  0  0  0  0  0  0  0
  147.7448  137.8585  158.6539 H   0  0  0  0  0  0  0  0  0  0  0  0
  148.4205  136.4031  157.9918 H   0  0  0  0  0  0  0  0  0  0  0  0
  146.6884  134.6622  163.2570 H   0  0  0  0  0  0  0  0  0  0  0  0
  147.5207  133.2978  161.4683 H   0  0  0  0  0  0  0  0  0  0  0  0
  152.9703  139.8000  156.9685 H   0  0  0  0  0  0  0  0  0  0  0  0
  150.0917  139.8661  155.9760 H   0  0  0  0  0  0  0  0  0  0  0  0
  151.3356  141.1015  155.7450 H   0  0  0  0  0  0  0  0  0  0  0  0
  150.9761  139.2940  153.7887 H   0  0  0  0  0  0  0  0  0  0  0  0
  152.6288  139.6143  154.3300 H   0  0  0  0  0  0  0  0  0  0  0  0
  150.8373  137.2992  155.1265 H   0  0  0  0  0  0  0  0  0  0  0  0
  152.5578  137.2575  154.7339 H   0  0  0  0  0  0  0  0  0  0  0  0
  1  2  1  0  0  0  0
  1 20  1  0  0  0  0
  1 21  1  0  0  0  0
  1 22  1  0  0  0  0
  2  3  1  0  0  0  0
  2 15  1  0  0  0  0
  2 23  1  0  0  0  0
  3  4  1  0  0  0  0
  3 24  1  0  0  0  0
  4  5  2  0  0  0  0
  4  6  1  0  0  0  0
  6 25  1  0  0  0  0
  6 26  1  0  0  0  0
  6  7  1  0  0  0  0
  7  8  1  0  0  0  0
  7 13  1  0  0  0  0
  8  9  1  0  0  0  0
  9 10  2  0  0  0  0
  9 11  1  0  0  0  0
 11 27  1  0  0  0  0
 11 12  2  0  0  0  0
 12 28  1  0  0  0  0
 12 13  1  0  0  0  0
 13 14  2  0  0  0  0
 15 19  1  0  0  0  0
 15 16  1  0  0  0  0
 15 29  1  0  0  0  0
 16 17  1  0  0  0  0
 16 30  1  0  0  0  0
 16 31  1  0  0  0  0
 17 18  1  0  0  0  0
 17 32  1  0  0  0  0
 17 33  1  0  0  0  0
 18 19  1  0  0  0  0
 18 34  1  0  0  0  0
 18 35  1  0  0  0  0
M  CHG  1   8  -1
M  END
> <s_m_source_file>
AV-unprocessed.smi

> <i_m_source_file_index>
1208

> <i_lp_mmshare_version>
43012

> <i_f3d_flags>
0

> <s_epik_input>
TzFbQ0gyXVtDSDJdW0NIMl1bQ0BIXTFbQ0BIXShbQ0gzXSlbTkhdQyg9TylbQ0gyXW4yW25IXWMoPU8pW2NIXVtjSF1jMj1P

> <s_epik_cmdline>
J2VwaWtfcHl0aG9uJywgJy1waCcsICc3LjAnLCAnLXRuJywgJzgnLCAnLW1hJywgJzIwMCcsICctbWV0YWxfYmluZGluZycsICctaW1hZScsICc8aW5maWxlLm1hZT4nLCAnLW9tYWUnLCAnPG91dGZpbGUubWFlPic=

> <r_lp_tautomer_probability>
1

> <r_epik_Ionization_Penalty>
0.0975494

> <r_epik_Ionization_Penalty_Charging>
0.0975494

> <r_epik_Ionization_Penalty_Neutral>
2.30132e-08

> <r_epik_State_Penalty>
0.034345

> <r_epik_Charging_Adjusted_Penalty>
0.131894

> <i_epik_Tot_Q>
-1

> <i_epik_Tot_abs_Q>
1

> <r_epik_Metal_State_Penalty>
0.034345

> <b_epik_Metal_Only>
0

> <s_lp_Force_Field>
OPLS_2005

> <r_lp_Energy>
33.0818

> <b_lp_Chiralities_Consistent>
1

> <s_lp_Variant>
AV-unprocessed.smi:1208-2

> <Gold.Version>
5.8.1

> <Gold.Id.Protein>
6NUR|6NUR_protein|mol2

> <Gold.PLP.Fitness>
44.4752

> <Gold.PLP.PLP>
-30.4550

> <Gold.PLP.part.hbond>
-4.0000

> <Gold.PLP.part.metal>
0.0000

> <Gold.PLP.part.buried>
-1.4051

> <Gold.PLP.part.nonpolar>
-26.3194

> <Gold.PLP.part.repulsive>
0.1663

> <Gold.PLP.ligand.clash>
0.0000

> <Gold.PLP.ligand.torsion>
0.8171

> <Gold.PLP.Chemscore.Hbond>
5.2148

> <Gold.PLP.Chemscore.CHOScore>
0.0000

> <Gold.PLP.Chemscore.Metal>
0.0000

> <Gold.Chemscore.Hbonds>
donor molecule, donor type, donor heavy atom, donor atom, acceptor molecule, acceptor atom, score
      P1  H  6896  6907       L1     5  0.57
      P1  H  6896  6909       L1    14  0.39
      P1  H  6931  6943       L1     8  1.86
      P1  H  6934  6947       L1     8  1.86

> <Gold.PLP.Chemscore.Internal.Correction>
0.0101

> <Gold.Rescore>
     Score         DG    S(hbond)    S(metal)    S(lipo)     H(rot)  DE(clash)    DE(int)     intcor
     14.71     -15.65       2.61        0.00      55.90       1.99       0.04       0.89       ----

> <Gold.Chemscore.Fitness>
14.7129

> <Gold.Chemscore.DG>
-15.6478

> <Gold.Chemscore.ZeroCoef>
-5.4800

> <Gold.Chemscore.Hbond>
2.6145

> <Gold.Chemscore.Metal>
0.0000

> <Gold.Chemscore.Lipo>
55.8990

> <Gold.Chemscore.Internal_Hbond>
0.0000

> <Gold.Chemscore.DEClash>
0.0415

> <Gold.Chemscore.DEInternal>
0.8934

> <Gold.Chemscore.Rot>
1.9940

> <Gold.Chemscore.Internal.Correction>
   9.000000E+99

> <Gold.Chemscore.Hbonds>
donor molecule, donor type, donor heavy atom, donor atom, acceptor molecule, acceptor atom, score
      P1  H  6896  6907       L1     5  0.56
      P1  H  6896  6909       L1    14  0.30
      P1  H  6931  6943       L1     8  0.22
      P1  H  6934  6947       L1     8  0.80

> <Gold.Chemscore.Hbond.Weighted>
-8.7323

> <Gold.Chemscore.Metal.Weighted>
-0.0000

> <Gold.Chemscore.Lipo.Weighted>
-6.5402

> <Gold.Chemscore.Internal_Hbond.Weighted>
0.0000

> <Gold.Chemscore.DEClash.Weighted>
0.0415

> <Gold.Chemscore.DEInternal.Weighted>
0.8934

> <Gold.Chemscore.Rot.Weighted>
5.1047

> <Gold.Chemscore.Internal.Correction.Weighted>
   9.000000E+99

> <Gold.Protein.RotatedTorsions>
[ 6907 6896 6895 6894 ] final    8.97 input  -60.11 | X-H torsion
[ 7974 7965 7964 7962 ] final  -51.47 input  175.53 | X-H torsion
[ 8008 7997 7996 7995 ] final -153.69 input   59.86 | X-H torsion
[ 10167 10162 10161 10158 ] final  -13.70 input  -65.29 | X-H torsion
[ 10718 10713 10712 10709 ] final  149.39 input   66.30 | X-H torsion
[ 10763 10752 10751 10750 ] final  -36.60 input  -60.55 | X-H torsion
[ 11005 11000 10999 10996 ] final    1.15 input  -57.11 | X-H torsion

> <Gold.Protein.ActiveResidues>
 VAL166  LYS551  ARG553  GLY616  TRP617  ASP618  TYR619  PRO620  LYS621  CYS622 
 ASP623  PHE694  ASN695  SER759  ASP760  ASP761  ALA762  ILE779  LEU786  VAL792 
 PHE793  MET794  SER795  GLU796  ALA797  LYS798  CYS799  TRP800  GLU811  SER814 

> <Gold.Protein.RotatedAtoms>
  151.7147  135.0906  160.0273 H   0  0  0  0  0  0  0  0  0  0  0  0  # atno 6907 bound_to 6896
  152.3640  133.6328  159.6045 H   0  0  0  0  0  0  0  0  0  0  0  0  # atno 6908 bound_to 6896
  150.7624  133.9295  159.3464 H   0  0  0  0  0  0  0  0  0  0  0  0  # atno 6909 bound_to 6896
  145.9186  140.7853  142.9659 H   0  0  0  0  0  0  0  0  0  0  0  0  # atno 7974 bound_to 7965
  155.6747  140.0737  157.2507 H   0  0  0  0  0  0  0  0  0  0  0  0  # atno 8008 bound_to 7997
  154.4116  140.1692  156.1969 H   0  0  0  0  0  0  0  0  0  0  0  0  # atno 8009 bound_to 7997
  155.9586  140.3371  155.6474 H   0  0  0  0  0  0  0  0  0  0  0  0  # atno 8010 bound_to 7997
  140.7187  143.5399  150.9421 H   0  0  0  0  0  0  0  0  0  0  0  0  # atno 10167 bound_to 10162
  157.2966  131.0863  151.1421 H   0  0  0  0  0  0  0  0  0  0  0  0  # atno 10718 bound_to 10713
  153.8824  135.6820  153.4766 H   0  0  0  0  0  0  0  0  0  0  0  0  # atno 10763 bound_to 10752
  153.1226  135.4733  154.9218 H   0  0  0  0  0  0  0  0  0  0  0  0  # atno 10764 bound_to 10752
  154.7662  135.3225  154.8233 H   0  0  0  0  0  0  0  0  0  0  0  0  # atno 10765 bound_to 10752
  140.6186  133.9682  155.8213 H   0  0  0  0  0  0  0  0  0  0  0  0  # atno 11005 bound_to 11000
  144.6750  140.1940  143.7394 LP  0  0  0  0  0  0  0  0  0  0  0  0  # atno 17320 bound_to 7965
  145.8579  139.2208  143.1734 LP  0  0  0  0  0  0  0  0  0  0  0  0  # atno 17321 bound_to 7965
  139.9121  143.6707  152.3113 LP  0  0  0  0  0  0  0  0  0  0  0  0  # atno 17342 bound_to 10162
  139.7094  144.7622  151.1137 LP  0  0  0  0  0  0  0  0  0  0  0  0  # atno 17343 bound_to 10162
  157.2797  130.6744  149.6060 LP  0  0  0  0  0  0  0  0  0  0  0  0  # atno 17370 bound_to 10713
  155.9669  130.4453  150.5498 LP  0  0  0  0  0  0  0  0  0  0  0  0  # atno 17371 bound_to 10713
  141.0758  134.0137  157.3460 LP  0  0  0  0  0  0  0  0  0  0  0  0  # atno 17394 bound_to 11000
  139.9162  135.0197  156.7891 LP  0  0  0  0  0  0  0  0  0  0  0  0  # atno 17395 bound_to 11000

$$$$
