AV-unprocessed.smi:517|AV-procd|sdf|2788|dock9
  -GOLD-   2262023263D 1   1.00000     0.00000
 Structure written by MMmdl.
 35 36  0  0  0  0  0  0  0  0  1 V2000
  147.8252  141.6563  154.1162 C   0  0  0  0  0  0  0  0  0  0  0  0
  148.7557  140.4571  154.3106 C   0  0  0  0  0  0  0  0  0  0  0  0
  150.0170  140.9307  154.7476 O   0  0  0  0  0  0  0  0  0  0  0  0
  150.0862  141.1134  156.1521 C   0  0  0  0  0  0  0  0  0  0  0  0
  151.1330  142.1896  156.4744 C   0  0  0  0  0  0  0  0  0  0  0  0
  151.6196  142.0880  157.8433 N   0  0  0  0  0  0  0  0  0  0  0  0
  152.0558  140.9848  158.5044 C   0  0  0  0  0  0  0  0  0  0  0  0
  152.0814  139.6234  157.8643 C   0  0  2  0  0  0  0  0  0  0  0  0
  151.1504  138.6375  158.5829 C   0  0  0  0  0  0  0  0  0  0  0  0
  153.3793  139.0640  157.8400 O   0  0  0  0  0  0  0  0  0  0  0  0
  152.4286  141.1829  159.7712 N   0  0  0  0  0  0  0  0  0  0  0  0
  152.2386  142.5398  159.9391 C   0  0  0  0  0  0  0  0  0  0  0  0
  152.4627  143.3664  161.0633 C   0  0  0  0  0  0  0  0  0  0  0  0
  152.1949  144.7494  160.9972 C   0  0  0  0  0  0  0  0  0  0  0  0
  151.6987  145.3241  159.8093 C   0  0  0  0  0  0  0  0  0  0  0  0
  151.4646  144.5175  158.6791 C   0  0  0  0  0  0  0  0  0  0  0  0
  151.7346  143.1376  158.7501 C   0  0  0  0  0  0  0  0  0  0  0  0
  146.8430  141.3360  153.7685 H   0  0  0  0  0  0  0  0  0  0  0  0
  148.2315  142.3510  153.3808 H   0  0  0  0  0  0  0  0  0  0  0  0
  147.6888  142.2005  155.0510 H   0  0  0  0  0  0  0  0  0  0  0  0
  148.3328  139.7722  155.0469 H   0  0  0  0  0  0  0  0  0  0  0  0
  148.8635  139.9115  153.3721 H   0  0  0  0  0  0  0  0  0  0  0  0
  149.1116  141.4190  156.5353 H   0  0  0  0  0  0  0  0  0  0  0  0
  150.3489  140.1734  156.6398 H   0  0  0  0  0  0  0  0  0  0  0  0
  151.9824  142.0940  155.7972 H   0  0  0  0  0  0  0  0  0  0  0  0
  150.7255  143.1860  156.3054 H   0  0  0  0  0  0  0  0  0  0  0  0
  151.7740  139.7098  156.8227 H   0  0  0  0  0  0  0  0  0  0  0  0
  150.1217  138.9986  158.5828 H   0  0  0  0  0  0  0  0  0  0  0  0
  151.4507  138.4933  159.6215 H   0  0  0  0  0  0  0  0  0  0  0  0
  151.1568  137.6622  158.0953 H   0  0  0  0  0  0  0  0  0  0  0  0
  153.4947  138.5438  158.6204 H   0  0  0  0  0  0  0  0  0  0  0  0
  152.8430  142.9356  161.9776 H   0  0  0  0  0  0  0  0  0  0  0  0
  152.3721  145.3725  161.8615 H   0  0  0  0  0  0  0  0  0  0  0  0
  151.4983  146.3847  159.7656 H   0  0  0  0  0  0  0  0  0  0  0  0
  151.0875  144.9549  157.7667 H   0  0  0  0  0  0  0  0  0  0  0  0
  1  2  1  0  0  0  0
  1 18  1  0  0  0  0
  1 19  1  0  0  0  0
  1 20  1  0  0  0  0
  2  3  1  0  0  0  0
  2 21  1  0  0  0  0
  2 22  1  0  0  0  0
  3  4  1  0  0  0  0
  4  5  1  0  0  0  0
  4 23  1  0  0  0  0
  4 24  1  0  0  0  0
  5  6  1  0  0  0  0
  5 25  1  0  0  0  0
  5 26  1  0  0  0  0
  6 17  1  0  0  0  0
  6  7  1  0  0  0  0
  7  8  1  0  0  0  0
  7 11  2  0  0  0  0
  8  9  1  0  0  0  0
  8 10  1  0  0  0  0
  8 27  1  0  0  0  0
  9 28  1  0  0  0  0
  9 29  1  0  0  0  0
  9 30  1  0  0  0  0
 10 31  1  0  0  0  0
 11 12  1  0  0  0  0
 12 17  2  0  0  0  0
 12 13  1  0  0  0  0
 13 14  2  0  0  0  0
 13 32  1  0  0  0  0
 14 15  1  0  0  0  0
 14 33  1  0  0  0  0
 15 16  2  0  0  0  0
 15 34  1  0  0  0  0
 16 17  1  0  0  0  0
 16 35  1  0  0  0  0
M  END
> <s_m_source_file>
AV-unprocessed.smi

> <i_m_source_file_index>
517

> <i_lp_mmshare_version>
43012

> <i_f3d_flags>
0

> <s_epik_input>
W0NIM11bQ0gyXU9bQ0gyXVtDSDJdbihjKG4xKVtDQEhdKFtDSDNdKVtPSF0pYyhjMTIpW2NIXVtjSF1bY0hdW2NIXTI=

> <s_epik_cmdline>
J2VwaWtfcHl0aG9uJywgJy1waCcsICc3LjAnLCAnLXRuJywgJzgnLCAnLW1hJywgJzIwMCcsICctbWV0YWxfYmluZGluZycsICctaW1hZScsICc8aW5maWxlLm1hZT4nLCAnLW9tYWUnLCAnPG91dGZpbGUubWFlPic=

> <r_epik_Ionization_Penalty>
0.0517997

> <r_epik_Ionization_Penalty_Charging>
0

> <r_epik_Ionization_Penalty_Neutral>
0.0517997

> <r_epik_State_Penalty>
0.0443961

> <r_epik_Charging_Adjusted_Penalty>
0.0443961

> <i_epik_Tot_Q>
0

> <i_epik_Tot_abs_Q>
0

> <r_epik_Metal_State_Penalty>
4.60999e-05

> <b_epik_Metal_Only>
0

> <s_lp_Force_Field>
OPLS_2005

> <r_lp_Energy>
5.78947

> <b_lp_Chiralities_Consistent>
1

> <s_lp_Variant>
AV-unprocessed.smi:517-1

> <Gold.Version>
5.8.1

> <Gold.Id.Protein>
6NUR|6NUR_protein|mol2

> <Gold.PLP.Fitness>
44.8657

> <Gold.PLP.PLP>
-40.8915

> <Gold.PLP.part.hbond>
-2.0000

> <Gold.PLP.part.metal>
0.0000

> <Gold.PLP.part.buried>
-6.0108

> <Gold.PLP.part.nonpolar>
-32.6994

> <Gold.PLP.part.repulsive>
0.1197

> <Gold.PLP.ligand.clash>
0.0000

> <Gold.PLP.ligand.torsion>
0.5351

> <Gold.PLP.Chemscore.Hbond>
1.6720

> <Gold.PLP.Chemscore.CHOScore>
0.0000

> <Gold.PLP.Chemscore.Metal>
0.0000

> <Gold.Chemscore.Hbonds>
donor molecule, donor type, donor heavy atom, donor atom, acceptor molecule, acceptor atom, score
      P1  H  7989  7998       L1     3  0.69
      P1  H  7997  8009       L1    10  1.00

> <Gold.PLP.Chemscore.Internal.Correction>
0.0283

> <Gold.Rescore>
     Score         DG    S(hbond)    S(metal)    S(lipo)     H(rot)  DE(clash)    DE(int)     intcor
     17.86     -18.38       1.68        0.00     108.39       2.11       0.02       0.50       ----

> <Gold.Chemscore.Fitness>
17.8552

> <Gold.Chemscore.DG>
-18.3832

> <Gold.Chemscore.ZeroCoef>
-5.4800

> <Gold.Chemscore.Hbond>
1.6801

> <Gold.Chemscore.Metal>
0.0000

> <Gold.Chemscore.Lipo>
108.3858

> <Gold.Chemscore.Internal_Hbond>
0.0000

> <Gold.Chemscore.DEClash>
0.0249

> <Gold.Chemscore.DEInternal>
0.5030

> <Gold.Chemscore.Rot>
2.1052

> <Gold.Chemscore.Internal.Correction>
   9.000000E+99

> <Gold.Chemscore.Hbonds>
donor molecule, donor type, donor heavy atom, donor atom, acceptor molecule, acceptor atom, score
      P1  H  7989  7998       L1     3  0.64
      P1  H  7997  8009       L1    10  0.93

> <Gold.Chemscore.Hbond.Weighted>
-5.6115

> <Gold.Chemscore.Metal.Weighted>
-0.0000

> <Gold.Chemscore.Lipo.Weighted>
-12.6811

> <Gold.Chemscore.Internal_Hbond.Weighted>
0.0000

> <Gold.Chemscore.DEClash.Weighted>
0.0249

> <Gold.Chemscore.DEInternal.Weighted>
0.5030

> <Gold.Chemscore.Rot.Weighted>
5.3894

> <Gold.Chemscore.Internal.Correction.Weighted>
   9.000000E+99

> <Gold.Protein.RotatedTorsions>
[ 6907 6896 6895 6894 ] final   53.26 input  -60.11 | X-H torsion
[ 7974 7965 7964 7962 ] final  138.01 input  175.53 | X-H torsion
[ 8008 7997 7996 7995 ] final  152.13 input   59.86 | X-H torsion
[ 10167 10162 10161 10158 ] final   66.42 input  -65.29 | X-H torsion
[ 10718 10713 10712 10709 ] final -110.98 input   66.30 | X-H torsion
[ 10763 10752 10751 10750 ] final  -27.04 input  -60.55 | X-H torsion
[ 11005 11000 10999 10996 ] final -127.44 input  -57.11 | X-H torsion

> <Gold.Protein.ActiveResidues>
 VAL166  LYS551  ARG553  GLY616  TRP617  ASP618  TYR619  PRO620  LYS621  CYS622 
 ASP623  PHE694  ASN695  SER759  ASP760  ASP761  ALA762  ILE779  LEU786  VAL792 
 PHE793  MET794  SER795  GLU796  ALA797  LYS798  CYS799  TRP800  GLU811  SER814 

> <Gold.Protein.RotatedAtoms>
  152.3319  134.7248  160.0286 H   0  0  0  0  0  0  0  0  0  0  0  0  # atno 6907 bound_to 6896
  151.7662  133.3332  159.3439 H   0  0  0  0  0  0  0  0  0  0  0  0  # atno 6908 bound_to 6896
  150.7428  134.5992  159.6072 H   0  0  0  0  0  0  0  0  0  0  0  0  # atno 6909 bound_to 6896
  144.9413  139.4927  143.5570 H   0  0  0  0  0  0  0  0  0  0  0  0  # atno 7974 bound_to 7965
  156.2643  140.2029  156.6285 H   0  0  0  0  0  0  0  0  0  0  0  0  # atno 8008 bound_to 7997
  154.6701  140.0551  157.0181 H   0  0  0  0  0  0  0  0  0  0  0  0  # atno 8009 bound_to 7997
  155.1149  140.3219  155.4515 H   0  0  0  0  0  0  0  0  0  0  0  0  # atno 8010 bound_to 7997
  140.1006  144.4907  150.7040 H   0  0  0  0  0  0  0  0  0  0  0  0  # atno 10167 bound_to 10162
  156.0621  130.5843  150.8311 H   0  0  0  0  0  0  0  0  0  0  0  0  # atno 10718 bound_to 10713
  153.7256  135.6942  153.5002 H   0  0  0  0  0  0  0  0  0  0  0  0  # atno 10763 bound_to 10752
  153.2172  135.4382  155.0447 H   0  0  0  0  0  0  0  0  0  0  0  0  # atno 10764 bound_to 10752
  154.8270  135.3451  154.6788 H   0  0  0  0  0  0  0  0  0  0  0  0  # atno 10765 bound_to 10752
  140.9599  134.0950  157.3978 H   0  0  0  0  0  0  0  0  0  0  0  0  # atno 11005 bound_to 11000
  146.3287  139.8434  142.8886 LP  0  0  0  0  0  0  0  0  0  0  0  0  # atno 17320 bound_to 7965
  145.2986  141.0188  143.3621 LP  0  0  0  0  0  0  0  0  0  0  0  0  # atno 17321 bound_to 7965
  140.6980  143.2416  151.4946 LP  0  0  0  0  0  0  0  0  0  0  0  0  # atno 17342 bound_to 10162
  139.5673  144.2011  152.1785 LP  0  0  0  0  0  0  0  0  0  0  0  0  # atno 17343 bound_to 10162
  157.5637  131.0946  150.9521 LP  0  0  0  0  0  0  0  0  0  0  0  0  # atno 17370 bound_to 10713
  156.9753  130.5506  149.5293 LP  0  0  0  0  0  0  0  0  0  0  0  0  # atno 17371 bound_to 10713
  139.8875  135.0090  156.6562 LP  0  0  0  0  0  0  0  0  0  0  0  0  # atno 17394 bound_to 11000
  140.7482  133.8920  155.8327 LP  0  0  0  0  0  0  0  0  0  0  0  0  # atno 17395 bound_to 11000

$$$$
