AV-unprocessed.smi:350|AV-procd|sdf|2398|dock8
  -GOLD-   2262022333D 1   1.00000     0.00000
 Structure written by MMmdl.
 35 36  0  0  0  0  0  0  0  0  1 V2000
  152.2025  144.0305  161.6416 C   0  0  0  0  0  0  0  0  0  0  0  0
  153.0601  142.7946  161.6799 C   0  0  0  0  0  0  0  0  0  0  0  0
  153.6405  142.5248  162.8028 N   0  0  0  0  0  0  0  0  0  0  0  0
  154.4507  141.4147  162.9461 N   0  0  0  0  0  0  0  0  0  0  0  0
  155.0429  141.2761  164.2830 C   0  0  0  0  0  0  0  0  0  0  0  0
  155.0683  142.6171  165.0489 C   0  0  2  0  0  0  0  0  0  0  0  0
  156.1137  143.4215  164.5396 O   0  0  0  0  0  0  0  0  0  0  0  0
  155.2337  142.3887  166.5439 C   0  0  0  0  0  0  0  0  0  0  0  0
  155.3821  141.0776  167.0454 C   0  0  0  0  0  0  0  0  0  0  0  0
  155.5405  140.8596  168.4281 C   0  0  0  0  0  0  0  0  0  0  0  0
  155.5539  141.9517  169.3174 C   0  0  0  0  0  0  0  0  0  0  0  0
  155.7477  141.6843  171.0108 Cl  0  0  0  0  0  0  0  0  0  0  0  0
  155.4103  143.2623  168.8227 C   0  0  0  0  0  0  0  0  0  0  0  0
  155.2519  143.4804  167.4403 C   0  0  0  0  0  0  0  0  0  0  0  0
  154.7144  140.5134  161.9573 C   0  0  0  0  0  0  0  0  0  0  0  0
  155.4420  139.5340  162.1272 O   0  0  0  0  0  0  0  0  0  0  0  0
  154.0542  140.8258  160.6876 C   0  0  0  0  0  0  0  0  0  0  0  0
  154.3060  139.9083  159.6234 C   0  0  0  0  0  0  0  0  0  0  0  0
  154.4939  139.1522  158.7672 N   0  0  0  0  0  0  0  0  0  0  0  0
  153.2590  141.9139  160.5336 C   0  0  0  0  0  0  0  0  0  0  0  0
  152.5518  142.2830  159.2365 C   0  0  0  0  0  0  0  0  0  0  0  0
  151.1835  143.7867  161.3401 H   0  0  0  0  0  0  0  0  0  0  0  0
  152.6015  144.7551  160.9319 H   0  0  0  0  0  0  0  0  0  0  0  0
  152.1479  144.5186  162.6161 H   0  0  0  0  0  0  0  0  0  0  0  0
  154.4252  140.5660  164.8368 H   0  0  0  0  0  0  0  0  0  0  0  0
  156.0339  140.8189  164.2562 H   0  0  0  0  0  0  0  0  0  0  0  0
  154.1317  143.1523  164.8862 H   0  0  0  0  0  0  0  0  0  0  0  0
  156.7371  143.5771  165.2325 H   0  0  0  0  0  0  0  0  0  0  0  0
  155.3758  140.2331  166.3720 H   0  0  0  0  0  0  0  0  0  0  0  0
  155.6523  139.8535  168.8049 H   0  0  0  0  0  0  0  0  0  0  0  0
  155.4219  144.1020  169.5018 H   0  0  0  0  0  0  0  0  0  0  0  0
  155.1455  144.4897  167.0698 H   0  0  0  0  0  0  0  0  0  0  0  0
  152.7831  141.5899  158.4281 H   0  0  0  0  0  0  0  0  0  0  0  0
  152.8497  143.2790  158.9070 H   0  0  0  0  0  0  0  0  0  0  0  0
  151.4702  142.2753  159.3754 H   0  0  0  0  0  0  0  0  0  0  0  0
  1  2  1  0  0  0  0
  1 22  1  0  0  0  0
  1 23  1  0  0  0  0
  1 24  1  0  0  0  0
  2 20  1  0  0  0  0
  2  3  2  0  0  0  0
  3  4  1  0  0  0  0
  4  5  1  0  0  0  0
  4 15  1  0  0  0  0
  5  6  1  0  0  0  0
  5 25  1  0  0  0  0
  5 26  1  0  0  0  0
  6  7  1  0  0  0  0
  6  8  1  0  0  0  0
  6 27  1  0  0  0  0
  7 28  1  0  0  0  0
  8 14  1  0  0  0  0
  8  9  2  0  0  0  0
  9 10  1  0  0  0  0
  9 29  1  0  0  0  0
 10 11  2  0  0  0  0
 10 30  1  0  0  0  0
 11 12  1  0  0  0  0
 11 13  1  0  0  0  0
 13 14  2  0  0  0  0
 13 31  1  0  0  0  0
 14 32  1  0  0  0  0
 15 16  2  0  0  0  0
 15 17  1  0  0  0  0
 17 18  1  0  0  0  0
 17 20  2  0  0  0  0
 18 19  3  0  0  0  0
 20 21  1  0  0  0  0
 21 33  1  0  0  0  0
 21 34  1  0  0  0  0
 21 35  1  0  0  0  0
M  END
> <s_m_source_file>
AV-unprocessed.smi

> <i_m_source_file_index>
350

> <i_lp_mmshare_version>
43012

> <i_f3d_flags>
0

> <s_epik_input>
TiNDYyhjMVtDSDNdKWMoPU8pbihuYzFbQ0gzXSlbQ0gyXVtDQEhdKFtPSF0pYzJbY0hdW2NIXWMoQ2wpW2NIXVtjSF0y

> <s_epik_cmdline>
J2VwaWtfcHl0aG9uJywgJy1waCcsICc3LjAnLCAnLXRuJywgJzgnLCAnLW1hJywgJzIwMCcsICctbWV0YWxfYmluZGluZycsICctaW1hZScsICc8aW5maWxlLm1hZT4nLCAnLW9tYWUnLCAnPG91dGZpbGUubWFlPic=

> <r_lp_tautomer_probability>
1

> <r_epik_Ionization_Penalty>
1.17315e-07

> <r_epik_Ionization_Penalty_Charging>
1.40848e-10

> <r_epik_Ionization_Penalty_Neutral>
1.17174e-07

> <r_epik_State_Penalty>
-0

> <r_epik_Charging_Adjusted_Penalty>
1.40848e-10

> <i_epik_Tot_Q>
0

> <i_epik_Tot_abs_Q>
0

> <r_epik_Metal_State_Penalty>
-0

> <b_epik_Metal_Only>
0

> <s_lp_Force_Field>
OPLS_2005

> <r_lp_Energy>
28.0073

> <b_lp_Chiralities_Consistent>
1

> <s_lp_Variant>
AV-unprocessed.smi:350-1

> <Gold.Version>
5.8.1

> <Gold.Id.Protein>
6NUR|6NUR_protein|mol2

> <Gold.PLP.Fitness>
48.4269

> <Gold.PLP.PLP>
-46.3401

> <Gold.PLP.part.hbond>
-2.3044

> <Gold.PLP.part.metal>
0.0000

> <Gold.PLP.part.buried>
-0.3280

> <Gold.PLP.part.nonpolar>
-41.4209

> <Gold.PLP.part.repulsive>
0.0536

> <Gold.PLP.ligand.clash>
0.0000

> <Gold.PLP.ligand.torsion>
0.4598

> <Gold.PLP.Chemscore.Hbond>
1.0000

> <Gold.PLP.Chemscore.CHOScore>
0.0000

> <Gold.PLP.Chemscore.Metal>
0.0000

> <Gold.Chemscore.Hbonds>
donor molecule, donor type, donor heavy atom, donor atom, acceptor molecule, acceptor atom, score
      P1  H  7997  8009       L1    19  1.00

> <Gold.PLP.Chemscore.Internal.Correction>
0.0063

> <Gold.Rescore>
     Score         DG    S(hbond)    S(metal)    S(lipo)     H(rot)  DE(clash)    DE(int)     intcor
     14.24     -18.47       0.92        0.00     126.54       1.90       3.96       0.28       ----

> <Gold.Chemscore.Fitness>
14.2406

> <Gold.Chemscore.DG>
-18.4740

> <Gold.Chemscore.ZeroCoef>
-5.4800

> <Gold.Chemscore.Hbond>
0.9176

> <Gold.Chemscore.Metal>
0.0000

> <Gold.Chemscore.Lipo>
126.5410

> <Gold.Chemscore.Internal_Hbond>
0.0000

> <Gold.Chemscore.DEClash>
3.9568

> <Gold.Chemscore.DEInternal>
0.2766

> <Gold.Chemscore.Rot>
1.9047

> <Gold.Chemscore.Internal.Correction>
   9.000000E+99

> <Gold.Chemscore.Hbonds>
donor molecule, donor type, donor heavy atom, donor atom, acceptor molecule, acceptor atom, score
      P1  H  7997  8009       L1    19  0.78

> <Gold.Chemscore.Hbond.Weighted>
-3.0648

> <Gold.Chemscore.Metal.Weighted>
-0.0000

> <Gold.Chemscore.Lipo.Weighted>
-14.8053

> <Gold.Chemscore.Internal_Hbond.Weighted>
0.0000

> <Gold.Chemscore.DEClash.Weighted>
3.9568

> <Gold.Chemscore.DEInternal.Weighted>
0.2766

> <Gold.Chemscore.Rot.Weighted>
4.8760

> <Gold.Chemscore.Internal.Correction.Weighted>
   9.000000E+99

> <Gold.Protein.RotatedTorsions>
[ 6907 6896 6895 6894 ] final -131.22 input  -60.11 | X-H torsion
[ 7974 7965 7964 7962 ] final -103.71 input  175.53 | X-H torsion
[ 8008 7997 7996 7995 ] final  134.16 input   59.86 | X-H torsion
[ 10167 10162 10161 10158 ] final -119.01 input  -65.29 | X-H torsion
[ 10718 10713 10712 10709 ] final  -10.74 input   66.30 | X-H torsion
[ 10763 10752 10751 10750 ] final   28.05 input  -60.55 | X-H torsion
[ 11005 11000 10999 10996 ] final  -78.61 input  -57.11 | X-H torsion

> <Gold.Protein.ActiveResidues>
 VAL166  LYS551  ARG553  GLY616  TRP617  ASP618  TYR619  PRO620  LYS621  CYS622 
 ASP623  PHE694  ASN695  SER759  ASP760  ASP761  ALA762  ILE779  LEU786  VAL792 
 PHE793  MET794  SER795  GLU796  ALA797  LYS798  CYS799  TRP800  GLU811  SER814 

> <Gold.Protein.RotatedAtoms>
  150.9486  133.6575  159.2776 H   0  0  0  0  0  0  0  0  0  0  0  0  # atno 6907 bound_to 6896
  151.3939  135.0959  159.9544 H   0  0  0  0  0  0  0  0  0  0  0  0  # atno 6908 bound_to 6896
  152.5100  133.8994  159.7488 H   0  0  0  0  0  0  0  0  0  0  0  0  # atno 6909 bound_to 6896
  145.2524  140.9242  143.3087 H   0  0  0  0  0  0  0  0  0  0  0  0  # atno 7974 bound_to 7965
  156.2997  140.2503  156.3371 H   0  0  0  0  0  0  0  0  0  0  0  0  # atno 8008 bound_to 7997
  154.9090  140.0404  157.1955 H   0  0  0  0  0  0  0  0  0  0  0  0  # atno 8009 bound_to 7997
  154.8424  140.2893  155.5655 H   0  0  0  0  0  0  0  0  0  0  0  0  # atno 8010 bound_to 7997
  140.0513  143.5057  152.2080 H   0  0  0  0  0  0  0  0  0  0  0  0  # atno 10167 bound_to 10162
  156.6691  130.5004  149.6006 H   0  0  0  0  0  0  0  0  0  0  0  0  # atno 10718 bound_to 10713
  153.0516  135.6522  154.0680 H   0  0  0  0  0  0  0  0  0  0  0  0  # atno 10763 bound_to 10752
  154.0367  135.2907  155.3362 H   0  0  0  0  0  0  0  0  0  0  0  0  # atno 10764 bound_to 10752
  154.6808  135.5321  153.8327 H   0  0  0  0  0  0  0  0  0  0  0  0  # atno 10765 bound_to 10752
  141.1665  133.7070  156.7997 H   0  0  0  0  0  0  0  0  0  0  0  0  # atno 11005 bound_to 11000
  144.9491  139.4103  143.6411 LP  0  0  0  0  0  0  0  0  0  0  0  0  # atno 17320 bound_to 7965
  146.3299  139.8489  142.8876 LP  0  0  0  0  0  0  0  0  0  0  0  0  # atno 17321 bound_to 7965
  139.5951  144.7564  151.3305 LP  0  0  0  0  0  0  0  0  0  0  0  0  # atno 17342 bound_to 10162
  140.7215  143.7122  150.7761 LP  0  0  0  0  0  0  0  0  0  0  0  0  # atno 17343 bound_to 10162
  156.1952  130.6585  151.1106 LP  0  0  0  0  0  0  0  0  0  0  0  0  # atno 17370 bound_to 10713
  157.7083  131.0746  150.6590 LP  0  0  0  0  0  0  0  0  0  0  0  0  # atno 17371 bound_to 10713
  140.2265  134.8718  157.3432 LP  0  0  0  0  0  0  0  0  0  0  0  0  # atno 17394 bound_to 11000
  140.1934  134.4343  155.7703 LP  0  0  0  0  0  0  0  0  0  0  0  0  # atno 17395 bound_to 11000

$$$$
