AV-unprocessed.smi:1033|AV-procd|sdf|4501|dock1
  -GOLD-   22720 2493D 1   1.00000     0.00000
 Structure written by MMmdl.
 57 59  0  0  0  0  0  0  0  0  3 V2000
  152.3738  143.7894  160.9817 C   0  0  0  0  0  0  0  0  0  0  0  0
  152.1012  142.9693  159.7321 C   0  0  0  0  0  0  0  0  0  0  0  0
  151.1945  143.4794  158.7755 C   0  0  0  0  0  0  0  0  0  0  0  0
  150.9669  142.7071  157.6426 C   0  0  0  0  0  0  0  0  0  0  0  0
  150.1417  142.9239  156.5370 N   0  3  0  0  0  0  0  0  0  0  0  0
  150.2501  141.8745  155.6758 C   0  0  0  0  0  0  0  0  0  0  0  0
  151.1427  140.9963  156.2101 N   0  0  0  0  0  0  0  0  0  0  0  0
  151.6217  139.7050  155.7004 C   0  0  0  0  0  0  0  0  0  0  0  0
  150.5284  138.8892  154.9794 C   0  0  1  0  0  0  0  0  0  0  0  0
  150.2399  139.5586  153.7687 O   0  0  0  0  0  0  0  0  0  0  0  0
  150.9560  137.4375  154.6679 C   0  0  0  0  0  0  0  0  0  0  0  0
  149.8228  136.4776  154.6972 N   0  3  0  0  0  0  0  0  0  0  0  0
  148.6856  136.9233  155.5473 C   0  0  0  0  0  0  0  0  0  0  0  0
  147.5368  135.8956  155.4880 C   0  0  0  0  0  0  0  0  0  0  0  0
  147.9447  134.5438  155.8797 N   0  0  0  0  0  0  0  0  0  0  0  0
  148.2302  134.3789  157.3099 C   0  0  0  0  0  0  0  0  0  0  0  0
  148.7005  132.9738  157.7352 C   0  0  1  0  0  0  0  0  0  0  0  0
  148.1591  131.8597  156.8278 C   0  0  0  0  0  0  0  0  0  0  0  0
  150.1104  132.9454  157.6716 O   0  0  0  0  0  0  0  0  0  0  0  0
  149.0609  134.1325  155.0294 C   0  0  0  0  0  0  0  0  0  0  0  0
  150.2548  135.1077  155.0778 C   0  0  0  0  0  0  0  0  0  0  0  0
  151.6066  141.4686  157.4424 C   0  0  0  0  0  0  0  0  0  0  0  0
  152.4987  140.9486  158.3770 C   0  0  0  0  0  0  0  0  0  0  0  0
  152.7435  141.7190  159.5362 C   0  0  0  0  0  0  0  0  0  0  0  0
  153.7126  141.1784  160.5738 C   0  0  0  0  0  0  0  0  0  0  0  0
  151.8326  144.7361  160.9639 H   0  0  0  0  0  0  0  0  0  0  0  0
  153.4367  144.0162  161.0677 H   0  0  0  0  0  0  0  0  0  0  0  0
  152.0620  143.2440  161.8727 H   0  0  0  0  0  0  0  0  0  0  0  0
  150.6986  144.4281  158.9210 H   0  0  0  0  0  0  0  0  0  0  0  0
  149.7255  141.7622  154.7376 H   0  0  0  0  0  0  0  0  0  0  0  0
  152.4690  139.8941  155.0394 H   0  0  0  0  0  0  0  0  0  0  0  0
  152.0126  139.1448  156.5514 H   0  0  0  0  0  0  0  0  0  0  0  0
  149.6272  138.9006  155.5905 H   0  0  0  0  0  0  0  0  0  0  0  0
  149.4279  140.0326  153.8625 H   0  0  0  0  0  0  0  0  0  0  0  0
  151.4254  137.4217  153.6829 H   0  0  0  0  0  0  0  0  0  0  0  0
  151.7170  137.0941  155.3695 H   0  0  0  0  0  0  0  0  0  0  0  0
  149.0204  137.0720  156.5747 H   0  0  0  0  0  0  0  0  0  0  0  0
  148.3112  137.8860  155.2016 H   0  0  0  0  0  0  0  0  0  0  0  0
  146.7002  136.2360  156.0966 H   0  0  0  0  0  0  0  0  0  0  0  0
  147.1527  135.8634  154.4674 H   0  0  0  0  0  0  0  0  0  0  0  0
  149.0061  135.0900  157.5973 H   0  0  0  0  0  0  0  0  0  0  0  0
  147.3547  134.6509  157.8987 H   0  0  0  0  0  0  0  0  0  0  0  0
  148.4264  132.7710  158.7697 H   0  0  0  0  0  0  0  0  0  0  0  0
  147.0704  131.8166  156.8658 H   0  0  0  0  0  0  0  0  0  0  0  0
  148.5354  130.8839  157.1360 H   0  0  0  0  0  0  0  0  0  0  0  0
  148.4489  132.0156  155.7882 H   0  0  0  0  0  0  0  0  0  0  0  0
  150.3839  132.0793  157.4098 H   0  0  0  0  0  0  0  0  0  0  0  0
  149.3891  133.1304  155.3075 H   0  0  0  0  0  0  0  0  0  0  0  0
  148.7115  134.0532  153.9990 H   0  0  0  0  0  0  0  0  0  0  0  0
  151.0251  134.7633  154.3865 H   0  0  0  0  0  0  0  0  0  0  0  0
  150.7078  135.1218  156.0699 H   0  0  0  0  0  0  0  0  0  0  0  0
  152.9845  139.9953  158.2296 H   0  0  0  0  0  0  0  0  0  0  0  0
  154.0918  140.1953  160.2929 H   0  0  0  0  0  0  0  0  0  0  0  0
  153.2218  141.0804  161.5424 H   0  0  0  0  0  0  0  0  0  0  0  0
  154.5675  141.8462  160.6834 H   0  0  0  0  0  0  0  0  0  0  0  0
  149.4765  136.4061  153.7512 H   0  0  0  0  0  0  0  0  0  0  0  0
  149.5431  143.7255  156.3824 H   0  0  0  0  0  0  0  0  0  0  0  0
  1  2  1  0  0  0  0
  1 26  1  0  0  0  0
  1 27  1  0  0  0  0
  1 28  1  0  0  0  0
  2 24  1  0  0  0  0
  2  3  2  0  0  0  0
  3  4  1  0  0  0  0
  3 29  1  0  0  0  0
  4 22  2  0  0  0  0
  4  5  1  0  0  0  0
  5  6  2  0  0  0  0
  5 57  1  0  0  0  0
  6  7  1  0  0  0  0
  6 30  1  0  0  0  0
  7  8  1  0  0  0  0
  7 22  1  0  0  0  0
  8  9  1  0  0  0  0
  8 31  1  0  0  0  0
  8 32  1  0  0  0  0
  9 10  1  0  0  0  0
  9 11  1  0  0  0  0
  9 33  1  0  0  0  0
 10 34  1  0  0  0  0
 11 12  1  0  0  0  0
 11 35  1  0  0  0  0
 11 36  1  0  0  0  0
 12 21  1  0  0  0  0
 12 13  1  0  0  0  0
 12 56  1  0  0  0  0
 13 14  1  0  0  0  0
 13 37  1  0  0  0  0
 13 38  1  0  0  0  0
 14 15  1  0  0  0  0
 14 39  1  0  0  0  0
 14 40  1  0  0  0  0
 15 16  1  0  0  0  0
 15 20  1  0  0  0  0
 16 17  1  0  0  0  0
 16 41  1  0  0  0  0
 16 42  1  0  0  0  0
 17 18  1  0  0  0  0
 17 19  1  0  0  0  0
 17 43  1  0  0  0  0
 18 44  1  0  0  0  0
 18 45  1  0  0  0  0
 18 46  1  0  0  0  0
 19 47  1  0  0  0  0
 20 21  1  0  0  0  0
 20 48  1  0  0  0  0
 20 49  1  0  0  0  0
 21 50  1  0  0  0  0
 21 51  1  0  0  0  0
 22 23  1  0  0  0  0
 23 24  2  0  0  0  0
 23 52  1  0  0  0  0
 24 25  1  0  0  0  0
 25 53  1  0  0  0  0
 25 54  1  0  0  0  0
 25 55  1  0  0  0  0
M  CHG  1   5   1
M  CHG  1  12   1
M  END
> <s_m_source_file>
AV-unprocessed.smi

> <i_m_source_file_index>
1033

> <i_lp_mmshare_version>
43012

> <i_f3d_flags>
0

> <s_epik_input>
W0NIM11jKFtjSF0xKWMoW0NIM10pW2NIXWMoYzEyKW4oW2NIXW4yKVtDSDJdW0NASF0oW09IXSlbQ0gyXU4zW0NIMl1bQ0gyXU4oW0NIMl1bQ0gyXTMpW0NIMl1bQ0BIXShbQ0gzXSlbT0hd

> <s_epik_cmdline>
J2VwaWtfcHl0aG9uJywgJy1waCcsICc3LjAnLCAnLXRuJywgJzgnLCAnLW1hJywgJzIwMCcsICctbWV0YWxfYmluZGluZycsICctaW1hZScsICc8aW5maWxlLm1hZT4nLCAnLW9tYWUnLCAnPG91dGZpbGUubWFlPic=

> <r_epik_Ionization_Penalty>
1.22049

> <r_epik_Ionization_Penalty_Charging>
1.17952

> <r_epik_Ionization_Penalty_Neutral>
0.0409743

> <r_epik_State_Penalty>
1.61468

> <r_epik_Charging_Adjusted_Penalty>
2.7942

> <i_epik_Tot_Q>
2

> <i_epik_Tot_abs_Q>
2

> <r_epik_Metal_State_Penalty>
5.63169

> <b_epik_Metal_Only>
0

> <s_lp_Force_Field>
OPLS_2005

> <r_lp_Energy>
46.1755

> <b_lp_Chiralities_Consistent>
1

> <s_lp_Variant>
AV-unprocessed.smi:1033-12

> <Gold.Version>
5.8.1

> <Gold.Id.Protein>
6NUR|6NUR_protein|mol2

> <Gold.PLP.Fitness>
60.6812

> <Gold.PLP.PLP>
-45.7138

> <Gold.PLP.part.hbond>
-4.8115

> <Gold.PLP.part.metal>
0.0000

> <Gold.PLP.part.buried>
-5.6236

> <Gold.PLP.part.nonpolar>
-36.2088

> <Gold.PLP.part.repulsive>
0.1223

> <Gold.PLP.ligand.clash>
0.0000

> <Gold.PLP.ligand.torsion>
1.6155

> <Gold.PLP.Chemscore.Hbond>
5.9760

> <Gold.PLP.Chemscore.CHOScore>
0.0000

> <Gold.PLP.Chemscore.Metal>
0.0000

> <Gold.Chemscore.Hbonds>
donor molecule, donor type, donor heavy atom, donor atom, acceptor molecule, acceptor atom, score
      L1  H     5    57       P1  8028  1.30
      L1  H    12    56       P1  7948  2.00
      P1  H  6896  6909       L1    19  0.94
      P1  H  7989  7998       L1    10  0.94

> <Gold.PLP.Chemscore.Internal.Correction>
0.2704

> <Gold.Rescore>
     Score         DG    S(hbond)    S(metal)    S(lipo)     H(rot)  DE(clash)    DE(int)     intcor
     18.61     -21.48       3.13        0.00     116.12       3.15       0.01       2.86       ----

> <Gold.Chemscore.Fitness>
18.6121

> <Gold.Chemscore.DG>
-21.4761

> <Gold.Chemscore.ZeroCoef>
-5.4800

> <Gold.Chemscore.Hbond>
3.1348

> <Gold.Chemscore.Metal>
0.0000

> <Gold.Chemscore.Lipo>
116.1154

> <Gold.Chemscore.Internal_Hbond>
0.0000

> <Gold.Chemscore.DEClash>
0.0077

> <Gold.Chemscore.DEInternal>
2.8563

> <Gold.Chemscore.Rot>
3.1483

> <Gold.Chemscore.Internal.Correction>
   9.000000E+99

> <Gold.Chemscore.Hbonds>
donor molecule, donor type, donor heavy atom, donor atom, acceptor molecule, acceptor atom, score
      L1  H     5    57       P1  8028  0.64
      L1  H    12    56       P1  7948  0.78
      P1  H  6896  6909       L1    19  0.44
      P1  H  7989  7998       L1    10  0.36

> <Gold.Chemscore.Hbond.Weighted>
-10.4703

> <Gold.Chemscore.Metal.Weighted>
-0.0000

> <Gold.Chemscore.Lipo.Weighted>
-13.5855

> <Gold.Chemscore.Internal_Hbond.Weighted>
0.0000

> <Gold.Chemscore.DEClash.Weighted>
0.0077

> <Gold.Chemscore.DEInternal.Weighted>
2.8563

> <Gold.Chemscore.Rot.Weighted>
8.0597

> <Gold.Chemscore.Internal.Correction.Weighted>
   9.000000E+99

> <Gold.Protein.RotatedTorsions>
[ 6907 6896 6895 6894 ] final  -36.97 input  -60.11 | X-H torsion
[ 7974 7965 7964 7962 ] final -100.49 input  175.53 | X-H torsion
[ 8008 7997 7996 7995 ] final  -19.60 input   59.86 | X-H torsion
[ 10167 10162 10161 10158 ] final   58.47 input  -65.29 | X-H torsion
[ 10718 10713 10712 10709 ] final  -93.49 input   66.30 | X-H torsion
[ 10763 10752 10751 10750 ] final    9.83 input  -60.55 | X-H torsion
[ 11005 11000 10999 10996 ] final   87.19 input  -57.11 | X-H torsion

> <Gold.Protein.ActiveResidues>
 VAL166  LYS551  ARG553  GLY616  TRP617  ASP618  TYR619  PRO620  LYS621  CYS622 
 ASP623  PHE694  ASN695  SER759  ASP760  ASP761  ALA762  ILE779  LEU786  VAL792 
 PHE793  MET794  SER795  GLU796  ALA797  LYS798  CYS799  TRP800  GLU811  SER814 

> <Gold.Protein.RotatedAtoms>
  151.0205  134.9465  159.8056 H   0  0  0  0  0  0  0  0  0  0  0  0  # atno 6907 bound_to 6896
  152.5324  134.2910  159.9053 H   0  0  0  0  0  0  0  0  0  0  0  0  # atno 6908 bound_to 6896
  151.2917  133.4120  159.2667 H   0  0  0  0  0  0  0  0  0  0  0  0  # atno 6909 bound_to 6896
  145.2939  140.9360  143.2862 H   0  0  0  0  0  0  0  0  0  0  0  0  # atno 7974 bound_to 7965
  154.4826  140.2084  155.9729 H   0  0  0  0  0  0  0  0  0  0  0  0  # atno 8008 bound_to 7997
  156.1188  140.3217  155.8147 H   0  0  0  0  0  0  0  0  0  0  0  0  # atno 8009 bound_to 7997
  155.4505  140.0516  157.2992 H   0  0  0  0  0  0  0  0  0  0  0  0  # atno 8010 bound_to 7997
  140.1868  144.4126  150.6589 H   0  0  0  0  0  0  0  0  0  0  0  0  # atno 10167 bound_to 10162
  156.0014  130.5029  150.5784 H   0  0  0  0  0  0  0  0  0  0  0  0  # atno 10718 bound_to 10713
  153.2098  135.6867  153.8128 H   0  0  0  0  0  0  0  0  0  0  0  0  # atno 10763 bound_to 10752
  153.7364  135.3245  155.3297 H   0  0  0  0  0  0  0  0  0  0  0  0  # atno 10764 bound_to 10752
  154.8216  135.4648  154.0901 H   0  0  0  0  0  0  0  0  0  0  0  0  # atno 10765 bound_to 10752
  139.8925  134.8406  156.2826 H   0  0  0  0  0  0  0  0  0  0  0  0  # atno 11005 bound_to 11000
  144.9150  139.4481  143.6569 LP  0  0  0  0  0  0  0  0  0  0  0  0  # atno 17320 bound_to 7965
  146.3175  139.7979  142.8971 LP  0  0  0  0  0  0  0  0  0  0  0  0  # atno 17321 bound_to 7965
  140.6482  143.2218  151.6137 LP  0  0  0  0  0  0  0  0  0  0  0  0  # atno 17342 bound_to 10162
  139.5272  144.3022  152.1063 LP  0  0  0  0  0  0  0  0  0  0  0  0  # atno 17343 bound_to 10162
  157.3668  131.0759  151.1591 LP  0  0  0  0  0  0  0  0  0  0  0  0  # atno 17370 bound_to 10713
  157.2357  130.6546  149.5868 LP  0  0  0  0  0  0  0  0  0  0  0  0  # atno 17371 bound_to 10713
  141.0029  133.7141  156.0988 LP  0  0  0  0  0  0  0  0  0  0  0  0  # atno 17394 bound_to 11000
  140.7474  134.4083  157.5546 LP  0  0  0  0  0  0  0  0  0  0  0  0  # atno 17395 bound_to 11000

$$$$
