AV-unprocessed.smi:55|AV-procd|sdf|568|dock5
  -GOLD-   2262016473D 1   1.00000     0.00000
 Structure written by MMmdl.
 31 32  0  0  0  0  0  0  0  0  1 V2000
  152.3080  141.2039  159.3960 C   0  0  0  0  0  0  0  0  0  0  0  0
  152.3942  139.9858  158.4913 C   0  0  0  0  0  0  0  0  0  0  0  0
  151.9465  139.9984  157.2099 C   0  0  0  0  0  0  0  0  0  0  0  0
  152.0080  138.9030  156.3600 N   0  0  0  0  0  0  0  0  0  0  0  0
  151.4892  138.9932  154.9423 C   0  0  1  0  0  0  0  0  0  0  0  0
  150.5156  137.8486  154.6431 C   0  0  0  0  0  0  0  0  0  0  0  0
  149.1713  138.5518  154.6636 C   0  0  2  0  0  0  0  0  0  0  0  0
  148.2515  137.9129  153.8019 O   0  0  0  0  0  0  0  0  0  0  0  0
  149.5308  139.9629  154.1918 C   0  0  1  0  0  0  0  0  0  0  0  0
  148.5296  141.0363  154.6443 C   0  0  0  0  0  0  0  0  0  0  0  0
  148.9311  142.3023  154.1660 O   0  0  0  0  0  0  0  0  0  0  0  0
  150.7979  140.1977  154.7992 O   0  0  0  0  0  0  0  0  0  0  0  0
  152.5548  137.6915  156.8336 C   0  0  0  0  0  0  0  0  0  0  0  0
  152.6261  136.6713  156.1496 O   0  0  0  0  0  0  0  0  0  0  0  0
  153.0188  137.6793  158.1480 N   0  0  0  0  0  0  0  0  0  0  0  0
  152.9815  138.7583  159.0346 C   0  0  0  0  0  0  0  0  0  0  0  0
  153.4236  138.6233  160.1744 O   0  0  0  0  0  0  0  0  0  0  0  0
  152.3486  139.0072  154.2708 H   0  0  0  0  0  0  0  0  0  0  0  0
  148.7741  138.5720  155.6791 H   0  0  0  0  0  0  0  0  0  0  0  0
  149.6526  139.9654  153.1065 H   0  0  0  0  0  0  0  0  0  0  0  0
  153.4133  136.8152  158.4898 H   0  0  0  0  0  0  0  0  0  0  0  0
  151.8676  142.0588  158.8825 H   0  0  0  0  0  0  0  0  0  0  0  0
  153.3011  141.4954  159.7389 H   0  0  0  0  0  0  0  0  0  0  0  0
  151.6936  140.9860  160.2702 H   0  0  0  0  0  0  0  0  0  0  0  0
  151.5179  140.9152  156.8334 H   0  0  0  0  0  0  0  0  0  0  0  0
  150.7435  137.4605  153.6492 H   0  0  0  0  0  0  0  0  0  0  0  0
  150.5969  137.0346  155.3651 H   0  0  0  0  0  0  0  0  0  0  0  0
  148.7133  137.2600  153.2980 H   0  0  0  0  0  0  0  0  0  0  0  0
  147.5429  140.8287  154.2293 H   0  0  0  0  0  0  0  0  0  0  0  0
  148.4280  141.0526  155.7300 H   0  0  0  0  0  0  0  0  0  0  0  0
  148.7507  142.9470  154.8329 H   0  0  0  0  0  0  0  0  0  0  0  0
  1  2  1  0  0  0  0
  1 22  1  0  0  0  0
  1 23  1  0  0  0  0
  1 24  1  0  0  0  0
  2 16  1  0  0  0  0
  2  3  2  0  0  0  0
  3  4  1  0  0  0  0
  3 25  1  0  0  0  0
  4  5  1  0  0  0  0
  4 13  1  0  0  0  0
  5 18  1  0  0  0  0
  5 12  1  0  0  0  0
  5  6  1  0  0  0  0
  6  7  1  0  0  0  0
  6 26  1  0  0  0  0
  6 27  1  0  0  0  0
  7 19  1  0  0  0  0
  7  8  1  0  0  0  0
  7  9  1  0  0  0  0
  8 28  1  0  0  0  0
  9 20  1  0  0  0  0
  9 10  1  0  0  0  0
  9 12  1  0  0  0  0
 10 11  1  0  0  0  0
 10 29  1  0  0  0  0
 10 30  1  0  0  0  0
 11 31  1  0  0  0  0
 13 14  2  0  0  0  0
 13 15  1  0  0  0  0
 15 21  1  0  0  0  0
 15 16  1  0  0  0  0
 16 17  2  0  0  0  0
M  END
> <s_m_source_file>
AV-unprocessed.smi

> <i_m_source_file_index>
55

> <i_lp_mmshare_version>
43012

> <i_f3d_flags>
0

> <s_epik_input>
Tz1jMVtuSF1jKD1PKW4oW2NIXWMxW0NIM10pW0NAQEhdMltDSDJdW0NAQEhdKFtPSF0pW0NAQEhdKE8yKVtDSDJdW09IXQ==

> <s_epik_cmdline>
J2VwaWtfcHl0aG9uJywgJy1waCcsICc3LjAnLCAnLXRuJywgJzgnLCAnLW1hJywgJzIwMCcsICctbWV0YWxfYmluZGluZycsICctaW1hZScsICc8aW5maWxlLm1hZT4nLCAnLW9tYWUnLCAnPG91dGZpbGUubWFlPic=

> <r_lp_tautomer_probability>
0.999537

> <r_epik_Ionization_Penalty>
0.00121888

> <r_epik_Ionization_Penalty_Charging>
0.00121876

> <r_epik_Ionization_Penalty_Neutral>
1.19946e-07

> <r_epik_State_Penalty>
0.000805124

> <r_epik_Charging_Adjusted_Penalty>
0.00202389

> <i_epik_Tot_Q>
0

> <i_epik_Tot_abs_Q>
0

> <r_epik_Metal_State_Penalty>
0.662472

> <b_epik_Metal_Only>
0

> <s_epik_Chemistry_Notes>
This compound contains an acetal/aminal-like group ( X-CH(R)-Y where X, Y are N, S, or O) that may be acid/base labile, releasing an aldehyde.

> <s_lp_Force_Field>
OPLS_2005

> <r_lp_Energy>
24.9253

> <b_lp_Chiralities_Consistent>
1

> <s_lp_Variant>
AV-unprocessed.smi:55-8

> <Gold.Version>
5.8.1

> <Gold.Id.Protein>
6NUR|6NUR_protein|mol2

> <Gold.PLP.Fitness>
39.6739

> <Gold.PLP.PLP>
-27.4064

> <Gold.PLP.part.hbond>
-5.0000

> <Gold.PLP.part.metal>
0.0000

> <Gold.PLP.part.buried>
-2.8509

> <Gold.PLP.part.nonpolar>
-19.7662

> <Gold.PLP.part.repulsive>
0.1792

> <Gold.PLP.ligand.clash>
0.0000

> <Gold.PLP.ligand.torsion>
0.1706

> <Gold.PLP.Chemscore.Hbond>
4.2000

> <Gold.PLP.Chemscore.CHOScore>
0.0000

> <Gold.PLP.Chemscore.Metal>
0.0000

> <Gold.Chemscore.Hbonds>
donor molecule, donor type, donor heavy atom, donor atom, acceptor molecule, acceptor atom, score
      L1  H     8    28       P1  7948  1.00
      L1  H    11    31       P1  8028  1.00
      P1  H  7989  7998       L1    12  1.00
      P1  H  8011  8017       L1    11  0.24
      P1  H 10752 10763       L1    14  0.98

> <Gold.PLP.Chemscore.Internal.Correction>
0.0087

> <Gold.Rescore>
     Score         DG    S(hbond)    S(metal)    S(lipo)     H(rot)  DE(clash)    DE(int)     intcor
     13.08     -14.91       3.36        0.00      44.37       2.73       0.48       1.36       ----

> <Gold.Chemscore.Fitness>
13.0761

> <Gold.Chemscore.DG>
-14.9101

> <Gold.Chemscore.ZeroCoef>
-5.4800

> <Gold.Chemscore.Hbond>
3.3580

> <Gold.Chemscore.Metal>
0.0000

> <Gold.Chemscore.Lipo>
44.3698

> <Gold.Chemscore.Internal_Hbond>
0.0000

> <Gold.Chemscore.DEClash>
0.4774

> <Gold.Chemscore.DEInternal>
1.3567

> <Gold.Chemscore.Rot>
2.7253

> <Gold.Chemscore.Internal.Correction>
   9.000000E+99

> <Gold.Chemscore.Hbonds>
donor molecule, donor type, donor heavy atom, donor atom, acceptor molecule, acceptor atom, score
      L1  H     8    28       P1  7948  0.98
      L1  H    11    31       P1  8028  0.97
      P1  H  7989  7998       L1    12  0.07
      P1  H  8011  8017       L1    11  0.22
      P1  H 10752 10763       L1    14  0.93

> <Gold.Chemscore.Hbond.Weighted>
-11.2157

> <Gold.Chemscore.Metal.Weighted>
-0.0000

> <Gold.Chemscore.Lipo.Weighted>
-5.1913

> <Gold.Chemscore.Internal_Hbond.Weighted>
0.0000

> <Gold.Chemscore.DEClash.Weighted>
0.4774

> <Gold.Chemscore.DEInternal.Weighted>
1.3567

> <Gold.Chemscore.Rot.Weighted>
6.9769

> <Gold.Chemscore.Internal.Correction.Weighted>
   9.000000E+99

> <Gold.Protein.RotatedTorsions>
[ 6907 6896 6895 6894 ] final  136.04 input  -60.11 | X-H torsion
[ 7974 7965 7964 7962 ] final  -77.74 input  175.53 | X-H torsion
[ 8008 7997 7996 7995 ] final  -98.77 input   59.86 | X-H torsion
[ 10167 10162 10161 10158 ] final   72.43 input  -65.29 | X-H torsion
[ 10718 10713 10712 10709 ] final  -91.24 input   66.30 | X-H torsion
[ 10763 10752 10751 10750 ] final   95.02 input  -60.55 | X-H torsion
[ 11005 11000 10999 10996 ] final  -51.92 input  -57.11 | X-H torsion

> <Gold.Protein.ActiveResidues>
 VAL166  LYS551  ARG553  GLY616  TRP617  ASP618  TYR619  PRO620  LYS621  CYS622 
 ASP623  PHE694  ASN695  SER759  ASP760  ASP761  ALA762  ILE779  LEU786  VAL792 
 PHE793  MET794  SER795  GLU796  ALA797  LYS798  CYS799  TRP800  GLU811  SER814 

> <Gold.Protein.RotatedAtoms>
  152.2937  133.5587  159.5573 H   0  0  0  0  0  0  0  0  0  0  0  0  # atno 6907 bound_to 6896
  150.7246  134.0391  159.3768 H   0  0  0  0  0  0  0  0  0  0  0  0  # atno 6908 bound_to 6896
  151.8295  135.0626  160.0486 H   0  0  0  0  0  0  0  0  0  0  0  0  # atno 6909 bound_to 6896
  145.5957  140.9420  143.1268 H   0  0  0  0  0  0  0  0  0  0  0  0  # atno 7974 bound_to 7965
  154.8057  140.0452  157.1306 H   0  0  0  0  0  0  0  0  0  0  0  0  # atno 8008 bound_to 7997
  154.9426  140.3054  155.5093 H   0  0  0  0  0  0  0  0  0  0  0  0  # atno 8009 bound_to 7997
  156.2966  140.2302  156.4497 H   0  0  0  0  0  0  0  0  0  0  0  0  # atno 8010 bound_to 7997
  140.0354  144.5432  150.7475 H   0  0  0  0  0  0  0  0  0  0  0  0  # atno 10167 bound_to 10162
  155.9992  130.4940  150.5444 H   0  0  0  0  0  0  0  0  0  0  0  0  # atno 10718 bound_to 10713
  153.2483  135.4269  155.0771 H   0  0  0  0  0  0  0  0  0  0  0  0  # atno 10763 bound_to 10752
  154.8371  135.3419  154.6549 H   0  0  0  0  0  0  0  0  0  0  0  0  # atno 10764 bound_to 10752
  153.6971  135.7030  153.5130 H   0  0  0  0  0  0  0  0  0  0  0  0  # atno 10765 bound_to 10752
  141.0897  133.6635  156.3949 H   0  0  0  0  0  0  0  0  0  0  0  0  # atno 11005 bound_to 11000
  144.7332  139.7664  143.7339 LP  0  0  0  0  0  0  0  0  0  0  0  0  # atno 17320 bound_to 7965
  146.1614  139.4729  142.9986 LP  0  0  0  0  0  0  0  0  0  0  0  0  # atno 17321 bound_to 7965
  140.7284  143.2661  151.4040 LP  0  0  0  0  0  0  0  0  0  0  0  0  # atno 17342 bound_to 10162
  139.6049  144.1219  152.2238 LP  0  0  0  0  0  0  0  0  0  0  0  0  # atno 17343 bound_to 10162
  157.3376  131.0711  151.1813 LP  0  0  0  0  0  0  0  0  0  0  0  0  # atno 17370 bound_to 10713
  157.2672  130.6687  149.6002 LP  0  0  0  0  0  0  0  0  0  0  0  0  # atno 17371 bound_to 10713
  140.5281  134.6239  157.5341 LP  0  0  0  0  0  0  0  0  0  0  0  0  # atno 17394 bound_to 11000
  139.9721  134.7276  156.0022 LP  0  0  0  0  0  0  0  0  0  0  0  0  # atno 17395 bound_to 11000

$$$$
