AV-unprocessed.smi:672|AV-procd|sdf|3290|dock10
  -GOLD-   22720 0253D 1   1.00000     0.00000
 Structure written by MMmdl.
 36 37  0  0  0  0  0  0  0  0  1 V2000
  142.3477  143.3923  160.9604 C   0  0  0  0  0  0  0  0  0  0  0  0
  143.4225  143.6025  162.0322 C   0  0  0  0  0  0  0  0  0  0  0  0
  144.7993  143.6625  161.4596 C   0  0  0  0  0  0  0  0  0  0  0  0
  145.7521  142.7753  161.7722 N   0  0  0  0  0  0  0  0  0  0  0  0
  146.9390  143.0172  161.0950 N   0  0  0  0  0  0  0  0  0  0  0  0
  146.8415  144.0743  160.2772 C   0  0  0  0  0  0  0  0  0  0  0  0
  147.9059  144.5429  159.4626 N   0  0  0  0  0  0  0  0  0  0  0  0
  149.2125  144.2351  159.5398 C   0  0  0  0  0  0  0  0  0  0  0  0
  149.7166  143.4647  160.3577 O   0  0  0  0  0  0  0  0  0  0  0  0
  149.9182  144.8773  158.5980 N   0  0  0  0  0  0  0  0  0  0  0  0
  151.3620  144.7639  158.4076 C   0  0  1  0  0  0  0  0  0  0  0  0
  152.1329  145.1385  159.6892 C   0  0  0  0  0  0  0  0  0  0  0  0
  152.7060  143.8302  160.2337 C   0  0  0  0  0  0  0  0  0  0  0  0
  152.9486  142.9823  158.9864 C   0  0  1  0  0  0  0  0  0  0  0  0
  153.0822  141.2062  159.3419 S   0  0  0  0  0  0  0  0  0  0  0  0
  154.0278  141.2561  160.8872 C   0  0  0  0  0  0  0  0  0  0  0  0
  151.7589  143.3118  158.0801 C   0  0  0  0  0  0  0  0  0  0  0  0
  145.2758  144.8674  160.2687 S   0  0  0  0  0  0  0  0  0  0  0  0
  141.3546  143.3553  161.4083 H   0  0  0  0  0  0  0  0  0  0  0  0
  142.5059  142.4568  160.4230 H   0  0  0  0  0  0  0  0  0  0  0  0
  142.3550  144.2034  160.2317 H   0  0  0  0  0  0  0  0  0  0  0  0
  143.2291  144.5281  162.5750 H   0  0  0  0  0  0  0  0  0  0  0  0
  143.3792  142.7966  162.7658 H   0  0  0  0  0  0  0  0  0  0  0  0
  147.6405  145.1888  158.7338 H   0  0  0  0  0  0  0  0  0  0  0  0
  149.4237  145.4897  157.9659 H   0  0  0  0  0  0  0  0  0  0  0  0
  151.6760  145.4172  157.5912 H   0  0  0  0  0  0  0  0  0  0  0  0
  152.9531  145.8090  159.4295 H   0  0  0  0  0  0  0  0  0  0  0  0
  151.5223  145.6553  160.4309 H   0  0  0  0  0  0  0  0  0  0  0  0
  153.6107  143.9873  160.8212 H   0  0  0  0  0  0  0  0  0  0  0  0
  151.9685  143.3481  160.8770 H   0  0  0  0  0  0  0  0  0  0  0  0
  153.8654  143.3152  158.4976 H   0  0  0  0  0  0  0  0  0  0  0  0
  154.2355  140.2430  161.2316 H   0  0  0  0  0  0  0  0  0  0  0  0
  153.4670  141.7745  161.6647 H   0  0  0  0  0  0  0  0  0  0  0  0
  154.9765  141.7715  160.7376 H   0  0  0  0  0  0  0  0  0  0  0  0
  150.9332  142.6335  158.3026 H   0  0  0  0  0  0  0  0  0  0  0  0
  152.0036  143.1816  157.0254 H   0  0  0  0  0  0  0  0  0  0  0  0
  1  2  1  0  0  0  0
  1 19  1  0  0  0  0
  1 20  1  0  0  0  0
  1 21  1  0  0  0  0
  2  3  1  0  0  0  0
  2 22  1  0  0  0  0
  2 23  1  0  0  0  0
  3 18  1  0  0  0  0
  3  4  2  0  0  0  0
  4  5  1  0  0  0  0
  5  6  2  0  0  0  0
  6  7  1  0  0  0  0
  6 18  1  0  0  0  0
  7  8  1  0  0  0  0
  7 24  1  0  0  0  0
  8  9  2  0  0  0  0
  8 10  1  0  0  0  0
 10 11  1  0  0  0  0
 10 25  1  0  0  0  0
 11 17  1  0  0  0  0
 11 12  1  0  0  0  0
 11 26  1  0  0  0  0
 12 13  1  0  0  0  0
 12 27  1  0  0  0  0
 12 28  1  0  0  0  0
 13 14  1  0  0  0  0
 13 29  1  0  0  0  0
 13 30  1  0  0  0  0
 14 15  1  0  0  0  0
 14 17  1  0  0  0  0
 14 31  1  0  0  0  0
 15 16  1  0  0  0  0
 16 32  1  0  0  0  0
 16 33  1  0  0  0  0
 16 34  1  0  0  0  0
 17 35  1  0  0  0  0
 17 36  1  0  0  0  0
M  END
> <s_m_source_file>
AV-unprocessed.smi

> <i_m_source_file_index>
672

> <i_lp_mmshare_version>
43012

> <i_f3d_flags>
0

> <s_epik_input>
W0NIM11bQ0gyXWMxbm5jKHMxKVtOSF1DKD1PKVtOSF1bQ0BASF0yW0NIMl1bQ0gyXVtDQEhdKFtDSDJdMilTW0NIM10=

> <s_epik_cmdline>
J2VwaWtfcHl0aG9uJywgJy1waCcsICc3LjAnLCAnLXRuJywgJzgnLCAnLW1hJywgJzIwMCcsICctbWV0YWxfYmluZGluZycsICctaW1hZScsICc8aW5maWxlLm1hZT4nLCAnLW9tYWUnLCAnPG91dGZpbGUubWFlPic=

> <r_lp_tautomer_probability>
1

> <r_epik_Ionization_Penalty>
0.000422169

> <r_epik_Ionization_Penalty_Charging>
0

> <r_epik_Ionization_Penalty_Neutral>
0.000422169

> <r_epik_State_Penalty>
-0

> <r_epik_Charging_Adjusted_Penalty>
0

> <i_epik_Tot_Q>
0

> <i_epik_Tot_abs_Q>
0

> <r_epik_Metal_State_Penalty>
0.200061

> <b_epik_Metal_Only>
0

> <s_lp_Force_Field>
OPLS_2005

> <r_lp_Energy>
11.4796

> <b_lp_Chiralities_Consistent>
1

> <s_lp_Variant>
AV-unprocessed.smi:672-2

> <Gold.Version>
5.8.1

> <Gold.Id.Protein>
6NUR|6NUR_protein|mol2

> <Gold.PLP.Fitness>
49.8785

> <Gold.PLP.PLP>
-41.3359

> <Gold.PLP.part.hbond>
-5.3964

> <Gold.PLP.part.metal>
0.0000

> <Gold.PLP.part.buried>
-5.2769

> <Gold.PLP.part.nonpolar>
-31.0800

> <Gold.PLP.part.repulsive>
0.5039

> <Gold.PLP.ligand.clash>
0.0000

> <Gold.PLP.ligand.torsion>
0.2749

> <Gold.PLP.Chemscore.Hbond>
3.0272

> <Gold.PLP.Chemscore.CHOScore>
0.0000

> <Gold.PLP.Chemscore.Metal>
0.0000

> <Gold.Chemscore.Hbonds>
donor molecule, donor type, donor heavy atom, donor atom, acceptor molecule, acceptor atom, score
      L1  H     7    24       P1  8029  1.00
      L1  H    10    25       P1  8029  0.98
      P1  H  6933  6944       L1     5  1.00
      P1  H  6934  6946       L1     5  0.09

> <Gold.PLP.Chemscore.Internal.Correction>
0.0109

> <Gold.Rescore>
     Score         DG    S(hbond)    S(metal)    S(lipo)     H(rot)  DE(clash)    DE(int)     intcor
     19.06     -22.95       2.53        0.00     107.05       1.37       0.00       3.89       ----

> <Gold.Chemscore.Fitness>
19.0622

> <Gold.Chemscore.DG>
-22.9514

> <Gold.Chemscore.ZeroCoef>
-5.4800

> <Gold.Chemscore.Hbond>
2.5287

> <Gold.Chemscore.Metal>
0.0000

> <Gold.Chemscore.Lipo>
107.0492

> <Gold.Chemscore.Internal_Hbond>
0.0000

> <Gold.Chemscore.DEClash>
0.0025

> <Gold.Chemscore.DEInternal>
3.8866

> <Gold.Chemscore.Rot>
1.3669

> <Gold.Chemscore.Internal.Correction>
   9.000000E+99

> <Gold.Chemscore.Hbonds>
donor molecule, donor type, donor heavy atom, donor atom, acceptor molecule, acceptor atom, score
      L1  H     7    24       P1  8029  0.97
      L1  H    10    25       P1  8029  0.28
      P1  H  6933  6944       L1     5  0.93

> <Gold.Chemscore.Hbond.Weighted>
-8.4459

> <Gold.Chemscore.Metal.Weighted>
-0.0000

> <Gold.Chemscore.Lipo.Weighted>
-12.5248

> <Gold.Chemscore.Internal_Hbond.Weighted>
0.0000

> <Gold.Chemscore.DEClash.Weighted>
0.0025

> <Gold.Chemscore.DEInternal.Weighted>
3.8866

> <Gold.Chemscore.Rot.Weighted>
3.4992

> <Gold.Chemscore.Internal.Correction.Weighted>
   9.000000E+99

> <Gold.Protein.RotatedTorsions>
[ 6907 6896 6895 6894 ] final -178.58 input  -60.11 | X-H torsion
[ 7974 7965 7964 7962 ] final -137.77 input  175.53 | X-H torsion
[ 8008 7997 7996 7995 ] final  107.93 input   59.86 | X-H torsion
[ 10167 10162 10161 10158 ] final  145.39 input  -65.29 | X-H torsion
[ 10718 10713 10712 10709 ] final -166.25 input   66.30 | X-H torsion
[ 10763 10752 10751 10750 ] final  -46.82 input  -60.55 | X-H torsion
[ 11005 11000 10999 10996 ] final  -87.18 input  -57.11 | X-H torsion

> <Gold.Protein.ActiveResidues>
 VAL166  LYS551  ARG553  GLY616  TRP617  ASP618  TYR619  PRO620  LYS621  CYS622 
 ASP623  PHE694  ASN695  SER759  ASP760  ASP761  ALA762  ILE779  LEU786  VAL792 
 PHE793  MET794  SER795  GLU796  ALA797  LYS798  CYS799  TRP800  GLU811  SER814 

> <Gold.Protein.RotatedAtoms>
  151.6395  133.3327  159.3126 H   0  0  0  0  0  0  0  0  0  0  0  0  # atno 6907 bound_to 6896
  150.8015  134.7116  159.6616 H   0  0  0  0  0  0  0  0  0  0  0  0  # atno 6908 bound_to 6896
  152.4107  134.6133  160.0083 H   0  0  0  0  0  0  0  0  0  0  0  0  # atno 6909 bound_to 6896
  144.8814  140.6513  143.5203 H   0  0  0  0  0  0  0  0  0  0  0  0  # atno 7974 bound_to 7965
  156.1864  140.3085  155.9246 H   0  0  0  0  0  0  0  0  0  0  0  0  # atno 8008 bound_to 7997
  155.3272  140.0459  157.3058 H   0  0  0  0  0  0  0  0  0  0  0  0  # atno 8009 bound_to 7997
  154.5400  140.2258  155.8667 H   0  0  0  0  0  0  0  0  0  0  0  0  # atno 8010 bound_to 7997
  139.4927  144.5905  151.6691 H   0  0  0  0  0  0  0  0  0  0  0  0  # atno 10167 bound_to 10162
  156.6651  130.9061  151.3035 H   0  0  0  0  0  0  0  0  0  0  0  0  # atno 10718 bound_to 10713
  154.0512  135.6631  153.4800 H   0  0  0  0  0  0  0  0  0  0  0  0  # atno 10763 bound_to 10752
  153.0463  135.5112  154.7749 H   0  0  0  0  0  0  0  0  0  0  0  0  # atno 10764 bound_to 10752
  154.6756  135.3036  154.9650 H   0  0  0  0  0  0  0  0  0  0  0  0  # atno 10765 bound_to 10752
  141.1620  133.7497  156.9269 H   0  0  0  0  0  0  0  0  0  0  0  0  # atno 11005 bound_to 11000
  145.3947  139.1609  143.4210 LP  0  0  0  0  0  0  0  0  0  0  0  0  # atno 17320 bound_to 7965
  146.2997  140.4039  142.8708 LP  0  0  0  0  0  0  0  0  0  0  0  0  # atno 17321 bound_to 7965
  140.5530  144.0393  150.6135 LP  0  0  0  0  0  0  0  0  0  0  0  0  # atno 17342 bound_to 10162
  140.3454  143.2994  152.0544 LP  0  0  0  0  0  0  0  0  0  0  0  0  # atno 17343 bound_to 10162
  157.7096  130.9425  150.1045 LP  0  0  0  0  0  0  0  0  0  0  0  0  # atno 17370 bound_to 10713
  156.1981  130.3658  149.8823 LP  0  0  0  0  0  0  0  0  0  0  0  0  # atno 17371 bound_to 10713
  140.1413  134.9292  157.2470 LP  0  0  0  0  0  0  0  0  0  0  0  0  # atno 17394 bound_to 11000
  140.2834  134.3324  155.7336 LP  0  0  0  0  0  0  0  0  0  0  0  0  # atno 17395 bound_to 11000

$$$$
