AV-unprocessed.smi:1517|AV-procd|sdf|6122|dock10
  -GOLD-   22720 6253D 1   1.00000     0.00000
 Structure written by MMmdl.
 41 43  0  0  0  0  0  0  0  0  1 V2000
  151.0144  136.1851  154.0858 O   0  0  0  0  0  0  0  0  0  0  0  0
  150.8482  137.0886  155.1562 C   0  0  0  0  0  0  0  0  0  0  0  0
  151.9825  138.1229  155.1460 C   0  0  0  0  0  0  0  0  0  0  0  0
  151.5114  139.4594  155.4608 N   0  0  0  0  0  0  0  0  0  0  0  0
  151.7636  140.3037  156.5359 C   0  0  0  0  0  0  0  0  0  0  0  0
  152.5642  139.9876  157.5519 N   0  0  0  0  0  0  0  0  0  0  0  0
  152.4953  141.1183  158.3435 C   0  0  0  0  0  0  0  0  0  0  0  0
  153.1248  141.4181  159.5728 C   0  0  0  0  0  0  0  0  0  0  0  0
  152.9010  142.6583  160.2059 C   0  0  0  0  0  0  0  0  0  0  0  0
  152.0461  143.6148  159.6210 C   0  0  0  0  0  0  0  0  0  0  0  0
  151.4089  143.3373  158.3963 C   0  0  0  0  0  0  0  0  0  0  0  0
  151.6357  142.0984  157.7678 C   0  0  0  0  0  0  0  0  0  0  0  0
  151.1817  141.5264  156.5833 N   0  0  0  0  0  0  0  0  0  0  0  0
  150.2810  142.1465  155.6196 C   0  0  0  0  0  0  0  0  0  0  0  0
  148.8021  141.8369  155.9249 C   0  0  2  0  0  0  0  0  0  0  0  0
  148.7372  141.2089  157.1894 O   0  0  0  0  0  0  0  0  0  0  0  0
  148.1410  141.0076  154.8289 C   0  0  0  0  0  0  0  0  0  0  0  0
  148.5301  139.6662  154.6145 C   0  0  0  0  0  0  0  0  0  0  0  0
  147.9217  138.9012  153.6010 C   0  0  0  0  0  0  0  0  0  0  0  0
  146.9253  139.4738  152.7884 C   0  0  0  0  0  0  0  0  0  0  0  0
  146.3425  138.7394  151.8116 F   0  0  0  0  0  0  0  0  0  0  0  0
  146.5408  140.8129  152.9877 C   0  0  0  0  0  0  0  0  0  0  0  0
  147.1447  141.5786  154.0038 C   0  0  0  0  0  0  0  0  0  0  0  0
  146.7655  142.8677  154.1772 F   0  0  0  0  0  0  0  0  0  0  0  0
  150.8952  136.6575  153.2761 H   0  0  0  0  0  0  0  0  0  0  0  0
  149.8927  137.5926  155.0093 H   0  0  0  0  0  0  0  0  0  0  0  0
  150.7856  136.5545  156.1054 H   0  0  0  0  0  0  0  0  0  0  0  0
  152.7867  137.8374  155.8249 H   0  0  0  0  0  0  0  0  0  0  0  0
  152.4192  138.1637  154.1476 H   0  0  0  0  0  0  0  0  0  0  0  0
  150.8789  139.8373  154.7703 H   0  0  0  0  0  0  0  0  0  0  0  0
  153.7817  140.6924  160.0291 H   0  0  0  0  0  0  0  0  0  0  0  0
  153.3875  142.8769  161.1451 H   0  0  0  0  0  0  0  0  0  0  0  0
  151.8802  144.5624  160.1127 H   0  0  0  0  0  0  0  0  0  0  0  0
  150.7547  144.0683  157.9446 H   0  0  0  0  0  0  0  0  0  0  0  0
  150.4541  143.2225  155.5826 H   0  0  0  0  0  0  0  0  0  0  0  0
  150.5440  141.7648  154.6321 H   0  0  0  0  0  0  0  0  0  0  0  0
  148.2585  142.7761  156.0320 H   0  0  0  0  0  0  0  0  0  0  0  0
  147.9807  140.6424  157.2042 H   0  0  0  0  0  0  0  0  0  0  0  0
  149.2983  139.2172  155.2271 H   0  0  0  0  0  0  0  0  0  0  0  0
  148.2221  137.8756  153.4445 H   0  0  0  0  0  0  0  0  0  0  0  0
  145.7808  141.2545  152.3602 H   0  0  0  0  0  0  0  0  0  0  0  0
  1  2  1  0  0  0  0
  1 25  1  0  0  0  0
  2  3  1  0  0  0  0
  2 26  1  0  0  0  0
  2 27  1  0  0  0  0
  3  4  1  0  0  0  0
  3 28  1  0  0  0  0
  3 29  1  0  0  0  0
  4  5  1  0  0  0  0
  4 30  1  0  0  0  0
  5 13  1  0  0  0  0
  5  6  2  0  0  0  0
  6  7  1  0  0  0  0
  7 12  2  0  0  0  0
  7  8  1  0  0  0  0
  8  9  2  0  0  0  0
  8 31  1  0  0  0  0
  9 10  1  0  0  0  0
  9 32  1  0  0  0  0
 10 11  2  0  0  0  0
 10 33  1  0  0  0  0
 11 12  1  0  0  0  0
 11 34  1  0  0  0  0
 12 13  1  0  0  0  0
 13 14  1  0  0  0  0
 14 15  1  0  0  0  0
 14 35  1  0  0  0  0
 14 36  1  0  0  0  0
 15 16  1  0  0  0  0
 15 17  1  0  0  0  0
 15 37  1  0  0  0  0
 16 38  1  0  0  0  0
 17 23  1  0  0  0  0
 17 18  2  0  0  0  0
 18 19  1  0  0  0  0
 18 39  1  0  0  0  0
 19 20  2  0  0  0  0
 19 40  1  0  0  0  0
 20 21  1  0  0  0  0
 20 22  1  0  0  0  0
 22 23  2  0  0  0  0
 22 41  1  0  0  0  0
 23 24  1  0  0  0  0
M  END
> <s_m_source_file>
AV-unprocessed.smi

> <i_m_source_file_index>
1517

> <i_lp_mmshare_version>
43012

> <i_f3d_flags>
0

> <s_epik_input>
W09IXVtDSDJdW0NIMl1bTkhdYyhuMSluKGMoYzEyKVtjSF1bY0hdW2NIXVtjSF0yKVtDSDJdW0NASF0oW09IXSljM1tjSF1bY0hdYyhGKVtjSF1jM0Y=

> <s_epik_cmdline>
J2VwaWtfcHl0aG9uJywgJy1waCcsICc3LjAnLCAnLXRuJywgJzgnLCAnLW1hJywgJzIwMCcsICctbWV0YWxfYmluZGluZycsICctaW1hZScsICc8aW5maWxlLm1hZT4nLCAnLW9tYWUnLCAnPG91dGZpbGUubWFlPic=

> <r_epik_Ionization_Penalty>
1.30972

> <r_epik_Ionization_Penalty_Charging>
0

> <r_epik_Ionization_Penalty_Neutral>
1.30972

> <r_epik_State_Penalty>
1.38438

> <r_epik_Charging_Adjusted_Penalty>
1.38438

> <i_epik_Tot_Q>
0

> <i_epik_Tot_abs_Q>
0

> <r_epik_Metal_State_Penalty>
0.00551145

> <b_epik_Metal_Only>
0

> <s_lp_Force_Field>
OPLS_2005

> <r_lp_Energy>
9.55996

> <b_lp_Chiralities_Consistent>
1

> <s_lp_Variant>
AV-unprocessed.smi:1517-3

> <Gold.Version>
5.8.1

> <Gold.Id.Protein>
6NUR|6NUR_protein|mol2

> <Gold.PLP.Fitness>
50.4200

> <Gold.PLP.PLP>
-45.3229

> <Gold.PLP.part.hbond>
-3.3190

> <Gold.PLP.part.metal>
0.0000

> <Gold.PLP.part.buried>
1.1511

> <Gold.PLP.part.nonpolar>
-42.9731

> <Gold.PLP.part.repulsive>
0.1376

> <Gold.PLP.ligand.clash>
0.0000

> <Gold.PLP.ligand.torsion>
1.5039

> <Gold.PLP.Chemscore.Hbond>
2.6878

> <Gold.PLP.Chemscore.CHOScore>
0.0000

> <Gold.PLP.Chemscore.Metal>
0.0000

> <Gold.Chemscore.Hbonds>
donor molecule, donor type, donor heavy atom, donor atom, acceptor molecule, acceptor atom, score
      L1  H     1    25       P1  7949  0.46
      P1  H  7997  8010       L1     6  1.00
      P1  H 10752 10763       L1     1  1.00

> <Gold.PLP.Chemscore.Internal.Correction>
0.0415

> <Gold.Rescore>
     Score         DG    S(hbond)    S(metal)    S(lipo)     H(rot)  DE(clash)    DE(int)     intcor
     12.63     -15.41       1.09        0.00     124.12       3.22       0.55       2.23       ----

> <Gold.Chemscore.Fitness>
12.6341

> <Gold.Chemscore.DG>
-15.4149

> <Gold.Chemscore.ZeroCoef>
-5.4800

> <Gold.Chemscore.Hbond>
1.0942

> <Gold.Chemscore.Metal>
0.0000

> <Gold.Chemscore.Lipo>
124.1191

> <Gold.Chemscore.Internal_Hbond>
0.0000

> <Gold.Chemscore.DEClash>
0.5477

> <Gold.Chemscore.DEInternal>
2.2331

> <Gold.Chemscore.Rot>
3.2194

> <Gold.Chemscore.Internal.Correction>
   9.000000E+99

> <Gold.Chemscore.Hbonds>
donor molecule, donor type, donor heavy atom, donor atom, acceptor molecule, acceptor atom, score
      L1  H     1    25       P1  7949  0.08
      P1  H  7997  8010       L1     6  0.19
      P1  H 10752 10763       L1     1  0.29

> <Gold.Chemscore.Hbond.Weighted>
-3.6546

> <Gold.Chemscore.Metal.Weighted>
-0.0000

> <Gold.Chemscore.Lipo.Weighted>
-14.5219

> <Gold.Chemscore.Internal_Hbond.Weighted>
0.0000

> <Gold.Chemscore.DEClash.Weighted>
0.5477

> <Gold.Chemscore.DEInternal.Weighted>
2.2331

> <Gold.Chemscore.Rot.Weighted>
8.2416

> <Gold.Chemscore.Internal.Correction.Weighted>
   9.000000E+99

> <Gold.Protein.RotatedTorsions>
[ 6907 6896 6895 6894 ] final  177.95 input  -60.11 | X-H torsion
[ 7974 7965 7964 7962 ] final  125.66 input  175.53 | X-H torsion
[ 8008 7997 7996 7995 ] final   44.98 input   59.86 | X-H torsion
[ 10167 10162 10161 10158 ] final  -81.71 input  -65.29 | X-H torsion
[ 10718 10713 10712 10709 ] final -111.72 input   66.30 | X-H torsion
[ 10763 10752 10751 10750 ] final   41.55 input  -60.55 | X-H torsion
[ 11005 11000 10999 10996 ] final -163.86 input  -57.11 | X-H torsion

> <Gold.Protein.ActiveResidues>
 VAL166  LYS551  ARG553  GLY616  TRP617  ASP618  TYR619  PRO620  LYS621  CYS622 
 ASP623  PHE694  ASN695  SER759  ASP760  ASP761  ALA762  ILE779  LEU786  VAL792 
 PHE793  MET794  SER795  GLU796  ALA797  LYS798  CYS799  TRP800  GLU811  SER814 

> <Gold.Protein.RotatedAtoms>
  151.6957  133.3311  159.3253 H   0  0  0  0  0  0  0  0  0  0  0  0  # atno 6907 bound_to 6896
  150.7758  134.6659  159.6374 H   0  0  0  0  0  0  0  0  0  0  0  0  # atno 6908 bound_to 6896
  152.3800  134.6608  160.0198 H   0  0  0  0  0  0  0  0  0  0  0  0  # atno 6909 bound_to 6896
  145.0705  139.3733  143.4960 H   0  0  0  0  0  0  0  0  0  0  0  0  # atno 7974 bound_to 7965
  155.3282  140.3401  155.4240 H   0  0  0  0  0  0  0  0  0  0  0  0  # atno 8008 bound_to 7997
  156.1875  140.1685  156.8194 H   0  0  0  0  0  0  0  0  0  0  0  0  # atno 8009 bound_to 7997
  154.5403  140.0726  156.8481 H   0  0  0  0  0  0  0  0  0  0  0  0  # atno 8010 bound_to 7997
  140.4387  143.2522  151.8656 H   0  0  0  0  0  0  0  0  0  0  0  0  # atno 10167 bound_to 10162
  156.0664  130.5882  150.8412 H   0  0  0  0  0  0  0  0  0  0  0  0  # atno 10718 bound_to 10713
  152.9905  135.6158  154.2806 H   0  0  0  0  0  0  0  0  0  0  0  0  # atno 10763 bound_to 10752
  154.2535  135.2784  155.2808 H   0  0  0  0  0  0  0  0  0  0  0  0  # atno 10764 bound_to 10752
  154.5267  135.5799  153.6782 H   0  0  0  0  0  0  0  0  0  0  0  0  # atno 10765 bound_to 10752
  140.5934  134.5022  157.5196 H   0  0  0  0  0  0  0  0  0  0  0  0  # atno 11005 bound_to 11000
  146.3528  140.0448  142.8640 LP  0  0  0  0  0  0  0  0  0  0  0  0  # atno 17320 bound_to 7965
  145.1298  140.9511  143.4551 LP  0  0  0  0  0  0  0  0  0  0  0  0  # atno 17321 bound_to 7965
  139.4788  144.5253  151.8743 LP  0  0  0  0  0  0  0  0  0  0  0  0  # atno 17342 bound_to 10162
  140.4343  144.2073  150.5889 LP  0  0  0  0  0  0  0  0  0  0  0  0  # atno 17343 bound_to 10162
  157.5707  131.0946  150.9421 LP  0  0  0  0  0  0  0  0  0  0  0  0  # atno 17370 bound_to 10713
  156.9638  130.5465  149.5287 LP  0  0  0  0  0  0  0  0  0  0  0  0  # atno 17371 bound_to 10713
  139.9264  134.8048  156.1056 LP  0  0  0  0  0  0  0  0  0  0  0  0  # atno 17394 bound_to 11000
  141.0920  133.6710  156.2561 LP  0  0  0  0  0  0  0  0  0  0  0  0  # atno 17395 bound_to 11000

$$$$
