AV-unprocessed.smi:2345|AV-procd|sdf|9361|dock5
  -GOLD-   2272012583D 1   1.00000     0.00000
 Structure written by MMmdl.
 37 38  0  0  0  0  0  0  0  0  1 V2000
  153.3585  143.1957  163.3842 C   0  0  0  0  0  0  0  0  0  0  0  0
  152.6794  143.8115  162.1585 C   0  0  0  0  0  0  0  0  0  0  0  0
  151.5445  142.6376  161.3676 S   0  0  0  0  0  0  0  0  0  0  0  0
  151.3344  143.4204  159.7408 C   0  0  2  0  0  0  0  0  0  0  0  0
  152.6000  143.3227  158.8852 C   0  0  0  0  0  0  0  0  0  0  0  0
  152.4830  144.4905  157.9118 C   0  0  0  0  0  0  0  0  0  0  0  0
  151.8740  145.6152  158.7496 C   0  0  0  0  0  0  0  0  0  0  0  0
  151.0081  144.9272  159.8242 C   0  0  1  0  0  0  0  0  0  0  0  0
  149.5854  145.1591  159.5874 N   0  0  0  0  0  0  0  0  0  0  0  0
  148.6060  144.8974  160.4638 C   0  0  0  0  0  0  0  0  0  0  0  0
  148.8079  144.4508  161.5928 O   0  0  0  0  0  0  0  0  0  0  0  0
  147.4000  145.1659  159.9357 N   0  0  0  0  0  0  0  0  0  0  0  0
  146.1172  145.0053  160.5265 C   0  0  0  0  0  0  0  0  0  0  0  0
  145.8909  144.3646  161.7687 C   0  0  0  0  0  0  0  0  0  0  0  0
  144.5708  144.2845  162.2557 C   0  0  0  0  0  0  0  0  0  0  0  0
  143.5048  144.7952  161.6037 N   0  0  0  0  0  0  0  0  0  0  0  0
  143.7263  145.4183  160.4270 C   0  0  0  0  0  0  0  0  0  0  0  0
  145.0058  145.5534  159.8519 C   0  0  0  0  0  0  0  0  0  0  0  0
  145.1593  146.1953  158.6683 F   0  0  0  0  0  0  0  0  0  0  0  0
  154.0448  143.9057  163.8457 H   0  0  0  0  0  0  0  0  0  0  0  0
  153.9301  142.3081  163.1123 H   0  0  0  0  0  0  0  0  0  0  0  0
  152.6236  142.9055  164.1355 H   0  0  0  0  0  0  0  0  0  0  0  0
  152.1233  144.7024  162.4503 H   0  0  0  0  0  0  0  0  0  0  0  0
  153.4327  144.1235  161.4353 H   0  0  0  0  0  0  0  0  0  0  0  0
  150.5375  142.8942  159.2121 H   0  0  0  0  0  0  0  0  0  0  0  0
  153.4870  143.4569  159.5062 H   0  0  0  0  0  0  0  0  0  0  0  0
  152.6904  142.3613  158.3787 H   0  0  0  0  0  0  0  0  0  0  0  0
  153.4401  144.7677  157.4693 H   0  0  0  0  0  0  0  0  0  0  0  0
  151.8032  144.2257  157.1007 H   0  0  0  0  0  0  0  0  0  0  0  0
  152.6737  146.1731  159.2386 H   0  0  0  0  0  0  0  0  0  0  0  0
  151.3210  146.3263  158.1340 H   0  0  0  0  0  0  0  0  0  0  0  0
  151.2888  145.3157  160.8053 H   0  0  0  0  0  0  0  0  0  0  0  0
  149.3296  145.5237  158.6813 H   0  0  0  0  0  0  0  0  0  0  0  0
  147.3932  145.4509  158.9672 H   0  0  0  0  0  0  0  0  0  0  0  0
  146.6941  143.9488  162.3573 H   0  0  0  0  0  0  0  0  0  0  0  0
  144.3669  143.8019  163.2000 H   0  0  0  0  0  0  0  0  0  0  0  0
  142.8576  145.8231  159.9291 H   0  0  0  0  0  0  0  0  0  0  0  0
  1  2  1  0  0  0  0
  1 20  1  0  0  0  0
  1 21  1  0  0  0  0
  1 22  1  0  0  0  0
  2  3  1  0  0  0  0
  2 23  1  0  0  0  0
  2 24  1  0  0  0  0
  3  4  1  0  0  0  0
  4  8  1  0  0  0  0
  4  5  1  0  0  0  0
  4 25  1  0  0  0  0
  5  6  1  0  0  0  0
  5 26  1  0  0  0  0
  5 27  1  0  0  0  0
  6  7  1  0  0  0  0
  6 28  1  0  0  0  0
  6 29  1  0  0  0  0
  7  8  1  0  0  0  0
  7 30  1  0  0  0  0
  7 31  1  0  0  0  0
  8  9  1  0  0  0  0
  8 32  1  0  0  0  0
  9 10  1  0  0  0  0
  9 33  1  0  0  0  0
 10 11  2  0  0  0  0
 10 12  1  0  0  0  0
 12 13  1  0  0  0  0
 12 34  1  0  0  0  0
 13 18  1  0  0  0  0
 13 14  2  0  0  0  0
 14 15  1  0  0  0  0
 14 35  1  0  0  0  0
 15 16  2  0  0  0  0
 15 36  1  0  0  0  0
 16 17  1  0  0  0  0
 17 18  2  0  0  0  0
 17 37  1  0  0  0  0
 18 19  1  0  0  0  0
M  END
> <s_m_source_file>
AV-unprocessed.smi

> <i_m_source_file_index>
2345

> <i_lp_mmshare_version>
43012

> <i_f3d_flags>
0

> <s_epik_input>
W0NIM11bQ0gyXVNbQ0BASF0xW0NIMl1bQ0gyXVtDSDJdW0NASF0xW05IXUMoPU8pW05IXWMyW2NIXVtjSF1uW2NIXWMyRg==

> <s_epik_cmdline>
J2VwaWtfcHl0aG9uJywgJy1waCcsICc3LjAnLCAnLXRuJywgJzgnLCAnLW1hJywgJzIwMCcsICctbWV0YWxfYmluZGluZycsICctaW1hZScsICc8aW5maWxlLm1hZT4nLCAnLW9tYWUnLCAnPG91dGZpbGUubWFlPic=

> <r_epik_Ionization_Penalty>
0.00333745

> <r_epik_Ionization_Penalty_Charging>
0

> <r_epik_Ionization_Penalty_Neutral>
0.00333745

> <r_epik_State_Penalty>
0.00233401

> <r_epik_Charging_Adjusted_Penalty>
0.00233401

> <i_epik_Tot_Q>
0

> <i_epik_Tot_abs_Q>
0

> <r_epik_Metal_State_Penalty>
-0

> <b_epik_Metal_Only>
0

> <s_lp_Force_Field>
OPLS_2005

> <r_lp_Energy>
20.2563

> <b_lp_Chiralities_Consistent>
1

> <s_lp_Variant>
AV-unprocessed.smi:2345-1

> <Gold.Version>
5.8.1

> <Gold.Id.Protein>
6NUR|6NUR_protein|mol2

> <Gold.PLP.Fitness>
46.6641

> <Gold.PLP.PLP>
-39.5710

> <Gold.PLP.part.hbond>
-3.0000

> <Gold.PLP.part.metal>
0.0000

> <Gold.PLP.part.buried>
-1.0383

> <Gold.PLP.part.nonpolar>
-35.8472

> <Gold.PLP.part.repulsive>
0.6546

> <Gold.PLP.ligand.clash>
0.0000

> <Gold.PLP.ligand.torsion>
0.3078

> <Gold.PLP.Chemscore.Hbond>
2.5663

> <Gold.PLP.Chemscore.CHOScore>
0.0000

> <Gold.PLP.Chemscore.Metal>
0.0000

> <Gold.Chemscore.Hbonds>
donor molecule, donor type, donor heavy atom, donor atom, acceptor molecule, acceptor atom, score
      L1  H     9    33       P1  8029  0.98
      L1  H    12    34       P1  8029  1.00
      P1  H  6933  6944       L1    11  0.55

> <Gold.PLP.Chemscore.Internal.Correction>
0.0100

> <Gold.Rescore>
     Score         DG    S(hbond)    S(metal)    S(lipo)     H(rot)  DE(clash)    DE(int)     intcor
     20.28     -23.95       2.37        0.00     119.72       1.35       2.34       1.33       ----

> <Gold.Chemscore.Fitness>
20.2773

> <Gold.Chemscore.DG>
-23.9477

> <Gold.Chemscore.ZeroCoef>
-5.4800

> <Gold.Chemscore.Hbond>
2.3683

> <Gold.Chemscore.Metal>
0.0000

> <Gold.Chemscore.Lipo>
119.7188

> <Gold.Chemscore.Internal_Hbond>
0.0000

> <Gold.Chemscore.DEClash>
2.3442

> <Gold.Chemscore.DEInternal>
1.3262

> <Gold.Chemscore.Rot>
1.3475

> <Gold.Chemscore.Internal.Correction>
   9.000000E+99

> <Gold.Chemscore.Hbonds>
donor molecule, donor type, donor heavy atom, donor atom, acceptor molecule, acceptor atom, score
      L1  H     9    33       P1  8029  0.85
      L1  H    12    34       P1  8029  1.00
      P1  H  6933  6944       L1    11  0.32

> <Gold.Chemscore.Hbond.Weighted>
-7.9102

> <Gold.Chemscore.Metal.Weighted>
-0.0000

> <Gold.Chemscore.Lipo.Weighted>
-14.0071

> <Gold.Chemscore.Internal_Hbond.Weighted>
0.0000

> <Gold.Chemscore.DEClash.Weighted>
2.3442

> <Gold.Chemscore.DEInternal.Weighted>
1.3262

> <Gold.Chemscore.Rot.Weighted>
3.4496

> <Gold.Chemscore.Internal.Correction.Weighted>
   9.000000E+99

> <Gold.Protein.RotatedTorsions>
[ 6907 6896 6895 6894 ] final   80.26 input  -60.11 | X-H torsion
[ 7974 7965 7964 7962 ] final -178.55 input  175.53 | X-H torsion
[ 8008 7997 7996 7995 ] final  -88.19 input   59.86 | X-H torsion
[ 10167 10162 10161 10158 ] final  -29.07 input  -65.29 | X-H torsion
[ 10718 10713 10712 10709 ] final -120.06 input   66.30 | X-H torsion
[ 10763 10752 10751 10750 ] final   20.17 input  -60.55 | X-H torsion
[ 11005 11000 10999 10996 ] final  141.73 input  -57.11 | X-H torsion

> <Gold.Protein.ActiveResidues>
 VAL166  LYS551  ARG553  GLY616  TRP617  ASP618  TYR619  PRO620  LYS621  CYS622 
 ASP623  PHE694  ASN695  SER759  ASP760  ASP761  ALA762  ILE779  LEU786  VAL792 
 PHE793  MET794  SER795  GLU796  ALA797  LYS798  CYS799  TRP800  GLU811  SER814 

> <Gold.Protein.RotatedAtoms>
  152.5228  134.3384  159.9208 H   0  0  0  0  0  0  0  0  0  0  0  0  # atno 6907 bound_to 6896
  151.3334  133.3985  159.2672 H   0  0  0  0  0  0  0  0  0  0  0  0  # atno 6908 bound_to 6896
  150.9862  134.9224  159.7931 H   0  0  0  0  0  0  0  0  0  0  0  0  # atno 6909 bound_to 6896
  144.7131  140.0851  143.6424 H   0  0  0  0  0  0  0  0  0  0  0  0  # atno 7974 bound_to 7965
  154.6720  140.0556  157.0175 H   0  0  0  0  0  0  0  0  0  0  0  0  # atno 8008 bound_to 7997
  155.1075  140.3235  155.4511 H   0  0  0  0  0  0  0  0  0  0  0  0  # atno 8009 bound_to 7997
  156.2661  140.2020  156.6200 H   0  0  0  0  0  0  0  0  0  0  0  0  # atno 8010 bound_to 7997
  140.7264  143.3958  151.1349 H   0  0  0  0  0  0  0  0  0  0  0  0  # atno 10167 bound_to 10162
  156.1229  130.6336  150.9493 H   0  0  0  0  0  0  0  0  0  0  0  0  # atno 10718 bound_to 10713
  153.1100  135.6694  153.9518 H   0  0  0  0  0  0  0  0  0  0  0  0  # atno 10763 bound_to 10752
  153.9064  135.3030  155.3450 H   0  0  0  0  0  0  0  0  0  0  0  0  # atno 10764 bound_to 10752
  154.7520  135.5030  153.9383 H   0  0  0  0  0  0  0  0  0  0  0  0  # atno 10765 bound_to 10752
  140.0423  134.9298  157.0866 H   0  0  0  0  0  0  0  0  0  0  0  0  # atno 11005 bound_to 11000
  145.9668  139.2840  143.1122 LP  0  0  0  0  0  0  0  0  0  0  0  0  # atno 17320 bound_to 7965
  145.9160  140.9148  143.0429 LP  0  0  0  0  0  0  0  0  0  0  0  0  # atno 17321 bound_to 7965
  139.7571  143.8691  152.3091 LP  0  0  0  0  0  0  0  0  0  0  0  0  # atno 17342 bound_to 10162
  139.8565  144.7139  150.9151 LP  0  0  0  0  0  0  0  0  0  0  0  0  # atno 17343 bound_to 10162
  157.6411  131.0910  150.8248 LP  0  0  0  0  0  0  0  0  0  0  0  0  # atno 17370 bound_to 10713
  156.8343  130.5026  149.5328 LP  0  0  0  0  0  0  0  0  0  0  0  0  # atno 17371 bound_to 10713
  140.4049  134.2043  155.7163 LP  0  0  0  0  0  0  0  0  0  0  0  0  # atno 17394 bound_to 11000
  141.1889  133.8249  157.0976 LP  0  0  0  0  0  0  0  0  0  0  0  0  # atno 17395 bound_to 11000

$$$$
