AV-unprocessed.smi:2943|AV-procd|sdf|11271|dock5
  -GOLD-   2272016163D 1   1.00000     0.00000
 Structure written by MMmdl.
 37 39  0  0  0  0  0  0  0  0  2 V2000
  150.6259  137.7223  154.3881 C   0  0  0  0  0  0  0  0  0  0  0  0
  150.3504  139.1441  154.7799 C   0  0  0  0  0  0  0  0  0  0  0  0
  151.1360  139.9355  155.5877 C   0  0  0  0  0  0  0  0  0  0  0  0
  152.4245  139.5764  156.2624 C   0  0  0  0  0  0  0  0  0  0  0  0
  150.5622  141.2030  155.7123 N   0  0  0  0  0  0  0  0  0  0  0  0
  151.1020  142.3187  156.4768 C   0  0  0  0  0  0  0  0  0  0  0  0
  151.0997  142.0331  157.9870 C   0  0  1  0  0  0  0  0  0  0  0  0
  152.4404  141.5437  158.5279 C   0  0  0  0  0  0  0  0  0  0  0  0
  152.3204  141.9019  159.9916 C   0  0  0  0  0  0  0  0  0  0  0  0
  151.5880  143.2401  159.9301 C   0  0  0  0  0  0  0  0  0  0  0  0
  150.8106  143.2118  158.7349 O   0  0  0  0  0  0  0  0  0  0  0  0
  149.3786  141.2222  154.9925 C   0  0  0  0  0  0  0  0  0  0  0  0
  148.4935  142.2454  154.8472 N   0  3  0  0  0  0  0  0  0  0  0  0
  147.4097  142.0144  154.0988 C   0  0  0  0  0  0  0  0  0  0  0  0
  147.1787  140.8359  153.5022 N   0  0  0  0  0  0  0  0  0  0  0  0
  148.0397  139.7959  153.6248 C   0  0  0  0  0  0  0  0  0  0  0  0
  147.7045  138.6138  152.9688 N   0  0  0  0  0  0  0  0  0  0  0  0
  149.2189  139.9458  154.4007 C   0  0  0  0  0  0  0  0  0  0  0  0
  151.6955  137.5170  154.3428 H   0  0  0  0  0  0  0  0  0  0  0  0
  150.2190  137.4921  153.4043 H   0  0  0  0  0  0  0  0  0  0  0  0
  150.1846  137.0268  155.1021 H   0  0  0  0  0  0  0  0  0  0  0  0
  152.5555  138.4962  156.3223 H   0  0  0  0  0  0  0  0  0  0  0  0
  152.4607  139.9597  157.2821 H   0  0  0  0  0  0  0  0  0  0  0  0
  153.2738  139.9865  155.7156 H   0  0  0  0  0  0  0  0  0  0  0  0
  152.1126  142.5372  156.1314 H   0  0  0  0  0  0  0  0  0  0  0  0
  150.5104  143.2089  156.2597 H   0  0  0  0  0  0  0  0  0  0  0  0
  150.3319  141.2962  158.2279 H   0  0  0  0  0  0  0  0  0  0  0  0
  152.6042  140.4789  158.3590 H   0  0  0  0  0  0  0  0  0  0  0  0
  153.2658  142.0951  158.0755 H   0  0  0  0  0  0  0  0  0  0  0  0
  151.7074  141.1615  160.5075 H   0  0  0  0  0  0  0  0  0  0  0  0
  153.2826  141.9638  160.5008 H   0  0  0  0  0  0  0  0  0  0  0  0
  150.9631  143.4092  160.8071 H   0  0  0  0  0  0  0  0  0  0  0  0
  152.3004  144.0628  159.8587 H   0  0  0  0  0  0  0  0  0  0  0  0
  146.7087  142.8289  153.9900 H   0  0  0  0  0  0  0  0  0  0  0  0
  146.8574  138.5330  152.4250 H   0  0  0  0  0  0  0  0  0  0  0  0
  148.3049  137.8024  153.0060 H   0  0  0  0  0  0  0  0  0  0  0  0
  148.6554  143.1441  155.3017 H   0  0  0  0  0  0  0  0  0  0  0  0
  1  2  1  0  0  0  0
  1 19  1  0  0  0  0
  1 20  1  0  0  0  0
  1 21  1  0  0  0  0
  2 18  1  0  0  0  0
  2  3  2  0  0  0  0
  3  4  1  0  0  0  0
  3  5  1  0  0  0  0
  4 22  1  0  0  0  0
  4 23  1  0  0  0  0
  4 24  1  0  0  0  0
  5  6  1  0  0  0  0
  5 12  1  0  0  0  0
  6  7  1  0  0  0  0
  6 25  1  0  0  0  0
  6 26  1  0  0  0  0
  7 11  1  0  0  0  0
  7  8  1  0  0  0  0
  7 27  1  0  0  0  0
  8  9  1  0  0  0  0
  8 28  1  0  0  0  0
  8 29  1  0  0  0  0
  9 10  1  0  0  0  0
  9 30  1  0  0  0  0
  9 31  1  0  0  0  0
 10 11  1  0  0  0  0
 10 32  1  0  0  0  0
 10 33  1  0  0  0  0
 12 18  1  0  0  0  0
 12 13  2  0  0  0  0
 13 14  1  0  0  0  0
 13 37  1  0  0  0  0
 14 15  2  0  0  0  0
 14 34  1  0  0  0  0
 15 16  1  0  0  0  0
 16 17  1  0  0  0  0
 16 18  2  0  0  0  0
 17 35  1  0  0  0  0
 17 36  1  0  0  0  0
M  CHG  1  13   1
M  END
> <s_m_source_file>
AV-unprocessed.smi

> <i_m_source_file_index>
2943

> <i_lp_mmshare_version>
43012

> <i_f3d_flags>
0

> <s_epik_input>
bjFbY0hdbmMoW05IMl0pYyhjMTIpYyhbQ0gzXSljKFtDSDNdKW4yW0NIMl1bQ0BASF0zW0NIMl1bQ0gyXVtDSDJdTzM=

> <s_epik_cmdline>
J2VwaWtfcHl0aG9uJywgJy1waCcsICc3LjAnLCAnLXRuJywgJzgnLCAnLW1hJywgJzIwMCcsICctbWV0YWxfYmluZGluZycsICctaW1hZScsICc8aW5maWxlLm1hZT4nLCAnLW9tYWUnLCAnPG91dGZpbGUubWFlPic=

> <r_epik_Ionization_Penalty>
2.35523

> <r_epik_Ionization_Penalty_Charging>
2.35518

> <r_epik_Ionization_Penalty_Neutral>
5.21205e-05

> <r_epik_State_Penalty>
2.50981

> <r_epik_Charging_Adjusted_Penalty>
4.86499

> <i_epik_Tot_Q>
1

> <i_epik_Tot_abs_Q>
1

> <r_epik_Metal_State_Penalty>
2.52087

> <b_epik_Metal_Only>
0

> <s_lp_Force_Field>
OPLS_2005

> <r_lp_Energy>
21.0174

> <b_lp_Chiralities_Consistent>
1

> <s_lp_Variant>
AV-unprocessed.smi:2943-4

> <Gold.Version>
5.8.1

> <Gold.Id.Protein>
6NUR|6NUR_protein|mol2

> <Gold.PLP.Fitness>
44.1804

> <Gold.PLP.PLP>
-36.8067

> <Gold.PLP.part.hbond>
-3.0000

> <Gold.PLP.part.metal>
0.0000

> <Gold.PLP.part.buried>
-1.7574

> <Gold.PLP.part.nonpolar>
-32.7961

> <Gold.PLP.part.repulsive>
0.5033

> <Gold.PLP.ligand.clash>
0.0000

> <Gold.PLP.ligand.torsion>
0.5510

> <Gold.PLP.Chemscore.Hbond>
2.8247

> <Gold.PLP.Chemscore.CHOScore>
0.0000

> <Gold.PLP.Chemscore.Metal>
0.0000

> <Gold.Chemscore.Hbonds>
donor molecule, donor type, donor heavy atom, donor atom, acceptor molecule, acceptor atom, score
      L1  H    13    37       P1  8028  2.00
      L1  H    17    36       P1  7948  0.82

> <Gold.PLP.Chemscore.Internal.Correction>
0.0015

> <Gold.Rescore>
     Score         DG    S(hbond)    S(metal)    S(lipo)     H(rot)  DE(clash)    DE(int)     intcor
     15.62     -17.60       1.85        0.00      78.71       1.27       1.31       0.67       ----

> <Gold.Chemscore.Fitness>
15.6221

> <Gold.Chemscore.DG>
-17.6016

> <Gold.Chemscore.ZeroCoef>
-5.4800

> <Gold.Chemscore.Hbond>
1.8474

> <Gold.Chemscore.Metal>
0.0000

> <Gold.Chemscore.Lipo>
78.7074

> <Gold.Chemscore.Internal_Hbond>
0.0000

> <Gold.Chemscore.DEClash>
1.3051

> <Gold.Chemscore.DEInternal>
0.6744

> <Gold.Chemscore.Rot>
1.2725

> <Gold.Chemscore.Internal.Correction>
   9.000000E+99

> <Gold.Chemscore.Hbonds>
donor molecule, donor type, donor heavy atom, donor atom, acceptor molecule, acceptor atom, score
      L1  H    13    37       P1  8028  0.99
      L1  H    17    36       P1  7948  0.75

> <Gold.Chemscore.Hbond.Weighted>
-6.1704

> <Gold.Chemscore.Metal.Weighted>
-0.0000

> <Gold.Chemscore.Lipo.Weighted>
-9.2088

> <Gold.Chemscore.Internal_Hbond.Weighted>
0.0000

> <Gold.Chemscore.DEClash.Weighted>
1.3051

> <Gold.Chemscore.DEInternal.Weighted>
0.6744

> <Gold.Chemscore.Rot.Weighted>
3.2576

> <Gold.Chemscore.Internal.Correction.Weighted>
   9.000000E+99

> <Gold.Protein.RotatedTorsions>
[ 6907 6896 6895 6894 ] final   -6.72 input  -60.11 | X-H torsion
[ 7974 7965 7964 7962 ] final  -44.13 input  175.53 | X-H torsion
[ 8008 7997 7996 7995 ] final  126.18 input   59.86 | X-H torsion
[ 10167 10162 10161 10158 ] final -140.90 input  -65.29 | X-H torsion
[ 10718 10713 10712 10709 ] final   82.54 input   66.30 | X-H torsion
[ 10763 10752 10751 10750 ] final  -95.99 input  -60.55 | X-H torsion
[ 11005 11000 10999 10996 ] final  160.64 input  -57.11 | X-H torsion

> <Gold.Protein.ActiveResidues>
 VAL166  LYS551  ARG553  GLY616  TRP617  ASP618  TYR619  PRO620  LYS621  CYS622 
 ASP623  PHE694  ASN695  SER759  ASP760  ASP761  ALA762  ILE779  LEU786  VAL792 
 PHE793  MET794  SER795  GLU796  ALA797  LYS798  CYS799  TRP800  GLU811  SER814 

> <Gold.Protein.RotatedAtoms>
  151.4610  135.1038  159.9724 H   0  0  0  0  0  0  0  0  0  0  0  0  # atno 6907 bound_to 6896
  152.4853  133.8352  159.7134 H   0  0  0  0  0  0  0  0  0  0  0  0  # atno 6908 bound_to 6896
  150.8957  133.7124  159.2919 H   0  0  0  0  0  0  0  0  0  0  0  0  # atno 6909 bound_to 6896
  145.9951  140.7138  142.9298 H   0  0  0  0  0  0  0  0  0  0  0  0  # atno 7974 bound_to 7965
  156.2856  140.2699  156.2069 H   0  0  0  0  0  0  0  0  0  0  0  0  # atno 8008 bound_to 7997
  155.0304  140.0386  157.2490 H   0  0  0  0  0  0  0  0  0  0  0  0  # atno 8009 bound_to 7997
  154.7359  140.2715  155.6420 H   0  0  0  0  0  0  0  0  0  0  0  0  # atno 8010 bound_to 7997
  139.8236  143.7540  152.2666 H   0  0  0  0  0  0  0  0  0  0  0  0  # atno 10167 bound_to 10162
  157.6859  131.0052  150.2390 H   0  0  0  0  0  0  0  0  0  0  0  0  # atno 10718 bound_to 10713
  154.7199  135.5100  153.8796 H   0  0  0  0  0  0  0  0  0  0  0  0  # atno 10763 bound_to 10752
  153.0853  135.6643  153.9970 H   0  0  0  0  0  0  0  0  0  0  0  0  # atno 10764 bound_to 10752
  153.9795  135.3030  155.3400 H   0  0  0  0  0  0  0  0  0  0  0  0  # atno 10765 bound_to 10752
  140.2079  134.8289  157.3089 H   0  0  0  0  0  0  0  0  0  0  0  0  # atno 11005 bound_to 11000
  144.6901  140.3136  143.7244 LP  0  0  0  0  0  0  0  0  0  0  0  0  # atno 17320 bound_to 7965
  145.7572  139.1813  143.2287 LP  0  0  0  0  0  0  0  0  0  0  0  0  # atno 17321 bound_to 7965
  139.7726  144.7471  151.0202 LP  0  0  0  0  0  0  0  0  0  0  0  0  # atno 17342 bound_to 10162
  140.7811  143.4628  151.0254 LP  0  0  0  0  0  0  0  0  0  0  0  0  # atno 17343 bound_to 10162
  156.3008  130.3758  149.7752 LP  0  0  0  0  0  0  0  0  0  0  0  0  # atno 17370 bound_to 10713
  156.5383  130.8288  151.3260 LP  0  0  0  0  0  0  0  0  0  0  0  0  # atno 17371 bound_to 10713
  140.1982  134.4287  155.7677 LP  0  0  0  0  0  0  0  0  0  0  0  0  # atno 17394 bound_to 11000
  141.2227  133.7059  156.8140 LP  0  0  0  0  0  0  0  0  0  0  0  0  # atno 17395 bound_to 11000

$$$$
