AV-unprocessed.smi:3031|AV-procd|sdf|11554|dock2
  -GOLD-   2272016513D 1   1.00000     0.00000
 Structure written by MMmdl.
 46 47  0  0  0  0  0  0  0  0  1 V2000
  144.3394  132.4361  149.0160 C   0  0  0  0  0  0  0  0  0  0  0  0
  145.0912  133.1894  150.0751 C   0  0  0  0  0  0  0  0  0  0  0  0
  146.2518  132.7752  150.7886 C   0  0  0  0  0  0  0  0  0  0  0  0
  146.6661  133.6769  151.6635 N   0  0  0  0  0  0  0  0  0  0  0  0
  145.8004  134.7046  151.5279 N   0  0  0  0  0  0  0  0  0  0  0  0
  145.9426  135.8840  152.3667 C   0  0  0  0  0  0  0  0  0  0  0  0
  144.7703  136.8894  152.2412 C   0  0  1  0  0  0  0  0  0  0  0  0
  143.4518  136.2266  152.6648 C   0  0  0  0  0  0  0  0  0  0  0  0
  144.9601  138.1042  153.0440 N   0  0  0  0  0  0  0  0  0  0  0  0
  146.3368  138.5751  153.1910 C   0  0  0  0  0  0  0  0  0  0  0  0
  146.5052  139.4189  154.4646 C   0  0  2  0  0  0  0  0  0  0  0  0
  145.2914  140.1122  154.6690 O   0  0  0  0  0  0  0  0  0  0  0  0
  147.6375  140.4604  154.3273 C   0  0  0  0  0  0  0  0  0  0  0  0
  148.8980  140.1193  154.9891 N   0  0  0  0  0  0  0  0  0  0  0  0
  149.6968  141.3163  155.2305 C   0  0  0  0  0  0  0  0  0  0  0  0
  151.0268  140.9899  155.9306 C   0  0  0  0  0  0  0  0  0  0  0  0
  151.7575  140.0532  155.1463 O   0  0  0  0  0  0  0  0  0  0  0  0
  151.0350  138.8475  154.9192 C   0  0  0  0  0  0  0  0  0  0  0  0
  149.6984  139.1641  154.2246 C   0  0  0  0  0  0  0  0  0  0  0  0
  144.8274  134.4268  150.5901 C   0  0  0  0  0  0  0  0  0  0  0  0
  144.8323  131.4986  148.7570 H   0  0  0  0  0  0  0  0  0  0  0  0
  144.2509  133.0162  148.0971 H   0  0  0  0  0  0  0  0  0  0  0  0
  143.3284  132.1888  149.3397 H   0  0  0  0  0  0  0  0  0  0  0  0
  146.7999  131.8488  150.6997 H   0  0  0  0  0  0  0  0  0  0  0  0
  146.0106  135.5240  153.3940 H   0  0  0  0  0  0  0  0  0  0  0  0
  146.8934  136.3762  152.1544 H   0  0  0  0  0  0  0  0  0  0  0  0
  144.6527  137.1711  151.1943 H   0  0  0  0  0  0  0  0  0  0  0  0
  143.2303  135.3578  152.0442 H   0  0  0  0  0  0  0  0  0  0  0  0
  142.6134  136.9173  152.5676 H   0  0  0  0  0  0  0  0  0  0  0  0
  143.4901  135.8929  153.7024 H   0  0  0  0  0  0  0  0  0  0  0  0
  144.3898  138.8515  152.6611 H   0  0  0  0  0  0  0  0  0  0  0  0
  147.0319  137.7382  153.2256 H   0  0  0  0  0  0  0  0  0  0  0  0
  146.6068  139.1767  152.3219 H   0  0  0  0  0  0  0  0  0  0  0  0
  146.6674  138.7526  155.3112 H   0  0  0  0  0  0  0  0  0  0  0  0
  144.8177  140.1333  153.8516 H   0  0  0  0  0  0  0  0  0  0  0  0
  147.8355  140.6407  153.2697 H   0  0  0  0  0  0  0  0  0  0  0  0
  147.2707  141.4098  154.7206 H   0  0  0  0  0  0  0  0  0  0  0  0
  149.9026  141.8206  154.2850 H   0  0  0  0  0  0  0  0  0  0  0  0
  149.1326  142.0207  155.8428 H   0  0  0  0  0  0  0  0  0  0  0  0
  151.6229  141.8941  156.0537 H   0  0  0  0  0  0  0  0  0  0  0  0
  150.8500  140.5830  156.9276 H   0  0  0  0  0  0  0  0  0  0  0  0
  151.6366  138.1836  154.2984 H   0  0  0  0  0  0  0  0  0  0  0  0
  150.8650  138.3339  155.8668 H   0  0  0  0  0  0  0  0  0  0  0  0
  149.1530  138.2313  154.0884 H   0  0  0  0  0  0  0  0  0  0  0  0
  149.8956  139.5604  153.2275 H   0  0  0  0  0  0  0  0  0  0  0  0
  144.0373  135.1275  150.3643 H   0  0  0  0  0  0  0  0  0  0  0  0
  1  2  1  0  0  0  0
  1 21  1  0  0  0  0
  1 22  1  0  0  0  0
  1 23  1  0  0  0  0
  2 20  2  0  0  0  0
  2  3  1  0  0  0  0
  3  4  2  0  0  0  0
  3 24  1  0  0  0  0
  4  5  1  0  0  0  0
  5  6  1  0  0  0  0
  5 20  1  0  0  0  0
  6  7  1  0  0  0  0
  6 25  1  0  0  0  0
  6 26  1  0  0  0  0
  7  8  1  0  0  0  0
  7  9  1  0  0  0  0
  7 27  1  0  0  0  0
  8 28  1  0  0  0  0
  8 29  1  0  0  0  0
  8 30  1  0  0  0  0
  9 10  1  0  0  0  0
  9 31  1  0  0  0  0
 10 11  1  0  0  0  0
 10 32  1  0  0  0  0
 10 33  1  0  0  0  0
 11 12  1  0  0  0  0
 11 13  1  0  0  0  0
 11 34  1  0  0  0  0
 12 35  1  0  0  0  0
 13 14  1  0  0  0  0
 13 36  1  0  0  0  0
 13 37  1  0  0  0  0
 14 19  1  0  0  0  0
 14 15  1  0  0  0  0
 15 16  1  0  0  0  0
 15 38  1  0  0  0  0
 15 39  1  0  0  0  0
 16 17  1  0  0  0  0
 16 40  1  0  0  0  0
 16 41  1  0  0  0  0
 17 18  1  0  0  0  0
 18 19  1  0  0  0  0
 18 42  1  0  0  0  0
 18 43  1  0  0  0  0
 19 44  1  0  0  0  0
 19 45  1  0  0  0  0
 20 46  1  0  0  0  0
M  END
> <s_m_source_file>
AV-unprocessed.smi

> <i_m_source_file_index>
3031

> <i_lp_mmshare_version>
43012

> <i_f3d_flags>
0

> <s_epik_input>
W0NIM11jMVtjSF1ubihbY0hdMSlbQ0gyXVtDQEhdKFtDSDNdKVtOSF1bQ0gyXVtDQEhdKFtPSF0pW0NIMl1OMltDSDJdW0NIMl1PW0NIMl1bQ0gyXTI=

> <s_epik_cmdline>
J2VwaWtfcHl0aG9uJywgJy1waCcsICc3LjAnLCAnLXRuJywgJzgnLCAnLW1hJywgJzIwMCcsICctbWV0YWxfYmluZGluZycsICctaW1hZScsICc8aW5maWxlLm1hZT4nLCAnLW9tYWUnLCAnPG91dGZpbGUubWFlPic=

> <r_lp_tautomer_probability>
1

> <r_epik_Ionization_Penalty>
2.8101

> <r_epik_Ionization_Penalty_Charging>
0

> <r_epik_Ionization_Penalty_Neutral>
2.8101

> <r_epik_State_Penalty>
2.12351

> <r_epik_Charging_Adjusted_Penalty>
2.12351

> <i_epik_Tot_Q>
0

> <i_epik_Tot_abs_Q>
0

> <r_epik_Metal_State_Penalty>
2.12345

> <b_epik_Metal_Only>
0

> <s_lp_Force_Field>
OPLS_2005

> <r_lp_Energy>
32.7569

> <b_lp_Chiralities_Consistent>
1

> <s_lp_Variant>
AV-unprocessed.smi:3031-14

> <Gold.Version>
5.8.1

> <Gold.Id.Protein>
6NUR|6NUR_protein|mol2

> <Gold.PLP.Fitness>
45.0379

> <Gold.PLP.PLP>
-35.6736

> <Gold.PLP.part.hbond>
-3.0000

> <Gold.PLP.part.metal>
0.0000

> <Gold.PLP.part.buried>
-3.6412

> <Gold.PLP.part.nonpolar>
-29.3819

> <Gold.PLP.part.repulsive>
0.2788

> <Gold.PLP.ligand.clash>
0.0000

> <Gold.PLP.ligand.torsion>
1.5507

> <Gold.PLP.Chemscore.Hbond>
2.9600

> <Gold.PLP.Chemscore.CHOScore>
0.9989

> <Gold.PLP.Chemscore.Metal>
0.0000

> <Gold.Chemscore.Hbonds>
donor molecule, donor type, donor heavy atom, donor atom, acceptor molecule, acceptor atom, score
      L1  H     9    31       P1 10175  1.00
      L1  H    12    35       P1 10175  1.00
      P1  H  7989  7998       L1    17  0.94
      L1  C     3    24       P1 10747  1.00

> <Gold.PLP.Chemscore.Internal.Correction>
0.5891

> <Gold.Rescore>
     Score         DG    S(hbond)    S(metal)    S(lipo)     H(rot)  DE(clash)    DE(int)     intcor
     16.10     -17.84       2.47        0.00      90.45       2.53       0.08       1.66       ----

> <Gold.Chemscore.Fitness>
16.1023

> <Gold.Chemscore.DG>
-17.8424

> <Gold.Chemscore.ZeroCoef>
-5.4800

> <Gold.Chemscore.Hbond>
2.4745

> <Gold.Chemscore.Metal>
0.0000

> <Gold.Chemscore.Lipo>
90.4506

> <Gold.Chemscore.Internal_Hbond>
0.0000

> <Gold.Chemscore.DEClash>
0.0788

> <Gold.Chemscore.DEInternal>
1.6612

> <Gold.Chemscore.Rot>
2.5333

> <Gold.Chemscore.Internal.Correction>
   9.000000E+99

> <Gold.Chemscore.Hbonds>
donor molecule, donor type, donor heavy atom, donor atom, acceptor molecule, acceptor atom, score
      L1  H     9    31       P1 10175  1.00
      L1  H    12    35       P1 10175  1.00
      P1  H  7989  7998       L1    17  0.08

> <Gold.Chemscore.Hbond.Weighted>
-8.2648

> <Gold.Chemscore.Metal.Weighted>
-0.0000

> <Gold.Chemscore.Lipo.Weighted>
-10.5827

> <Gold.Chemscore.Internal_Hbond.Weighted>
0.0000

> <Gold.Chemscore.DEClash.Weighted>
0.0788

> <Gold.Chemscore.DEInternal.Weighted>
1.6612

> <Gold.Chemscore.Rot.Weighted>
6.4852

> <Gold.Chemscore.Internal.Correction.Weighted>
   9.000000E+99

> <Gold.Protein.RotatedTorsions>
[ 6907 6896 6895 6894 ] final -129.24 input  -60.11 | X-H torsion
[ 7974 7965 7964 7962 ] final   56.25 input  175.53 | X-H torsion
[ 8008 7997 7996 7995 ] final  -82.84 input   59.86 | X-H torsion
[ 10167 10162 10161 10158 ] final  -79.16 input  -65.29 | X-H torsion
[ 10718 10713 10712 10709 ] final   -6.75 input   66.30 | X-H torsion
[ 10763 10752 10751 10750 ] final  -84.10 input  -60.55 | X-H torsion
[ 11005 11000 10999 10996 ] final  172.34 input  -57.11 | X-H torsion

> <Gold.Protein.ActiveResidues>
 VAL166  LYS551  ARG553  GLY616  TRP617  ASP618  TYR619  PRO620  LYS621  CYS622 
 ASP623  PHE694  ASN695  SER759  ASP760  ASP761  ALA762  ILE779  LEU786  VAL792 
 PHE793  MET794  SER795  GLU796  ALA797  LYS798  CYS799  TRP800  GLU811  SER814 

> <Gold.Protein.RotatedAtoms>
  150.9266  133.6817  159.2819 H   0  0  0  0  0  0  0  0  0  0  0  0  # atno 6907 bound_to 6896
  151.4253  135.1002  159.9636 H   0  0  0  0  0  0  0  0  0  0  0  0  # atno 6908 bound_to 6896
  152.5005  133.8708  159.7352 H   0  0  0  0  0  0  0  0  0  0  0  0  # atno 6909 bound_to 6896
  145.9418  139.3895  143.0359 H   0  0  0  0  0  0  0  0  0  0  0  0  # atno 7974 bound_to 7965
  154.6128  140.0627  156.9515 H   0  0  0  0  0  0  0  0  0  0  0  0  # atno 8008 bound_to 7997
  155.1945  140.3310  155.4335 H   0  0  0  0  0  0  0  0  0  0  0  0  # atno 8009 bound_to 7997
  156.2386  140.1875  156.7033 H   0  0  0  0  0  0  0  0  0  0  0  0  # atno 8010 bound_to 7997
  140.4618  143.2451  151.8337 H   0  0  0  0  0  0  0  0  0  0  0  0  # atno 10167 bound_to 10162
  156.7273  130.5169  149.5854 H   0  0  0  0  0  0  0  0  0  0  0  0  # atno 10718 bound_to 10713
  154.5955  135.5533  153.7321 H   0  0  0  0  0  0  0  0  0  0  0  0  # atno 10763 bound_to 10752
  153.0133  135.6353  154.1788 H   0  0  0  0  0  0  0  0  0  0  0  0  # atno 10764 bound_to 10752
  154.1729  135.2891  155.3055 H   0  0  0  0  0  0  0  0  0  0  0  0  # atno 10765 bound_to 10752
  140.3287  134.7376  157.4118 H   0  0  0  0  0  0  0  0  0  0  0  0  # atno 11005 bound_to 11000
  145.8289  140.9641  143.0859 LP  0  0  0  0  0  0  0  0  0  0  0  0  # atno 17320 bound_to 7965
  144.6780  140.0137  143.7484 LP  0  0  0  0  0  0  0  0  0  0  0  0  # atno 17321 bound_to 7965
  139.4807  144.4999  151.9075 LP  0  0  0  0  0  0  0  0  0  0  0  0  # atno 17342 bound_to 10162
  140.4084  144.2401  150.5890 LP  0  0  0  0  0  0  0  0  0  0  0  0  # atno 17343 bound_to 10162
  156.1553  130.6338  151.0649 LP  0  0  0  0  0  0  0  0  0  0  0  0  # atno 17370 bound_to 10713
  157.6873  131.0821  150.7206 LP  0  0  0  0  0  0  0  0  0  0  0  0  # atno 17371 bound_to 10713
  140.0879  134.5641  155.8473 LP  0  0  0  0  0  0  0  0  0  0  0  0  # atno 17394 bound_to 11000
  141.2069  133.6659  156.6270 LP  0  0  0  0  0  0  0  0  0  0  0  0  # atno 17395 bound_to 11000

$$$$
