AV-unprocessed.smi:3204|AV-procd|sdf|12250|dock9
  -GOLD-   2272018 83D 1   1.00000     0.00000
 Structure written by MMmdl.
 30 31  0  0  0  0  0  0  0  0  1 V2000
  152.9443  142.3762  159.5029 C   0  0  0  0  0  0  0  0  0  0  0  0
  152.3765  140.9698  159.2811 C   0  0  0  0  0  0  0  0  0  0  0  0
  151.9689  140.7325  157.8388 C   0  0  0  0  0  0  0  0  0  0  0  0
  152.5746  139.7083  157.1969 N   0  0  0  0  0  0  0  0  0  0  0  0
  152.2145  139.4967  155.9286 C   0  0  0  0  0  0  0  0  0  0  0  0
  151.3145  140.1907  155.2272 N   0  0  0  0  0  0  0  0  0  0  0  0
  150.6945  141.2169  155.8576 C   0  0  0  0  0  0  0  0  0  0  0  0
  149.7417  141.9799  155.1676 N   0  0  0  0  0  0  0  0  0  0  0  0
  148.7907  141.3656  154.2477 C   0  0  2  0  0  0  0  0  0  0  0  0
  147.3874  141.9457  154.4322 C   0  0  0  0  0  0  0  0  0  0  0  0
  146.5339  140.8938  154.0204 O   0  0  0  0  0  0  0  0  0  0  0  0
  147.0621  139.6957  154.5672 C   0  0  0  0  0  0  0  0  0  0  0  0
  148.5848  139.8677  154.4969 C   0  0  1  0  0  0  0  0  0  0  0  0
  149.0913  139.1127  153.4152 O   0  0  0  0  0  0  0  0  0  0  0  0
  150.9965  141.5330  157.1999 C   0  0  0  0  0  0  0  0  0  0  0  0
  150.3800  142.5543  157.8438 F   0  0  0  0  0  0  0  0  0  0  0  0
  153.2303  142.5192  160.5451 H   0  0  0  0  0  0  0  0  0  0  0  0
  152.2106  143.1424  159.2509 H   0  0  0  0  0  0  0  0  0  0  0  0
  153.8294  142.5434  158.8885 H   0  0  0  0  0  0  0  0  0  0  0  0
  153.1116  140.2224  159.5811 H   0  0  0  0  0  0  0  0  0  0  0  0
  151.5089  140.8176  159.9248 H   0  0  0  0  0  0  0  0  0  0  0  0
  152.7010  138.6798  155.4168 H   0  0  0  0  0  0  0  0  0  0  0  0
  149.6606  142.9672  155.3637 H   0  0  0  0  0  0  0  0  0  0  0  0
  149.1003  141.5414  153.2160 H   0  0  0  0  0  0  0  0  0  0  0  0
  147.1817  142.1757  155.4795 H   0  0  0  0  0  0  0  0  0  0  0  0
  147.2262  142.8504  153.8456 H   0  0  0  0  0  0  0  0  0  0  0  0
  146.7407  139.6179  155.6070 H   0  0  0  0  0  0  0  0  0  0  0  0
  146.6934  138.8159  154.0383 H   0  0  0  0  0  0  0  0  0  0  0  0
  149.0502  139.5245  155.4221 H   0  0  0  0  0  0  0  0  0  0  0  0
  149.3252  139.7100  152.7208 H   0  0  0  0  0  0  0  0  0  0  0  0
  1  2  1  0  0  0  0
  1 17  1  0  0  0  0
  1 18  1  0  0  0  0
  1 19  1  0  0  0  0
  2  3  1  0  0  0  0
  2 20  1  0  0  0  0
  2 21  1  0  0  0  0
  3 15  1  0  0  0  0
  3  4  2  0  0  0  0
  4  5  1  0  0  0  0
  5  6  2  0  0  0  0
  5 22  1  0  0  0  0
  6  7  1  0  0  0  0
  7  8  1  0  0  0  0
  7 15  2  0  0  0  0
  8  9  1  0  0  0  0
  8 23  1  0  0  0  0
  9 13  1  0  0  0  0
  9 10  1  0  0  0  0
  9 24  1  0  0  0  0
 10 11  1  0  0  0  0
 10 25  1  0  0  0  0
 10 26  1  0  0  0  0
 11 12  1  0  0  0  0
 12 13  1  0  0  0  0
 12 27  1  0  0  0  0
 12 28  1  0  0  0  0
 13 14  1  0  0  0  0
 13 29  1  0  0  0  0
 14 30  1  0  0  0  0
 15 16  1  0  0  0  0
M  END
> <s_m_source_file>
AV-unprocessed.smi

> <i_m_source_file_index>
3204

> <i_lp_mmshare_version>
43012

> <i_f3d_flags>
0

> <s_epik_input>
W0NIM11bQ0gyXWMxbltjSF1uYyhjMUYpW05IXVtDQEBIXTJbQ0gyXU9bQ0gyXVtDQEhdMltPSF0=

> <s_epik_cmdline>
J2VwaWtfcHl0aG9uJywgJy1waCcsICc3LjAnLCAnLXRuJywgJzgnLCAnLW1hJywgJzIwMCcsICctbWV0YWxfYmluZGluZycsICctaW1hZScsICc8aW5maWxlLm1hZT4nLCAnLW9tYWUnLCAnPG91dGZpbGUubWFlPic=

> <r_lp_tautomer_probability>
1

> <r_epik_Ionization_Penalty>
0.000484964

> <r_epik_Ionization_Penalty_Charging>
0

> <r_epik_Ionization_Penalty_Neutral>
0.000484964

> <r_epik_State_Penalty>
-0

> <r_epik_Charging_Adjusted_Penalty>
0

> <i_epik_Tot_Q>
0

> <i_epik_Tot_abs_Q>
0

> <r_epik_Metal_State_Penalty>
-0

> <b_epik_Metal_Only>
0

> <s_lp_Force_Field>
OPLS_2005

> <r_lp_Energy>
13.6654

> <b_lp_Chiralities_Consistent>
1

> <s_lp_Variant>
AV-unprocessed.smi:3204-1

> <Gold.Version>
5.8.1

> <Gold.Id.Protein>
6NUR|6NUR_protein|mol2

> <Gold.PLP.Fitness>
42.7245

> <Gold.PLP.PLP>
-31.8410

> <Gold.PLP.part.hbond>
-3.9369

> <Gold.PLP.part.metal>
0.0000

> <Gold.PLP.part.buried>
-3.5154

> <Gold.PLP.part.nonpolar>
-23.8635

> <Gold.PLP.part.repulsive>
0.4216

> <Gold.PLP.ligand.clash>
0.0000

> <Gold.PLP.ligand.torsion>
0.5633

> <Gold.PLP.Chemscore.Hbond>
4.0000

> <Gold.PLP.Chemscore.CHOScore>
0.0000

> <Gold.PLP.Chemscore.Metal>
0.0000

> <Gold.Chemscore.Hbonds>
donor molecule, donor type, donor heavy atom, donor atom, acceptor molecule, acceptor atom, score
      L1  H     8    23       P1  8028  1.00
      L1  H    14    30       P1  7957  1.00
      P1  H  7989  7998       L1     6  1.00
      P1  H  7997  8010       L1     4  0.65

> <Gold.PLP.Chemscore.Internal.Correction>
0.0100

> <Gold.Rescore>
     Score         DG    S(hbond)    S(metal)    S(lipo)     H(rot)  DE(clash)    DE(int)     intcor
     16.20     -17.98       3.29        0.00      53.09       1.83       0.04       1.73       ----

> <Gold.Chemscore.Fitness>
16.2022

> <Gold.Chemscore.DG>
-17.9763

> <Gold.Chemscore.ZeroCoef>
-5.4800

> <Gold.Chemscore.Hbond>
3.2872

> <Gold.Chemscore.Metal>
0.0000

> <Gold.Chemscore.Lipo>
53.0886

> <Gold.Chemscore.Internal_Hbond>
0.0000

> <Gold.Chemscore.DEClash>
0.0444

> <Gold.Chemscore.DEInternal>
1.7296

> <Gold.Chemscore.Rot>
1.8337

> <Gold.Chemscore.Internal.Correction>
   9.000000E+99

> <Gold.Chemscore.Hbonds>
donor molecule, donor type, donor heavy atom, donor atom, acceptor molecule, acceptor atom, score
      L1  H     8    23       P1  8028  0.99
      L1  H    14    30       P1  7957  0.95
      P1  H  7989  7998       L1     6  0.38
      P1  H  7997  8010       L1     4  0.05

> <Gold.Chemscore.Hbond.Weighted>
-10.9791

> <Gold.Chemscore.Metal.Weighted>
-0.0000

> <Gold.Chemscore.Lipo.Weighted>
-6.2114

> <Gold.Chemscore.Internal_Hbond.Weighted>
0.0000

> <Gold.Chemscore.DEClash.Weighted>
0.0444

> <Gold.Chemscore.DEInternal.Weighted>
1.7296

> <Gold.Chemscore.Rot.Weighted>
4.6942

> <Gold.Chemscore.Internal.Correction.Weighted>
   9.000000E+99

> <Gold.Protein.RotatedTorsions>
[ 6907 6896 6895 6894 ] final  145.74 input  -60.11 | X-H torsion
[ 7974 7965 7964 7962 ] final -143.94 input  175.53 | X-H torsion
[ 8008 7997 7996 7995 ] final   54.43 input   59.86 | X-H torsion
[ 10167 10162 10161 10158 ] final   52.38 input  -65.29 | X-H torsion
[ 10718 10713 10712 10709 ] final  168.56 input   66.30 | X-H torsion
[ 10763 10752 10751 10750 ] final -116.88 input  -60.55 | X-H torsion
[ 11005 11000 10999 10996 ] final  149.68 input  -57.11 | X-H torsion

> <Gold.Protein.ActiveResidues>
 VAL166  LYS551  ARG553  GLY616  TRP617  ASP618  TYR619  PRO620  LYS621  CYS622 
 ASP623  PHE694  ASN695  SER759  ASP760  ASP761  ALA762  ILE779  LEU786  VAL792 
 PHE793  MET794  SER795  GLU796  ALA797  LYS798  CYS799  TRP800  GLU811  SER814 

> <Gold.Protein.RotatedAtoms>
  152.1770  133.4681  159.4938 H   0  0  0  0  0  0  0  0  0  0  0  0  # atno 6907 bound_to 6896
  150.6928  134.1881  159.4284 H   0  0  0  0  0  0  0  0  0  0  0  0  # atno 6908 bound_to 6896
  151.9791  135.0037  160.0607 H   0  0  0  0  0  0  0  0  0  0  0  0  # atno 6909 bound_to 6896
  144.8333  140.5772  143.5501 H   0  0  0  0  0  0  0  0  0  0  0  0  # atno 7974 bound_to 7965
  155.4846  140.3469  155.4345 H   0  0  0  0  0  0  0  0  0  0  0  0  # atno 8008 bound_to 7997
  156.1016  140.1437  156.9488 H   0  0  0  0  0  0  0  0  0  0  0  0  # atno 8009 bound_to 7997
  154.4698  140.0905  156.7092 H   0  0  0  0  0  0  0  0  0  0  0  0  # atno 8010 bound_to 7997
  140.2519  144.3469  150.6345 H   0  0  0  0  0  0  0  0  0  0  0  0  # atno 10167 bound_to 10162
  157.0353  131.0271  151.2731 H   0  0  0  0  0  0  0  0  0  0  0  0  # atno 10718 bound_to 10713
  154.8535  135.4329  154.1892 H   0  0  0  0  0  0  0  0  0  0  0  0  # atno 10763 bound_to 10752
  153.2964  135.6965  153.7250 H   0  0  0  0  0  0  0  0  0  0  0  0  # atno 10764 bound_to 10752
  153.6397  135.3470  155.3042 H   0  0  0  0  0  0  0  0  0  0  0  0  # atno 10765 bound_to 10752
  140.1066  134.8950  157.1874 H   0  0  0  0  0  0  0  0  0  0  0  0  # atno 11005 bound_to 11000
  145.4849  139.1492  143.3741 LP  0  0  0  0  0  0  0  0  0  0  0  0  # atno 17320 bound_to 7965
  146.2634  140.4986  142.8844 LP  0  0  0  0  0  0  0  0  0  0  0  0  # atno 17321 bound_to 7965
  140.6033  143.2167  151.7029 LP  0  0  0  0  0  0  0  0  0  0  0  0  # atno 17342 bound_to 10162
  139.5043  144.3758  152.0425 LP  0  0  0  0  0  0  0  0  0  0  0  0  # atno 17343 bound_to 10162
  157.5146  130.7960  149.7742 LP  0  0  0  0  0  0  0  0  0  0  0  0  # atno 17370 bound_to 10713
  156.0056  130.3857  150.2444 LP  0  0  0  0  0  0  0  0  0  0  0  0  # atno 17371 bound_to 10713
  140.3148  134.2983  155.7259 LP  0  0  0  0  0  0  0  0  0  0  0  0  # atno 17394 bound_to 11000
  141.2119  133.7673  156.9827 LP  0  0  0  0  0  0  0  0  0  0  0  0  # atno 17395 bound_to 11000

$$$$
