AV-unprocessed.smi:2992|AV-procd|sdf|11401|dock3
  -GOLD-   2272016323D 1   1.00000     0.00000
 Structure written by MMmdl.
 46 47  0  0  0  0  0  0  0  0  1 V2000
  152.7065  144.8629  157.9267 C   0  0  0  0  0  0  0  0  0  0  0  0
  151.8436  144.3977  159.1191 C   0  0  0  0  0  0  0  0  0  0  0  0
  152.5979  143.2712  159.8517 C   0  0  0  0  0  0  0  0  0  0  0  0
  151.6552  145.5766  160.0985 C   0  0  0  0  0  0  0  0  0  0  0  0
  150.4713  143.8328  158.6514 C   0  0  0  0  0  0  0  0  0  0  0  0
  150.5329  142.5229  157.8550 C   0  0  0  0  0  0  0  0  0  0  0  0
  150.8885  141.4800  158.4035 O   0  0  0  0  0  0  0  0  0  0  0  0
  150.1742  142.5940  156.5639 N   0  0  0  0  0  0  0  0  0  0  0  0
  150.2270  141.4952  155.6064 C   0  0  0  0  0  0  0  0  0  0  0  0
  148.8818  141.2351  154.9506 C   0  0  0  0  0  0  0  0  0  0  0  0
  148.6921  140.1252  154.1032 C   0  0  0  0  0  0  0  0  0  0  0  0
  147.4299  139.9460  153.5089 C   0  0  0  0  0  0  0  0  0  0  0  0
  146.3909  140.7821  153.7133 N   0  0  0  0  0  0  0  0  0  0  0  0
  146.5578  141.8494  154.5335 C   0  0  0  0  0  0  0  0  0  0  0  0
  145.4602  142.7137  154.7388 N   0  0  0  0  0  0  0  0  0  0  0  0
  145.3985  143.8809  153.8620 C   0  0  0  0  0  0  0  0  0  0  0  0
  144.0217  144.5594  153.9689 C   0  0  0  0  0  0  0  0  0  0  0  0
  143.7417  144.8735  155.3289 O   0  0  0  0  0  0  0  0  0  0  0  0
  143.6951  143.7059  156.1418 C   0  0  0  0  0  0  0  0  0  0  0  0
  145.0626  143.0028  156.1155 C   0  0  0  0  0  0  0  0  0  0  0  0
  147.7967  142.1094  155.1678 C   0  0  0  0  0  0  0  0  0  0  0  0
  153.7060  145.1538  158.2521 H   0  0  0  0  0  0  0  0  0  0  0  0
  152.2751  145.7276  157.4221 H   0  0  0  0  0  0  0  0  0  0  0  0
  152.8211  144.0700  157.1867 H   0  0  0  0  0  0  0  0  0  0  0  0
  152.7717  142.4175  159.1956 H   0  0  0  0  0  0  0  0  0  0  0  0
  152.0367  142.9118  160.7151 H   0  0  0  0  0  0  0  0  0  0  0  0
  153.5702  143.6093  160.2120 H   0  0  0  0  0  0  0  0  0  0  0  0
  152.6122  145.9177  160.4948 H   0  0  0  0  0  0  0  0  0  0  0  0
  151.0324  145.2919  160.9472 H   0  0  0  0  0  0  0  0  0  0  0  0
  151.1845  146.4353  159.6187 H   0  0  0  0  0  0  0  0  0  0  0  0
  149.8331  143.6601  159.5192 H   0  0  0  0  0  0  0  0  0  0  0  0
  149.9513  144.5820  158.0519 H   0  0  0  0  0  0  0  0  0  0  0  0
  149.8871  143.4926  156.2041 H   0  0  0  0  0  0  0  0  0  0  0  0
  150.9730  141.6812  154.8321 H   0  0  0  0  0  0  0  0  0  0  0  0
  150.5571  140.6015  156.1367 H   0  0  0  0  0  0  0  0  0  0  0  0
  149.4931  139.4280  153.9066 H   0  0  0  0  0  0  0  0  0  0  0  0
  147.2497  139.1092  152.8504 H   0  0  0  0  0  0  0  0  0  0  0  0
  146.1827  144.5808  154.1536 H   0  0  0  0  0  0  0  0  0  0  0  0
  145.5817  143.6164  152.8217 H   0  0  0  0  0  0  0  0  0  0  0  0
  144.0104  145.4788  153.3834 H   0  0  0  0  0  0  0  0  0  0  0  0
  143.2388  143.9154  153.5645 H   0  0  0  0  0  0  0  0  0  0  0  0
  143.4401  143.9927  157.1620 H   0  0  0  0  0  0  0  0  0  0  0  0
  142.9067  143.0372  155.7925 H   0  0  0  0  0  0  0  0  0  0  0  0
  145.0053  142.0804  156.6947 H   0  0  0  0  0  0  0  0  0  0  0  0
  145.8167  143.6370  156.5834 H   0  0  0  0  0  0  0  0  0  0  0  0
  147.9269  142.9758  155.7988 H   0  0  0  0  0  0  0  0  0  0  0  0
  1  2  1  0  0  0  0
  1 22  1  0  0  0  0
  1 23  1  0  0  0  0
  1 24  1  0  0  0  0
  2  3  1  0  0  0  0
  2  4  1  0  0  0  0
  2  5  1  0  0  0  0
  3 25  1  0  0  0  0
  3 26  1  0  0  0  0
  3 27  1  0  0  0  0
  4 28  1  0  0  0  0
  4 29  1  0  0  0  0
  4 30  1  0  0  0  0
  5  6  1  0  0  0  0
  5 31  1  0  0  0  0
  5 32  1  0  0  0  0
  6  7  2  0  0  0  0
  6  8  1  0  0  0  0
  8  9  1  0  0  0  0
  8 33  1  0  0  0  0
  9 10  1  0  0  0  0
  9 34  1  0  0  0  0
  9 35  1  0  0  0  0
 10 21  1  0  0  0  0
 10 11  2  0  0  0  0
 11 12  1  0  0  0  0
 11 36  1  0  0  0  0
 12 13  2  0  0  0  0
 12 37  1  0  0  0  0
 13 14  1  0  0  0  0
 14 15  1  0  0  0  0
 14 21  2  0  0  0  0
 15 20  1  0  0  0  0
 15 16  1  0  0  0  0
 16 17  1  0  0  0  0
 16 38  1  0  0  0  0
 16 39  1  0  0  0  0
 17 18  1  0  0  0  0
 17 40  1  0  0  0  0
 17 41  1  0  0  0  0
 18 19  1  0  0  0  0
 19 20  1  0  0  0  0
 19 42  1  0  0  0  0
 19 43  1  0  0  0  0
 20 44  1  0  0  0  0
 20 45  1  0  0  0  0
 21 46  1  0  0  0  0
M  END
> <s_m_source_file>
AV-unprocessed.smi

> <i_m_source_file_index>
2992

> <i_lp_mmshare_version>
43012

> <i_f3d_flags>
0

> <s_epik_input>
W0NIM11DKFtDSDNdKShbQ0gzXSlbQ0gyXUMoPU8pW05IXVtDSDJdYzFbY0hdW2NIXW5jKFtjSF0xKU4yW0NIMl1bQ0gyXU9bQ0gyXVtDSDJdMg==

> <s_epik_cmdline>
J2VwaWtfcHl0aG9uJywgJy1waCcsICc3LjAnLCAnLXRuJywgJzgnLCAnLW1hJywgJzIwMCcsICctbWV0YWxfYmluZGluZycsICctaW1hZScsICc8aW5maWxlLm1hZT4nLCAnLW9tYWUnLCAnPG91dGZpbGUubWFlPic=

> <r_lp_tautomer_probability>
1

> <r_epik_Ionization_Penalty>
0.00548609

> <r_epik_Ionization_Penalty_Charging>
0

> <r_epik_Ionization_Penalty_Neutral>
0.00548609

> <r_epik_State_Penalty>
0.00401348

> <r_epik_Charging_Adjusted_Penalty>
0.00401348

> <i_epik_Tot_Q>
0

> <i_epik_Tot_abs_Q>
0

> <r_epik_Metal_State_Penalty>
-0

> <b_epik_Metal_Only>
0

> <s_lp_Force_Field>
OPLS_2005

> <r_lp_Energy>
16.2272

> <b_lp_Chiralities_Consistent>
1

> <s_lp_Variant>
AV-unprocessed.smi:2992-1

> <Gold.Version>
5.8.1

> <Gold.Id.Protein>
6NUR|6NUR_protein|mol2

> <Gold.PLP.Fitness>
46.3962

> <Gold.PLP.PLP>
-44.1447

> <Gold.PLP.part.hbond>
-1.0000

> <Gold.PLP.part.metal>
0.0000

> <Gold.PLP.part.buried>
-1.7136

> <Gold.PLP.part.nonpolar>
-42.6494

> <Gold.PLP.part.repulsive>
1.3871

> <Gold.PLP.ligand.clash>
0.0000

> <Gold.PLP.ligand.torsion>
0.5672

> <Gold.PLP.Chemscore.Hbond>
1.0000

> <Gold.PLP.Chemscore.CHOScore>
0.0000

> <Gold.PLP.Chemscore.Metal>
0.0000

> <Gold.Chemscore.Hbonds>
donor molecule, donor type, donor heavy atom, donor atom, acceptor molecule, acceptor atom, score
      L1  H     8    33       P1  8028  1.00

> <Gold.PLP.Chemscore.Internal.Correction>
0.3859

> <Gold.Rescore>
     Score         DG    S(hbond)    S(metal)    S(lipo)     H(rot)  DE(clash)    DE(int)     intcor
     15.33     -18.42       1.00        0.00     117.53       1.62       2.30       0.79       ----

> <Gold.Chemscore.Fitness>
15.3291

> <Gold.Chemscore.DG>
-18.4183

> <Gold.Chemscore.ZeroCoef>
-5.4800

> <Gold.Chemscore.Hbond>
0.9955

> <Gold.Chemscore.Metal>
0.0000

> <Gold.Chemscore.Lipo>
117.5339

> <Gold.Chemscore.Internal_Hbond>
0.0000

> <Gold.Chemscore.DEClash>
2.3019

> <Gold.Chemscore.DEInternal>
0.7872

> <Gold.Chemscore.Rot>
1.6164

> <Gold.Chemscore.Internal.Correction>
   9.000000E+99

> <Gold.Chemscore.Hbonds>
donor molecule, donor type, donor heavy atom, donor atom, acceptor molecule, acceptor atom, score
      L1  H     8    33       P1  8028  0.99

> <Gold.Chemscore.Hbond.Weighted>
-3.3249

> <Gold.Chemscore.Metal.Weighted>
-0.0000

> <Gold.Chemscore.Lipo.Weighted>
-13.7515

> <Gold.Chemscore.Internal_Hbond.Weighted>
0.0000

> <Gold.Chemscore.DEClash.Weighted>
2.3019

> <Gold.Chemscore.DEInternal.Weighted>
0.7872

> <Gold.Chemscore.Rot.Weighted>
4.1381

> <Gold.Chemscore.Internal.Correction.Weighted>
   9.000000E+99

> <Gold.Protein.RotatedTorsions>
[ 6907 6896 6895 6894 ] final   83.59 input  -60.11 | X-H torsion
[ 7974 7965 7964 7962 ] final  180.00 input  175.53 | X-H torsion
[ 8008 7997 7996 7995 ] final  161.63 input   59.86 | X-H torsion
[ 10167 10162 10161 10158 ] final   17.27 input  -65.29 | X-H torsion
[ 10718 10713 10712 10709 ] final   12.58 input   66.30 | X-H torsion
[ 10763 10752 10751 10750 ] final -136.71 input  -60.55 | X-H torsion
[ 11005 11000 10999 10996 ] final  -59.30 input  -57.11 | X-H torsion

> <Gold.Protein.ActiveResidues>
 VAL166  LYS551  ARG553  GLY616  TRP617  ASP618  TYR619  PRO620  LYS621  CYS622 
 ASP623  PHE694  ASN695  SER759  ASP760  ASP761  ALA762  ILE779  LEU786  VAL792 
 PHE793  MET794  SER795  GLU796  ALA797  LYS798  CYS799  TRP800  GLU811  SER814 

> <Gold.Protein.RotatedAtoms>
  152.5331  134.2872  159.9029 H   0  0  0  0  0  0  0  0  0  0  0  0  # atno 6907 bound_to 6896
  151.2825  133.4196  159.2635 H   0  0  0  0  0  0  0  0  0  0  0  0  # atno 6908 bound_to 6896
  151.0271  134.9527  159.8148 H   0  0  0  0  0  0  0  0  0  0  0  0  # atno 6909 bound_to 6896
  144.7141  140.0633  143.6432 H   0  0  0  0  0  0  0  0  0  0  0  0  # atno 7974 bound_to 7965
  156.2089  140.1772  156.7738 H   0  0  0  0  0  0  0  0  0  0  0  0  # atno 8008 bound_to 7997
  154.5695  140.0685  156.8972 H   0  0  0  0  0  0  0  0  0  0  0  0  # atno 8009 bound_to 7997
  155.2700  140.3342  155.4268 H   0  0  0  0  0  0  0  0  0  0  0  0  # atno 8010 bound_to 7997
  140.5738  143.9112  150.6733 H   0  0  0  0  0  0  0  0  0  0  0  0  # atno 10167 bound_to 10162
  157.0122  130.6121  149.5709 H   0  0  0  0  0  0  0  0  0  0  0  0  # atno 10718 bound_to 10713
  154.8678  135.3664  154.5105 H   0  0  0  0  0  0  0  0  0  0  0  0  # atno 10763 bound_to 10752
  153.5741  135.7020  153.5497 H   0  0  0  0  0  0  0  0  0  0  0  0  # atno 10764 bound_to 10752
  153.3516  135.4070  155.1613 H   0  0  0  0  0  0  0  0  0  0  0  0  # atno 10765 bound_to 10752
  141.1243  133.6616  156.5051 H   0  0  0  0  0  0  0  0  0  0  0  0  # atno 11005 bound_to 11000
  145.9846  139.2967  143.1021 LP  0  0  0  0  0  0  0  0  0  0  0  0  # atno 17320 bound_to 7965
  145.8972  140.9266  143.0521 LP  0  0  0  0  0  0  0  0  0  0  0  0  # atno 17321 bound_to 7965
  140.2594  143.3535  152.1336 LP  0  0  0  0  0  0  0  0  0  0  0  0  # atno 17342 bound_to 10162
  139.5131  144.6928  151.5714 LP  0  0  0  0  0  0  0  0  0  0  0  0  # atno 17343 bound_to 10162
  156.0132  130.5225  150.8054 LP  0  0  0  0  0  0  0  0  0  0  0  0  # atno 17370 bound_to 10713
  157.5312  131.0936  150.9952 LP  0  0  0  0  0  0  0  0  0  0  0  0  # atno 17371 bound_to 10713
  140.4414  134.7012  157.4993 LP  0  0  0  0  0  0  0  0  0  0  0  0  # atno 17394 bound_to 11000
  140.0226  134.6524  155.9217 LP  0  0  0  0  0  0  0  0  0  0  0  0  # atno 17395 bound_to 11000

$$$$
