AV-unprocessed.smi:2124|AV-procd|sdf|8655|dock9
  -GOLD-   2272011403D 1   1.00000     0.00000
 Structure written by MMmdl.
 47 49  0  0  0  0  0  0  0  0  1 V2000
  146.3035  138.1339  152.1830 C   0  0  0  0  0  0  0  0  0  0  0  0
  147.0981  139.1904  152.9214 C   0  0  0  0  0  0  0  0  0  0  0  0
  146.6269  140.3474  153.2528 N   0  0  0  0  0  0  0  0  0  0  0  0
  147.4614  141.2446  153.9342 C   0  0  0  0  0  0  0  0  0  0  0  0
  146.8390  142.5861  154.2823 C   0  0  0  0  0  0  0  0  0  0  0  0
  148.7482  140.9212  154.2560 C   0  0  0  0  0  0  0  0  0  0  0  0
  149.6847  141.8775  154.9935 C   0  0  0  0  0  0  0  0  0  0  0  0
  149.6946  141.7682  156.5204 C   0  0  0  0  0  0  0  0  0  0  0  0
  148.6575  141.9278  157.1644 O   0  0  0  0  0  0  0  0  0  0  0  0
  150.8840  141.4865  157.0786 N   0  0  0  0  0  0  0  0  0  0  0  0
  151.1775  141.2935  158.5014 C   0  0  1  0  0  0  0  0  0  0  0  0
  152.4876  140.5024  158.6878 C   0  0  0  0  0  0  0  0  0  0  0  0
  151.1571  142.6265  159.2978 C   0  0  2  0  0  0  0  0  0  0  0  0
  151.1450  143.8847  158.3960 C   0  0  0  0  0  0  0  0  0  0  0  0
  152.3291  144.7120  158.9259 C   0  0  1  0  0  0  0  0  0  0  0  0
  151.9968  145.2474  160.3308 C   0  0  0  0  0  0  0  0  0  0  0  0
  152.0856  143.9819  161.2041 C   0  0  0  0  0  0  0  0  0  0  0  0
  152.4102  142.8820  160.1756 C   0  0  2  0  0  0  0  0  0  0  0  0
  153.3492  143.6230  159.2294 C   0  0  0  0  0  0  0  0  0  0  0  0
  149.2763  139.5984  153.8709 C   0  0  0  0  0  0  0  0  0  0  0  0
  150.4202  139.2097  154.1020 O   0  0  0  0  0  0  0  0  0  0  0  0
  148.4032  138.8003  153.2167 N   0  0  0  0  0  0  0  0  0  0  0  0
  148.7174  137.8847  152.9303 H   0  0  0  0  0  0  0  0  0  0  0  0
  145.9683  138.5213  151.2205 H   0  0  0  0  0  0  0  0  0  0  0  0
  145.4258  137.8498  152.7640 H   0  0  0  0  0  0  0  0  0  0  0  0
  146.8975  137.2369  152.0011 H   0  0  0  0  0  0  0  0  0  0  0  0
  146.7593  142.7006  155.3634 H   0  0  0  0  0  0  0  0  0  0  0  0
  145.8369  142.6781  153.8620 H   0  0  0  0  0  0  0  0  0  0  0  0
  147.4406  143.4059  153.8892 H   0  0  0  0  0  0  0  0  0  0  0  0
  150.7016  141.7105  154.6371 H   0  0  0  0  0  0  0  0  0  0  0  0
  149.4617  142.9106  154.7239 H   0  0  0  0  0  0  0  0  0  0  0  0
  151.6678  141.3800  156.4511 H   0  0  0  0  0  0  0  0  0  0  0  0
  150.3673  140.6654  158.8729 H   0  0  0  0  0  0  0  0  0  0  0  0
  152.6331  140.2116  159.7278 H   0  0  0  0  0  0  0  0  0  0  0  0
  153.3592  141.0849  158.3891 H   0  0  0  0  0  0  0  0  0  0  0  0
  152.4808  139.5869  158.0953 H   0  0  0  0  0  0  0  0  0  0  0  0
  150.2686  142.6349  159.9305 H   0  0  0  0  0  0  0  0  0  0  0  0
  151.3155  143.6300  157.3493 H   0  0  0  0  0  0  0  0  0  0  0  0
  150.2003  144.4265  158.4532 H   0  0  0  0  0  0  0  0  0  0  0  0
  152.6686  145.4816  158.2323 H   0  0  0  0  0  0  0  0  0  0  0  0
  152.7315  145.9871  160.6511 H   0  0  0  0  0  0  0  0  0  0  0  0
  151.0113  145.7125  160.3716 H   0  0  0  0  0  0  0  0  0  0  0  0
  152.8913  144.0774  161.9332 H   0  0  0  0  0  0  0  0  0  0  0  0
  151.1639  143.7846  161.7527 H   0  0  0  0  0  0  0  0  0  0  0  0
  152.8364  141.9904  160.6356 H   0  0  0  0  0  0  0  0  0  0  0  0
  153.6362  143.0400  158.3531 H   0  0  0  0  0  0  0  0  0  0  0  0
  154.2497  143.9983  159.7186 H   0  0  0  0  0  0  0  0  0  0  0  0
  1  2  1  0  0  0  0
  1 24  1  0  0  0  0
  1 25  1  0  0  0  0
  1 26  1  0  0  0  0
  2 22  1  0  0  0  0
  2  3  2  0  0  0  0
  3  4  1  0  0  0  0
  4  5  1  0  0  0  0
  4  6  2  0  0  0  0
  5 27  1  0  0  0  0
  5 28  1  0  0  0  0
  5 29  1  0  0  0  0
  6  7  1  0  0  0  0
  6 20  1  0  0  0  0
  7  8  1  0  0  0  0
  7 30  1  0  0  0  0
  7 31  1  0  0  0  0
  8  9  2  0  0  0  0
  8 10  1  0  0  0  0
 10 11  1  0  0  0  0
 10 32  1  0  0  0  0
 11 12  1  0  0  0  0
 11 13  1  0  0  0  0
 11 33  1  0  0  0  0
 12 34  1  0  0  0  0
 12 35  1  0  0  0  0
 12 36  1  0  0  0  0
 13 18  1  0  0  0  0
 13 14  1  0  0  0  0
 13 37  1  0  0  0  0
 14 15  1  0  0  0  0
 14 38  1  0  0  0  0
 14 39  1  0  0  0  0
 15 19  1  0  0  0  0
 15 16  1  0  0  0  0
 15 40  1  0  0  0  0
 16 17  1  0  0  0  0
 16 41  1  0  0  0  0
 16 42  1  0  0  0  0
 17 18  1  0  0  0  0
 17 43  1  0  0  0  0
 17 44  1  0  0  0  0
 18 19  1  0  0  0  0
 18 45  1  0  0  0  0
 19 46  1  0  0  0  0
 19 47  1  0  0  0  0
 20 21  2  0  0  0  0
 20 22  1  0  0  0  0
 22 23  1  0  0  0  0
M  END
> <s_m_source_file>
AV-unprocessed.smi

> <i_m_source_file_index>
2124

> <i_lp_mmshare_version>
43012

> <i_f3d_flags>
0

> <s_epik_input>
W0NIM11jMW5jKFtDSDNdKWMoYyg9TylbbkhdMSlbQ0gyXUMoPU8pW05IXVtDQEhdKFtDSDNdKVtDQEhdKFtDSDJdW0NASF0yMylbQ0BIXShbQ0gyXTMpW0NIMl1bQ0gyXTI=

> <s_epik_cmdline>
J2VwaWtfcHl0aG9uJywgJy1waCcsICc3LjAnLCAnLXRuJywgJzgnLCAnLW1hJywgJzIwMCcsICctbWV0YWxfYmluZGluZycsICctaW1hZScsICc8aW5maWxlLm1hZT4nLCAnLW9tYWUnLCAnPG91dGZpbGUubWFlPic=

> <r_lp_tautomer_probability>
0.839158

> <r_epik_Ionization_Penalty>
0.000383628

> <r_epik_Ionization_Penalty_Charging>
0.00035045

> <r_epik_Ionization_Penalty_Neutral>
3.31781e-05

> <r_epik_State_Penalty>
0.09125

> <r_epik_Charging_Adjusted_Penalty>
0.0916005

> <i_epik_Tot_Q>
0

> <i_epik_Tot_abs_Q>
0

> <r_epik_Metal_State_Penalty>
0.255229

> <b_epik_Metal_Only>
0

> <s_lp_Force_Field>
OPLS_2005

> <r_lp_Energy>
52.5198

> <b_lp_Chiralities_Consistent>
1

> <s_lp_Variant>
AV-unprocessed.smi:2124-6

> <Gold.Version>
5.8.1

> <Gold.Id.Protein>
6NUR|6NUR_protein|mol2

> <Gold.PLP.Fitness>
49.1909

> <Gold.PLP.PLP>
-47.6441

> <Gold.PLP.part.hbond>
-2.9457

> <Gold.PLP.part.metal>
0.0000

> <Gold.PLP.part.buried>
0.9450

> <Gold.PLP.part.nonpolar>
-46.4033

> <Gold.PLP.part.repulsive>
1.0463

> <Gold.PLP.ligand.clash>
0.0513

> <Gold.PLP.ligand.torsion>
2.0258

> <Gold.PLP.Chemscore.Hbond>
1.8613

> <Gold.PLP.Chemscore.CHOScore>
0.0000

> <Gold.PLP.Chemscore.Metal>
0.0000

> <Gold.Chemscore.Hbonds>
donor molecule, donor type, donor heavy atom, donor atom, acceptor molecule, acceptor atom, score
      L1  H    22    23       P1  7948  1.00
      P1  H  7989  7998       L1    21  0.75

> <Gold.PLP.Chemscore.Internal.Correction>
0.0660

> <Gold.Rescore>
     Score         DG    S(hbond)    S(metal)    S(lipo)     H(rot)  DE(clash)    DE(int)     intcor
     17.87     -22.23       1.61        0.00     133.38       1.65       2.34       2.02       ----

> <Gold.Chemscore.Fitness>
17.8670

> <Gold.Chemscore.DG>
-22.2339

> <Gold.Chemscore.ZeroCoef>
-5.4800

> <Gold.Chemscore.Hbond>
1.6110

> <Gold.Chemscore.Metal>
0.0000

> <Gold.Chemscore.Lipo>
133.3816

> <Gold.Chemscore.Internal_Hbond>
0.0000

> <Gold.Chemscore.DEClash>
2.3433

> <Gold.Chemscore.DEInternal>
2.0235

> <Gold.Chemscore.Rot>
1.6534

> <Gold.Chemscore.Internal.Correction>
   9.000000E+99

> <Gold.Chemscore.Hbonds>
donor molecule, donor type, donor heavy atom, donor atom, acceptor molecule, acceptor atom, score
      L1  H    22    23       P1  7948  0.98
      P1  H  7989  7998       L1    21  0.29

> <Gold.Chemscore.Hbond.Weighted>
-5.3809

> <Gold.Chemscore.Metal.Weighted>
-0.0000

> <Gold.Chemscore.Lipo.Weighted>
-15.6056

> <Gold.Chemscore.Internal_Hbond.Weighted>
0.0000

> <Gold.Chemscore.DEClash.Weighted>
2.3433

> <Gold.Chemscore.DEInternal.Weighted>
2.0235

> <Gold.Chemscore.Rot.Weighted>
4.2326

> <Gold.Chemscore.Internal.Correction.Weighted>
   9.000000E+99

> <Gold.Protein.RotatedTorsions>
[ 6907 6896 6895 6894 ] final  142.67 input  -60.11 | X-H torsion
[ 7974 7965 7964 7962 ] final    0.72 input  175.53 | X-H torsion
[ 8008 7997 7996 7995 ] final   26.93 input   59.86 | X-H torsion
[ 10167 10162 10161 10158 ] final  -85.80 input  -65.29 | X-H torsion
[ 10718 10713 10712 10709 ] final  179.57 input   66.30 | X-H torsion
[ 10763 10752 10751 10750 ] final  161.91 input  -60.55 | X-H torsion
[ 11005 11000 10999 10996 ] final   75.17 input  -57.11 | X-H torsion

> <Gold.Protein.ActiveResidues>
 VAL166  LYS551  ARG553  GLY616  TRP617  ASP618  TYR619  PRO620  LYS621  CYS622 
 ASP623  PHE694  ASN695  SER759  ASP760  ASP761  ALA762  ILE779  LEU786  VAL792 
 PHE793  MET794  SER795  GLU796  ALA797  LYS798  CYS799  TRP800  GLU811  SER814 

> <Gold.Protein.RotatedAtoms>
  152.2159  133.4946  159.5135 H   0  0  0  0  0  0  0  0  0  0  0  0  # atno 6907 bound_to 6896
  150.7001  134.1406  159.4112 H   0  0  0  0  0  0  0  0  0  0  0  0  # atno 6908 bound_to 6896
  151.9326  135.0249  160.0581 H   0  0  0  0  0  0  0  0  0  0  0  0  # atno 6909 bound_to 6896
  146.2436  140.1096  142.8344 H   0  0  0  0  0  0  0  0  0  0  0  0  # atno 7974 bound_to 7965
  155.0350  140.3163  155.4745 H   0  0  0  0  0  0  0  0  0  0  0  0  # atno 8008 bound_to 7997
  156.2866  140.2173  156.5415 H   0  0  0  0  0  0  0  0  0  0  0  0  # atno 8009 bound_to 7997
  154.7338  140.0479  157.0738 H   0  0  0  0  0  0  0  0  0  0  0  0  # atno 8010 bound_to 7997
  140.4003  143.2666  151.9151 H   0  0  0  0  0  0  0  0  0  0  0  0  # atno 10167 bound_to 10162
  156.8738  130.9793  151.3070 H   0  0  0  0  0  0  0  0  0  0  0  0  # atno 10718 bound_to 10713
  154.2702  135.2766  155.2741 H   0  0  0  0  0  0  0  0  0  0  0  0  # atno 10763 bound_to 10752
  154.5308  135.5730  153.6760 H   0  0  0  0  0  0  0  0  0  0  0  0  # atno 10764 bound_to 10752
  152.9946  135.6227  154.2857 H   0  0  0  0  0  0  0  0  0  0  0  0  # atno 10765 bound_to 10752
  139.9356  134.7495  156.1238 H   0  0  0  0  0  0  0  0  0  0  0  0  # atno 11005 bound_to 11000
  145.0499  140.9009  143.5002 LP  0  0  0  0  0  0  0  0  0  0  0  0  # atno 17320 bound_to 7965
  145.1192  139.2705  143.5597 LP  0  0  0  0  0  0  0  0  0  0  0  0  # atno 17321 bound_to 7965
  139.4785  144.5640  151.8194 LP  0  0  0  0  0  0  0  0  0  0  0  0  # atno 17342 bound_to 10162
  140.4747  144.1536  150.5923 LP  0  0  0  0  0  0  0  0  0  0  0  0  # atno 17343 bound_to 10162
  157.6180  130.8633  149.9061 LP  0  0  0  0  0  0  0  0  0  0  0  0  # atno 17370 bound_to 10713
  156.0712  130.3685  150.0771 LP  0  0  0  0  0  0  0  0  0  0  0  0  # atno 17371 bound_to 10713
  141.0968  133.6692  156.2664 LP  0  0  0  0  0  0  0  0  0  0  0  0  # atno 17394 bound_to 11000
  140.6084  134.5483  157.5529 LP  0  0  0  0  0  0  0  0  0  0  0  0  # atno 17395 bound_to 11000

$$$$
