AV-unprocessed.smi:1295|AV-procd|sdf|5412|dock2
  -GOLD-   22720 4573D 1   1.00000     0.00000
 Structure written by MMmdl.
 42 43  0  0  0  0  0  0  0  0  2 V2000
  149.9311  134.2741  154.9915 C   0  0  0  0  0  0  0  0  0  0  0  0
  150.0638  135.7808  155.0478 C   0  0  0  0  0  0  0  0  0  0  0  0
  149.0214  136.4934  155.2475 N   0  0  0  0  0  0  0  0  0  0  0  0
  149.1396  137.8929  155.2958 C   0  0  0  0  0  0  0  0  0  0  0  0
  147.8508  138.6596  155.5383 C   0  0  0  0  0  0  0  0  0  0  0  0
  150.3472  138.5053  155.1311 C   0  0  0  0  0  0  0  0  0  0  0  0
  150.5261  140.0224  155.1743 C   0  0  0  0  0  0  0  0  0  0  0  0
  151.4823  140.5456  156.2482 C   0  0  0  0  0  0  0  0  0  0  0  0
  152.4483  139.8701  156.6027 O   0  0  0  0  0  0  0  0  0  0  0  0
  151.1984  141.7565  156.7529 N   0  0  0  0  0  0  0  0  0  0  0  0
  151.9864  142.4788  157.7502 C   0  0  1  0  0  0  0  0  0  0  0  0
  151.6162  143.9733  157.6767 C   0  0  0  0  0  0  0  0  0  0  0  0
  152.3525  144.7971  158.7428 C   0  0  0  0  0  0  0  0  0  0  0  0
  152.0896  144.2375  160.1470 C   0  0  0  0  0  0  0  0  0  0  0  0
  152.4801  142.7547  160.2290 C   0  0  0  0  0  0  0  0  0  0  0  0
  151.7462  141.9056  159.1711 C   0  0  2  0  0  0  0  0  0  0  0  0
  152.1552  140.4267  159.2941 C   0  0  0  0  0  0  0  0  0  0  0  0
  151.5237  137.6476  154.9012 C   0  0  0  0  0  0  0  0  0  0  0  0
  152.6355  138.1481  154.7359 O   0  0  0  0  0  0  0  0  0  0  0  0
  151.3279  136.2984  154.8777 N   0  5  0  0  0  0  0  0  0  0  0  0
  148.8838  133.9734  154.9422 H   0  0  0  0  0  0  0  0  0  0  0  0
  150.3768  133.8245  155.8789 H   0  0  0  0  0  0  0  0  0  0  0  0
  150.4395  133.8799  154.1108 H   0  0  0  0  0  0  0  0  0  0  0  0
  147.9093  139.2215  156.4706 H   0  0  0  0  0  0  0  0  0  0  0  0
  146.9971  137.9843  155.6076 H   0  0  0  0  0  0  0  0  0  0  0  0
  147.6587  139.3568  154.7225 H   0  0  0  0  0  0  0  0  0  0  0  0
  150.8795  140.3496  154.1960 H   0  0  0  0  0  0  0  0  0  0  0  0
  149.5670  140.5248  155.3012 H   0  0  0  0  0  0  0  0  0  0  0  0
  150.3788  142.2282  156.3992 H   0  0  0  0  0  0  0  0  0  0  0  0
  153.0503  142.3919  157.5217 H   0  0  0  0  0  0  0  0  0  0  0  0
  151.8504  144.3659  156.6861 H   0  0  0  0  0  0  0  0  0  0  0  0
  150.5401  144.0951  157.8094 H   0  0  0  0  0  0  0  0  0  0  0  0
  153.4239  144.7877  158.5384 H   0  0  0  0  0  0  0  0  0  0  0  0
  152.0356  145.8390  158.6919 H   0  0  0  0  0  0  0  0  0  0  0  0
  152.6496  144.8109  160.8864 H   0  0  0  0  0  0  0  0  0  0  0  0
  151.0347  144.3543  160.3984 H   0  0  0  0  0  0  0  0  0  0  0  0
  153.5583  142.6569  160.0948 H   0  0  0  0  0  0  0  0  0  0  0  0
  152.2596  142.3774  161.2281 H   0  0  0  0  0  0  0  0  0  0  0  0
  150.6777  141.9674  159.3844 H   0  0  0  0  0  0  0  0  0  0  0  0
  153.2074  140.2863  159.0448 H   0  0  0  0  0  0  0  0  0  0  0  0
  151.5687  139.7892  158.6325 H   0  0  0  0  0  0  0  0  0  0  0  0
  152.0027  140.0609  160.3098 H   0  0  0  0  0  0  0  0  0  0  0  0
  1  2  1  0  0  0  0
  1 21  1  0  0  0  0
  1 22  1  0  0  0  0
  1 23  1  0  0  0  0
  2 20  1  0  0  0  0
  2  3  2  0  0  0  0
  3  4  1  0  0  0  0
  4  5  1  0  0  0  0
  4  6  2  0  0  0  0
  5 24  1  0  0  0  0
  5 25  1  0  0  0  0
  5 26  1  0  0  0  0
  6  7  1  0  0  0  0
  6 18  1  0  0  0  0
  7  8  1  0  0  0  0
  7 27  1  0  0  0  0
  7 28  1  0  0  0  0
  8  9  2  0  0  0  0
  8 10  1  0  0  0  0
 10 11  1  0  0  0  0
 10 29  1  0  0  0  0
 11 16  1  0  0  0  0
 11 12  1  0  0  0  0
 11 30  1  0  0  0  0
 12 13  1  0  0  0  0
 12 31  1  0  0  0  0
 12 32  1  0  0  0  0
 13 14  1  0  0  0  0
 13 33  1  0  0  0  0
 13 34  1  0  0  0  0
 14 15  1  0  0  0  0
 14 35  1  0  0  0  0
 14 36  1  0  0  0  0
 15 16  1  0  0  0  0
 15 37  1  0  0  0  0
 15 38  1  0  0  0  0
 16 17  1  0  0  0  0
 16 39  1  0  0  0  0
 17 40  1  0  0  0  0
 17 41  1  0  0  0  0
 17 42  1  0  0  0  0
 18 19  2  0  0  0  0
 18 20  1  0  0  0  0
M  CHG  1  20  -1
M  END
> <s_m_source_file>
AV-unprocessed.smi

> <i_m_source_file_index>
1295

> <i_lp_mmshare_version>
43012

> <i_f3d_flags>
0

> <s_epik_input>
W0NIM11jMW5jKFtDSDNdKWMoYyg9TylbbkhdMSlbQ0gyXUMoPU8pW05IXVtDQEBIXTJbQ0gyXVtDSDJdW0NIMl1bQ0gyXVtDQEhdMltDSDNd

> <s_epik_cmdline>
J2VwaWtfcHl0aG9uJywgJy1waCcsICc3LjAnLCAnLXRuJywgJzgnLCAnLW1hJywgJzIwMCcsICctbWV0YWxfYmluZGluZycsICctaW1hZScsICc8aW5maWxlLm1hZT4nLCAnLW9tYWUnLCAnPG91dGZpbGUubWFlPic=

> <r_lp_tautomer_probability>
0.839158

> <r_epik_Ionization_Penalty>
6.67742

> <r_epik_Ionization_Penalty_Charging>
7.78154e-08

> <r_epik_Ionization_Penalty_Neutral>
6.67742

> <r_epik_State_Penalty>
4.51991

> <r_epik_Charging_Adjusted_Penalty>
4.51991

> <i_epik_Tot_Q>
-1

> <i_epik_Tot_abs_Q>
1

> <r_epik_Metal_State_Penalty>
0.853272

> <b_epik_Metal_Only>
1

> <s_lp_Force_Field>
OPLS_2005

> <r_lp_Energy>
15.3241

> <b_lp_Chiralities_Consistent>
1

> <s_lp_Variant>
AV-unprocessed.smi:1295-12

> <Gold.Version>
5.8.1

> <Gold.Id.Protein>
6NUR|6NUR_protein|mol2

> <Gold.PLP.Fitness>
46.7047

> <Gold.PLP.PLP>
-38.9582

> <Gold.PLP.part.hbond>
-2.3848

> <Gold.PLP.part.metal>
0.0000

> <Gold.PLP.part.buried>
-5.0461

> <Gold.PLP.part.nonpolar>
-31.8390

> <Gold.PLP.part.repulsive>
0.4110

> <Gold.PLP.ligand.clash>
0.0000

> <Gold.PLP.ligand.torsion>
0.6293

> <Gold.PLP.Chemscore.Hbond>
3.0000

> <Gold.PLP.Chemscore.CHOScore>
0.0000

> <Gold.PLP.Chemscore.Metal>
0.0000

> <Gold.Chemscore.Hbonds>
donor molecule, donor type, donor heavy atom, donor atom, acceptor molecule, acceptor atom, score
      P1  H  7997  8010       L1     9  1.00
      P1  H 10752 10765       L1    20  2.00

> <Gold.PLP.Chemscore.Internal.Correction>
0.0050

> <Gold.Rescore>
     Score         DG    S(hbond)    S(metal)    S(lipo)     H(rot)  DE(clash)    DE(int)     intcor
     15.95     -19.48       1.90        0.00      97.04       1.45       0.29       3.24       ----

> <Gold.Chemscore.Fitness>
15.9480

> <Gold.Chemscore.DG>
-19.4807

> <Gold.Chemscore.ZeroCoef>
-5.4800

> <Gold.Chemscore.Hbond>
1.9002

> <Gold.Chemscore.Metal>
0.0000

> <Gold.Chemscore.Lipo>
97.0357

> <Gold.Chemscore.Internal_Hbond>
0.0000

> <Gold.Chemscore.DEClash>
0.2887

> <Gold.Chemscore.DEInternal>
3.2440

> <Gold.Chemscore.Rot>
1.4450

> <Gold.Chemscore.Internal.Correction>
   9.000000E+99

> <Gold.Chemscore.Hbonds>
donor molecule, donor type, donor heavy atom, donor atom, acceptor molecule, acceptor atom, score
      P1  H  7997  8010       L1     9  1.00
      P1  H 10752 10765       L1    20  0.55

> <Gold.Chemscore.Hbond.Weighted>
-6.3467

> <Gold.Chemscore.Metal.Weighted>
-0.0000

> <Gold.Chemscore.Lipo.Weighted>
-11.3532

> <Gold.Chemscore.Internal_Hbond.Weighted>
0.0000

> <Gold.Chemscore.DEClash.Weighted>
0.2887

> <Gold.Chemscore.DEInternal.Weighted>
3.2440

> <Gold.Chemscore.Rot.Weighted>
3.6992

> <Gold.Chemscore.Internal.Correction.Weighted>
   9.000000E+99

> <Gold.Protein.RotatedTorsions>
[ 6907 6896 6895 6894 ] final  175.68 input  -60.11 | X-H torsion
[ 7974 7965 7964 7962 ] final -139.89 input  175.53 | X-H torsion
[ 8008 7997 7996 7995 ] final   67.04 input   59.86 | X-H torsion
[ 10167 10162 10161 10158 ] final  121.97 input  -65.29 | X-H torsion
[ 10718 10713 10712 10709 ] final  150.60 input   66.30 | X-H torsion
[ 10763 10752 10751 10750 ] final -177.29 input  -60.55 | X-H torsion
[ 11005 11000 10999 10996 ] final  101.04 input  -57.11 | X-H torsion

> <Gold.Protein.ActiveResidues>
 VAL166  LYS551  ARG553  GLY616  TRP617  ASP618  TYR619  PRO620  LYS621  CYS622 
 ASP623  PHE694  ASN695  SER759  ASP760  ASP761  ALA762  ILE779  LEU786  VAL792 
 PHE793  MET794  SER795  GLU796  ALA797  LYS798  CYS799  TRP800  GLU811  SER814 

> <Gold.Protein.RotatedAtoms>
  151.7323  133.3318  159.3343 H   0  0  0  0  0  0  0  0  0  0  0  0  # atno 6907 bound_to 6896
  150.7607  134.6352  159.6217 H   0  0  0  0  0  0  0  0  0  0  0  0  # atno 6908 bound_to 6896
  152.3584  134.6910  160.0266 H   0  0  0  0  0  0  0  0  0  0  0  0  # atno 6909 bound_to 6896
  144.8640  140.6264  143.5310 H   0  0  0  0  0  0  0  0  0  0  0  0  # atno 7974 bound_to 7965
  155.6867  140.3496  155.4877 H   0  0  0  0  0  0  0  0  0  0  0  0  # atno 8008 bound_to 7997
  155.9559  140.1128  157.0959 H   0  0  0  0  0  0  0  0  0  0  0  0  # atno 8009 bound_to 7997
  154.4132  140.1185  156.5101 H   0  0  0  0  0  0  0  0  0  0  0  0  # atno 8010 bound_to 7997
  139.5887  144.7017  151.3344 H   0  0  0  0  0  0  0  0  0  0  0  0  # atno 10167 bound_to 10162
  157.2815  131.0836  151.1528 H   0  0  0  0  0  0  0  0  0  0  0  0  # atno 10718 bound_to 10713
  154.5619  135.2821  155.0911 H   0  0  0  0  0  0  0  0  0  0  0  0  # atno 10763 bound_to 10752
  154.2316  135.6373  153.5181 H   0  0  0  0  0  0  0  0  0  0  0  0  # atno 10764 bound_to 10752
  153.0032  135.5538  154.6216 H   0  0  0  0  0  0  0  0  0  0  0  0  # atno 10765 bound_to 10752
  139.8772  134.9166  156.4847 H   0  0  0  0  0  0  0  0  0  0  0  0  # atno 11005 bound_to 11000
  145.4257  139.1557  143.4050 LP  0  0  0  0  0  0  0  0  0  0  0  0  # atno 17320 bound_to 7965
  146.2882  140.4370  142.8750 LP  0  0  0  0  0  0  0  0  0  0  0  0  # atno 17321 bound_to 7965
  140.7154  143.7280  150.7645 LP  0  0  0  0  0  0  0  0  0  0  0  0  # atno 17342 bound_to 10162
  140.0830  143.4950  152.2520 LP  0  0  0  0  0  0  0  0  0  0  0  0  # atno 17343 bound_to 10162
  157.2961  130.6820  149.6139 LP  0  0  0  0  0  0  0  0  0  0  0  0  # atno 17370 bound_to 10713
  155.9664  130.4406  150.5307 LP  0  0  0  0  0  0  0  0  0  0  0  0  # atno 17371 bound_to 10713
  140.8702  133.7994  155.9356 LP  0  0  0  0  0  0  0  0  0  0  0  0  # atno 17394 bound_to 11000
  140.8960  134.2436  157.5068 LP  0  0  0  0  0  0  0  0  0  0  0  0  # atno 17395 bound_to 11000

$$$$
