AV-unprocessed.smi:2189|AV-procd|sdf|8886|dock9
  -GOLD-   2272012 83D 1   1.00000     0.00000
 Structure written by MMmdl.
 38 40  0  0  0  0  0  0  0  0  2 V2000
  147.9604  137.6968  159.3206 O   0  0  0  0  0  0  0  0  0  0  0  0
  148.7089  136.7680  159.6518 C   0  0  0  0  0  0  0  0  0  0  0  0
  150.0331  136.6658  159.3212 N   0  5  0  0  0  0  0  0  0  0  0  0
  151.0714  137.6511  159.6370 C   0  0  0  0  0  0  0  0  0  0  0  0
  151.5938  138.3141  158.3405 C   0  0  0  0  0  0  0  0  0  0  0  0
  151.8981  139.8073  158.4514 C   0  0  0  0  0  0  0  0  0  0  0  0
  152.7001  140.2992  159.5065 C   0  0  0  0  0  0  0  0  0  0  0  0
  152.9612  141.6810  159.5703 C   0  0  0  0  0  0  0  0  0  0  0  0
  152.4052  142.5219  158.5880 C   0  0  0  0  0  0  0  0  0  0  0  0
  151.6069  141.9405  157.5832 C   0  0  0  0  0  0  0  0  0  0  0  0
  151.3493  140.6170  157.5124 N   0  0  0  0  0  0  0  0  0  0  0  0
  148.1546  135.6534  160.4434 C   0  0  0  0  0  0  0  0  0  0  0  0
  147.4099  135.9479  161.5415 C   0  0  0  0  0  0  0  0  0  0  0  0
  146.8223  134.9185  162.3619 C   0  0  0  0  0  0  0  0  0  0  0  0
  147.0561  133.6440  162.0321 C   0  0  0  0  0  0  0  0  0  0  0  0
  147.8363  133.2682  160.9398 N   0  0  0  0  0  0  0  0  0  0  0  0
  148.0876  131.8419  160.7667 C   0  0  0  0  0  0  0  0  0  0  0  0
  148.0030  131.4645  159.2992 C   0  0  0  0  0  0  0  0  0  0  0  0
  149.3554  132.3752  158.4719 S   0  0  0  0  0  0  0  0  0  0  0  0
  150.6275  131.9495  159.0761 O   0  0  0  0  0  0  0  0  0  0  0  0
  149.1688  132.2478  157.0185 O   0  0  0  0  0  0  0  0  0  0  0  0
  149.0098  133.9403  158.9573 N   0  0  0  0  0  0  0  0  0  0  0  0
  148.3808  134.2445  160.0578 C   0  0  0  0  0  0  0  0  0  0  0  0
  150.7263  138.4320  160.3159 H   0  0  0  0  0  0  0  0  0  0  0  0
  151.9111  137.1754  160.1444 H   0  0  0  0  0  0  0  0  0  0  0  0
  152.5058  137.8050  158.0270 H   0  0  0  0  0  0  0  0  0  0  0  0
  150.8786  138.1565  157.5319 H   0  0  0  0  0  0  0  0  0  0  0  0
  153.1169  139.6274  160.2423 H   0  0  0  0  0  0  0  0  0  0  0  0
  153.5779  142.0874  160.3581 H   0  0  0  0  0  0  0  0  0  0  0  0
  152.5856  143.5863  158.6042 H   0  0  0  0  0  0  0  0  0  0  0  0
  151.1617  142.5561  156.8155 H   0  0  0  0  0  0  0  0  0  0  0  0
  147.2432  136.9726  161.8411 H   0  0  0  0  0  0  0  0  0  0  0  0
  146.2126  135.1704  163.2166 H   0  0  0  0  0  0  0  0  0  0  0  0
  146.6448  132.8280  162.6083 H   0  0  0  0  0  0  0  0  0  0  0  0
  149.0676  131.5960  161.1770 H   0  0  0  0  0  0  0  0  0  0  0  0
  147.3597  131.2512  161.3233 H   0  0  0  0  0  0  0  0  0  0  0  0
  148.1542  130.3965  159.1455 H   0  0  0  0  0  0  0  0  0  0  0  0
  147.0484  131.7499  158.8558 H   0  0  0  0  0  0  0  0  0  0  0  0
  1  2  2  0  0  0  0
  2  3  1  0  0  0  0
  2 12  1  0  0  0  0
  3  4  1  0  0  0  0
  4  5  1  0  0  0  0
  4 24  1  0  0  0  0
  4 25  1  0  0  0  0
  5  6  1  0  0  0  0
  5 26  1  0  0  0  0
  5 27  1  0  0  0  0
  6 11  1  0  0  0  0
  6  7  2  0  0  0  0
  7  8  1  0  0  0  0
  7 28  1  0  0  0  0
  8  9  2  0  0  0  0
  8 29  1  0  0  0  0
  9 10  1  0  0  0  0
  9 30  1  0  0  0  0
 10 11  2  0  0  0  0
 10 31  1  0  0  0  0
 12 23  1  0  0  0  0
 12 13  2  0  0  0  0
 13 14  1  0  0  0  0
 13 32  1  0  0  0  0
 14 15  2  0  0  0  0
 14 33  1  0  0  0  0
 15 16  1  0  0  0  0
 15 34  1  0  0  0  0
 16 23  1  0  0  0  0
 16 17  1  0  0  0  0
 17 18  1  0  0  0  0
 17 35  1  0  0  0  0
 17 36  1  0  0  0  0
 18 19  1  0  0  0  0
 18 37  1  0  0  0  0
 18 38  1  0  0  0  0
 19 20  2  0  0  0  0
 19 21  2  0  0  0  0
 19 22  1  0  0  0  0
 22 23  2  0  0  0  0
M  CHG  1   3  -1
M  END
> <s_m_source_file>
AV-unprocessed.smi

> <i_m_source_file_index>
2189

> <i_lp_mmshare_version>
43012

> <i_f3d_flags>
0

> <s_epik_input>
W0NIMl0xW0NIMl1TKD1PKSg9TylOPUMoTjEyKUMoPVtDSF1bQ0hdPVtDSF0yKUMoPU8pW05IXVtDSDJdW0NIMl1jM1tjSF1bY0hdW2NIXVtjSF1uMw==

> <s_epik_cmdline>
J2VwaWtfcHl0aG9uJywgJy1waCcsICc3LjAnLCAnLXRuJywgJzgnLCAnLW1hJywgJzIwMCcsICctbWV0YWxfYmluZGluZycsICctaW1hZScsICc8aW5maWxlLm1hZT4nLCAnLW9tYWUnLCAnPG91dGZpbGUubWFlPic=

> <r_epik_Ionization_Penalty>
5.6695

> <r_epik_Ionization_Penalty_Charging>
5.5942

> <r_epik_Ionization_Penalty_Neutral>
0.0753022

> <r_epik_State_Penalty>
5.60818

> <r_epik_Charging_Adjusted_Penalty>
11.2024

> <i_epik_Tot_Q>
-1

> <i_epik_Tot_abs_Q>
1

> <r_epik_Metal_State_Penalty>
1.61782

> <b_epik_Metal_Only>
1

> <s_lp_Force_Field>
OPLS_2005

> <r_lp_Energy>
39.8175

> <b_lp_Chiralities_Consistent>
1

> <s_lp_Variant>
AV-unprocessed.smi:2189-3

> <Gold.Version>
5.8.1

> <Gold.Id.Protein>
6NUR|6NUR_protein|mol2

> <Gold.PLP.Fitness>
44.9149

> <Gold.PLP.PLP>
-37.6227

> <Gold.PLP.part.hbond>
-4.7928

> <Gold.PLP.part.metal>
0.0000

> <Gold.PLP.part.buried>
-3.5659

> <Gold.PLP.part.nonpolar>
-29.5400

> <Gold.PLP.part.repulsive>
0.0000

> <Gold.PLP.ligand.clash>
0.0000

> <Gold.PLP.ligand.torsion>
1.7482

> <Gold.PLP.Chemscore.Hbond>
3.4560

> <Gold.PLP.Chemscore.CHOScore>
0.0000

> <Gold.PLP.Chemscore.Metal>
0.0000

> <Gold.Chemscore.Hbonds>
donor molecule, donor type, donor heavy atom, donor atom, acceptor molecule, acceptor atom, score
      P1  H  6896  6907       L1    20  0.74
      P1  H  6896  6908       L1     3  2.00
      P1  H  6934  6947       L1     1  0.27

> <Gold.PLP.Chemscore.Internal.Correction>
0.4206

> <Gold.Rescore>
     Score         DG    S(hbond)    S(metal)    S(lipo)     H(rot)  DE(clash)    DE(int)     intcor
     15.02     -18.08       1.83        0.00      87.09       1.44       0.25       2.81       ----

> <Gold.Chemscore.Fitness>
15.0190

> <Gold.Chemscore.DG>
-18.0779

> <Gold.Chemscore.ZeroCoef>
-5.4800

> <Gold.Chemscore.Hbond>
1.8274

> <Gold.Chemscore.Metal>
0.0000

> <Gold.Chemscore.Lipo>
87.0889

> <Gold.Chemscore.Internal_Hbond>
0.0000

> <Gold.Chemscore.DEClash>
0.2459

> <Gold.Chemscore.DEInternal>
2.8130

> <Gold.Chemscore.Rot>
1.4433

> <Gold.Chemscore.Internal.Correction>
   9.000000E+99

> <Gold.Chemscore.Hbonds>
donor molecule, donor type, donor heavy atom, donor atom, acceptor molecule, acceptor atom, score
      P1  H  6896  6907       L1    20  0.36
      P1  H  6896  6908       L1     3  0.47
      P1  H  6934  6947       L1     1  0.27

> <Gold.Chemscore.Hbond.Weighted>
-6.1034

> <Gold.Chemscore.Metal.Weighted>
-0.0000

> <Gold.Chemscore.Lipo.Weighted>
-10.1894

> <Gold.Chemscore.Internal_Hbond.Weighted>
0.0000

> <Gold.Chemscore.DEClash.Weighted>
0.2459

> <Gold.Chemscore.DEInternal.Weighted>
2.8130

> <Gold.Chemscore.Rot.Weighted>
3.6949

> <Gold.Chemscore.Internal.Correction.Weighted>
   9.000000E+99

> <Gold.Protein.RotatedTorsions>
[ 6907 6896 6895 6894 ] final -170.07 input  -60.11 | X-H torsion
[ 7974 7965 7964 7962 ] final   72.20 input  175.53 | X-H torsion
[ 8008 7997 7996 7995 ] final -110.50 input   59.86 | X-H torsion
[ 10167 10162 10161 10158 ] final   49.23 input  -65.29 | X-H torsion
[ 10718 10713 10712 10709 ] final  100.87 input   66.30 | X-H torsion
[ 10763 10752 10751 10750 ] final   39.98 input  -60.55 | X-H torsion
[ 11005 11000 10999 10996 ] final -116.86 input  -57.11 | X-H torsion

> <Gold.Protein.ActiveResidues>
 VAL166  LYS551  ARG553  GLY616  TRP617  ASP618  TYR619  PRO620  LYS621  CYS622 
 ASP623  PHE694  ASN695  SER759  ASP760  ASP761  ALA762  ILE779  LEU786  VAL792 
 PHE793  MET794  SER795  GLU796  ALA797  LYS798  CYS799  TRP800  GLU811  SER814 

> <Gold.Protein.RotatedAtoms>
  151.5019  133.3503  159.2870 H   0  0  0  0  0  0  0  0  0  0  0  0  # atno 6907 bound_to 6896
  150.8768  134.8154  159.7206 H   0  0  0  0  0  0  0  0  0  0  0  0  # atno 6908 bound_to 6896
  152.4736  134.4911  159.9747 H   0  0  0  0  0  0  0  0  0  0  0  0  # atno 6909 bound_to 6896
  145.7564  139.2781  143.1402 H   0  0  0  0  0  0  0  0  0  0  0  0  # atno 7974 bound_to 7965
  154.9755  140.0397  157.2254 H   0  0  0  0  0  0  0  0  0  0  0  0  # atno 8008 bound_to 7997
  154.7762  140.2810  155.6077 H   0  0  0  0  0  0  0  0  0  0  0  0  # atno 8009 bound_to 7997
  156.2929  140.2600  156.2576 H   0  0  0  0  0  0  0  0  0  0  0  0  # atno 8010 bound_to 7997
  140.2850  144.3112  150.6254 H   0  0  0  0  0  0  0  0  0  0  0  0  # atno 10167 bound_to 10162
  157.6843  131.0710  150.5165 H   0  0  0  0  0  0  0  0  0  0  0  0  # atno 10718 bound_to 10713
  152.9950  135.6205  154.2553 H   0  0  0  0  0  0  0  0  0  0  0  0  # atno 10763 bound_to 10752
  154.2290  135.2793  155.2898 H   0  0  0  0  0  0  0  0  0  0  0  0  # atno 10764 bound_to 10752
  154.5465  135.5746  153.6943 H   0  0  0  0  0  0  0  0  0  0  0  0  # atno 10765 bound_to 10752
  141.0394  133.9859  157.3019 H   0  0  0  0  0  0  0  0  0  0  0  0  # atno 11005 bound_to 11000
  146.0307  140.8261  142.9877 LP  0  0  0  0  0  0  0  0  0  0  0  0  # atno 17320 bound_to 7965
  144.6839  140.2764  143.7298 LP  0  0  0  0  0  0  0  0  0  0  0  0  # atno 17321 bound_to 7965
  140.5780  143.2175  151.7480 LP  0  0  0  0  0  0  0  0  0  0  0  0  # atno 17342 bound_to 10162
  139.4952  144.4122  152.0068 LP  0  0  0  0  0  0  0  0  0  0  0  0  # atno 17343 bound_to 10162
  156.5480  130.4224  149.6121 LP  0  0  0  0  0  0  0  0  0  0  0  0  # atno 17370 bound_to 10713
  156.2927  130.7133  151.1986 LP  0  0  0  0  0  0  0  0  0  0  0  0  # atno 17371 bound_to 10713
  139.9264  135.0201  156.8250 LP  0  0  0  0  0  0  0  0  0  0  0  0  # atno 17394 bound_to 11000
  140.6263  133.9947  155.7641 LP  0  0  0  0  0  0  0  0  0  0  0  0  # atno 17395 bound_to 11000

$$$$
