AV-unprocessed.smi:2122|AV-procd|sdf|8646|dock10
  -GOLD-   2272011393D 1   1.00000     0.00000
 Structure written by MMmdl.
 41 41  0  0  0  0  0  0  0  0  1 V2000
  152.1232  143.6721  160.1689 C   0  0  0  0  0  0  0  0  0  0  0  0
  151.9431  143.7475  158.6489 C   0  0  0  0  0  0  0  0  0  0  0  0
  151.2285  142.5151  158.0788 C   0  0  0  0  0  0  0  0  0  0  0  0
  151.0503  142.5961  156.5531 C   0  0  0  0  0  0  0  0  0  0  0  0
  150.5844  141.3497  155.9792 N   0  0  0  0  0  0  0  0  0  0  0  0
  149.4704  141.2489  155.1409 C   0  0  0  0  0  0  0  0  0  0  0  0
  148.7737  142.4062  154.8288 N   0  0  0  0  0  0  0  0  0  0  0  0
  149.0722  140.0574  154.6089 C   0  0  0  0  0  0  0  0  0  0  0  0
  147.9609  139.9373  153.7761 N   0  0  0  0  0  0  0  0  0  0  0  0
  147.1703  141.1130  153.4402 C   0  0  0  0  0  0  0  0  0  0  0  0
  147.3362  138.6600  153.4316 C   0  0  0  0  0  0  0  0  0  0  0  0
  146.6981  138.6404  152.0324 C   0  0  0  0  0  0  0  0  0  0  0  0
  146.0840  137.3794  151.8278 O   0  0  0  0  0  0  0  0  0  0  0  0
  144.9818  137.1671  152.6923 C   0  0  0  0  0  0  0  0  0  0  0  0
  149.8094  138.8243  154.9142 C   0  0  0  0  0  0  0  0  0  0  0  0
  149.5245  137.6975  154.5102 O   0  0  0  0  0  0  0  0  0  0  0  0
  150.9226  138.9932  155.7339 N   0  0  0  0  0  0  0  0  0  0  0  0
  151.3552  140.1996  156.2729 C   0  0  0  0  0  0  0  0  0  0  0  0
  152.3710  140.2211  156.9690 O   0  0  0  0  0  0  0  0  0  0  0  0
  151.4637  138.1693  155.9522 H   0  0  0  0  0  0  0  0  0  0  0  0
  152.6356  144.5580  160.5444 H   0  0  0  0  0  0  0  0  0  0  0  0
  152.7136  142.8006  160.4523 H   0  0  0  0  0  0  0  0  0  0  0  0
  151.1605  143.6043  160.6764 H   0  0  0  0  0  0  0  0  0  0  0  0
  151.3785  144.6464  158.3983 H   0  0  0  0  0  0  0  0  0  0  0  0
  152.9198  143.8546  158.1759 H   0  0  0  0  0  0  0  0  0  0  0  0
  151.7952  141.6181  158.3316 H   0  0  0  0  0  0  0  0  0  0  0  0
  150.2546  142.4095  158.5584 H   0  0  0  0  0  0  0  0  0  0  0  0
  150.3532  143.3835  156.2611 H   0  0  0  0  0  0  0  0  0  0  0  0
  151.9857  142.8483  156.0546 H   0  0  0  0  0  0  0  0  0  0  0  0
  149.0551  143.3054  155.1925 H   0  0  0  0  0  0  0  0  0  0  0  0
  147.9621  142.3973  154.2283 H   0  0  0  0  0  0  0  0  0  0  0  0
  147.6460  142.0274  153.7973 H   0  0  0  0  0  0  0  0  0  0  0  0
  146.1803  141.0498  153.8933 H   0  0  0  0  0  0  0  0  0  0  0  0
  147.0512  141.1971  152.3597 H   0  0  0  0  0  0  0  0  0  0  0  0
  148.0845  137.8700  153.5072 H   0  0  0  0  0  0  0  0  0  0  0  0
  146.5681  138.4304  154.1715 H   0  0  0  0  0  0  0  0  0  0  0  0
  145.9528  139.4335  151.9507 H   0  0  0  0  0  0  0  0  0  0  0  0
  147.4500  138.8097  151.2603 H   0  0  0  0  0  0  0  0  0  0  0  0
  144.5445  136.1884  152.4953 H   0  0  0  0  0  0  0  0  0  0  0  0
  144.2069  137.9190  152.5365 H   0  0  0  0  0  0  0  0  0  0  0  0
  145.2905  137.1933  153.7382 H   0  0  0  0  0  0  0  0  0  0  0  0
  1  2  1  0  0  0  0
  1 21  1  0  0  0  0
  1 22  1  0  0  0  0
  1 23  1  0  0  0  0
  2  3  1  0  0  0  0
  2 24  1  0  0  0  0
  2 25  1  0  0  0  0
  3  4  1  0  0  0  0
  3 26  1  0  0  0  0
  3 27  1  0  0  0  0
  4  5  1  0  0  0  0
  4 28  1  0  0  0  0
  4 29  1  0  0  0  0
  5 18  1  0  0  0  0
  5  6  1  0  0  0  0
  6  7  1  0  0  0  0
  6  8  2  0  0  0  0
  7 30  1  0  0  0  0
  7 31  1  0  0  0  0
  8  9  1  0  0  0  0
  8 15  1  0  0  0  0
  9 10  1  0  0  0  0
  9 11  1  0  0  0  0
 10 32  1  0  0  0  0
 10 33  1  0  0  0  0
 10 34  1  0  0  0  0
 11 12  1  0  0  0  0
 11 35  1  0  0  0  0
 11 36  1  0  0  0  0
 12 13  1  0  0  0  0
 12 37  1  0  0  0  0
 12 38  1  0  0  0  0
 13 14  1  0  0  0  0
 14 39  1  0  0  0  0
 14 40  1  0  0  0  0
 14 41  1  0  0  0  0
 15 16  2  0  0  0  0
 15 17  1  0  0  0  0
 17 20  1  0  0  0  0
 17 18  1  0  0  0  0
 18 19  2  0  0  0  0
M  END
> <s_m_source_file>
AV-unprocessed.smi

> <i_m_source_file_index>
2122

> <i_lp_mmshare_version>
43012

> <i_f3d_flags>
0

> <s_epik_input>
W0NIM11bQ0gyXVtDSDJdW0NIMl1uMWMoW05IMl0pYyhjKD1PKVtuSF1jMT1PKU4oW0NIM10pW0NIMl1bQ0gyXU9bQ0gzXQ==

> <s_epik_cmdline>
J2VwaWtfcHl0aG9uJywgJy1waCcsICc3LjAnLCAnLXRuJywgJzgnLCAnLW1hJywgJzIwMCcsICctbWV0YWxfYmluZGluZycsICctaW1hZScsICc8aW5maWxlLm1hZT4nLCAnLW9tYWUnLCAnPG91dGZpbGUubWFlPic=

> <r_lp_tautomer_probability>
1

> <r_epik_Ionization_Penalty>
2.26322e-05

> <r_epik_Ionization_Penalty_Charging>
2.75876e-06

> <r_epik_Ionization_Penalty_Neutral>
1.98734e-05

> <r_epik_State_Penalty>
-0

> <r_epik_Charging_Adjusted_Penalty>
2.75876e-06

> <i_epik_Tot_Q>
0

> <i_epik_Tot_abs_Q>
0

> <r_epik_Metal_State_Penalty>
-0

> <b_epik_Metal_Only>
0

> <s_epik_Chemistry_Notes>
This compound has an imine and may undergo hydrolysis.

> <s_lp_Force_Field>
OPLS_2005

> <r_lp_Energy>
20.5532

> <b_lp_Chiralities_Consistent>
1

> <s_lp_Variant>
AV-unprocessed.smi:2122-1

> <Gold.Version>
5.8.1

> <Gold.Id.Protein>
6NUR|6NUR_protein|mol2

> <Gold.PLP.Fitness>
41.2903

> <Gold.PLP.PLP>
-35.9302

> <Gold.PLP.part.hbond>
-1.7368

> <Gold.PLP.part.metal>
0.0000

> <Gold.PLP.part.buried>
-4.9533

> <Gold.PLP.part.nonpolar>
-32.2364

> <Gold.PLP.part.repulsive>
1.6352

> <Gold.PLP.ligand.clash>
20.2349

> <Gold.PLP.ligand.torsion>
0.4081

> <Gold.PLP.Chemscore.Hbond>
1.9920

> <Gold.PLP.Chemscore.CHOScore>
0.0000

> <Gold.PLP.Chemscore.Metal>
0.0000

> <Gold.Chemscore.Hbonds>
donor molecule, donor type, donor heavy atom, donor atom, acceptor molecule, acceptor atom, score
      L1  H     7    30       P1  8028  0.89
      P1  H  7997  8009       L1    19  0.99

> <Gold.PLP.Chemscore.Internal.Correction>
20.4353

> <Gold.Rescore>
     Score         DG    S(hbond)    S(metal)    S(lipo)     H(rot)  DE(clash)    DE(int)     intcor
      9.84     -14.60       1.82        0.00      73.30       2.16       0.87       3.88       ----

> <Gold.Chemscore.Fitness>
9.8418

> <Gold.Chemscore.DG>
-14.5962

> <Gold.Chemscore.ZeroCoef>
-5.4800

> <Gold.Chemscore.Hbond>
1.8157

> <Gold.Chemscore.Metal>
0.0000

> <Gold.Chemscore.Lipo>
73.2989

> <Gold.Chemscore.Internal_Hbond>
0.0000

> <Gold.Chemscore.DEClash>
0.8705

> <Gold.Chemscore.DEInternal>
3.8840

> <Gold.Chemscore.Rot>
2.1579

> <Gold.Chemscore.Internal.Correction>
   9.000000E+99

> <Gold.Chemscore.Hbonds>
donor molecule, donor type, donor heavy atom, donor atom, acceptor molecule, acceptor atom, score
      L1  H     7    30       P1  8028  0.86
      P1  H  7997  8009       L1    19  0.88

> <Gold.Chemscore.Hbond.Weighted>
-6.0644

> <Gold.Chemscore.Metal.Weighted>
-0.0000

> <Gold.Chemscore.Lipo.Weighted>
-8.5760

> <Gold.Chemscore.Internal_Hbond.Weighted>
0.0000

> <Gold.Chemscore.DEClash.Weighted>
0.8705

> <Gold.Chemscore.DEInternal.Weighted>
3.8840

> <Gold.Chemscore.Rot.Weighted>
5.5241

> <Gold.Chemscore.Internal.Correction.Weighted>
   9.000000E+99

> <Gold.Protein.RotatedTorsions>
[ 6907 6896 6895 6894 ] final  -29.98 input  -60.11 | X-H torsion
[ 7974 7965 7964 7962 ] final -156.86 input  175.53 | X-H torsion
[ 8008 7997 7996 7995 ] final -167.51 input   59.86 | X-H torsion
[ 10167 10162 10161 10158 ] final   67.37 input  -65.29 | X-H torsion
[ 10718 10713 10712 10709 ] final -159.53 input   66.30 | X-H torsion
[ 10763 10752 10751 10750 ] final -102.39 input  -60.55 | X-H torsion
[ 11005 11000 10999 10996 ] final  177.29 input  -57.11 | X-H torsion

> <Gold.Protein.ActiveResidues>
 VAL166  LYS551  ARG553  GLY616  TRP617  ASP618  TYR619  PRO620  LYS621  CYS622 
 ASP623  PHE694  ASN695  SER759  ASP760  ASP761  ALA762  ILE779  LEU786  VAL792 
 PHE793  MET794  SER795  GLU796  ALA797  LYS798  CYS799  TRP800  GLU811  SER814 

> <Gold.Protein.RotatedAtoms>
  151.1118  135.0031  159.8497 H   0  0  0  0  0  0  0  0  0  0  0  0  # atno 6907 bound_to 6896
  152.5443  134.1827  159.8652 H   0  0  0  0  0  0  0  0  0  0  0  0  # atno 6908 bound_to 6896
  151.1878  133.4641  159.2628 H   0  0  0  0  0  0  0  0  0  0  0  0  # atno 6909 bound_to 6896
  144.7574  140.4050  143.6002 H   0  0  0  0  0  0  0  0  0  0  0  0  # atno 7974 bound_to 7965
  155.8787  140.1005  157.1500 H   0  0  0  0  0  0  0  0  0  0  0  0  # atno 8008 bound_to 7997
  154.4003  140.1333  156.4232 H   0  0  0  0  0  0  0  0  0  0  0  0  # atno 8009 bound_to 7997
  155.7668  140.3462  155.5228 H   0  0  0  0  0  0  0  0  0  0  0  0  # atno 8010 bound_to 7997
  140.0903  144.4994  150.7103 H   0  0  0  0  0  0  0  0  0  0  0  0  # atno 10167 bound_to 10162
  156.5694  130.8682  151.2833 H   0  0  0  0  0  0  0  0  0  0  0  0  # atno 10718 bound_to 10713
  154.7730  135.4862  153.9687 H   0  0  0  0  0  0  0  0  0  0  0  0  # atno 10763 bound_to 10752
  153.1392  135.6769  153.9061 H   0  0  0  0  0  0  0  0  0  0  0  0  # atno 10764 bound_to 10752
  153.8740  135.3140  155.3421 H   0  0  0  0  0  0  0  0  0  0  0  0  # atno 10765 bound_to 10752
  140.3825  134.6934  157.4459 H   0  0  0  0  0  0  0  0  0  0  0  0  # atno 11005 bound_to 11000
  145.6733  139.1603  143.2742 LP  0  0  0  0  0  0  0  0  0  0  0  0  # atno 17320 bound_to 7965
  146.1599  140.6803  142.9282 LP  0  0  0  0  0  0  0  0  0  0  0  0  # atno 17321 bound_to 7965
  140.7032  143.2449  151.4804 LP  0  0  0  0  0  0  0  0  0  0  0  0  # atno 17342 bound_to 10162
  139.5728  144.1887  152.1861 LP  0  0  0  0  0  0  0  0  0  0  0  0  # atno 17343 bound_to 10162
  157.7351  130.9757  150.2066 LP  0  0  0  0  0  0  0  0  0  0  0  0  # atno 17370 bound_to 10713
  156.2728  130.3724  149.8014 LP  0  0  0  0  0  0  0  0  0  0  0  0  # atno 17371 bound_to 10713
  140.0467  134.6188  155.8912 LP  0  0  0  0  0  0  0  0  0  0  0  0  # atno 17394 bound_to 11000
  141.1918  133.6573  156.5475 LP  0  0  0  0  0  0  0  0  0  0  0  0  # atno 17395 bound_to 11000

$$$$
