AV-unprocessed.smi:3217|AV-procd|sdf|12290|dock9
  -GOLD-   2272018133D 1   1.00000     0.00000
 Structure written by MMmdl.
 34 35  0  0  0  0  0  0  0  0  1 V2000
  144.4581  135.4711  152.7661 C   0  0  0  0  0  0  0  0  0  0  0  0
  145.3151  135.7575  151.5246 C   0  0  1  0  0  0  0  0  0  0  0  0
  146.4789  136.5466  151.9267 N   0  0  0  0  0  0  0  0  0  0  0  0
  146.4488  137.7301  152.5565 C   0  0  0  0  0  0  0  0  0  0  0  0
  145.4092  138.3104  152.8674 O   0  0  0  0  0  0  0  0  0  0  0  0
  147.6932  138.1737  152.8043 N   0  0  0  0  0  0  0  0  0  0  0  0
  148.1031  139.3588  153.4744 C   0  0  0  0  0  0  0  0  0  0  0  0
  147.2757  140.4878  153.6918 C   0  0  0  0  0  0  0  0  0  0  0  0
  147.8114  141.6041  154.3629 C   0  0  0  0  0  0  0  0  0  0  0  0
  149.1541  141.5560  154.7843 C   0  0  0  0  0  0  0  0  0  0  0  0
  149.9578  140.4929  154.5725 N   0  0  0  0  0  0  0  0  0  0  0  0
  149.4371  139.4259  153.9297 C   0  0  0  0  0  0  0  0  0  0  0  0
  145.7633  134.4607  150.8204 C   0  0  2  0  0  0  0  0  0  0  0  0
  144.6208  133.5628  150.3379 C   0  0  0  0  0  0  0  0  0  0  0  0
  145.2820  132.2043  150.3164 C   0  0  0  0  0  0  0  0  0  0  0  0
  146.1574  132.2715  151.5629 C   0  0  0  0  0  0  0  0  0  0  0  0
  146.5177  133.6422  151.7132 O   0  0  0  0  0  0  0  0  0  0  0  0
  143.5582  134.9143  152.5039 H   0  0  0  0  0  0  0  0  0  0  0  0
  144.1410  136.3982  153.2451 H   0  0  0  0  0  0  0  0  0  0  0  0
  145.0082  134.8862  153.5040 H   0  0  0  0  0  0  0  0  0  0  0  0
  144.7002  136.3271  150.8256 H   0  0  0  0  0  0  0  0  0  0  0  0
  147.3828  136.1501  151.7154 H   0  0  0  0  0  0  0  0  0  0  0  0
  148.4422  137.5538  152.5333 H   0  0  0  0  0  0  0  0  0  0  0  0
  146.2530  140.5299  153.3528 H   0  0  0  0  0  0  0  0  0  0  0  0
  147.2062  142.4793  154.5473 H   0  0  0  0  0  0  0  0  0  0  0  0
  149.5955  142.3957  155.3004 H   0  0  0  0  0  0  0  0  0  0  0  0
  150.1100  138.5943  153.7780 H   0  0  0  0  0  0  0  0  0  0  0  0
  146.4068  134.6977  149.9713 H   0  0  0  0  0  0  0  0  0  0  0  0
  143.7990  133.5647  151.0556 H   0  0  0  0  0  0  0  0  0  0  0  0
  144.2263  133.8604  149.3659 H   0  0  0  0  0  0  0  0  0  0  0  0
  144.5704  131.3786  150.3383 H   0  0  0  0  0  0  0  0  0  0  0  0
  145.9015  132.1016  149.4243 H   0  0  0  0  0  0  0  0  0  0  0  0
  145.5901  131.9651  152.4426 H   0  0  0  0  0  0  0  0  0  0  0  0
  147.0377  131.6328  151.4887 H   0  0  0  0  0  0  0  0  0  0  0  0
  1  2  1  0  0  0  0
  1 18  1  0  0  0  0
  1 19  1  0  0  0  0
  1 20  1  0  0  0  0
  2  3  1  0  0  0  0
  2 13  1  0  0  0  0
  2 21  1  0  0  0  0
  3  4  1  0  0  0  0
  3 22  1  0  0  0  0
  4  5  2  0  0  0  0
  4  6  1  0  0  0  0
  6  7  1  0  0  0  0
  6 23  1  0  0  0  0
  7 12  1  0  0  0  0
  7  8  2  0  0  0  0
  8  9  1  0  0  0  0
  8 24  1  0  0  0  0
  9 10  2  0  0  0  0
  9 25  1  0  0  0  0
 10 11  1  0  0  0  0
 10 26  1  0  0  0  0
 11 12  2  0  0  0  0
 12 27  1  0  0  0  0
 13 17  1  0  0  0  0
 13 14  1  0  0  0  0
 13 28  1  0  0  0  0
 14 15  1  0  0  0  0
 14 29  1  0  0  0  0
 14 30  1  0  0  0  0
 15 16  1  0  0  0  0
 15 31  1  0  0  0  0
 15 32  1  0  0  0  0
 16 17  1  0  0  0  0
 16 33  1  0  0  0  0
 16 34  1  0  0  0  0
M  END
> <s_m_source_file>
AV-unprocessed.smi

> <i_m_source_file_index>
3217

> <i_lp_mmshare_version>
43012

> <i_f3d_flags>
0

> <s_epik_input>
TzFbQ0gyXVtDSDJdW0NIMl1bQ0BIXTFbQ0BIXShbQ0gzXSlbTkhdQyg9TylbTkhdYzJbY0hdW2NIXVtjSF1uW2NIXTI=

> <s_epik_cmdline>
J2VwaWtfcHl0aG9uJywgJy1waCcsICc3LjAnLCAnLXRuJywgJzgnLCAnLW1hJywgJzIwMCcsICctbWV0YWxfYmluZGluZycsICctaW1hZScsICc8aW5maWxlLm1hZT4nLCAnLW9tYWUnLCAnPG91dGZpbGUubWFlPic=

> <r_epik_Ionization_Penalty>
0.00475451

> <r_epik_Ionization_Penalty_Charging>
0

> <r_epik_Ionization_Penalty_Neutral>
0.00475451

> <r_epik_State_Penalty>
0.00341814

> <r_epik_Charging_Adjusted_Penalty>
0.00341814

> <i_epik_Tot_Q>
0

> <i_epik_Tot_abs_Q>
0

> <r_epik_Metal_State_Penalty>
-0

> <b_epik_Metal_Only>
0

> <s_lp_Force_Field>
OPLS_2005

> <r_lp_Energy>
20.7148

> <b_lp_Chiralities_Consistent>
1

> <s_lp_Variant>
AV-unprocessed.smi:3217-2

> <Gold.Version>
5.8.1

> <Gold.Id.Protein>
6NUR|6NUR_protein|mol2

> <Gold.PLP.Fitness>
38.6779

> <Gold.PLP.PLP>
-27.2308

> <Gold.PLP.part.hbond>
-3.4809

> <Gold.PLP.part.metal>
0.0000

> <Gold.PLP.part.buried>
1.2168

> <Gold.PLP.part.nonpolar>
-27.9056

> <Gold.PLP.part.repulsive>
3.1203

> <Gold.PLP.ligand.clash>
0.0000

> <Gold.PLP.ligand.torsion>
0.0769

> <Gold.PLP.Chemscore.Hbond>
2.8640

> <Gold.PLP.Chemscore.CHOScore>
1.0000

> <Gold.PLP.Chemscore.Metal>
0.0000

> <Gold.Chemscore.Hbonds>
donor molecule, donor type, donor heavy atom, donor atom, acceptor molecule, acceptor atom, score
      L1  H     3    22       P1  7948  0.99
      L1  H     6    23       P1  7948  1.00
      P1  H  7989  7998       L1    11  0.88
      L1  C    10    26       P1  8028  1.00

> <Gold.PLP.Chemscore.Internal.Correction>
0.0088

> <Gold.Rescore>
     Score         DG    S(hbond)    S(metal)    S(lipo)     H(rot)  DE(clash)    DE(int)     intcor
     13.76     -17.34       2.11        0.00      67.75       1.22       1.23       2.34       ----

> <Gold.Chemscore.Fitness>
13.7642

> <Gold.Chemscore.DG>
-17.3380

> <Gold.Chemscore.ZeroCoef>
-5.4800

> <Gold.Chemscore.Hbond>
2.1150

> <Gold.Chemscore.Metal>
0.0000

> <Gold.Chemscore.Lipo>
67.7484

> <Gold.Chemscore.Internal_Hbond>
0.0000

> <Gold.Chemscore.DEClash>
1.2349

> <Gold.Chemscore.DEInternal>
2.3389

> <Gold.Chemscore.Rot>
1.2236

> <Gold.Chemscore.Internal.Correction>
   9.000000E+99

> <Gold.Chemscore.Hbonds>
donor molecule, donor type, donor heavy atom, donor atom, acceptor molecule, acceptor atom, score
      L1  H     3    22       P1  7948  0.90
      L1  H     6    23       P1  7948  0.92
      P1  H  7989  7998       L1    11  0.26

> <Gold.Chemscore.Hbond.Weighted>
-7.0640

> <Gold.Chemscore.Metal.Weighted>
-0.0000

> <Gold.Chemscore.Lipo.Weighted>
-7.9266

> <Gold.Chemscore.Internal_Hbond.Weighted>
0.0000

> <Gold.Chemscore.DEClash.Weighted>
1.2349

> <Gold.Chemscore.DEInternal.Weighted>
2.3389

> <Gold.Chemscore.Rot.Weighted>
3.1325

> <Gold.Chemscore.Internal.Correction.Weighted>
   9.000000E+99

> <Gold.Protein.RotatedTorsions>
[ 6907 6896 6895 6894 ] final  -79.75 input  -60.11 | X-H torsion
[ 7974 7965 7964 7962 ] final  167.92 input  175.53 | X-H torsion
[ 8008 7997 7996 7995 ] final  165.73 input   59.86 | X-H torsion
[ 10167 10162 10161 10158 ] final  111.05 input  -65.29 | X-H torsion
[ 10718 10713 10712 10709 ] final -118.63 input   66.30 | X-H torsion
[ 10763 10752 10751 10750 ] final  140.18 input  -60.55 | X-H torsion
[ 11005 11000 10999 10996 ] final  -27.38 input  -57.11 | X-H torsion

> <Gold.Protein.ActiveResidues>
 VAL166  LYS551  ARG553  GLY616  TRP617  ASP618  TYR619  PRO620  LYS621  CYS622 
 ASP623  PHE694  ASN695  SER759  ASP760  ASP761  ALA762  ILE779  LEU786  VAL792 
 PHE793  MET794  SER795  GLU796  ALA797  LYS798  CYS799  TRP800  GLU811  SER814 

> <Gold.Protein.RotatedAtoms>
  150.6943  134.4074  159.5145 H   0  0  0  0  0  0  0  0  0  0  0  0  # atno 6907 bound_to 6896
  152.1838  134.8729  160.0533 H   0  0  0  0  0  0  0  0  0  0  0  0  # atno 6908 bound_to 6896
  151.9709  133.3691  159.4108 H   0  0  0  0  0  0  0  0  0  0  0  0  # atno 6909 bound_to 6896
  144.7407  139.8832  143.6398 H   0  0  0  0  0  0  0  0  0  0  0  0  # atno 7974 bound_to 7965
  156.1776  140.1662  156.8333 H   0  0  0  0  0  0  0  0  0  0  0  0  # atno 8008 bound_to 7997
  154.5324  140.0754  156.8402 H   0  0  0  0  0  0  0  0  0  0  0  0  # atno 8009 bound_to 7997
  155.3379  140.3383  155.4241 H   0  0  0  0  0  0  0  0  0  0  0  0  # atno 8010 bound_to 7997
  139.6641  144.7128  151.1810 H   0  0  0  0  0  0  0  0  0  0  0  0  # atno 10167 bound_to 10162
  156.1120  130.6256  150.9315 H   0  0  0  0  0  0  0  0  0  0  0  0  # atno 10718 bound_to 10713
  153.9185  135.3003  155.3448 H   0  0  0  0  0  0  0  0  0  0  0  0  # atno 10763 bound_to 10752
  154.7587  135.4944  153.9427 H   0  0  0  0  0  0  0  0  0  0  0  0  # atno 10764 bound_to 10752
  153.1154  135.6769  153.9529 H   0  0  0  0  0  0  0  0  0  0  0  0  # atno 10765 bound_to 10752
  140.9114  133.7458  156.0675 H   0  0  0  0  0  0  0  0  0  0  0  0  # atno 11005 bound_to 11000
  146.1196  139.4212  143.0236 LP  0  0  0  0  0  0  0  0  0  0  0  0  # atno 17320 bound_to 7965
  145.7324  141.0037  143.1344 LP  0  0  0  0  0  0  0  0  0  0  0  0  # atno 17321 bound_to 7965
  140.7592  143.5948  150.8760 LP  0  0  0  0  0  0  0  0  0  0  0  0  # atno 17342 bound_to 10162
  139.9608  143.6166  152.3003 LP  0  0  0  0  0  0  0  0  0  0  0  0  # atno 17343 bound_to 10162
  157.6302  131.0922  150.8456 LP  0  0  0  0  0  0  0  0  0  0  0  0  # atno 17370 bound_to 10713
  156.8565  130.5098  149.5307 LP  0  0  0  0  0  0  0  0  0  0  0  0  # atno 17371 bound_to 10713
  140.8106  134.3404  157.5413 LP  0  0  0  0  0  0  0  0  0  0  0  0  # atno 17394 bound_to 11000
  139.8758  134.9251  156.3367 LP  0  0  0  0  0  0  0  0  0  0  0  0  # atno 17395 bound_to 11000

$$$$
