AV-unprocessed.smi:1612|AV-procd|sdf|6477|dock6
  -GOLD-   22720 7133D 1   1.00000     0.00000
 Structure written by MMmdl.
 37 38  0  0  0  0  0  0  0  0  1 V2000
  149.5116  135.5168  156.5872 C   0  0  0  0  0  0  0  0  0  0  0  0
  150.1699  135.5741  155.1909 C   0  0  1  0  0  0  0  0  0  0  0  0
  149.2858  135.0715  154.1332 N   0  0  0  0  0  0  0  0  0  0  0  0
  148.5514  133.9461  154.1355 C   0  0  0  0  0  0  0  0  0  0  0  0
  148.4710  133.1805  155.0959 O   0  0  0  0  0  0  0  0  0  0  0  0
  147.9176  133.7830  152.9606 N   0  0  0  0  0  0  0  0  0  0  0  0
  147.0491  132.7288  152.5694 C   0  0  0  0  0  0  0  0  0  0  0  0
  146.6611  132.7467  151.2104 C   0  0  0  0  0  0  0  0  0  0  0  0
  145.8007  131.7442  150.7224 C   0  0  0  0  0  0  0  0  0  0  0  0
  145.3490  130.7487  151.6069 C   0  0  0  0  0  0  0  0  0  0  0  0
  145.7825  130.8039  152.9442 C   0  0  0  0  0  0  0  0  0  0  0  0
  146.6075  131.7634  153.4138 N   0  0  0  0  0  0  0  0  0  0  0  0
  150.7747  136.9472  154.8307 C   0  0  0  0  0  0  0  0  0  0  0  0
  151.9833  137.0271  154.6069 O   0  0  0  0  0  0  0  0  0  0  0  0
  149.9708  138.0325  154.7819 N   0  0  0  0  0  0  0  0  0  0  0  0
  150.3789  139.4031  154.4710 C   0  0  0  0  0  0  0  0  0  0  0  0
  149.0824  140.1995  154.3213 C   0  0  0  0  0  0  0  0  0  0  0  0
  148.0733  139.4300  155.1611 C   0  0  0  0  0  0  0  0  0  0  0  0
  148.5360  137.9768  155.0585 C   0  0  0  0  0  0  0  0  0  0  0  0
  150.2344  135.7638  157.3654 H   0  0  0  0  0  0  0  0  0  0  0  0
  149.1343  134.5163  156.8012 H   0  0  0  0  0  0  0  0  0  0  0  0
  148.6798  136.2139  156.6894 H   0  0  0  0  0  0  0  0  0  0  0  0
  150.9960  134.8647  155.2369 H   0  0  0  0  0  0  0  0  0  0  0  0
  149.2574  135.6294  153.2925 H   0  0  0  0  0  0  0  0  0  0  0  0
  148.0769  134.4941  152.2625 H   0  0  0  0  0  0  0  0  0  0  0  0
  147.0178  133.5190  150.5444 H   0  0  0  0  0  0  0  0  0  0  0  0
  145.4932  131.7401  149.6871 H   0  0  0  0  0  0  0  0  0  0  0  0
  144.6881  129.9636  151.2701 H   0  0  0  0  0  0  0  0  0  0  0  0
  145.4591  130.0583  153.6554 H   0  0  0  0  0  0  0  0  0  0  0  0
  150.9698  139.7952  155.2998 H   0  0  0  0  0  0  0  0  0  0  0  0
  150.9785  139.4662  153.5628 H   0  0  0  0  0  0  0  0  0  0  0  0
  149.1864  141.2395  154.6319 H   0  0  0  0  0  0  0  0  0  0  0  0
  148.7676  140.1923  153.2769 H   0  0  0  0  0  0  0  0  0  0  0  0
  148.1344  139.7616  156.1985 H   0  0  0  0  0  0  0  0  0  0  0  0
  147.0457  139.5714  154.8252 H   0  0  0  0  0  0  0  0  0  0  0  0
  148.0357  137.4728  154.2301 H   0  0  0  0  0  0  0  0  0  0  0  0
  148.3138  137.4260  155.9740 H   0  0  0  0  0  0  0  0  0  0  0  0
  1  2  1  0  0  0  0
  1 20  1  0  0  0  0
  1 21  1  0  0  0  0
  1 22  1  0  0  0  0
  2  3  1  0  0  0  0
  2 13  1  0  0  0  0
  2 23  1  0  0  0  0
  3  4  1  0  0  0  0
  3 24  1  0  0  0  0
  4  5  2  0  0  0  0
  4  6  1  0  0  0  0
  6  7  1  0  0  0  0
  6 25  1  0  0  0  0
  7 12  1  0  0  0  0
  7  8  2  0  0  0  0
  8  9  1  0  0  0  0
  8 26  1  0  0  0  0
  9 10  2  0  0  0  0
  9 27  1  0  0  0  0
 10 11  1  0  0  0  0
 10 28  1  0  0  0  0
 11 12  2  0  0  0  0
 11 29  1  0  0  0  0
 13 14  2  0  0  0  0
 13 15  1  0  0  0  0
 15 19  1  0  0  0  0
 15 16  1  0  0  0  0
 16 17  1  0  0  0  0
 16 30  1  0  0  0  0
 16 31  1  0  0  0  0
 17 18  1  0  0  0  0
 17 32  1  0  0  0  0
 17 33  1  0  0  0  0
 18 19  1  0  0  0  0
 18 34  1  0  0  0  0
 18 35  1  0  0  0  0
 19 36  1  0  0  0  0
 19 37  1  0  0  0  0
M  END
> <s_m_source_file>
AV-unprocessed.smi

> <i_m_source_file_index>
1612

> <i_lp_mmshare_version>
43012

> <i_f3d_flags>
0

> <s_epik_input>
W0NIMl0xW0NIMl1bQ0gyXVtDSDJdTjFDKD1PKVtDQEhdKFtDSDNdKVtOSF1DKD1PKVtOSF1jMltjSF1bY0hdW2NIXVtjSF1uMg==

> <s_epik_cmdline>
J2VwaWtfcHl0aG9uJywgJy1waCcsICc3LjAnLCAnLXRuJywgJzgnLCAnLW1hJywgJzIwMCcsICctbWV0YWxfYmluZGluZycsICctaW1hZScsICc8aW5maWxlLm1hZT4nLCAnLW9tYWUnLCAnPG91dGZpbGUubWFlPic=

> <r_lp_tautomer_probability>
1

> <r_epik_Ionization_Penalty>
3.95281e-05

> <r_epik_Ionization_Penalty_Charging>
0

> <r_epik_Ionization_Penalty_Neutral>
3.95281e-05

> <r_epik_State_Penalty>
-0

> <r_epik_Charging_Adjusted_Penalty>
0

> <i_epik_Tot_Q>
0

> <i_epik_Tot_abs_Q>
0

> <r_epik_Metal_State_Penalty>
-0

> <b_epik_Metal_Only>
0

> <s_lp_Force_Field>
OPLS_2005

> <r_lp_Energy>
35.1648

> <b_lp_Chiralities_Consistent>
1

> <s_lp_Variant>
AV-unprocessed.smi:1612-2

> <Gold.Version>
5.8.1

> <Gold.Id.Protein>
6NUR|6NUR_protein|mol2

> <Gold.PLP.Fitness>
39.1300

> <Gold.PLP.PLP>
-27.8610

> <Gold.PLP.part.hbond>
-3.0535

> <Gold.PLP.part.metal>
0.0000

> <Gold.PLP.part.buried>
-1.1566

> <Gold.PLP.part.nonpolar>
-24.4224

> <Gold.PLP.part.repulsive>
0.3212

> <Gold.PLP.ligand.clash>
0.0000

> <Gold.PLP.ligand.torsion>
0.1645

> <Gold.PLP.Chemscore.Hbond>
2.8736

> <Gold.PLP.Chemscore.CHOScore>
0.9447

> <Gold.PLP.Chemscore.Metal>
0.0000

> <Gold.Chemscore.Hbonds>
donor molecule, donor type, donor heavy atom, donor atom, acceptor molecule, acceptor atom, score
      L1  H     3    24       P1  7948  1.00
      L1  H     6    25       P1  7948  0.88
      P1  H 10752 10765       L1    14  0.99
      L1  C    11    29       P1 10956  0.96

> <Gold.PLP.Chemscore.Internal.Correction>
0.1430

> <Gold.Rescore>
     Score         DG    S(hbond)    S(metal)    S(lipo)     H(rot)  DE(clash)    DE(int)     intcor
     13.75     -17.13       2.73        0.00      50.19       1.30       0.00       3.38       ----

> <Gold.Chemscore.Fitness>
13.7529

> <Gold.Chemscore.DG>
-17.1300

> <Gold.Chemscore.ZeroCoef>
-5.4800

> <Gold.Chemscore.Hbond>
2.7274

> <Gold.Chemscore.Metal>
0.0000

> <Gold.Chemscore.Lipo>
50.1940

> <Gold.Chemscore.Internal_Hbond>
0.0000

> <Gold.Chemscore.DEClash>
0.0004

> <Gold.Chemscore.DEInternal>
3.3767

> <Gold.Chemscore.Rot>
1.3016

> <Gold.Chemscore.Internal.Correction>
   9.000000E+99

> <Gold.Chemscore.Hbonds>
donor molecule, donor type, donor heavy atom, donor atom, acceptor molecule, acceptor atom, score
      L1  H     3    24       P1  7948  0.38
      L1  H     6    25       P1  7948  0.19
      P1  H 10752 10765       L1    14  0.94

> <Gold.Chemscore.Hbond.Weighted>
-9.1095

> <Gold.Chemscore.Metal.Weighted>
-0.0000

> <Gold.Chemscore.Lipo.Weighted>
-5.8727

> <Gold.Chemscore.Internal_Hbond.Weighted>
0.0000

> <Gold.Chemscore.DEClash.Weighted>
0.0004

> <Gold.Chemscore.DEInternal.Weighted>
3.3767

> <Gold.Chemscore.Rot.Weighted>
3.3322

> <Gold.Chemscore.Internal.Correction.Weighted>
   9.000000E+99

> <Gold.Protein.RotatedTorsions>
[ 6907 6896 6895 6894 ] final  -27.85 input  -60.11 | X-H torsion
[ 7974 7965 7964 7962 ] final  -46.04 input  175.53 | X-H torsion
[ 8008 7997 7996 7995 ] final  107.46 input   59.86 | X-H torsion
[ 10167 10162 10161 10158 ] final   53.95 input  -65.29 | X-H torsion
[ 10718 10713 10712 10709 ] final  -77.65 input   66.30 | X-H torsion
[ 10763 10752 10751 10750 ] final  162.82 input  -60.55 | X-H torsion
[ 11005 11000 10999 10996 ] final  133.81 input  -57.11 | X-H torsion

> <Gold.Protein.ActiveResidues>
 VAL166  LYS551  ARG553  GLY616  TRP617  ASP618  TYR619  PRO620  LYS621  CYS622 
 ASP623  PHE694  ASN695  SER759  ASP760  ASP761  ALA762  ILE779  LEU786  VAL792 
 PHE793  MET794  SER795  GLU796  ALA797  LYS798  CYS799  TRP800  GLU811  SER814 

> <Gold.Protein.RotatedAtoms>
  151.1411  135.0180  159.8625 H   0  0  0  0  0  0  0  0  0  0  0  0  # atno 6907 bound_to 6896
  152.5452  134.1497  159.8523 H   0  0  0  0  0  0  0  0  0  0  0  0  # atno 6908 bound_to 6896
  151.1573  133.4822  159.2627 H   0  0  0  0  0  0  0  0  0  0  0  0  # atno 6909 bound_to 6896
  145.9759  140.7334  142.9387 H   0  0  0  0  0  0  0  0  0  0  0  0  # atno 7974 bound_to 7965
  156.1826  140.3094  155.9177 H   0  0  0  0  0  0  0  0  0  0  0  0  # atno 8008 bound_to 7997
  155.3352  140.0463  157.3060 H   0  0  0  0  0  0  0  0  0  0  0  0  # atno 8009 bound_to 7997
  154.5359  140.2246  155.8733 H   0  0  0  0  0  0  0  0  0  0  0  0  # atno 8010 bound_to 7997
  140.2353  144.3643  150.6399 H   0  0  0  0  0  0  0  0  0  0  0  0  # atno 10167 bound_to 10162
  156.0139  130.4497  150.3377 H   0  0  0  0  0  0  0  0  0  0  0  0  # atno 10718 bound_to 10713
  154.2842  135.2762  155.2683 H   0  0  0  0  0  0  0  0  0  0  0  0  # atno 10763 bound_to 10752
  154.5191  135.5761  153.6669 H   0  0  0  0  0  0  0  0  0  0  0  0  # atno 10764 bound_to 10752
  152.9924  135.6200  154.3003 H   0  0  0  0  0  0  0  0  0  0  0  0  # atno 10765 bound_to 10752
  139.9875  134.9527  156.9778 H   0  0  0  0  0  0  0  0  0  0  0  0  # atno 11005 bound_to 11000
  144.6848  140.2827  143.7290 LP  0  0  0  0  0  0  0  0  0  0  0  0  # atno 17320 bound_to 7965
  145.7839  139.1901  143.2142 LP  0  0  0  0  0  0  0  0  0  0  0  0  # atno 17321 bound_to 7965
  140.6155  143.2172  151.6801 LP  0  0  0  0  0  0  0  0  0  0  0  0  # atno 17342 bound_to 10162
  139.5096  144.3572  152.0597 LP  0  0  0  0  0  0  0  0  0  0  0  0  # atno 17343 bound_to 10162
  157.1473  131.0312  151.2901 LP  0  0  0  0  0  0  0  0  0  0  0  0  # atno 17370 bound_to 10713
  157.4422  130.7550  149.7079 LP  0  0  0  0  0  0  0  0  0  0  0  0  # atno 17371 bound_to 10713
  140.4973  134.1132  155.7244 LP  0  0  0  0  0  0  0  0  0  0  0  0  # atno 17394 bound_to 11000
  141.1537  133.8921  157.2032 LP  0  0  0  0  0  0  0  0  0  0  0  0  # atno 17395 bound_to 11000

$$$$
