AV-unprocessed.smi:3303|AV-procd|sdf|12683|dock1
  -GOLD-   2272019 23D 1   1.00000     0.00000
 Structure written by MMmdl.
 44 45  0  0  0  0  0  0  0  0  2 V2000
  152.5421  138.4638  155.8120 C   0  0  0  0  0  0  0  0  0  0  0  0
  151.1229  139.0354  155.6462 C   0  0  2  0  0  0  0  0  0  0  0  0
  150.7478  139.0789  154.1469 C   0  0  0  0  0  0  0  0  0  0  0  0
  149.4015  139.6601  153.9101 N   0  3  1  0  0  0  0  0  0  0  0  0
  148.2998  138.7353  154.2792 C   0  0  0  0  0  0  0  0  0  0  0  0
  149.2982  141.0385  154.4685 C   0  0  1  0  0  0  0  0  0  0  0  0
  147.9614  141.7226  154.1337 C   0  0  0  0  0  0  0  0  0  0  0  0
  149.6048  141.0524  155.9787 C   0  0  0  0  0  0  0  0  0  0  0  0
  150.9856  140.4396  156.2818 C   0  0  1  0  0  0  0  0  0  0  0  0
  151.1124  140.3343  157.7305 N   0  0  0  0  0  0  0  0  0  0  0  0
  152.5015  140.4348  158.1506 C   0  0  0  0  0  0  0  0  0  0  0  0
  152.5787  141.1544  159.5040 C   0  0  0  0  0  0  0  0  0  0  0  0
  152.1862  142.6159  159.4000 C   0  0  0  0  0  0  0  0  0  0  0  0
  152.2846  143.4701  160.5191 C   0  0  0  0  0  0  0  0  0  0  0  0
  151.9067  144.8185  160.3692 C   0  0  0  0  0  0  0  0  0  0  0  0
  151.4456  145.2583  159.1136 C   0  0  0  0  0  0  0  0  0  0  0  0
  151.3834  144.3261  158.0586 C   0  0  0  0  0  0  0  0  0  0  0  0
  151.7441  143.0313  158.1914 N   0  0  0  0  0  0  0  0  0  0  0  0
  153.2869  139.1123  155.3496 H   0  0  0  0  0  0  0  0  0  0  0  0
  152.6250  137.4799  155.3492 H   0  0  0  0  0  0  0  0  0  0  0  0
  152.8086  138.3490  156.8629 H   0  0  0  0  0  0  0  0  0  0  0  0
  150.4343  138.3553  156.1499 H   0  0  0  0  0  0  0  0  0  0  0  0
  151.4787  139.6807  153.6047 H   0  0  0  0  0  0  0  0  0  0  0  0
  150.7977  138.0802  153.7112 H   0  0  0  0  0  0  0  0  0  0  0  0
  148.2206  138.6001  155.3577 H   0  0  0  0  0  0  0  0  0  0  0  0
  148.4611  137.7543  153.8316 H   0  0  0  0  0  0  0  0  0  0  0  0
  147.3399  139.0946  153.9094 H   0  0  0  0  0  0  0  0  0  0  0  0
  150.0740  141.6248  153.9729 H   0  0  0  0  0  0  0  0  0  0  0  0
  147.9857  142.7746  154.4192 H   0  0  0  0  0  0  0  0  0  0  0  0
  147.1242  141.2667  154.6625 H   0  0  0  0  0  0  0  0  0  0  0  0
  147.7517  141.6786  153.0644 H   0  0  0  0  0  0  0  0  0  0  0  0
  149.5745  142.0788  156.3476 H   0  0  0  0  0  0  0  0  0  0  0  0
  148.8245  140.5154  156.5199 H   0  0  0  0  0  0  0  0  0  0  0  0
  151.7566  141.0916  155.8668 H   0  0  0  0  0  0  0  0  0  0  0  0
  150.5681  141.0572  158.1793 H   0  0  0  0  0  0  0  0  0  0  0  0
  152.9324  139.4360  158.2331 H   0  0  0  0  0  0  0  0  0  0  0  0
  153.0738  140.9809  157.3997 H   0  0  0  0  0  0  0  0  0  0  0  0
  151.9298  140.6606  160.2288 H   0  0  0  0  0  0  0  0  0  0  0  0
  153.5914  141.0908  159.9057 H   0  0  0  0  0  0  0  0  0  0  0  0
  152.6411  143.1034  161.4705 H   0  0  0  0  0  0  0  0  0  0  0  0
  151.9698  145.5028  161.2022 H   0  0  0  0  0  0  0  0  0  0  0  0
  151.1470  146.2852  158.9627 H   0  0  0  0  0  0  0  0  0  0  0  0
  151.0349  144.6284  157.0822 H   0  0  0  0  0  0  0  0  0  0  0  0
  149.3268  139.7643  152.9081 H   0  0  0  0  0  0  0  0  0  0  0  0
  1  2  1  0  0  0  0
  1 19  1  0  0  0  0
  1 20  1  0  0  0  0
  1 21  1  0  0  0  0
  2  9  1  0  0  0  0
  2  3  1  0  0  0  0
  2 22  1  0  0  0  0
  3  4  1  0  0  0  0
  3 23  1  0  0  0  0
  3 24  1  0  0  0  0
  4  5  1  0  0  0  0
  4  6  1  0  0  0  0
  4 44  1  0  0  0  0
  5 25  1  0  0  0  0
  5 26  1  0  0  0  0
  5 27  1  0  0  0  0
  6  7  1  0  0  0  0
  6  8  1  0  0  0  0
  6 28  1  0  0  0  0
  7 29  1  0  0  0  0
  7 30  1  0  0  0  0
  7 31  1  0  0  0  0
  8  9  1  0  0  0  0
  8 32  1  0  0  0  0
  8 33  1  0  0  0  0
  9 10  1  0  0  0  0
  9 34  1  0  0  0  0
 10 11  1  0  0  0  0
 10 35  1  0  0  0  0
 11 12  1  0  0  0  0
 11 36  1  0  0  0  0
 11 37  1  0  0  0  0
 12 13  1  0  0  0  0
 12 38  1  0  0  0  0
 12 39  1  0  0  0  0
 13 18  1  0  0  0  0
 13 14  2  0  0  0  0
 14 15  1  0  0  0  0
 14 40  1  0  0  0  0
 15 16  2  0  0  0  0
 15 41  1  0  0  0  0
 16 17  1  0  0  0  0
 16 42  1  0  0  0  0
 17 18  2  0  0  0  0
 17 43  1  0  0  0  0
M  CHG  1   4   1
M  END
> <s_m_source_file>
AV-unprocessed.smi

> <i_m_source_file_index>
3303

> <i_lp_mmshare_version>
43012

> <i_f3d_flags>
0

> <s_epik_input>
W0NIM11bQ0BASF0xW0NIMl1OKFtDSDNdKVtDQEBIXShbQ0gzXSlbQ0gyXVtDQEhdMVtOSF1bQ0gyXVtDSDJdYzJbY0hdW2NIXVtjSF1bY0hdbjI=

> <s_epik_cmdline>
J2VwaWtfcHl0aG9uJywgJy1waCcsICc3LjAnLCAnLXRuJywgJzgnLCAnLW1hJywgJzIwMCcsICctbWV0YWxfYmluZGluZycsICctaW1hZScsICc8aW5maWxlLm1hZT4nLCAnLW9tYWUnLCAnPG91dGZpbGUubWFlPic=

> <r_epik_Ionization_Penalty>
2.31085

> <r_epik_Ionization_Penalty_Charging>
0.000313057

> <r_epik_Ionization_Penalty_Neutral>
2.31054

> <r_epik_State_Penalty>
2.4087

> <r_epik_Charging_Adjusted_Penalty>
2.40902

> <i_epik_Tot_Q>
1

> <i_epik_Tot_abs_Q>
1

> <r_epik_Metal_State_Penalty>
2.30979

> <b_epik_Metal_Only>
0

> <s_lp_Force_Field>
OPLS_2005

> <r_lp_Energy>
25.8109

> <b_lp_Chiralities_Consistent>
1

> <s_lp_Variant>
AV-unprocessed.smi:3303-27

> <Gold.Version>
5.8.1

> <Gold.Id.Protein>
6NUR|6NUR_protein|mol2

> <Gold.PLP.Fitness>
47.7699

> <Gold.PLP.PLP>
-42.9455

> <Gold.PLP.part.hbond>
-1.0000

> <Gold.PLP.part.metal>
0.0000

> <Gold.PLP.part.buried>
-3.7597

> <Gold.PLP.part.nonpolar>
-38.1452

> <Gold.PLP.part.repulsive>
0.1744

> <Gold.PLP.ligand.clash>
0.0000

> <Gold.PLP.ligand.torsion>
0.6180

> <Gold.PLP.Chemscore.Hbond>
1.0000

> <Gold.PLP.Chemscore.CHOScore>
1.0000

> <Gold.PLP.Chemscore.Metal>
0.0000

> <Gold.Chemscore.Hbonds>
donor molecule, donor type, donor heavy atom, donor atom, acceptor molecule, acceptor atom, score
      L1  H     4    44       P1  7957  1.00
      L1  C    17    43       P1  8028  0.97

> <Gold.PLP.Chemscore.Internal.Correction>
0.0604

> <Gold.Rescore>
     Score         DG    S(hbond)    S(metal)    S(lipo)     H(rot)  DE(clash)    DE(int)     intcor
     18.30     -20.44       1.00        0.00     128.45       1.33       0.04       2.10       ----

> <Gold.Chemscore.Fitness>
18.3015

> <Gold.Chemscore.DG>
-20.4424

> <Gold.Chemscore.ZeroCoef>
-5.4800

> <Gold.Chemscore.Hbond>
0.9975

> <Gold.Chemscore.Metal>
0.0000

> <Gold.Chemscore.Lipo>
128.4483

> <Gold.Chemscore.Internal_Hbond>
0.0000

> <Gold.Chemscore.DEClash>
0.0400

> <Gold.Chemscore.DEInternal>
2.1008

> <Gold.Chemscore.Rot>
1.3272

> <Gold.Chemscore.Internal.Correction>
   9.000000E+99

> <Gold.Chemscore.Hbonds>
donor molecule, donor type, donor heavy atom, donor atom, acceptor molecule, acceptor atom, score
      L1  H     4    44       P1  7957  1.00

> <Gold.Chemscore.Hbond.Weighted>
-3.3316

> <Gold.Chemscore.Metal.Weighted>
-0.0000

> <Gold.Chemscore.Lipo.Weighted>
-15.0285

> <Gold.Chemscore.Internal_Hbond.Weighted>
0.0000

> <Gold.Chemscore.DEClash.Weighted>
0.0400

> <Gold.Chemscore.DEInternal.Weighted>
2.1008

> <Gold.Chemscore.Rot.Weighted>
3.3976

> <Gold.Chemscore.Internal.Correction.Weighted>
   9.000000E+99

> <Gold.Protein.RotatedTorsions>
[ 6907 6896 6895 6894 ] final -116.87 input  -60.11 | X-H torsion
[ 7974 7965 7964 7962 ] final  113.20 input  175.53 | X-H torsion
[ 8008 7997 7996 7995 ] final  -94.60 input   59.86 | X-H torsion
[ 10167 10162 10161 10158 ] final   13.45 input  -65.29 | X-H torsion
[ 10718 10713 10712 10709 ] final  129.18 input   66.30 | X-H torsion
[ 10763 10752 10751 10750 ] final  120.61 input  -60.55 | X-H torsion
[ 11005 11000 10999 10996 ] final -121.03 input  -57.11 | X-H torsion

> <Gold.Protein.ActiveResidues>
 VAL166  LYS551  ARG553  GLY616  TRP617  ASP618  TYR619  PRO620  LYS621  CYS622 
 ASP623  PHE694  ASN695  SER759  ASP760  ASP761  ALA762  ILE779  LEU786  VAL792 
 PHE793  MET794  SER795  GLU796  ALA797  LYS798  CYS799  TRP800  GLU811  SER814 

> <Gold.Protein.RotatedAtoms>
  150.8090  133.8456  159.3191 H   0  0  0  0  0  0  0  0  0  0  0  0  # atno 6907 bound_to 6896
  151.6247  135.1027  160.0118 H   0  0  0  0  0  0  0  0  0  0  0  0  # atno 6908 bound_to 6896
  152.4182  133.7032  159.6493 H   0  0  0  0  0  0  0  0  0  0  0  0  # atno 6909 bound_to 6896
  145.2199  139.2867  143.4224 H   0  0  0  0  0  0  0  0  0  0  0  0  # atno 7974 bound_to 7965
  154.7506  140.0488  157.0889 H   0  0  0  0  0  0  0  0  0  0  0  0  # atno 8008 bound_to 7997
  155.0063  140.3130  155.4828 H   0  0  0  0  0  0  0  0  0  0  0  0  # atno 8009 bound_to 7997
  156.2884  140.2192  156.5175 H   0  0  0  0  0  0  0  0  0  0  0  0  # atno 8010 bound_to 7997
  140.6002  143.8620  150.6957 H   0  0  0  0  0  0  0  0  0  0  0  0  # atno 10167 bound_to 10162
  157.5178  131.1098  150.9199 H   0  0  0  0  0  0  0  0  0  0  0  0  # atno 10718 bound_to 10713
  153.6012  135.3447  155.2946 H   0  0  0  0  0  0  0  0  0  0  0  0  # atno 10763 bound_to 10752
  154.8635  135.4228  154.2410 H   0  0  0  0  0  0  0  0  0  0  0  0  # atno 10764 bound_to 10752
  153.3239  135.7040  153.7078 H   0  0  0  0  0  0  0  0  0  0  0  0  # atno 10765 bound_to 10752
  141.0100  134.0278  157.3426 H   0  0  0  0  0  0  0  0  0  0  0  0  # atno 11005 bound_to 11000
  146.3378  140.2501  142.8598 LP  0  0  0  0  0  0  0  0  0  0  0  0  # atno 17320 bound_to 7965
  144.9775  140.8428  143.5417 LP  0  0  0  0  0  0  0  0  0  0  0  0  # atno 17321 bound_to 7965
  140.2164  143.3843  152.1677 LP  0  0  0  0  0  0  0  0  0  0  0  0  # atno 17342 bound_to 10162
  139.5286  144.7132  151.5139 LP  0  0  0  0  0  0  0  0  0  0  0  0  # atno 17343 bound_to 10162
  156.9819  130.5530  149.5297 LP  0  0  0  0  0  0  0  0  0  0  0  0  # atno 17370 bound_to 10713
  156.0332  130.5422  150.8588 LP  0  0  0  0  0  0  0  0  0  0  0  0  # atno 17371 bound_to 10713
  139.9085  135.0185  156.7589 LP  0  0  0  0  0  0  0  0  0  0  0  0  # atno 17394 bound_to 11000
  140.6749  133.9526  155.7877 LP  0  0  0  0  0  0  0  0  0  0  0  0  # atno 17395 bound_to 11000

$$$$
