AV-unprocessed.smi:1504|AV-procd|sdf|6074|dock2
  -GOLD-   22720 6193D 1   1.00000     0.00000
 Structure written by MMmdl.
 40 41  0  0  0  0  0  0  0  0  2 V2000
  146.6652  138.0369  154.3141 O   0  0  0  0  0  0  0  0  0  0  0  0
  146.6188  138.5042  153.1761 C   0  0  0  0  0  0  0  0  0  0  0  0
  145.9810  137.9196  152.1523 N   0  0  0  0  0  0  0  0  0  0  0  0
  145.2606  136.6543  152.2348 C   0  0  0  0  0  0  0  0  0  0  0  0
  144.8914  136.1213  150.8400 C   0  0  0  0  0  0  0  0  0  0  0  0
  144.9456  134.6077  150.7703 C   0  0  0  0  0  0  0  0  0  0  0  0
  146.1056  133.8821  151.1185 C   0  0  0  0  0  0  0  0  0  0  0  0
  146.0879  132.4740  151.0373 C   0  0  0  0  0  0  0  0  0  0  0  0
  144.9119  131.8220  150.6118 C   0  0  0  0  0  0  0  0  0  0  0  0
  143.7814  132.5958  150.2785 C   0  0  0  0  0  0  0  0  0  0  0  0
  143.8379  133.9428  150.3688 N   0  3  0  0  0  0  0  0  0  0  0  0
  147.2030  139.6519  152.8079 N   0  0  0  0  0  0  0  0  0  0  0  0
  147.9916  140.5102  153.6852 C   0  0  0  0  0  0  0  0  0  0  0  0
  148.8871  139.6730  154.6143 C   0  0  1  0  0  0  0  0  0  0  0  0
  149.6344  138.5554  153.8611 C   0  0  0  0  0  0  0  0  0  0  0  0
  150.6946  137.9631  154.7943 C   0  0  0  0  0  0  0  0  0  0  0  0
  151.2949  139.3649  155.8080 S   0  0  0  0  0  0  0  0  0  0  0  0
  151.1972  139.0046  157.2306 O   0  0  0  0  0  0  0  0  0  0  0  0
  152.5511  139.8776  155.2409 O   0  0  0  0  0  0  0  0  0  0  0  0
  149.9336  140.5121  155.3694 C   0  0  0  0  0  0  0  0  0  0  0  0
  145.9954  138.3813  151.2544 H   0  0  0  0  0  0  0  0  0  0  0  0
  145.8592  135.9207  152.7780 H   0  0  0  0  0  0  0  0  0  0  0  0
  144.3581  136.8167  152.8245 H   0  0  0  0  0  0  0  0  0  0  0  0
  143.8891  136.4533  150.5656 H   0  0  0  0  0  0  0  0  0  0  0  0
  145.5661  136.5309  150.0870 H   0  0  0  0  0  0  0  0  0  0  0  0
  146.9979  134.3960  151.4454 H   0  0  0  0  0  0  0  0  0  0  0  0
  146.9657  131.9013  151.2993 H   0  0  0  0  0  0  0  0  0  0  0  0
  144.8778  130.7443  150.5430 H   0  0  0  0  0  0  0  0  0  0  0  0
  142.8410  132.1815  149.9453 H   0  0  0  0  0  0  0  0  0  0  0  0
  147.1042  139.9508  151.8486 H   0  0  0  0  0  0  0  0  0  0  0  0
  148.6037  141.1672  153.0662 H   0  0  0  0  0  0  0  0  0  0  0  0
  147.3442  141.1538  154.2838 H   0  0  0  0  0  0  0  0  0  0  0  0
  148.2551  139.1884  155.3605 H   0  0  0  0  0  0  0  0  0  0  0  0
  148.9522  137.7873  153.4959 H   0  0  0  0  0  0  0  0  0  0  0  0
  150.1322  138.9802  152.9882 H   0  0  0  0  0  0  0  0  0  0  0  0
  150.2512  137.2274  155.4654 H   0  0  0  0  0  0  0  0  0  0  0  0
  151.5237  137.4972  154.2618 H   0  0  0  0  0  0  0  0  0  0  0  0
  150.3498  141.2899  154.7282 H   0  0  0  0  0  0  0  0  0  0  0  0
  149.5352  140.9820  156.2686 H   0  0  0  0  0  0  0  0  0  0  0  0
  143.0079  134.4826  150.1227 H   0  0  0  0  0  0  0  0  0  0  0  0
  1  2  2  0  0  0  0
  2  3  1  0  0  0  0
  2 12  1  0  0  0  0
  3  4  1  0  0  0  0
  3 21  1  0  0  0  0
  4  5  1  0  0  0  0
  4 22  1  0  0  0  0
  4 23  1  0  0  0  0
  5  6  1  0  0  0  0
  5 24  1  0  0  0  0
  5 25  1  0  0  0  0
  6 11  1  0  0  0  0
  6  7  2  0  0  0  0
  7  8  1  0  0  0  0
  7 26  1  0  0  0  0
  8  9  2  0  0  0  0
  8 27  1  0  0  0  0
  9 10  1  0  0  0  0
  9 28  1  0  0  0  0
 10 11  2  0  0  0  0
 10 29  1  0  0  0  0
 11 40  1  0  0  0  0
 12 13  1  0  0  0  0
 12 30  1  0  0  0  0
 13 14  1  0  0  0  0
 13 31  1  0  0  0  0
 13 32  1  0  0  0  0
 14 20  1  0  0  0  0
 14 15  1  0  0  0  0
 14 33  1  0  0  0  0
 15 16  1  0  0  0  0
 15 34  1  0  0  0  0
 15 35  1  0  0  0  0
 16 17  1  0  0  0  0
 16 36  1  0  0  0  0
 16 37  1  0  0  0  0
 17 18  2  0  0  0  0
 17 19  2  0  0  0  0
 17 20  1  0  0  0  0
 20 38  1  0  0  0  0
 20 39  1  0  0  0  0
M  CHG  1  11   1
M  END
> <s_m_source_file>
AV-unprocessed.smi

> <i_m_source_file_index>
1504

> <i_lp_mmshare_version>
43012

> <i_f3d_flags>
0

> <s_epik_input>
Tz1TMSg9TylbQ0gyXVtDSDJdW0NASF0oW0NIMl0xKVtDSDJdW05IXUMoPU8pW05IXVtDSDJdW0NIMl1jMltjSF1bY0hdW2NIXVtjSF1uMg==

> <s_epik_cmdline>
J2VwaWtfcHl0aG9uJywgJy1waCcsICc3LjAnLCAnLXRuJywgJzgnLCAnLW1hJywgJzIwMCcsICctbWV0YWxfYmluZGluZycsICctaW1hZScsICc8aW5maWxlLm1hZT4nLCAnLW9tYWUnLCAnPG91dGZpbGUubWFlPic=

> <r_epik_Ionization_Penalty>
1.57393

> <r_epik_Ionization_Penalty_Charging>
1.57388

> <r_epik_Ionization_Penalty_Neutral>
4.82054e-05

> <r_epik_State_Penalty>
1.66991

> <r_epik_Charging_Adjusted_Penalty>
3.24379

> <i_epik_Tot_Q>
1

> <i_epik_Tot_abs_Q>
1

> <r_epik_Metal_State_Penalty>
1.71052

> <b_epik_Metal_Only>
0

> <s_lp_Force_Field>
OPLS_2005

> <r_lp_Energy>
6.78157

> <b_lp_Chiralities_Consistent>
1

> <s_lp_Variant>
AV-unprocessed.smi:1504-4

> <Gold.Version>
5.8.1

> <Gold.Id.Protein>
6NUR|6NUR_protein|mol2

> <Gold.PLP.Fitness>
43.4707

> <Gold.PLP.PLP>
-34.5784

> <Gold.PLP.part.hbond>
-4.3626

> <Gold.PLP.part.metal>
0.0000

> <Gold.PLP.part.buried>
0.7670

> <Gold.PLP.part.nonpolar>
-32.6177

> <Gold.PLP.part.repulsive>
0.2264

> <Gold.PLP.ligand.clash>
0.0000

> <Gold.PLP.ligand.torsion>
0.5302

> <Gold.PLP.Chemscore.Hbond>
3.3145

> <Gold.PLP.Chemscore.CHOScore>
0.0000

> <Gold.PLP.Chemscore.Metal>
0.0000

> <Gold.Chemscore.Hbonds>
donor molecule, donor type, donor heavy atom, donor atom, acceptor molecule, acceptor atom, score
      L1  H    11    40       P1 10186  1.69
      P1  H  7989  7998       L1    19  0.33
      P1  H  7997  8009       L1    19  1.00

> <Gold.PLP.Chemscore.Internal.Correction>
0.0095

> <Gold.Rescore>
     Score         DG    S(hbond)    S(metal)    S(lipo)     H(rot)  DE(clash)    DE(int)     intcor
     12.67     -16.81       1.83        0.00      88.67       2.01       2.26       1.88       ----

> <Gold.Chemscore.Fitness>
12.6721

> <Gold.Chemscore.DG>
-16.8126

> <Gold.Chemscore.ZeroCoef>
-5.4800

> <Gold.Chemscore.Hbond>
1.8312

> <Gold.Chemscore.Metal>
0.0000

> <Gold.Chemscore.Lipo>
88.6650

> <Gold.Chemscore.Internal_Hbond>
0.0000

> <Gold.Chemscore.DEClash>
2.2622

> <Gold.Chemscore.DEInternal>
1.8783

> <Gold.Chemscore.Rot>
2.0146

> <Gold.Chemscore.Internal.Correction>
   9.000000E+99

> <Gold.Chemscore.Hbonds>
donor molecule, donor type, donor heavy atom, donor atom, acceptor molecule, acceptor atom, score
      L1  H    11    40       P1 10186  0.64
      P1  H  7989  7998       L1    19  0.05
      P1  H  7997  8009       L1    19  0.93

> <Gold.Chemscore.Hbond.Weighted>
-6.1161

> <Gold.Chemscore.Metal.Weighted>
-0.0000

> <Gold.Chemscore.Lipo.Weighted>
-10.3738

> <Gold.Chemscore.Internal_Hbond.Weighted>
0.0000

> <Gold.Chemscore.DEClash.Weighted>
2.2622

> <Gold.Chemscore.DEInternal.Weighted>
1.8783

> <Gold.Chemscore.Rot.Weighted>
5.1573

> <Gold.Chemscore.Internal.Correction.Weighted>
   9.000000E+99

> <Gold.Protein.RotatedTorsions>
[ 6907 6896 6895 6894 ] final -111.30 input  -60.11 | X-H torsion
[ 7974 7965 7964 7962 ] final  -26.88 input  175.53 | X-H torsion
[ 8008 7997 7996 7995 ] final -137.36 input   59.86 | X-H torsion
[ 10167 10162 10161 10158 ] final -144.34 input  -65.29 | X-H torsion
[ 10718 10713 10712 10709 ] final  -28.95 input   66.30 | X-H torsion
[ 10763 10752 10751 10750 ] final  -86.29 input  -60.55 | X-H torsion
[ 11005 11000 10999 10996 ] final   13.74 input  -57.11 | X-H torsion

> <Gold.Protein.ActiveResidues>
 VAL166  LYS551  ARG553  GLY616  TRP617  ASP618  TYR619  PRO620  LYS621  CYS622 
 ASP623  PHE694  ASN695  SER759  ASP760  ASP761  ALA762  ILE779  LEU786  VAL792 
 PHE793  MET794  SER795  GLU796  ALA797  LYS798  CYS799  TRP800  GLU811  SER814 

> <Gold.Protein.RotatedAtoms>
  150.7681  133.9256  159.3410 H   0  0  0  0  0  0  0  0  0  0  0  0  # atno 6907 bound_to 6896
  151.7149  135.0904  160.0283 H   0  0  0  0  0  0  0  0  0  0  0  0  # atno 6908 bound_to 6896
  152.3686  133.6352  159.6105 H   0  0  0  0  0  0  0  0  0  0  0  0  # atno 6909 bound_to 6896
  146.1396  140.5078  142.8658 H   0  0  0  0  0  0  0  0  0  0  0  0  # atno 7974 bound_to 7965
  155.4105  140.0512  157.3032 H   0  0  0  0  0  0  0  0  0  0  0  0  # atno 8008 bound_to 7997
  154.4948  140.2134  155.9430 H   0  0  0  0  0  0  0  0  0  0  0  0  # atno 8009 bound_to 7997
  156.1391  140.3157  155.8472 H   0  0  0  0  0  0  0  0  0  0  0  0  # atno 8010 bound_to 7997
  139.7908  143.7969  152.2649 H   0  0  0  0  0  0  0  0  0  0  0  0  # atno 10167 bound_to 10162
  156.4187  130.4422  149.7200 H   0  0  0  0  0  0  0  0  0  0  0  0  # atno 10718 bound_to 10713
  154.6207  135.5454  153.7572 H   0  0  0  0  0  0  0  0  0  0  0  0  # atno 10763 bound_to 10752
  153.0237  135.6412  154.1444 H   0  0  0  0  0  0  0  0  0  0  0  0  # atno 10764 bound_to 10752
  154.1378  135.2910  155.3148 H   0  0  0  0  0  0  0  0  0  0  0  0  # atno 10765 bound_to 10752
  140.4773  134.0971  155.7744 H   0  0  0  0  0  0  0  0  0  0  0  0  # atno 11005 bound_to 11000
  144.7777  140.5775  143.6627 LP  0  0  0  0  0  0  0  0  0  0  0  0  # atno 17320 bound_to 7965
  145.5078  139.1480  143.3621 LP  0  0  0  0  0  0  0  0  0  0  0  0  # atno 17321 bound_to 7965
  139.8059  144.7355  150.9762 LP  0  0  0  0  0  0  0  0  0  0  0  0  # atno 17342 bound_to 10162
  140.7820  143.4298  151.0712 LP  0  0  0  0  0  0  0  0  0  0  0  0  # atno 17343 bound_to 10162
  156.4149  130.7740  151.2755 LP  0  0  0  0  0  0  0  0  0  0  0  0  # atno 17370 bound_to 10713
  157.7508  131.0200  150.3691 LP  0  0  0  0  0  0  0  0  0  0  0  0  # atno 17371 bound_to 10713
  141.1548  133.8902  157.2005 LP  0  0  0  0  0  0  0  0  0  0  0  0  # atno 17394 bound_to 11000
  139.9848  135.0086  156.9836 LP  0  0  0  0  0  0  0  0  0  0  0  0  # atno 17395 bound_to 11000

$$$$
