AV-unprocessed.smi:1900|AV-procd|sdf|7710|dock3
  -GOLD-   22720 9453D 1   1.00000     0.00000
 Structure written by MMmdl.
 44 45  0  0  0  0  0  0  0  0  2 V2000
  151.3453  137.6156  154.8540 C   0  0  0  0  0  0  0  0  0  0  0  0
  150.8231  139.0212  154.5357 C   0  0  1  0  0  0  0  0  0  0  0  0
  149.3316  139.0143  154.1502 C   0  0  0  0  0  0  0  0  0  0  0  0
  148.8434  140.3957  153.9244 N   0  3  1  0  0  0  0  0  0  0  0  0
  147.4220  140.4285  153.4967 C   0  0  0  0  0  0  0  0  0  0  0  0
  147.1127  139.4053  152.3902 C   0  0  0  0  0  0  0  0  0  0  0  0
  146.1696  138.2919  152.8751 C   0  0  0  0  0  0  0  0  0  0  0  0
  146.5500  136.9888  152.3411 N   0  0  0  0  0  0  0  0  0  0  0  0
  145.6906  136.0264  151.9768 C   0  0  0  0  0  0  0  0  0  0  0  0
  144.4679  136.1356  152.0725 O   0  0  0  0  0  0  0  0  0  0  0  0
  146.3359  134.9483  151.5022 N   0  0  0  0  0  0  0  0  0  0  0  0
  145.7623  133.7427  151.0247 C   0  0  0  0  0  0  0  0  0  0  0  0
  146.4792  132.5341  150.8121 C   0  0  0  0  0  0  0  0  0  0  0  0
  145.6848  131.5726  150.3638 N   0  0  0  0  0  0  0  0  0  0  0  0
  144.4673  132.1558  150.2893 N   0  0  0  0  0  0  0  0  0  0  0  0
  144.4665  133.4761  150.6815 C   0  0  0  0  0  0  0  0  0  0  0  0
  149.1260  141.2420  155.1102 C   0  0  0  0  0  0  0  0  0  0  0  0
  150.6228  141.1871  155.4704 C   0  0  1  0  0  0  0  0  0  0  0  0
  150.9409  141.9846  156.7401 C   0  0  0  0  0  0  0  0  0  0  0  0
  150.9994  139.8326  155.6915 O   0  0  0  0  0  0  0  0  0  0  0  0
  143.6554  131.6454  149.9720 H   0  0  0  0  0  0  0  0  0  0  0  0
  151.2467  136.9553  153.9921 H   0  0  0  0  0  0  0  0  0  0  0  0
  150.7966  137.1679  155.6832 H   0  0  0  0  0  0  0  0  0  0  0  0
  152.3996  137.6448  155.1305 H   0  0  0  0  0  0  0  0  0  0  0  0
  151.4136  139.4322  153.7148 H   0  0  0  0  0  0  0  0  0  0  0  0
  149.1903  138.4221  153.2449 H   0  0  0  0  0  0  0  0  0  0  0  0
  148.7396  138.5438  154.9372 H   0  0  0  0  0  0  0  0  0  0  0  0
  146.7912  140.1960  154.3560 H   0  0  0  0  0  0  0  0  0  0  0  0
  147.1518  141.4369  153.1794 H   0  0  0  0  0  0  0  0  0  0  0  0
  146.6587  139.8990  151.5312 H   0  0  0  0  0  0  0  0  0  0  0  0
  148.0471  138.9665  152.0377 H   0  0  0  0  0  0  0  0  0  0  0  0
  146.1478  138.2545  153.9656 H   0  0  0  0  0  0  0  0  0  0  0  0
  145.1500  138.5032  152.5519 H   0  0  0  0  0  0  0  0  0  0  0  0
  147.5377  136.8124  152.2279 H   0  0  0  0  0  0  0  0  0  0  0  0
  147.3438  134.9969  151.4707 H   0  0  0  0  0  0  0  0  0  0  0  0
  147.5282  132.3266  150.9643 H   0  0  0  0  0  0  0  0  0  0  0  0
  143.5707  134.0790  150.6798 H   0  0  0  0  0  0  0  0  0  0  0  0
  148.8435  142.2755  154.9140 H   0  0  0  0  0  0  0  0  0  0  0  0
  148.5231  140.9001  155.9531 H   0  0  0  0  0  0  0  0  0  0  0  0
  151.2141  141.5948  154.6485 H   0  0  0  0  0  0  0  0  0  0  0  0
  150.6775  143.0357  156.6199 H   0  0  0  0  0  0  0  0  0  0  0  0
  152.0042  141.9340  156.9761 H   0  0  0  0  0  0  0  0  0  0  0  0
  150.3909  141.5978  157.5985 H   0  0  0  0  0  0  0  0  0  0  0  0
  149.3864  140.7664  153.1575 H   0  0  0  0  0  0  0  0  0  0  0  0
  1  2  1  0  0  0  0
  1 22  1  0  0  0  0
  1 23  1  0  0  0  0
  1 24  1  0  0  0  0
  2 20  1  0  0  0  0
  2  3  1  0  0  0  0
  2 25  1  0  0  0  0
  3  4  1  0  0  0  0
  3 26  1  0  0  0  0
  3 27  1  0  0  0  0
  4  5  1  0  0  0  0
  4 17  1  0  0  0  0
  4 44  1  0  0  0  0
  5  6  1  0  0  0  0
  5 28  1  0  0  0  0
  5 29  1  0  0  0  0
  6  7  1  0  0  0  0
  6 30  1  0  0  0  0
  6 31  1  0  0  0  0
  7  8  1  0  0  0  0
  7 32  1  0  0  0  0
  7 33  1  0  0  0  0
  8  9  1  0  0  0  0
  8 34  1  0  0  0  0
  9 10  2  0  0  0  0
  9 11  1  0  0  0  0
 11 12  1  0  0  0  0
 11 35  1  0  0  0  0
 12 16  2  0  0  0  0
 12 13  1  0  0  0  0
 13 14  2  0  0  0  0
 13 36  1  0  0  0  0
 14 15  1  0  0  0  0
 15 21  1  0  0  0  0
 15 16  1  0  0  0  0
 16 37  1  0  0  0  0
 17 18  1  0  0  0  0
 17 38  1  0  0  0  0
 17 39  1  0  0  0  0
 18 19  1  0  0  0  0
 18 20  1  0  0  0  0
 18 40  1  0  0  0  0
 19 41  1  0  0  0  0
 19 42  1  0  0  0  0
 19 43  1  0  0  0  0
M  CHG  1   4   1
M  END
> <s_m_source_file>
AV-unprocessed.smi

> <i_m_source_file_index>
1900

> <i_lp_mmshare_version>
43012

> <i_f3d_flags>
0

> <s_epik_input>
W0NIM11bQ0BASF0xW0NIMl1OKFtDSDJdW0NASF0oTzEpW0NIM10pW0NIMl1bQ0gyXVtDSDJdW05IXUMoPU8pW05IXWMyW2NIXW5bbkhdW2NIXTI=

> <s_epik_cmdline>
J2VwaWtfcHl0aG9uJywgJy1waCcsICc3LjAnLCAnLXRuJywgJzgnLCAnLW1hJywgJzIwMCcsICctbWV0YWxfYmluZGluZycsICctaW1hZScsICc8aW5maWxlLm1hZT4nLCAnLW9tYWUnLCAnPG91dGZpbGUubWFlPic=

> <r_lp_tautomer_probability>
0.5

> <r_epik_Ionization_Penalty>
0.270543

> <r_epik_Ionization_Penalty_Charging>
0.270496

> <r_epik_Ionization_Penalty_Neutral>
4.67091e-05

> <r_epik_State_Penalty>
0.262618

> <r_epik_Charging_Adjusted_Penalty>
0.533114

> <i_epik_Tot_Q>
1

> <i_epik_Tot_abs_Q>
1

> <r_epik_Metal_State_Penalty>
0.262618

> <b_epik_Metal_Only>
0

> <s_lp_Force_Field>
OPLS_2005

> <r_lp_Energy>
18.2287

> <b_lp_Chiralities_Consistent>
1

> <s_lp_Variant>
AV-unprocessed.smi:1900-2

> <Gold.Version>
5.8.1

> <Gold.Id.Protein>
6NUR|6NUR_protein|mol2

> <Gold.PLP.Fitness>
45.9084

> <Gold.PLP.PLP>
-35.2757

> <Gold.PLP.part.hbond>
-3.0000

> <Gold.PLP.part.metal>
0.0000

> <Gold.PLP.part.buried>
-1.7386

> <Gold.PLP.part.nonpolar>
-30.8475

> <Gold.PLP.part.repulsive>
0.9066

> <Gold.PLP.ligand.clash>
0.0000

> <Gold.PLP.ligand.torsion>
0.9143

> <Gold.PLP.Chemscore.Hbond>
2.1773

> <Gold.PLP.Chemscore.CHOScore>
1.9579

> <Gold.PLP.Chemscore.Metal>
0.0000

> <Gold.Chemscore.Hbonds>
donor molecule, donor type, donor heavy atom, donor atom, acceptor molecule, acceptor atom, score
      L1  H     4    44       P1  7957  0.45
      L1  H     8    34       P1  7948  1.00
      L1  H    11    35       P1  7948  0.90
      L1  C    13    36       P1 10747  1.00
      L1  C    16    37       P1 10186  0.28

> <Gold.PLP.Chemscore.Internal.Correction>
0.0556

> <Gold.Rescore>
     Score         DG    S(hbond)    S(metal)    S(lipo)     H(rot)  DE(clash)    DE(int)     intcor
     15.28     -17.42       2.09        0.00      84.87       1.93       0.13       2.02       ----

> <Gold.Chemscore.Fitness>
15.2761

> <Gold.Chemscore.DG>
-17.4216

> <Gold.Chemscore.ZeroCoef>
-5.4800

> <Gold.Chemscore.Hbond>
2.0852

> <Gold.Chemscore.Metal>
0.0000

> <Gold.Chemscore.Lipo>
84.8719

> <Gold.Chemscore.Internal_Hbond>
0.0000

> <Gold.Chemscore.DEClash>
0.1303

> <Gold.Chemscore.DEInternal>
2.0152

> <Gold.Chemscore.Rot>
1.9347

> <Gold.Chemscore.Internal.Correction>
   9.000000E+99

> <Gold.Chemscore.Hbonds>
donor molecule, donor type, donor heavy atom, donor atom, acceptor molecule, acceptor atom, score
      L1  H     4    44       P1  7957  0.45
      L1  H     8    34       P1  7948  0.96
      L1  H    11    35       P1  7948  0.55

> <Gold.Chemscore.Hbond.Weighted>
-6.9644

> <Gold.Chemscore.Metal.Weighted>
-0.0000

> <Gold.Chemscore.Lipo.Weighted>
-9.9300

> <Gold.Chemscore.Internal_Hbond.Weighted>
0.0000

> <Gold.Chemscore.DEClash.Weighted>
0.1303

> <Gold.Chemscore.DEInternal.Weighted>
2.0152

> <Gold.Chemscore.Rot.Weighted>
4.9528

> <Gold.Chemscore.Internal.Correction.Weighted>
   9.000000E+99

> <Gold.Protein.RotatedTorsions>
[ 6907 6896 6895 6894 ] final   33.15 input  -60.11 | X-H torsion
[ 7974 7965 7964 7962 ] final  -72.19 input  175.53 | X-H torsion
[ 8008 7997 7996 7995 ] final  -64.50 input   59.86 | X-H torsion
[ 10167 10162 10161 10158 ] final  -46.88 input  -65.29 | X-H torsion
[ 10718 10713 10712 10709 ] final -132.46 input   66.30 | X-H torsion
[ 10763 10752 10751 10750 ] final  -48.25 input  -60.55 | X-H torsion
[ 11005 11000 10999 10996 ] final -167.21 input  -57.11 | X-H torsion

> <Gold.Protein.ActiveResidues>
 VAL166  LYS551  ARG553  GLY616  TRP617  ASP618  TYR619  PRO620  LYS621  CYS622 
 ASP623  PHE694  ASN695  SER759  ASP760  ASP761  ALA762  ILE779  LEU786  VAL792 
 PHE793  MET794  SER795  GLU796  ALA797  LYS798  CYS799  TRP800  GLU811  SER814 

> <Gold.Protein.RotatedAtoms>
  152.0844  134.9449  160.0572 H   0  0  0  0  0  0  0  0  0  0  0  0  # atno 6907 bound_to 6896
  152.0725  133.4108  159.4473 H   0  0  0  0  0  0  0  0  0  0  0  0  # atno 6908 bound_to 6896
  150.6836  134.2995  159.4744 H   0  0  0  0  0  0  0  0  0  0  0  0  # atno 6909 bound_to 6896
  145.6683  140.9230  143.0897 H   0  0  0  0  0  0  0  0  0  0  0  0  # atno 7974 bound_to 7965
  154.4616  140.0952  156.6907 H   0  0  0  0  0  0  0  0  0  0  0  0  # atno 8008 bound_to 7997
  155.4979  140.3473  155.4347 H   0  0  0  0  0  0  0  0  0  0  0  0  # atno 8009 bound_to 7997
  156.0880  140.1390  156.9617 H   0  0  0  0  0  0  0  0  0  0  0  0  # atno 8010 bound_to 7997
  140.6799  143.2810  151.3846 H   0  0  0  0  0  0  0  0  0  0  0  0  # atno 10167 bound_to 10162
  156.2349  130.7060  151.0896 H   0  0  0  0  0  0  0  0  0  0  0  0  # atno 10718 bound_to 10713
  154.0748  135.6599  153.4829 H   0  0  0  0  0  0  0  0  0  0  0  0  # atno 10763 bound_to 10752
  153.0377  135.5166  154.7532 H   0  0  0  0  0  0  0  0  0  0  0  0  # atno 10764 bound_to 10752
  154.6608  135.3015  154.9836 H   0  0  0  0  0  0  0  0  0  0  0  0  # atno 10765 bound_to 10752
  140.5558  134.5382  157.5132 H   0  0  0  0  0  0  0  0  0  0  0  0  # atno 11005 bound_to 11000
  144.7065  139.8539  143.7428 LP  0  0  0  0  0  0  0  0  0  0  0  0  # atno 17320 bound_to 7965
  146.1067  139.4067  143.0313 LP  0  0  0  0  0  0  0  0  0  0  0  0  # atno 17321 bound_to 7965
  139.6114  144.1090  152.2303 LP  0  0  0  0  0  0  0  0  0  0  0  0  # atno 17342 bound_to 10162
  140.0505  144.5936  150.7339 LP  0  0  0  0  0  0  0  0  0  0  0  0  # atno 17343 bound_to 10162
  157.7149  131.0715  150.6362 LP  0  0  0  0  0  0  0  0  0  0  0  0  # atno 17370 bound_to 10713
  156.6432  130.4464  149.5745 LP  0  0  0  0  0  0  0  0  0  0  0  0  # atno 17371 bound_to 10713
  139.9432  134.7749  156.0626 LP  0  0  0  0  0  0  0  0  0  0  0  0  # atno 17394 bound_to 11000
  141.1144  133.6632  156.3057 LP  0  0  0  0  0  0  0  0  0  0  0  0  # atno 17395 bound_to 11000

$$$$
