AV-unprocessed.smi:2729|AV-procd|sdf|10526|dock6
  -GOLD-   2272014573D 1   1.00000     0.00000
 Structure written by MMmdl.
 33 34  0  0  0  0  0  0  0  0  1 V2000
  149.8355  139.9581  154.4956 C   0  0  0  0  0  0  0  0  0  0  0  0
  148.7068  140.9147  154.9335 C   0  0  1  0  0  0  0  0  0  0  0  0
  149.2481  142.0187  155.7384 N   0  0  0  0  0  0  0  0  0  0  0  0
  149.8943  141.9558  156.9138 C   0  0  0  0  0  0  0  0  0  0  0  0
  150.1226  140.9089  157.5185 O   0  0  0  0  0  0  0  0  0  0  0  0
  150.2719  143.1809  157.3165 N   0  0  0  0  0  0  0  0  0  0  0  0
  150.9621  143.5491  158.5024 C   0  0  0  0  0  0  0  0  0  0  0  0
  151.8238  142.6873  159.2233 C   0  0  0  0  0  0  0  0  0  0  0  0
  152.4351  143.1654  160.3981 C   0  0  0  0  0  0  0  0  0  0  0  0
  152.1575  144.4822  160.8134 C   0  0  0  0  0  0  0  0  0  0  0  0
  151.3278  145.3098  160.1438 N   0  0  0  0  0  0  0  0  0  0  0  0
  150.7450  144.8444  159.0185 C   0  0  0  0  0  0  0  0  0  0  0  0
  147.9080  141.4536  153.7168 C   0  0  0  0  0  0  0  0  0  0  0  0
  146.5899  142.0677  154.2029 C   0  0  0  0  0  0  0  0  0  0  0  0
  146.0984  141.0808  155.6633 S   0  0  0  0  0  0  0  0  0  0  0  0
  145.9415  141.9812  156.8159 O   0  0  0  0  0  0  0  0  0  0  0  0
  145.0346  140.1369  155.2883 O   0  0  0  0  0  0  0  0  0  0  0  0
  147.6833  140.1684  155.8131 C   0  0  0  0  0  0  0  0  0  0  0  0
  149.4364  139.0906  153.9690 H   0  0  0  0  0  0  0  0  0  0  0  0
  150.3968  139.5897  155.3548 H   0  0  0  0  0  0  0  0  0  0  0  0
  150.5419  140.4413  153.8208 H   0  0  0  0  0  0  0  0  0  0  0  0
  149.1316  142.9389  155.3395 H   0  0  0  0  0  0  0  0  0  0  0  0
  150.0917  143.9352  156.6699 H   0  0  0  0  0  0  0  0  0  0  0  0
  152.0158  141.6728  158.9110 H   0  0  0  0  0  0  0  0  0  0  0  0
  153.0981  142.5342  160.9712 H   0  0  0  0  0  0  0  0  0  0  0  0
  152.6089  144.8788  161.7107 H   0  0  0  0  0  0  0  0  0  0  0  0
  150.0853  145.5328  158.5107 H   0  0  0  0  0  0  0  0  0  0  0  0
  148.4740  142.1577  153.1074 H   0  0  0  0  0  0  0  0  0  0  0  0
  147.6665  140.6161  153.0608 H   0  0  0  0  0  0  0  0  0  0  0  0
  146.7378  143.0991  154.5237 H   0  0  0  0  0  0  0  0  0  0  0  0
  145.8043  142.0451  153.4479 H   0  0  0  0  0  0  0  0  0  0  0  0
  147.5093  139.1594  155.4374 H   0  0  0  0  0  0  0  0  0  0  0  0
  147.9761  140.0888  156.8606 H   0  0  0  0  0  0  0  0  0  0  0  0
  1  2  1  0  0  0  0
  1 19  1  0  0  0  0
  1 20  1  0  0  0  0
  1 21  1  0  0  0  0
  2 18  1  0  0  0  0
  2  3  1  0  0  0  0
  2 13  1  0  0  0  0
  3  4  1  0  0  0  0
  3 22  1  0  0  0  0
  4  5  2  0  0  0  0
  4  6  1  0  0  0  0
  6  7  1  0  0  0  0
  6 23  1  0  0  0  0
  7 12  1  0  0  0  0
  7  8  2  0  0  0  0
  8  9  1  0  0  0  0
  8 24  1  0  0  0  0
  9 10  2  0  0  0  0
  9 25  1  0  0  0  0
 10 11  1  0  0  0  0
 10 26  1  0  0  0  0
 11 12  2  0  0  0  0
 12 27  1  0  0  0  0
 13 14  1  0  0  0  0
 13 28  1  0  0  0  0
 13 29  1  0  0  0  0
 14 15  1  0  0  0  0
 14 30  1  0  0  0  0
 14 31  1  0  0  0  0
 15 16  2  0  0  0  0
 15 17  2  0  0  0  0
 15 18  1  0  0  0  0
 18 32  1  0  0  0  0
 18 33  1  0  0  0  0
M  END
> <s_m_source_file>
AV-unprocessed.smi

> <i_m_source_file_index>
2729

> <i_lp_mmshare_version>
43012

> <i_f3d_flags>
0

> <s_epik_input>
Tz1TKD1PKShbQ0gyXTEpW0NIMl1bQ0gyXVtDQEBdMShbQ0gzXSlbTkhdQyg9TylbTkhdYzJbY0hdW2NIXVtjSF1uW2NIXTI=

> <s_epik_cmdline>
J2VwaWtfcHl0aG9uJywgJy1waCcsICc3LjAnLCAnLXRuJywgJzgnLCAnLW1hJywgJzIwMCcsICctbWV0YWxfYmluZGluZycsICctaW1hZScsICc8aW5maWxlLm1hZT4nLCAnLW9tYWUnLCAnPG91dGZpbGUubWFlPic=

> <r_epik_Ionization_Penalty>
0.00438887

> <r_epik_Ionization_Penalty_Charging>
0

> <r_epik_Ionization_Penalty_Neutral>
0.00438887

> <r_epik_State_Penalty>
0.00314315

> <r_epik_Charging_Adjusted_Penalty>
0.00314315

> <i_epik_Tot_Q>
0

> <i_epik_Tot_abs_Q>
0

> <r_epik_Metal_State_Penalty>
-0

> <b_epik_Metal_Only>
0

> <s_lp_Force_Field>
OPLS_2005

> <r_lp_Energy>
5.02931

> <b_lp_Chiralities_Consistent>
1

> <s_lp_Variant>
AV-unprocessed.smi:2729-1

> <Gold.Version>
5.8.1

> <Gold.Id.Protein>
6NUR|6NUR_protein|mol2

> <Gold.PLP.Fitness>
40.2380

> <Gold.PLP.PLP>
-31.8673

> <Gold.PLP.part.hbond>
-2.0000

> <Gold.PLP.part.metal>
0.0000

> <Gold.PLP.part.buried>
-5.2471

> <Gold.PLP.part.nonpolar>
-25.4029

> <Gold.PLP.part.repulsive>
0.5287

> <Gold.PLP.ligand.clash>
0.0000

> <Gold.PLP.ligand.torsion>
0.1699

> <Gold.PLP.Chemscore.Hbond>
1.9040

> <Gold.PLP.Chemscore.CHOScore>
0.9944

> <Gold.PLP.Chemscore.Metal>
0.0000

> <Gold.Chemscore.Hbonds>
donor molecule, donor type, donor heavy atom, donor atom, acceptor molecule, acceptor atom, score
      L1  H     3    22       P1  8028  0.94
      L1  H     6    23       P1  8028  0.93
      L1  C    12    27       P1  8029  1.00

> <Gold.PLP.Chemscore.Internal.Correction>
0.0153

> <Gold.Rescore>
     Score         DG    S(hbond)    S(metal)    S(lipo)     H(rot)  DE(clash)    DE(int)     intcor
     17.95     -18.85       1.92        0.00      81.39       1.00       0.01       0.90       ----

> <Gold.Chemscore.Fitness>
17.9488

> <Gold.Chemscore.DG>
-18.8546

> <Gold.Chemscore.ZeroCoef>
-5.4800

> <Gold.Chemscore.Hbond>
1.9198

> <Gold.Chemscore.Metal>
0.0000

> <Gold.Chemscore.Lipo>
81.3869

> <Gold.Chemscore.Internal_Hbond>
0.0000

> <Gold.Chemscore.DEClash>
0.0081

> <Gold.Chemscore.DEInternal>
0.8977

> <Gold.Chemscore.Rot>
1.0000

> <Gold.Chemscore.Internal.Correction>
   9.000000E+99

> <Gold.Chemscore.Hbonds>
donor molecule, donor type, donor heavy atom, donor atom, acceptor molecule, acceptor atom, score
      L1  H     3    22       P1  8028  0.91
      L1  H     6    23       P1  8028  0.89

> <Gold.Chemscore.Hbond.Weighted>
-6.4123

> <Gold.Chemscore.Metal.Weighted>
-0.0000

> <Gold.Chemscore.Lipo.Weighted>
-9.5223

> <Gold.Chemscore.Internal_Hbond.Weighted>
0.0000

> <Gold.Chemscore.DEClash.Weighted>
0.0081

> <Gold.Chemscore.DEInternal.Weighted>
0.8977

> <Gold.Chemscore.Rot.Weighted>
2.5600

> <Gold.Chemscore.Internal.Correction.Weighted>
   9.000000E+99

> <Gold.Protein.RotatedTorsions>
[ 6907 6896 6895 6894 ] final -130.10 input  -60.11 | X-H torsion
[ 7974 7965 7964 7962 ] final  -36.48 input  175.53 | X-H torsion
[ 8008 7997 7996 7995 ] final -165.91 input   59.86 | X-H torsion
[ 10167 10162 10161 10158 ] final   46.84 input  -65.29 | X-H torsion
[ 10718 10713 10712 10709 ] final   24.21 input   66.30 | X-H torsion
[ 10763 10752 10751 10750 ] final   81.69 input  -60.55 | X-H torsion
[ 11005 11000 10999 10996 ] final  162.08 input  -57.11 | X-H torsion

> <Gold.Protein.ActiveResidues>
 VAL166  LYS551  ARG553  GLY616  TRP617  ASP618  TYR619  PRO620  LYS621  CYS622 
 ASP623  PHE694  ASN695  SER759  ASP760  ASP761  ALA762  ILE779  LEU786  VAL792 
 PHE793  MET794  SER795  GLU796  ALA797  LYS798  CYS799  TRP800  GLU811  SER814 

> <Gold.Protein.RotatedAtoms>
  150.9360  133.6711  159.2800 H   0  0  0  0  0  0  0  0  0  0  0  0  # atno 6907 bound_to 6896
  151.4116  135.0984  159.9596 H   0  0  0  0  0  0  0  0  0  0  0  0  # atno 6908 bound_to 6896
  152.5048  133.8832  159.7411 H   0  0  0  0  0  0  0  0  0  0  0  0  # atno 6909 bound_to 6896
  146.0658  140.6283  142.8975 H   0  0  0  0  0  0  0  0  0  0  0  0  # atno 7974 bound_to 7965
  155.8565  140.0971  157.1641 H   0  0  0  0  0  0  0  0  0  0  0  0  # atno 8008 bound_to 7997
  154.3988  140.1373  156.3970 H   0  0  0  0  0  0  0  0  0  0  0  0  # atno 8009 bound_to 7997
  155.7904  140.3456  155.5348 H   0  0  0  0  0  0  0  0  0  0  0  0  # atno 8010 bound_to 7997
  140.3098  144.2834  150.6202 H   0  0  0  0  0  0  0  0  0  0  0  0  # atno 10167 bound_to 10162
  157.1767  130.6784  149.6098 H   0  0  0  0  0  0  0  0  0  0  0  0  # atno 10718 bound_to 10713
  153.1138  135.4756  154.9081 H   0  0  0  0  0  0  0  0  0  0  0  0  # atno 10763 bound_to 10752
  154.7508  135.3105  154.8564 H   0  0  0  0  0  0  0  0  0  0  0  0  # atno 10764 bound_to 10752
  153.9145  135.6861  153.4803 H   0  0  0  0  0  0  0  0  0  0  0  0  # atno 10765 bound_to 10752
  140.2222  134.8188  157.3231 H   0  0  0  0  0  0  0  0  0  0  0  0  # atno 11005 bound_to 11000
  144.7201  140.4346  143.7014 LP  0  0  0  0  0  0  0  0  0  0  0  0  # atno 17320 bound_to 7965
  145.6480  139.1560  143.2878 LP  0  0  0  0  0  0  0  0  0  0  0  0  # atno 17321 bound_to 7965
  140.5578  143.2196  151.7817 LP  0  0  0  0  0  0  0  0  0  0  0  0  # atno 17342 bound_to 10162
  139.4896  144.4389  151.9787 LP  0  0  0  0  0  0  0  0  0  0  0  0  # atno 17343 bound_to 10162
  155.9730  130.4660  150.6275 LP  0  0  0  0  0  0  0  0  0  0  0  0  # atno 17370 bound_to 10713
  157.3991  131.0807  151.1324 LP  0  0  0  0  0  0  0  0  0  0  0  0  # atno 17371 bound_to 10713
  140.1838  134.4456  155.7756 LP  0  0  0  0  0  0  0  0  0  0  0  0  # atno 17394 bound_to 11000
  141.2222  133.6996  156.7913 LP  0  0  0  0  0  0  0  0  0  0  0  0  # atno 17395 bound_to 11000

$$$$
