AV-unprocessed.smi:2416|AV-procd|sdf|9545|dock4
  -GOLD-   2272013173D 1   1.00000     0.00000
 Structure written by MMmdl.
 40 41  0  0  0  0  0  0  0  0  1 V2000
  154.4069  141.7173  160.1783 C   0  0  0  0  0  0  0  0  0  0  0  0
  153.7011  142.8726  159.7429 O   0  0  0  0  0  0  0  0  0  0  0  0
  152.2729  142.8623  159.8771 C   0  0  2  0  0  0  0  0  0  0  0  0
  151.8715  142.9065  161.3569 C   0  0  0  0  0  0  0  0  0  0  0  0
  151.6596  141.7865  158.9597 C   0  0  0  0  0  0  0  0  0  0  0  0
  151.7500  142.8076  157.8274 C   0  0  1  0  0  0  0  0  0  0  0  0
  150.6107  142.7460  156.9172 N   0  0  0  0  0  0  0  0  0  0  0  0
  150.2882  141.6709  156.1847 C   0  0  0  0  0  0  0  0  0  0  0  0
  150.9326  140.6218  156.2031 O   0  0  0  0  0  0  0  0  0  0  0  0
  149.1889  141.8961  155.4431 N   0  0  0  0  0  0  0  0  0  0  0  0
  148.5374  141.0063  154.5473 C   0  0  0  0  0  0  0  0  0  0  0  0
  147.5147  141.5882  153.7637 C   0  0  0  0  0  0  0  0  0  0  0  0
  146.8055  140.7893  152.8454 C   0  0  0  0  0  0  0  0  0  0  0  0
  147.1397  139.4279  152.7350 C   0  0  0  0  0  0  0  0  0  0  0  0
  146.4860  138.6205  151.8664 F   0  0  0  0  0  0  0  0  0  0  0  0
  148.1715  138.9269  153.5498 C   0  0  0  0  0  0  0  0  0  0  0  0
  148.8513  139.6914  154.4306 N   0  0  0  0  0  0  0  0  0  0  0  0
  151.6771  143.9269  158.8982 C   0  0  0  0  0  0  0  0  0  0  0  0
  150.2747  144.4583  159.2514 C   0  0  0  0  0  0  0  0  0  0  0  0
  152.5354  145.1679  158.6288 C   0  0  0  0  0  0  0  0  0  0  0  0
  155.4480  141.7993  159.8666 H   0  0  0  0  0  0  0  0  0  0  0  0
  154.0057  140.7986  159.7516 H   0  0  0  0  0  0  0  0  0  0  0  0
  154.4022  141.6305  161.2646 H   0  0  0  0  0  0  0  0  0  0  0  0
  150.7935  143.0028  161.4815 H   0  0  0  0  0  0  0  0  0  0  0  0
  152.3358  143.7503  161.8677 H   0  0  0  0  0  0  0  0  0  0  0  0
  152.1558  141.9964  161.8847 H   0  0  0  0  0  0  0  0  0  0  0  0
  152.2590  140.8905  158.8017 H   0  0  0  0  0  0  0  0  0  0  0  0
  150.6358  141.5278  159.2358 H   0  0  0  0  0  0  0  0  0  0  0  0
  152.7190  142.7636  157.3244 H   0  0  0  0  0  0  0  0  0  0  0  0
  150.0323  143.5703  156.8473 H   0  0  0  0  0  0  0  0  0  0  0  0
  148.7657  142.8077  155.5342 H   0  0  0  0  0  0  0  0  0  0  0  0
  147.2715  142.6360  153.8626 H   0  0  0  0  0  0  0  0  0  0  0  0
  146.0197  141.2142  152.2384 H   0  0  0  0  0  0  0  0  0  0  0  0
  148.4588  137.8873  153.4946 H   0  0  0  0  0  0  0  0  0  0  0  0
  149.8521  145.0503  158.4389 H   0  0  0  0  0  0  0  0  0  0  0  0
  150.3005  145.0978  160.1344 H   0  0  0  0  0  0  0  0  0  0  0  0
  149.5690  143.6539  159.4586 H   0  0  0  0  0  0  0  0  0  0  0  0
  152.0768  145.8191  157.8844 H   0  0  0  0  0  0  0  0  0  0  0  0
  153.5224  144.9064  158.2467 H   0  0  0  0  0  0  0  0  0  0  0  0
  152.6834  145.7549  159.5358 H   0  0  0  0  0  0  0  0  0  0  0  0
  1  2  1  0  0  0  0
  1 21  1  0  0  0  0
  1 22  1  0  0  0  0
  1 23  1  0  0  0  0
  2  3  1  0  0  0  0
  3 18  1  0  0  0  0
  3  4  1  0  0  0  0
  3  5  1  0  0  0  0
  4 24  1  0  0  0  0
  4 25  1  0  0  0  0
  4 26  1  0  0  0  0
  5  6  1  0  0  0  0
  5 27  1  0  0  0  0
  5 28  1  0  0  0  0
  6  7  1  0  0  0  0
  6 18  1  0  0  0  0
  6 29  1  0  0  0  0
  7  8  1  0  0  0  0
  7 30  1  0  0  0  0
  8  9  2  0  0  0  0
  8 10  1  0  0  0  0
 10 11  1  0  0  0  0
 10 31  1  0  0  0  0
 11 17  1  0  0  0  0
 11 12  2  0  0  0  0
 12 13  1  0  0  0  0
 12 32  1  0  0  0  0
 13 14  2  0  0  0  0
 13 33  1  0  0  0  0
 14 15  1  0  0  0  0
 14 16  1  0  0  0  0
 16 17  2  0  0  0  0
 16 34  1  0  0  0  0
 18 19  1  0  0  0  0
 18 20  1  0  0  0  0
 19 35  1  0  0  0  0
 19 36  1  0  0  0  0
 19 37  1  0  0  0  0
 20 38  1  0  0  0  0
 20 39  1  0  0  0  0
 20 40  1  0  0  0  0
M  END
> <s_m_source_file>
AV-unprocessed.smi

> <i_m_source_file_index>
2416

> <i_lp_mmshare_version>
43012

> <i_f3d_flags>
0

> <s_epik_input>
W0NIM11PW0NAQF0xKFtDSDNdKVtDSDJdW0NASF0oQzEoW0NIM10pW0NIM10pW05IXUMoPU8pW05IXWMyW2NIXVtjSF1jKEYpW2NIXW4y

> <s_epik_cmdline>
J2VwaWtfcHl0aG9uJywgJy1waCcsICc3LjAnLCAnLXRuJywgJzgnLCAnLW1hJywgJzIwMCcsICctbWV0YWxfYmluZGluZycsICctaW1hZScsICc8aW5maWxlLm1hZT4nLCAnLW9tYWUnLCAnPG91dGZpbGUubWFlPic=

> <r_lp_tautomer_probability>
1

> <r_epik_Ionization_Penalty>
3.67756e-05

> <r_epik_Ionization_Penalty_Charging>
0

> <r_epik_Ionization_Penalty_Neutral>
3.67756e-05

> <r_epik_State_Penalty>
-0

> <r_epik_Charging_Adjusted_Penalty>
0

> <i_epik_Tot_Q>
0

> <i_epik_Tot_abs_Q>
0

> <r_epik_Metal_State_Penalty>
-0

> <b_epik_Metal_Only>
0

> <s_lp_Force_Field>
OPLS_2005

> <r_lp_Energy>
27.4355

> <b_lp_Chiralities_Consistent>
1

> <s_lp_Variant>
AV-unprocessed.smi:2416-2

> <Gold.Version>
5.8.1

> <Gold.Id.Protein>
6NUR|6NUR_protein|mol2

> <Gold.PLP.Fitness>
49.2606

> <Gold.PLP.PLP>
-40.5664

> <Gold.PLP.part.hbond>
-2.0000

> <Gold.PLP.part.metal>
0.0000

> <Gold.PLP.part.buried>
-1.0374

> <Gold.PLP.part.nonpolar>
-37.4303

> <Gold.PLP.part.repulsive>
0.3208

> <Gold.PLP.ligand.clash>
0.0000

> <Gold.PLP.ligand.torsion>
0.2794

> <Gold.PLP.Chemscore.Hbond>
1.9600

> <Gold.PLP.Chemscore.CHOScore>
1.0000

> <Gold.PLP.Chemscore.Metal>
0.0000

> <Gold.Chemscore.Hbonds>
donor molecule, donor type, donor heavy atom, donor atom, acceptor molecule, acceptor atom, score
      L1  H     7    30       P1  8028  0.94
      L1  H    10    31       P1  8028  1.00
      L1  C    16    34       P1  7948  1.00

> <Gold.PLP.Chemscore.Internal.Correction>
0.3730

> <Gold.Rescore>
     Score         DG    S(hbond)    S(metal)    S(lipo)     H(rot)  DE(clash)    DE(int)     intcor
     18.34     -22.48       1.92        0.00     118.06       1.27       1.96       2.18       ----

> <Gold.Chemscore.Fitness>
18.3364

> <Gold.Chemscore.DG>
-22.4765

> <Gold.Chemscore.ZeroCoef>
-5.4800

> <Gold.Chemscore.Hbond>
1.9230

> <Gold.Chemscore.Metal>
0.0000

> <Gold.Chemscore.Lipo>
118.0601

> <Gold.Chemscore.Internal_Hbond>
0.0000

> <Gold.Chemscore.DEClash>
1.9635

> <Gold.Chemscore.DEInternal>
2.1765

> <Gold.Chemscore.Rot>
1.2653

> <Gold.Chemscore.Internal.Correction>
   9.000000E+99

> <Gold.Chemscore.Hbonds>
donor molecule, donor type, donor heavy atom, donor atom, acceptor molecule, acceptor atom, score
      L1  H     7    30       P1  8028  0.87
      L1  H    10    31       P1  8028  0.96

> <Gold.Chemscore.Hbond.Weighted>
-6.4227

> <Gold.Chemscore.Metal.Weighted>
-0.0000

> <Gold.Chemscore.Lipo.Weighted>
-13.8130

> <Gold.Chemscore.Internal_Hbond.Weighted>
0.0000

> <Gold.Chemscore.DEClash.Weighted>
1.9635

> <Gold.Chemscore.DEInternal.Weighted>
2.1765

> <Gold.Chemscore.Rot.Weighted>
3.2392

> <Gold.Chemscore.Internal.Correction.Weighted>
   9.000000E+99

> <Gold.Protein.RotatedTorsions>
[ 6907 6896 6895 6894 ] final  108.28 input  -60.11 | X-H torsion
[ 7974 7965 7964 7962 ] final  -37.16 input  175.53 | X-H torsion
[ 8008 7997 7996 7995 ] final -140.32 input   59.86 | X-H torsion
[ 10167 10162 10161 10158 ] final -139.93 input  -65.29 | X-H torsion
[ 10718 10713 10712 10709 ] final  -44.56 input   66.30 | X-H torsion
[ 10763 10752 10751 10750 ] final   85.37 input  -60.55 | X-H torsion
[ 11005 11000 10999 10996 ] final  151.26 input  -57.11 | X-H torsion

> <Gold.Protein.ActiveResidues>
 VAL166  LYS551  ARG553  GLY616  TRP617  ASP618  TYR619  PRO620  LYS621  CYS622 
 ASP623  PHE694  ASN695  SER759  ASP760  ASP761  ALA762  ILE779  LEU786  VAL792 
 PHE793  MET794  SER795  GLU796  ALA797  LYS798  CYS799  TRP800  GLU811  SER814 

> <Gold.Protein.RotatedAtoms>
  152.5119  133.9112  159.7488 H   0  0  0  0  0  0  0  0  0  0  0  0  # atno 6907 bound_to 6896
  150.9505  133.6546  159.2780 H   0  0  0  0  0  0  0  0  0  0  0  0  # atno 6908 bound_to 6896
  151.3826  135.0947  159.9553 H   0  0  0  0  0  0  0  0  0  0  0  0  # atno 6909 bound_to 6896
  146.0599  140.6364  142.9002 H   0  0  0  0  0  0  0  0  0  0  0  0  # atno 7974 bound_to 7965
  155.4593  140.0544  157.2992 H   0  0  0  0  0  0  0  0  0  0  0  0  # atno 8008 bound_to 7997
  154.4744  140.2054  155.9870 H   0  0  0  0  0  0  0  0  0  0  0  0  # atno 8009 bound_to 7997
  156.1108  140.3204  155.8074 H   0  0  0  0  0  0  0  0  0  0  0  0  # atno 8010 bound_to 7997
  139.8331  143.7420  152.2665 H   0  0  0  0  0  0  0  0  0  0  0  0  # atno 10167 bound_to 10162
  156.2373  130.4177  149.8802 H   0  0  0  0  0  0  0  0  0  0  0  0  # atno 10718 bound_to 10713
  153.1469  135.4620  154.9579 H   0  0  0  0  0  0  0  0  0  0  0  0  # atno 10763 bound_to 10752
  154.7793  135.3183  154.8027 H   0  0  0  0  0  0  0  0  0  0  0  0  # atno 10764 bound_to 10752
  153.8539  135.6919  153.4844 H   0  0  0  0  0  0  0  0  0  0  0  0  # atno 10765 bound_to 10752
  140.1203  134.8868  157.2063 H   0  0  0  0  0  0  0  0  0  0  0  0  # atno 11005 bound_to 11000
  144.7169  140.4239  143.7038 LP  0  0  0  0  0  0  0  0  0  0  0  0  # atno 17320 bound_to 7965
  145.6579  139.1576  143.2825 LP  0  0  0  0  0  0  0  0  0  0  0  0  # atno 17321 bound_to 7965
  139.7634  144.7499  151.0330 LP  0  0  0  0  0  0  0  0  0  0  0  0  # atno 17342 bound_to 10162
  140.7805  143.4725  151.0127 LP  0  0  0  0  0  0  0  0  0  0  0  0  # atno 17343 bound_to 10162
  156.6395  130.8699  151.3511 LP  0  0  0  0  0  0  0  0  0  0  0  0  # atno 17370 bound_to 10713
  157.7160  130.9498  150.1258 LP  0  0  0  0  0  0  0  0  0  0  0  0  # atno 17371 bound_to 10713
  140.2974  134.3171  155.7299 LP  0  0  0  0  0  0  0  0  0  0  0  0  # atno 17394 bound_to 11000
  141.2150  133.7571  156.9591 LP  0  0  0  0  0  0  0  0  0  0  0  0  # atno 17395 bound_to 11000

$$$$
