AV-unprocessed.smi:148|AV-procd|sdf|1203|dock4
  -GOLD-   2262018363D 1   1.00000     0.00000
 Structure written by MMmdl.
 63 67  0  0  0  0  0  0  0  0  1 V2000
  152.0644  139.7100  158.9857 O   0  0  0  0  0  0  0  0  0  0  0  0
  151.4260  140.9701  158.9470 C   0  0  0  0  0  0  0  0  0  0  0  0
  152.2251  142.0349  159.7372 C   0  0  1  0  0  0  0  0  0  0  0  0
  153.7427  141.8413  159.4625 C   0  0  0  0  0  0  0  0  0  0  0  0
  154.4705  141.0953  160.4757 N   0  0  0  0  0  0  0  0  0  0  0  0
  154.1888  141.0541  161.8237 C   0  0  0  0  0  0  0  0  0  0  0  0
  155.0152  140.3478  162.5462 N   0  0  0  0  0  0  0  0  0  0  0  0
  155.9450  139.8793  161.6277 C   0  0  0  0  0  0  0  0  0  0  0  0
  157.1125  139.0787  161.7302 C   0  0  0  0  0  0  0  0  0  0  0  0
  157.5737  138.6447  162.9245 N   0  0  0  0  0  0  0  0  0  0  0  0
  158.9738  139.0596  163.0519 C   0  0  0  0  0  0  0  0  0  0  0  0
  159.4940  138.8711  164.4787 C   0  0  0  0  0  0  0  0  0  0  0  0
  159.3025  137.4168  164.9051 C   0  0  0  0  0  0  0  0  0  0  0  0
  157.8252  137.0301  164.7702 C   0  0  0  0  0  0  0  0  0  0  0  0
  157.2598  137.2592  163.3386 C   0  0  1  0  0  0  0  0  0  0  0  0
  155.7275  136.9209  163.3007 C   0  0  2  0  0  0  0  0  0  0  0  0
  154.8957  137.6313  164.3887 C   0  0  0  0  0  0  0  0  0  0  0  0
  153.6381  136.7899  164.5568 C   0  0  0  0  0  0  0  0  0  0  0  0
  154.1717  135.3665  164.4856 C   0  0  0  0  0  0  0  0  0  0  0  0
  155.3450  135.4260  163.4941 C   0  0  1  0  0  0  0  0  0  0  0  0
  154.9209  134.8620  162.2706 O   0  0  0  0  0  0  0  0  0  0  0  0
  157.8152  138.8274  160.5939 N   0  0  0  0  0  0  0  0  0  0  0  0
  157.3864  139.3155  159.4254 C   0  0  0  0  0  0  0  0  0  0  0  0
  156.3180  140.0777  159.1788 N   0  0  0  0  0  0  0  0  0  0  0  0
  155.6193  140.3382  160.3210 C   0  0  0  0  0  0  0  0  0  0  0  0
  151.7281  143.4762  159.4159 C   0  0  2  0  0  0  0  0  0  0  0  0
  152.0521  143.9800  158.0107 C   0  0  0  0  0  0  0  0  0  0  0  0
  152.2697  145.4879  158.1612 C   0  0  0  0  0  0  0  0  0  0  0  0
  152.0536  145.7673  159.5352 O   0  0  0  0  0  0  0  0  0  0  0  0
  152.3512  144.5900  160.2630 C   0  0  0  0  0  0  0  0  0  0  0  0
  151.7407  139.2317  159.7338 H   0  0  0  0  0  0  0  0  0  0  0  0
  151.2922  141.2763  157.9090 H   0  0  0  0  0  0  0  0  0  0  0  0
  150.4326  140.8216  159.3684 H   0  0  0  0  0  0  0  0  0  0  0  0
  152.0368  141.8479  160.7952 H   0  0  0  0  0  0  0  0  0  0  0  0
  153.8946  141.3142  158.5204 H   0  0  0  0  0  0  0  0  0  0  0  0
  154.2207  142.8147  159.3434 H   0  0  0  0  0  0  0  0  0  0  0  0
  153.3453  141.5696  162.2591 H   0  0  0  0  0  0  0  0  0  0  0  0
  159.5887  138.4803  162.3612 H   0  0  0  0  0  0  0  0  0  0  0  0
  159.0823  140.1082  162.7689 H   0  0  0  0  0  0  0  0  0  0  0  0
  160.5475  139.1459  164.5341 H   0  0  0  0  0  0  0  0  0  0  0  0
  158.9588  139.5341  165.1599 H   0  0  0  0  0  0  0  0  0  0  0  0
  159.9159  136.7620  164.2846 H   0  0  0  0  0  0  0  0  0  0  0  0
  159.6359  137.2790  165.9340 H   0  0  0  0  0  0  0  0  0  0  0  0
  157.7350  135.9862  165.0674 H   0  0  0  0  0  0  0  0  0  0  0  0
  157.2409  137.6074  165.4885 H   0  0  0  0  0  0  0  0  0  0  0  0
  157.7832  136.5799  162.6641 H   0  0  0  0  0  0  0  0  0  0  0  0
  155.3300  137.2679  162.3446 H   0  0  0  0  0  0  0  0  0  0  0  0
  155.4365  137.6372  165.3364 H   0  0  0  0  0  0  0  0  0  0  0  0
  154.6607  138.6643  164.1301 H   0  0  0  0  0  0  0  0  0  0  0  0
  153.1126  136.9970  165.4893 H   0  0  0  0  0  0  0  0  0  0  0  0
  152.9505  136.9758  163.7304 H   0  0  0  0  0  0  0  0  0  0  0  0
  154.5477  135.0785  165.4682 H   0  0  0  0  0  0  0  0  0  0  0  0
  153.4010  134.6439  164.2123 H   0  0  0  0  0  0  0  0  0  0  0  0
  156.1731  134.8410  163.8922 H   0  0  0  0  0  0  0  0  0  0  0  0
  154.8295  133.9286  162.3867 H   0  0  0  0  0  0  0  0  0  0  0  0
  157.9900  139.0660  158.5652 H   0  0  0  0  0  0  0  0  0  0  0  0
  150.6474  143.5223  159.5601 H   0  0  0  0  0  0  0  0  0  0  0  0
  152.9662  143.5202  157.6340 H   0  0  0  0  0  0  0  0  0  0  0  0
  151.2512  143.7644  157.3040 H   0  0  0  0  0  0  0  0  0  0  0  0
  153.2907  145.7579  157.8884 H   0  0  0  0  0  0  0  0  0  0  0  0
  151.5868  146.0696  157.5419 H   0  0  0  0  0  0  0  0  0  0  0  0
  151.9322  144.6448  161.2680 H   0  0  0  0  0  0  0  0  0  0  0  0
  153.4335  144.4726  160.3423 H   0  0  0  0  0  0  0  0  0  0  0  0
  1  2  1  0  0  0  0
  1 31  1  0  0  0  0
  2  3  1  0  0  0  0
  2 32  1  0  0  0  0
  2 33  1  0  0  0  0
  3  4  1  0  0  0  0
  3 26  1  0  0  0  0
  3 34  1  0  0  0  0
  4  5  1  0  0  0  0
  4 35  1  0  0  0  0
  4 36  1  0  0  0  0
  5 25  1  0  0  0  0
  5  6  1  0  0  0  0
  6  7  2  0  0  0  0
  6 37  1  0  0  0  0
  7  8  1  0  0  0  0
  8 25  2  0  0  0  0
  8  9  1  0  0  0  0
  9 10  1  0  0  0  0
  9 22  2  0  0  0  0
 10 15  1  0  0  0  0
 10 11  1  0  0  0  0
 11 12  1  0  0  0  0
 11 38  1  0  0  0  0
 11 39  1  0  0  0  0
 12 13  1  0  0  0  0
 12 40  1  0  0  0  0
 12 41  1  0  0  0  0
 13 14  1  0  0  0  0
 13 42  1  0  0  0  0
 13 43  1  0  0  0  0
 14 15  1  0  0  0  0
 14 44  1  0  0  0  0
 14 45  1  0  0  0  0
 15 16  1  0  0  0  0
 15 46  1  0  0  0  0
 16 20  1  0  0  0  0
 16 17  1  0  0  0  0
 16 47  1  0  0  0  0
 17 18  1  0  0  0  0
 17 48  1  0  0  0  0
 17 49  1  0  0  0  0
 18 19  1  0  0  0  0
 18 50  1  0  0  0  0
 18 51  1  0  0  0  0
 19 20  1  0  0  0  0
 19 52  1  0  0  0  0
 19 53  1  0  0  0  0
 20 21  1  0  0  0  0
 20 54  1  0  0  0  0
 21 55  1  0  0  0  0
 22 23  1  0  0  0  0
 23 24  2  0  0  0  0
 23 56  1  0  0  0  0
 24 25  1  0  0  0  0
 26 30  1  0  0  0  0
 26 27  1  0  0  0  0
 26 57  1  0  0  0  0
 27 28  1  0  0  0  0
 27 58  1  0  0  0  0
 27 59  1  0  0  0  0
 28 29  1  0  0  0  0
 28 60  1  0  0  0  0
 28 61  1  0  0  0  0
 29 30  1  0  0  0  0
 30 62  1  0  0  0  0
 30 63  1  0  0  0  0
M  END
> <s_m_source_file>
AV-unprocessed.smi

> <i_m_source_file_index>
148

> <i_lp_mmshare_version>
43012

> <i_f3d_flags>
0

> <s_epik_input>
W0NIMl0xT1tDSDJdW0NIMl1bQ0BIXTFbQ0BIXShbQ0gyXVtPSF0pW0NIMl1uKFtjSF1uMiljKGMyMyluW2NIXW5jM040W0NIMl1bQ0gyXVtDSDJdW0NIMl1bQ0BIXTRbQ0BASF01W0NIMl1bQ0gyXVtDSDJdW0NASF01W09IXQ==

> <s_epik_cmdline>
J2VwaWtfcHl0aG9uJywgJy1waCcsICc3LjAnLCAnLXRuJywgJzgnLCAnLW1hJywgJzIwMCcsICctbWV0YWxfYmluZGluZycsICctaW1hZScsICc8aW5maWxlLm1hZT4nLCAnLW9tYWUnLCAnPG91dGZpbGUubWFlPic=

> <r_lp_tautomer_probability>
1

> <r_epik_Ionization_Penalty>
0.00556303

> <r_epik_Ionization_Penalty_Charging>
0

> <r_epik_Ionization_Penalty_Neutral>
0.00556303

> <r_epik_State_Penalty>
0.00401767

> <r_epik_Charging_Adjusted_Penalty>
0.00401767

> <i_epik_Tot_Q>
0

> <i_epik_Tot_abs_Q>
0

> <r_epik_Metal_State_Penalty>
-0

> <b_epik_Metal_Only>
0

> <s_lp_Force_Field>
OPLS_2005

> <r_lp_Energy>
69.6021

> <b_lp_Chiralities_Consistent>
1

> <s_lp_Variant>
AV-unprocessed.smi:148-2

> <Gold.Version>
5.8.1

> <Gold.Id.Protein>
6NUR|6NUR_protein|mol2

> <Gold.PLP.Fitness>
46.3497

> <Gold.PLP.PLP>
-46.0236

> <Gold.PLP.part.hbond>
-1.6378

> <Gold.PLP.part.metal>
0.0000

> <Gold.PLP.part.buried>
-5.9386

> <Gold.PLP.part.nonpolar>
-37.6425

> <Gold.PLP.part.repulsive>
0.2295

> <Gold.PLP.ligand.clash>
0.0000

> <Gold.PLP.ligand.torsion>
1.5824

> <Gold.PLP.Chemscore.Hbond>
0.9920

> <Gold.PLP.Chemscore.CHOScore>
0.0000

> <Gold.PLP.Chemscore.Metal>
0.0000

> <Gold.Chemscore.Hbonds>
donor molecule, donor type, donor heavy atom, donor atom, acceptor molecule, acceptor atom, score
      P1  H  7997  8010       L1    24  1.00

> <Gold.PLP.Chemscore.Internal.Correction>
0.5151

> <Gold.Rescore>
     Score         DG    S(hbond)    S(metal)    S(lipo)     H(rot)  DE(clash)    DE(int)     intcor
     11.71     -13.70       0.97        0.00     115.23       3.32       0.46       1.53       ----

> <Gold.Chemscore.Fitness>
11.7087

> <Gold.Chemscore.DG>
-13.6975

> <Gold.Chemscore.ZeroCoef>
-5.4800

> <Gold.Chemscore.Hbond>
0.9686

> <Gold.Chemscore.Metal>
0.0000

> <Gold.Chemscore.Lipo>
115.2338

> <Gold.Chemscore.Internal_Hbond>
0.0000

> <Gold.Chemscore.DEClash>
0.4566

> <Gold.Chemscore.DEInternal>
1.5321

> <Gold.Chemscore.Rot>
3.3203

> <Gold.Chemscore.Internal.Correction>
   9.000000E+99

> <Gold.Chemscore.Hbonds>
donor molecule, donor type, donor heavy atom, donor atom, acceptor molecule, acceptor atom, score
      P1  H  7997  8010       L1    24  0.88

> <Gold.Chemscore.Hbond.Weighted>
-3.2351

> <Gold.Chemscore.Metal.Weighted>
-0.0000

> <Gold.Chemscore.Lipo.Weighted>
-13.4824

> <Gold.Chemscore.Internal_Hbond.Weighted>
0.0000

> <Gold.Chemscore.DEClash.Weighted>
0.4566

> <Gold.Chemscore.DEInternal.Weighted>
1.5321

> <Gold.Chemscore.Rot.Weighted>
8.5000

> <Gold.Chemscore.Internal.Correction.Weighted>
   9.000000E+99

> <Gold.Protein.RotatedTorsions>
[ 6907 6896 6895 6894 ] final  -45.51 input  -60.11 | X-H torsion
[ 7974 7965 7964 7962 ] final -143.67 input  175.53 | X-H torsion
[ 8008 7997 7996 7995 ] final  -32.49 input   59.86 | X-H torsion
[ 10167 10162 10161 10158 ] final  -85.12 input  -65.29 | X-H torsion
[ 10718 10713 10712 10709 ] final  144.65 input   66.30 | X-H torsion
[ 10763 10752 10751 10750 ] final   64.04 input  -60.55 | X-H torsion
[ 11005 11000 10999 10996 ] final   -0.36 input  -57.11 | X-H torsion

> <Gold.Protein.ActiveResidues>
 VAL166  LYS551  ARG553  GLY616  TRP617  ASP618  TYR619  PRO620  LYS621  CYS622 
 ASP623  PHE694  ASN695  SER759  ASP760  ASP761  ALA762  ILE779  LEU786  VAL792 
 PHE793  MET794  SER795  GLU796  ALA797  LYS798  CYS799  TRP800  GLU811  SER814 

> <Gold.Protein.RotatedAtoms>
  150.9212  134.8629  159.7489 H   0  0  0  0  0  0  0  0  0  0  0  0  # atno 6907 bound_to 6896
  152.4993  134.4215  159.9492 H   0  0  0  0  0  0  0  0  0  0  0  0  # atno 6908 bound_to 6896
  151.4249  133.3647  159.2796 H   0  0  0  0  0  0  0  0  0  0  0  0  # atno 6909 bound_to 6896
  144.8353  140.5806  143.5488 H   0  0  0  0  0  0  0  0  0  0  0  0  # atno 7974 bound_to 7965
  154.4178  140.1736  156.1736 H   0  0  0  0  0  0  0  0  0  0  0  0  # atno 8008 bound_to 7997
  155.9740  140.3383  155.6577 H   0  0  0  0  0  0  0  0  0  0  0  0  # atno 8009 bound_to 7997
  155.6588  140.0698  157.2552 H   0  0  0  0  0  0  0  0  0  0  0  0  # atno 8010 bound_to 7997
  140.4068  143.2639  151.9071 H   0  0  0  0  0  0  0  0  0  0  0  0  # atno 10167 bound_to 10162
  157.3547  131.0956  151.0969 H   0  0  0  0  0  0  0  0  0  0  0  0  # atno 10718 bound_to 10713
  153.0040  135.5407  154.6448 H   0  0  0  0  0  0  0  0  0  0  0  0  # atno 10763 bound_to 10752
  154.5694  135.2840  155.0844 H   0  0  0  0  0  0  0  0  0  0  0  0  # atno 10764 bound_to 10752
  154.2015  135.6483  153.5141 H   0  0  0  0  0  0  0  0  0  0  0  0  # atno 10765 bound_to 10752
  140.6354  133.9537  155.8297 H   0  0  0  0  0  0  0  0  0  0  0  0  # atno 11005 bound_to 11000
  145.4808  139.1495  143.3763 LP  0  0  0  0  0  0  0  0  0  0  0  0  # atno 17320 bound_to 7965
  146.2652  140.4944  142.8837 LP  0  0  0  0  0  0  0  0  0  0  0  0  # atno 17321 bound_to 7965
  139.4783  144.5578  151.8286 LP  0  0  0  0  0  0  0  0  0  0  0  0  # atno 17342 bound_to 10162
  140.4681  144.1626  150.5914 LP  0  0  0  0  0  0  0  0  0  0  0  0  # atno 17343 bound_to 10162
  157.2132  130.6447  149.5782 LP  0  0  0  0  0  0  0  0  0  0  0  0  # atno 17370 bound_to 10713
  155.9727  130.4653  150.6249 LP  0  0  0  0  0  0  0  0  0  0  0  0  # atno 17371 bound_to 10713
  141.0645  134.0297  157.3613 LP  0  0  0  0  0  0  0  0  0  0  0  0  # atno 17394 bound_to 11000
  139.9100  135.0188  156.7651 LP  0  0  0  0  0  0  0  0  0  0  0  0  # atno 17395 bound_to 11000

$$$$
