AV-unprocessed.smi:3032|AV-procd|sdf|11569|dock9
  -GOLD-   2272016533D 1   1.00000     0.00000
 Structure written by MMmdl.
 36 37  0  0  0  0  0  0  0  0  2 V2000
  153.4224  142.4366  160.6920 C   0  0  0  0  0  0  0  0  0  0  0  0
  152.8046  142.2447  159.2998 C   0  0  2  0  0  0  0  0  0  0  0  0
  152.2492  143.5687  158.7431 C   0  0  0  0  0  0  0  0  0  0  0  0
  151.6444  143.3837  157.3431 C   0  0  0  0  0  0  0  0  0  0  0  0
  150.5622  142.2866  157.3330 C   0  0  0  0  0  0  0  0  0  0  0  0
  151.0284  140.9443  157.9471 C   0  0  1  0  0  0  0  0  0  0  0  0
  151.9175  140.1127  157.0035 C   0  0  0  0  0  0  0  0  0  0  0  0
  152.9814  139.6297  157.3920 O   0  0  0  0  0  0  0  0  0  0  0  0
  151.4584  139.9496  155.7536 N   0  0  0  0  0  0  0  0  0  0  0  0
  152.0918  139.1294  154.7264 C   0  0  0  0  0  0  0  0  0  0  0  0
  151.4173  137.7531  154.5696 C   0  0  0  0  0  0  0  0  0  0  0  0
  151.1461  137.0618  155.8916 C   0  0  0  0  0  0  0  0  0  0  0  0
  151.6431  135.8657  156.2683 N   0  5  0  0  0  0  0  0  0  0  0  0
  151.1800  135.5361  157.4583 N   0  0  0  0  0  0  0  0  0  0  0  0
  150.3829  136.5573  157.7939 C   0  0  0  0  0  0  0  0  0  0  0  0
  150.3378  137.5052  156.8521 N   0  0  0  0  0  0  0  0  0  0  0  0
  151.6971  141.1705  159.3224 C   0  0  0  0  0  0  0  0  0  0  0  0
  152.6790  142.7772  161.4133 H   0  0  0  0  0  0  0  0  0  0  0  0
  154.2254  143.1739  160.6665 H   0  0  0  0  0  0  0  0  0  0  0  0
  153.8451  141.5027  161.0644 H   0  0  0  0  0  0  0  0  0  0  0  0
  153.6035  141.9069  158.6388 H   0  0  0  0  0  0  0  0  0  0  0  0
  151.4879  143.9621  159.4183 H   0  0  0  0  0  0  0  0  0  0  0  0
  153.0406  144.3176  158.7009 H   0  0  0  0  0  0  0  0  0  0  0  0
  151.2128  144.3255  157.0030 H   0  0  0  0  0  0  0  0  0  0  0  0
  152.4351  143.1455  156.6325 H   0  0  0  0  0  0  0  0  0  0  0  0
  149.6994  142.6442  157.8960 H   0  0  0  0  0  0  0  0  0  0  0  0
  150.2061  142.1325  156.3134 H   0  0  0  0  0  0  0  0  0  0  0  0
  150.1290  140.3508  158.1206 H   0  0  0  0  0  0  0  0  0  0  0  0
  150.5706  140.3680  155.5158 H   0  0  0  0  0  0  0  0  0  0  0  0
  152.0221  139.6740  153.7846 H   0  0  0  0  0  0  0  0  0  0  0  0
  153.1558  139.0111  154.9361 H   0  0  0  0  0  0  0  0  0  0  0  0
  150.4754  137.8622  154.0314 H   0  0  0  0  0  0  0  0  0  0  0  0
  152.0437  137.0992  153.9616 H   0  0  0  0  0  0  0  0  0  0  0  0
  149.8321  136.6088  158.7249 H   0  0  0  0  0  0  0  0  0  0  0  0
  152.1050  140.2296  159.6956 H   0  0  0  0  0  0  0  0  0  0  0  0
  150.9297  141.4631  160.0403 H   0  0  0  0  0  0  0  0  0  0  0  0
  1  2  1  0  0  0  0
  1 18  1  0  0  0  0
  1 19  1  0  0  0  0
  1 20  1  0  0  0  0
  2 17  1  0  0  0  0
  2  3  1  0  0  0  0
  2 21  1  0  0  0  0
  3  4  1  0  0  0  0
  3 22  1  0  0  0  0
  3 23  1  0  0  0  0
  4  5  1  0  0  0  0
  4 24  1  0  0  0  0
  4 25  1  0  0  0  0
  5  6  1  0  0  0  0
  5 26  1  0  0  0  0
  5 27  1  0  0  0  0
  6  7  1  0  0  0  0
  6 17  1  0  0  0  0
  6 28  1  0  0  0  0
  7  8  2  0  0  0  0
  7  9  1  0  0  0  0
  9 10  1  0  0  0  0
  9 29  1  0  0  0  0
 10 11  1  0  0  0  0
 10 30  1  0  0  0  0
 10 31  1  0  0  0  0
 11 32  1  0  0  0  0
 11 33  1  0  0  0  0
 11 12  1  0  0  0  0
 12 16  2  0  0  0  0
 12 13  1  0  0  0  0
 13 14  1  0  0  0  0
 14 15  2  0  0  0  0
 15 16  1  0  0  0  0
 15 34  1  0  0  0  0
 17 35  1  0  0  0  0
 17 36  1  0  0  0  0
M  CHG  1  13  -1
M  END
> <s_m_source_file>
AV-unprocessed.smi

> <i_m_source_file_index>
3032

> <i_lp_mmshare_version>
43012

> <i_f3d_flags>
0

> <s_epik_input>
W0NIM11bQ0BASF0xW0NIMl1bQ0gyXVtDSDJdW0NASF0oW0NIMl0xKUMoPU8pW05IXVtDSDJdW0NIMl1jMm5uW2NIXVtuSF0y

> <s_epik_cmdline>
J2VwaWtfcHl0aG9uJywgJy1waCcsICc3LjAnLCAnLXRuJywgJzgnLCAnLW1hJywgJzIwMCcsICctbWV0YWxfYmluZGluZycsICctaW1hZScsICc8aW5maWxlLm1hZT4nLCAnLW9tYWUnLCAnPG91dGZpbGUubWFlPic=

> <r_lp_tautomer_probability>
0.948284

> <r_epik_Ionization_Penalty>
12.042

> <r_epik_Ionization_Penalty_Charging>
12.042

> <r_epik_Ionization_Penalty_Neutral>
4.36781e-08

> <r_epik_State_Penalty>
4.67286

> <r_epik_Charging_Adjusted_Penalty>
16.7149

> <i_epik_Tot_Q>
-1

> <i_epik_Tot_abs_Q>
1

> <r_epik_Metal_State_Penalty>
0.981637

> <b_epik_Metal_Only>
1

> <s_lp_Force_Field>
OPLS_2005

> <r_lp_Energy>
8.77891

> <b_lp_Chiralities_Consistent>
1

> <s_lp_Variant>
AV-unprocessed.smi:3032-13

> <Gold.Version>
5.8.1

> <Gold.Id.Protein>
6NUR|6NUR_protein|mol2

> <Gold.PLP.Fitness>
40.7293

> <Gold.PLP.PLP>
-32.3313

> <Gold.PLP.part.hbond>
-3.0000

> <Gold.PLP.part.metal>
0.0000

> <Gold.PLP.part.buried>
-3.1573

> <Gold.PLP.part.nonpolar>
-26.4666

> <Gold.PLP.part.repulsive>
0.1627

> <Gold.PLP.ligand.clash>
0.0000

> <Gold.PLP.ligand.torsion>
0.3329

> <Gold.PLP.Chemscore.Hbond>
3.0047

> <Gold.PLP.Chemscore.CHOScore>
0.0000

> <Gold.PLP.Chemscore.Metal>
0.0000

> <Gold.Chemscore.Hbonds>
donor molecule, donor type, donor heavy atom, donor atom, acceptor molecule, acceptor atom, score
      P1  H  6896  6907       L1    14  0.02
      P1  H  7997  8008       L1     8  1.00
      P1  H 10752 10763       L1    13  1.98

> <Gold.PLP.Chemscore.Internal.Correction>
0.0497

> <Gold.Rescore>
     Score         DG    S(hbond)    S(metal)    S(lipo)     H(rot)  DE(clash)    DE(int)     intcor
     14.96     -15.88       1.98        0.00      80.84       2.21       0.45       0.47       ----

> <Gold.Chemscore.Fitness>
14.9565

> <Gold.Chemscore.DG>
-15.8774

> <Gold.Chemscore.ZeroCoef>
-5.4800

> <Gold.Chemscore.Hbond>
1.9790

> <Gold.Chemscore.Metal>
0.0000

> <Gold.Chemscore.Lipo>
80.8363

> <Gold.Chemscore.Internal_Hbond>
0.0000

> <Gold.Chemscore.DEClash>
0.4473

> <Gold.Chemscore.DEInternal>
0.4736

> <Gold.Chemscore.Rot>
2.2149

> <Gold.Chemscore.Internal.Correction>
   9.000000E+99

> <Gold.Chemscore.Hbonds>
donor molecule, donor type, donor heavy atom, donor atom, acceptor molecule, acceptor atom, score
      P1  H  7997  8008       L1     8  0.99
      P1  H 10752 10763       L1    13  0.71

> <Gold.Chemscore.Hbond.Weighted>
-6.6098

> <Gold.Chemscore.Metal.Weighted>
-0.0000

> <Gold.Chemscore.Lipo.Weighted>
-9.4578

> <Gold.Chemscore.Internal_Hbond.Weighted>
0.0000

> <Gold.Chemscore.DEClash.Weighted>
0.4473

> <Gold.Chemscore.DEInternal.Weighted>
0.4736

> <Gold.Chemscore.Rot.Weighted>
5.6702

> <Gold.Chemscore.Internal.Correction.Weighted>
   9.000000E+99

> <Gold.Protein.RotatedTorsions>
[ 6907 6896 6895 6894 ] final  -56.03 input  -60.11 | X-H torsion
[ 7974 7965 7964 7962 ] final   86.99 input  175.53 | X-H torsion
[ 8008 7997 7996 7995 ] final  -72.81 input   59.86 | X-H torsion
[ 10167 10162 10161 10158 ] final  -90.92 input  -65.29 | X-H torsion
[ 10718 10713 10712 10709 ] final  -62.10 input   66.30 | X-H torsion
[ 10763 10752 10751 10750 ] final  105.40 input  -60.55 | X-H torsion
[ 11005 11000 10999 10996 ] final   59.99 input  -57.11 | X-H torsion

> <Gold.Protein.ActiveResidues>
 VAL166  LYS551  ARG553  GLY616  TRP617  ASP618  TYR619  PRO620  LYS621  CYS622 
 ASP623  PHE694  ASN695  SER759  ASP760  ASP761  ALA762  ILE779  LEU786  VAL792 
 PHE793  MET794  SER795  GLU796  ALA797  LYS798  CYS799  TRP800  GLU811  SER814 

> <Gold.Protein.RotatedAtoms>
  150.8202  134.7405  159.6765 H   0  0  0  0  0  0  0  0  0  0  0  0  # atno 6907 bound_to 6896
  152.4318  134.5760  159.9944 H   0  0  0  0  0  0  0  0  0  0  0  0  # atno 6908 bound_to 6896
  151.5946  133.3325  159.3070 H   0  0  0  0  0  0  0  0  0  0  0  0  # atno 6909 bound_to 6896
  145.5649  139.2307  143.2439 H   0  0  0  0  0  0  0  0  0  0  0  0  # atno 7974 bound_to 7965
  154.5196  140.0790  156.8146 H   0  0  0  0  0  0  0  0  0  0  0  0  # atno 8008 bound_to 7997
  155.3605  140.3417  155.4222 H   0  0  0  0  0  0  0  0  0  0  0  0  # atno 8009 bound_to 7997
  156.1666  140.1606  156.8508 H   0  0  0  0  0  0  0  0  0  0  0  0  # atno 8010 bound_to 7997
  140.3501  143.2896  151.9736 H   0  0  0  0  0  0  0  0  0  0  0  0  # atno 10167 bound_to 10162
  156.0877  130.4205  150.1088 H   0  0  0  0  0  0  0  0  0  0  0  0  # atno 10718 bound_to 10713
  153.3789  135.3911  155.1842 H   0  0  0  0  0  0  0  0  0  0  0  0  # atno 10763 bound_to 10752
  154.8705  135.3720  154.4883 H   0  0  0  0  0  0  0  0  0  0  0  0  # atno 10764 bound_to 10752
  153.5357  135.7085  153.5722 H   0  0  0  0  0  0  0  0  0  0  0  0  # atno 10765 bound_to 10752
  140.0264  134.6077  155.9567 H   0  0  0  0  0  0  0  0  0  0  0  0  # atno 11005 bound_to 11000
  146.1825  140.6474  142.9182 LP  0  0  0  0  0  0  0  0  0  0  0  0  # atno 17320 bound_to 7965
  144.7465  140.5081  143.6832 LP  0  0  0  0  0  0  0  0  0  0  0  0  # atno 17321 bound_to 7965
  139.4827  144.6083  151.7480 LP  0  0  0  0  0  0  0  0  0  0  0  0  # atno 17342 bound_to 10162
  140.5227  144.0854  150.6027 LP  0  0  0  0  0  0  0  0  0  0  0  0  # atno 17343 bound_to 10162
  156.9105  130.9650  151.3563 LP  0  0  0  0  0  0  0  0  0  0  0  0  # atno 17370 bound_to 10713
  157.6017  130.8517  149.8812 LP  0  0  0  0  0  0  0  0  0  0  0  0  # atno 17371 bound_to 10713
  141.1805  133.6546  156.5001 LP  0  0  0  0  0  0  0  0  0  0  0  0  # atno 17394 bound_to 11000
  140.4299  134.7111  157.4936 LP  0  0  0  0  0  0  0  0  0  0  0  0  # atno 17395 bound_to 11000

$$$$
