AV-unprocessed.smi:1701|AV-procd|sdf|6828|dock9
  -GOLD-   22720 8 03D 1   1.00000     0.00000
 Structure written by MMmdl.
 55 57  0  0  0  0  0  0  0  0  3 V2000
  152.2994  145.2195  158.7368 C   0  0  0  0  0  0  0  0  0  0  0  0
  151.6505  144.2001  157.7884 C   0  0  0  0  0  0  0  0  0  0  0  0
  151.5251  142.8639  158.3712 N   0  0  0  0  0  0  0  0  0  0  0  0
  152.0794  142.6061  159.7026 C   0  0  0  0  0  0  0  0  0  0  0  0
  153.6151  142.5792  159.7240 C   0  0  0  0  0  0  0  0  0  0  0  0
  150.7152  141.8864  157.7429 C   0  0  0  0  0  0  0  0  0  0  0  0
  150.6833  140.5245  158.1345 C   0  0  0  0  0  0  0  0  0  0  0  0
  149.8504  139.6137  157.4533 C   0  0  0  0  0  0  0  0  0  0  0  0
  149.0418  140.0600  156.3881 C   0  0  0  0  0  0  0  0  0  0  0  0
  148.2325  139.0970  155.7258 N   0  0  0  0  0  0  0  0  0  0  0  0
  147.1408  139.2895  154.9585 C   0  0  0  0  0  0  0  0  0  0  0  0
  146.6295  140.3824  154.7278 O   0  0  0  0  0  0  0  0  0  0  0  0
  146.6106  138.1579  154.4612 N   0  0  0  0  0  0  0  0  0  0  0  0
  145.4357  138.0145  153.5997 C   0  0  1  0  0  0  0  0  0  0  0  0
  145.7021  137.2336  152.3020 C   0  0  0  0  0  0  0  0  0  0  0  0
  144.4490  136.3625  152.0815 C   0  0  0  0  0  0  0  0  0  0  0  0
  143.4907  136.7157  153.1541 N   0  3  2  0  0  0  0  0  0  0  0  0
  142.4700  137.6965  152.6926 C   0  0  0  0  0  0  0  0  0  0  0  0
  141.6264  138.2409  153.8524 C   0  0  0  0  0  0  0  0  0  0  0  0
  142.5292  138.8973  154.8995 C   0  0  0  0  0  0  0  0  0  0  0  0
  143.5482  137.8728  155.4104 C   0  0  0  0  0  0  0  0  0  0  0  0
  144.3399  137.1839  154.2760 C   0  0  2  0  0  0  0  0  0  0  0  0
  149.1102  141.4265  156.0284 C   0  0  0  0  0  0  0  0  0  0  0  0
  149.9240  142.2630  156.7079 N   0  3  0  0  0  0  0  0  0  0  0  0
  152.3287  146.2054  158.2730 H   0  0  0  0  0  0  0  0  0  0  0  0
  153.3254  144.9473  158.9797 H   0  0  0  0  0  0  0  0  0  0  0  0
  151.7466  145.3120  159.6718 H   0  0  0  0  0  0  0  0  0  0  0  0
  150.6763  144.5555  157.4537 H   0  0  0  0  0  0  0  0  0  0  0  0
  152.2530  144.1314  156.8822 H   0  0  0  0  0  0  0  0  0  0  0  0
  151.7064  143.3444  160.4129 H   0  0  0  0  0  0  0  0  0  0  0  0
  151.7041  141.6474  160.0615 H   0  0  0  0  0  0  0  0  0  0  0  0
  153.9793  142.4067  160.7369 H   0  0  0  0  0  0  0  0  0  0  0  0
  154.0389  143.5227  159.3797 H   0  0  0  0  0  0  0  0  0  0  0  0
  154.0144  141.7841  159.0964 H   0  0  0  0  0  0  0  0  0  0  0  0
  151.2902  140.1524  158.9455 H   0  0  0  0  0  0  0  0  0  0  0  0
  149.8348  138.5762  157.7533 H   0  0  0  0  0  0  0  0  0  0  0  0
  148.4953  138.1348  155.8798 H   0  0  0  0  0  0  0  0  0  0  0  0
  147.0660  137.2969  154.7296 H   0  0  0  0  0  0  0  0  0  0  0  0
  145.0344  138.9992  153.3545 H   0  0  0  0  0  0  0  0  0  0  0  0
  145.8734  137.9125  151.4660 H   0  0  0  0  0  0  0  0  0  0  0  0
  146.5835  136.5969  152.3925 H   0  0  0  0  0  0  0  0  0  0  0  0
  144.0255  136.4864  151.0836 H   0  0  0  0  0  0  0  0  0  0  0  0
  144.7122  135.3097  152.1912 H   0  0  0  0  0  0  0  0  0  0  0  0
  142.9573  138.5278  152.1805 H   0  0  0  0  0  0  0  0  0  0  0  0
  141.8227  137.2161  151.9579 H   0  0  0  0  0  0  0  0  0  0  0  0
  140.9036  138.9664  153.4778 H   0  0  0  0  0  0  0  0  0  0  0  0
  141.0507  137.4335  154.3073 H   0  0  0  0  0  0  0  0  0  0  0  0
  143.0411  139.7580  154.4677 H   0  0  0  0  0  0  0  0  0  0  0  0
  141.9304  139.2759  155.7284 H   0  0  0  0  0  0  0  0  0  0  0  0
  144.2323  138.3435  156.1172 H   0  0  0  0  0  0  0  0  0  0  0  0
  143.0138  137.1080  155.9757 H   0  0  0  0  0  0  0  0  0  0  0  0
  144.8106  136.2944  154.7001 H   0  0  0  0  0  0  0  0  0  0  0  0
  148.5624  141.8896  155.2221 H   0  0  0  0  0  0  0  0  0  0  0  0
  142.9953  135.8855  153.4473 H   0  0  0  0  0  0  0  0  0  0  0  0
  149.9477  143.2411  156.4197 H   0  0  0  0  0  0  0  0  0  0  0  0
  1  2  1  0  0  0  0
  1 25  1  0  0  0  0
  1 26  1  0  0  0  0
  1 27  1  0  0  0  0
  2  3  1  0  0  0  0
  2 28  1  0  0  0  0
  2 29  1  0  0  0  0
  3  4  1  0  0  0  0
  3  6  1  0  0  0  0
  4  5  1  0  0  0  0
  4 30  1  0  0  0  0
  4 31  1  0  0  0  0
  5 32  1  0  0  0  0
  5 33  1  0  0  0  0
  5 34  1  0  0  0  0
  6 24  1  0  0  0  0
  6  7  2  0  0  0  0
  7  8  1  0  0  0  0
  7 35  1  0  0  0  0
  8  9  2  0  0  0  0
  8 36  1  0  0  0  0
  9 10  1  0  0  0  0
  9 23  1  0  0  0  0
 10 11  1  0  0  0  0
 10 37  1  0  0  0  0
 11 12  2  0  0  0  0
 11 13  1  0  0  0  0
 13 14  1  0  0  0  0
 13 38  1  0  0  0  0
 14 22  1  0  0  0  0
 14 15  1  0  0  0  0
 14 39  1  0  0  0  0
 15 16  1  0  0  0  0
 15 40  1  0  0  0  0
 15 41  1  0  0  0  0
 16 17  1  0  0  0  0
 16 42  1  0  0  0  0
 16 43  1  0  0  0  0
 17 22  1  0  0  0  0
 17 18  1  0  0  0  0
 17 54  1  0  0  0  0
 18 19  1  0  0  0  0
 18 44  1  0  0  0  0
 18 45  1  0  0  0  0
 19 20  1  0  0  0  0
 19 46  1  0  0  0  0
 19 47  1  0  0  0  0
 20 21  1  0  0  0  0
 20 48  1  0  0  0  0
 20 49  1  0  0  0  0
 21 22  1  0  0  0  0
 21 50  1  0  0  0  0
 21 51  1  0  0  0  0
 22 52  1  0  0  0  0
 23 24  2  0  0  0  0
 23 53  1  0  0  0  0
 24 55  1  0  0  0  0
M  CHG  1  17   1
M  CHG  1  24   1
M  END
> <s_m_source_file>
AV-unprocessed.smi

> <i_m_source_file_index>
1701

> <i_lp_mmshare_version>
43012

> <i_f3d_flags>
0

> <s_epik_input>
W0NIM11bQ0gyXU4oW0NIMl1bQ0gzXSljMVtjSF1bY0hdYyhbY0hdbjEpW05IXUMoPU8pW05IXVtDQEhdKFtDSDJdW0NIMl0yKVtDQEBIXShOMjMpW0NIMl1bQ0gyXVtDSDJdW0NIMl0z

> <s_epik_cmdline>
J2VwaWtfcHl0aG9uJywgJy1waCcsICc3LjAnLCAnLXRuJywgJzgnLCAnLW1hJywgJzIwMCcsICctbWV0YWxfYmluZGluZycsICctaW1hZScsICc8aW5maWxlLm1hZT4nLCAnLW9tYWUnLCAnPG91dGZpbGUubWFlPic=

> <r_lp_tautomer_probability>
0.999994

> <r_epik_Ionization_Penalty>
0.302862

> <r_epik_Ionization_Penalty_Charging>
0.302842

> <r_epik_Ionization_Penalty_Neutral>
1.95166e-05

> <r_epik_State_Penalty>
0.019791

> <r_epik_Charging_Adjusted_Penalty>
0.322633

> <i_epik_Tot_Q>
2

> <i_epik_Tot_abs_Q>
2

> <r_epik_Metal_State_Penalty>
0.0536763

> <b_epik_Metal_Only>
0

> <s_lp_Force_Field>
OPLS_2005

> <r_lp_Energy>
65.6354

> <b_lp_Chiralities_Consistent>
1

> <s_lp_Variant>
AV-unprocessed.smi:1701-8

> <Gold.Version>
5.8.1

> <Gold.Id.Protein>
6NUR|6NUR_protein|mol2

> <Gold.PLP.Fitness>
39.4024

> <Gold.PLP.PLP>
-34.0111

> <Gold.PLP.part.hbond>
-1.0000

> <Gold.PLP.part.metal>
0.0000

> <Gold.PLP.part.buried>
-5.8607

> <Gold.PLP.part.nonpolar>
-28.0404

> <Gold.PLP.part.repulsive>
0.1024

> <Gold.PLP.ligand.clash>
0.0000

> <Gold.PLP.ligand.torsion>
0.3372

> <Gold.PLP.Chemscore.Hbond>
1.9840

> <Gold.PLP.Chemscore.CHOScore>
0.0000

> <Gold.PLP.Chemscore.Metal>
0.0000

> <Gold.Chemscore.Hbonds>
donor molecule, donor type, donor heavy atom, donor atom, acceptor molecule, acceptor atom, score
      L1  H    24    55       P1  8028  1.79

> <Gold.PLP.Chemscore.Internal.Correction>
0.1137

> <Gold.Rescore>
     Score         DG    S(hbond)    S(metal)    S(lipo)     H(rot)  DE(clash)    DE(int)     intcor
     14.51     -16.01       0.95        0.00      91.26       1.30       0.09       1.41       ----

> <Gold.Chemscore.Fitness>
14.5067

> <Gold.Chemscore.DG>
-16.0095

> <Gold.Chemscore.ZeroCoef>
-5.4800

> <Gold.Chemscore.Hbond>
0.9537

> <Gold.Chemscore.Metal>
0.0000

> <Gold.Chemscore.Lipo>
91.2575

> <Gold.Chemscore.Internal_Hbond>
0.0000

> <Gold.Chemscore.DEClash>
0.0914

> <Gold.Chemscore.DEInternal>
1.4114

> <Gold.Chemscore.Rot>
1.3020

> <Gold.Chemscore.Internal.Correction>
   9.000000E+99

> <Gold.Chemscore.Hbonds>
donor molecule, donor type, donor heavy atom, donor atom, acceptor molecule, acceptor atom, score
      L1  H    24    55       P1  8028  0.87

> <Gold.Chemscore.Hbond.Weighted>
-3.1854

> <Gold.Chemscore.Metal.Weighted>
-0.0000

> <Gold.Chemscore.Lipo.Weighted>
-10.6771

> <Gold.Chemscore.Internal_Hbond.Weighted>
0.0000

> <Gold.Chemscore.DEClash.Weighted>
0.0914

> <Gold.Chemscore.DEInternal.Weighted>
1.4114

> <Gold.Chemscore.Rot.Weighted>
3.3330

> <Gold.Chemscore.Internal.Correction.Weighted>
   9.000000E+99

> <Gold.Protein.RotatedTorsions>
[ 6907 6896 6895 6894 ] final  127.62 input  -60.11 | X-H torsion
[ 7974 7965 7964 7962 ] final -115.74 input  175.53 | X-H torsion
[ 8008 7997 7996 7995 ] final -170.29 input   59.86 | X-H torsion
[ 10167 10162 10161 10158 ] final   35.74 input  -65.29 | X-H torsion
[ 10718 10713 10712 10709 ] final -101.35 input   66.30 | X-H torsion
[ 10763 10752 10751 10750 ] final  175.39 input  -60.55 | X-H torsion
[ 11005 11000 10999 10996 ] final   64.75 input  -57.11 | X-H torsion

> <Gold.Protein.ActiveResidues>
 VAL166  LYS551  ARG553  GLY616  TRP617  ASP618  TYR619  PRO620  LYS621  CYS622 
 ASP623  PHE694  ASN695  SER759  ASP760  ASP761  ALA762  ILE779  LEU786  VAL792 
 PHE793  MET794  SER795  GLU796  ALA797  LYS798  CYS799  TRP800  GLU811  SER814 

> <Gold.Protein.RotatedAtoms>
  152.3796  133.6528  159.6150 H   0  0  0  0  0  0  0  0  0  0  0  0  # atno 6907 bound_to 6896
  150.7730  133.9136  159.3386 H   0  0  0  0  0  0  0  0  0  0  0  0  # atno 6908 bound_to 6896
  151.6944  135.0942  160.0291 H   0  0  0  0  0  0  0  0  0  0  0  0  # atno 6909 bound_to 6896
  145.1048  140.8575  143.3905 H   0  0  0  0  0  0  0  0  0  0  0  0  # atno 7974 bound_to 7965
  155.9163  140.1066  157.1241 H   0  0  0  0  0  0  0  0  0  0  0  0  # atno 8008 bound_to 7997
  154.4047  140.1264  156.4687 H   0  0  0  0  0  0  0  0  0  0  0  0  # atno 8009 bound_to 7997
  155.7249  140.3469  155.5035 H   0  0  0  0  0  0  0  0  0  0  0  0  # atno 8010 bound_to 7997
  140.4193  144.1482  150.6146 H   0  0  0  0  0  0  0  0  0  0  0  0  # atno 10167 bound_to 10162
  156.0192  130.5369  150.6950 H   0  0  0  0  0  0  0  0  0  0  0  0  # atno 10718 bound_to 10713
  154.4669  135.2769  155.1671 H   0  0  0  0  0  0  0  0  0  0  0  0  # atno 10763 bound_to 10752
  154.3436  135.6165  153.5612 H   0  0  0  0  0  0  0  0  0  0  0  0  # atno 10764 bound_to 10752
  152.9860  135.5794  154.5042 H   0  0  0  0  0  0  0  0  0  0  0  0  # atno 10765 bound_to 10752
  139.9938  134.6549  156.0044 H   0  0  0  0  0  0  0  0  0  0  0  0  # atno 11005 bound_to 11000
  145.0914  139.2887  143.5733 LP  0  0  0  0  0  0  0  0  0  0  0  0  # atno 17320 bound_to 7965
  146.3528  140.0452  142.8640 LP  0  0  0  0  0  0  0  0  0  0  0  0  # atno 17321 bound_to 7965
  140.4551  143.2471  151.9295 LP  0  0  0  0  0  0  0  0  0  0  0  0  # atno 17342 bound_to 10162
  139.4782  144.5523  151.8366 LP  0  0  0  0  0  0  0  0  0  0  0  0  # atno 17343 bound_to 10162
  157.4623  131.0884  151.0732 LP  0  0  0  0  0  0  0  0  0  0  0  0  # atno 17370 bound_to 10713
  157.1217  130.6064  149.5506 LP  0  0  0  0  0  0  0  0  0  0  0  0  # atno 17371 bound_to 10713
  141.1588  133.6540  156.4249 LP  0  0  0  0  0  0  0  0  0  0  0  0  # atno 17394 bound_to 11000
  140.4856  134.6623  157.5189 LP  0  0  0  0  0  0  0  0  0  0  0  0  # atno 17395 bound_to 11000

$$$$
