AV-unprocessed.smi:1200|AV-procd|sdf|5026|dock7
  -GOLD-   22720 4 43D 1   1.00000     0.00000
 Structure written by MMmdl.
 42 43  0  0  0  0  0  0  0  0  3 V2000
  150.5808  132.1936  155.8155 C   0  0  0  0  0  0  0  0  0  0  0  0
  149.9137  133.4721  156.0328 N   0  5  0  0  0  0  0  0  0  0  0  0
  149.2729  134.1601  155.0502 C   0  0  0  0  0  0  0  0  0  0  0  0
  149.0643  133.8699  153.8673 O   0  0  0  0  0  0  0  0  0  0  0  0
  148.7281  135.4940  155.5739 C   0  0  0  0  0  0  0  0  0  0  0  0
  149.3826  136.6241  154.8692 N   0  3  2  0  0  0  0  0  0  0  0  0
  150.8549  136.6308  155.0595 C   0  0  0  0  0  0  0  0  0  0  0  0
  151.5243  137.7172  154.1982 C   0  0  0  0  0  0  0  0  0  0  0  0
  150.9335  139.1130  154.4626 C   0  0  2  0  0  0  0  0  0  0  0  0
  151.3522  139.6079  155.7737 N   0  0  0  0  0  0  0  0  0  0  0  0
  151.3205  140.8903  156.1644 C   0  0  0  0  0  0  0  0  0  0  0  0
  150.9110  141.8058  155.4514 O   0  0  0  0  0  0  0  0  0  0  0  0
  151.7711  141.0249  157.4236 N   0  0  0  0  0  0  0  0  0  0  0  0
  151.9060  142.2103  158.1963 C   0  0  0  0  0  0  0  0  0  0  0  0
  152.4889  142.2626  159.4858 C   0  0  0  0  0  0  0  0  0  0  0  0
  152.5484  143.5001  160.1553 C   0  0  0  0  0  0  0  0  0  0  0  0
  152.0173  144.6374  159.5165 C   0  0  0  0  0  0  0  0  0  0  0  0
  151.4468  144.6000  158.2942 N   0  0  0  0  0  0  0  0  0  0  0  0
  151.3932  143.4101  157.6586 C   0  0  0  0  0  0  0  0  0  0  0  0
  149.3984  139.0622  154.3336 C   0  0  0  0  0  0  0  0  0  0  0  0
  148.7823  137.9458  155.1948 C   0  0  0  0  0  0  0  0  0  0  0  0
  151.0557  131.8246  156.7244 H   0  0  0  0  0  0  0  0  0  0  0  0
  151.3648  132.2550  155.0600 H   0  0  0  0  0  0  0  0  0  0  0  0
  149.8895  131.4154  155.4910 H   0  0  0  0  0  0  0  0  0  0  0  0
  147.6412  135.5720  155.4957 H   0  0  0  0  0  0  0  0  0  0  0  0
  148.9626  135.5317  156.6386 H   0  0  0  0  0  0  0  0  0  0  0  0
  151.0857  136.7833  156.1149 H   0  0  0  0  0  0  0  0  0  0  0  0
  151.2647  135.6584  154.7840 H   0  0  0  0  0  0  0  0  0  0  0  0
  152.6013  137.7221  154.3707 H   0  0  0  0  0  0  0  0  0  0  0  0
  151.3882  137.4668  153.1453 H   0  0  0  0  0  0  0  0  0  0  0  0
  151.3269  139.7927  153.7044 H   0  0  0  0  0  0  0  0  0  0  0  0
  151.7019  138.9238  156.4283 H   0  0  0  0  0  0  0  0  0  0  0  0
  151.9989  140.1684  157.9068 H   0  0  0  0  0  0  0  0  0  0  0  0
  152.8769  141.3856  159.9793 H   0  0  0  0  0  0  0  0  0  0  0  0
  152.9878  143.5745  161.1389 H   0  0  0  0  0  0  0  0  0  0  0  0
  152.0466  145.6012  160.0028 H   0  0  0  0  0  0  0  0  0  0  0  0
  150.9285  143.4183  156.6833 H   0  0  0  0  0  0  0  0  0  0  0  0
  148.9582  140.0245  154.5972 H   0  0  0  0  0  0  0  0  0  0  0  0
  149.1345  138.8886  153.2895 H   0  0  0  0  0  0  0  0  0  0  0  0
  147.7056  137.9232  155.0243 H   0  0  0  0  0  0  0  0  0  0  0  0
  148.9253  138.1619  156.2547 H   0  0  0  0  0  0  0  0  0  0  0  0
  149.2219  136.4615  153.8851 H   0  0  0  0  0  0  0  0  0  0  0  0
  1  2  1  0  0  0  0
  1 22  1  0  0  0  0
  1 23  1  0  0  0  0
  1 24  1  0  0  0  0
  2  3  1  0  0  0  0
  3  4  2  0  0  0  0
  3  5  1  0  0  0  0
  5  6  1  0  0  0  0
  5 25  1  0  0  0  0
  5 26  1  0  0  0  0
  6 21  1  0  0  0  0
  6  7  1  0  0  0  0
  6 42  1  0  0  0  0
  7  8  1  0  0  0  0
  7 27  1  0  0  0  0
  7 28  1  0  0  0  0
  8  9  1  0  0  0  0
  8 29  1  0  0  0  0
  8 30  1  0  0  0  0
  9 10  1  0  0  0  0
  9 20  1  0  0  0  0
  9 31  1  0  0  0  0
 10 11  1  0  0  0  0
 10 32  1  0  0  0  0
 11 12  2  0  0  0  0
 11 13  1  0  0  0  0
 13 14  1  0  0  0  0
 13 33  1  0  0  0  0
 14 19  1  0  0  0  0
 14 15  2  0  0  0  0
 15 16  1  0  0  0  0
 15 34  1  0  0  0  0
 16 17  2  0  0  0  0
 16 35  1  0  0  0  0
 17 18  1  0  0  0  0
 17 36  1  0  0  0  0
 18 19  2  0  0  0  0
 19 37  1  0  0  0  0
 20 21  1  0  0  0  0
 20 38  1  0  0  0  0
 20 39  1  0  0  0  0
 21 40  1  0  0  0  0
 21 41  1  0  0  0  0
M  CHG  1   2  -1
M  CHG  1   6   1
M  END
> <s_m_source_file>
AV-unprocessed.smi

> <i_m_source_file_index>
1200

> <i_lp_mmshare_version>
43012

> <i_f3d_flags>
0

> <s_epik_input>
W0NIM11bTkhdQyg9TylbQ0gyXU4xW0NIMl1bQ0gyXVtDSF0oW0NIMl1bQ0gyXTEpW05IXUMoPU8pW05IXWMyW2NIXVtjSF1bY0hdbltjSF0y

> <s_epik_cmdline>
J2VwaWtfcHl0aG9uJywgJy1waCcsICc3LjAnLCAnLXRuJywgJzgnLCAnLW1hJywgJzIwMCcsICctbWV0YWxfYmluZGluZycsICctaW1hZScsICc8aW5maWxlLm1hZT4nLCAnLW9tYWUnLCAnPG91dGZpbGUubWFlPic=

> <r_epik_Ionization_Penalty>
6.14345

> <r_epik_Ionization_Penalty_Charging>
6.13946

> <r_epik_Ionization_Penalty_Neutral>
0.00398477

> <r_epik_State_Penalty>
6.94483

> <r_epik_Charging_Adjusted_Penalty>
13.0843

> <i_epik_Tot_Q>
0

> <i_epik_Tot_abs_Q>
2

> <r_epik_Metal_State_Penalty>
2.87819

> <b_epik_Metal_Only>
1

> <s_lp_Force_Field>
OPLS_2005

> <r_lp_Energy>
15.1129

> <b_lp_Chiralities_Consistent>
1

> <s_lp_Variant>
AV-unprocessed.smi:1200-5

> <Gold.Version>
5.8.1

> <Gold.Id.Protein>
6NUR|6NUR_protein|mol2

> <Gold.PLP.Fitness>
44.3767

> <Gold.PLP.PLP>
-35.7592

> <Gold.PLP.part.hbond>
-1.9757

> <Gold.PLP.part.metal>
0.0000

> <Gold.PLP.part.buried>
-1.9184

> <Gold.PLP.part.nonpolar>
-31.0526

> <Gold.PLP.part.repulsive>
1.1700

> <Gold.PLP.ligand.clash>
0.0000

> <Gold.PLP.ligand.torsion>
0.2703

> <Gold.PLP.Chemscore.Hbond>
2.0406

> <Gold.PLP.Chemscore.CHOScore>
1.0000

> <Gold.PLP.Chemscore.Metal>
0.0000

> <Gold.Chemscore.Hbonds>
donor molecule, donor type, donor heavy atom, donor atom, acceptor molecule, acceptor atom, score
      L1  H     6    42       P1  7948  1.98
      P1  H  7989  7998       L1    12  0.11
      L1  C    19    37       P1  8028  0.79

> <Gold.PLP.Chemscore.Internal.Correction>
0.0363

> <Gold.Rescore>
     Score         DG    S(hbond)    S(metal)    S(lipo)     H(rot)  DE(clash)    DE(int)     intcor
     13.14     -15.08       0.88        0.00      92.54       1.63       0.32       1.61       ----

> <Gold.Chemscore.Fitness>
13.1440

> <Gold.Chemscore.DG>
-15.0795

> <Gold.Chemscore.ZeroCoef>
-5.4800

> <Gold.Chemscore.Hbond>
0.8836

> <Gold.Chemscore.Metal>
0.0000

> <Gold.Chemscore.Lipo>
92.5363

> <Gold.Chemscore.Internal_Hbond>
0.0000

> <Gold.Chemscore.DEClash>
0.3238

> <Gold.Chemscore.DEInternal>
1.6118

> <Gold.Chemscore.Rot>
1.6323

> <Gold.Chemscore.Internal.Correction>
   9.000000E+99

> <Gold.Chemscore.Hbonds>
donor molecule, donor type, donor heavy atom, donor atom, acceptor molecule, acceptor atom, score
      L1  H     6    42       P1  7948  0.88
      P1  H  7989  7998       L1    12  0.02

> <Gold.Chemscore.Hbond.Weighted>
-2.9514

> <Gold.Chemscore.Metal.Weighted>
-0.0000

> <Gold.Chemscore.Lipo.Weighted>
-10.8267

> <Gold.Chemscore.Internal_Hbond.Weighted>
0.0000

> <Gold.Chemscore.DEClash.Weighted>
0.3238

> <Gold.Chemscore.DEInternal.Weighted>
1.6118

> <Gold.Chemscore.Rot.Weighted>
4.1786

> <Gold.Chemscore.Internal.Correction.Weighted>
   9.000000E+99

> <Gold.Protein.RotatedTorsions>
[ 6907 6896 6895 6894 ] final -140.50 input  -60.11 | X-H torsion
[ 7974 7965 7964 7962 ] final -157.22 input  175.53 | X-H torsion
[ 8008 7997 7996 7995 ] final  145.62 input   59.86 | X-H torsion
[ 10167 10162 10161 10158 ] final  -20.37 input  -65.29 | X-H torsion
[ 10718 10713 10712 10709 ] final   56.55 input   66.30 | X-H torsion
[ 10763 10752 10751 10750 ] final  176.57 input  -60.55 | X-H torsion
[ 11005 11000 10999 10996 ] final    9.65 input  -57.11 | X-H torsion

> <Gold.Protein.ActiveResidues>
 VAL166  LYS551  ARG553  GLY616  TRP617  ASP618  TYR619  PRO620  LYS621  CYS622 
 ASP623  PHE694  ASN695  SER759  ASP760  ASP761  ALA762  ILE779  LEU786  VAL792 
 PHE793  MET794  SER795  GLU796  ALA797  LYS798  CYS799  TRP800  GLU811  SER814 

> <Gold.Protein.RotatedAtoms>
  151.0615  133.5540  159.2633 H   0  0  0  0  0  0  0  0  0  0  0  0  # atno 6907 bound_to 6896
  151.2514  135.0622  159.9073 H   0  0  0  0  0  0  0  0  0  0  0  0  # atno 6908 bound_to 6896
  152.5398  134.0374  159.8106 H   0  0  0  0  0  0  0  0  0  0  0  0  # atno 6909 bound_to 6896
  144.7558  140.3999  143.6013 H   0  0  0  0  0  0  0  0  0  0  0  0  # atno 7974 bound_to 7965
  156.2878  140.2204  156.5245 H   0  0  0  0  0  0  0  0  0  0  0  0  # atno 8008 bound_to 7997
  154.7500  140.0481  157.0907 H   0  0  0  0  0  0  0  0  0  0  0  0  # atno 8009 bound_to 7997
  155.0122  140.3114  155.4829 H   0  0  0  0  0  0  0  0  0  0  0  0  # atno 8010 bound_to 7997
  140.7275  143.4729  151.0222 H   0  0  0  0  0  0  0  0  0  0  0  0  # atno 10167 bound_to 10162
  157.5440  130.8718  149.8864 H   0  0  0  0  0  0  0  0  0  0  0  0  # atno 10718 bound_to 10713
  154.4829  135.2775  155.1556 H   0  0  0  0  0  0  0  0  0  0  0  0  # atno 10763 bound_to 10752
  154.3259  135.6200  153.5532 H   0  0  0  0  0  0  0  0  0  0  0  0  # atno 10764 bound_to 10752
  152.9877  135.5754  154.5234 H   0  0  0  0  0  0  0  0  0  0  0  0  # atno 10765 bound_to 10752
  140.5234  134.0537  155.7851 H   0  0  0  0  0  0  0  0  0  0  0  0  # atno 11005 bound_to 11000
  145.6785  139.1613  143.2714 LP  0  0  0  0  0  0  0  0  0  0  0  0  # atno 17320 bound_to 7965
  146.1566  140.6849  142.9297 LP  0  0  0  0  0  0  0  0  0  0  0  0  # atno 17321 bound_to 7965
  139.8422  143.7549  152.3180 LP  0  0  0  0  0  0  0  0  0  0  0  0  # atno 17342 bound_to 10162
  139.7701  144.7479  151.0236 LP  0  0  0  0  0  0  0  0  0  0  0  0  # atno 17343 bound_to 10162
  156.0520  130.3715  150.1178 LP  0  0  0  0  0  0  0  0  0  0  0  0  # atno 17370 bound_to 10713
  156.9356  130.9728  151.3525 LP  0  0  0  0  0  0  0  0  0  0  0  0  # atno 17371 bound_to 10713
  141.1322  133.9283  157.2512 LP  0  0  0  0  0  0  0  0  0  0  0  0  # atno 17394 bound_to 11000
  139.9593  135.0158  156.9217 LP  0  0  0  0  0  0  0  0  0  0  0  0  # atno 17395 bound_to 11000

$$$$
