AV-unprocessed.smi:72|AV-procd|sdf|747|dock4
  -GOLD-   2262017 83D 1   1.00000     0.00000
 Structure written by MMmdl.
 29 30  0  0  0  0  0  0  0  0  1 V2000
  152.6943  141.0857  159.2028 N   0  0  0  0  0  0  0  0  0  0  0  0
  151.9243  141.0463  158.0592 C   0  0  0  0  0  0  0  0  0  0  0  0
  150.7845  141.8622  158.0462 N   0  0  0  0  0  0  0  0  0  0  0  0
  150.0631  141.8335  156.9705 C   0  0  0  0  0  0  0  0  0  0  0  0
  150.4338  141.0058  155.8365 N   0  0  0  0  0  0  0  0  0  0  0  0
  149.5882  140.9524  154.5843 C   0  0  2  0  0  0  0  0  0  0  0  0
  148.6329  141.9701  154.6314 O   0  0  0  0  0  0  0  0  0  0  0  0
  147.3944  141.4796  154.1342 C   0  0  2  0  0  0  0  0  0  0  0  0
  146.2149  142.3415  154.6184 C   0  0  0  0  0  0  0  0  0  0  0  0
  145.0366  141.5661  154.6748 O   0  0  0  0  0  0  0  0  0  0  0  0
  147.3844  140.0182  154.6039 C   0  0  2  0  0  0  0  0  0  0  0  0
  146.9496  139.9134  155.9476 O   0  0  0  0  0  0  0  0  0  0  0  0
  148.8471  139.6069  154.4859 C   0  0  1  0  0  0  0  0  0  0  0  0
  149.0772  138.9894  153.2356 O   0  0  0  0  0  0  0  0  0  0  0  0
  151.5874  140.1808  155.9289 C   0  0  0  0  0  0  0  0  0  0  0  0
  151.8933  139.4361  154.9974 O   0  0  0  0  0  0  0  0  0  0  0  0
  152.3345  140.2535  157.1108 N   0  0  0  0  0  0  0  0  0  0  0  0
  150.2600  141.1501  153.7471 H   0  0  0  0  0  0  0  0  0  0  0  0
  147.4374  141.4823  153.0429 H   0  0  0  0  0  0  0  0  0  0  0  0
  146.7250  139.4016  153.9915 H   0  0  0  0  0  0  0  0  0  0  0  0
  149.1541  138.9204  155.2769 H   0  0  0  0  0  0  0  0  0  0  0  0
  153.5351  140.5407  159.3261 H   0  0  0  0  0  0  0  0  0  0  0  0
  152.4738  141.6618  160.0022 H   0  0  0  0  0  0  0  0  0  0  0  0
  149.1475  142.4141  156.8513 H   0  0  0  0  0  0  0  0  0  0  0  0
  146.4083  142.7097  155.6264 H   0  0  0  0  0  0  0  0  0  0  0  0
  146.0660  143.2101  153.9759 H   0  0  0  0  0  0  0  0  0  0  0  0
  144.7560  141.3798  153.7919 H   0  0  0  0  0  0  0  0  0  0  0  0
  147.4270  140.5412  156.4678 H   0  0  0  0  0  0  0  0  0  0  0  0
  149.2392  139.6644  152.5940 H   0  0  0  0  0  0  0  0  0  0  0  0
  1  2  1  0  0  0  0
  1 22  1  0  0  0  0
  1 23  1  0  0  0  0
  2 17  2  0  0  0  0
  2  3  1  0  0  0  0
  3  4  2  0  0  0  0
  4  5  1  0  0  0  0
  4 24  1  0  0  0  0
  5  6  1  0  0  0  0
  5 15  1  0  0  0  0
  6 18  1  0  0  0  0
  6 13  1  0  0  0  0
  6  7  1  0  0  0  0
  7  8  1  0  0  0  0
  8 19  1  0  0  0  0
  8  9  1  0  0  0  0
  8 11  1  0  0  0  0
  9 10  1  0  0  0  0
  9 25  1  0  0  0  0
  9 26  1  0  0  0  0
 10 27  1  0  0  0  0
 11 20  1  0  0  0  0
 11 12  1  0  0  0  0
 11 13  1  0  0  0  0
 12 28  1  0  0  0  0
 13 21  1  0  0  0  0
 13 14  1  0  0  0  0
 14 29  1  0  0  0  0
 15 16  2  0  0  0  0
 15 17  1  0  0  0  0
M  END
> <s_m_source_file>
AV-unprocessed.smi

> <i_m_source_file_index>
72

> <i_lp_mmshare_version>
43012

> <i_f3d_flags>
0

> <s_epik_input>
W05IMl1jMW5bY0hdbihjKD1PKW4xKVtDQEBIXTJPW0NASF0oW0NIMl1bT0hdKVtDQEBIXShbT0hdKVtDQEhdMltPSF0=

> <s_epik_cmdline>
J2VwaWtfcHl0aG9uJywgJy1waCcsICc3LjAnLCAnLXRuJywgJzgnLCAnLW1hJywgJzIwMCcsICctbWV0YWxfYmluZGluZycsICctaW1hZScsICc8aW5maWxlLm1hZT4nLCAnLW9tYWUnLCAnPG91dGZpbGUubWFlPic=

> <r_lp_tautomer_probability>
4.77166e-05

> <r_epik_Ionization_Penalty>
1.3546

> <r_epik_Ionization_Penalty_Charging>
1.46833e-10

> <r_epik_Ionization_Penalty_Neutral>
1.3546

> <r_epik_State_Penalty>
3.51908

> <r_epik_Charging_Adjusted_Penalty>
3.51908

> <i_epik_Tot_Q>
0

> <i_epik_Tot_abs_Q>
0

> <r_epik_Metal_State_Penalty>
3.44088

> <b_epik_Metal_Only>
1

> <s_epik_Chemistry_Notes>
This compound contains an acetal/aminal-like group ( X-CH(R)-Y where X, Y are N, S, or O) that may be acid/base labile, releasing an aldehyde.

> <s_lp_Force_Field>
OPLS_2005

> <r_lp_Energy>
27.1219

> <b_lp_Chiralities_Consistent>
1

> <s_lp_Variant>
AV-unprocessed.smi:72-85

> <Gold.Version>
5.8.1

> <Gold.Id.Protein>
6NUR|6NUR_protein|mol2

> <Gold.PLP.Fitness>
39.4683

> <Gold.PLP.PLP>
-26.4593

> <Gold.PLP.part.hbond>
-4.9366

> <Gold.PLP.part.metal>
0.0000

> <Gold.PLP.part.buried>
-3.4008

> <Gold.PLP.part.nonpolar>
-19.6927

> <Gold.PLP.part.repulsive>
1.6573

> <Gold.PLP.ligand.clash>
0.0000

> <Gold.PLP.ligand.torsion>
0.4993

> <Gold.PLP.Chemscore.Hbond>
3.7316

> <Gold.PLP.Chemscore.CHOScore>
0.9337

> <Gold.PLP.Chemscore.Metal>
0.0000

> <Gold.Chemscore.Hbonds>
donor molecule, donor type, donor heavy atom, donor atom, acceptor molecule, acceptor atom, score
      L1  H    10    27       P1 10175  1.00
      L1  H    14    29       P1  7957  0.95
      P1  H  7989  7998       L1    16  0.70
      P1  H  7997  8009       L1    17  0.84
      L1  C     4    24       P1  8028  0.77

> <Gold.PLP.Chemscore.Internal.Correction>
0.0118

> <Gold.Rescore>
     Score         DG    S(hbond)    S(metal)    S(lipo)     H(rot)  DE(clash)    DE(int)     intcor
      6.49      -7.35       2.99        0.00      19.39       4.06       0.00       0.85       ----

> <Gold.Chemscore.Fitness>
6.4895

> <Gold.Chemscore.DG>
-7.3481

> <Gold.Chemscore.ZeroCoef>
-5.4800

> <Gold.Chemscore.Hbond>
2.9918

> <Gold.Chemscore.Metal>
0.0000

> <Gold.Chemscore.Lipo>
19.3941

> <Gold.Chemscore.Internal_Hbond>
0.0000

> <Gold.Chemscore.DEClash>
0.0038

> <Gold.Chemscore.DEInternal>
0.8547

> <Gold.Chemscore.Rot>
4.0600

> <Gold.Chemscore.Internal.Correction>
   9.000000E+99

> <Gold.Chemscore.Hbonds>
donor molecule, donor type, donor heavy atom, donor atom, acceptor molecule, acceptor atom, score
      L1  H    10    27       P1 10175  0.29
      L1  H    14    29       P1  7957  0.85
      P1  H  7989  7998       L1    16  0.10
      P1  H  7997  8009       L1    17  0.51

> <Gold.Chemscore.Hbond.Weighted>
-9.9925

> <Gold.Chemscore.Metal.Weighted>
-0.0000

> <Gold.Chemscore.Lipo.Weighted>
-2.2691

> <Gold.Chemscore.Internal_Hbond.Weighted>
0.0000

> <Gold.Chemscore.DEClash.Weighted>
0.0038

> <Gold.Chemscore.DEInternal.Weighted>
0.8547

> <Gold.Chemscore.Rot.Weighted>
10.3936

> <Gold.Chemscore.Internal.Correction.Weighted>
   9.000000E+99

> <Gold.Protein.RotatedTorsions>
[ 6907 6896 6895 6894 ] final  136.12 input  -60.11 | X-H torsion
[ 7974 7965 7964 7962 ] final -153.31 input  175.53 | X-H torsion
[ 8008 7997 7996 7995 ] final -176.76 input   59.86 | X-H torsion
[ 10167 10162 10161 10158 ] final   74.34 input  -65.29 | X-H torsion
[ 10718 10713 10712 10709 ] final  -21.34 input   66.30 | X-H torsion
[ 10763 10752 10751 10750 ] final  109.72 input  -60.55 | X-H torsion
[ 11005 11000 10999 10996 ] final -167.36 input  -57.11 | X-H torsion

> <Gold.Protein.ActiveResidues>
 VAL166  LYS551  ARG553  GLY616  TRP617  ASP618  TYR619  PRO620  LYS621  CYS622 
 ASP623  PHE694  ASN695  SER759  ASP760  ASP761  ALA762  ILE779  LEU786  VAL792 
 PHE793  MET794  SER795  GLU796  ALA797  LYS798  CYS799  TRP800  GLU811  SER814 

> <Gold.Protein.RotatedAtoms>
  152.2929  133.5579  159.5568 H   0  0  0  0  0  0  0  0  0  0  0  0  # atno 6907 bound_to 6896
  150.7243  134.0403  159.3772 H   0  0  0  0  0  0  0  0  0  0  0  0  # atno 6908 bound_to 6896
  151.8307  135.0622  160.0487 H   0  0  0  0  0  0  0  0  0  0  0  0  # atno 6909 bound_to 6896
  144.7747  140.4543  143.5882 H   0  0  0  0  0  0  0  0  0  0  0  0  # atno 7974 bound_to 7965
  155.9987  140.1216  157.0568 H   0  0  0  0  0  0  0  0  0  0  0  0  # atno 8008 bound_to 7997
  154.4235  140.1111  156.5735 H   0  0  0  0  0  0  0  0  0  0  0  0  # atno 8009 bound_to 7997
  155.6242  140.3472  155.4664 H   0  0  0  0  0  0  0  0  0  0  0  0  # atno 8010 bound_to 7997
  140.0148  144.5586  150.7629 H   0  0  0  0  0  0  0  0  0  0  0  0  # atno 10167 bound_to 10162
  156.5195  130.4629  149.6604 H   0  0  0  0  0  0  0  0  0  0  0  0  # atno 10718 bound_to 10713
  153.4388  135.3771  155.2215 H   0  0  0  0  0  0  0  0  0  0  0  0  # atno 10763 bound_to 10752
  154.8753  135.3858  154.4178 H   0  0  0  0  0  0  0  0  0  0  0  0  # atno 10764 bound_to 10752
  153.4721  135.7087  153.6051 H   0  0  0  0  0  0  0  0  0  0  0  0  # atno 10765 bound_to 10752
  140.5541  134.5398  157.5129 H   0  0  0  0  0  0  0  0  0  0  0  0  # atno 11005 bound_to 11000
  145.6220  139.1525  143.3017 LP  0  0  0  0  0  0  0  0  0  0  0  0  # atno 17320 bound_to 7965
  146.1919  140.6329  142.9142 LP  0  0  0  0  0  0  0  0  0  0  0  0  # atno 17321 bound_to 7965
  140.7367  143.2756  151.3753 LP  0  0  0  0  0  0  0  0  0  0  0  0  # atno 17342 bound_to 10162
  139.6180  144.0964  152.2364 LP  0  0  0  0  0  0  0  0  0  0  0  0  # atno 17343 bound_to 10162
  156.3162  130.7256  151.2159 LP  0  0  0  0  0  0  0  0  0  0  0  0  # atno 17370 bound_to 10713
  157.7439  131.0468  150.4911 LP  0  0  0  0  0  0  0  0  0  0  0  0  # atno 17371 bound_to 10713
  139.9440  134.7735  156.0607 LP  0  0  0  0  0  0  0  0  0  0  0  0  # atno 17394 bound_to 11000
  141.1154  133.6629  156.3080 LP  0  0  0  0  0  0  0  0  0  0  0  0  # atno 17395 bound_to 11000

$$$$
