AV-unprocessed.smi:692|AV-procd|sdf|3368|dock7
  -GOLD-   22720 0343D 1   1.00000     0.00000
 Structure written by MMmdl.
 37 38  0  0  0  0  0  0  0  0  1 V2000
  144.1155  132.7423  149.5307 C   0  0  0  0  0  0  0  0  0  0  0  0
  143.6024  132.7121  150.9748 C   0  0  0  0  0  0  0  0  0  0  0  0
  143.8470  134.0040  151.6936 C   0  0  0  0  0  0  0  0  0  0  0  0
  142.9044  134.8075  152.2877 C   0  0  0  0  0  0  0  0  0  0  0  0
  143.6170  136.2170  153.0256 S   0  0  0  0  0  0  0  0  0  0  0  0
  145.1917  135.6542  152.4877 C   0  0  0  0  0  0  0  0  0  0  0  0
  146.3818  136.3777  152.7622 N   0  0  0  0  0  0  0  0  0  0  0  0
  146.5840  137.3199  153.7000 C   0  0  0  0  0  0  0  0  0  0  0  0
  145.7424  137.7126  154.5086 O   0  0  0  0  0  0  0  0  0  0  0  0
  147.8397  137.7881  153.6540 N   0  0  0  0  0  0  0  0  0  0  0  0
  148.3894  138.8088  154.5414 C   0  0  2  0  0  0  0  0  0  0  0  0
  147.9984  140.1997  154.0394 C   0  0  0  0  0  0  0  0  0  0  0  0
  148.5369  141.2804  154.9847 C   0  0  0  0  0  0  0  0  0  0  0  0
  150.0139  141.0897  155.3624 C   0  0  0  0  0  0  0  0  0  0  0  0
  150.6271  142.0587  155.8113 O   0  0  0  0  0  0  0  0  0  0  0  0
  150.5836  139.8682  155.2228 N   0  0  0  0  0  0  0  0  0  0  0  0
  151.9796  139.6564  155.6097 C   0  0  0  0  0  0  0  0  0  0  0  0
  149.9245  138.6977  154.6222 C   0  0  0  0  0  0  0  0  0  0  0  0
  145.1496  134.4987  151.8147 N   0  0  0  0  0  0  0  0  0  0  0  0
  143.9297  131.7904  149.0328 H   0  0  0  0  0  0  0  0  0  0  0  0
  145.1888  132.9320  149.4981 H   0  0  0  0  0  0  0  0  0  0  0  0
  143.6192  133.5224  148.9523 H   0  0  0  0  0  0  0  0  0  0  0  0
  142.5360  132.4835  150.9717 H   0  0  0  0  0  0  0  0  0  0  0  0
  144.0824  131.8910  151.5082 H   0  0  0  0  0  0  0  0  0  0  0  0
  141.8366  134.6538  152.3379 H   0  0  0  0  0  0  0  0  0  0  0  0
  147.1718  136.1497  152.1768 H   0  0  0  0  0  0  0  0  0  0  0  0
  148.4636  137.4087  152.9570 H   0  0  0  0  0  0  0  0  0  0  0  0
  147.9679  138.6790  155.5405 H   0  0  0  0  0  0  0  0  0  0  0  0
  148.3888  140.3612  153.0332 H   0  0  0  0  0  0  0  0  0  0  0  0
  146.9133  140.2845  153.9695 H   0  0  0  0  0  0  0  0  0  0  0  0
  148.4012  142.2657  154.5375 H   0  0  0  0  0  0  0  0  0  0  0  0
  147.9582  141.2762  155.9089 H   0  0  0  0  0  0  0  0  0  0  0  0
  152.1021  139.7911  156.6853 H   0  0  0  0  0  0  0  0  0  0  0  0
  152.6352  140.3639  155.0995 H   0  0  0  0  0  0  0  0  0  0  0  0
  152.3287  138.6536  155.3600 H   0  0  0  0  0  0  0  0  0  0  0  0
  150.1897  137.7986  155.1806 H   0  0  0  0  0  0  0  0  0  0  0  0
  150.3370  138.5737  153.6196 H   0  0  0  0  0  0  0  0  0  0  0  0
  1  2  1  0  0  0  0
  1 20  1  0  0  0  0
  1 21  1  0  0  0  0
  1 22  1  0  0  0  0
  2  3  1  0  0  0  0
  2 23  1  0  0  0  0
  2 24  1  0  0  0  0
  3 19  1  0  0  0  0
  3  4  2  0  0  0  0
  4  5  1  0  0  0  0
  4 25  1  0  0  0  0
  5  6  1  0  0  0  0
  6  7  1  0  0  0  0
  6 19  2  0  0  0  0
  7  8  1  0  0  0  0
  7 26  1  0  0  0  0
  8  9  2  0  0  0  0
  8 10  1  0  0  0  0
 10 11  1  0  0  0  0
 10 27  1  0  0  0  0
 11 18  1  0  0  0  0
 11 12  1  0  0  0  0
 11 28  1  0  0  0  0
 12 13  1  0  0  0  0
 12 29  1  0  0  0  0
 12 30  1  0  0  0  0
 13 14  1  0  0  0  0
 13 31  1  0  0  0  0
 13 32  1  0  0  0  0
 14 15  2  0  0  0  0
 14 16  1  0  0  0  0
 16 17  1  0  0  0  0
 16 18  1  0  0  0  0
 17 33  1  0  0  0  0
 17 34  1  0  0  0  0
 17 35  1  0  0  0  0
 18 36  1  0  0  0  0
 18 37  1  0  0  0  0
M  END
> <s_m_source_file>
AV-unprocessed.smi

> <i_m_source_file_index>
692

> <i_lp_mmshare_version>
43012

> <i_f3d_flags>
0

> <s_epik_input>
W0NIM11bQ0gyXWMxW2NIXXNjKG4xKVtOSF1DKD1PKVtOSF1bQ0BASF0yW0NIMl1bQ0gyXUMoPU8pTihbQ0gzXSlbQ0gyXTI=

> <s_epik_cmdline>
J2VwaWtfcHl0aG9uJywgJy1waCcsICc3LjAnLCAnLXRuJywgJzgnLCAnLW1hJywgJzIwMCcsICctbWV0YWxfYmluZGluZycsICctaW1hZScsICc8aW5maWxlLm1hZT4nLCAnLW9tYWUnLCAnPG91dGZpbGUubWFlPic=

> <r_lp_tautomer_probability>
1

> <r_epik_Ionization_Penalty>
0.000165573

> <r_epik_Ionization_Penalty_Charging>
0

> <r_epik_Ionization_Penalty_Neutral>
0.000165573

> <r_epik_State_Penalty>
-0

> <r_epik_Charging_Adjusted_Penalty>
0

> <i_epik_Tot_Q>
0

> <i_epik_Tot_abs_Q>
0

> <r_epik_Metal_State_Penalty>
0.031163

> <b_epik_Metal_Only>
0

> <s_lp_Force_Field>
OPLS_2005

> <r_lp_Energy>
8.08929

> <b_lp_Chiralities_Consistent>
1

> <s_lp_Variant>
AV-unprocessed.smi:692-1

> <Gold.Version>
5.8.1

> <Gold.Id.Protein>
6NUR|6NUR_protein|mol2

> <Gold.PLP.Fitness>
36.8689

> <Gold.PLP.PLP>
-31.6908

> <Gold.PLP.part.hbond>
-2.1915

> <Gold.PLP.part.metal>
0.0000

> <Gold.PLP.part.buried>
-2.7870

> <Gold.PLP.part.nonpolar>
-27.0422

> <Gold.PLP.part.repulsive>
0.3328

> <Gold.PLP.ligand.clash>
0.0000

> <Gold.PLP.ligand.torsion>
0.4116

> <Gold.PLP.Chemscore.Hbond>
2.0000

> <Gold.PLP.Chemscore.CHOScore>
0.0000

> <Gold.PLP.Chemscore.Metal>
0.0000

> <Gold.Chemscore.Hbonds>
donor molecule, donor type, donor heavy atom, donor atom, acceptor molecule, acceptor atom, score
      L1  H     7    26       P1  7948  1.00
      L1  H    10    27       P1  7948  1.00

> <Gold.PLP.Chemscore.Internal.Correction>
0.0014

> <Gold.Rescore>
     Score         DG    S(hbond)    S(metal)    S(lipo)     H(rot)  DE(clash)    DE(int)     intcor
     15.51     -15.98       1.95        0.00      61.03       1.24       0.01       0.46       ----

> <Gold.Chemscore.Fitness>
15.5148

> <Gold.Chemscore.DG>
-15.9768

> <Gold.Chemscore.ZeroCoef>
-5.4800

> <Gold.Chemscore.Hbond>
1.9543

> <Gold.Chemscore.Metal>
0.0000

> <Gold.Chemscore.Lipo>
61.0281

> <Gold.Chemscore.Internal_Hbond>
0.0000

> <Gold.Chemscore.DEClash>
0.0057

> <Gold.Chemscore.DEInternal>
0.4563

> <Gold.Chemscore.Rot>
1.2386

> <Gold.Chemscore.Internal.Correction>
   9.000000E+99

> <Gold.Chemscore.Hbonds>
donor molecule, donor type, donor heavy atom, donor atom, acceptor molecule, acceptor atom, score
      L1  H     7    26       P1  7948  0.95
      L1  H    10    27       P1  7948  0.98

> <Gold.Chemscore.Hbond.Weighted>
-6.5273

> <Gold.Chemscore.Metal.Weighted>
-0.0000

> <Gold.Chemscore.Lipo.Weighted>
-7.1403

> <Gold.Chemscore.Internal_Hbond.Weighted>
0.0000

> <Gold.Chemscore.DEClash.Weighted>
0.0057

> <Gold.Chemscore.DEInternal.Weighted>
0.4563

> <Gold.Chemscore.Rot.Weighted>
3.1708

> <Gold.Chemscore.Internal.Correction.Weighted>
   9.000000E+99

> <Gold.Protein.RotatedTorsions>
[ 6907 6896 6895 6894 ] final  -81.70 input  -60.11 | X-H torsion
[ 7974 7965 7964 7962 ] final  127.88 input  175.53 | X-H torsion
[ 8008 7997 7996 7995 ] final  115.80 input   59.86 | X-H torsion
[ 10167 10162 10161 10158 ] final -142.85 input  -65.29 | X-H torsion
[ 10718 10713 10712 10709 ] final  142.80 input   66.30 | X-H torsion
[ 10763 10752 10751 10750 ] final   -3.82 input  -60.55 | X-H torsion
[ 11005 11000 10999 10996 ] final  117.30 input  -57.11 | X-H torsion

> <Gold.Protein.ActiveResidues>
 VAL166  LYS551  ARG553  GLY616  TRP617  ASP618  TYR619  PRO620  LYS621  CYS622 
 ASP623  PHE694  ASN695  SER759  ASP760  ASP761  ALA762  ILE779  LEU786  VAL792 
 PHE793  MET794  SER795  GLU796  ALA797  LYS798  CYS799  TRP800  GLU811  SER814 

> <Gold.Protein.RotatedAtoms>
  150.6908  134.3777  159.5019 H   0  0  0  0  0  0  0  0  0  0  0  0  # atno 6907 bound_to 6896
  152.1584  134.8929  160.0552 H   0  0  0  0  0  0  0  0  0  0  0  0  # atno 6908 bound_to 6896
  152.0001  133.3787  159.4215 H   0  0  0  0  0  0  0  0  0  0  0  0  # atno 6909 bound_to 6896
  145.0456  139.3926  143.5080 H   0  0  0  0  0  0  0  0  0  0  0  0  # atno 7974 bound_to 7965
  156.2403  140.2931  156.0425 H   0  0  0  0  0  0  0  0  0  0  0  0  # atno 8008 bound_to 7997
  155.1971  140.0408  157.2928 H   0  0  0  0  0  0  0  0  0  0  0  0  # atno 8009 bound_to 7997
  154.6155  140.2462  155.7622 H   0  0  0  0  0  0  0  0  0  0  0  0  # atno 8010 bound_to 7997
  139.8049  143.7782  152.2660 H   0  0  0  0  0  0  0  0  0  0  0  0  # atno 10167 bound_to 10162
  157.3764  131.0986  151.0780 H   0  0  0  0  0  0  0  0  0  0  0  0  # atno 10718 bound_to 10713
  153.3765  135.6996  153.6598 H   0  0  0  0  0  0  0  0  0  0  0  0  # atno 10763 bound_to 10752
  153.5227  135.3608  155.2640 H   0  0  0  0  0  0  0  0  0  0  0  0  # atno 10764 bound_to 10752
  154.8687  135.4161  154.3054 H   0  0  0  0  0  0  0  0  0  0  0  0  # atno 10765 bound_to 10752
  139.9070  134.9608  156.7330 H   0  0  0  0  0  0  0  0  0  0  0  0  # atno 11005 bound_to 11000
  146.3513  140.0080  142.8670 LP  0  0  0  0  0  0  0  0  0  0  0  0  # atno 17320 bound_to 7965
  145.1592  140.9664  143.4387 LP  0  0  0  0  0  0  0  0  0  0  0  0  # atno 17321 bound_to 7965
  139.7913  144.7409  150.9951 LP  0  0  0  0  0  0  0  0  0  0  0  0  # atno 17342 bound_to 10162
  140.7819  143.4439  151.0511 LP  0  0  0  0  0  0  0  0  0  0  0  0  # atno 17343 bound_to 10162
  157.1865  130.6333  149.5689 LP  0  0  0  0  0  0  0  0  0  0  0  0  # atno 17370 bound_to 10713
  155.9766  130.4736  150.6540 LP  0  0  0  0  0  0  0  0  0  0  0  0  # atno 17371 bound_to 10713
  140.6910  133.9390  155.7966 LP  0  0  0  0  0  0  0  0  0  0  0  0  # atno 17394 bound_to 11000
  141.0441  134.0579  157.3865 LP  0  0  0  0  0  0  0  0  0  0  0  0  # atno 17395 bound_to 11000

$$$$
