AV-unprocessed.smi:273|AV-procd|sdf|2057|dock6
  -GOLD-   2262021303D 1   1.00000     0.00000
 Structure written by MMmdl.
 59 62  0  0  0  0  0  0  0  0  1 V2000
  147.8531  133.4760  159.7406 C   0  0  0  0  0  0  0  0  0  0  0  0
  147.6877  134.5527  158.6602 C   0  0  0  0  0  0  0  0  0  0  0  0
  148.5976  134.3307  157.5426 N   0  0  0  0  0  0  0  0  0  0  0  0
  148.7607  133.1650  156.8976 C   0  0  0  0  0  0  0  0  0  0  0  0
  148.1528  132.1406  157.2078 O   0  0  0  0  0  0  0  0  0  0  0  0
  149.7591  133.1703  155.7246 C   0  0  0  0  0  0  0  0  0  0  0  0
  151.1991  133.5089  156.1713 C   0  0  0  0  0  0  0  0  0  0  0  0
  151.4081  135.0082  156.4553 C   0  0  0  0  0  0  0  0  0  0  0  0
  150.9708  135.8223  155.3220 N   0  0  0  0  0  0  0  0  0  0  0  0
  151.4282  137.1010  155.3351 C   0  0  0  0  0  0  0  0  0  0  0  0
  152.3973  137.4842  154.4605 N   0  0  0  0  0  0  0  0  0  0  0  0
  152.8493  138.7415  154.4588 C   0  0  0  0  0  0  0  0  0  0  0  0
  152.4799  139.7618  155.2349 N   0  0  0  0  0  0  0  0  0  0  0  0
  151.5118  139.3846  156.1176 C   0  0  0  0  0  0  0  0  0  0  0  0
  150.9365  138.0875  156.2369 C   0  0  0  0  0  0  0  0  0  0  0  0
  149.9958  138.0824  157.2609 N   0  0  0  0  0  0  0  0  0  0  0  0
  150.0065  139.3068  157.7124 C   0  0  0  0  0  0  0  0  0  0  0  0
  150.8812  140.1580  157.0760 N   0  0  0  0  0  0  0  0  0  0  0  0
  151.1034  141.5631  157.3738 C   0  0  0  0  0  0  0  0  0  0  0  0
  151.7733  141.8101  158.7506 C   0  0  1  0  0  0  0  0  0  0  0  0
  153.1513  141.1044  158.8387 C   0  0  0  0  0  0  0  0  0  0  0  0
  153.0238  139.6982  158.8428 O   0  0  0  0  0  0  0  0  0  0  0  0
  151.8731  143.3342  159.0370 C   0  0  1  0  0  0  0  0  0  0  0  0
  150.5388  144.0452  159.1945 C   0  0  0  0  0  0  0  0  0  0  0  0
  150.9366  145.3438  159.8871 C   0  0  0  0  0  0  0  0  0  0  0  0
  152.0615  145.0190  160.6945 O   0  0  0  0  0  0  0  0  0  0  0  0
  152.5350  143.7170  160.3662 C   0  0  0  0  0  0  0  0  0  0  0  0
  149.5875  135.6028  154.8960 C   0  0  0  0  0  0  0  0  0  0  0  0
  149.3339  134.1169  154.5796 C   0  0  0  0  0  0  0  0  0  0  0  0
  147.1476  133.6339  160.5564 H   0  0  0  0  0  0  0  0  0  0  0  0
  148.8573  133.4894  160.1650 H   0  0  0  0  0  0  0  0  0  0  0  0
  147.6736  132.4802  159.3345 H   0  0  0  0  0  0  0  0  0  0  0  0
  146.6672  134.5349  158.2773 H   0  0  0  0  0  0  0  0  0  0  0  0
  147.8418  135.5456  159.0858 H   0  0  0  0  0  0  0  0  0  0  0  0
  149.1353  135.1252  157.2275 H   0  0  0  0  0  0  0  0  0  0  0  0
  149.7749  132.1575  155.3182 H   0  0  0  0  0  0  0  0  0  0  0  0
  151.4706  132.9273  157.0534 H   0  0  0  0  0  0  0  0  0  0  0  0
  151.8917  133.2011  155.3870 H   0  0  0  0  0  0  0  0  0  0  0  0
  150.8508  135.3112  157.3418 H   0  0  0  0  0  0  0  0  0  0  0  0
  152.4589  135.1794  156.6858 H   0  0  0  0  0  0  0  0  0  0  0  0
  153.6154  138.9615  153.7300 H   0  0  0  0  0  0  0  0  0  0  0  0
  149.3690  139.6249  158.5244 H   0  0  0  0  0  0  0  0  0  0  0  0
  151.7132  141.9942  156.5790 H   0  0  0  0  0  0  0  0  0  0  0  0
  150.1324  142.0550  157.3210 H   0  0  0  0  0  0  0  0  0  0  0  0
  151.1237  141.3666  159.5069 H   0  0  0  0  0  0  0  0  0  0  0  0
  153.7812  141.3448  157.9834 H   0  0  0  0  0  0  0  0  0  0  0  0
  153.6946  141.4253  159.7280 H   0  0  0  0  0  0  0  0  0  0  0  0
  152.9556  139.3990  157.9490 H   0  0  0  0  0  0  0  0  0  0  0  0
  152.4224  143.8167  158.2267 H   0  0  0  0  0  0  0  0  0  0  0  0
  150.0290  144.2260  158.2480 H   0  0  0  0  0  0  0  0  0  0  0  0
  149.8730  143.4670  159.8371 H   0  0  0  0  0  0  0  0  0  0  0  0
  151.2422  146.0890  159.1516 H   0  0  0  0  0  0  0  0  0  0  0  0
  150.1255  145.7657  160.4812 H   0  0  0  0  0  0  0  0  0  0  0  0
  152.2297  143.0352  161.1611 H   0  0  0  0  0  0  0  0  0  0  0  0
  153.6236  143.7062  160.3100 H   0  0  0  0  0  0  0  0  0  0  0  0
  148.9081  135.9495  155.6749 H   0  0  0  0  0  0  0  0  0  0  0  0
  149.3759  136.1962  154.0054 H   0  0  0  0  0  0  0  0  0  0  0  0
  149.8906  133.8505  153.6804 H   0  0  0  0  0  0  0  0  0  0  0  0
  148.2820  133.9683  154.3327 H   0  0  0  0  0  0  0  0  0  0  0  0
  1  2  1  0  0  0  0
  1 30  1  0  0  0  0
  1 31  1  0  0  0  0
  1 32  1  0  0  0  0
  2  3  1  0  0  0  0
  2 33  1  0  0  0  0
  2 34  1  0  0  0  0
  3  4  1  0  0  0  0
  3 35  1  0  0  0  0
  4  5  2  0  0  0  0
  4  6  1  0  0  0  0
  6 29  1  0  0  0  0
  6  7  1  0  0  0  0
  6 36  1  0  0  0  0
  7  8  1  0  0  0  0
  7 37  1  0  0  0  0
  7 38  1  0  0  0  0
  8  9  1  0  0  0  0
  8 39  1  0  0  0  0
  8 40  1  0  0  0  0
  9 10  1  0  0  0  0
  9 28  1  0  0  0  0
 10 15  1  0  0  0  0
 10 11  2  0  0  0  0
 11 12  1  0  0  0  0
 12 13  2  0  0  0  0
 12 41  1  0  0  0  0
 13 14  1  0  0  0  0
 14 18  1  0  0  0  0
 14 15  2  0  0  0  0
 15 16  1  0  0  0  0
 16 17  2  0  0  0  0
 17 18  1  0  0  0  0
 17 42  1  0  0  0  0
 18 19  1  0  0  0  0
 19 20  1  0  0  0  0
 19 43  1  0  0  0  0
 19 44  1  0  0  0  0
 20 21  1  0  0  0  0
 20 23  1  0  0  0  0
 20 45  1  0  0  0  0
 21 22  1  0  0  0  0
 21 46  1  0  0  0  0
 21 47  1  0  0  0  0
 22 48  1  0  0  0  0
 23 27  1  0  0  0  0
 23 24  1  0  0  0  0
 23 49  1  0  0  0  0
 24 25  1  0  0  0  0
 24 50  1  0  0  0  0
 24 51  1  0  0  0  0
 25 26  1  0  0  0  0
 25 52  1  0  0  0  0
 25 53  1  0  0  0  0
 26 27  1  0  0  0  0
 27 54  1  0  0  0  0
 27 55  1  0  0  0  0
 28 29  1  0  0  0  0
 28 56  1  0  0  0  0
 28 57  1  0  0  0  0
 29 58  1  0  0  0  0
 29 59  1  0  0  0  0
M  END
> <s_m_source_file>
AV-unprocessed.smi

> <i_m_source_file_index>
273

> <i_lp_mmshare_version>
43012

> <i_f3d_flags>
0

> <s_epik_input>
W0NIM11bQ0gyXVtOSF1DKD1PKVtDSF0xW0NIMl1bQ0gyXU4oW0NIMl1bQ0gyXTEpYyhuW2NIXW4yKWMoYzIzKW5bY0hdbjNbQ0gyXVtDQEhdKFtDSDJdW09IXSlbQ0BASF00W0NIMl1bQ0gyXU9bQ0gyXTQ=

> <s_epik_cmdline>
J2VwaWtfcHl0aG9uJywgJy1waCcsICc3LjAnLCAnLXRuJywgJzgnLCAnLW1hJywgJzIwMCcsICctbWV0YWxfYmluZGluZycsICctaW1hZScsICc8aW5maWxlLm1hZT4nLCAnLW9tYWUnLCAnPG91dGZpbGUubWFlPic=

> <r_lp_tautomer_probability>
1

> <r_epik_Ionization_Penalty>
0.00226556

> <r_epik_Ionization_Penalty_Charging>
0

> <r_epik_Ionization_Penalty_Neutral>
0.00226556

> <r_epik_State_Penalty>
0.00139883

> <r_epik_Charging_Adjusted_Penalty>
0.00139883

> <i_epik_Tot_Q>
0

> <i_epik_Tot_abs_Q>
0

> <r_epik_Metal_State_Penalty>
-0

> <b_epik_Metal_Only>
0

> <s_lp_Force_Field>
OPLS_2005

> <r_lp_Energy>
41.2023

> <b_lp_Chiralities_Consistent>
1

> <s_lp_Variant>
AV-unprocessed.smi:273-4

> <Gold.Version>
5.8.1

> <Gold.Id.Protein>
6NUR|6NUR_protein|mol2

> <Gold.PLP.Fitness>
45.7036

> <Gold.PLP.PLP>
-41.1405

> <Gold.PLP.part.hbond>
-3.7993

> <Gold.PLP.part.metal>
0.0000

> <Gold.PLP.part.buried>
-5.3837

> <Gold.PLP.part.nonpolar>
-32.6023

> <Gold.PLP.part.repulsive>
0.4499

> <Gold.PLP.ligand.clash>
0.0000

> <Gold.PLP.ligand.torsion>
0.4125

> <Gold.PLP.Chemscore.Hbond>
1.5968

> <Gold.PLP.Chemscore.CHOScore>
0.0000

> <Gold.PLP.Chemscore.Metal>
0.0000

> <Gold.Chemscore.Hbonds>
donor molecule, donor type, donor heavy atom, donor atom, acceptor molecule, acceptor atom, score
      P1  H  7989  7998       L1    13  0.21
      P1  H  7997  8008       L1    13  0.69
      P1  H 10752 10765       L1    11  0.58

> <Gold.PLP.Chemscore.Internal.Correction>
0.5978

> <Gold.Rescore>
     Score         DG    S(hbond)    S(metal)    S(lipo)     H(rot)  DE(clash)    DE(int)     intcor
      7.99     -12.02       1.00        0.00      97.88       3.22       0.38       3.65       ----

> <Gold.Chemscore.Fitness>
7.9929

> <Gold.Chemscore.DG>
-12.0228

> <Gold.Chemscore.ZeroCoef>
-5.4800

> <Gold.Chemscore.Hbond>
1.0015

> <Gold.Chemscore.Metal>
0.0000

> <Gold.Chemscore.Lipo>
97.8824

> <Gold.Chemscore.Internal_Hbond>
0.0000

> <Gold.Chemscore.DEClash>
0.3813

> <Gold.Chemscore.DEInternal>
3.6487

> <Gold.Chemscore.Rot>
3.2244

> <Gold.Chemscore.Internal.Correction>
   9.000000E+99

> <Gold.Chemscore.Hbonds>
donor molecule, donor type, donor heavy atom, donor atom, acceptor molecule, acceptor atom, score
      P1  H  7989  7998       L1    13  0.01
      P1  H  7997  8008       L1    13  0.13
      P1  H 10752 10765       L1    11  0.13

> <Gold.Chemscore.Hbond.Weighted>
-3.3451

> <Gold.Chemscore.Metal.Weighted>
-0.0000

> <Gold.Chemscore.Lipo.Weighted>
-11.4522

> <Gold.Chemscore.Internal_Hbond.Weighted>
0.0000

> <Gold.Chemscore.DEClash.Weighted>
0.3813

> <Gold.Chemscore.DEInternal.Weighted>
3.6487

> <Gold.Chemscore.Rot.Weighted>
8.2545

> <Gold.Chemscore.Internal.Correction.Weighted>
   9.000000E+99

> <Gold.Protein.RotatedTorsions>
[ 6907 6896 6895 6894 ] final  116.06 input  -60.11 | X-H torsion
[ 7974 7965 7964 7962 ] final  -38.17 input  175.53 | X-H torsion
[ 8008 7997 7996 7995 ] final  -36.23 input   59.86 | X-H torsion
[ 10167 10162 10161 10158 ] final  -41.39 input  -65.29 | X-H torsion
[ 10718 10713 10712 10709 ] final  -87.03 input   66.30 | X-H torsion
[ 10763 10752 10751 10750 ] final  141.97 input  -60.55 | X-H torsion
[ 11005 11000 10999 10996 ] final   31.45 input  -57.11 | X-H torsion

> <Gold.Protein.ActiveResidues>
 VAL166  LYS551  ARG553  GLY616  TRP617  ASP618  TYR619  PRO620  LYS621  CYS622 
 ASP623  PHE694  ASN695  SER759  ASP760  ASP761  ALA762  ILE779  LEU786  VAL792 
 PHE793  MET794  SER795  GLU796  ALA797  LYS798  CYS799  TRP800  GLU811  SER814 

> <Gold.Protein.RotatedAtoms>
  152.4702  133.8013  159.6954 H   0  0  0  0  0  0  0  0  0  0  0  0  # atno 6907 bound_to 6896
  150.8688  133.7526  159.2974 H   0  0  0  0  0  0  0  0  0  0  0  0  # atno 6908 bound_to 6896
  151.5068  135.1067  159.9895 H   0  0  0  0  0  0  0  0  0  0  0  0  # atno 6909 bound_to 6896
  146.0510  140.6480  142.9042 H   0  0  0  0  0  0  0  0  0  0  0  0  # atno 7974 bound_to 7965
  154.4077  140.1636  156.2341 H   0  0  0  0  0  0  0  0  0  0  0  0  # atno 8008 bound_to 7997
  155.9257  140.3418  155.6186 H   0  0  0  0  0  0  0  0  0  0  0  0  # atno 8009 bound_to 7997
  155.7167  140.0763  157.2339 H   0  0  0  0  0  0  0  0  0  0  0  0  # atno 8010 bound_to 7997
  140.7004  143.3098  151.3059 H   0  0  0  0  0  0  0  0  0  0  0  0  # atno 10167 bound_to 10162
  155.9987  130.4786  150.4805 H   0  0  0  0  0  0  0  0  0  0  0  0  # atno 10718 bound_to 10713
  153.9480  135.2973  155.3440 H   0  0  0  0  0  0  0  0  0  0  0  0  # atno 10763 bound_to 10752
  154.7442  135.5011  153.9177 H   0  0  0  0  0  0  0  0  0  0  0  0  # atno 10764 bound_to 10752
  153.1008  135.6734  153.9783 H   0  0  0  0  0  0  0  0  0  0  0  0  # atno 10765 bound_to 10752
  140.2838  134.2942  155.7793 H   0  0  0  0  0  0  0  0  0  0  0  0  # atno 11005 bound_to 11000
  144.7123  140.4083  143.7071 LP  0  0  0  0  0  0  0  0  0  0  0  0  # atno 17320 bound_to 7965
  145.6723  139.1602  143.2747 LP  0  0  0  0  0  0  0  0  0  0  0  0  # atno 17321 bound_to 7965
  139.6516  144.0352  152.2630 LP  0  0  0  0  0  0  0  0  0  0  0  0  # atno 17342 bound_to 10162
  139.9890  144.6375  150.7831 LP  0  0  0  0  0  0  0  0  0  0  0  0  # atno 17343 bound_to 10162
  157.2811  131.0607  151.2197 LP  0  0  0  0  0  0  0  0  0  0  0  0  # atno 17370 bound_to 10713
  157.3243  130.6953  149.6287 LP  0  0  0  0  0  0  0  0  0  0  0  0  # atno 17371 bound_to 10713
  141.2158  133.7542  156.9521 LP  0  0  0  0  0  0  0  0  0  0  0  0  # atno 17394 bound_to 11000
  140.1259  134.9387  157.2268 LP  0  0  0  0  0  0  0  0  0  0  0  0  # atno 17395 bound_to 11000

$$$$
