AV-unprocessed.smi:1134|AV-procd|sdf|4857|dock6
  -GOLD-   22720 3423D 1   1.00000     0.00000
 Structure written by MMmdl.
 35 36  0  0  0  0  0  0  0  0  3 V2000
  149.8516  136.4928  158.7306 O   0  0  0  0  0  0  0  0  0  0  0  0
  148.7831  137.0858  158.8733 C   0  0  0  0  0  0  0  0  0  0  0  0
  148.2914  138.0140  157.7487 C   0  0  0  0  0  0  0  0  0  0  0  0
  149.3165  138.9136  157.1885 N   0  0  0  0  0  0  0  0  0  0  0  0
  150.3824  138.3084  156.4940 C   0  0  0  0  0  0  0  0  0  0  0  0
  151.3747  139.0292  155.9362 C   0  0  0  0  0  0  0  0  0  0  0  0
  152.4569  138.3907  155.2200 N   0  3  0  0  0  0  0  0  0  0  0  0
  152.2784  137.2652  154.7660 O   0  0  0  0  0  0  0  0  0  0  0  0
  153.5194  138.9910  155.0881 O   0  5  0  0  0  0  0  0  0  0  0  0
  151.3191  140.4717  156.0733 C   0  0  0  0  0  0  0  0  0  0  0  0
  150.3001  141.0570  156.7329 C   0  0  0  0  0  0  0  0  0  0  0  0
  149.2175  140.2706  157.3332 C   0  0  0  0  0  0  0  0  0  0  0  0
  148.2764  140.7999  157.9238 O   0  0  0  0  0  0  0  0  0  0  0  0
  148.0205  136.9519  159.9719 N   0  0  0  0  0  0  0  0  0  0  0  0
  148.3361  136.1077  161.1162 C   0  0  0  0  0  0  0  0  0  0  0  0
  147.7384  136.6784  162.4149 C   0  0  0  0  0  0  0  0  0  0  0  0
  146.2848  136.4797  162.4645 N   0  0  0  0  0  0  0  0  0  0  0  0
  145.7181  135.2805  162.7308 C   0  0  0  0  0  0  0  0  0  0  0  0
  146.3413  134.2445  162.9615 O   0  0  0  0  0  0  0  0  0  0  0  0
  144.1845  135.2874  162.7193 C   0  0  0  0  0  0  0  0  0  0  0  0
  143.7337  136.9765  162.3128 S   0  0  0  0  0  0  0  0  0  0  0  0
  145.4043  137.4638  162.2156 C   0  0  0  0  0  0  0  0  0  0  0  0
  145.7102  138.6220  161.9334 O   0  0  0  0  0  0  0  0  0  0  0  0
  147.8531  137.3975  156.9619 H   0  0  0  0  0  0  0  0  0  0  0  0
  147.4573  138.5999  158.1378 H   0  0  0  0  0  0  0  0  0  0  0  0
  150.3279  137.2303  156.4432 H   0  0  0  0  0  0  0  0  0  0  0  0
  152.0931  141.0932  155.6476 H   0  0  0  0  0  0  0  0  0  0  0  0
  150.2784  142.1333  156.8225 H   0  0  0  0  0  0  0  0  0  0  0  0
  147.1564  137.4722  160.0161 H   0  0  0  0  0  0  0  0  0  0  0  0
  147.9837  135.0895  160.9424 H   0  0  0  0  0  0  0  0  0  0  0  0
  149.4219  136.0502  161.1978 H   0  0  0  0  0  0  0  0  0  0  0  0
  148.2113  136.2076  163.2788 H   0  0  0  0  0  0  0  0  0  0  0  0
  147.9761  137.7400  162.5030 H   0  0  0  0  0  0  0  0  0  0  0  0
  143.8003  134.5964  161.9688 H   0  0  0  0  0  0  0  0  0  0  0  0
  143.7898  135.0094  163.6966 H   0  0  0  0  0  0  0  0  0  0  0  0
  1  2  2  0  0  0  0
  2  3  1  0  0  0  0
  2 14  1  0  0  0  0
  3  4  1  0  0  0  0
  3 24  1  0  0  0  0
  3 25  1  0  0  0  0
  4 12  1  0  0  0  0
  4  5  1  0  0  0  0
  5  6  2  0  0  0  0
  5 26  1  0  0  0  0
  6  7  1  0  0  0  0
  6 10  1  0  0  0  0
  7  8  2  0  0  0  0
  7  9  1  0  0  0  0
 10 11  2  0  0  0  0
 10 27  1  0  0  0  0
 11 12  1  0  0  0  0
 11 28  1  0  0  0  0
 12 13  2  0  0  0  0
 14 15  1  0  0  0  0
 14 29  1  0  0  0  0
 15 16  1  0  0  0  0
 15 30  1  0  0  0  0
 15 31  1  0  0  0  0
 16 17  1  0  0  0  0
 16 32  1  0  0  0  0
 16 33  1  0  0  0  0
 17 22  1  0  0  0  0
 17 18  1  0  0  0  0
 18 19  2  0  0  0  0
 18 20  1  0  0  0  0
 20 21  1  0  0  0  0
 20 34  1  0  0  0  0
 20 35  1  0  0  0  0
 21 22  1  0  0  0  0
 22 23  2  0  0  0  0
M  CHG  1   7   1
M  CHG  1   9  -1
M  END
> <s_m_source_file>
AV-unprocessed.smi

> <i_m_source_file_index>
1134

> <i_lp_mmshare_version>
43012

> <i_f3d_flags>
0

> <s_epik_input>
Tz1jMVtjSF1bY0hdYyhbTitdKD1PKVtPLV0pW2NIXW4xW0NIMl1DKD1PKVtOSF1bQ0gyXVtDSDJdTjJDKD1PKVtDSDJdU0MyPU8=

> <s_epik_cmdline>
J2VwaWtfcHl0aG9uJywgJy1waCcsICc3LjAnLCAnLXRuJywgJzgnLCAnLW1hJywgJzIwMCcsICctbWV0YWxfYmluZGluZycsICctaW1hZScsICc8aW5maWxlLm1hZT4nLCAnLW9tYWUnLCAnPG91dGZpbGUubWFlPic=

> <r_lp_tautomer_probability>
1

> <r_epik_Ionization_Penalty>
5.49556e-08

> <r_epik_Ionization_Penalty_Charging>
6.94392e-11

> <r_epik_Ionization_Penalty_Neutral>
5.48861e-08

> <r_epik_State_Penalty>
-0

> <r_epik_Charging_Adjusted_Penalty>
6.94392e-11

> <i_epik_Tot_Q>
0

> <i_epik_Tot_abs_Q>
2

> <r_epik_Metal_State_Penalty>
-0

> <b_epik_Metal_Only>
0

> <s_lp_Force_Field>
OPLS_2005

> <r_lp_Energy>
19.8089

> <b_lp_Chiralities_Consistent>
1

> <s_lp_Variant>
AV-unprocessed.smi:1134-1

> <Gold.Version>
5.8.1

> <Gold.Id.Protein>
6NUR|6NUR_protein|mol2

> <Gold.PLP.Fitness>
45.7158

> <Gold.PLP.PLP>
-38.0414

> <Gold.PLP.part.hbond>
-4.9000

> <Gold.PLP.part.metal>
0.0000

> <Gold.PLP.part.buried>
-8.7165

> <Gold.PLP.part.nonpolar>
-25.3806

> <Gold.PLP.part.repulsive>
0.3486

> <Gold.PLP.ligand.clash>
0.0000

> <Gold.PLP.ligand.torsion>
0.8774

> <Gold.PLP.Chemscore.Hbond>
3.1243

> <Gold.PLP.Chemscore.CHOScore>
0.0000

> <Gold.PLP.Chemscore.Metal>
0.0000

> <Gold.Chemscore.Hbonds>
donor molecule, donor type, donor heavy atom, donor atom, acceptor molecule, acceptor atom, score
      P1  H  6896  6909       L1     1  0.63
      P1  H  6934  6947       L1    23  0.30
      P1  H  7997  8009       L1     9  1.00
      P1  H 10752 10764       L1     8  0.72

> <Gold.PLP.Chemscore.Internal.Correction>
0.0565

> <Gold.Rescore>
     Score         DG    S(hbond)    S(metal)    S(lipo)     H(rot)  DE(clash)    DE(int)     intcor
     13.38     -15.92       3.59        0.00      46.77       2.74       0.39       2.15       ----

> <Gold.Chemscore.Fitness>
13.3849

> <Gold.Chemscore.DG>
-15.9212

> <Gold.Chemscore.ZeroCoef>
-5.4800

> <Gold.Chemscore.Hbond>
3.5862

> <Gold.Chemscore.Metal>
0.0000

> <Gold.Chemscore.Lipo>
46.7682

> <Gold.Chemscore.Internal_Hbond>
0.0000

> <Gold.Chemscore.DEClash>
0.3889

> <Gold.Chemscore.DEInternal>
2.1474

> <Gold.Chemscore.Rot>
2.7377

> <Gold.Chemscore.Internal.Correction>
   9.000000E+99

> <Gold.Chemscore.Hbonds>
donor molecule, donor type, donor heavy atom, donor atom, acceptor molecule, acceptor atom, score
      P1  H  6896  6909       L1     1  0.63
      P1  H  6934  6947       L1    23  0.30
      P1  H  7997  8009       L1     9  0.97
      P1  H 10752 10764       L1     8  0.72

> <Gold.Chemscore.Hbond.Weighted>
-11.9778

> <Gold.Chemscore.Metal.Weighted>
-0.0000

> <Gold.Chemscore.Lipo.Weighted>
-5.4719

> <Gold.Chemscore.Internal_Hbond.Weighted>
0.0000

> <Gold.Chemscore.DEClash.Weighted>
0.3889

> <Gold.Chemscore.DEInternal.Weighted>
2.1474

> <Gold.Chemscore.Rot.Weighted>
7.0085

> <Gold.Chemscore.Internal.Correction.Weighted>
   9.000000E+99

> <Gold.Protein.RotatedTorsions>
[ 6907 6896 6895 6894 ] final   57.44 input  -60.11 | X-H torsion
[ 7974 7965 7964 7962 ] final   57.62 input  175.53 | X-H torsion
[ 8008 7997 7996 7995 ] final -131.46 input   59.86 | X-H torsion
[ 10167 10162 10161 10158 ] final -102.03 input  -65.29 | X-H torsion
[ 10718 10713 10712 10709 ] final -107.36 input   66.30 | X-H torsion
[ 10763 10752 10751 10750 ] final  -78.29 input  -60.55 | X-H torsion
[ 11005 11000 10999 10996 ] final -139.21 input  -57.11 | X-H torsion

> <Gold.Protein.ActiveResidues>
 VAL166  LYS551  ARG553  GLY616  TRP617  ASP618  TYR619  PRO620  LYS621  CYS622 
 ASP623  PHE694  ASN695  SER759  ASP760  ASP761  ALA762  ILE779  LEU786  VAL792 
 PHE793  MET794  SER795  GLU796  ALA797  LYS798  CYS799  TRP800  GLU811  SER814 

> <Gold.Protein.RotatedAtoms>
  152.3731  134.6704  160.0168 H   0  0  0  0  0  0  0  0  0  0  0  0  # atno 6907 bound_to 6896
  151.6990  133.3305  159.3270 H   0  0  0  0  0  0  0  0  0  0  0  0  # atno 6908 bound_to 6896
  150.7689  134.6567  159.6362 H   0  0  0  0  0  0  0  0  0  0  0  0  # atno 6909 bound_to 6896
  145.9271  139.3776  143.0443 H   0  0  0  0  0  0  0  0  0  0  0  0  # atno 7974 bound_to 7965
  155.3127  140.0458  157.3035 H   0  0  0  0  0  0  0  0  0  0  0  0  # atno 8008 bound_to 7997
  154.5424  140.2292  155.8586 H   0  0  0  0  0  0  0  0  0  0  0  0  # atno 8009 bound_to 7997
  156.1893  140.3054  155.9307 H   0  0  0  0  0  0  0  0  0  0  0  0  # atno 8010 bound_to 7997
  140.2350  143.3579  152.0853 H   0  0  0  0  0  0  0  0  0  0  0  0  # atno 10167 bound_to 10162
  156.0433  130.5659  150.7811 H   0  0  0  0  0  0  0  0  0  0  0  0  # atno 10718 bound_to 10713
  154.5239  135.5735  153.6704 H   0  0  0  0  0  0  0  0  0  0  0  0  # atno 10763 bound_to 10752
  152.9923  135.6188  154.2717 H   0  0  0  0  0  0  0  0  0  0  0  0  # atno 10764 bound_to 10752
  154.2640  135.2855  155.2746 H   0  0  0  0  0  0  0  0  0  0  0  0  # atno 10765 bound_to 10752
  140.8542  134.2249  157.4744 H   0  0  0  0  0  0  0  0  0  0  0  0  # atno 11005 bound_to 11000
  145.8475  140.9547  143.0767 LP  0  0  0  0  0  0  0  0  0  0  0  0  # atno 17320 bound_to 7965
  144.6760  140.0364  143.7481 LP  0  0  0  0  0  0  0  0  0  0  0  0  # atno 17321 bound_to 7965
  139.5097  144.6871  151.5858 LP  0  0  0  0  0  0  0  0  0  0  0  0  # atno 17342 bound_to 10162
  140.6156  143.9354  150.6486 LP  0  0  0  0  0  0  0  0  0  0  0  0  # atno 17343 bound_to 10162
  157.5278  131.0935  150.9995 LP  0  0  0  0  0  0  0  0  0  0  0  0  # atno 17370 bound_to 10713
  157.0309  130.5711  149.5343 LP  0  0  0  0  0  0  0  0  0  0  0  0  # atno 17371 bound_to 10713
  139.8705  134.9698  156.4678 LP  0  0  0  0  0  0  0  0  0  0  0  0  # atno 17394 bound_to 11000
  140.8756  133.7955  155.9411 LP  0  0  0  0  0  0  0  0  0  0  0  0  # atno 17395 bound_to 11000

$$$$
