AV-unprocessed.smi:3241|AV-procd|sdf|12390|dock5
  -GOLD-   2272018263D 1   1.00000     0.00000
 Structure written by MMmdl.
 43 44  0  0  0  0  0  0  0  0  1 V2000
  147.8216  141.6968  154.2241 C   0  0  0  0  0  0  0  0  0  0  0  0
  149.2059  141.0524  154.3965 C   0  0  1  0  0  0  0  0  0  0  0  0
  149.8472  141.4217  155.7495 C   0  0  0  0  0  0  0  0  0  0  0  0
  151.2476  140.8051  155.8971 C   0  0  0  0  0  0  0  0  0  0  0  0
  151.2112  139.2822  155.6992 C   0  0  0  0  0  0  0  0  0  0  0  0
  150.5724  138.9114  154.3506 C   0  0  0  0  0  0  0  0  0  0  0  0
  149.1616  139.5205  154.2003 C   0  0  1  0  0  0  0  0  0  0  0  0
  148.2814  138.9663  155.1719 O   0  0  0  0  0  0  0  0  0  0  0  0
  147.7043  137.7218  154.8064 C   0  0  0  0  0  0  0  0  0  0  0  0
  146.7738  137.9518  153.6119 C   0  0  0  0  0  0  0  0  0  0  0  0
  146.4578  136.6888  152.9553 N   0  0  0  0  0  0  0  0  0  0  0  0
  145.7619  136.8464  151.6818 C   0  0  0  0  0  0  0  0  0  0  0  0
  144.6279  135.8202  151.5237 C   0  0  0  0  0  0  0  0  0  0  0  0
  145.1033  134.5437  151.0203 N   0  0  0  0  0  0  0  0  0  0  0  0
  144.3726  133.5275  150.4418 C   0  0  0  0  0  0  0  0  0  0  0  0
  145.2475  132.5292  150.1213 C   0  0  0  0  0  0  0  0  0  0  0  0
  146.5073  133.0341  150.5485 C   0  0  0  0  0  0  0  0  0  0  0  0
  146.4176  134.2384  151.0891 N   0  0  0  0  0  0  0  0  0  0  0  0
  147.1223  141.3523  154.9865 H   0  0  0  0  0  0  0  0  0  0  0  0
  147.3959  141.4566  153.2495 H   0  0  0  0  0  0  0  0  0  0  0  0
  147.8834  142.7827  154.2979 H   0  0  0  0  0  0  0  0  0  0  0  0
  149.8438  141.4622  153.6119 H   0  0  0  0  0  0  0  0  0  0  0  0
  149.9159  142.5058  155.8455 H   0  0  0  0  0  0  0  0  0  0  0  0
  149.2110  141.0810  156.5675 H   0  0  0  0  0  0  0  0  0  0  0  0
  151.9218  141.2520  155.1657 H   0  0  0  0  0  0  0  0  0  0  0  0
  151.6571  141.0425  156.8793 H   0  0  0  0  0  0  0  0  0  0  0  0
  152.2219  138.8770  155.7556 H   0  0  0  0  0  0  0  0  0  0  0  0
  150.6483  138.8198  156.5111 H   0  0  0  0  0  0  0  0  0  0  0  0
  151.2072  139.2770  153.5426 H   0  0  0  0  0  0  0  0  0  0  0  0
  150.5449  137.8280  154.2401 H   0  0  0  0  0  0  0  0  0  0  0  0
  148.7809  139.3131  153.1984 H   0  0  0  0  0  0  0  0  0  0  0  0
  148.5006  137.0319  154.5239 H   0  0  0  0  0  0  0  0  0  0  0  0
  147.1576  137.2651  155.6320 H   0  0  0  0  0  0  0  0  0  0  0  0
  145.8637  138.4533  153.9428 H   0  0  0  0  0  0  0  0  0  0  0  0
  147.2600  138.6190  152.8995 H   0  0  0  0  0  0  0  0  0  0  0  0
  145.9067  136.1081  153.5798 H   0  0  0  0  0  0  0  0  0  0  0  0
  145.3387  137.8496  151.6197 H   0  0  0  0  0  0  0  0  0  0  0  0
  146.4647  136.7543  150.8530 H   0  0  0  0  0  0  0  0  0  0  0  0
  144.1098  135.6661  152.4718 H   0  0  0  0  0  0  0  0  0  0  0  0
  143.8849  136.2011  150.8222 H   0  0  0  0  0  0  0  0  0  0  0  0
  143.3036  133.6003  150.3061 H   0  0  0  0  0  0  0  0  0  0  0  0
  145.0225  131.5833  149.6518 H   0  0  0  0  0  0  0  0  0  0  0  0
  147.4773  132.5641  150.4829 H   0  0  0  0  0  0  0  0  0  0  0  0
  1  2  1  0  0  0  0
  1 19  1  0  0  0  0
  1 20  1  0  0  0  0
  1 21  1  0  0  0  0
  2  7  1  0  0  0  0
  2  3  1  0  0  0  0
  2 22  1  0  0  0  0
  3  4  1  0  0  0  0
  3 23  1  0  0  0  0
  3 24  1  0  0  0  0
  4  5  1  0  0  0  0
  4 25  1  0  0  0  0
  4 26  1  0  0  0  0
  5  6  1  0  0  0  0
  5 27  1  0  0  0  0
  5 28  1  0  0  0  0
  6  7  1  0  0  0  0
  6 29  1  0  0  0  0
  6 30  1  0  0  0  0
  7  8  1  0  0  0  0
  7 31  1  0  0  0  0
  8  9  1  0  0  0  0
  9 10  1  0  0  0  0
  9 32  1  0  0  0  0
  9 33  1  0  0  0  0
 10 11  1  0  0  0  0
 10 34  1  0  0  0  0
 10 35  1  0  0  0  0
 11 12  1  0  0  0  0
 11 36  1  0  0  0  0
 12 13  1  0  0  0  0
 12 37  1  0  0  0  0
 12 38  1  0  0  0  0
 13 14  1  0  0  0  0
 13 39  1  0  0  0  0
 13 40  1  0  0  0  0
 14 18  1  0  0  0  0
 14 15  1  0  0  0  0
 15 16  2  0  0  0  0
 15 41  1  0  0  0  0
 16 17  1  0  0  0  0
 16 42  1  0  0  0  0
 17 18  2  0  0  0  0
 17 43  1  0  0  0  0
M  END
> <s_m_source_file>
AV-unprocessed.smi

> <i_m_source_file_index>
3241

> <i_lp_mmshare_version>
43012

> <i_f3d_flags>
0

> <s_epik_input>
W0NIM11bQ0BASF0xW0NIMl1bQ0gyXVtDSDJdW0NIMl1bQ0BIXTFPW0NIMl1bQ0gyXVtOSF1bQ0gyXVtDSDJdbjJbY0hdW2NIXVtjSF1uMg==

> <s_epik_cmdline>
J2VwaWtfcHl0aG9uJywgJy1waCcsICc3LjAnLCAnLXRuJywgJzgnLCAnLW1hJywgJzIwMCcsICctbWV0YWxfYmluZGluZycsICctaW1hZScsICc8aW5maWxlLm1hZT4nLCAnLW9tYWUnLCAnPG91dGZpbGUubWFlPic=

> <r_lp_tautomer_probability>
1

> <r_epik_Ionization_Penalty>
2.47055

> <r_epik_Ionization_Penalty_Charging>
0

> <r_epik_Ionization_Penalty_Neutral>
2.47055

> <r_epik_State_Penalty>
2.6322

> <r_epik_Charging_Adjusted_Penalty>
2.6322

> <i_epik_Tot_Q>
0

> <i_epik_Tot_abs_Q>
0

> <r_epik_Metal_State_Penalty>
2.63108

> <b_epik_Metal_Only>
0

> <s_lp_Force_Field>
OPLS_2005

> <r_lp_Energy>
16.4291

> <b_lp_Chiralities_Consistent>
1

> <s_lp_Variant>
AV-unprocessed.smi:3241-6

> <Gold.Version>
5.8.1

> <Gold.Id.Protein>
6NUR|6NUR_protein|mol2

> <Gold.PLP.Fitness>
40.0644

> <Gold.PLP.PLP>
-36.0623

> <Gold.PLP.part.hbond>
-1.0000

> <Gold.PLP.part.metal>
0.0000

> <Gold.PLP.part.buried>
-2.2945

> <Gold.PLP.part.nonpolar>
-33.3386

> <Gold.PLP.part.repulsive>
0.2670

> <Gold.PLP.ligand.clash>
0.0000

> <Gold.PLP.ligand.torsion>
1.0322

> <Gold.PLP.Chemscore.Hbond>
0.0000

> <Gold.PLP.Chemscore.CHOScore>
2.0000

> <Gold.PLP.Chemscore.Metal>
0.0000

> <Gold.Chemscore.Hbonds>
donor molecule, donor type, donor heavy atom, donor atom, acceptor molecule, acceptor atom, score
      L1  C    15    41       P1 10186  0.94
      L1  C    17    43       P1 10747  1.00

> <Gold.PLP.Chemscore.Internal.Correction>
0.0665

> <Gold.Rescore>
     Score         DG    S(hbond)    S(metal)    S(lipo)     H(rot)  DE(clash)    DE(int)     intcor
     10.92     -12.18       0.00        0.00      96.40       1.79       0.13       1.12       ----

> <Gold.Chemscore.Fitness>
10.9224

> <Gold.Chemscore.DG>
-12.1760

> <Gold.Chemscore.ZeroCoef>
-5.4800

> <Gold.Chemscore.Hbond>
0.0000

> <Gold.Chemscore.Metal>
0.0000

> <Gold.Chemscore.Lipo>
96.3992

> <Gold.Chemscore.Internal_Hbond>
0.0000

> <Gold.Chemscore.DEClash>
0.1286

> <Gold.Chemscore.DEInternal>
1.1250

> <Gold.Chemscore.Rot>
1.7901

> <Gold.Chemscore.Internal.Correction>
   9.000000E+99

> <Gold.Chemscore.Hbond.Weighted>
-0.0000

> <Gold.Chemscore.Metal.Weighted>
-0.0000

> <Gold.Chemscore.Lipo.Weighted>
-11.2787

> <Gold.Chemscore.Internal_Hbond.Weighted>
0.0000

> <Gold.Chemscore.DEClash.Weighted>
0.1286

> <Gold.Chemscore.DEInternal.Weighted>
1.1250

> <Gold.Chemscore.Rot.Weighted>
4.5827

> <Gold.Chemscore.Internal.Correction.Weighted>
   9.000000E+99

> <Gold.Protein.RotatedTorsions>
[ 6907 6896 6895 6894 ] final -143.03 input  -60.11 | X-H torsion
[ 7974 7965 7964 7962 ] final  108.53 input  175.53 | X-H torsion
[ 8008 7997 7996 7995 ] final  119.29 input   59.86 | X-H torsion
[ 10167 10162 10161 10158 ] final  157.18 input  -65.29 | X-H torsion
[ 10718 10713 10712 10709 ] final  -37.95 input   66.30 | X-H torsion
[ 10763 10752 10751 10750 ] final   -3.30 input  -60.55 | X-H torsion
[ 11005 11000 10999 10996 ] final -167.62 input  -57.11 | X-H torsion

> <Gold.Protein.ActiveResidues>
 VAL166  LYS551  ARG553  GLY616  TRP617  ASP618  TYR619  PRO620  LYS621  CYS622 
 ASP623  PHE694  ASN695  SER759  ASP760  ASP761  ALA762  ILE779  LEU786  VAL792 
 PHE793  MET794  SER795  GLU796  ALA797  LYS798  CYS799  TRP800  GLU811  SER814 

> <Gold.Protein.RotatedAtoms>
  151.0950  133.5286  159.2612 H   0  0  0  0  0  0  0  0  0  0  0  0  # atno 6907 bound_to 6896
  151.2139  135.0491  159.8932 H   0  0  0  0  0  0  0  0  0  0  0  0  # atno 6908 bound_to 6896
  152.5438  134.0762  159.8269 H   0  0  0  0  0  0  0  0  0  0  0  0  # atno 6909 bound_to 6896
  145.2795  139.2638  143.3923 H   0  0  0  0  0  0  0  0  0  0  0  0  # atno 7974 bound_to 7965
  156.2589  140.2856  156.0969 H   0  0  0  0  0  0  0  0  0  0  0  0  # atno 8008 bound_to 7997
  155.1402  140.0395  157.2814 H   0  0  0  0  0  0  0  0  0  0  0  0  # atno 8009 bound_to 7997
  154.6535  140.2550  155.7194 H   0  0  0  0  0  0  0  0  0  0  0  0  # atno 8010 bound_to 7997
  139.4822  144.4941  151.8265 H   0  0  0  0  0  0  0  0  0  0  0  0  # atno 10167 bound_to 10162
  156.3094  130.4250  149.8065 H   0  0  0  0  0  0  0  0  0  0  0  0  # atno 10718 bound_to 10713
  153.3696  135.6994  153.6648 H   0  0  0  0  0  0  0  0  0  0  0  0  # atno 10763 bound_to 10752
  153.5304  135.3593  155.2673 H   0  0  0  0  0  0  0  0  0  0  0  0  # atno 10764 bound_to 10752
  154.8679  135.4179  154.2971 H   0  0  0  0  0  0  0  0  0  0  0  0  # atno 10765 bound_to 10752
  140.5512  134.5427  157.5123 H   0  0  0  0  0  0  0  0  0  0  0  0  # atno 11005 bound_to 11000
  146.3221  140.3258  142.8636 LP  0  0  0  0  0  0  0  0  0  0  0  0  # atno 17320 bound_to 7965
  144.9266  140.7928  143.5715 LP  0  0  0  0  0  0  0  0  0  0  0  0  # atno 17321 bound_to 7965
  140.4428  144.1963  150.5892 LP  0  0  0  0  0  0  0  0  0  0  0  0  # atno 17342 bound_to 10162
  140.4665  143.2429  151.9147 LP  0  0  0  0  0  0  0  0  0  0  0  0  # atno 17343 bound_to 10162
  156.5414  130.8301  151.3270 LP  0  0  0  0  0  0  0  0  0  0  0  0  # atno 17370 bound_to 10713
  157.7387  130.9818  150.2270 LP  0  0  0  0  0  0  0  0  0  0  0  0  # atno 17371 bound_to 10713
  139.9454  134.7711  156.0574 LP  0  0  0  0  0  0  0  0  0  0  0  0  # atno 17394 bound_to 11000
  141.1171  133.6624  156.3120 LP  0  0  0  0  0  0  0  0  0  0  0  0  # atno 17395 bound_to 11000

$$$$
