AV-unprocessed.smi:265|AV-procd|sdf|2018|dock5
  -GOLD-   2262021223D 1   1.00000     0.00000
 Structure written by MMmdl.
 52 56  0  0  0  0  0  0  0  0  1 V2000
  152.4993  141.0189  158.6504 C   0  0  0  0  0  0  0  0  0  0  0  0
  151.7255  142.3118  158.9523 C   0  0  1  0  0  0  0  0  0  0  0  0
  152.6254  143.2084  159.5999 O   0  0  0  0  0  0  0  0  0  0  0  0
  152.2860  144.5389  159.2511 C   0  0  0  0  0  0  0  0  0  0  0  0
  151.9222  144.4099  157.7803 C   0  0  0  0  0  0  0  0  0  0  0  0
  151.1592  143.0893  157.7305 C   0  0  2  0  0  0  0  0  0  0  0  0
  149.7931  143.3654  157.9943 O   0  0  0  0  0  0  0  0  0  0  0  0
  151.2447  142.3728  156.3574 C   0  0  0  0  0  0  0  0  0  0  0  0
  150.7801  140.9942  156.3935 N   0  0  0  0  0  0  0  0  0  0  0  0
  149.5954  140.5407  156.9277 C   0  0  0  0  0  0  0  0  0  0  0  0
  149.4016  139.2535  156.8397 N   0  0  0  0  0  0  0  0  0  0  0  0
  150.5439  138.7806  156.2047 C   0  0  0  0  0  0  0  0  0  0  0  0
  150.9882  137.4913  155.7959 C   0  0  0  0  0  0  0  0  0  0  0  0
  150.2675  136.3637  156.0198 N   0  0  0  0  0  0  0  0  0  0  0  0
  149.0891  136.4667  156.8878 C   0  0  0  0  0  0  0  0  0  0  0  0
  148.5935  135.0751  157.3255 C   0  0  0  0  0  0  0  0  0  0  0  0
  148.3667  134.1895  156.0933 C   0  0  2  0  0  0  0  0  0  0  0  0
  148.0064  132.8628  156.4474 O   0  0  0  0  0  0  0  0  0  0  0  0
  147.6356  132.0564  155.3236 C   0  0  0  0  0  0  0  0  0  0  0  0
  148.6320  132.1701  154.1500 C   0  0  0  0  0  0  0  0  0  0  0  0
  148.5839  131.3620  153.2256 O   0  0  0  0  0  0  0  0  0  0  0  0
  149.5059  133.1899  154.1565 N   0  0  0  0  0  0  0  0  0  0  0  0
  149.6721  134.0908  155.2888 C   0  0  1  0  0  0  0  0  0  0  0  0
  150.1244  135.4918  154.8517 C   0  0  0  0  0  0  0  0  0  0  0  0
  152.1893  137.4151  155.1625 N   0  0  0  0  0  0  0  0  0  0  0  0
  152.9144  138.5185  154.9559 C   0  0  0  0  0  0  0  0  0  0  0  0
  152.6306  139.7781  155.2919 N   0  0  0  0  0  0  0  0  0  0  0  0
  151.4205  139.8641  155.9149 C   0  0  0  0  0  0  0  0  0  0  0  0
  147.5723  134.6302  155.4865 H   0  0  0  0  0  0  0  0  0  0  0  0
  150.4494  133.6581  155.9217 H   0  0  0  0  0  0  0  0  0  0  0  0
  151.8641  140.2772  158.1661 H   0  0  0  0  0  0  0  0  0  0  0  0
  152.8743  140.5727  159.5716 H   0  0  0  0  0  0  0  0  0  0  0  0
  153.3582  141.2075  158.0059 H   0  0  0  0  0  0  0  0  0  0  0  0
  150.9266  142.0765  159.6580 H   0  0  0  0  0  0  0  0  0  0  0  0
  151.4314  144.8712  159.8423 H   0  0  0  0  0  0  0  0  0  0  0  0
  153.1158  145.2247  159.4227 H   0  0  0  0  0  0  0  0  0  0  0  0
  151.3594  145.2626  157.3979 H   0  0  0  0  0  0  0  0  0  0  0  0
  152.8432  144.3325  157.2017 H   0  0  0  0  0  0  0  0  0  0  0  0
  149.3523  143.5048  157.1700 H   0  0  0  0  0  0  0  0  0  0  0  0
  150.6532  142.9022  155.6101 H   0  0  0  0  0  0  0  0  0  0  0  0
  152.2732  142.3719  155.9942 H   0  0  0  0  0  0  0  0  0  0  0  0
  148.8716  141.2015  157.3822 H   0  0  0  0  0  0  0  0  0  0  0  0
  149.3269  137.0607  157.7714 H   0  0  0  0  0  0  0  0  0  0  0  0
  148.2949  136.9891  156.3524 H   0  0  0  0  0  0  0  0  0  0  0  0
  149.3296  134.6129  157.9847 H   0  0  0  0  0  0  0  0  0  0  0  0
  147.6720  135.1674  157.9005 H   0  0  0  0  0  0  0  0  0  0  0  0
  147.5571  131.0166  155.6420 H   0  0  0  0  0  0  0  0  0  0  0  0
  146.6489  132.3613  154.9732 H   0  0  0  0  0  0  0  0  0  0  0  0
  150.1387  133.2926  153.3764 H   0  0  0  0  0  0  0  0  0  0  0  0
  149.3908  135.9304  154.1736 H   0  0  0  0  0  0  0  0  0  0  0  0
  151.0578  135.4135  154.2953 H   0  0  0  0  0  0  0  0  0  0  0  0
  153.8574  138.3700  154.4510 H   0  0  0  0  0  0  0  0  0  0  0  0
  1  2  1  0  0  0  0
  1 31  1  0  0  0  0
  1 32  1  0  0  0  0
  1 33  1  0  0  0  0
  2  6  1  0  0  0  0
  2  3  1  0  0  0  0
  2 34  1  0  0  0  0
  3  4  1  0  0  0  0
  4  5  1  0  0  0  0
  4 35  1  0  0  0  0
  4 36  1  0  0  0  0
  5  6  1  0  0  0  0
  5 37  1  0  0  0  0
  5 38  1  0  0  0  0
  6  7  1  0  0  0  0
  6  8  1  0  0  0  0
  7 39  1  0  0  0  0
  8  9  1  0  0  0  0
  8 40  1  0  0  0  0
  8 41  1  0  0  0  0
  9 28  1  0  0  0  0
  9 10  1  0  0  0  0
 10 11  2  0  0  0  0
 10 42  1  0  0  0  0
 11 12  1  0  0  0  0
 12 28  2  0  0  0  0
 12 13  1  0  0  0  0
 13 14  1  0  0  0  0
 13 25  2  0  0  0  0
 14 24  1  0  0  0  0
 14 15  1  0  0  0  0
 15 16  1  0  0  0  0
 15 43  1  0  0  0  0
 15 44  1  0  0  0  0
 16 17  1  0  0  0  0
 16 45  1  0  0  0  0
 16 46  1  0  0  0  0
 17 29  1  0  0  0  0
 17 23  1  0  0  0  0
 17 18  1  0  0  0  0
 18 19  1  0  0  0  0
 19 20  1  0  0  0  0
 19 47  1  0  0  0  0
 19 48  1  0  0  0  0
 20 21  2  0  0  0  0
 20 22  1  0  0  0  0
 22 23  1  0  0  0  0
 22 49  1  0  0  0  0
 23 30  1  0  0  0  0
 23 24  1  0  0  0  0
 24 50  1  0  0  0  0
 24 51  1  0  0  0  0
 25 26  1  0  0  0  0
 26 27  2  0  0  0  0
 26 52  1  0  0  0  0
 27 28  1  0  0  0  0
M  END
> <s_m_source_file>
AV-unprocessed.smi

> <i_m_source_file_index>
265

> <i_lp_mmshare_version>
43012

> <i_f3d_flags>
0

> <s_epik_input>
W0NIMl0xW0NIMl1PW0NAQEhdKFtDSDNdKVtDQEBdMShbT0hdKVtDSDJdbihbY0hdbjIpYyhjMjMpbltjSF1uYzNOKFtDSDJdW0NIMl00KVtDSDJdW0NAQEhdKFtDQEhdNDUpW05IXUMoPU8pW0NIMl1PNQ==

> <s_epik_cmdline>
J2VwaWtfcHl0aG9uJywgJy1waCcsICc3LjAnLCAnLXRuJywgJzgnLCAnLW1hJywgJzIwMCcsICctbWV0YWxfYmluZGluZycsICctaW1hZScsICc8aW5maWxlLm1hZT4nLCAnLW9tYWUnLCAnPG91dGZpbGUubWFlPic=

> <r_lp_tautomer_probability>
1

> <r_epik_Ionization_Penalty>
0.00221504

> <r_epik_Ionization_Penalty_Charging>
0

> <r_epik_Ionization_Penalty_Neutral>
0.00221504

> <r_epik_State_Penalty>
-0

> <r_epik_Charging_Adjusted_Penalty>
0

> <i_epik_Tot_Q>
0

> <i_epik_Tot_abs_Q>
0

> <r_epik_Metal_State_Penalty>
-0

> <b_epik_Metal_Only>
0

> <s_lp_Force_Field>
OPLS_2005

> <r_lp_Energy>
44.0648

> <b_lp_Chiralities_Consistent>
1

> <s_lp_Variant>
AV-unprocessed.smi:265-4

> <Gold.Version>
5.8.1

> <Gold.Id.Protein>
6NUR|6NUR_protein|mol2

> <Gold.PLP.Fitness>
47.3846

> <Gold.PLP.PLP>
-39.9286

> <Gold.PLP.part.hbond>
-4.1626

> <Gold.PLP.part.metal>
0.0000

> <Gold.PLP.part.buried>
-7.9051

> <Gold.PLP.part.nonpolar>
-29.8126

> <Gold.PLP.part.repulsive>
1.0860

> <Gold.PLP.ligand.clash>
0.0000

> <Gold.PLP.ligand.torsion>
0.4287

> <Gold.PLP.Chemscore.Hbond>
2.6293

> <Gold.PLP.Chemscore.CHOScore>
0.0000

> <Gold.PLP.Chemscore.Metal>
0.0000

> <Gold.Chemscore.Hbonds>
donor molecule, donor type, donor heavy atom, donor atom, acceptor molecule, acceptor atom, score
      L1  H     7    39       P1  8028  0.98
      P1  H  7989  7998       L1    27  0.08
      P1  H  7997  8009       L1    27  0.81
      P1  H 10752 10765       L1    25  0.76

> <Gold.PLP.Chemscore.Internal.Correction>
0.4256

> <Gold.Rescore>
     Score         DG    S(hbond)    S(metal)    S(lipo)     H(rot)  DE(clash)    DE(int)     intcor
     10.90     -15.83       2.00        0.00      80.56       2.25       1.56       3.37       ----

> <Gold.Chemscore.Fitness>
10.8991

> <Gold.Chemscore.DG>
-15.8319

> <Gold.Chemscore.ZeroCoef>
-5.4800

> <Gold.Chemscore.Hbond>
1.9981

> <Gold.Chemscore.Metal>
0.0000

> <Gold.Chemscore.Lipo>
80.5648

> <Gold.Chemscore.Internal_Hbond>
0.0000

> <Gold.Chemscore.DEClash>
1.5650

> <Gold.Chemscore.DEInternal>
3.3678

> <Gold.Chemscore.Rot>
2.2453

> <Gold.Chemscore.Internal.Correction>
   9.000000E+99

> <Gold.Chemscore.Hbonds>
donor molecule, donor type, donor heavy atom, donor atom, acceptor molecule, acceptor atom, score
      L1  H     7    39       P1  8028  0.70
      P1  H  7997  8009       L1    27  0.12
      P1  H 10752 10765       L1    25  0.68

> <Gold.Chemscore.Hbond.Weighted>
-6.6737

> <Gold.Chemscore.Metal.Weighted>
-0.0000

> <Gold.Chemscore.Lipo.Weighted>
-9.4261

> <Gold.Chemscore.Internal_Hbond.Weighted>
0.0000

> <Gold.Chemscore.DEClash.Weighted>
1.5650

> <Gold.Chemscore.DEInternal.Weighted>
3.3678

> <Gold.Chemscore.Rot.Weighted>
5.7479

> <Gold.Chemscore.Internal.Correction.Weighted>
   9.000000E+99

> <Gold.Protein.RotatedTorsions>
[ 6907 6896 6895 6894 ] final -163.44 input  -60.11 | X-H torsion
[ 7974 7965 7964 7962 ] final   87.56 input  175.53 | X-H torsion
[ 8008 7997 7996 7995 ] final -165.27 input   59.86 | X-H torsion
[ 10167 10162 10161 10158 ] final   68.55 input  -65.29 | X-H torsion
[ 10718 10713 10712 10709 ] final   67.41 input   66.30 | X-H torsion
[ 10763 10752 10751 10750 ] final -174.17 input  -60.55 | X-H torsion
[ 11005 11000 10999 10996 ] final  -93.08 input  -57.11 | X-H torsion

> <Gold.Protein.ActiveResidues>
 VAL166  LYS551  ARG553  GLY616  TRP617  ASP618  TYR619  PRO620  LYS621  CYS622 
 ASP623  PHE694  ASN695  SER759  ASP760  ASP761  ALA762  ILE779  LEU786  VAL792 
 PHE793  MET794  SER795  GLU796  ALA797  LYS798  CYS799  TRP800  GLU811  SER814 

> <Gold.Protein.RotatedAtoms>
  151.3960  133.3773  159.2726 H   0  0  0  0  0  0  0  0  0  0  0  0  # atno 6907 bound_to 6896
  150.9469  134.8874  159.7658 H   0  0  0  0  0  0  0  0  0  0  0  0  # atno 6908 bound_to 6896
  152.5095  134.3913  159.9437 H   0  0  0  0  0  0  0  0  0  0  0  0  # atno 6909 bound_to 6896
  145.5574  139.2301  143.2478 H   0  0  0  0  0  0  0  0  0  0  0  0  # atno 7974 bound_to 7965
  155.8474  140.0957  157.1696 H   0  0  0  0  0  0  0  0  0  0  0  0  # atno 8008 bound_to 7997
  154.3984  140.1389  156.3864 H   0  0  0  0  0  0  0  0  0  0  0  0  # atno 8009 bound_to 7997
  155.7999  140.3453  155.5399 H   0  0  0  0  0  0  0  0  0  0  0  0  # atno 8010 bound_to 7997
  140.0774  144.5100  150.7185 H   0  0  0  0  0  0  0  0  0  0  0  0  # atno 10167 bound_to 10162
  157.6229  130.9319  150.0239 H   0  0  0  0  0  0  0  0  0  0  0  0  # atno 10718 bound_to 10713
  154.5994  135.2853  155.0551 H   0  0  0  0  0  0  0  0  0  0  0  0  # atno 10763 bound_to 10752
  154.1822  135.6455  153.5041 H   0  0  0  0  0  0  0  0  0  0  0  0  # atno 10764 bound_to 10752
  153.0151  135.5426  154.6708 H   0  0  0  0  0  0  0  0  0  0  0  0  # atno 10765 bound_to 10752
  141.1506  133.7863  157.0109 H   0  0  0  0  0  0  0  0  0  0  0  0  # atno 11005 bound_to 11000
  146.1875  140.6398  142.9161 LP  0  0  0  0  0  0  0  0  0  0  0  0  # atno 17320 bound_to 7965
  144.7499  140.5165  143.6809 LP  0  0  0  0  0  0  0  0  0  0  0  0  # atno 17321 bound_to 7965
  140.7095  143.2494  151.4625 LP  0  0  0  0  0  0  0  0  0  0  0  0  # atno 17342 bound_to 10162
  139.5800  144.1732  152.1955 LP  0  0  0  0  0  0  0  0  0  0  0  0  # atno 17343 bound_to 10162
  156.1384  130.3642  149.9621 LP  0  0  0  0  0  0  0  0  0  0  0  0  # atno 17370 bound_to 10713
  156.7667  130.9171  151.3643 LP  0  0  0  0  0  0  0  0  0  0  0  0  # atno 17371 bound_to 10713
  140.0878  134.9610  157.1728 LP  0  0  0  0  0  0  0  0  0  0  0  0  # atno 17394 bound_to 11000
  140.3487  134.2622  155.7201 LP  0  0  0  0  0  0  0  0  0  0  0  0  # atno 17395 bound_to 11000

$$$$
