AV-unprocessed.smi:2693|AV-procd|sdf|10399|dock3
  -GOLD-   2272014433D 1   1.00000     0.00000
 Structure written by MMmdl.
 45 47  0  0  0  0  0  0  0  0  1 V2000
  152.4857  129.7212  156.1251 C   0  0  0  0  0  0  0  0  0  0  0  0
  151.5039  130.0595  155.0987 N   0  0  0  0  0  0  0  0  0  0  0  0
  150.9931  128.9741  154.2660 C   0  0  0  0  0  0  0  0  0  0  0  0
  151.0846  131.3792  154.9046 C   0  0  0  0  0  0  0  0  0  0  0  0
  151.6651  132.3269  155.6517 N   0  0  0  0  0  0  0  0  0  0  0  0
  151.2663  133.6040  155.4718 C   0  0  0  0  0  0  0  0  0  0  0  0
  150.2707  133.9452  154.5249 C   0  0  0  0  0  0  0  0  0  0  0  0
  149.7810  135.2564  154.2777 N   0  0  0  0  0  0  0  0  0  0  0  0
  149.7772  136.3210  155.0979 C   0  0  0  0  0  0  0  0  0  0  0  0
  150.2245  136.3426  156.2438 O   0  0  0  0  0  0  0  0  0  0  0  0
  149.2314  137.3887  154.5011 N   0  0  0  0  0  0  0  0  0  0  0  0
  149.0879  138.6985  155.1287 C   0  0  2  0  0  0  0  0  0  0  0  0
  148.5980  139.7727  154.1452 C   0  0  1  0  0  0  0  0  0  0  0  0
  147.2503  140.4118  154.3432 C   0  0  0  0  0  0  0  0  0  0  0  0
  147.5884  141.6903  155.1152 C   0  0  0  0  0  0  0  0  0  0  0  0
  148.8526  141.4227  155.7180 O   0  0  0  0  0  0  0  0  0  0  0  0
  149.6324  140.6948  154.7724 C   0  0  1  0  0  0  0  0  0  0  0  0
  150.4154  139.4785  155.3102 C   0  0  0  0  0  0  0  0  0  0  0  0
  150.9381  139.5975  156.7427 C   0  0  0  0  0  0  0  0  0  0  0  0
  151.6084  139.0641  154.4370 C   0  0  0  0  0  0  0  0  0  0  0  0
  149.7223  132.8678  153.8006 C   0  0  0  0  0  0  0  0  0  0  0  0
  150.1305  131.5955  153.9895 N   0  0  0  0  0  0  0  0  0  0  0  0
  152.1350  130.0379  157.1080 H   0  0  0  0  0  0  0  0  0  0  0  0
  153.4342  130.2195  155.9211 H   0  0  0  0  0  0  0  0  0  0  0  0
  152.6755  128.6490  156.1710 H   0  0  0  0  0  0  0  0  0  0  0  0
  151.2189  129.1617  153.2158 H   0  0  0  0  0  0  0  0  0  0  0  0
  149.9114  128.8878  154.3750 H   0  0  0  0  0  0  0  0  0  0  0  0
  151.4323  128.0130  154.5325 H   0  0  0  0  0  0  0  0  0  0  0  0
  151.7477  134.3289  156.1081 H   0  0  0  0  0  0  0  0  0  0  0  0
  149.4189  135.4130  153.3485 H   0  0  0  0  0  0  0  0  0  0  0  0
  148.8927  137.2922  153.5549 H   0  0  0  0  0  0  0  0  0  0  0  0
  148.4884  138.6846  156.0419 H   0  0  0  0  0  0  0  0  0  0  0  0
  148.8459  139.5403  153.1077 H   0  0  0  0  0  0  0  0  0  0  0  0
  146.7484  140.6334  153.4011 H   0  0  0  0  0  0  0  0  0  0  0  0
  146.5955  139.7661  154.9293 H   0  0  0  0  0  0  0  0  0  0  0  0
  147.6926  142.5341  154.4314 H   0  0  0  0  0  0  0  0  0  0  0  0
  146.8342  141.9455  155.8598 H   0  0  0  0  0  0  0  0  0  0  0  0
  150.1573  141.3292  154.0567 H   0  0  0  0  0  0  0  0  0  0  0  0
  151.7020  140.3710  156.8267 H   0  0  0  0  0  0  0  0  0  0  0  0
  151.3757  138.6601  157.0876 H   0  0  0  0  0  0  0  0  0  0  0  0
  150.1413  139.8533  157.4417 H   0  0  0  0  0  0  0  0  0  0  0  0
  152.4018  139.8113  154.4690 H   0  0  0  0  0  0  0  0  0  0  0  0
  151.3235  138.9470  153.3911 H   0  0  0  0  0  0  0  0  0  0  0  0
  152.0386  138.1170  154.7643 H   0  0  0  0  0  0  0  0  0  0  0  0
  148.9509  133.0247  153.0610 H   0  0  0  0  0  0  0  0  0  0  0  0
  1  2  1  0  0  0  0
  1 23  1  0  0  0  0
  1 24  1  0  0  0  0
  1 25  1  0  0  0  0
  2  3  1  0  0  0  0
  2  4  1  0  0  0  0
  3 26  1  0  0  0  0
  3 27  1  0  0  0  0
  3 28  1  0  0  0  0
  4 22  1  0  0  0  0
  4  5  2  0  0  0  0
  5  6  1  0  0  0  0
  6  7  2  0  0  0  0
  6 29  1  0  0  0  0
  7  8  1  0  0  0  0
  7 21  1  0  0  0  0
  8  9  1  0  0  0  0
  8 30  1  0  0  0  0
  9 10  2  0  0  0  0
  9 11  1  0  0  0  0
 11 12  1  0  0  0  0
 11 31  1  0  0  0  0
 12 18  1  0  0  0  0
 12 13  1  0  0  0  0
 12 32  1  0  0  0  0
 13 17  1  0  0  0  0
 13 14  1  0  0  0  0
 13 33  1  0  0  0  0
 14 15  1  0  0  0  0
 14 34  1  0  0  0  0
 14 35  1  0  0  0  0
 15 16  1  0  0  0  0
 15 36  1  0  0  0  0
 15 37  1  0  0  0  0
 16 17  1  0  0  0  0
 17 18  1  0  0  0  0
 17 38  1  0  0  0  0
 18 19  1  0  0  0  0
 18 20  1  0  0  0  0
 19 39  1  0  0  0  0
 19 40  1  0  0  0  0
 19 41  1  0  0  0  0
 20 42  1  0  0  0  0
 20 43  1  0  0  0  0
 20 44  1  0  0  0  0
 21 22  2  0  0  0  0
 21 45  1  0  0  0  0
M  END
> <s_m_source_file>
AV-unprocessed.smi

> <i_m_source_file_index>
2693

> <i_lp_mmshare_version>
43012

> <i_f3d_flags>
0

> <s_epik_input>
W0NIM11OKFtDSDNdKWMxbltjSF1jKFtjSF1uMSlbTkhdQyg9TylbTkhdW0NASF0yQyhbQ0gzXSkoW0NIM10pW0NAQEhdKFtDQEhdMjMpT1tDSDJdW0NIMl0z

> <s_epik_cmdline>
J2VwaWtfcHl0aG9uJywgJy1waCcsICc3LjAnLCAnLXRuJywgJzgnLCAnLW1hJywgJzIwMCcsICctbWV0YWxfYmluZGluZycsICctaW1hZScsICc8aW5maWxlLm1hZT4nLCAnLW9tYWUnLCAnPG91dGZpbGUubWFlPic=

> <r_lp_tautomer_probability>
1

> <r_epik_Ionization_Penalty>
0.00031779

> <r_epik_Ionization_Penalty_Charging>
0

> <r_epik_Ionization_Penalty_Neutral>
0.00031779

> <r_epik_State_Penalty>
-0

> <r_epik_Charging_Adjusted_Penalty>
0

> <i_epik_Tot_Q>
0

> <i_epik_Tot_abs_Q>
0

> <r_epik_Metal_State_Penalty>
-0

> <b_epik_Metal_Only>
0

> <s_lp_Force_Field>
OPLS_2005

> <r_lp_Energy>
29.3552

> <b_lp_Chiralities_Consistent>
1

> <s_lp_Variant>
AV-unprocessed.smi:2693-3

> <Gold.Version>
5.8.1

> <Gold.Id.Protein>
6NUR|6NUR_protein|mol2

> <Gold.PLP.Fitness>
37.1835

> <Gold.PLP.PLP>
-31.6335

> <Gold.PLP.part.hbond>
-2.0000

> <Gold.PLP.part.metal>
0.0000

> <Gold.PLP.part.buried>
-2.4399

> <Gold.PLP.part.nonpolar>
-27.5363

> <Gold.PLP.part.repulsive>
0.2166

> <Gold.PLP.ligand.clash>
0.0000

> <Gold.PLP.ligand.torsion>
0.2291

> <Gold.PLP.Chemscore.Hbond>
1.9440

> <Gold.PLP.Chemscore.CHOScore>
0.0000

> <Gold.PLP.Chemscore.Metal>
0.0000

> <Gold.Chemscore.Hbonds>
donor molecule, donor type, donor heavy atom, donor atom, acceptor molecule, acceptor atom, score
      L1  H     8    30       P1  7948  0.80
      L1  H    11    31       P1  7948  0.93

> <Gold.PLP.Chemscore.Internal.Correction>
0.1763

> <Gold.Rescore>
     Score         DG    S(hbond)    S(metal)    S(lipo)     H(rot)  DE(clash)    DE(int)     intcor
     14.86     -15.97       1.46        0.00      69.84       1.00       0.14       0.97       ----

> <Gold.Chemscore.Fitness>
14.8570

> <Gold.Chemscore.DG>
-15.9738

> <Gold.Chemscore.ZeroCoef>
-5.4800

> <Gold.Chemscore.Hbond>
1.4617

> <Gold.Chemscore.Metal>
0.0000

> <Gold.Chemscore.Lipo>
69.8444

> <Gold.Chemscore.Internal_Hbond>
0.0000

> <Gold.Chemscore.DEClash>
0.1437

> <Gold.Chemscore.DEInternal>
0.9731

> <Gold.Chemscore.Rot>
1.0000

> <Gold.Chemscore.Internal.Correction>
   9.000000E+99

> <Gold.Chemscore.Hbonds>
donor molecule, donor type, donor heavy atom, donor atom, acceptor molecule, acceptor atom, score
      L1  H     8    30       P1  7948  0.12
      L1  H    11    31       P1  7948  0.87

> <Gold.Chemscore.Hbond.Weighted>
-4.8820

> <Gold.Chemscore.Metal.Weighted>
-0.0000

> <Gold.Chemscore.Lipo.Weighted>
-8.1718

> <Gold.Chemscore.Internal_Hbond.Weighted>
0.0000

> <Gold.Chemscore.DEClash.Weighted>
0.1437

> <Gold.Chemscore.DEInternal.Weighted>
0.9731

> <Gold.Chemscore.Rot.Weighted>
2.5600

> <Gold.Chemscore.Internal.Correction.Weighted>
   9.000000E+99

> <Gold.Protein.RotatedTorsions>
[ 6907 6896 6895 6894 ] final  -99.74 input  -60.11 | X-H torsion
[ 7974 7965 7964 7962 ] final  140.13 input  175.53 | X-H torsion
[ 8008 7997 7996 7995 ] final  149.61 input   59.86 | X-H torsion
[ 10167 10162 10161 10158 ] final  -30.68 input  -65.29 | X-H torsion
[ 10718 10713 10712 10709 ] final -143.49 input   66.30 | X-H torsion
[ 10763 10752 10751 10750 ] final   -4.22 input  -60.55 | X-H torsion
[ 11005 11000 10999 10996 ] final -105.09 input  -57.11 | X-H torsion

> <Gold.Protein.ActiveResidues>
 VAL166  LYS551  ARG553  GLY616  TRP617  ASP618  TYR619  PRO620  LYS621  CYS622 
 ASP623  PHE694  ASN695  SER759  ASP760  ASP761  ALA762  ILE779  LEU786  VAL792 
 PHE793  MET794  SER795  GLU796  ALA797  LYS798  CYS799  TRP800  GLU811  SER814 

> <Gold.Protein.RotatedAtoms>
  150.7090  134.0994  159.3960 H   0  0  0  0  0  0  0  0  0  0  0  0  # atno 6907 bound_to 6896
  151.8980  135.0387  160.0513 H   0  0  0  0  0  0  0  0  0  0  0  0  # atno 6908 bound_to 6896
  152.2437  133.5121  159.5321 H   0  0  0  0  0  0  0  0  0  0  0  0  # atno 6909 bound_to 6896
  144.9215  139.5162  143.5661 H   0  0  0  0  0  0  0  0  0  0  0  0  # atno 7974 bound_to 7965
  156.2748  140.2097  156.5886 H   0  0  0  0  0  0  0  0  0  0  0  0  # atno 8008 bound_to 7997
  154.7001  140.0522  157.0472 H   0  0  0  0  0  0  0  0  0  0  0  0  # atno 8009 bound_to 7997
  155.0747  140.3180  155.4622 H   0  0  0  0  0  0  0  0  0  0  0  0  # atno 8010 bound_to 7997
  140.7246  143.3830  151.1566 H   0  0  0  0  0  0  0  0  0  0  0  0  # atno 10167 bound_to 10162
  156.3586  130.7726  151.1890 H   0  0  0  0  0  0  0  0  0  0  0  0  # atno 10718 bound_to 10713
  153.3819  135.6998  153.6559 H   0  0  0  0  0  0  0  0  0  0  0  0  # atno 10763 bound_to 10752
  153.5166  135.3620  155.2613 H   0  0  0  0  0  0  0  0  0  0  0  0  # atno 10764 bound_to 10752
  154.8693  135.4148  154.3119 H   0  0  0  0  0  0  0  0  0  0  0  0  # atno 10765 bound_to 10752
  141.1070  133.8778  157.1691 H   0  0  0  0  0  0  0  0  0  0  0  0  # atno 11005 bound_to 11000
  146.3206  139.8097  142.8948 LP  0  0  0  0  0  0  0  0  0  0  0  0  # atno 17320 bound_to 7965
  145.3289  141.0262  143.3458 LP  0  0  0  0  0  0  0  0  0  0  0  0  # atno 17321 bound_to 7965
  139.7422  143.8906  152.3053 LP  0  0  0  0  0  0  0  0  0  0  0  0  # atno 17342 bound_to 10162
  139.8732  144.7057  150.8964 LP  0  0  0  0  0  0  0  0  0  0  0  0  # atno 17343 bound_to 10162
  157.7470  131.0406  150.4608 LP  0  0  0  0  0  0  0  0  0  0  0  0  # atno 17370 bound_to 10713
  156.4815  130.4075  149.6459 LP  0  0  0  0  0  0  0  0  0  0  0  0  # atno 17371 bound_to 10713
  139.9945  135.0052  157.0050 LP  0  0  0  0  0  0  0  0  0  0  0  0  # atno 17394 bound_to 11000
  140.4876  134.1226  155.7227 LP  0  0  0  0  0  0  0  0  0  0  0  0  # atno 17395 bound_to 11000

$$$$
