AV-unprocessed.smi:100|AV-procd|sdf|909|dock2
  -GOLD-   2262017403D 1   1.00000     0.00000
 Structure written by MMmdl.
 31 33  0  0  0  0  0  0  0  0  1 V2000
  151.3919  137.5352  153.9136 N   0  0  0  0  0  0  0  0  0  0  0  0
  151.5517  137.7001  155.2338 C   0  0  0  0  0  0  0  0  0  0  0  0
  151.7994  136.6072  155.9927 N   0  0  0  0  0  0  0  0  0  0  0  0
  151.9619  136.7464  157.3122 C   0  0  0  0  0  0  0  0  0  0  0  0
  151.9173  137.8614  158.0458 N   0  0  0  0  0  0  0  0  0  0  0  0
  151.6675  138.9641  157.2807 C   0  0  0  0  0  0  0  0  0  0  0  0
  151.4719  138.9641  155.8711 C   0  0  0  0  0  0  0  0  0  0  0  0
  151.2366  140.2568  155.4248 N   0  0  0  0  0  0  0  0  0  0  0  0
  151.2909  140.9776  156.5121 C   0  0  0  0  0  0  0  0  0  0  0  0
  151.5458  140.2834  157.6752 N   0  0  0  0  0  0  0  0  0  0  0  0
  151.6599  140.8553  159.0583 C   0  0  2  0  0  0  0  0  0  0  0  0
  151.4473  142.2370  159.0206 O   0  0  0  0  0  0  0  0  0  0  0  0
  152.6182  142.9223  159.4580 C   0  0  1  0  0  0  0  0  0  0  0  0
  152.2581  144.2832  160.0733 C   0  0  0  0  0  0  0  0  0  0  0  0
  151.3774  144.1118  161.1634 O   0  0  0  0  0  0  0  0  0  0  0  0
  153.3012  141.9269  160.3988 C   0  0  1  0  0  0  0  0  0  0  0  0
  152.7138  141.9231  161.5978 F   0  0  0  0  0  0  0  0  0  0  0  0
  153.0363  140.6018  159.7084 C   0  0  2  0  0  0  0  0  0  0  0  0
  154.0716  140.2895  158.7928 O   0  0  0  0  0  0  0  0  0  0  0  0
  151.2051  138.3352  153.3262 H   0  0  0  0  0  0  0  0  0  0  0  0
  151.4594  136.6126  153.5090 H   0  0  0  0  0  0  0  0  0  0  0  0
  152.1548  135.8353  157.8589 H   0  0  0  0  0  0  0  0  0  0  0  0
  151.1434  142.0477  156.4957 H   0  0  0  0  0  0  0  0  0  0  0  0
  150.8412  140.3957  159.6139 H   0  0  0  0  0  0  0  0  0  0  0  0
  153.2596  143.0804  158.5906 H   0  0  0  0  0  0  0  0  0  0  0  0
  153.1601  144.7768  160.4359 H   0  0  0  0  0  0  0  0  0  0  0  0
  151.8055  144.9461  159.3353 H   0  0  0  0  0  0  0  0  0  0  0  0
  151.7272  144.5762  161.9083 H   0  0  0  0  0  0  0  0  0  0  0  0
  154.3597  142.1375  160.5575 H   0  0  0  0  0  0  0  0  0  0  0  0
  152.9584  139.7796  160.4207 H   0  0  0  0  0  0  0  0  0  0  0  0
  154.8998  140.3549  159.2437 H   0  0  0  0  0  0  0  0  0  0  0  0
  1  2  1  0  0  0  0
  1 20  1  0  0  0  0
  1 21  1  0  0  0  0
  2  7  1  0  0  0  0
  2  3  2  0  0  0  0
  3  4  1  0  0  0  0
  4  5  2  0  0  0  0
  4 22  1  0  0  0  0
  5  6  1  0  0  0  0
  6 10  1  0  0  0  0
  6  7  2  0  0  0  0
  7  8  1  0  0  0  0
  8  9  2  0  0  0  0
  9 10  1  0  0  0  0
  9 23  1  0  0  0  0
 10 11  1  0  0  0  0
 11 18  1  0  0  0  0
 11 12  1  0  0  0  0
 11 24  1  0  0  0  0
 12 13  1  0  0  0  0
 13 14  1  0  0  0  0
 13 16  1  0  0  0  0
 13 25  1  0  0  0  0
 14 15  1  0  0  0  0
 14 26  1  0  0  0  0
 14 27  1  0  0  0  0
 15 28  1  0  0  0  0
 16 17  1  0  0  0  0
 16 18  1  0  0  0  0
 16 29  1  0  0  0  0
 18 19  1  0  0  0  0
 18 30  1  0  0  0  0
 19 31  1  0  0  0  0
M  END
> <s_m_source_file>
AV-unprocessed.smi

> <i_m_source_file_index>
100

> <i_lp_mmshare_version>
43012

> <i_f3d_flags>
0

> <s_epik_input>
bjFbY0hdbmMoW05IMl0pYyhjMTIpbltjSF1uMltDQEBIXTNPW0NAQEhdKFtDSDJdW09IXSlbQ0BIXShGKVtDQEhdM1tPSF0=

> <s_epik_cmdline>
J2VwaWtfcHl0aG9uJywgJy1waCcsICc3LjAnLCAnLXRuJywgJzgnLCAnLW1hJywgJzIwMCcsICctbWV0YWxfYmluZGluZycsICctaW1hZScsICc8aW5maWxlLm1hZT4nLCAnLW9tYWUnLCAnPG91dGZpbGUubWFlPic=

> <r_lp_tautomer_probability>
1

> <r_epik_Ionization_Penalty>
0.000750324

> <r_epik_Ionization_Penalty_Charging>
0

> <r_epik_Ionization_Penalty_Neutral>
0.000750324

> <r_epik_State_Penalty>
-0

> <r_epik_Charging_Adjusted_Penalty>
0

> <i_epik_Tot_Q>
0

> <i_epik_Tot_abs_Q>
0

> <r_epik_Metal_State_Penalty>
-0

> <b_epik_Metal_Only>
0

> <s_epik_Chemistry_Notes>
This compound contains an acetal/aminal-like group ( X-CH(R)-Y where X, Y are N, S, or O) that may be acid/base labile, releasing an aldehyde.

> <s_lp_Force_Field>
OPLS_2005

> <r_lp_Energy>
35.7638

> <b_lp_Chiralities_Consistent>
1

> <s_lp_Variant>
AV-unprocessed.smi:100-13

> <Gold.Version>
5.8.1

> <Gold.Id.Protein>
6NUR|6NUR_protein|mol2

> <Gold.PLP.Fitness>
43.7248

> <Gold.PLP.PLP>
-33.5454

> <Gold.PLP.part.hbond>
-4.0277

> <Gold.PLP.part.metal>
0.0000

> <Gold.PLP.part.buried>
-3.0960

> <Gold.PLP.part.nonpolar>
-25.9060

> <Gold.PLP.part.repulsive>
0.1872

> <Gold.PLP.ligand.clash>
0.0000

> <Gold.PLP.ligand.torsion>
0.0017

> <Gold.PLP.Chemscore.Hbond>
3.3937

> <Gold.PLP.Chemscore.CHOScore>
0.0000

> <Gold.PLP.Chemscore.Metal>
0.0000

> <Gold.Chemscore.Hbonds>
donor molecule, donor type, donor heavy atom, donor atom, acceptor molecule, acceptor atom, score
      L1  H     1    21       P1  7949  0.45
      P1  H  7989  7998       L1     8  0.94
      P1  H  7997  8008       L1    19  0.70
      P1  H 10752 10765       L1     3  1.00

> <Gold.PLP.Chemscore.Internal.Correction>
0.0016

> <Gold.Rescore>
     Score         DG    S(hbond)    S(metal)    S(lipo)     H(rot)  DE(clash)    DE(int)     intcor
      7.97     -11.08       2.43        0.00      48.35       3.19       1.50       1.61       ----

> <Gold.Chemscore.Fitness>
7.9712

> <Gold.Chemscore.DG>
-11.0807

> <Gold.Chemscore.ZeroCoef>
-5.4800

> <Gold.Chemscore.Hbond>
2.4284

> <Gold.Chemscore.Metal>
0.0000

> <Gold.Chemscore.Lipo>
48.3455

> <Gold.Chemscore.Internal_Hbond>
0.0000

> <Gold.Chemscore.DEClash>
1.4990

> <Gold.Chemscore.DEInternal>
1.6105

> <Gold.Chemscore.Rot>
3.1901

> <Gold.Chemscore.Internal.Correction>
   9.000000E+99

> <Gold.Chemscore.Hbonds>
donor molecule, donor type, donor heavy atom, donor atom, acceptor molecule, acceptor atom, score
      L1  H     1    21       P1  7949  0.37
      P1  H  7989  7998       L1     8  0.85
      P1  H  7997  8008       L1    19  0.18
      P1  H 10752 10765       L1     3  0.24

> <Gold.Chemscore.Hbond.Weighted>
-8.1109

> <Gold.Chemscore.Metal.Weighted>
-0.0000

> <Gold.Chemscore.Lipo.Weighted>
-5.6564

> <Gold.Chemscore.Internal_Hbond.Weighted>
0.0000

> <Gold.Chemscore.DEClash.Weighted>
1.4990

> <Gold.Chemscore.DEInternal.Weighted>
1.6105

> <Gold.Chemscore.Rot.Weighted>
8.1667

> <Gold.Chemscore.Internal.Correction.Weighted>
   9.000000E+99

> <Gold.Protein.RotatedTorsions>
[ 6907 6896 6895 6894 ] final  105.87 input  -60.11 | X-H torsion
[ 7974 7965 7964 7962 ] final  -31.20 input  175.53 | X-H torsion
[ 8008 7997 7996 7995 ] final  -88.38 input   59.86 | X-H torsion
[ 10167 10162 10161 10158 ] final  -23.98 input  -65.29 | X-H torsion
[ 10718 10713 10712 10709 ] final    7.04 input   66.30 | X-H torsion
[ 10763 10752 10751 10750 ] final -173.50 input  -60.55 | X-H torsion
[ 11005 11000 10999 10996 ] final  155.95 input  -57.11 | X-H torsion

> <Gold.Protein.ActiveResidues>
 VAL166  LYS551  ARG553  GLY616  TRP617  ASP618  TYR619  PRO620  LYS621  CYS622 
 ASP623  PHE694  ASN695  SER759  ASP760  ASP761  ALA762  ILE779  LEU786  VAL792 
 PHE793  MET794  SER795  GLU796  ALA797  LYS798  CYS799  TRP800  GLU811  SER814 

> <Gold.Protein.RotatedAtoms>
  152.5215  133.9464  159.7650 H   0  0  0  0  0  0  0  0  0  0  0  0  # atno 6907 bound_to 6896
  150.9783  133.6263  159.2733 H   0  0  0  0  0  0  0  0  0  0  0  0  # atno 6908 bound_to 6896
  151.3450  135.0878  159.9436 H   0  0  0  0  0  0  0  0  0  0  0  0  # atno 6909 bound_to 6896
  146.1086  140.5636  142.8788 H   0  0  0  0  0  0  0  0  0  0  0  0  # atno 7974 bound_to 7965
  154.6741  140.0554  157.0197 H   0  0  0  0  0  0  0  0  0  0  0  0  # atno 8008 bound_to 7997
  155.1046  140.3232  155.4519 H   0  0  0  0  0  0  0  0  0  0  0  0  # atno 8009 bound_to 7997
  156.2669  140.2025  156.6171 H   0  0  0  0  0  0  0  0  0  0  0  0  # atno 8010 bound_to 7997
  140.7288  143.4394  151.0679 H   0  0  0  0  0  0  0  0  0  0  0  0  # atno 10167 bound_to 10162
  156.9310  130.5826  149.5649 H   0  0  0  0  0  0  0  0  0  0  0  0  # atno 10718 bound_to 10713
  154.6071  135.2860  155.0473 H   0  0  0  0  0  0  0  0  0  0  0  0  # atno 10763 bound_to 10752
  154.1716  135.6471  153.5015 H   0  0  0  0  0  0  0  0  0  0  0  0  # atno 10764 bound_to 10752
  153.0180  135.5402  154.6811 H   0  0  0  0  0  0  0  0  0  0  0  0  # atno 10765 bound_to 10752
  140.1629  134.8596  157.2597 H   0  0  0  0  0  0  0  0  0  0  0  0  # atno 11005 bound_to 11000
  144.7492  140.5146  143.6814 LP  0  0  0  0  0  0  0  0  0  0  0  0  # atno 17320 bound_to 7965
  145.5711  139.1483  143.3288 LP  0  0  0  0  0  0  0  0  0  0  0  0  # atno 17321 bound_to 7965
  139.8060  143.8017  152.3167 LP  0  0  0  0  0  0  0  0  0  0  0  0  # atno 17342 bound_to 10162
  139.8050  144.7359  150.9773 LP  0  0  0  0  0  0  0  0  0  0  0  0  # atno 17343 bound_to 10162
  156.0447  130.5525  150.8853 LP  0  0  0  0  0  0  0  0  0  0  0  0  # atno 17370 bound_to 10713
  157.5847  131.0946  150.9215 LP  0  0  0  0  0  0  0  0  0  0  0  0  # atno 17371 bound_to 10713
  140.2468  134.3731  155.7458 LP  0  0  0  0  0  0  0  0  0  0  0  0  # atno 17394 bound_to 11000
  141.2211  133.7295  156.8873 LP  0  0  0  0  0  0  0  0  0  0  0  0  # atno 17395 bound_to 11000

$$$$
