AV-unprocessed.smi:1775|AV-procd|sdf|7172|dock7
  -GOLD-   22720 8413D 1   1.00000     0.00000
 Structure written by MMmdl.
 37 39  0  0  0  0  0  0  0  0  2 V2000
  149.8453  136.8741  156.2337 O   0  0  0  0  0  0  0  0  0  0  0  0
  150.2133  136.6163  155.0878 C   0  0  0  0  0  0  0  0  0  0  0  0
  150.4623  135.3881  154.5987 N   0  0  0  0  0  0  0  0  0  0  0  0
  150.3290  134.1378  155.2253 C   0  0  0  0  0  0  0  0  0  0  0  0
  149.6960  133.0611  154.6823 C   0  0  0  0  0  0  0  0  0  0  0  0
  149.6014  131.7814  155.3734 C   0  0  0  0  0  0  0  0  0  0  0  0
  148.8196  130.5929  154.8425 C   0  0  0  0  0  0  0  0  0  0  0  0
  149.6193  129.5469  154.6337 F   0  0  0  0  0  0  0  0  0  0  0  0
  147.8643  130.2281  155.6978 F   0  0  0  0  0  0  0  0  0  0  0  0
  148.2416  130.9113  153.6853 F   0  0  0  0  0  0  0  0  0  0  0  0
  150.2106  131.8091  156.6130 C   0  0  0  0  0  0  0  0  0  0  0  0
  150.8810  132.8190  157.2093 N   0  5  0  0  0  0  0  0  0  0  0  0
  150.9661  134.0103  156.5524 C   0  0  0  0  0  0  0  0  0  0  0  0
  151.5595  134.9736  157.0393 O   0  0  0  0  0  0  0  0  0  0  0  0
  150.4418  137.5522  154.1536 N   0  0  0  0  0  0  0  0  0  0  0  0
  150.3050  138.9989  154.3099 C   0  0  0  0  0  0  0  0  0  0  0  0
  151.3889  139.6270  155.1732 C   0  0  0  0  0  0  0  0  0  0  0  0
  152.6677  138.8872  155.4867 C   0  0  0  0  0  0  0  0  0  0  0  0
  151.6499  139.1372  156.5769 C   0  0  0  0  0  0  0  0  0  0  0  0
  148.9221  139.4412  154.7653 C   0  0  0  0  0  0  0  0  0  0  0  0
  147.7302  139.3443  153.8443 C   0  0  0  0  0  0  0  0  0  0  0  0
  148.2835  140.6993  154.2262 C   0  0  0  0  0  0  0  0  0  0  0  0
  150.8366  135.3445  153.6623 H   0  0  0  0  0  0  0  0  0  0  0  0
  149.2576  133.1169  153.6993 H   0  0  0  0  0  0  0  0  0  0  0  0
  150.1464  130.8800  157.2186 H   0  0  0  0  0  0  0  0  0  0  0  0
  150.7455  137.2319  153.2457 H   0  0  0  0  0  0  0  0  0  0  0  0
  150.4418  139.3920  153.3015 H   0  0  0  0  0  0  0  0  0  0  0  0
  151.4996  140.6994  155.0229 H   0  0  0  0  0  0  0  0  0  0  0  0
  152.7699  137.8661  155.1251 H   0  0  0  0  0  0  0  0  0  0  0  0
  153.5883  139.4666  155.5145 H   0  0  0  0  0  0  0  0  0  0  0  0
  151.8911  139.8835  157.3312 H   0  0  0  0  0  0  0  0  0  0  0  0
  151.0732  138.2851  156.9315 H   0  0  0  0  0  0  0  0  0  0  0  0
  148.7219  139.2363  155.8154 H   0  0  0  0  0  0  0  0  0  0  0  0
  147.9028  138.9996  152.8268 H   0  0  0  0  0  0  0  0  0  0  0  0
  146.7813  139.0438  154.2840 H   0  0  0  0  0  0  0  0  0  0  0  0
  147.7022  141.3030  154.9201 H   0  0  0  0  0  0  0  0  0  0  0  0
  148.8173  141.2552  153.4582 H   0  0  0  0  0  0  0  0  0  0  0  0
  1  2  2  0  0  0  0
  2  3  1  0  0  0  0
  2 15  1  0  0  0  0
  3  4  1  0  0  0  0
  3 23  1  0  0  0  0
  4 13  1  0  0  0  0
  4  5  2  0  0  0  0
  5  6  1  0  0  0  0
  5 24  1  0  0  0  0
  6  7  1  0  0  0  0
  6 11  2  0  0  0  0
  7  8  1  0  0  0  0
  7  9  1  0  0  0  0
  7 10  1  0  0  0  0
 11 12  1  0  0  0  0
 11 25  1  0  0  0  0
 12 13  1  0  0  0  0
 13 14  2  0  0  0  0
 15 16  1  0  0  0  0
 15 26  1  0  0  0  0
 16 17  1  0  0  0  0
 16 20  1  0  0  0  0
 16 27  1  0  0  0  0
 17 19  1  0  0  0  0
 17 18  1  0  0  0  0
 17 28  1  0  0  0  0
 18 19  1  0  0  0  0
 18 29  1  0  0  0  0
 18 30  1  0  0  0  0
 19 31  1  0  0  0  0
 19 32  1  0  0  0  0
 20 22  1  0  0  0  0
 20 21  1  0  0  0  0
 20 33  1  0  0  0  0
 21 22  1  0  0  0  0
 21 34  1  0  0  0  0
 21 35  1  0  0  0  0
 22 36  1  0  0  0  0
 22 37  1  0  0  0  0
M  CHG  1  12  -1
M  END
> <s_m_source_file>
AV-unprocessed.smi

> <i_m_source_file_index>
1775

> <i_lp_mmshare_version>
43012

> <i_f3d_flags>
0

> <s_epik_input>
W0NIMl0xW0NIMl1bQ0hdMVtDSF0oW0NIXTJbQ0gyXVtDSDJdMilbTkhdQyg9TylbTkhdYzNbY0hdYyhDKEYpKEYpRilbY0hdW25IXWMzPU8=

> <s_epik_cmdline>
J2VwaWtfcHl0aG9uJywgJy1waCcsICc3LjAnLCAnLXRuJywgJzgnLCAnLW1hJywgJzIwMCcsICctbWV0YWxfYmluZGluZycsICctaW1hZScsICc8aW5maWxlLm1hZT4nLCAnLW9tYWUnLCAnPG91dGZpbGUubWFlPic=

> <r_lp_tautomer_probability>
1

> <r_epik_Ionization_Penalty>
3.19177

> <r_epik_Ionization_Penalty_Charging>
0.180322

> <r_epik_Ionization_Penalty_Neutral>
3.01145

> <r_epik_State_Penalty>
3.00772

> <r_epik_Charging_Adjusted_Penalty>
3.18804

> <i_epik_Tot_Q>
-1

> <i_epik_Tot_abs_Q>
1

> <r_epik_Metal_State_Penalty>
0.454354

> <b_epik_Metal_Only>
1

> <s_lp_Force_Field>
OPLS_2005

> <r_lp_Energy>
38.3623

> <b_lp_Chiralities_Consistent>
1

> <s_lp_Variant>
AV-unprocessed.smi:1775-2

> <Gold.Version>
5.8.1

> <Gold.Id.Protein>
6NUR|6NUR_protein|mol2

> <Gold.PLP.Fitness>
43.7778

> <Gold.PLP.PLP>
-34.1021

> <Gold.PLP.part.hbond>
-5.1032

> <Gold.PLP.part.metal>
0.0000

> <Gold.PLP.part.buried>
2.0987

> <Gold.PLP.part.nonpolar>
-29.8605

> <Gold.PLP.part.repulsive>
0.2142

> <Gold.PLP.ligand.clash>
0.0000

> <Gold.PLP.ligand.torsion>
1.7088

> <Gold.PLP.Chemscore.Hbond>
3.6209

> <Gold.PLP.Chemscore.CHOScore>
0.0000

> <Gold.PLP.Chemscore.Metal>
0.0000

> <Gold.Chemscore.Hbonds>
donor molecule, donor type, donor heavy atom, donor atom, acceptor molecule, acceptor atom, score
      L1  H     3    23       P1  7949  0.24
      L1  H    15    26       P1  7949  0.45
      P1  H  6896  6909       L1    12  1.53

> <Gold.PLP.Chemscore.Internal.Correction>
2.2306

> <Gold.Rescore>
     Score         DG    S(hbond)    S(metal)    S(lipo)     H(rot)  DE(clash)    DE(int)     intcor
      8.58     -14.80       1.29        0.00      75.44       1.49       1.12       5.09       ----

> <Gold.Chemscore.Fitness>
8.5826

> <Gold.Chemscore.DG>
-14.7950

> <Gold.Chemscore.ZeroCoef>
-5.4800

> <Gold.Chemscore.Hbond>
1.2856

> <Gold.Chemscore.Metal>
0.0000

> <Gold.Chemscore.Lipo>
75.4391

> <Gold.Chemscore.Internal_Hbond>
0.0000

> <Gold.Chemscore.DEClash>
1.1174

> <Gold.Chemscore.DEInternal>
5.0950

> <Gold.Chemscore.Rot>
1.4864

> <Gold.Chemscore.Internal.Correction>
   9.000000E+99

> <Gold.Chemscore.Hbonds>
donor molecule, donor type, donor heavy atom, donor atom, acceptor molecule, acceptor atom, score
      L1  H     3    23       P1  7949  0.02
      L1  H    15    26       P1  7949  0.06
      P1  H  6896  6909       L1    12  0.25

> <Gold.Chemscore.Hbond.Weighted>
-4.2938

> <Gold.Chemscore.Metal.Weighted>
-0.0000

> <Gold.Chemscore.Lipo.Weighted>
-8.8264

> <Gold.Chemscore.Internal_Hbond.Weighted>
0.0000

> <Gold.Chemscore.DEClash.Weighted>
1.1174

> <Gold.Chemscore.DEInternal.Weighted>
5.0950

> <Gold.Chemscore.Rot.Weighted>
3.8052

> <Gold.Chemscore.Internal.Correction.Weighted>
   9.000000E+99

> <Gold.Protein.RotatedTorsions>
[ 6907 6896 6895 6894 ] final  -41.58 input  -60.11 | X-H torsion
[ 7974 7965 7964 7962 ] final  -49.56 input  175.53 | X-H torsion
[ 8008 7997 7996 7995 ] final  -32.25 input   59.86 | X-H torsion
[ 10167 10162 10161 10158 ] final -149.56 input  -65.29 | X-H torsion
[ 10718 10713 10712 10709 ] final   62.97 input   66.30 | X-H torsion
[ 10763 10752 10751 10750 ] final  103.32 input  -60.55 | X-H torsion
[ 11005 11000 10999 10996 ] final  139.34 input  -57.11 | X-H torsion

> <Gold.Protein.ActiveResidues>
 VAL166  LYS551  ARG553  GLY616  TRP617  ASP618  TYR619  PRO620  LYS621  CYS622 
 ASP623  PHE694  ASN695  SER759  ASP760  ASP761  ALA762  ILE779  LEU786  VAL792 
 PHE793  MET794  SER795  GLU796  ALA797  LYS798  CYS799  TRP800  GLU811  SER814 

> <Gold.Protein.RotatedAtoms>
  150.9651  134.9033  159.7754 H   0  0  0  0  0  0  0  0  0  0  0  0  # atno 6907 bound_to 6896
  152.5170  134.3618  159.9297 H   0  0  0  0  0  0  0  0  0  0  0  0  # atno 6908 bound_to 6896
  151.3629  133.3842  159.2726 H   0  0  0  0  0  0  0  0  0  0  0  0  # atno 6909 bound_to 6896
  145.9392  140.7678  142.9560 H   0  0  0  0  0  0  0  0  0  0  0  0  # atno 7974 bound_to 7965
  154.4186  140.1742  156.1696 H   0  0  0  0  0  0  0  0  0  0  0  0  # atno 8008 bound_to 7997
  155.9771  140.3380  155.6604 H   0  0  0  0  0  0  0  0  0  0  0  0  # atno 8009 bound_to 7997
  155.6549  140.0694  157.2565 H   0  0  0  0  0  0  0  0  0  0  0  0  # atno 8010 bound_to 7997
  139.7432  143.8630  152.2568 H   0  0  0  0  0  0  0  0  0  0  0  0  # atno 10167 bound_to 10162
  157.5939  130.9080  149.9656 H   0  0  0  0  0  0  0  0  0  0  0  0  # atno 10718 bound_to 10713
  153.3511  135.3980  155.1647 H   0  0  0  0  0  0  0  0  0  0  0  0  # atno 10763 bound_to 10752
  154.8662  135.3657  154.5220 H   0  0  0  0  0  0  0  0  0  0  0  0  # atno 10764 bound_to 10752
  153.5672  135.7080  153.5581 H   0  0  0  0  0  0  0  0  0  0  0  0  # atno 10765 bound_to 10752
  140.0248  134.9380  157.0546 H   0  0  0  0  0  0  0  0  0  0  0  0  # atno 11005 bound_to 11000
  144.6776  140.2253  143.7361 LP  0  0  0  0  0  0  0  0  0  0  0  0  # atno 17320 bound_to 7965
  145.8322  139.2091  143.1876 LP  0  0  0  0  0  0  0  0  0  0  0  0  # atno 17321 bound_to 7965
  139.8587  144.7128  150.9126 LP  0  0  0  0  0  0  0  0  0  0  0  0  # atno 17342 bound_to 10162
  140.7788  143.3836  151.1433 LP  0  0  0  0  0  0  0  0  0  0  0  0  # atno 17343 bound_to 10162
  156.0998  130.3656  150.0240 LP  0  0  0  0  0  0  0  0  0  0  0  0  # atno 17370 bound_to 10713
  156.8357  130.9408  151.3635 LP  0  0  0  0  0  0  0  0  0  0  0  0  # atno 17371 bound_to 10713
  140.4326  134.1765  155.7169 LP  0  0  0  0  0  0  0  0  0  0  0  0  # atno 17394 bound_to 11000
  141.1796  133.8442  157.1304 LP  0  0  0  0  0  0  0  0  0  0  0  0  # atno 17395 bound_to 11000

$$$$
