AV-unprocessed.smi:1487|AV-procd|sdf|6007|dock7
  -GOLD-   22720 6103D 1   1.00000     0.00000
 Structure written by MMmdl.
 48 50  0  0  0  0  0  0  0  0  2 V2000
  153.0154  142.8865  161.3235 C   0  0  0  0  0  0  0  0  0  0  0  0
  152.2862  142.6281  160.0165 C   0  0  0  0  0  0  0  0  0  0  0  0
  152.1156  141.2961  159.5769 C   0  0  0  0  0  0  0  0  0  0  0  0
  151.4457  141.0128  158.3668 C   0  0  0  0  0  0  0  0  0  0  0  0
  151.1661  139.8024  157.7562 N   0  0  0  0  0  0  0  0  0  0  0  0
  150.5222  140.1960  156.6616 C   0  0  0  0  0  0  0  0  0  0  0  0
  150.3440  141.5204  156.4944 N   0  0  0  0  0  0  0  0  0  0  0  0
  149.6637  142.1761  155.3930 C   0  0  0  0  0  0  0  0  0  0  0  0
  148.9443  141.1771  154.4655 C   0  0  2  0  0  0  0  0  0  0  0  0
  149.8895  140.7270  153.5156 O   0  0  0  0  0  0  0  0  0  0  0  0
  147.7337  141.7925  153.7259 C   0  0  0  0  0  0  0  0  0  0  0  0
  146.9668  142.7539  154.5590 N   0  3  1  0  0  0  0  0  0  0  0  0
  145.8574  143.4189  153.8219 C   0  0  0  0  0  0  0  0  0  0  0  0
  145.1700  144.4853  154.6915 C   0  0  0  0  0  0  0  0  0  0  0  0
  144.6611  143.8788  156.0052 C   0  0  0  0  0  0  0  0  0  0  0  0
  145.8155  143.1760  156.7339 C   0  0  1  0  0  0  0  0  0  0  0  0
  145.3220  142.5345  157.8900 O   0  0  0  0  0  0  0  0  0  0  0  0
  146.4874  142.1338  155.8217 C   0  0  0  0  0  0  0  0  0  0  0  0
  150.9467  142.1075  157.6022 C   0  0  0  0  0  0  0  0  0  0  0  0
  151.1080  143.4373  158.0300 C   0  0  0  0  0  0  0  0  0  0  0  0
  151.7796  143.7024  159.2418 C   0  0  0  0  0  0  0  0  0  0  0  0
  151.9484  145.1415  159.6956 C   0  0  0  0  0  0  0  0  0  0  0  0
  153.3807  141.9592  161.7658 H   0  0  0  0  0  0  0  0  0  0  0  0
  152.3496  143.3617  162.0442 H   0  0  0  0  0  0  0  0  0  0  0  0
  153.8738  143.5388  161.1620 H   0  0  0  0  0  0  0  0  0  0  0  0
  152.4999  140.4775  160.1676 H   0  0  0  0  0  0  0  0  0  0  0  0
  150.1517  139.4803  155.9420 H   0  0  0  0  0  0  0  0  0  0  0  0
  148.9556  142.8983  155.8017 H   0  0  0  0  0  0  0  0  0  0  0  0
  150.4019  142.7500  154.8308 H   0  0  0  0  0  0  0  0  0  0  0  0
  148.6357  140.3222  155.0657 H   0  0  0  0  0  0  0  0  0  0  0  0
  149.4777  140.0955  152.9465 H   0  0  0  0  0  0  0  0  0  0  0  0
  148.0464  142.3048  152.8155 H   0  0  0  0  0  0  0  0  0  0  0  0
  147.0815  140.9786  153.4044 H   0  0  0  0  0  0  0  0  0  0  0  0
  146.2306  143.8950  152.9163 H   0  0  0  0  0  0  0  0  0  0  0  0
  145.1295  142.6701  153.5054 H   0  0  0  0  0  0  0  0  0  0  0  0
  145.8716  145.2927  154.9061 H   0  0  0  0  0  0  0  0  0  0  0  0
  144.3402  144.9337  154.1441 H   0  0  0  0  0  0  0  0  0  0  0  0
  144.2280  144.6567  156.6356 H   0  0  0  0  0  0  0  0  0  0  0  0
  143.8625  143.1663  155.7921 H   0  0  0  0  0  0  0  0  0  0  0  0
  146.5541  143.9153  157.0469 H   0  0  0  0  0  0  0  0  0  0  0  0
  146.0289  142.0566  158.2972 H   0  0  0  0  0  0  0  0  0  0  0  0
  145.7914  141.3268  155.5853 H   0  0  0  0  0  0  0  0  0  0  0  0
  147.3283  141.6832  156.3509 H   0  0  0  0  0  0  0  0  0  0  0  0
  150.7178  144.2471  157.4317 H   0  0  0  0  0  0  0  0  0  0  0  0
  151.4586  145.8350  159.0115 H   0  0  0  0  0  0  0  0  0  0  0  0
  153.0054  145.4057  159.7405 H   0  0  0  0  0  0  0  0  0  0  0  0
  151.5125  145.2853  160.6845 H   0  0  0  0  0  0  0  0  0  0  0  0
  147.6172  143.4761  154.8333 H   0  0  0  0  0  0  0  0  0  0  0  0
  1  2  1  0  0  0  0
  1 23  1  0  0  0  0
  1 24  1  0  0  0  0
  1 25  1  0  0  0  0
  2 21  1  0  0  0  0
  2  3  2  0  0  0  0
  3  4  1  0  0  0  0
  3 26  1  0  0  0  0
  4 19  2  0  0  0  0
  4  5  1  0  0  0  0
  5  6  2  0  0  0  0
  6  7  1  0  0  0  0
  6 27  1  0  0  0  0
  7  8  1  0  0  0  0
  7 19  1  0  0  0  0
  8  9  1  0  0  0  0
  8 28  1  0  0  0  0
  8 29  1  0  0  0  0
  9 10  1  0  0  0  0
  9 11  1  0  0  0  0
  9 30  1  0  0  0  0
 10 31  1  0  0  0  0
 11 12  1  0  0  0  0
 11 32  1  0  0  0  0
 11 33  1  0  0  0  0
 12 18  1  0  0  0  0
 12 13  1  0  0  0  0
 12 48  1  0  0  0  0
 13 14  1  0  0  0  0
 13 34  1  0  0  0  0
 13 35  1  0  0  0  0
 14 15  1  0  0  0  0
 14 36  1  0  0  0  0
 14 37  1  0  0  0  0
 15 16  1  0  0  0  0
 15 38  1  0  0  0  0
 15 39  1  0  0  0  0
 16 17  1  0  0  0  0
 16 18  1  0  0  0  0
 16 40  1  0  0  0  0
 17 41  1  0  0  0  0
 18 42  1  0  0  0  0
 18 43  1  0  0  0  0
 19 20  1  0  0  0  0
 20 21  2  0  0  0  0
 20 44  1  0  0  0  0
 21 22  1  0  0  0  0
 22 45  1  0  0  0  0
 22 46  1  0  0  0  0
 22 47  1  0  0  0  0
M  CHG  1  12   1
M  END
> <s_m_source_file>
AV-unprocessed.smi

> <i_m_source_file_index>
1487

> <i_lp_mmshare_version>
43012

> <i_f3d_flags>
0

> <s_epik_input>
W0NIM11jKFtjSF0xKWMoW0NIM10pW2NIXWMoYzEyKW4oW2NIXW4yKVtDSDJdW0NASF0oW09IXSlbQ0gyXU4zW0NIMl1bQ0gyXVtDSDJdW0NAQEhdKFtPSF0pW0NIMl0z

> <s_epik_cmdline>
J2VwaWtfcHl0aG9uJywgJy1waCcsICc3LjAnLCAnLXRuJywgJzgnLCAnLW1hJywgJzIwMCcsICctbWV0YWxfYmluZGluZycsICctaW1hZScsICc8aW5maWxlLm1hZT4nLCAnLW9tYWUnLCAnPG91dGZpbGUubWFlPic=

> <r_epik_Ionization_Penalty>
0.0940186

> <r_epik_Ionization_Penalty_Charging>
0.00679686

> <r_epik_Ionization_Penalty_Neutral>
0.0872218

> <r_epik_State_Penalty>
0.0799311

> <r_epik_Charging_Adjusted_Penalty>
0.086728

> <i_epik_Tot_Q>
1

> <i_epik_Tot_abs_Q>
1

> <r_epik_Metal_State_Penalty>
7.95545e-05

> <b_epik_Metal_Only>
0

> <s_lp_Force_Field>
OPLS_2005

> <r_lp_Energy>
20.897

> <b_lp_Chiralities_Consistent>
1

> <s_lp_Variant>
AV-unprocessed.smi:1487-1

> <Gold.Version>
5.8.1

> <Gold.Id.Protein>
6NUR|6NUR_protein|mol2

> <Gold.PLP.Fitness>
56.8058

> <Gold.PLP.PLP>
-46.2187

> <Gold.PLP.part.hbond>
-3.1775

> <Gold.PLP.part.metal>
0.0000

> <Gold.PLP.part.buried>
-3.0228

> <Gold.PLP.part.nonpolar>
-38.5908

> <Gold.PLP.part.repulsive>
0.1122

> <Gold.PLP.ligand.clash>
0.0000

> <Gold.PLP.ligand.torsion>
0.6163

> <Gold.PLP.Chemscore.Hbond>
3.9280

> <Gold.PLP.Chemscore.CHOScore>
0.0000

> <Gold.PLP.Chemscore.Metal>
0.0000

> <Gold.Chemscore.Hbonds>
donor molecule, donor type, donor heavy atom, donor atom, acceptor molecule, acceptor atom, score
      L1  H    10    31       P1  7957  0.51
      L1  H    12    48       P1  8028  2.00
      P1  H  7989  7998       L1    10  0.40
      P1  H  8011  8017       L1    10  0.74

> <Gold.PLP.Chemscore.Internal.Correction>
0.0358

> <Gold.Rescore>
     Score         DG    S(hbond)    S(metal)    S(lipo)     H(rot)  DE(clash)    DE(int)     intcor
     16.52     -18.53       1.57        0.00     125.09       2.67       1.40       0.60       ----

> <Gold.Chemscore.Fitness>
16.5205

> <Gold.Chemscore.DG>
-18.5250

> <Gold.Chemscore.ZeroCoef>
-5.4800

> <Gold.Chemscore.Hbond>
1.5712

> <Gold.Chemscore.Metal>
0.0000

> <Gold.Chemscore.Lipo>
125.0903

> <Gold.Chemscore.Internal_Hbond>
0.0000

> <Gold.Chemscore.DEClash>
1.4029

> <Gold.Chemscore.DEInternal>
0.6017

> <Gold.Chemscore.Rot>
2.6712

> <Gold.Chemscore.Internal.Correction>
   9.000000E+99

> <Gold.Chemscore.Hbonds>
donor molecule, donor type, donor heavy atom, donor atom, acceptor molecule, acceptor atom, score
      L1  H    10    31       P1  7957  0.52
      L1  H    12    48       P1  8028  0.30
      P1  H  7989  7998       L1    10  0.38
      P1  H  8011  8017       L1    10  0.03

> <Gold.Chemscore.Hbond.Weighted>
-5.2478

> <Gold.Chemscore.Metal.Weighted>
-0.0000

> <Gold.Chemscore.Lipo.Weighted>
-14.6356

> <Gold.Chemscore.Internal_Hbond.Weighted>
0.0000

> <Gold.Chemscore.DEClash.Weighted>
1.4029

> <Gold.Chemscore.DEInternal.Weighted>
0.6017

> <Gold.Chemscore.Rot.Weighted>
6.8383

> <Gold.Chemscore.Internal.Correction.Weighted>
   9.000000E+99

> <Gold.Protein.RotatedTorsions>
[ 6907 6896 6895 6894 ] final  -12.85 input  -60.11 | X-H torsion
[ 7974 7965 7964 7962 ] final  145.64 input  175.53 | X-H torsion
[ 8008 7997 7996 7995 ] final -100.78 input   59.86 | X-H torsion
[ 10167 10162 10161 10158 ] final  -33.97 input  -65.29 | X-H torsion
[ 10718 10713 10712 10709 ] final   11.33 input   66.30 | X-H torsion
[ 10763 10752 10751 10750 ] final  173.19 input  -60.55 | X-H torsion
[ 11005 11000 10999 10996 ] final -100.17 input  -57.11 | X-H torsion

> <Gold.Protein.ActiveResidues>
 VAL166  LYS551  ARG553  GLY616  TRP617  ASP618  TYR619  PRO620  LYS621  CYS622 
 ASP623  PHE694  ASN695  SER759  ASP760  ASP761  ALA762  ILE779  LEU786  VAL792 
 PHE793  MET794  SER795  GLU796  ALA797  LYS798  CYS799  TRP800  GLU811  SER814 

> <Gold.Protein.RotatedAtoms>
  151.3641  135.0910  159.9443 H   0  0  0  0  0  0  0  0  0  0  0  0  # atno 6907 bound_to 6896
  152.5154  133.9229  159.7553 H   0  0  0  0  0  0  0  0  0  0  0  0  # atno 6908 bound_to 6896
  150.9629  133.6371  159.2780 H   0  0  0  0  0  0  0  0  0  0  0  0  # atno 6909 bound_to 6896
  144.8736  139.5807  143.5875 H   0  0  0  0  0  0  0  0  0  0  0  0  # atno 7974 bound_to 7965
  154.8334  140.0438  157.1492 H   0  0  0  0  0  0  0  0  0  0  0  0  # atno 8008 bound_to 7997
  154.9127  140.3016  155.5237 H   0  0  0  0  0  0  0  0  0  0  0  0  # atno 8009 bound_to 7997
  156.2988  140.2355  156.4168 H   0  0  0  0  0  0  0  0  0  0  0  0  # atno 8010 bound_to 7997
  140.7194  143.3582  151.2017 H   0  0  0  0  0  0  0  0  0  0  0  0  # atno 10167 bound_to 10162
  156.9941  130.6054  149.5689 H   0  0  0  0  0  0  0  0  0  0  0  0  # atno 10718 bound_to 10713
  154.4365  135.2761  155.1876 H   0  0  0  0  0  0  0  0  0  0  0  0  # atno 10763 bound_to 10752
  154.3761  135.6098  153.5769 H   0  0  0  0  0  0  0  0  0  0  0  0  # atno 10764 bound_to 10752
  152.9838  135.5869  154.4686 H   0  0  0  0  0  0  0  0  0  0  0  0  # atno 10765 bound_to 10752
  141.1281  133.8378  157.1067 H   0  0  0  0  0  0  0  0  0  0  0  0  # atno 11005 bound_to 11000
  146.2947  139.7243  142.9135 LP  0  0  0  0  0  0  0  0  0  0  0  0  # atno 17320 bound_to 7965
  145.4084  141.0393  143.3031 LP  0  0  0  0  0  0  0  0  0  0  0  0  # atno 17321 bound_to 7965
  139.7128  143.9349  152.2954 LP  0  0  0  0  0  0  0  0  0  0  0  0  # atno 17342 bound_to 10162
  139.9080  144.6873  150.8593 LP  0  0  0  0  0  0  0  0  0  0  0  0  # atno 17343 bound_to 10162
  156.0196  130.5291  150.8236 LP  0  0  0  0  0  0  0  0  0  0  0  0  # atno 17370 bound_to 10713
  157.5438  131.0941  150.9791 LP  0  0  0  0  0  0  0  0  0  0  0  0  # atno 17371 bound_to 10713
  140.0300  134.9906  157.0761 LP  0  0  0  0  0  0  0  0  0  0  0  0  # atno 17394 bound_to 11000
  140.4301  134.1790  155.7168 LP  0  0  0  0  0  0  0  0  0  0  0  0  # atno 17395 bound_to 11000

$$$$
