AV-unprocessed.smi:1085|AV-procd|sdf|4722|dock4
  -GOLD-   22720 3253D 1   1.00000     0.00000
 Structure written by MMmdl.
 33 34  0  0  0  0  0  0  0  0  1 V2000
  156.0730  139.8247  159.1868 O   0  0  0  0  0  0  0  0  0  0  0  0
  154.9828  139.2892  159.3841 C   0  0  0  0  0  0  0  0  0  0  0  0
  154.7617  137.8330  158.9706 C   0  0  0  0  0  0  0  0  0  0  0  0
  155.1999  137.5980  157.6066 N   0  0  0  0  0  0  0  0  0  0  0  0
  156.0987  136.7466  157.1079 C   0  0  0  0  0  0  0  0  0  0  0  0
  156.2069  136.8654  155.7933 N   0  0  0  0  0  0  0  0  0  0  0  0
  155.2989  137.8666  155.4913 N   0  0  0  0  0  0  0  0  0  0  0  0
  154.6979  138.3050  156.5632 N   0  0  0  0  0  0  0  0  0  0  0  0
  153.9437  139.9133  159.9614 N   0  0  0  0  0  0  0  0  0  0  0  0
  153.9296  141.3015  160.4099 C   0  0  2  0  0  0  0  0  0  0  0  0
  153.6041  141.3792  161.9137 C   0  0  0  0  0  0  0  0  0  0  0  0
  153.5017  142.8372  162.3857 C   0  0  0  0  0  0  0  0  0  0  0  0
  152.4769  143.6245  161.5538 C   0  0  0  0  0  0  0  0  0  0  0  0
  152.8007  143.5649  160.0459 C   0  0  2  0  0  0  0  0  0  0  0  0
  151.7878  144.3670  159.2030 C   0  0  0  0  0  0  0  0  0  0  0  0
  150.6121  143.7400  159.1505 F   0  0  0  0  0  0  0  0  0  0  0  0
  151.6084  145.5765  159.7337 F   0  0  0  0  0  0  0  0  0  0  0  0
  152.2490  144.5224  157.9619 F   0  0  0  0  0  0  0  0  0  0  0  0
  152.9006  142.0954  159.5840 C   0  0  0  0  0  0  0  0  0  0  0  0
  155.3143  137.1661  159.6334 H   0  0  0  0  0  0  0  0  0  0  0  0
  153.7046  137.5792  159.0641 H   0  0  0  0  0  0  0  0  0  0  0  0
  156.6706  136.0497  157.7026 H   0  0  0  0  0  0  0  0  0  0  0  0
  153.0894  139.3888  160.0852 H   0  0  0  0  0  0  0  0  0  0  0  0
  154.9124  141.7453  160.2387 H   0  0  0  0  0  0  0  0  0  0  0  0
  152.6627  140.8661  162.1163 H   0  0  0  0  0  0  0  0  0  0  0  0
  154.3696  140.8605  162.4921 H   0  0  0  0  0  0  0  0  0  0  0  0
  153.2250  142.8670  163.4400 H   0  0  0  0  0  0  0  0  0  0  0  0
  154.4791  143.3151  162.3094 H   0  0  0  0  0  0  0  0  0  0  0  0
  151.4788  143.2234  161.7341 H   0  0  0  0  0  0  0  0  0  0  0  0
  152.4579  144.6605  161.8931 H   0  0  0  0  0  0  0  0  0  0  0  0
  153.7797  144.0242  159.8998 H   0  0  0  0  0  0  0  0  0  0  0  0
  153.1760  142.0570  158.5293 H   0  0  0  0  0  0  0  0  0  0  0  0
  151.9213  141.6208  159.6627 H   0  0  0  0  0  0  0  0  0  0  0  0
  1  2  2  0  0  0  0
  2  3  1  0  0  0  0
  2  9  1  0  0  0  0
  3  4  1  0  0  0  0
  3 20  1  0  0  0  0
  3 21  1  0  0  0  0
  4  8  1  0  0  0  0
  4  5  1  0  0  0  0
  5  6  2  0  0  0  0
  5 22  1  0  0  0  0
  6  7  1  0  0  0  0
  7  8  2  0  0  0  0
  9 10  1  0  0  0  0
  9 23  1  0  0  0  0
 10 19  1  0  0  0  0
 10 11  1  0  0  0  0
 10 24  1  0  0  0  0
 11 12  1  0  0  0  0
 11 25  1  0  0  0  0
 11 26  1  0  0  0  0
 12 13  1  0  0  0  0
 12 27  1  0  0  0  0
 12 28  1  0  0  0  0
 13 14  1  0  0  0  0
 13 29  1  0  0  0  0
 13 30  1  0  0  0  0
 14 15  1  0  0  0  0
 14 19  1  0  0  0  0
 14 31  1  0  0  0  0
 15 16  1  0  0  0  0
 15 17  1  0  0  0  0
 15 18  1  0  0  0  0
 19 32  1  0  0  0  0
 19 33  1  0  0  0  0
M  END
> <s_m_source_file>
AV-unprocessed.smi

> <i_m_source_file_index>
1085

> <i_lp_mmshare_version>
43012

> <i_f3d_flags>
0

> <s_epik_input>
bjFubltjSF1uMVtDSDJdQyg9TylbTkhdW0NAQEhdMltDSDJdW0NIMl1bQ0gyXVtDQEBIXShDKEYpKEYpRilbQ0gyXTI=

> <s_epik_cmdline>
J2VwaWtfcHl0aG9uJywgJy1waCcsICc3LjAnLCAnLXRuJywgJzgnLCAnLW1hJywgJzIwMCcsICctbWV0YWxfYmluZGluZycsICctaW1hZScsICc8aW5maWxlLm1hZT4nLCAnLW9tYWUnLCAnPG91dGZpbGUubWFlPic=

> <r_lp_tautomer_probability>
1

> <r_epik_Ionization_Penalty>
8.41315e-07

> <r_epik_Ionization_Penalty_Charging>
0

> <r_epik_Ionization_Penalty_Neutral>
8.41315e-07

> <r_epik_State_Penalty>
-0

> <r_epik_Charging_Adjusted_Penalty>
0

> <i_epik_Tot_Q>
0

> <i_epik_Tot_abs_Q>
0

> <r_epik_Metal_State_Penalty>
-0

> <b_epik_Metal_Only>
0

> <s_lp_Force_Field>
OPLS_2005

> <r_lp_Energy>
12.3149

> <b_lp_Chiralities_Consistent>
1

> <s_lp_Variant>
AV-unprocessed.smi:1085-3

> <Gold.Version>
5.8.1

> <Gold.Id.Protein>
6NUR|6NUR_protein|mol2

> <Gold.PLP.Fitness>
49.8658

> <Gold.PLP.PLP>
-44.2518

> <Gold.PLP.part.hbond>
-4.8510

> <Gold.PLP.part.metal>
0.0000

> <Gold.PLP.part.buried>
-4.7967

> <Gold.PLP.part.nonpolar>
-34.5049

> <Gold.PLP.part.repulsive>
0.0782

> <Gold.PLP.ligand.clash>
0.0000

> <Gold.PLP.ligand.torsion>
0.2949

> <Gold.PLP.Chemscore.Hbond>
2.0576

> <Gold.PLP.Chemscore.CHOScore>
0.0000

> <Gold.PLP.Chemscore.Metal>
0.0000

> <Gold.Chemscore.Hbonds>
donor molecule, donor type, donor heavy atom, donor atom, acceptor molecule, acceptor atom, score
      P1  H  7997  8009       L1     1  0.65
      P1  H 10752 10765       L1     6  0.19

> <Gold.PLP.Chemscore.Internal.Correction>
0.0311

> <Gold.Rescore>
     Score         DG    S(hbond)    S(metal)    S(lipo)     H(rot)  DE(clash)    DE(int)     intcor
     13.55     -14.09       1.34        0.00      80.00       2.05       0.31       0.23       ----

> <Gold.Chemscore.Fitness>
13.5518

> <Gold.Chemscore.DG>
-14.0861

> <Gold.Chemscore.ZeroCoef>
-5.4800

> <Gold.Chemscore.Hbond>
1.3421

> <Gold.Chemscore.Metal>
0.0000

> <Gold.Chemscore.Lipo>
80.0031

> <Gold.Chemscore.Internal_Hbond>
0.0000

> <Gold.Chemscore.DEClash>
0.3083

> <Gold.Chemscore.DEInternal>
0.2260

> <Gold.Chemscore.Rot>
2.0456

> <Gold.Chemscore.Internal.Correction>
   9.000000E+99

> <Gold.Chemscore.Hbonds>
donor molecule, donor type, donor heavy atom, donor atom, acceptor molecule, acceptor atom, score
      P1  H  7997  8009       L1     1  0.06
      P1  H  7997  8010       L1     8  0.03

> <Gold.Chemscore.Hbond.Weighted>
-4.4825

> <Gold.Chemscore.Metal.Weighted>
-0.0000

> <Gold.Chemscore.Lipo.Weighted>
-9.3604

> <Gold.Chemscore.Internal_Hbond.Weighted>
0.0000

> <Gold.Chemscore.DEClash.Weighted>
0.3083

> <Gold.Chemscore.DEInternal.Weighted>
0.2260

> <Gold.Chemscore.Rot.Weighted>
5.2368

> <Gold.Chemscore.Internal.Correction.Weighted>
   9.000000E+99

> <Gold.Protein.RotatedTorsions>
[ 6907 6896 6895 6894 ] final  164.07 input  -60.11 | X-H torsion
[ 7974 7965 7964 7962 ] final  144.13 input  175.53 | X-H torsion
[ 8008 7997 7996 7995 ] final   84.53 input   59.86 | X-H torsion
[ 10167 10162 10161 10158 ] final -172.24 input  -65.29 | X-H torsion
[ 10718 10713 10712 10709 ] final -101.28 input   66.30 | X-H torsion
[ 10763 10752 10751 10750 ] final  -39.83 input  -60.55 | X-H torsion
[ 11005 11000 10999 10996 ] final   56.26 input  -57.11 | X-H torsion

> <Gold.Protein.ActiveResidues>
 VAL166  LYS551  ARG553  GLY616  TRP617  ASP618  TYR619  PRO620  LYS621  CYS622 
 ASP623  PHE694  ASN695  SER759  ASP760  ASP761  ALA762  ILE779  LEU786  VAL792 
 PHE793  MET794  SER795  GLU796  ALA797  LYS798  CYS799  TRP800  GLU811  SER814 

> <Gold.Protein.RotatedAtoms>
  151.9155  133.3572  159.3878 H   0  0  0  0  0  0  0  0  0  0  0  0  # atno 6907 bound_to 6896
  150.7048  134.4688  159.5425 H   0  0  0  0  0  0  0  0  0  0  0  0  # atno 6908 bound_to 6896
  152.2302  134.8329  160.0525 H   0  0  0  0  0  0  0  0  0  0  0  0  # atno 6909 bound_to 6896
  144.8862  139.5626  143.5820 H   0  0  0  0  0  0  0  0  0  0  0  0  # atno 7974 bound_to 7965
  155.9383  140.3410  155.6306 H   0  0  0  0  0  0  0  0  0  0  0  0  # atno 8008 bound_to 7997
  155.7072  140.0767  157.2405 H   0  0  0  0  0  0  0  0  0  0  0  0  # atno 8009 bound_to 7997
  154.4098  140.1629  156.2243 H   0  0  0  0  0  0  0  0  0  0  0  0  # atno 8010 bound_to 7997
  139.5756  144.1541  152.1445 H   0  0  0  0  0  0  0  0  0  0  0  0  # atno 10167 bound_to 10162
  156.0189  130.5366  150.6940 H   0  0  0  0  0  0  0  0  0  0  0  0  # atno 10718 bound_to 10713
  153.9359  135.6767  153.4745 H   0  0  0  0  0  0  0  0  0  0  0  0  # atno 10763 bound_to 10752
  153.0956  135.4853  154.8769 H   0  0  0  0  0  0  0  0  0  0  0  0  # atno 10764 bound_to 10752
  154.7403  135.3159  154.8698 H   0  0  0  0  0  0  0  0  0  0  0  0  # atno 10765 bound_to 10752
  140.0543  134.5692  155.9226 H   0  0  0  0  0  0  0  0  0  0  0  0  # atno 11005 bound_to 11000
  146.3025  139.7474  142.9080 LP  0  0  0  0  0  0  0  0  0  0  0  0  # atno 17320 bound_to 7965
  145.3865  141.0366  143.3148 LP  0  0  0  0  0  0  0  0  0  0  0  0  # atno 17321 bound_to 7965
  140.1083  144.5479  150.6942 LP  0  0  0  0  0  0  0  0  0  0  0  0  # atno 17342 bound_to 10162
  140.7038  143.2453  151.4786 LP  0  0  0  0  0  0  0  0  0  0  0  0  # atno 17343 bound_to 10162
  157.4615  131.0883  151.0741 LP  0  0  0  0  0  0  0  0  0  0  0  0  # atno 17370 bound_to 10713
  157.1227  130.6068  149.5509 LP  0  0  0  0  0  0  0  0  0  0  0  0  # atno 17371 bound_to 10713
  141.1945  133.6583  156.5596 LP  0  0  0  0  0  0  0  0  0  0  0  0  # atno 17394 bound_to 11000
  140.3869  134.7475  157.4697 LP  0  0  0  0  0  0  0  0  0  0  0  0  # atno 17395 bound_to 11000

$$$$
