AV-unprocessed.smi:3029|AV-procd|sdf|11530|dock2
  -GOLD-   2272016473D 1   1.00000     0.00000
 Structure written by MMmdl.
 41 42  0  0  0  0  0  0  0  0  3 V2000
  152.0018  138.5582  155.7092 O   0  0  0  0  0  0  0  0  0  0  0  0
  151.0577  139.2454  155.3194 C   0  0  0  0  0  0  0  0  0  0  0  0
  150.0820  138.7405  154.3480 C   0  0  0  0  0  0  0  0  0  0  0  0
  149.0569  139.4992  153.9135 C   0  0  0  0  0  0  0  0  0  0  0  0
  148.8870  140.8541  154.4009 C   0  0  0  0  0  0  0  0  0  0  0  0
  147.7998  141.6831  153.9288 N   0  3  0  0  0  0  0  0  0  0  0  0
  147.8787  142.9008  154.0609 O   0  0  0  0  0  0  0  0  0  0  0  0
  146.8297  141.1412  153.4091 O   0  5  0  0  0  0  0  0  0  0  0  0
  149.7805  141.3135  155.2988 C   0  0  0  0  0  0  0  0  0  0  0  0
  150.8542  140.5257  155.7569 N   0  0  0  0  0  0  0  0  0  0  0  0
  151.7766  141.1610  156.7107 C   0  0  0  0  0  0  0  0  0  0  0  0
  151.0458  141.6550  157.9725 C   0  0  0  0  0  0  0  0  0  0  0  0
  151.8386  141.3751  159.1609 N   0  0  0  0  0  0  0  0  0  0  0  0
  152.9220  142.3352  159.3463 C   0  0  1  0  0  0  0  0  0  0  0  0
  152.3220  143.7570  159.3111 C   0  0  0  0  0  0  0  0  0  0  0  0
  151.5215  144.0977  160.5807 C   0  0  0  0  0  0  0  0  0  0  0  0
  152.3521  143.8661  161.8496 C   0  0  0  0  0  0  0  0  0  0  0  0
  152.8876  142.4278  161.9062 C   0  0  0  0  0  0  0  0  0  0  0  0
  153.7244  142.0842  160.6550 C   0  0  1  0  0  0  0  0  0  0  0  0
  154.4000  140.6972  160.7550 C   0  0  0  0  0  0  0  0  0  0  0  0
  153.5476  139.7101  160.4793 F   0  0  0  0  0  0  0  0  0  0  0  0
  155.4348  140.6293  159.9176 F   0  0  0  0  0  0  0  0  0  0  0  0
  154.8621  140.5164  161.9922 F   0  0  0  0  0  0  0  0  0  0  0  0
  150.1905  137.7340  153.9714 H   0  0  0  0  0  0  0  0  0  0  0  0
  148.3648  139.0829  153.1961 H   0  0  0  0  0  0  0  0  0  0  0  0
  149.7483  142.3090  155.7178 H   0  0  0  0  0  0  0  0  0  0  0  0
  152.5311  140.4296  157.0035 H   0  0  0  0  0  0  0  0  0  0  0  0
  152.3438  141.9757  156.2573 H   0  0  0  0  0  0  0  0  0  0  0  0
  150.8327  142.7205  157.8923 H   0  0  0  0  0  0  0  0  0  0  0  0
  150.0873  141.1430  158.0645 H   0  0  0  0  0  0  0  0  0  0  0  0
  151.2359  141.3793  159.9715 H   0  0  0  0  0  0  0  0  0  0  0  0
  153.6077  142.2590  158.5009 H   0  0  0  0  0  0  0  0  0  0  0  0
  153.1348  144.4770  159.2087 H   0  0  0  0  0  0  0  0  0  0  0  0
  151.6960  143.8866  158.4270 H   0  0  0  0  0  0  0  0  0  0  0  0
  151.1878  145.1349  160.5406 H   0  0  0  0  0  0  0  0  0  0  0  0
  150.6181  143.4877  160.6216 H   0  0  0  0  0  0  0  0  0  0  0  0
  153.1855  144.5691  161.8757 H   0  0  0  0  0  0  0  0  0  0  0  0
  151.7466  144.0721  162.7326 H   0  0  0  0  0  0  0  0  0  0  0  0
  153.4908  142.3060  162.8060 H   0  0  0  0  0  0  0  0  0  0  0  0
  152.0552  141.7290  161.9995 H   0  0  0  0  0  0  0  0  0  0  0  0
  154.5454  142.8030  160.6344 H   0  0  0  0  0  0  0  0  0  0  0  0
  1  2  2  0  0  0  0
  2 10  1  0  0  0  0
  2  3  1  0  0  0  0
  3  4  2  0  0  0  0
  3 24  1  0  0  0  0
  4  5  1  0  0  0  0
  4 25  1  0  0  0  0
  5  6  1  0  0  0  0
  5  9  2  0  0  0  0
  6  7  2  0  0  0  0
  6  8  1  0  0  0  0
  9 10  1  0  0  0  0
  9 26  1  0  0  0  0
 10 11  1  0  0  0  0
 11 12  1  0  0  0  0
 11 27  1  0  0  0  0
 11 28  1  0  0  0  0
 12 13  1  0  0  0  0
 12 29  1  0  0  0  0
 12 30  1  0  0  0  0
 13 14  1  0  0  0  0
 13 31  1  0  0  0  0
 14 19  1  0  0  0  0
 14 15  1  0  0  0  0
 14 32  1  0  0  0  0
 15 16  1  0  0  0  0
 15 33  1  0  0  0  0
 15 34  1  0  0  0  0
 16 17  1  0  0  0  0
 16 35  1  0  0  0  0
 16 36  1  0  0  0  0
 17 18  1  0  0  0  0
 17 37  1  0  0  0  0
 17 38  1  0  0  0  0
 18 19  1  0  0  0  0
 18 39  1  0  0  0  0
 18 40  1  0  0  0  0
 19 20  1  0  0  0  0
 19 41  1  0  0  0  0
 20 21  1  0  0  0  0
 20 22  1  0  0  0  0
 20 23  1  0  0  0  0
M  CHG  1   6   1
M  CHG  1   8  -1
M  END
> <s_m_source_file>
AV-unprocessed.smi

> <i_m_source_file_index>
3029

> <i_lp_mmshare_version>
43012

> <i_f3d_flags>
0

> <s_epik_input>
Tz1jMVtjSF1bY0hdYyhbTitdKD1PKVtPLV0pW2NIXW4xW0NIMl1bQ0gyXVtOSF1bQ0BASF0yW0NIMl1bQ0gyXVtDSDJdW0NIMl1bQ0BIXTJDKEYpKEYpRg==

> <s_epik_cmdline>
J2VwaWtfcHl0aG9uJywgJy1waCcsICc3LjAnLCAnLXRuJywgJzgnLCAnLW1hJywgJzIwMCcsICctbWV0YWxfYmluZGluZycsICctaW1hZScsICc8aW5maWxlLm1hZT4nLCAnLW9tYWUnLCAnPG91dGZpbGUubWFlPic=

> <r_lp_tautomer_probability>
1

> <r_epik_Ionization_Penalty>
1.65565

> <r_epik_Ionization_Penalty_Charging>
3.32684e-10

> <r_epik_Ionization_Penalty_Neutral>
1.65565

> <r_epik_State_Penalty>
1.75811

> <r_epik_Charging_Adjusted_Penalty>
1.75811

> <i_epik_Tot_Q>
0

> <i_epik_Tot_abs_Q>
2

> <r_epik_Metal_State_Penalty>
1.75811

> <b_epik_Metal_Only>
0

> <s_lp_Force_Field>
OPLS_2005

> <r_lp_Energy>
39.0204

> <b_lp_Chiralities_Consistent>
1

> <s_lp_Variant>
AV-unprocessed.smi:3029-6

> <Gold.Version>
5.8.1

> <Gold.Id.Protein>
6NUR|6NUR_protein|mol2

> <Gold.PLP.Fitness>
55.3673

> <Gold.PLP.PLP>
-51.5453

> <Gold.PLP.part.hbond>
-2.0000

> <Gold.PLP.part.metal>
0.0000

> <Gold.PLP.part.buried>
-2.7620

> <Gold.PLP.part.nonpolar>
-50.3273

> <Gold.PLP.part.repulsive>
3.9200

> <Gold.PLP.ligand.clash>
0.0212

> <Gold.PLP.ligand.torsion>
0.9258

> <Gold.PLP.Chemscore.Hbond>
0.8406

> <Gold.PLP.Chemscore.CHOScore>
0.9664

> <Gold.PLP.Chemscore.Metal>
0.0000

> <Gold.Chemscore.Hbonds>
donor molecule, donor type, donor heavy atom, donor atom, acceptor molecule, acceptor atom, score
      P1  H  8022  8030       L1     7  0.84
      L1  C     9    26       P1  8028  0.93

> <Gold.PLP.Chemscore.Internal.Correction>
0.2737

> <Gold.Rescore>
     Score         DG    S(hbond)    S(metal)    S(lipo)     H(rot)  DE(clash)    DE(int)     intcor
     12.17     -16.99       0.83        0.00     115.32       1.86       1.81       3.00       ----

> <Gold.Chemscore.Fitness>
12.1683

> <Gold.Chemscore.DG>
-16.9851

> <Gold.Chemscore.ZeroCoef>
-5.4800

> <Gold.Chemscore.Hbond>
0.8294

> <Gold.Chemscore.Metal>
0.0000

> <Gold.Chemscore.Lipo>
115.3194

> <Gold.Chemscore.Internal_Hbond>
0.0000

> <Gold.Chemscore.DEClash>
1.8122

> <Gold.Chemscore.DEInternal>
3.0045

> <Gold.Chemscore.Rot>
1.8584

> <Gold.Chemscore.Internal.Correction>
   9.000000E+99

> <Gold.Chemscore.Hbonds>
donor molecule, donor type, donor heavy atom, donor atom, acceptor molecule, acceptor atom, score
      P1  H  8022  8030       L1     7  0.77

> <Gold.Chemscore.Hbond.Weighted>
-2.7703

> <Gold.Chemscore.Metal.Weighted>
-0.0000

> <Gold.Chemscore.Lipo.Weighted>
-13.4924

> <Gold.Chemscore.Internal_Hbond.Weighted>
0.0000

> <Gold.Chemscore.DEClash.Weighted>
1.8122

> <Gold.Chemscore.DEInternal.Weighted>
3.0045

> <Gold.Chemscore.Rot.Weighted>
4.7576

> <Gold.Chemscore.Internal.Correction.Weighted>
   9.000000E+99

> <Gold.Protein.RotatedTorsions>
[ 6907 6896 6895 6894 ] final   47.25 input  -60.11 | X-H torsion
[ 7974 7965 7964 7962 ] final  -42.69 input  175.53 | X-H torsion
[ 8008 7997 7996 7995 ] final   -1.78 input   59.86 | X-H torsion
[ 10167 10162 10161 10158 ] final  116.31 input  -65.29 | X-H torsion
[ 10718 10713 10712 10709 ] final  -11.27 input   66.30 | X-H torsion
[ 10763 10752 10751 10750 ] final -176.24 input  -60.55 | X-H torsion
[ 11005 11000 10999 10996 ] final -166.84 input  -57.11 | X-H torsion

> <Gold.Protein.ActiveResidues>
 VAL166  LYS551  ARG553  GLY616  TRP617  ASP618  TYR619  PRO620  LYS621  CYS622 
 ASP623  PHE694  ASN695  SER759  ASP760  ASP761  ALA762  ILE779  LEU786  VAL792 
 PHE793  MET794  SER795  GLU796  ALA797  LYS798  CYS799  TRP800  GLU811  SER814 

> <Gold.Protein.RotatedAtoms>
  152.2658  134.7985  160.0422 H   0  0  0  0  0  0  0  0  0  0  0  0  # atno 6907 bound_to 6896
  151.8615  133.3453  159.3713 H   0  0  0  0  0  0  0  0  0  0  0  0  # atno 6908 bound_to 6896
  150.7133  134.5129  159.5660 H   0  0  0  0  0  0  0  0  0  0  0  0  # atno 6909 bound_to 6896
  146.0091  140.6985  142.9233 H   0  0  0  0  0  0  0  0  0  0  0  0  # atno 7974 bound_to 7965
  154.6430  140.2551  155.7300 H   0  0  0  0  0  0  0  0  0  0  0  0  # atno 8008 bound_to 7997
  156.2538  140.2883  156.0752 H   0  0  0  0  0  0  0  0  0  0  0  0  # atno 8009 bound_to 7997
  155.1567  140.0383  157.2824 H   0  0  0  0  0  0  0  0  0  0  0  0  # atno 8010 bound_to 7997
  139.6256  144.7108  151.2540 H   0  0  0  0  0  0  0  0  0  0  0  0  # atno 10167 bound_to 10162
  156.6615  130.4983  149.6029 H   0  0  0  0  0  0  0  0  0  0  0  0  # atno 10718 bound_to 10713
  154.5748  135.2831  155.0792 H   0  0  0  0  0  0  0  0  0  0  0  0  # atno 10763 bound_to 10752
  154.2151  135.6401  153.5131 H   0  0  0  0  0  0  0  0  0  0  0  0  # atno 10764 bound_to 10752
  153.0069  135.5501  154.6382 H   0  0  0  0  0  0  0  0  0  0  0  0  # atno 10765 bound_to 10752
  140.5600  134.5343  157.5141 H   0  0  0  0  0  0  0  0  0  0  0  0  # atno 11005 bound_to 11000
  144.6946  140.3368  143.7206 LP  0  0  0  0  0  0  0  0  0  0  0  0  # atno 17320 bound_to 7965
  145.7369  139.1752  143.2398 LP  0  0  0  0  0  0  0  0  0  0  0  0  # atno 17321 bound_to 7965
  140.7409  143.6574  150.8194 LP  0  0  0  0  0  0  0  0  0  0  0  0  # atno 17342 bound_to 10162
  140.0191  143.5561  152.2808 LP  0  0  0  0  0  0  0  0  0  0  0  0  # atno 17343 bound_to 10162
  156.2008  130.6618  151.1164 LP  0  0  0  0  0  0  0  0  0  0  0  0  # atno 17370 bound_to 10713
  157.7108  131.0735  150.6507 LP  0  0  0  0  0  0  0  0  0  0  0  0  # atno 17371 bound_to 10713
  139.9412  134.7783  156.0673 LP  0  0  0  0  0  0  0  0  0  0  0  0  # atno 17394 bound_to 11000
  141.1120  133.6640  156.3002 LP  0  0  0  0  0  0  0  0  0  0  0  0  # atno 17395 bound_to 11000

$$$$
