AV-unprocessed.smi:3181|AV-procd|sdf|12142|dock6
  -GOLD-   2272017583D 1   1.00000     0.00000
 Structure written by MMmdl.
 42 43  0  0  0  0  0  0  0  0  2 V2000
  147.4019  141.6212  155.4458 C   0  0  0  0  0  0  0  0  0  0  0  0
  148.7556  140.9020  155.5676 C   0  0  1  0  0  0  0  0  0  0  0  0
  149.0780  140.0367  154.3297 C   0  0  0  0  0  0  0  0  0  0  0  0
  150.1752  139.1132  154.5538 N   0  0  0  0  0  0  0  0  0  0  0  0
  150.2142  137.7806  154.5020 C   0  0  0  0  0  0  0  0  0  0  0  0
  151.4099  137.2703  154.7603 N   0  0  0  0  0  0  0  0  0  0  0  0
  152.1110  138.4242  154.9692 C   0  0  0  0  0  0  0  0  0  0  0  0
  151.4180  139.5574  154.8536 N   0  0  0  0  0  0  0  0  0  0  0  0
  149.8271  141.9012  155.7820 N   0  3  0  0  0  0  0  0  0  0  0  0
  150.3647  142.0005  157.1585 C   0  0  1  0  0  0  0  0  0  0  0  0
  151.2779  140.8105  157.5073 C   0  0  0  0  0  0  0  0  0  0  0  0
  151.8693  140.9609  158.9160 C   0  0  0  0  0  0  0  0  0  0  0  0
  152.6422  142.2844  159.0869 C   0  0  2  0  0  0  0  0  0  0  0  0
  153.2193  142.3729  160.5112 C   0  0  0  0  0  0  0  0  0  0  0  0
  151.7393  143.4927  158.7245 C   0  0  1  0  0  0  0  0  0  0  0  0
  152.4758  144.8415  158.8161 C   0  0  0  0  0  0  0  0  0  0  0  0
  151.1402  143.3198  157.3135 C   0  0  0  0  0  0  0  0  0  0  0  0
  146.5770  140.9125  155.3693 H   0  0  0  0  0  0  0  0  0  0  0  0
  147.3708  142.2646  154.5658 H   0  0  0  0  0  0  0  0  0  0  0  0
  147.2096  142.2442  156.3200 H   0  0  0  0  0  0  0  0  0  0  0  0
  148.6955  140.2523  156.4423 H   0  0  0  0  0  0  0  0  0  0  0  0
  148.2003  139.4588  154.0368 H   0  0  0  0  0  0  0  0  0  0  0  0
  149.3343  140.6630  153.4748 H   0  0  0  0  0  0  0  0  0  0  0  0
  149.3520  137.1709  154.2746 H   0  0  0  0  0  0  0  0  0  0  0  0
  153.1631  138.4290  155.2130 H   0  0  0  0  0  0  0  0  0  0  0  0
  150.5856  141.7179  155.1407 H   0  0  0  0  0  0  0  0  0  0  0  0
  149.5212  142.0215  157.8510 H   0  0  0  0  0  0  0  0  0  0  0  0
  150.7225  139.8737  157.4573 H   0  0  0  0  0  0  0  0  0  0  0  0
  152.0854  140.7328  156.7779 H   0  0  0  0  0  0  0  0  0  0  0  0
  151.0655  140.9068  159.6518 H   0  0  0  0  0  0  0  0  0  0  0  0
  152.5283  140.1161  159.1211 H   0  0  0  0  0  0  0  0  0  0  0  0
  153.4839  142.2687  158.3927 H   0  0  0  0  0  0  0  0  0  0  0  0
  152.4277  142.4601  161.2560 H   0  0  0  0  0  0  0  0  0  0  0  0
  153.8849  143.2279  160.6266 H   0  0  0  0  0  0  0  0  0  0  0  0
  153.8036  141.4844  160.7523 H   0  0  0  0  0  0  0  0  0  0  0  0
  150.9113  143.5233  159.4346 H   0  0  0  0  0  0  0  0  0  0  0  0
  153.3647  144.8524  158.1844 H   0  0  0  0  0  0  0  0  0  0  0  0
  152.7861  145.0657  159.8362 H   0  0  0  0  0  0  0  0  0  0  0  0
  151.8325  145.6616  158.4959 H   0  0  0  0  0  0  0  0  0  0  0  0
  151.9403  143.3630  156.5725 H   0  0  0  0  0  0  0  0  0  0  0  0
  150.4761  144.1573  157.0947 H   0  0  0  0  0  0  0  0  0  0  0  0
  149.4356  142.8043  155.5558 H   0  0  0  0  0  0  0  0  0  0  0  0
  1  2  1  0  0  0  0
  1 18  1  0  0  0  0
  1 19  1  0  0  0  0
  1 20  1  0  0  0  0
  2  3  1  0  0  0  0
  2  9  1  0  0  0  0
  2 21  1  0  0  0  0
  3  4  1  0  0  0  0
  3 22  1  0  0  0  0
  3 23  1  0  0  0  0
  4  8  1  0  0  0  0
  4  5  1  0  0  0  0
  5  6  2  0  0  0  0
  5 24  1  0  0  0  0
  6  7  1  0  0  0  0
  7  8  2  0  0  0  0
  7 25  1  0  0  0  0
  9 10  1  0  0  0  0
  9 26  1  0  0  0  0
  9 42  1  0  0  0  0
 10 17  1  0  0  0  0
 10 11  1  0  0  0  0
 10 27  1  0  0  0  0
 11 12  1  0  0  0  0
 11 28  1  0  0  0  0
 11 29  1  0  0  0  0
 12 13  1  0  0  0  0
 12 30  1  0  0  0  0
 12 31  1  0  0  0  0
 13 14  1  0  0  0  0
 13 15  1  0  0  0  0
 13 32  1  0  0  0  0
 14 33  1  0  0  0  0
 14 34  1  0  0  0  0
 14 35  1  0  0  0  0
 15 16  1  0  0  0  0
 15 17  1  0  0  0  0
 15 36  1  0  0  0  0
 16 37  1  0  0  0  0
 16 38  1  0  0  0  0
 16 39  1  0  0  0  0
 17 40  1  0  0  0  0
 17 41  1  0  0  0  0
M  CHG  1   9   1
M  END
> <s_m_source_file>
AV-unprocessed.smi

> <i_m_source_file_index>
3181

> <i_lp_mmshare_version>
43012

> <i_f3d_flags>
0

> <s_epik_input>
bjFbY0hdbltjSF1uMVtDSDJdW0NAQEhdKFtDSDNdKVtOSF1bQ0BASF0yW0NIMl1bQ0gyXVtDQEBIXShbQ0gzXSlbQ0BASF0oW0NIM10pW0NIMl0y

> <s_epik_cmdline>
J2VwaWtfcHl0aG9uJywgJy1waCcsICc3LjAnLCAnLXRuJywgJzgnLCAnLW1hJywgJzIwMCcsICctbWV0YWxfYmluZGluZycsICctaW1hZScsICc8aW5maWxlLm1hZT4nLCAnLW9tYWUnLCAnPG91dGZpbGUubWFlPic=

> <r_lp_tautomer_probability>
1

> <r_epik_Ionization_Penalty>
0.000617007

> <r_epik_Ionization_Penalty_Charging>
0.000616215

> <r_epik_Ionization_Penalty_Neutral>
7.92544e-07

> <r_epik_State_Penalty>
0.000388807

> <r_epik_Charging_Adjusted_Penalty>
0.00100502

> <i_epik_Tot_Q>
1

> <i_epik_Tot_abs_Q>
1

> <r_epik_Metal_State_Penalty>
-0

> <b_epik_Metal_Only>
0

> <s_lp_Force_Field>
OPLS_2005

> <r_lp_Energy>
19.8676

> <b_lp_Chiralities_Consistent>
1

> <s_lp_Variant>
AV-unprocessed.smi:3181-8

> <Gold.Version>
5.8.1

> <Gold.Id.Protein>
6NUR|6NUR_protein|mol2

> <Gold.PLP.Fitness>
53.4837

> <Gold.PLP.PLP>
-41.3332

> <Gold.PLP.part.hbond>
-3.0000

> <Gold.PLP.part.metal>
0.0000

> <Gold.PLP.part.buried>
-3.7756

> <Gold.PLP.part.nonpolar>
-36.0742

> <Gold.PLP.part.repulsive>
0.3368

> <Gold.PLP.ligand.clash>
0.0000

> <Gold.PLP.ligand.torsion>
0.8596

> <Gold.PLP.Chemscore.Hbond>
3.6210

> <Gold.PLP.Chemscore.CHOScore>
0.9874

> <Gold.PLP.Chemscore.Metal>
0.0000

> <Gold.Chemscore.Hbonds>
donor molecule, donor type, donor heavy atom, donor atom, acceptor molecule, acceptor atom, score
      L1  H     9    42       P1  8028  2.00
      P1  H  7989  7998       L1     8  1.00
      P1  H 10752 10765       L1     6  0.41
      L1  C     5    24       P1  7948  0.67

> <Gold.PLP.Chemscore.Internal.Correction>
0.0445

> <Gold.Rescore>
     Score         DG    S(hbond)    S(metal)    S(lipo)     H(rot)  DE(clash)    DE(int)     intcor
     17.07     -18.09       2.10        0.00      93.90       2.11       0.03       0.99       ----

> <Gold.Chemscore.Fitness>
17.0668

> <Gold.Chemscore.DG>
-18.0856

> <Gold.Chemscore.ZeroCoef>
-5.4800

> <Gold.Chemscore.Hbond>
2.1015

> <Gold.Chemscore.Metal>
0.0000

> <Gold.Chemscore.Lipo>
93.9044

> <Gold.Chemscore.Internal_Hbond>
0.0000

> <Gold.Chemscore.DEClash>
0.0281

> <Gold.Chemscore.DEInternal>
0.9906

> <Gold.Chemscore.Rot>
2.1095

> <Gold.Chemscore.Internal.Correction>
   9.000000E+99

> <Gold.Chemscore.Hbonds>
donor molecule, donor type, donor heavy atom, donor atom, acceptor molecule, acceptor atom, score
      L1  H     9    42       P1  8028  0.97
      P1  H  7989  7998       L1     8  0.25
      P1  H 10752 10765       L1     6  0.22

> <Gold.Chemscore.Hbond.Weighted>
-7.0191

> <Gold.Chemscore.Metal.Weighted>
-0.0000

> <Gold.Chemscore.Lipo.Weighted>
-10.9868

> <Gold.Chemscore.Internal_Hbond.Weighted>
0.0000

> <Gold.Chemscore.DEClash.Weighted>
0.0281

> <Gold.Chemscore.DEInternal.Weighted>
0.9906

> <Gold.Chemscore.Rot.Weighted>
5.4003

> <Gold.Chemscore.Internal.Correction.Weighted>
   9.000000E+99

> <Gold.Protein.RotatedTorsions>
[ 6907 6896 6895 6894 ] final -139.77 input  -60.11 | X-H torsion
[ 7974 7965 7964 7962 ] final  -34.82 input  175.53 | X-H torsion
[ 8008 7997 7996 7995 ] final   72.92 input   59.86 | X-H torsion
[ 10167 10162 10161 10158 ] final  -48.72 input  -65.29 | X-H torsion
[ 10718 10713 10712 10709 ] final -111.51 input   66.30 | X-H torsion
[ 10763 10752 10751 10750 ] final  160.64 input  -60.55 | X-H torsion
[ 11005 11000 10999 10996 ] final -163.62 input  -57.11 | X-H torsion

> <Gold.Protein.ActiveResidues>
 VAL166  LYS551  ARG553  GLY616  TRP617  ASP618  TYR619  PRO620  LYS621  CYS622 
 ASP623  PHE694  ASN695  SER759  ASP760  ASP761  ALA762  ILE779  LEU786  VAL792 
 PHE793  MET794  SER795  GLU796  ALA797  LYS798  CYS799  TRP800  GLU811  SER814 

> <Gold.Protein.RotatedAtoms>
  151.0520  133.5616  159.2641 H   0  0  0  0  0  0  0  0  0  0  0  0  # atno 6907 bound_to 6896
  151.2623  135.0657  159.9113 H   0  0  0  0  0  0  0  0  0  0  0  0  # atno 6908 bound_to 6896
  152.5383  134.0264  159.8059 H   0  0  0  0  0  0  0  0  0  0  0  0  # atno 6909 bound_to 6896
  146.0798  140.6084  142.8913 H   0  0  0  0  0  0  0  0  0  0  0  0  # atno 7974 bound_to 7965
  155.7759  140.3483  155.5272 H   0  0  0  0  0  0  0  0  0  0  0  0  # atno 8008 bound_to 7997
  155.8776  140.0997  157.1528 H   0  0  0  0  0  0  0  0  0  0  0  0  # atno 8009 bound_to 7997
  154.4022  140.1328  156.4143 H   0  0  0  0  0  0  0  0  0  0  0  0  # atno 8010 bound_to 7997
  140.6718  143.2728  151.4112 H   0  0  0  0  0  0  0  0  0  0  0  0  # atno 10167 bound_to 10162
  156.0651  130.5871  150.8384 H   0  0  0  0  0  0  0  0  0  0  0  0  # atno 10718 bound_to 10713
  154.2506  135.2771  155.2818 H   0  0  0  0  0  0  0  0  0  0  0  0  # atno 10763 bound_to 10752
  154.5468  135.5686  153.6891 H   0  0  0  0  0  0  0  0  0  0  0  0  # atno 10764 bound_to 10752
  152.9981  135.6264  154.2653 H   0  0  0  0  0  0  0  0  0  0  0  0  # atno 10765 bound_to 10752
  140.5960  134.4996  157.5199 H   0  0  0  0  0  0  0  0  0  0  0  0  # atno 11005 bound_to 11000
  144.7286  140.4601  143.6955 LP  0  0  0  0  0  0  0  0  0  0  0  0  # atno 17320 bound_to 7965
  145.6239  139.1527  143.3007 LP  0  0  0  0  0  0  0  0  0  0  0  0  # atno 17321 bound_to 7965
  139.5990  144.1336  152.2177 LP  0  0  0  0  0  0  0  0  0  0  0  0  # atno 17342 bound_to 10162
  140.0714  144.5776  150.7189 LP  0  0  0  0  0  0  0  0  0  0  0  0  # atno 17343 bound_to 10162
  157.5688  131.0946  150.9449 LP  0  0  0  0  0  0  0  0  0  0  0  0  # atno 17370 bound_to 10713
  156.9670  130.5477  149.5288 LP  0  0  0  0  0  0  0  0  0  0  0  0  # atno 17371 bound_to 10713
  139.9253  134.8068  156.1087 LP  0  0  0  0  0  0  0  0  0  0  0  0  # atno 17394 bound_to 11000
  141.0903  133.6717  156.2527 LP  0  0  0  0  0  0  0  0  0  0  0  0  # atno 17395 bound_to 11000

$$$$
