AV-unprocessed.smi:1630|AV-procd|sdf|6525|dock6
  -GOLD-   22720 7203D 1   1.00000     0.00000
 Structure written by MMmdl.
 36 37  0  0  0  0  0  0  0  0  1 V2000
  152.5669  129.6872  156.5887 C   0  0  0  0  0  0  0  0  0  0  0  0
  152.2668  131.4321  157.0862 S   0  0  0  0  0  0  0  0  0  0  0  0
  151.5485  131.4289  158.3701 O   0  0  0  0  0  0  0  0  0  0  0  0
  153.5399  132.1602  156.9686 O   0  0  0  0  0  0  0  0  0  0  0  0
  151.1484  132.0472  155.8316 C   0  0  0  0  0  0  0  0  0  0  0  0
  150.5259  131.1589  154.9317 C   0  0  0  0  0  0  0  0  0  0  0  0
  149.6290  131.6916  153.9858 C   0  0  0  0  0  0  0  0  0  0  0  0
  149.3767  133.0859  153.9900 C   0  0  0  0  0  0  0  0  0  0  0  0
  148.5108  133.7524  153.0805 N   0  0  0  0  0  0  0  0  0  0  0  0
  147.3988  133.2952  152.4710 C   0  0  0  0  0  0  0  0  0  0  0  0
  146.9159  132.1775  152.6363 O   0  0  0  0  0  0  0  0  0  0  0  0
  146.8230  134.1838  151.6405 N   0  0  0  0  0  0  0  0  0  0  0  0
  145.6151  134.0156  150.8282 C   0  0  0  0  0  0  0  0  0  0  0  0
  144.3696  133.8918  151.7263 C   0  0  0  0  0  0  0  0  0  0  0  0
  143.5633  132.7173  151.1707 C   0  0  0  0  0  0  0  0  0  0  0  0
  144.6178  131.7825  150.5889 C   0  0  0  0  0  0  0  0  0  0  0  0
  145.6620  132.7231  149.9857 C   0  0  0  0  0  0  0  0  0  0  0  0
  150.0558  133.8753  154.9429 C   0  0  0  0  0  0  0  0  0  0  0  0
  150.9170  133.3768  155.8546 N   0  0  0  0  0  0  0  0  0  0  0  0
  153.2424  129.2175  157.3031 H   0  0  0  0  0  0  0  0  0  0  0  0
  153.0143  129.6636  155.5954 H   0  0  0  0  0  0  0  0  0  0  0  0
  151.6211  129.1458  156.5739 H   0  0  0  0  0  0  0  0  0  0  0  0
  150.7311  130.0989  154.9553 H   0  0  0  0  0  0  0  0  0  0  0  0
  149.1677  131.0227  153.2771 H   0  0  0  0  0  0  0  0  0  0  0  0
  148.7462  134.7159  152.8913 H   0  0  0  0  0  0  0  0  0  0  0  0
  147.2912  135.0736  151.5444 H   0  0  0  0  0  0  0  0  0  0  0  0
  145.4893  134.8767  150.1696 H   0  0  0  0  0  0  0  0  0  0  0  0
  144.6585  133.6645  152.7540 H   0  0  0  0  0  0  0  0  0  0  0  0
  143.7858  134.8123  151.7530 H   0  0  0  0  0  0  0  0  0  0  0  0
  142.9460  132.2351  151.9293 H   0  0  0  0  0  0  0  0  0  0  0  0
  142.9036  133.0664  150.3754 H   0  0  0  0  0  0  0  0  0  0  0  0
  145.0696  131.1957  151.3896 H   0  0  0  0  0  0  0  0  0  0  0  0
  144.2062  131.0871  149.8569 H   0  0  0  0  0  0  0  0  0  0  0  0
  145.3846  132.9568  148.9571 H   0  0  0  0  0  0  0  0  0  0  0  0
  146.6491  132.2602  149.9515 H   0  0  0  0  0  0  0  0  0  0  0  0
  149.9001  134.9437  154.9789 H   0  0  0  0  0  0  0  0  0  0  0  0
  1  2  1  0  0  0  0
  1 20  1  0  0  0  0
  1 21  1  0  0  0  0
  1 22  1  0  0  0  0
  2  3  2  0  0  0  0
  2  4  2  0  0  0  0
  2  5  1  0  0  0  0
  5 19  1  0  0  0  0
  5  6  2  0  0  0  0
  6  7  1  0  0  0  0
  6 23  1  0  0  0  0
  7  8  2  0  0  0  0
  7 24  1  0  0  0  0
  8  9  1  0  0  0  0
  8 18  1  0  0  0  0
  9 10  1  0  0  0  0
  9 25  1  0  0  0  0
 10 11  2  0  0  0  0
 10 12  1  0  0  0  0
 12 13  1  0  0  0  0
 12 26  1  0  0  0  0
 13 17  1  0  0  0  0
 13 14  1  0  0  0  0
 13 27  1  0  0  0  0
 14 15  1  0  0  0  0
 14 28  1  0  0  0  0
 14 29  1  0  0  0  0
 15 16  1  0  0  0  0
 15 30  1  0  0  0  0
 15 31  1  0  0  0  0
 16 17  1  0  0  0  0
 16 32  1  0  0  0  0
 16 33  1  0  0  0  0
 17 34  1  0  0  0  0
 17 35  1  0  0  0  0
 18 19  2  0  0  0  0
 18 36  1  0  0  0  0
M  END
> <s_m_source_file>
AV-unprocessed.smi

> <i_m_source_file_index>
1630

> <i_lp_mmshare_version>
43012

> <i_f3d_flags>
0

> <s_epik_input>
W0NIM11TKD1PKSg9TyljMVtjSF1bY0hdYyhbY0hdbjEpW05IXUMoPU8pW05IXVtDSF0yW0NIMl1bQ0gyXVtDSDJdW0NIMl0y

> <s_epik_cmdline>
J2VwaWtfcHl0aG9uJywgJy1waCcsICc3LjAnLCAnLXRuJywgJzgnLCAnLW1hJywgJzIwMCcsICctbWV0YWxfYmluZGluZycsICctaW1hZScsICc8aW5maWxlLm1hZT4nLCAnLW9tYWUnLCAnPG91dGZpbGUubWFlPic=

> <r_lp_tautomer_probability>
1

> <r_epik_Ionization_Penalty>
4.04514e-05

> <r_epik_Ionization_Penalty_Charging>
0

> <r_epik_Ionization_Penalty_Neutral>
4.04514e-05

> <r_epik_State_Penalty>
-0

> <r_epik_Charging_Adjusted_Penalty>
0

> <i_epik_Tot_Q>
0

> <i_epik_Tot_abs_Q>
0

> <r_epik_Metal_State_Penalty>
-0

> <b_epik_Metal_Only>
0

> <s_lp_Force_Field>
OPLS_2005

> <r_lp_Energy>
32.1208

> <b_lp_Chiralities_Consistent>
1

> <s_lp_Variant>
AV-unprocessed.smi:1630-1

> <Gold.Version>
5.8.1

> <Gold.Id.Protein>
6NUR|6NUR_protein|mol2

> <Gold.PLP.Fitness>
41.2527

> <Gold.PLP.PLP>
-33.4007

> <Gold.PLP.part.hbond>
-3.0000

> <Gold.PLP.part.metal>
0.0000

> <Gold.PLP.part.buried>
-3.9281

> <Gold.PLP.part.nonpolar>
-25.8418

> <Gold.PLP.part.repulsive>
0.1682

> <Gold.PLP.ligand.clash>
0.0000

> <Gold.PLP.ligand.torsion>
1.4855

> <Gold.PLP.Chemscore.Hbond>
2.9333

> <Gold.PLP.Chemscore.CHOScore>
0.0000

> <Gold.PLP.Chemscore.Metal>
0.0000

> <Gold.Chemscore.Hbonds>
donor molecule, donor type, donor heavy atom, donor atom, acceptor molecule, acceptor atom, score
      L1  H     9    25       P1  7948  0.80
      L1  H    12    26       P1  7948  0.98
      P1  H  6896  6908       L1     3  0.94

> <Gold.PLP.Chemscore.Internal.Correction>
2.0231

> <Gold.Rescore>
     Score         DG    S(hbond)    S(metal)    S(lipo)     H(rot)  DE(clash)    DE(int)     intcor
     14.36     -17.71       2.17        0.00      64.40       1.00       0.07       3.28       ----

> <Gold.Chemscore.Fitness>
14.3644

> <Gold.Chemscore.DG>
-17.7127

> <Gold.Chemscore.ZeroCoef>
-5.4800

> <Gold.Chemscore.Hbond>
2.1730

> <Gold.Chemscore.Metal>
0.0000

> <Gold.Chemscore.Lipo>
64.4016

> <Gold.Chemscore.Internal_Hbond>
0.0000

> <Gold.Chemscore.DEClash>
0.0677

> <Gold.Chemscore.DEInternal>
3.2805

> <Gold.Chemscore.Rot>
1.0000

> <Gold.Chemscore.Internal.Correction>
   9.000000E+99

> <Gold.Chemscore.Hbonds>
donor molecule, donor type, donor heavy atom, donor atom, acceptor molecule, acceptor atom, score
      L1  H     9    25       P1  7948  0.12
      L1  H    12    26       P1  7948  0.74
      P1  H  6896  6908       L1     3  0.74

> <Gold.Chemscore.Hbond.Weighted>
-7.2577

> <Gold.Chemscore.Metal.Weighted>
-0.0000

> <Gold.Chemscore.Lipo.Weighted>
-7.5350

> <Gold.Chemscore.Internal_Hbond.Weighted>
0.0000

> <Gold.Chemscore.DEClash.Weighted>
0.0677

> <Gold.Chemscore.DEInternal.Weighted>
3.2805

> <Gold.Chemscore.Rot.Weighted>
2.5600

> <Gold.Chemscore.Internal.Correction.Weighted>
   9.000000E+99

> <Gold.Protein.RotatedTorsions>
[ 6907 6896 6895 6894 ] final   65.94 input  -60.11 | X-H torsion
[ 7974 7965 7964 7962 ] final -159.34 input  175.53 | X-H torsion
[ 8008 7997 7996 7995 ] final   40.36 input   59.86 | X-H torsion
[ 10167 10162 10161 10158 ] final   33.67 input  -65.29 | X-H torsion
[ 10718 10713 10712 10709 ] final  115.20 input   66.30 | X-H torsion
[ 10763 10752 10751 10750 ] final  165.46 input  -60.55 | X-H torsion
[ 11005 11000 10999 10996 ] final -114.12 input  -57.11 | X-H torsion

> <Gold.Protein.ActiveResidues>
 VAL166  LYS551  ARG553  GLY616  TRP617  ASP618  TYR619  PRO620  LYS621  CYS622 
 ASP623  PHE694  ASN695  SER759  ASP760  ASP761  ALA762  ILE779  LEU786  VAL792 
 PHE793  MET794  SER795  GLU796  ALA797  LYS798  CYS799  TRP800  GLU811  SER814 

> <Gold.Protein.RotatedAtoms>
  152.4445  134.5523  159.9870 H   0  0  0  0  0  0  0  0  0  0  0  0  # atno 6907 bound_to 6896
  151.5612  133.3397  159.2979 H   0  0  0  0  0  0  0  0  0  0  0  0  # atno 6908 bound_to 6896
  150.8358  134.7663  159.6955 H   0  0  0  0  0  0  0  0  0  0  0  0  # atno 6909 bound_to 6896
  144.7469  140.3699  143.6078 H   0  0  0  0  0  0  0  0  0  0  0  0  # atno 7974 bound_to 7965
  155.2518  140.3353  155.4281 H   0  0  0  0  0  0  0  0  0  0  0  0  # atno 8008 bound_to 7997
  156.2212  140.1810  156.7515 H   0  0  0  0  0  0  0  0  0  0  0  0  # atno 8009 bound_to 7997
  154.5828  140.0651  156.9114 H   0  0  0  0  0  0  0  0  0  0  0  0  # atno 8010 bound_to 7997
  140.4386  144.1221  150.6170 H   0  0  0  0  0  0  0  0  0  0  0  0  # atno 10167 bound_to 10162
  157.6236  131.1009  150.7295 H   0  0  0  0  0  0  0  0  0  0  0  0  # atno 10718 bound_to 10713
  154.3244  135.2755  155.2503 H   0  0  0  0  0  0  0  0  0  0  0  0  # atno 10763 bound_to 10752
  154.4843  135.5850  153.6415 H   0  0  0  0  0  0  0  0  0  0  0  0  # atno 10764 bound_to 10752
  152.9873  135.6119  154.3431 H   0  0  0  0  0  0  0  0  0  0  0  0  # atno 10765 bound_to 10752
  141.0571  133.9594  157.2733 H   0  0  0  0  0  0  0  0  0  0  0  0  # atno 11005 bound_to 11000
  145.7088  139.1679  143.2550 LP  0  0  0  0  0  0  0  0  0  0  0  0  # atno 17320 bound_to 7965
  146.1362  140.7119  142.9389 LP  0  0  0  0  0  0  0  0  0  0  0  0  # atno 17321 bound_to 7965
  140.4345  143.2553  151.9553 LP  0  0  0  0  0  0  0  0  0  0  0  0  # atno 17342 bound_to 10162
  139.4788  144.5713  151.8084 LP  0  0  0  0  0  0  0  0  0  0  0  0  # atno 17343 bound_to 10162
  156.7648  130.4810  149.5430 LP  0  0  0  0  0  0  0  0  0  0  0  0  # atno 17370 bound_to 10713
  156.1395  130.6235  151.0447 LP  0  0  0  0  0  0  0  0  0  0  0  0  # atno 17371 bound_to 10713
  139.9400  135.0192  156.8678 LP  0  0  0  0  0  0  0  0  0  0  0  0  # atno 17394 bound_to 11000
  140.5942  134.0233  155.7511 LP  0  0  0  0  0  0  0  0  0  0  0  0  # atno 17395 bound_to 11000

$$$$
