AV-unprocessed.smi:2051|AV-procd|sdf|8326|dock5
  -GOLD-   2272010593D 1   1.00000     0.00000
 Structure written by MMmdl.
 33 34  0  0  0  0  0  0  0  0  1 V2000
  150.1126  140.4611  157.3464 O   0  0  0  0  0  0  0  0  0  0  0  0
  149.9173  141.6075  156.9407 C   0  0  0  0  0  0  0  0  0  0  0  0
  151.0877  142.5857  156.7701 C   0  0  0  0  0  0  0  0  0  0  0  0
  151.5394  143.1679  158.0449 N   0  0  0  0  0  0  0  0  0  0  0  0
  151.3546  144.5537  158.2209 C   0  0  0  0  0  0  0  0  0  0  0  0
  151.7330  145.1834  159.3444 C   0  0  0  0  0  0  0  0  0  0  0  0
  152.3454  144.4014  160.3920 C   0  0  0  0  0  0  0  0  0  0  0  0
  152.5299  143.0758  160.2329 C   0  0  0  0  0  0  0  0  0  0  0  0
  152.1195  142.3836  159.0057 C   0  0  0  0  0  0  0  0  0  0  0  0
  152.2869  141.1733  158.8508 O   0  0  0  0  0  0  0  0  0  0  0  0
  148.7036  142.0774  156.6148 N   0  0  0  0  0  0  0  0  0  0  0  0
  147.4501  141.3405  156.7363 C   0  0  0  0  0  0  0  0  0  0  0  0
  146.4383  141.7596  155.6557 C   0  0  2  0  0  0  0  0  0  0  0  0
  147.0502  142.3347  154.3773 C   0  0  0  0  0  0  0  0  0  0  0  0
  145.9053  143.1618  153.8404 C   0  0  0  0  0  0  0  0  0  0  0  0
  145.3122  143.7404  155.1220 C   0  0  0  0  0  0  0  0  0  0  0  0
  145.5878  142.7908  156.1497 O   0  0  0  0  0  0  0  0  0  0  0  0
  151.9028  142.0555  156.2761 H   0  0  0  0  0  0  0  0  0  0  0  0
  150.8044  143.3830  156.0800 H   0  0  0  0  0  0  0  0  0  0  0  0
  150.8964  145.0674  157.3882 H   0  0  0  0  0  0  0  0  0  0  0  0
  151.5868  146.2471  159.4600 H   0  0  0  0  0  0  0  0  0  0  0  0
  152.6586  144.8821  161.3072 H   0  0  0  0  0  0  0  0  0  0  0  0
  152.9908  142.5070  161.0272 H   0  0  0  0  0  0  0  0  0  0  0  0
  148.6390  143.0285  156.2820 H   0  0  0  0  0  0  0  0  0  0  0  0
  147.6774  140.2798  156.6277 H   0  0  0  0  0  0  0  0  0  0  0  0
  147.0181  141.4580  157.7315 H   0  0  0  0  0  0  0  0  0  0  0  0
  145.8019  140.9121  155.3957 H   0  0  0  0  0  0  0  0  0  0  0  0
  147.8974  142.9807  154.6120 H   0  0  0  0  0  0  0  0  0  0  0  0
  147.3873  141.5661  153.6809 H   0  0  0  0  0  0  0  0  0  0  0  0
  146.2222  143.9278  153.1324 H   0  0  0  0  0  0  0  0  0  0  0  0
  145.1781  142.5167  153.3455 H   0  0  0  0  0  0  0  0  0  0  0  0
  145.8042  144.6789  155.3798 H   0  0  0  0  0  0  0  0  0  0  0  0
  144.2426  143.9322  155.0332 H   0  0  0  0  0  0  0  0  0  0  0  0
  1  2  2  0  0  0  0
  2  3  1  0  0  0  0
  2 11  1  0  0  0  0
  3  4  1  0  0  0  0
  3 18  1  0  0  0  0
  3 19  1  0  0  0  0
  4  9  1  0  0  0  0
  4  5  1  0  0  0  0
  5  6  2  0  0  0  0
  5 20  1  0  0  0  0
  6  7  1  0  0  0  0
  6 21  1  0  0  0  0
  7  8  2  0  0  0  0
  7 22  1  0  0  0  0
  8  9  1  0  0  0  0
  8 23  1  0  0  0  0
  9 10  2  0  0  0  0
 11 12  1  0  0  0  0
 11 24  1  0  0  0  0
 12 13  1  0  0  0  0
 12 25  1  0  0  0  0
 12 26  1  0  0  0  0
 13 17  1  0  0  0  0
 13 14  1  0  0  0  0
 13 27  1  0  0  0  0
 14 15  1  0  0  0  0
 14 28  1  0  0  0  0
 14 29  1  0  0  0  0
 15 16  1  0  0  0  0
 15 30  1  0  0  0  0
 15 31  1  0  0  0  0
 16 17  1  0  0  0  0
 16 32  1  0  0  0  0
 16 33  1  0  0  0  0
M  END
> <s_m_source_file>
AV-unprocessed.smi

> <i_m_source_file_index>
2051

> <i_lp_mmshare_version>
43012

> <i_f3d_flags>
0

> <s_epik_input>
TzFbQ0gyXVtDSDJdW0NIMl1bQ0BIXTFbQ0gyXVtOSF1DKD1PKVtDSDJdbjJbY0hdW2NIXVtjSF1bY0hdYzI9Tw==

> <s_epik_cmdline>
J2VwaWtfcHl0aG9uJywgJy1waCcsICc3LjAnLCAnLXRuJywgJzgnLCAnLW1hJywgJzIwMCcsICctbWV0YWxfYmluZGluZycsICctaW1hZScsICc8aW5maWxlLm1hZT4nLCAnLW9tYWUnLCAnPG91dGZpbGUubWFlPic=

> <r_lp_tautomer_probability>
1

> <r_epik_Ionization_Penalty>
3.94187e-07

> <r_epik_Ionization_Penalty_Charging>
3.67328e-07

> <r_epik_Ionization_Penalty_Neutral>
2.6859e-08

> <r_epik_State_Penalty>
-0

> <r_epik_Charging_Adjusted_Penalty>
3.67328e-07

> <i_epik_Tot_Q>
0

> <i_epik_Tot_abs_Q>
0

> <r_epik_Metal_State_Penalty>
-0

> <b_epik_Metal_Only>
0

> <s_lp_Force_Field>
OPLS_2005

> <r_lp_Energy>
26.4026

> <b_lp_Chiralities_Consistent>
1

> <s_lp_Variant>
AV-unprocessed.smi:2051-1

> <Gold.Version>
5.8.1

> <Gold.Id.Protein>
6NUR|6NUR_protein|mol2

> <Gold.PLP.Fitness>
42.2436

> <Gold.PLP.PLP>
-38.0817

> <Gold.PLP.part.hbond>
-1.0000

> <Gold.PLP.part.metal>
0.0000

> <Gold.PLP.part.buried>
-5.9158

> <Gold.PLP.part.nonpolar>
-31.7313

> <Gold.PLP.part.repulsive>
0.1450

> <Gold.PLP.ligand.clash>
0.0000

> <Gold.PLP.ligand.torsion>
0.9196

> <Gold.PLP.Chemscore.Hbond>
1.0000

> <Gold.PLP.Chemscore.CHOScore>
0.9996

> <Gold.PLP.Chemscore.Metal>
0.0000

> <Gold.Chemscore.Hbonds>
donor molecule, donor type, donor heavy atom, donor atom, acceptor molecule, acceptor atom, score
      L1  H    11    24       P1  8028  1.00
      L1  C     5    20       P1  8028  0.76

> <Gold.PLP.Chemscore.Internal.Correction>
0.0022

> <Gold.Rescore>
     Score         DG    S(hbond)    S(metal)    S(lipo)     H(rot)  DE(clash)    DE(int)     intcor
     11.93     -14.09       0.97        0.00      83.01       1.69       0.04       2.12       ----

> <Gold.Chemscore.Fitness>
11.9279

> <Gold.Chemscore.DG>
-14.0914

> <Gold.Chemscore.ZeroCoef>
-5.4800

> <Gold.Chemscore.Hbond>
0.9686

> <Gold.Chemscore.Metal>
0.0000

> <Gold.Chemscore.Lipo>
83.0077

> <Gold.Chemscore.Internal_Hbond>
0.0000

> <Gold.Chemscore.DEClash>
0.0418

> <Gold.Chemscore.DEInternal>
2.1217

> <Gold.Chemscore.Rot>
1.6936

> <Gold.Chemscore.Internal.Correction>
   9.000000E+99

> <Gold.Chemscore.Hbonds>
donor molecule, donor type, donor heavy atom, donor atom, acceptor molecule, acceptor atom, score
      L1  H    11    24       P1  8028  0.96

> <Gold.Chemscore.Hbond.Weighted>
-3.2352

> <Gold.Chemscore.Metal.Weighted>
-0.0000

> <Gold.Chemscore.Lipo.Weighted>
-9.7119

> <Gold.Chemscore.Internal_Hbond.Weighted>
0.0000

> <Gold.Chemscore.DEClash.Weighted>
0.0418

> <Gold.Chemscore.DEInternal.Weighted>
2.1217

> <Gold.Chemscore.Rot.Weighted>
4.3357

> <Gold.Chemscore.Internal.Correction.Weighted>
   9.000000E+99

> <Gold.Protein.RotatedTorsions>
[ 6907 6896 6895 6894 ] final  155.95 input  -60.11 | X-H torsion
[ 7974 7965 7964 7962 ] final   11.64 input  175.53 | X-H torsion
[ 8008 7997 7996 7995 ] final   -5.85 input   59.86 | X-H torsion
[ 10167 10162 10161 10158 ] final  111.70 input  -65.29 | X-H torsion
[ 10718 10713 10712 10709 ] final  170.75 input   66.30 | X-H torsion
[ 10763 10752 10751 10750 ] final  160.54 input  -60.55 | X-H torsion
[ 11005 11000 10999 10996 ] final  158.02 input  -57.11 | X-H torsion

> <Gold.Protein.ActiveResidues>
 VAL166  LYS551  ARG553  GLY616  TRP617  ASP618  TYR619  PRO620  LYS621  CYS622 
 ASP623  PHE694  ASN695  SER759  ASP760  ASP761  ALA762  ILE779  LEU786  VAL792 
 PHE793  MET794  SER795  GLU796  ALA797  LYS798  CYS799  TRP800  GLU811  SER814 

> <Gold.Protein.RotatedAtoms>
  152.0367  133.3960  159.4319 H   0  0  0  0  0  0  0  0  0  0  0  0  # atno 6907 bound_to 6896
  150.6878  134.3460  159.4897 H   0  0  0  0  0  0  0  0  0  0  0  0  # atno 6908 bound_to 6896
  152.1253  134.9175  160.0612 H   0  0  0  0  0  0  0  0  0  0  0  0  # atno 6909 bound_to 6896
  146.2367  139.9455  142.8477 H   0  0  0  0  0  0  0  0  0  0  0  0  # atno 7974 bound_to 7965
  154.5997  140.2448  155.7809 H   0  0  0  0  0  0  0  0  0  0  0  0  # atno 8008 bound_to 7997
  156.2303  140.2969  156.0123 H   0  0  0  0  0  0  0  0  0  0  0  0  # atno 8009 bound_to 7997
  155.2232  140.0401  157.2942 H   0  0  0  0  0  0  0  0  0  0  0  0  # atno 8010 bound_to 7997
  139.6591  144.7129  151.1899 H   0  0  0  0  0  0  0  0  0  0  0  0  # atno 10167 bound_to 10162
  157.0035  131.0183  151.2824 H   0  0  0  0  0  0  0  0  0  0  0  0  # atno 10718 bound_to 10713
  154.2489  135.2772  155.2824 H   0  0  0  0  0  0  0  0  0  0  0  0  # atno 10763 bound_to 10752
  154.5481  135.5683  153.6901 H   0  0  0  0  0  0  0  0  0  0  0  0  # atno 10764 bound_to 10752
  152.9984  135.6268  154.2636 H   0  0  0  0  0  0  0  0  0  0  0  0  # atno 10765 bound_to 10752
  140.1825  134.8466  157.2819 H   0  0  0  0  0  0  0  0  0  0  0  0  # atno 11005 bound_to 11000
  145.1912  140.9812  143.4210 LP  0  0  0  0  0  0  0  0  0  0  0  0  # atno 17320 bound_to 7965
  144.9856  139.3740  143.6240 LP  0  0  0  0  0  0  0  0  0  0  0  0  # atno 17321 bound_to 7965
  140.7572  143.6023  150.8687 LP  0  0  0  0  0  0  0  0  0  0  0  0  # atno 17342 bound_to 10162
  139.9679  143.6090  152.2982 LP  0  0  0  0  0  0  0  0  0  0  0  0  # atno 17343 bound_to 10162
  157.5372  130.8096  149.7986 LP  0  0  0  0  0  0  0  0  0  0  0  0  # atno 17370 bound_to 10713
  156.0162  130.3813  150.2104 LP  0  0  0  0  0  0  0  0  0  0  0  0  # atno 17371 bound_to 10713
  140.2251  134.3976  155.7547 LP  0  0  0  0  0  0  0  0  0  0  0  0  # atno 17394 bound_to 11000
  141.2223  133.7186  156.8553 LP  0  0  0  0  0  0  0  0  0  0  0  0  # atno 17395 bound_to 11000

$$$$
