AV-unprocessed.smi:1970|AV-procd|sdf|7960|dock3
  -GOLD-   2272010133D 1   1.00000     0.00000
 Structure written by MMmdl.
 33 34  0  0  0  0  0  0  0  0  1 V2000
  152.9261  139.6191  154.9603 O   0  0  0  0  0  0  0  0  0  0  0  0
  151.8152  139.3155  155.3949 C   0  0  0  0  0  0  0  0  0  0  0  0
  150.7974  138.6319  154.4782 C   0  0  0  0  0  0  0  0  0  0  0  0
  149.4366  139.0865  154.7702 N   0  0  0  0  0  0  0  0  0  0  0  0
  148.5053  138.1669  155.4148 C   0  0  0  0  0  0  0  0  0  0  0  0
  146.8539  138.8844  155.2210 S   0  0  0  0  0  0  0  0  0  0  0  0
  147.5131  140.5158  154.8397 C   0  0  0  0  0  0  0  0  0  0  0  0
  148.9733  140.3136  154.4743 C   0  0  0  0  0  0  0  0  0  0  0  0
  149.6337  141.2110  153.9519 O   0  0  0  0  0  0  0  0  0  0  0  0
  151.4249  139.5472  156.6582 N   0  0  0  0  0  0  0  0  0  0  0  0
  152.2155  140.2313  157.6790 C   0  0  0  0  0  0  0  0  0  0  0  0
  151.5212  141.5008  158.2146 C   0  0  0  0  0  0  0  0  0  0  0  0
  152.1038  142.0159  159.5204 C   0  0  0  0  0  0  0  0  0  0  0  0
  153.1808  141.3504  160.1448 C   0  0  0  0  0  0  0  0  0  0  0  0
  153.6532  141.8451  161.3755 C   0  0  0  0  0  0  0  0  0  0  0  0
  153.0396  142.9853  161.9282 C   0  0  0  0  0  0  0  0  0  0  0  0
  151.9782  143.5843  161.2209 C   0  0  0  0  0  0  0  0  0  0  0  0
  151.5164  143.1170  160.0409 N   0  0  0  0  0  0  0  0  0  0  0  0
  151.0483  138.8674  153.4431 H   0  0  0  0  0  0  0  0  0  0  0  0
  150.8647  137.5460  154.5682 H   0  0  0  0  0  0  0  0  0  0  0  0
  148.5399  137.1735  154.9663 H   0  0  0  0  0  0  0  0  0  0  0  0
  148.7486  138.0789  156.4739 H   0  0  0  0  0  0  0  0  0  0  0  0
  146.9588  140.9716  154.0191 H   0  0  0  0  0  0  0  0  0  0  0  0
  147.4390  141.1624  155.7143 H   0  0  0  0  0  0  0  0  0  0  0  0
  150.4959  139.2545  156.9249 H   0  0  0  0  0  0  0  0  0  0  0  0
  152.3701  139.5325  158.5012 H   0  0  0  0  0  0  0  0  0  0  0  0
  153.2087  140.4743  157.2977 H   0  0  0  0  0  0  0  0  0  0  0  0
  151.5726  142.2906  157.4639 H   0  0  0  0  0  0  0  0  0  0  0  0
  150.4602  141.2982  158.3646 H   0  0  0  0  0  0  0  0  0  0  0  0
  153.6244  140.4717  159.7009 H   0  0  0  0  0  0  0  0  0  0  0  0
  154.4684  141.3563  161.8881 H   0  0  0  0  0  0  0  0  0  0  0  0
  153.3741  143.3917  162.8712 H   0  0  0  0  0  0  0  0  0  0  0  0
  151.4858  144.4614  161.6137 H   0  0  0  0  0  0  0  0  0  0  0  0
  1  2  2  0  0  0  0
  2  3  1  0  0  0  0
  2 10  1  0  0  0  0
  3  4  1  0  0  0  0
  3 19  1  0  0  0  0
  3 20  1  0  0  0  0
  4  8  1  0  0  0  0
  4  5  1  0  0  0  0
  5  6  1  0  0  0  0
  5 21  1  0  0  0  0
  5 22  1  0  0  0  0
  6  7  1  0  0  0  0
  7  8  1  0  0  0  0
  7 23  1  0  0  0  0
  7 24  1  0  0  0  0
  8  9  2  0  0  0  0
 10 11  1  0  0  0  0
 10 25  1  0  0  0  0
 11 12  1  0  0  0  0
 11 26  1  0  0  0  0
 11 27  1  0  0  0  0
 12 13  1  0  0  0  0
 12 28  1  0  0  0  0
 12 29  1  0  0  0  0
 13 18  1  0  0  0  0
 13 14  2  0  0  0  0
 14 15  1  0  0  0  0
 14 30  1  0  0  0  0
 15 16  2  0  0  0  0
 15 31  1  0  0  0  0
 16 17  1  0  0  0  0
 16 32  1  0  0  0  0
 17 18  2  0  0  0  0
 17 33  1  0  0  0  0
M  END
> <s_m_source_file>
AV-unprocessed.smi

> <i_m_source_file_index>
1970

> <i_lp_mmshare_version>
43012

> <i_f3d_flags>
0

> <s_epik_input>
Tz1DMVtDSDJdU1tDSDJdTjFbQ0gyXUMoPU8pW05IXVtDSDJdW0NIMl1jMltjSF1bY0hdW2NIXVtjSF1uMg==

> <s_epik_cmdline>
J2VwaWtfcHl0aG9uJywgJy1waCcsICc3LjAnLCAnLXRuJywgJzgnLCAnLW1hJywgJzIwMCcsICctbWV0YWxfYmluZGluZycsICctaW1hZScsICc8aW5maWxlLm1hZT4nLCAnLW9tYWUnLCAnPG91dGZpbGUubWFlPic=

> <r_epik_Ionization_Penalty>
0.0255556

> <r_epik_Ionization_Penalty_Charging>
0

> <r_epik_Ionization_Penalty_Neutral>
0.0255556

> <r_epik_State_Penalty>
0.0208108

> <r_epik_Charging_Adjusted_Penalty>
0.0208108

> <i_epik_Tot_Q>
0

> <i_epik_Tot_abs_Q>
0

> <r_epik_Metal_State_Penalty>
0.0199448

> <b_epik_Metal_Only>
0

> <s_epik_Chemistry_Notes>
This compound contains an acetal/aminal-like group ( X-CH(R)-Y where X, Y are N, S, or O) that may be acid/base labile, releasing an aldehyde.

> <s_lp_Force_Field>
OPLS_2005

> <r_lp_Energy>
5.35786

> <b_lp_Chiralities_Consistent>
1

> <s_lp_Variant>
AV-unprocessed.smi:1970-1

> <Gold.Version>
5.8.1

> <Gold.Id.Protein>
6NUR|6NUR_protein|mol2

> <Gold.PLP.Fitness>
42.6687

> <Gold.PLP.PLP>
-37.3497

> <Gold.PLP.part.hbond>
-4.2283

> <Gold.PLP.part.metal>
0.0000

> <Gold.PLP.part.buried>
-5.2285

> <Gold.PLP.part.nonpolar>
-29.3711

> <Gold.PLP.part.repulsive>
0.8948

> <Gold.PLP.ligand.clash>
0.0000

> <Gold.PLP.ligand.torsion>
0.5120

> <Gold.PLP.Chemscore.Hbond>
2.1040

> <Gold.PLP.Chemscore.CHOScore>
0.0000

> <Gold.PLP.Chemscore.Metal>
0.0000

> <Gold.Chemscore.Hbonds>
donor molecule, donor type, donor heavy atom, donor atom, acceptor molecule, acceptor atom, score
      P1  H  7989  7998       L1     9  0.32
      P1  H  7997  8008       L1     1  1.00
      P1  H  8011  8017       L1     9  0.80

> <Gold.PLP.Chemscore.Internal.Correction>
0.0311

> <Gold.Rescore>
     Score         DG    S(hbond)    S(metal)    S(lipo)     H(rot)  DE(clash)    DE(int)     intcor
     16.18     -17.22       2.13        0.00      81.57       1.92       0.45       0.59       ----

> <Gold.Chemscore.Fitness>
16.1796

> <Gold.Chemscore.DG>
-17.2213

> <Gold.Chemscore.ZeroCoef>
-5.4800

> <Gold.Chemscore.Hbond>
2.1307

> <Gold.Chemscore.Metal>
0.0000

> <Gold.Chemscore.Lipo>
81.5705

> <Gold.Chemscore.Internal_Hbond>
0.0000

> <Gold.Chemscore.DEClash>
0.4508

> <Gold.Chemscore.DEInternal>
0.5909

> <Gold.Chemscore.Rot>
1.9215

> <Gold.Chemscore.Internal.Correction>
   9.000000E+99

> <Gold.Chemscore.Hbonds>
donor molecule, donor type, donor heavy atom, donor atom, acceptor molecule, acceptor atom, score
      P1  H  7989  7998       L1     9  0.31
      P1  H  7997  8008       L1     1  1.00
      P1  H  8011  8017       L1     9  0.75

> <Gold.Chemscore.Hbond.Weighted>
-7.1165

> <Gold.Chemscore.Metal.Weighted>
-0.0000

> <Gold.Chemscore.Lipo.Weighted>
-9.5438

> <Gold.Chemscore.Internal_Hbond.Weighted>
0.0000

> <Gold.Chemscore.DEClash.Weighted>
0.4508

> <Gold.Chemscore.DEInternal.Weighted>
0.5909

> <Gold.Chemscore.Rot.Weighted>
4.9190

> <Gold.Chemscore.Internal.Correction.Weighted>
   9.000000E+99

> <Gold.Protein.RotatedTorsions>
[ 6907 6896 6895 6894 ] final  -74.89 input  -60.11 | X-H torsion
[ 7974 7965 7964 7962 ] final  -46.60 input  175.53 | X-H torsion
[ 8008 7997 7996 7995 ] final   -9.07 input   59.86 | X-H torsion
[ 10167 10162 10161 10158 ] final   84.92 input  -65.29 | X-H torsion
[ 10718 10713 10712 10709 ] final  -34.60 input   66.30 | X-H torsion
[ 10763 10752 10751 10750 ] final   56.38 input  -60.55 | X-H torsion
[ 11005 11000 10999 10996 ] final   62.53 input  -57.11 | X-H torsion

> <Gold.Protein.ActiveResidues>
 VAL166  LYS551  ARG553  GLY616  TRP617  ASP618  TYR619  PRO620  LYS621  CYS622 
 ASP623  PHE694  ASN695  SER759  ASP760  ASP761  ALA762  ILE779  LEU786  VAL792 
 PHE793  MET794  SER795  GLU796  ALA797  LYS798  CYS799  TRP800  GLU811  SER814 

> <Gold.Protein.RotatedAtoms>
  150.7077  134.4802  159.5466 H   0  0  0  0  0  0  0  0  0  0  0  0  # atno 6907 bound_to 6896
  152.2441  134.8196  160.0465 H   0  0  0  0  0  0  0  0  0  0  0  0  # atno 6908 bound_to 6896
  151.8967  133.3493  159.3853 H   0  0  0  0  0  0  0  0  0  0  0  0  # atno 6909 bound_to 6896
  145.9703  140.7390  142.9414 H   0  0  0  0  0  0  0  0  0  0  0  0  # atno 7974 bound_to 7965
  154.5681  140.2364  155.8232 H   0  0  0  0  0  0  0  0  0  0  0  0  # atno 8008 bound_to 7997
  156.2085  140.3033  155.9638 H   0  0  0  0  0  0  0  0  0  0  0  0  # atno 8009 bound_to 7997
  155.2763  140.0420  157.3002 H   0  0  0  0  0  0  0  0  0  0  0  0  # atno 8010 bound_to 7997
  139.9031  144.6317  150.8616 H   0  0  0  0  0  0  0  0  0  0  0  0  # atno 10167 bound_to 10162
  156.3486  130.4305  149.7724 H   0  0  0  0  0  0  0  0  0  0  0  0  # atno 10718 bound_to 10713
  152.9831  135.5678  154.5220 H   0  0  0  0  0  0  0  0  0  0  0  0  # atno 10763 bound_to 10752
  154.4706  135.2785  155.1647 H   0  0  0  0  0  0  0  0  0  0  0  0  # atno 10764 bound_to 10752
  154.3197  135.6271  153.5555 H   0  0  0  0  0  0  0  0  0  0  0  0  # atno 10765 bound_to 10752
  140.0086  134.6331  155.9816 H   0  0  0  0  0  0  0  0  0  0  0  0  # atno 11005 bound_to 11000
  144.6835  140.2737  143.7302 LP  0  0  0  0  0  0  0  0  0  0  0  0  # atno 17320 bound_to 7965
  145.7916  139.1929  143.2100 LP  0  0  0  0  0  0  0  0  0  0  0  0  # atno 17321 bound_to 7965
  140.7702  143.3422  151.2185 LP  0  0  0  0  0  0  0  0  0  0  0  0  # atno 17342 bound_to 10162
  139.7008  143.9537  152.2904 LP  0  0  0  0  0  0  0  0  0  0  0  0  # atno 17343 bound_to 10162
  156.4933  130.8095  151.3103 LP  0  0  0  0  0  0  0  0  0  0  0  0  # atno 17370 bound_to 10713
  157.7458  130.9968  150.2794 LP  0  0  0  0  0  0  0  0  0  0  0  0  # atno 17371 bound_to 10713
  141.1695  133.6537  156.4599 LP  0  0  0  0  0  0  0  0  0  0  0  0  # atno 17394 bound_to 11000
  140.4596  134.6854  157.5079 LP  0  0  0  0  0  0  0  0  0  0  0  0  # atno 17395 bound_to 11000

$$$$
