AV-unprocessed.smi:415|AV-procd|sdf|2525|dock9
  -GOLD-   2262022483D 1   1.00000     0.00000
 Structure written by MMmdl.
 53 54  0  0  0  0  0  0  0  0  1 V2000
  145.5496  135.9841  152.1031 C   0  0  0  0  0  0  0  0  0  0  0  0
  146.2548  136.4962  153.2196 O   0  0  0  0  0  0  0  0  0  0  0  0
  146.3917  135.5428  154.2602 C   0  0  0  0  0  0  0  0  0  0  0  0
  147.1209  136.1859  155.4518 C   0  0  0  0  0  0  0  0  0  0  0  0
  148.4991  136.5328  155.1584 N   0  0  0  0  0  0  0  0  0  0  0  0
  149.5076  135.5901  154.9762 C   0  0  0  0  0  0  0  0  0  0  0  0
  149.2170  134.2430  155.0956 N   0  0  0  0  0  0  0  0  0  0  0  0
  150.7765  135.9618  154.6959 C   0  0  0  0  0  0  0  0  0  0  0  0
  151.1603  137.3616  154.5760 C   0  0  0  0  0  0  0  0  0  0  0  0
  152.3059  137.7187  154.2999 O   0  0  0  0  0  0  0  0  0  0  0  0
  150.1273  138.3019  154.7937 N   0  0  0  0  0  0  0  0  0  0  0  0
  150.4352  139.7448  154.6826 C   0  0  0  0  0  0  0  0  0  0  0  0
  151.4295  140.2296  155.7475 C   0  0  0  0  0  0  0  0  0  0  0  0
  152.5377  139.7042  155.8613 O   0  0  0  0  0  0  0  0  0  0  0  0
  151.0077  141.2341  156.5301 N   0  0  0  0  0  0  0  0  0  0  0  0
  151.7836  141.8595  157.5991 C   0  0  1  0  0  0  0  0  0  0  0  0
  151.2903  143.3056  157.8185 C   0  0  0  0  0  0  0  0  0  0  0  0
  152.0163  143.9882  158.9857 C   0  0  0  0  0  0  0  0  0  0  0  0
  151.8959  143.1598  160.2741 C   0  0  0  0  0  0  0  0  0  0  0  0
  152.4064  141.7163  160.0883 C   0  0  2  0  0  0  0  0  0  0  0  0
  153.9452  141.6654  159.9913 C   0  0  0  0  0  0  0  0  0  0  0  0
  151.6715  141.0305  158.9052 C   0  0  2  0  0  0  0  0  0  0  0  0
  152.0946  139.5593  158.7243 C   0  0  0  0  0  0  0  0  0  0  0  0
  148.7990  137.9171  155.0866 C   0  0  0  0  0  0  0  0  0  0  0  0
  147.9290  138.7737  155.2704 O   0  0  0  0  0  0  0  0  0  0  0  0
  145.4704  136.7544  151.3363 H   0  0  0  0  0  0  0  0  0  0  0  0
  144.5395  135.6791  152.3798 H   0  0  0  0  0  0  0  0  0  0  0  0
  146.0674  135.1282  151.6678 H   0  0  0  0  0  0  0  0  0  0  0  0
  145.4036  135.2075  154.5785 H   0  0  0  0  0  0  0  0  0  0  0  0
  146.9310  134.6639  153.9036 H   0  0  0  0  0  0  0  0  0  0  0  0
  146.6158  137.0915  155.7854 H   0  0  0  0  0  0  0  0  0  0  0  0
  147.1268  135.5311  156.3250 H   0  0  0  0  0  0  0  0  0  0  0  0
  148.2855  133.9193  155.3134 H   0  0  0  0  0  0  0  0  0  0  0  0
  149.8764  133.5354  154.8045 H   0  0  0  0  0  0  0  0  0  0  0  0
  151.5359  135.2057  154.5560 H   0  0  0  0  0  0  0  0  0  0  0  0
  150.8270  139.9720  153.6892 H   0  0  0  0  0  0  0  0  0  0  0  0
  149.5367  140.3586  154.7572 H   0  0  0  0  0  0  0  0  0  0  0  0
  150.0810  141.6008  156.3690 H   0  0  0  0  0  0  0  0  0  0  0  0
  152.8315  141.8863  157.2960 H   0  0  0  0  0  0  0  0  0  0  0  0
  151.4309  143.8947  156.9114 H   0  0  0  0  0  0  0  0  0  0  0  0
  150.2174  143.3011  158.0170 H   0  0  0  0  0  0  0  0  0  0  0  0
  153.0662  144.1350  158.7307 H   0  0  0  0  0  0  0  0  0  0  0  0
  151.6007  144.9831  159.1467 H   0  0  0  0  0  0  0  0  0  0  0  0
  152.4338  143.6510  161.0853 H   0  0  0  0  0  0  0  0  0  0  0  0
  150.8495  143.1328  160.5812 H   0  0  0  0  0  0  0  0  0  0  0  0
  152.1412  141.1716  160.9954 H   0  0  0  0  0  0  0  0  0  0  0  0
  154.3175  142.1401  159.0841 H   0  0  0  0  0  0  0  0  0  0  0  0
  154.3137  140.6398  160.0027 H   0  0  0  0  0  0  0  0  0  0  0  0
  154.4044  142.1752  160.8385 H   0  0  0  0  0  0  0  0  0  0  0  0
  150.6143  141.0075  159.1758 H   0  0  0  0  0  0  0  0  0  0  0  0
  153.1090  139.4780  158.3339 H   0  0  0  0  0  0  0  0  0  0  0  0
  151.4359  139.0363  158.0307 H   0  0  0  0  0  0  0  0  0  0  0  0
  152.0551  139.0208  159.6714 H   0  0  0  0  0  0  0  0  0  0  0  0
  1  2  1  0  0  0  0
  1 26  1  0  0  0  0
  1 27  1  0  0  0  0
  1 28  1  0  0  0  0
  2  3  1  0  0  0  0
  3  4  1  0  0  0  0
  3 29  1  0  0  0  0
  3 30  1  0  0  0  0
  4  5  1  0  0  0  0
  4 31  1  0  0  0  0
  4 32  1  0  0  0  0
  5 24  1  0  0  0  0
  5  6  1  0  0  0  0
  6  7  1  0  0  0  0
  6  8  2  0  0  0  0
  7 33  1  0  0  0  0
  7 34  1  0  0  0  0
  8  9  1  0  0  0  0
  8 35  1  0  0  0  0
  9 10  2  0  0  0  0
  9 11  1  0  0  0  0
 11 12  1  0  0  0  0
 11 24  1  0  0  0  0
 12 13  1  0  0  0  0
 12 36  1  0  0  0  0
 12 37  1  0  0  0  0
 13 14  2  0  0  0  0
 13 15  1  0  0  0  0
 15 16  1  0  0  0  0
 15 38  1  0  0  0  0
 16 22  1  0  0  0  0
 16 17  1  0  0  0  0
 16 39  1  0  0  0  0
 17 18  1  0  0  0  0
 17 40  1  0  0  0  0
 17 41  1  0  0  0  0
 18 19  1  0  0  0  0
 18 42  1  0  0  0  0
 18 43  1  0  0  0  0
 19 20  1  0  0  0  0
 19 44  1  0  0  0  0
 19 45  1  0  0  0  0
 20 21  1  0  0  0  0
 20 22  1  0  0  0  0
 20 46  1  0  0  0  0
 21 47  1  0  0  0  0
 21 48  1  0  0  0  0
 21 49  1  0  0  0  0
 22 23  1  0  0  0  0
 22 50  1  0  0  0  0
 23 51  1  0  0  0  0
 23 52  1  0  0  0  0
 23 53  1  0  0  0  0
 24 25  2  0  0  0  0
M  END
> <s_m_source_file>
AV-unprocessed.smi

> <i_m_source_file_index>
415

> <i_lp_mmshare_version>
43012

> <i_f3d_flags>
0

> <s_epik_input>
W0NIM11PW0NIMl1bQ0gyXW4xYyhbTkgyXSlbY0hdYyg9TyluKGMxPU8pW0NIMl1DKD1PKVtOSF1bQ0BASF0yW0NIMl1bQ0gyXVtDSDJdW0NAQEhdKFtDSDNdKVtDQEhdMltDSDNd

> <s_epik_cmdline>
J2VwaWtfcHl0aG9uJywgJy1waCcsICc3LjAnLCAnLXRuJywgJzgnLCAnLW1hJywgJzIwMCcsICctbWV0YWxfYmluZGluZycsICctaW1hZScsICc8aW5maWxlLm1hZT4nLCAnLW9tYWUnLCAnPG91dGZpbGUubWFlPic=

> <r_lp_tautomer_probability>
1

> <r_epik_Ionization_Penalty>
8.6647e-06

> <r_epik_Ionization_Penalty_Charging>
1.81162e-08

> <r_epik_Ionization_Penalty_Neutral>
8.64658e-06

> <r_epik_State_Penalty>
-0

> <r_epik_Charging_Adjusted_Penalty>
1.81162e-08

> <i_epik_Tot_Q>
0

> <i_epik_Tot_abs_Q>
0

> <r_epik_Metal_State_Penalty>
-0

> <b_epik_Metal_Only>
0

> <s_lp_Force_Field>
OPLS_2005

> <r_lp_Energy>
23.106

> <b_lp_Chiralities_Consistent>
1

> <s_lp_Variant>
AV-unprocessed.smi:415-8

> <Gold.Version>
5.8.1

> <Gold.Id.Protein>
6NUR|6NUR_protein|mol2

> <Gold.PLP.Fitness>
44.8439

> <Gold.PLP.PLP>
-40.5574

> <Gold.PLP.part.hbond>
-2.0000

> <Gold.PLP.part.metal>
0.0000

> <Gold.PLP.part.buried>
-5.6715

> <Gold.PLP.part.nonpolar>
-34.3556

> <Gold.PLP.part.repulsive>
0.5266

> <Gold.PLP.ligand.clash>
0.0000

> <Gold.PLP.ligand.torsion>
0.4698

> <Gold.PLP.Chemscore.Hbond>
1.7360

> <Gold.PLP.Chemscore.CHOScore>
0.0000

> <Gold.PLP.Chemscore.Metal>
0.0000

> <Gold.Chemscore.Hbonds>
donor molecule, donor type, donor heavy atom, donor atom, acceptor molecule, acceptor atom, score
      P1  H  7997  8009       L1    14  1.00
      P1  H 10752 10763       L1    10  0.31

> <Gold.PLP.Chemscore.Internal.Correction>
0.0181

> <Gold.Rescore>
     Score         DG    S(hbond)    S(metal)    S(lipo)     H(rot)  DE(clash)    DE(int)     intcor
     13.30     -16.57       1.91        0.00      89.70       2.26       0.00       3.27       ----

> <Gold.Chemscore.Fitness>
13.2981

> <Gold.Chemscore.DG>
-16.5664

> <Gold.Chemscore.ZeroCoef>
-5.4800

> <Gold.Chemscore.Hbond>
1.9127

> <Gold.Chemscore.Metal>
0.0000

> <Gold.Chemscore.Lipo>
89.7030

> <Gold.Chemscore.Internal_Hbond>
0.0000

> <Gold.Chemscore.DEClash>
0.0004

> <Gold.Chemscore.DEInternal>
3.2679

> <Gold.Chemscore.Rot>
2.2645

> <Gold.Chemscore.Internal.Correction>
   9.000000E+99

> <Gold.Chemscore.Hbonds>
donor molecule, donor type, donor heavy atom, donor atom, acceptor molecule, acceptor atom, score
      P1  H  7997  8009       L1    14  1.00
      P1  H 10752 10763       L1    10  0.02

> <Gold.Chemscore.Hbond.Weighted>
-6.3883

> <Gold.Chemscore.Metal.Weighted>
-0.0000

> <Gold.Chemscore.Lipo.Weighted>
-10.4953

> <Gold.Chemscore.Internal_Hbond.Weighted>
0.0000

> <Gold.Chemscore.DEClash.Weighted>
0.0004

> <Gold.Chemscore.DEInternal.Weighted>
3.2679

> <Gold.Chemscore.Rot.Weighted>
5.7972

> <Gold.Chemscore.Internal.Correction.Weighted>
   9.000000E+99

> <Gold.Protein.RotatedTorsions>
[ 6907 6896 6895 6894 ] final   28.24 input  -60.11 | X-H torsion
[ 7974 7965 7964 7962 ] final  -68.54 input  175.53 | X-H torsion
[ 8008 7997 7996 7995 ] final -156.67 input   59.86 | X-H torsion
[ 10167 10162 10161 10158 ] final   91.66 input  -65.29 | X-H torsion
[ 10718 10713 10712 10709 ] final  178.75 input   66.30 | X-H torsion
[ 10763 10752 10751 10750 ] final   37.48 input  -60.55 | X-H torsion
[ 11005 11000 10999 10996 ] final   -2.40 input  -57.11 | X-H torsion

> <Gold.Protein.ActiveResidues>
 VAL166  LYS551  ARG553  GLY616  TRP617  ASP618  TYR619  PRO620  LYS621  CYS622 
 ASP623  PHE694  ASN695  SER759  ASP760  ASP761  ALA762  ILE779  LEU786  VAL792 
 PHE793  MET794  SER795  GLU796  ALA797  LYS798  CYS799  TRP800  GLU811  SER814 

> <Gold.Protein.RotatedAtoms>
  152.0140  134.9860  160.0568 H   0  0  0  0  0  0  0  0  0  0  0  0  # atno 6907 bound_to 6896
  152.1401  133.4454  159.4771 H   0  0  0  0  0  0  0  0  0  0  0  0  # atno 6908 bound_to 6896
  150.6864  134.2234  159.4449 H   0  0  0  0  0  0  0  0  0  0  0  0  # atno 6909 bound_to 6896
  145.7152  140.9061  143.0659 H   0  0  0  0  0  0  0  0  0  0  0  0  # atno 7974 bound_to 7965
  155.7207  140.0789  157.2332 H   0  0  0  0  0  0  0  0  0  0  0  0  # atno 8008 bound_to 7997
  154.4045  140.1613  156.2453 H   0  0  0  0  0  0  0  0  0  0  0  0  # atno 8009 bound_to 7997
  155.9199  140.3398  155.6167 H   0  0  0  0  0  0  0  0  0  0  0  0  # atno 8010 bound_to 7997
  139.8353  144.6668  150.9350 H   0  0  0  0  0  0  0  0  0  0  0  0  # atno 10167 bound_to 10162
  156.8859  130.9831  151.3056 H   0  0  0  0  0  0  0  0  0  0  0  0  # atno 10718 bound_to 10713
  153.0036  135.6276  154.2152 H   0  0  0  0  0  0  0  0  0  0  0  0  # atno 10763 bound_to 10752
  154.1895  135.2809  155.3028 H   0  0  0  0  0  0  0  0  0  0  0  0  # atno 10764 bound_to 10752
  154.5771  135.5659  153.7209 H   0  0  0  0  0  0  0  0  0  0  0  0  # atno 10765 bound_to 10752
  140.6579  133.9346  155.8419 H   0  0  0  0  0  0  0  0  0  0  0  0  # atno 11005 bound_to 11000
  144.6931  139.9128  143.7464 LP  0  0  0  0  0  0  0  0  0  0  0  0  # atno 17320 bound_to 7965
  146.0676  139.3666  143.0543 LP  0  0  0  0  0  0  0  0  0  0  0  0  # atno 17321 bound_to 7965
  140.7803  143.3963  151.1224 LP  0  0  0  0  0  0  0  0  0  0  0  0  # atno 17342 bound_to 10162
  139.7613  143.8630  152.3101 LP  0  0  0  0  0  0  0  0  0  0  0  0  # atno 17343 bound_to 10162
  157.6113  130.8585  149.8956 LP  0  0  0  0  0  0  0  0  0  0  0  0  # atno 17370 bound_to 10713
  156.0654  130.3693  150.0891 LP  0  0  0  0  0  0  0  0  0  0  0  0  # atno 17371 bound_to 10713
  141.0487  134.0516  157.3811 LP  0  0  0  0  0  0  0  0  0  0  0  0  # atno 17394 bound_to 11000
  139.9023  135.0169  156.7326 LP  0  0  0  0  0  0  0  0  0  0  0  0  # atno 17395 bound_to 11000

$$$$
