AV-unprocessed.smi:1754|AV-procd|sdf|7066|dock7
  -GOLD-   22720 8283D 1   1.00000     0.00000
 Structure written by MMmdl.
 44 45  0  0  0  0  0  0  0  0  1 V2000
  146.3084  130.4766  151.8750 C   0  0  0  0  0  0  0  0  0  0  0  0
  145.2520  131.5726  152.0866 C   0  0  0  0  0  0  0  0  0  0  0  0
  145.3235  132.6409  151.0867 N   0  0  0  0  0  0  0  0  0  0  0  0
  145.1620  132.2506  149.6863 C   0  0  0  0  0  0  0  0  0  0  0  0
  143.7765  132.6025  149.1232 C   0  0  0  0  0  0  0  0  0  0  0  0
  144.7913  133.9091  151.4108 C   0  0  0  0  0  0  0  0  0  0  0  0
  144.9562  134.9938  150.5186 C   0  0  0  0  0  0  0  0  0  0  0  0
  144.4081  136.2481  150.8481 C   0  0  0  0  0  0  0  0  0  0  0  0
  143.7096  136.3908  152.0699 C   0  0  0  0  0  0  0  0  0  0  0  0
  143.0966  137.5927  152.5176 N   0  0  0  0  0  0  0  0  0  0  0  0
  141.9698  137.7574  153.2386 C   0  0  0  0  0  0  0  0  0  0  0  0
  141.2447  136.8451  153.6278 O   0  0  0  0  0  0  0  0  0  0  0  0
  141.6643  139.0416  153.4976 N   0  0  0  0  0  0  0  0  0  0  0  0
  140.5233  139.5714  154.2463 C   0  0  2  0  0  0  0  0  0  0  0  0
  139.2094  139.3501  153.4733 C   0  0  0  0  0  0  0  0  0  0  0  0
  138.1142  140.2233  154.0984 C   0  0  0  0  0  0  0  0  0  0  0  0
  138.9631  141.7042  154.7671 S   0  0  0  0  0  0  0  0  0  0  0  0
  138.7320  142.8515  153.8764 O   0  0  0  0  0  0  0  0  0  0  0  0
  138.6910  141.7977  156.2095 O   0  0  0  0  0  0  0  0  0  0  0  0
  140.6656  141.0798  154.5089 C   0  0  0  0  0  0  0  0  0  0  0  0
  143.5878  135.2494  152.8871 C   0  0  0  0  0  0  0  0  0  0  0  0
  144.1111  134.0458  152.5749 N   0  0  0  0  0  0  0  0  0  0  0  0
  146.1902  129.6837  152.6134 H   0  0  0  0  0  0  0  0  0  0  0  0
  147.3244  130.8596  151.9688 H   0  0  0  0  0  0  0  0  0  0  0  0
  146.2109  130.0252  150.8874 H   0  0  0  0  0  0  0  0  0  0  0  0
  144.2632  131.1152  152.0427 H   0  0  0  0  0  0  0  0  0  0  0  0
  145.3434  131.9946  153.0881 H   0  0  0  0  0  0  0  0  0  0  0  0
  145.9358  132.7024  149.0666 H   0  0  0  0  0  0  0  0  0  0  0  0
  145.3188  131.1743  149.6082 H   0  0  0  0  0  0  0  0  0  0  0  0
  143.6909  132.2802  148.0855 H   0  0  0  0  0  0  0  0  0  0  0  0
  143.5970  133.6777  149.1498 H   0  0  0  0  0  0  0  0  0  0  0  0
  142.9809  132.1150  149.6871 H   0  0  0  0  0  0  0  0  0  0  0  0
  145.5014  134.8784  149.5936 H   0  0  0  0  0  0  0  0  0  0  0  0
  144.5285  137.0628  150.1521 H   0  0  0  0  0  0  0  0  0  0  0  0
  143.5499  138.4424  152.2147 H   0  0  0  0  0  0  0  0  0  0  0  0
  142.2941  139.7335  153.1175 H   0  0  0  0  0  0  0  0  0  0  0  0
  140.4285  139.0534  155.2025 H   0  0  0  0  0  0  0  0  0  0  0  0
  139.3474  139.6568  152.4353 H   0  0  0  0  0  0  0  0  0  0  0  0
  138.9203  138.2987  153.4575 H   0  0  0  0  0  0  0  0  0  0  0  0
  137.3459  140.5186  153.3835 H   0  0  0  0  0  0  0  0  0  0  0  0
  137.6357  139.7065  154.9303 H   0  0  0  0  0  0  0  0  0  0  0  0
  141.2848  141.3107  155.3760 H   0  0  0  0  0  0  0  0  0  0  0  0
  141.0788  141.5945  153.6407 H   0  0  0  0  0  0  0  0  0  0  0  0
  143.0546  135.3019  153.8252 H   0  0  0  0  0  0  0  0  0  0  0  0
  1  2  1  0  0  0  0
  1 23  1  0  0  0  0
  1 24  1  0  0  0  0
  1 25  1  0  0  0  0
  2  3  1  0  0  0  0
  2 26  1  0  0  0  0
  2 27  1  0  0  0  0
  3  4  1  0  0  0  0
  3  6  1  0  0  0  0
  4  5  1  0  0  0  0
  4 28  1  0  0  0  0
  4 29  1  0  0  0  0
  5 30  1  0  0  0  0
  5 31  1  0  0  0  0
  5 32  1  0  0  0  0
  6 22  1  0  0  0  0
  6  7  2  0  0  0  0
  7  8  1  0  0  0  0
  7 33  1  0  0  0  0
  8  9  2  0  0  0  0
  8 34  1  0  0  0  0
  9 10  1  0  0  0  0
  9 21  1  0  0  0  0
 10 11  1  0  0  0  0
 10 35  1  0  0  0  0
 11 12  2  0  0  0  0
 11 13  1  0  0  0  0
 13 14  1  0  0  0  0
 13 36  1  0  0  0  0
 14 20  1  0  0  0  0
 14 15  1  0  0  0  0
 14 37  1  0  0  0  0
 15 16  1  0  0  0  0
 15 38  1  0  0  0  0
 15 39  1  0  0  0  0
 16 17  1  0  0  0  0
 16 40  1  0  0  0  0
 16 41  1  0  0  0  0
 17 18  2  0  0  0  0
 17 19  2  0  0  0  0
 17 20  1  0  0  0  0
 20 42  1  0  0  0  0
 20 43  1  0  0  0  0
 21 22  2  0  0  0  0
 21 44  1  0  0  0  0
M  END
> <s_m_source_file>
AV-unprocessed.smi

> <i_m_source_file_index>
1754

> <i_lp_mmshare_version>
43012

> <i_f3d_flags>
0

> <s_epik_input>
W0NIM11bQ0gyXU4oW0NIMl1bQ0gzXSljMVtjSF1bY0hdYyhbY0hdbjEpW05IXUMoPU8pW05IXVtDQEBIXShbQ0gyXTIpW0NIMl1bQ0gyXVMyKD1PKT1P

> <s_epik_cmdline>
J2VwaWtfcHl0aG9uJywgJy1waCcsICc3LjAnLCAnLXRuJywgJzgnLCAnLW1hJywgJzIwMCcsICctbWV0YWxfYmluZGluZycsICctaW1hZScsICc8aW5maWxlLm1hZT4nLCAnLW9tYWUnLCAnPG91dGZpbGUubWFlPic=

> <r_lp_tautomer_probability>
1

> <r_epik_Ionization_Penalty>
0.615754

> <r_epik_Ionization_Penalty_Charging>
0

> <r_epik_Ionization_Penalty_Neutral>
0.615754

> <r_epik_State_Penalty>
2.08676

> <r_epik_Charging_Adjusted_Penalty>
2.08676

> <i_epik_Tot_Q>
0

> <i_epik_Tot_abs_Q>
0

> <r_epik_Metal_State_Penalty>
1.53042

> <b_epik_Metal_Only>
0

> <s_lp_Force_Field>
OPLS_2005

> <r_lp_Energy>
24.3589

> <b_lp_Chiralities_Consistent>
1

> <s_lp_Variant>
AV-unprocessed.smi:1754-3

> <Gold.Version>
5.8.1

> <Gold.Id.Protein>
6NUR|6NUR_protein|mol2

> <Gold.PLP.Fitness>
43.9974

> <Gold.PLP.PLP>
-36.8839

> <Gold.PLP.part.hbond>
-3.9446

> <Gold.PLP.part.metal>
0.0000

> <Gold.PLP.part.buried>
-0.2279

> <Gold.PLP.part.nonpolar>
-32.9016

> <Gold.PLP.part.repulsive>
0.3958

> <Gold.PLP.ligand.clash>
0.0000

> <Gold.PLP.ligand.torsion>
1.0404

> <Gold.PLP.Chemscore.Hbond>
2.7778

> <Gold.PLP.Chemscore.CHOScore>
0.0000

> <Gold.PLP.Chemscore.Metal>
0.0000

> <Gold.Chemscore.Hbonds>
donor molecule, donor type, donor heavy atom, donor atom, acceptor molecule, acceptor atom, score
      L1  H    10    35       P1 10175  0.90
      L1  H    13    36       P1 10175  1.00
      P1  H 10162 10167       L1    18  0.74

> <Gold.PLP.Chemscore.Internal.Correction>
0.8610

> <Gold.Rescore>
     Score         DG    S(hbond)    S(metal)    S(lipo)     H(rot)  DE(clash)    DE(int)     intcor
     16.57     -20.36       2.66        0.00      81.54       1.39       1.41       2.37       ----

> <Gold.Chemscore.Fitness>
16.5712

> <Gold.Chemscore.DG>
-20.3566

> <Gold.Chemscore.ZeroCoef>
-5.4800

> <Gold.Chemscore.Hbond>
2.6612

> <Gold.Chemscore.Metal>
0.0000

> <Gold.Chemscore.Lipo>
81.5433

> <Gold.Chemscore.Internal_Hbond>
0.0000

> <Gold.Chemscore.DEClash>
1.4105

> <Gold.Chemscore.DEInternal>
2.3748

> <Gold.Chemscore.Rot>
1.3876

> <Gold.Chemscore.Internal.Correction>
   9.000000E+99

> <Gold.Chemscore.Hbonds>
donor molecule, donor type, donor heavy atom, donor atom, acceptor molecule, acceptor atom, score
      L1  H    10    35       P1 10175  0.85
      L1  H    13    36       P1 10175  0.87
      P1  H 10162 10167       L1    18  0.73

> <Gold.Chemscore.Hbond.Weighted>
-8.8884

> <Gold.Chemscore.Metal.Weighted>
-0.0000

> <Gold.Chemscore.Lipo.Weighted>
-9.5406

> <Gold.Chemscore.Internal_Hbond.Weighted>
0.0000

> <Gold.Chemscore.DEClash.Weighted>
1.4105

> <Gold.Chemscore.DEInternal.Weighted>
2.3748

> <Gold.Chemscore.Rot.Weighted>
3.5524

> <Gold.Chemscore.Internal.Correction.Weighted>
   9.000000E+99

> <Gold.Protein.RotatedTorsions>
[ 6907 6896 6895 6894 ] final -123.39 input  -60.11 | X-H torsion
[ 7974 7965 7964 7962 ] final  -55.79 input  175.53 | X-H torsion
[ 8008 7997 7996 7995 ] final    9.88 input   59.86 | X-H torsion
[ 10167 10162 10161 10158 ] final -145.75 input  -65.29 | X-H torsion
[ 10718 10713 10712 10709 ] final  -53.87 input   66.30 | X-H torsion
[ 10763 10752 10751 10750 ] final  126.44 input  -60.55 | X-H torsion
[ 11005 11000 10999 10996 ] final -107.72 input  -57.11 | X-H torsion

> <Gold.Protein.ActiveResidues>
 VAL166  LYS551  ARG553  GLY616  TRP617  ASP618  TYR619  PRO620  LYS621  CYS622 
 ASP623  PHE694  ASN695  SER759  ASP760  ASP761  ALA762  ILE779  LEU786  VAL792 
 PHE793  MET794  SER795  GLU796  ALA797  LYS798  CYS799  TRP800  GLU811  SER814 

> <Gold.Protein.RotatedAtoms>
  150.8666  133.7565  159.2974 H   0  0  0  0  0  0  0  0  0  0  0  0  # atno 6907 bound_to 6896
  151.5190  135.1065  159.9883 H   0  0  0  0  0  0  0  0  0  0  0  0  # atno 6908 bound_to 6896
  152.4665  133.7891  159.6948 H   0  0  0  0  0  0  0  0  0  0  0  0  # atno 6909 bound_to 6896
  145.8702  140.8222  142.9892 H   0  0  0  0  0  0  0  0  0  0  0  0  # atno 7974 bound_to 7965
  154.7860  140.2827  155.6028 H   0  0  0  0  0  0  0  0  0  0  0  0  # atno 8008 bound_to 7997
  156.2957  140.2614  156.2624 H   0  0  0  0  0  0  0  0  0  0  0  0  # atno 8009 bound_to 7997
  154.9728  140.0376  157.2232 H   0  0  0  0  0  0  0  0  0  0  0  0  # atno 8010 bound_to 7997
  139.7777  143.8146  152.2634 H   0  0  0  0  0  0  0  0  0  0  0  0  # atno 10167 bound_to 10162
  156.1498  130.4151  149.9963 H   0  0  0  0  0  0  0  0  0  0  0  0  # atno 10718 bound_to 10713
  153.6934  135.3295  155.3207 H   0  0  0  0  0  0  0  0  0  0  0  0  # atno 10763 bound_to 10752
  154.8433  135.4437  154.1485 H   0  0  0  0  0  0  0  0  0  0  0  0  # atno 10764 bound_to 10752
  153.2533  135.6983  153.7734 H   0  0  0  0  0  0  0  0  0  0  0  0  # atno 10765 bound_to 10752
  141.0939  133.9005  157.2009 H   0  0  0  0  0  0  0  0  0  0  0  0  # atno 11005 bound_to 11000
  144.6726  140.1227  143.7449 LP  0  0  0  0  0  0  0  0  0  0  0  0  # atno 17320 bound_to 7965
  145.9146  139.2508  143.1417 LP  0  0  0  0  0  0  0  0  0  0  0  0  # atno 17321 bound_to 7965
  139.8199  144.7300  150.9586 LP  0  0  0  0  0  0  0  0  0  0  0  0  # atno 17342 bound_to 10162
  140.7817  143.4169  151.0904 LP  0  0  0  0  0  0  0  0  0  0  0  0  # atno 17343 bound_to 10162
  156.7824  130.9226  151.3646 LP  0  0  0  0  0  0  0  0  0  0  0  0  # atno 17370 bound_to 10713
  157.6648  130.8997  149.9907 LP  0  0  0  0  0  0  0  0  0  0  0  0  # atno 17371 bound_to 10713
  139.9771  135.0110  156.9659 LP  0  0  0  0  0  0  0  0  0  0  0  0  # atno 17394 bound_to 11000
  140.5186  134.0930  155.7286 LP  0  0  0  0  0  0  0  0  0  0  0  0  # atno 17395 bound_to 11000

$$$$
