AV-unprocessed.smi:641|AV-procd|sdf|3151|dock1
  -GOLD-   22720 0 73D 1   1.00000     0.00000
 Structure written by MMmdl.
 39 40  0  0  0  0  0  0  0  0  1 V2000
  145.4875  131.7486  149.6041 C   0  0  0  0  0  0  0  0  0  0  0  0
  145.1167  133.0208  150.2990 C   0  0  0  0  0  0  0  0  0  0  0  0
  143.8513  133.4567  150.6078 C   0  0  0  0  0  0  0  0  0  0  0  0
  143.8715  134.9989  151.4208 S   0  0  0  0  0  0  0  0  0  0  0  0
  145.6246  134.9908  151.3097 C   0  0  0  0  0  0  0  0  0  0  0  0
  146.4152  136.0527  151.8225 N   0  0  0  0  0  0  0  0  0  0  0  0
  145.9993  137.1893  152.4081 C   0  0  0  0  0  0  0  0  0  0  0  0
  144.8238  137.4991  152.6047 O   0  0  0  0  0  0  0  0  0  0  0  0
  147.0375  137.9606  152.7633 N   0  0  0  0  0  0  0  0  0  0  0  0
  146.9389  139.2687  153.4051 C   0  0  0  0  0  0  0  0  0  0  0  0
  148.0471  139.4962  154.4540 C   0  0  0  0  0  0  0  0  0  0  0  0
  148.4094  140.9807  154.6512 C   0  0  0  0  0  0  0  0  0  0  0  0
  149.5755  141.1460  155.6420 C   0  0  0  0  0  0  0  0  0  0  0  0
  150.7552  140.4157  155.1719 N   0  0  0  0  0  0  0  0  0  0  0  0
  151.8673  140.6097  156.0962 C   0  0  0  0  0  0  0  0  0  0  0  0
  151.5147  140.2710  157.4854 C   0  0  0  0  0  0  0  0  0  0  0  0
  151.2382  140.0053  158.5770 N   0  0  0  0  0  0  0  0  0  0  0  0
  150.4515  138.9866  155.0968 C   0  0  0  0  0  0  0  0  0  0  0  0
  149.3274  138.7320  154.0780 C   0  0  0  0  0  0  0  0  0  0  0  0
  146.1203  133.9047  150.7056 N   0  0  0  0  0  0  0  0  0  0  0  0
  144.6071  131.2300  149.2238 H   0  0  0  0  0  0  0  0  0  0  0  0
  146.0051  131.0685  150.2808 H   0  0  0  0  0  0  0  0  0  0  0  0
  146.1477  131.9397  148.7577 H   0  0  0  0  0  0  0  0  0  0  0  0
  142.9107  132.9654  150.4066 H   0  0  0  0  0  0  0  0  0  0  0  0
  147.4129  135.9353  151.7263 H   0  0  0  0  0  0  0  0  0  0  0  0
  147.9682  137.6229  152.5664 H   0  0  0  0  0  0  0  0  0  0  0  0
  147.0214  140.0205  152.6197 H   0  0  0  0  0  0  0  0  0  0  0  0
  145.9548  139.4121  153.8549 H   0  0  0  0  0  0  0  0  0  0  0  0
  147.6924  139.1053  155.4092 H   0  0  0  0  0  0  0  0  0  0  0  0
  148.6756  141.4306  153.6935 H   0  0  0  0  0  0  0  0  0  0  0  0
  147.5486  141.5357  155.0239 H   0  0  0  0  0  0  0  0  0  0  0  0
  149.8111  142.2060  155.7401 H   0  0  0  0  0  0  0  0  0  0  0  0
  149.2850  140.7909  156.6318 H   0  0  0  0  0  0  0  0  0  0  0  0
  152.7327  140.0158  155.7990 H   0  0  0  0  0  0  0  0  0  0  0  0
  152.1717  141.6568  156.0957 H   0  0  0  0  0  0  0  0  0  0  0  0
  151.3454  138.4419  154.7910 H   0  0  0  0  0  0  0  0  0  0  0  0
  150.1673  138.6096  156.0805 H   0  0  0  0  0  0  0  0  0  0  0  0
  149.1207  137.6628  154.0238 H   0  0  0  0  0  0  0  0  0  0  0  0
  149.6625  139.0321  153.0839 H   0  0  0  0  0  0  0  0  0  0  0  0
  1  2  1  0  0  0  0
  1 21  1  0  0  0  0
  1 22  1  0  0  0  0
  1 23  1  0  0  0  0
  2 20  1  0  0  0  0
  2  3  2  0  0  0  0
  3  4  1  0  0  0  0
  3 24  1  0  0  0  0
  4  5  1  0  0  0  0
  5  6  1  0  0  0  0
  5 20  2  0  0  0  0
  6  7  1  0  0  0  0
  6 25  1  0  0  0  0
  7  8  2  0  0  0  0
  7  9  1  0  0  0  0
  9 10  1  0  0  0  0
  9 26  1  0  0  0  0
 10 11  1  0  0  0  0
 10 27  1  0  0  0  0
 10 28  1  0  0  0  0
 11 19  1  0  0  0  0
 11 12  1  0  0  0  0
 11 29  1  0  0  0  0
 12 13  1  0  0  0  0
 12 30  1  0  0  0  0
 12 31  1  0  0  0  0
 13 14  1  0  0  0  0
 13 32  1  0  0  0  0
 13 33  1  0  0  0  0
 14 15  1  0  0  0  0
 14 18  1  0  0  0  0
 15 16  1  0  0  0  0
 15 34  1  0  0  0  0
 15 35  1  0  0  0  0
 16 17  3  0  0  0  0
 18 19  1  0  0  0  0
 18 36  1  0  0  0  0
 18 37  1  0  0  0  0
 19 38  1  0  0  0  0
 19 39  1  0  0  0  0
M  END
> <s_m_source_file>
AV-unprocessed.smi

> <i_m_source_file_index>
641

> <i_lp_mmshare_version>
43012

> <i_f3d_flags>
0

> <s_epik_input>
W0NIM11jMVtjSF1zYyhuMSlbTkhdQyg9TylbTkhdW0NIMl1bQ0hdMltDSDJdW0NIMl1OKFtDSDJdQyNOKVtDSDJdW0NIMl0y

> <s_epik_cmdline>
J2VwaWtfcHl0aG9uJywgJy1waCcsICc3LjAnLCAnLXRuJywgJzgnLCAnLW1hJywgJzIwMCcsICctbWV0YWxfYmluZGluZycsICctaW1hZScsICc8aW5maWxlLm1hZT4nLCAnLW9tYWUnLCAnPG91dGZpbGUubWFlPic=

> <r_lp_tautomer_probability>
0.999

> <r_epik_Ionization_Penalty>
0.00182121

> <r_epik_Ionization_Penalty_Charging>
0

> <r_epik_Ionization_Penalty_Neutral>
0.00182121

> <r_epik_State_Penalty>
0.000177984

> <r_epik_Charging_Adjusted_Penalty>
0.000177984

> <i_epik_Tot_Q>
0

> <i_epik_Tot_abs_Q>
0

> <r_epik_Metal_State_Penalty>
-0

> <b_epik_Metal_Only>
0

> <s_lp_Force_Field>
OPLS_2005

> <r_lp_Energy>
13.7532

> <b_lp_Chiralities_Consistent>
1

> <s_lp_Variant>
AV-unprocessed.smi:641-1

> <Gold.Version>
5.8.1

> <Gold.Id.Protein>
6NUR|6NUR_protein|mol2

> <Gold.PLP.Fitness>
41.3379

> <Gold.PLP.PLP>
-31.4030

> <Gold.PLP.part.hbond>
-2.9530

> <Gold.PLP.part.metal>
0.0000

> <Gold.PLP.part.buried>
-6.1253

> <Gold.PLP.part.nonpolar>
-25.0999

> <Gold.PLP.part.repulsive>
0.5985

> <Gold.PLP.ligand.clash>
0.0000

> <Gold.PLP.ligand.torsion>
0.5335

> <Gold.PLP.Chemscore.Hbond>
2.9120

> <Gold.PLP.Chemscore.CHOScore>
0.7512

> <Gold.PLP.Chemscore.Metal>
0.0000

> <Gold.Chemscore.Hbonds>
donor molecule, donor type, donor heavy atom, donor atom, acceptor molecule, acceptor atom, score
      L1  H     6    25       P1  7948  1.00
      L1  H     9    26       P1  7948  0.91
      P1  H  7989  7998       L1    14  1.00
      L1  C     3    24       P1 10186  0.72

> <Gold.PLP.Chemscore.Internal.Correction>
0.0123

> <Gold.Rescore>
     Score         DG    S(hbond)    S(metal)    S(lipo)     H(rot)  DE(clash)    DE(int)     intcor
     15.62     -17.41       2.21        0.00      74.32       1.62       0.10       1.69       ----

> <Gold.Chemscore.Fitness>
15.6233

> <Gold.Chemscore.DG>
-17.4112

> <Gold.Chemscore.ZeroCoef>
-5.4800

> <Gold.Chemscore.Hbond>
2.2120

> <Gold.Chemscore.Metal>
0.0000

> <Gold.Chemscore.Lipo>
74.3219

> <Gold.Chemscore.Internal_Hbond>
0.0000

> <Gold.Chemscore.DEClash>
0.1026

> <Gold.Chemscore.DEInternal>
1.6853

> <Gold.Chemscore.Rot>
1.6221

> <Gold.Chemscore.Internal.Correction>
   9.000000E+99

> <Gold.Chemscore.Hbonds>
donor molecule, donor type, donor heavy atom, donor atom, acceptor molecule, acceptor atom, score
      L1  H     6    25       P1  7948  0.94
      L1  H     9    26       P1  7948  0.90
      P1  H  7989  7998       L1    14  0.15

> <Gold.Chemscore.Hbond.Weighted>
-7.3880

> <Gold.Chemscore.Metal.Weighted>
-0.0000

> <Gold.Chemscore.Lipo.Weighted>
-8.6957

> <Gold.Chemscore.Internal_Hbond.Weighted>
0.0000

> <Gold.Chemscore.DEClash.Weighted>
0.1026

> <Gold.Chemscore.DEInternal.Weighted>
1.6853

> <Gold.Chemscore.Rot.Weighted>
4.1525

> <Gold.Chemscore.Internal.Correction.Weighted>
   9.000000E+99

> <Gold.Protein.RotatedTorsions>
[ 6907 6896 6895 6894 ] final  108.05 input  -60.11 | X-H torsion
[ 7974 7965 7964 7962 ] final -162.29 input  175.53 | X-H torsion
[ 8008 7997 7996 7995 ] final   18.17 input   59.86 | X-H torsion
[ 10167 10162 10161 10158 ] final  -53.61 input  -65.29 | X-H torsion
[ 10718 10713 10712 10709 ] final   80.57 input   66.30 | X-H torsion
[ 10763 10752 10751 10750 ] final  -91.48 input  -60.55 | X-H torsion
[ 11005 11000 10999 10996 ] final  171.95 input  -57.11 | X-H torsion

> <Gold.Protein.ActiveResidues>
 VAL166  LYS551  ARG553  GLY616  TRP617  ASP618  TYR619  PRO620  LYS621  CYS622 
 ASP623  PHE694  ASN695  SER759  ASP760  ASP761  ALA762  ILE779  LEU786  VAL792 
 PHE793  MET794  SER795  GLU796  ALA797  LYS798  CYS799  TRP800  GLU811  SER814 

> <Gold.Protein.RotatedAtoms>
  152.5129  133.9145  159.7503 H   0  0  0  0  0  0  0  0  0  0  0  0  # atno 6907 bound_to 6896
  150.9531  133.6519  159.2775 H   0  0  0  0  0  0  0  0  0  0  0  0  # atno 6908 bound_to 6896
  151.3790  135.0941  159.9543 H   0  0  0  0  0  0  0  0  0  0  0  0  # atno 6909 bound_to 6896
  144.7362  140.3274  143.6159 H   0  0  0  0  0  0  0  0  0  0  0  0  # atno 7974 bound_to 7965
  154.9021  140.3002  155.5312 H   0  0  0  0  0  0  0  0  0  0  0  0  # atno 8008 bound_to 7997
  156.3018  140.2405  156.3985 H   0  0  0  0  0  0  0  0  0  0  0  0  # atno 8009 bound_to 7997
  154.8511  140.0409  157.1593 H   0  0  0  0  0  0  0  0  0  0  0  0  # atno 8010 bound_to 7997
  140.6475  143.2545  151.4817 H   0  0  0  0  0  0  0  0  0  0  0  0  # atno 10167 bound_to 10162
  157.6810  130.9965  150.2099 H   0  0  0  0  0  0  0  0  0  0  0  0  # atno 10718 bound_to 10713
  154.6764  135.5266  153.8205 H   0  0  0  0  0  0  0  0  0  0  0  0  # atno 10763 bound_to 10752
  153.0535  135.6541  154.0644 H   0  0  0  0  0  0  0  0  0  0  0  0  # atno 10764 bound_to 10752
  154.0536  135.2967  155.3316 H   0  0  0  0  0  0  0  0  0  0  0  0  # atno 10765 bound_to 10752
  140.3244  134.7410  157.4088 H   0  0  0  0  0  0  0  0  0  0  0  0  # atno 11005 bound_to 11000
  145.7507  139.1793  143.2323 LP  0  0  0  0  0  0  0  0  0  0  0  0  # atno 17320 bound_to 7965
  146.1063  140.7483  142.9525 LP  0  0  0  0  0  0  0  0  0  0  0  0  # atno 17321 bound_to 7965
  139.5687  144.1979  152.1804 LP  0  0  0  0  0  0  0  0  0  0  0  0  # atno 17342 bound_to 10162
  140.1269  144.5323  150.6827 LP  0  0  0  0  0  0  0  0  0  0  0  0  # atno 17343 bound_to 10162
  156.2772  130.3729  149.7972 LP  0  0  0  0  0  0  0  0  0  0  0  0  # atno 17370 bound_to 10713
  156.5671  130.8408  151.3346 LP  0  0  0  0  0  0  0  0  0  0  0  0  # atno 17371 bound_to 10713
  140.0914  134.5596  155.8441 LP  0  0  0  0  0  0  0  0  0  0  0  0  # atno 17394 bound_to 11000
  141.2079  133.6668  156.6333 LP  0  0  0  0  0  0  0  0  0  0  0  0  # atno 17395 bound_to 11000

$$$$
