AV-unprocessed.smi:1978|AV-procd|sdf|7998|dock7
  -GOLD-   2272010183D 1   1.00000     0.00000
 Structure written by MMmdl.
 45 46  0  0  0  0  0  0  0  0  2 V2000
  137.6631  137.6597  153.2677 C   0  0  0  0  0  0  0  0  0  0  0  0
  139.1389  137.4696  153.3484 C   0  0  0  0  0  0  0  0  0  0  0  0
  140.1985  138.2704  153.0265 C   0  0  0  0  0  0  0  0  0  0  0  0
  141.3201  137.4650  153.3588 C   0  0  0  0  0  0  0  0  0  0  0  0
  142.6419  137.9454  153.1758 N   0  0  0  0  0  0  0  0  0  0  0  0
  143.7880  137.2572  153.3125 C   0  0  0  0  0  0  0  0  0  0  0  0
  143.8708  136.0650  153.6088 O   0  0  0  0  0  0  0  0  0  0  0  0
  144.8565  138.0364  153.0903 N   0  0  0  0  0  0  0  0  0  0  0  0
  146.2451  137.5909  153.1737 C   0  0  0  0  0  0  0  0  0  0  0  0
  147.1730  138.5963  153.9168 C   0  0  2  0  0  0  0  0  0  0  0  0
  147.1299  139.9640  153.1863 C   0  0  0  0  0  0  0  0  0  0  0  0
  148.5712  138.0576  154.0621 N   0  3  2  0  0  0  0  0  0  0  0  0
  148.6767  136.8806  154.9786 C   0  0  0  0  0  0  0  0  0  0  0  0
  150.0638  136.2210  154.9018 C   0  0  0  0  0  0  0  0  0  0  0  0
  151.1785  137.2237  155.2055 C   0  0  0  0  0  0  0  0  0  0  0  0
  151.0413  138.4366  154.2790 C   0  0  0  0  0  0  0  0  0  0  0  0
  149.6376  139.0740  154.3562 C   0  0  2  0  0  0  0  0  0  0  0  0
  149.4196  139.8283  155.6879 C   0  0  0  0  0  0  0  0  0  0  0  0
  140.9767  136.2789  153.8369 N   0  0  0  0  0  0  0  0  0  0  0  0
  139.5769  136.2754  153.8318 O   0  0  0  0  0  0  0  0  0  0  0  0
  137.4104  138.7182  153.2030 H   0  0  0  0  0  0  0  0  0  0  0  0
  137.1698  137.2488  154.1489 H   0  0  0  0  0  0  0  0  0  0  0  0
  137.2576  137.1602  152.3879 H   0  0  0  0  0  0  0  0  0  0  0  0
  140.1710  139.2710  152.6213 H   0  0  0  0  0  0  0  0  0  0  0  0
  142.7223  138.9196  152.9245 H   0  0  0  0  0  0  0  0  0  0  0  0
  144.7002  139.0045  152.8497 H   0  0  0  0  0  0  0  0  0  0  0  0
  146.2252  136.6101  153.6444 H   0  0  0  0  0  0  0  0  0  0  0  0
  146.6088  137.4346  152.1575 H   0  0  0  0  0  0  0  0  0  0  0  0
  146.7789  138.7475  154.9228 H   0  0  0  0  0  0  0  0  0  0  0  0
  146.1101  140.3223  153.0482 H   0  0  0  0  0  0  0  0  0  0  0  0
  147.5879  139.8993  152.1988 H   0  0  0  0  0  0  0  0  0  0  0  0
  147.6326  140.7548  153.7407 H   0  0  0  0  0  0  0  0  0  0  0  0
  148.4510  137.1797  156.0024 H   0  0  0  0  0  0  0  0  0  0  0  0
  147.9578  136.1067  154.7267 H   0  0  0  0  0  0  0  0  0  0  0  0
  150.1179  135.3847  155.5997 H   0  0  0  0  0  0  0  0  0  0  0  0
  150.2122  135.8011  153.9060 H   0  0  0  0  0  0  0  0  0  0  0  0
  151.1283  137.5348  156.2493 H   0  0  0  0  0  0  0  0  0  0  0  0
  152.1534  136.7546  155.0695 H   0  0  0  0  0  0  0  0  0  0  0  0
  151.8067  139.1760  154.5181 H   0  0  0  0  0  0  0  0  0  0  0  0
  151.2364  138.1230  153.2523 H   0  0  0  0  0  0  0  0  0  0  0  0
  149.6366  139.8150  153.5583 H   0  0  0  0  0  0  0  0  0  0  0  0
  150.1976  140.5779  155.8352 H   0  0  0  0  0  0  0  0  0  0  0  0
  149.4470  139.1654  156.5518 H   0  0  0  0  0  0  0  0  0  0  0  0
  148.4664  140.3548  155.7125 H   0  0  0  0  0  0  0  0  0  0  0  0
  148.8049  137.7023  153.1461 H   0  0  0  0  0  0  0  0  0  0  0  0
  1  2  1  0  0  0  0
  1 21  1  0  0  0  0
  1 22  1  0  0  0  0
  1 23  1  0  0  0  0
  2 20  1  0  0  0  0
  2  3  2  0  0  0  0
  3  4  1  0  0  0  0
  3 24  1  0  0  0  0
  4  5  1  0  0  0  0
  4 19  2  0  0  0  0
  5  6  1  0  0  0  0
  5 25  1  0  0  0  0
  6  7  2  0  0  0  0
  6  8  1  0  0  0  0
  8  9  1  0  0  0  0
  8 26  1  0  0  0  0
  9 10  1  0  0  0  0
  9 27  1  0  0  0  0
  9 28  1  0  0  0  0
 10 11  1  0  0  0  0
 10 12  1  0  0  0  0
 10 29  1  0  0  0  0
 11 30  1  0  0  0  0
 11 31  1  0  0  0  0
 11 32  1  0  0  0  0
 12 17  1  0  0  0  0
 12 13  1  0  0  0  0
 12 45  1  0  0  0  0
 13 14  1  0  0  0  0
 13 33  1  0  0  0  0
 13 34  1  0  0  0  0
 14 15  1  0  0  0  0
 14 35  1  0  0  0  0
 14 36  1  0  0  0  0
 15 16  1  0  0  0  0
 15 37  1  0  0  0  0
 15 38  1  0  0  0  0
 16 17  1  0  0  0  0
 16 39  1  0  0  0  0
 16 40  1  0  0  0  0
 17 18  1  0  0  0  0
 17 41  1  0  0  0  0
 18 42  1  0  0  0  0
 18 43  1  0  0  0  0
 18 44  1  0  0  0  0
 19 20  1  0  0  0  0
M  CHG  1  12   1
M  END
> <s_m_source_file>
AV-unprocessed.smi

> <i_m_source_file_index>
1978

> <i_lp_mmshare_version>
43012

> <i_f3d_flags>
0

> <s_epik_input>
W0NIM11jMVtjSF1jKG5vMSlbTkhdQyg9TylbTkhdW0NIMl1bQ0BIXShbQ0gzXSlOMltDSDJdW0NIMl1bQ0gyXVtDSDJdW0NASF0yW0NIM10=

> <s_epik_cmdline>
J2VwaWtfcHl0aG9uJywgJy1waCcsICc3LjAnLCAnLXRuJywgJzgnLCAnLW1hJywgJzIwMCcsICctbWV0YWxfYmluZGluZycsICctaW1hZScsICc8aW5maWxlLm1hZT4nLCAnLW9tYWUnLCAnPG91dGZpbGUubWFlPic=

> <r_epik_Ionization_Penalty>
0.00265971

> <r_epik_Ionization_Penalty_Charging>
0.00262393

> <r_epik_Ionization_Penalty_Neutral>
3.57846e-05

> <r_epik_State_Penalty>
0.00182566

> <r_epik_Charging_Adjusted_Penalty>
0.00444959

> <i_epik_Tot_Q>
1

> <i_epik_Tot_abs_Q>
1

> <r_epik_Metal_State_Penalty>
0.0216344

> <b_epik_Metal_Only>
0

> <s_lp_Force_Field>
OPLS_2005

> <r_lp_Energy>
22.9215

> <b_lp_Chiralities_Consistent>
1

> <s_lp_Variant>
AV-unprocessed.smi:1978-7

> <Gold.Version>
5.8.1

> <Gold.Id.Protein>
6NUR|6NUR_protein|mol2

> <Gold.PLP.Fitness>
41.9057

> <Gold.PLP.PLP>
-30.5278

> <Gold.PLP.part.hbond>
-4.4325

> <Gold.PLP.part.metal>
0.0000

> <Gold.PLP.part.buried>
-5.8567

> <Gold.PLP.part.nonpolar>
-20.8102

> <Gold.PLP.part.repulsive>
0.1935

> <Gold.PLP.ligand.clash>
0.0000

> <Gold.PLP.ligand.torsion>
0.3609

> <Gold.PLP.Chemscore.Hbond>
4.0000

> <Gold.PLP.Chemscore.CHOScore>
0.0000

> <Gold.PLP.Chemscore.Metal>
0.0000

> <Gold.Chemscore.Hbonds>
donor molecule, donor type, donor heavy atom, donor atom, acceptor molecule, acceptor atom, score
      L1  H     5    25       P1 10175  1.00
      L1  H     8    26       P1 10175  1.00
      L1  H    12    45       P1  7948  2.00

> <Gold.PLP.Chemscore.Internal.Correction>
0.0996

> <Gold.Rescore>
     Score         DG    S(hbond)    S(metal)    S(lipo)     H(rot)  DE(clash)    DE(int)     intcor
     18.14     -19.71       2.96        0.00      71.02       1.55       0.06       1.51       ----

> <Gold.Chemscore.Fitness>
18.1434

> <Gold.Chemscore.DG>
-19.7125

> <Gold.Chemscore.ZeroCoef>
-5.4800

> <Gold.Chemscore.Hbond>
2.9595

> <Gold.Chemscore.Metal>
0.0000

> <Gold.Chemscore.Lipo>
71.0177

> <Gold.Chemscore.Internal_Hbond>
0.0000

> <Gold.Chemscore.DEClash>
0.0583

> <Gold.Chemscore.DEInternal>
1.5108

> <Gold.Chemscore.Rot>
1.5474

> <Gold.Chemscore.Internal.Correction>
   9.000000E+99

> <Gold.Chemscore.Hbonds>
donor molecule, donor type, donor heavy atom, donor atom, acceptor molecule, acceptor atom, score
      L1  H     5    25       P1 10175  0.99
      L1  H     8    26       P1 10175  0.98
      L1  H    12    45       P1  7948  0.95

> <Gold.Chemscore.Hbond.Weighted>
-9.8846

> <Gold.Chemscore.Metal.Weighted>
-0.0000

> <Gold.Chemscore.Lipo.Weighted>
-8.3091

> <Gold.Chemscore.Internal_Hbond.Weighted>
0.0000

> <Gold.Chemscore.DEClash.Weighted>
0.0583

> <Gold.Chemscore.DEInternal.Weighted>
1.5108

> <Gold.Chemscore.Rot.Weighted>
3.9612

> <Gold.Chemscore.Internal.Correction.Weighted>
   9.000000E+99

> <Gold.Protein.RotatedTorsions>
[ 6907 6896 6895 6894 ] final   87.32 input  -60.11 | X-H torsion
[ 7974 7965 7964 7962 ] final  132.35 input  175.53 | X-H torsion
[ 8008 7997 7996 7995 ] final  -29.05 input   59.86 | X-H torsion
[ 10167 10162 10161 10158 ] final  176.77 input  -65.29 | X-H torsion
[ 10718 10713 10712 10709 ] final  167.14 input   66.30 | X-H torsion
[ 10763 10752 10751 10750 ] final  170.33 input  -60.55 | X-H torsion
[ 11005 11000 10999 10996 ] final   20.35 input  -57.11 | X-H torsion

> <Gold.Protein.ActiveResidues>
 VAL166  LYS551  ARG553  GLY616  TRP617  ASP618  TYR619  PRO620  LYS621  CYS622 
 ASP623  PHE694  ASN695  SER759  ASP760  ASP761  ALA762  ILE779  LEU786  VAL792 
 PHE793  MET794  SER795  GLU796  ALA797  LYS798  CYS799  TRP800  GLU811  SER814 

> <Gold.Protein.RotatedAtoms>
  152.5409  134.2294  159.8818 H   0  0  0  0  0  0  0  0  0  0  0  0  # atno 6907 bound_to 6896
  151.2267  133.4466  159.2610 H   0  0  0  0  0  0  0  0  0  0  0  0  # atno 6908 bound_to 6896
  151.0754  134.9838  159.8385 H   0  0  0  0  0  0  0  0  0  0  0  0  # atno 6909 bound_to 6896
  144.9978  139.4342  143.5307 H   0  0  0  0  0  0  0  0  0  0  0  0  # atno 7974 bound_to 7965
  154.4306  140.1828  156.1187 H   0  0  0  0  0  0  0  0  0  0  0  0  # atno 8008 bound_to 7997
  156.0160  140.3345  155.6964 H   0  0  0  0  0  0  0  0  0  0  0  0  # atno 8009 bound_to 7997
  155.6043  140.0643  157.2715 H   0  0  0  0  0  0  0  0  0  0  0  0  # atno 8010 bound_to 7997
  139.5227  144.2876  152.0492 H   0  0  0  0  0  0  0  0  0  0  0  0  # atno 10167 bound_to 10162
  157.0558  131.0326  151.2664 H   0  0  0  0  0  0  0  0  0  0  0  0  # atno 10718 bound_to 10713
  154.3961  135.2754  155.2125 H   0  0  0  0  0  0  0  0  0  0  0  0  # atno 10763 bound_to 10752
  154.4171  135.6009  153.5991 H   0  0  0  0  0  0  0  0  0  0  0  0  # atno 10764 bound_to 10752
  152.9831  135.5963  154.4222 H   0  0  0  0  0  0  0  0  0  0  0  0  # atno 10765 bound_to 10752
  140.4036  134.1692  155.7664 H   0  0  0  0  0  0  0  0  0  0  0  0  # atno 11005 bound_to 11000
  146.3445  139.9348  142.8748 LP  0  0  0  0  0  0  0  0  0  0  0  0  # atno 17320 bound_to 7965
  145.2195  140.9929  143.4053 LP  0  0  0  0  0  0  0  0  0  0  0  0  # atno 17321 bound_to 7965
  140.2329  144.4350  150.6292 LP  0  0  0  0  0  0  0  0  0  0  0  0  # atno 17342 bound_to 10162
  140.6343  143.2192  151.6428 LP  0  0  0  0  0  0  0  0  0  0  0  0  # atno 17343 bound_to 10162
  157.4994  130.7870  149.7589 LP  0  0  0  0  0  0  0  0  0  0  0  0  # atno 17370 bound_to 10713
  155.9993  130.3889  150.2668 LP  0  0  0  0  0  0  0  0  0  0  0  0  # atno 17371 bound_to 10713
  141.1847  133.8337  157.1129 LP  0  0  0  0  0  0  0  0  0  0  0  0  # atno 17394 bound_to 11000
  140.0318  134.9897  157.0795 LP  0  0  0  0  0  0  0  0  0  0  0  0  # atno 17395 bound_to 11000

$$$$
