AV-unprocessed.smi:2477|AV-procd|sdf|9759|dock2
  -GOLD-   2272013403D 1   1.00000     0.00000
 Structure written by MMmdl.
 51 53  0  0  0  0  0  0  0  0  1 V2000
  151.3100  141.0806  156.3734 C   0  0  0  0  0  0  0  0  0  0  0  0
  150.2118  140.6054  155.5277 N   0  0  0  0  0  0  0  0  0  0  0  0
  149.2888  141.5583  155.0648 C   0  0  0  0  0  0  0  0  0  0  0  0
  148.2523  141.2137  154.2882 C   0  0  0  0  0  0  0  0  0  0  0  0
  148.0961  139.8248  153.9282 C   0  0  0  0  0  0  0  0  0  0  0  0
  148.9814  138.8893  154.3557 C   0  0  0  0  0  0  0  0  0  0  0  0
  148.9049  137.5171  154.0585 N   0  0  0  0  0  0  0  0  0  0  0  0
  148.8135  136.4634  154.8906 C   0  0  0  0  0  0  0  0  0  0  0  0
  148.7675  136.5154  156.1191 O   0  0  0  0  0  0  0  0  0  0  0  0
  148.7416  135.3172  154.1981 N   0  0  0  0  0  0  0  0  0  0  0  0
  148.5643  133.9849  154.7722 C   0  0  2  0  0  0  0  0  0  0  0  0
  149.8178  133.6292  155.5962 C   0  0  0  0  0  0  0  0  0  0  0  0
  149.7444  132.2025  156.1620 C   0  0  0  0  0  0  0  0  0  0  0  0
  149.5171  131.1750  155.0438 C   0  0  0  0  0  0  0  0  0  0  0  0
  148.2565  131.5149  154.2360 C   0  0  0  0  0  0  0  0  0  0  0  0
  148.3221  132.9396  153.6569 C   0  0  1  0  0  0  0  0  0  0  0  0
  147.0691  133.1932  153.0314 O   0  0  0  0  0  0  0  0  0  0  0  0
  146.8016  132.4069  151.8757 C   0  0  0  0  0  0  0  0  0  0  0  0
  146.6763  133.3522  150.6802 C   0  0  0  0  0  0  0  0  0  0  0  0
  145.2322  133.8702  150.7118 C   0  0  0  0  0  0  0  0  0  0  0  0
  144.4437  132.9043  151.6101 C   0  0  0  0  0  0  0  0  0  0  0  0
  145.4109  131.7725  151.9680 C   0  0  0  0  0  0  0  0  0  0  0  0
  150.1166  139.2785  155.2157 C   0  0  0  0  0  0  0  0  0  0  0  0
  150.9418  138.4638  155.6366 O   0  0  0  0  0  0  0  0  0  0  0  0
  151.2746  142.1568  156.5451 H   0  0  0  0  0  0  0  0  0  0  0  0
  152.2731  140.8579  155.9119 H   0  0  0  0  0  0  0  0  0  0  0  0
  151.2802  140.5954  157.3499 H   0  0  0  0  0  0  0  0  0  0  0  0
  149.4741  142.5756  155.3768 H   0  0  0  0  0  0  0  0  0  0  0  0
  147.5515  141.9576  153.9388 H   0  0  0  0  0  0  0  0  0  0  0  0
  147.2430  139.5696  153.3214 H   0  0  0  0  0  0  0  0  0  0  0  0
  148.8719  137.3074  153.0714 H   0  0  0  0  0  0  0  0  0  0  0  0
  148.7829  135.3713  153.1911 H   0  0  0  0  0  0  0  0  0  0  0  0
  147.7083  133.9825  155.4498 H   0  0  0  0  0  0  0  0  0  0  0  0
  150.7085  133.7210  154.9727 H   0  0  0  0  0  0  0  0  0  0  0  0
  149.9402  134.3403  156.4140 H   0  0  0  0  0  0  0  0  0  0  0  0
  150.6627  131.9684  156.7013 H   0  0  0  0  0  0  0  0  0  0  0  0
  148.9338  132.1385  156.8890 H   0  0  0  0  0  0  0  0  0  0  0  0
  150.3830  131.1546  154.3809 H   0  0  0  0  0  0  0  0  0  0  0  0
  149.4280  130.1751  155.4691 H   0  0  0  0  0  0  0  0  0  0  0  0
  148.1280  130.7916  153.4303 H   0  0  0  0  0  0  0  0  0  0  0  0
  147.3790  131.4202  154.8769 H   0  0  0  0  0  0  0  0  0  0  0  0
  149.1448  132.9795  152.9394 H   0  0  0  0  0  0  0  0  0  0  0  0
  147.5899  131.6706  151.7119 H   0  0  0  0  0  0  0  0  0  0  0  0
  147.4141  134.1551  150.6996 H   0  0  0  0  0  0  0  0  0  0  0  0
  146.8349  132.7891  149.7598 H   0  0  0  0  0  0  0  0  0  0  0  0
  145.1968  134.8777  151.1280 H   0  0  0  0  0  0  0  0  0  0  0  0
  144.8137  133.9182  149.7058 H   0  0  0  0  0  0  0  0  0  0  0  0
  144.1343  133.4228  152.5186 H   0  0  0  0  0  0  0  0  0  0  0  0
  143.5421  132.5297  151.1244 H   0  0  0  0  0  0  0  0  0  0  0  0
  145.3292  130.9785  151.2245 H   0  0  0  0  0  0  0  0  0  0  0  0
  145.1977  131.3293  152.9408 H   0  0  0  0  0  0  0  0  0  0  0  0
  1  2  1  0  0  0  0
  1 25  1  0  0  0  0
  1 26  1  0  0  0  0
  1 27  1  0  0  0  0
  2 23  1  0  0  0  0
  2  3  1  0  0  0  0
  3  4  2  0  0  0  0
  3 28  1  0  0  0  0
  4  5  1  0  0  0  0
  4 29  1  0  0  0  0
  5  6  2  0  0  0  0
  5 30  1  0  0  0  0
  6  7  1  0  0  0  0
  6 23  1  0  0  0  0
  7  8  1  0  0  0  0
  7 31  1  0  0  0  0
  8  9  2  0  0  0  0
  8 10  1  0  0  0  0
 10 11  1  0  0  0  0
 10 32  1  0  0  0  0
 11 16  1  0  0  0  0
 11 12  1  0  0  0  0
 11 33  1  0  0  0  0
 12 13  1  0  0  0  0
 12 34  1  0  0  0  0
 12 35  1  0  0  0  0
 13 14  1  0  0  0  0
 13 36  1  0  0  0  0
 13 37  1  0  0  0  0
 14 15  1  0  0  0  0
 14 38  1  0  0  0  0
 14 39  1  0  0  0  0
 15 16  1  0  0  0  0
 15 40  1  0  0  0  0
 15 41  1  0  0  0  0
 16 17  1  0  0  0  0
 16 42  1  0  0  0  0
 17 18  1  0  0  0  0
 18 22  1  0  0  0  0
 18 19  1  0  0  0  0
 18 43  1  0  0  0  0
 19 20  1  0  0  0  0
 19 44  1  0  0  0  0
 19 45  1  0  0  0  0
 20 21  1  0  0  0  0
 20 46  1  0  0  0  0
 20 47  1  0  0  0  0
 21 22  1  0  0  0  0
 21 48  1  0  0  0  0
 21 49  1  0  0  0  0
 22 50  1  0  0  0  0
 22 51  1  0  0  0  0
 23 24  2  0  0  0  0
M  END
> <s_m_source_file>
AV-unprocessed.smi

> <i_m_source_file_index>
2477

> <i_lp_mmshare_version>
43012

> <i_f3d_flags>
0

> <s_epik_input>
W0NIM11uMVtjSF1bY0hdW2NIXWMoYzE9TylbTkhdQyg9TylbTkhdW0NAQEhdMltDSDJdW0NIMl1bQ0gyXVtDSDJdW0NASF0yT1tDSF0zW0NIMl1bQ0gyXVtDSDJdW0NIMl0z

> <s_epik_cmdline>
J2VwaWtfcHl0aG9uJywgJy1waCcsICc3LjAnLCAnLXRuJywgJzgnLCAnLW1hJywgJzIwMCcsICctbWV0YWxfYmluZGluZycsICctaW1hZScsICc8aW5maWxlLm1hZT4nLCAnLW9tYWUnLCAnPG91dGZpbGUubWFlPic=

> <r_lp_tautomer_probability>
1

> <r_epik_Ionization_Penalty>
2.40753e-05

> <r_epik_Ionization_Penalty_Charging>
4.84018e-06

> <r_epik_Ionization_Penalty_Neutral>
1.92352e-05

> <r_epik_State_Penalty>
-0

> <r_epik_Charging_Adjusted_Penalty>
4.84018e-06

> <i_epik_Tot_Q>
0

> <i_epik_Tot_abs_Q>
0

> <r_epik_Metal_State_Penalty>
-0

> <b_epik_Metal_Only>
0

> <s_lp_Force_Field>
OPLS_2005

> <r_lp_Energy>
41.4176

> <b_lp_Chiralities_Consistent>
1

> <s_lp_Variant>
AV-unprocessed.smi:2477-1

> <Gold.Version>
5.8.1

> <Gold.Id.Protein>
6NUR|6NUR_protein|mol2

> <Gold.PLP.Fitness>
44.4967

> <Gold.PLP.PLP>
-38.1770

> <Gold.PLP.part.hbond>
-1.5117

> <Gold.PLP.part.metal>
0.0000

> <Gold.PLP.part.buried>
-1.0009

> <Gold.PLP.part.nonpolar>
-36.1228

> <Gold.PLP.part.repulsive>
0.1892

> <Gold.PLP.ligand.clash>
0.0000

> <Gold.PLP.ligand.torsion>
1.3454

> <Gold.PLP.Chemscore.Hbond>
1.9593

> <Gold.PLP.Chemscore.CHOScore>
1.0000

> <Gold.PLP.Chemscore.Metal>
0.0000

> <Gold.Chemscore.Hbonds>
donor molecule, donor type, donor heavy atom, donor atom, acceptor molecule, acceptor atom, score
      L1  H     7    31       P1  7948  1.00
      L1  H    10    32       P1  7948  1.00
      L1  C     3    28       P1  8028  1.00

> <Gold.PLP.Chemscore.Internal.Correction>
0.1326

> <Gold.Rescore>
     Score         DG    S(hbond)    S(metal)    S(lipo)     H(rot)  DE(clash)    DE(int)     intcor
     17.35     -18.82       1.84        0.00      91.22       1.36       0.06       1.41       ----

> <Gold.Chemscore.Fitness>
17.3471

> <Gold.Chemscore.DG>
-18.8192

> <Gold.Chemscore.ZeroCoef>
-5.4800

> <Gold.Chemscore.Hbond>
1.8381

> <Gold.Chemscore.Metal>
0.0000

> <Gold.Chemscore.Lipo>
91.2158

> <Gold.Chemscore.Internal_Hbond>
0.0000

> <Gold.Chemscore.DEClash>
0.0572

> <Gold.Chemscore.DEInternal>
1.4149

> <Gold.Chemscore.Rot>
1.3564

> <Gold.Chemscore.Internal.Correction>
   9.000000E+99

> <Gold.Chemscore.Hbonds>
donor molecule, donor type, donor heavy atom, donor atom, acceptor molecule, acceptor atom, score
      L1  H     7    31       P1  7948  0.94
      L1  H    10    32       P1  7948  0.72

> <Gold.Chemscore.Hbond.Weighted>
-6.1394

> <Gold.Chemscore.Metal.Weighted>
-0.0000

> <Gold.Chemscore.Lipo.Weighted>
-10.6722

> <Gold.Chemscore.Internal_Hbond.Weighted>
0.0000

> <Gold.Chemscore.DEClash.Weighted>
0.0572

> <Gold.Chemscore.DEInternal.Weighted>
1.4149

> <Gold.Chemscore.Rot.Weighted>
3.4724

> <Gold.Chemscore.Internal.Correction.Weighted>
   9.000000E+99

> <Gold.Protein.RotatedTorsions>
[ 6907 6896 6895 6894 ] final  169.65 input  -60.11 | X-H torsion
[ 7974 7965 7964 7962 ] final    8.84 input  175.53 | X-H torsion
[ 8008 7997 7996 7995 ] final   56.46 input   59.86 | X-H torsion
[ 10167 10162 10161 10158 ] final  159.95 input  -65.29 | X-H torsion
[ 10718 10713 10712 10709 ] final    8.01 input   66.30 | X-H torsion
[ 10763 10752 10751 10750 ] final -140.66 input  -60.55 | X-H torsion
[ 11005 11000 10999 10996 ] final  119.53 input  -57.11 | X-H torsion

> <Gold.Protein.ActiveResidues>
 VAL166  LYS551  ARG553  GLY616  TRP617  ASP618  TYR619  PRO620  LYS621  CYS622 
 ASP623  PHE694  ASN695  SER759  ASP760  ASP761  ALA762  ILE779  LEU786  VAL792 
 PHE793  MET794  SER795  GLU796  ALA797  LYS798  CYS799  TRP800  GLU811  SER814 

> <Gold.Protein.RotatedAtoms>
  151.8285  133.3405  159.3605 H   0  0  0  0  0  0  0  0  0  0  0  0  # atno 6907 bound_to 6896
  150.7271  134.5505  159.5801 H   0  0  0  0  0  0  0  0  0  0  0  0  # atno 6908 bound_to 6896
  152.2953  134.7675  160.0420 H   0  0  0  0  0  0  0  0  0  0  0  0  # atno 6909 bound_to 6896
  146.2411  139.9873  142.8429 H   0  0  0  0  0  0  0  0  0  0  0  0  # atno 7974 bound_to 7965
  155.5178  140.3479  155.4401 H   0  0  0  0  0  0  0  0  0  0  0  0  # atno 8008 bound_to 7997
  156.0805  140.1385  156.9745 H   0  0  0  0  0  0  0  0  0  0  0  0  # atno 8009 bound_to 7997
  154.4577  140.0947  156.6781 H   0  0  0  0  0  0  0  0  0  0  0  0  # atno 8010 bound_to 7997
  139.4836  144.4681  151.8614 H   0  0  0  0  0  0  0  0  0  0  0  0  # atno 10167 bound_to 10162
  156.9453  130.5876  149.5654 H   0  0  0  0  0  0  0  0  0  0  0  0  # atno 10718 bound_to 10713
  154.8571  135.3547  154.5743 H   0  0  0  0  0  0  0  0  0  0  0  0  # atno 10763 bound_to 10752
  153.6355  135.7000  153.5264 H   0  0  0  0  0  0  0  0  0  0  0  0  # atno 10764 bound_to 10752
  153.3014  135.4205  155.1215 H   0  0  0  0  0  0  0  0  0  0  0  0  # atno 10765 bound_to 10752
  139.9150  134.9629  156.7670 H   0  0  0  0  0  0  0  0  0  0  0  0  # atno 11005 bound_to 11000
  145.1536  140.9636  143.4418 LP  0  0  0  0  0  0  0  0  0  0  0  0  # atno 17320 bound_to 7965
  145.0182  139.3448  143.6086 LP  0  0  0  0  0  0  0  0  0  0  0  0  # atno 17321 bound_to 7965
  140.4148  144.2321  150.5888 LP  0  0  0  0  0  0  0  0  0  0  0  0  # atno 17342 bound_to 10162
  140.4931  143.2341  151.8789 LP  0  0  0  0  0  0  0  0  0  0  0  0  # atno 17343 bound_to 10162
  156.0386  130.5471  150.8716 LP  0  0  0  0  0  0  0  0  0  0  0  0  # atno 17370 bound_to 10713
  157.5758  131.0946  150.9348 LP  0  0  0  0  0  0  0  0  0  0  0  0  # atno 17371 bound_to 10713
  140.6652  133.9609  155.7826 LP  0  0  0  0  0  0  0  0  0  0  0  0  # atno 17394 bound_to 11000
  141.0616  134.0338  157.3651 LP  0  0  0  0  0  0  0  0  0  0  0  0  # atno 17395 bound_to 11000

$$$$
