AV-unprocessed.smi:2937|AV-procd|sdf|11259|dock1
  -GOLD-   2272016153D 1   1.00000     0.00000
 Structure written by MMmdl.
 33 34  0  0  0  0  0  0  0  0  1 V2000
  144.2531  134.8599  151.8921 C   0  0  0  0  0  0  0  0  0  0  0  0
  144.7560  136.1911  151.9018 O   0  0  0  0  0  0  0  0  0  0  0  0
  145.1867  136.7211  153.1021 C   0  0  0  0  0  0  0  0  0  0  0  0
  144.7630  136.1519  154.2577 N   0  0  0  0  0  0  0  0  0  0  0  0
  145.1965  136.6953  155.3933 C   0  0  0  0  0  0  0  0  0  0  0  0
  144.7587  136.1158  156.5589 N   0  0  0  0  0  0  0  0  0  0  0  0
  146.0110  137.7419  155.5171 N   0  0  0  0  0  0  0  0  0  0  0  0
  146.4547  138.3282  154.3783 C   0  0  0  0  0  0  0  0  0  0  0  0
  147.3398  139.4157  154.5009 N   0  0  0  0  0  0  0  0  0  0  0  0
  146.8375  140.6395  153.8884 C   0  0  0  0  0  0  0  0  0  0  0  0
  147.7377  141.8267  154.2719 C   0  0  0  0  0  0  0  0  0  0  0  0
  149.0864  141.5457  153.9067 O   0  0  0  0  0  0  0  0  0  0  0  0
  149.5914  140.3895  154.5689 C   0  0  0  0  0  0  0  0  0  0  0  0
  148.7428  139.1655  154.1855 C   0  0  0  0  0  0  0  0  0  0  0  0
  146.0525  137.8406  153.1051 C   0  0  0  0  0  0  0  0  0  0  0  0
  146.4903  138.4787  151.7927 C   0  0  0  0  0  0  0  0  0  0  0  0
  146.7585  137.5244  150.7877 O   0  0  0  0  0  0  0  0  0  0  0  0
  143.9596  134.5930  150.8770 H   0  0  0  0  0  0  0  0  0  0  0  0
  143.3726  134.7602  152.5282 H   0  0  0  0  0  0  0  0  0  0  0  0
  145.0116  134.1456  152.2157 H   0  0  0  0  0  0  0  0  0  0  0  0
  144.1397  135.3187  156.5320 H   0  0  0  0  0  0  0  0  0  0  0  0
  145.0416  136.4897  157.4531 H   0  0  0  0  0  0  0  0  0  0  0  0
  146.8224  140.5163  152.8046 H   0  0  0  0  0  0  0  0  0  0  0  0
  145.8121  140.8370  154.1991 H   0  0  0  0  0  0  0  0  0  0  0  0
  147.4102  142.7290  153.7553 H   0  0  0  0  0  0  0  0  0  0  0  0
  147.6750  142.0309  155.3419 H   0  0  0  0  0  0  0  0  0  0  0  0
  150.6292  140.2355  154.2731 H   0  0  0  0  0  0  0  0  0  0  0  0
  149.5866  140.5445  155.6490 H   0  0  0  0  0  0  0  0  0  0  0  0
  149.0930  138.2828  154.7222 H   0  0  0  0  0  0  0  0  0  0  0  0
  148.8521  138.9638  153.1188 H   0  0  0  0  0  0  0  0  0  0  0  0
  145.7028  139.1443  151.4378 H   0  0  0  0  0  0  0  0  0  0  0  0
  147.3713  139.1046  151.9317 H   0  0  0  0  0  0  0  0  0  0  0  0
  147.1410  136.7610  151.1927 H   0  0  0  0  0  0  0  0  0  0  0  0
  1  2  1  0  0  0  0
  1 18  1  0  0  0  0
  1 19  1  0  0  0  0
  1 20  1  0  0  0  0
  2  3  1  0  0  0  0
  3 15  1  0  0  0  0
  3  4  2  0  0  0  0
  4  5  1  0  0  0  0
  5  6  1  0  0  0  0
  5  7  2  0  0  0  0
  6 21  1  0  0  0  0
  6 22  1  0  0  0  0
  7  8  1  0  0  0  0
  8  9  1  0  0  0  0
  8 15  2  0  0  0  0
  9 14  1  0  0  0  0
  9 10  1  0  0  0  0
 10 11  1  0  0  0  0
 10 23  1  0  0  0  0
 10 24  1  0  0  0  0
 11 12  1  0  0  0  0
 11 25  1  0  0  0  0
 11 26  1  0  0  0  0
 12 13  1  0  0  0  0
 13 14  1  0  0  0  0
 13 27  1  0  0  0  0
 13 28  1  0  0  0  0
 14 29  1  0  0  0  0
 14 30  1  0  0  0  0
 15 16  1  0  0  0  0
 16 17  1  0  0  0  0
 16 31  1  0  0  0  0
 16 32  1  0  0  0  0
 17 33  1  0  0  0  0
M  END
> <s_m_source_file>
AV-unprocessed.smi

> <i_m_source_file_index>
2937

> <i_lp_mmshare_version>
43012

> <i_f3d_flags>
0

> <s_epik_input>
W0NIM11PYzFuYyhbTkgyXSluYyhjMVtDSDJdW09IXSlOMltDSDJdW0NIMl1PW0NIMl1bQ0gyXTI=

> <s_epik_cmdline>
J2VwaWtfcHl0aG9uJywgJy1waCcsICc3LjAnLCAnLXRuJywgJzgnLCAnLW1hJywgJzIwMCcsICctbWV0YWxfYmluZGluZycsICctaW1hZScsICc8aW5maWxlLm1hZT4nLCAnLW9tYWUnLCAnPG91dGZpbGUubWFlPic=

> <r_lp_tautomer_probability>
1

> <r_epik_Ionization_Penalty>
0.000679252

> <r_epik_Ionization_Penalty_Charging>
0

> <r_epik_Ionization_Penalty_Neutral>
0.000679252

> <r_epik_State_Penalty>
0.00040271

> <r_epik_Charging_Adjusted_Penalty>
0.00040271

> <i_epik_Tot_Q>
0

> <i_epik_Tot_abs_Q>
0

> <r_epik_Metal_State_Penalty>
-0

> <b_epik_Metal_Only>
0

> <s_lp_Force_Field>
OPLS_2005

> <r_lp_Energy>
14.7013

> <b_lp_Chiralities_Consistent>
1

> <s_lp_Variant>
AV-unprocessed.smi:2937-1

> <Gold.Version>
5.8.1

> <Gold.Id.Protein>
6NUR|6NUR_protein|mol2

> <Gold.PLP.Fitness>
28.3485

> <Gold.PLP.PLP>
-22.8136

> <Gold.PLP.part.hbond>
-4.3671

> <Gold.PLP.part.metal>
0.0000

> <Gold.PLP.part.buried>
-2.3665

> <Gold.PLP.part.nonpolar>
-17.4090

> <Gold.PLP.part.repulsive>
1.1251

> <Gold.PLP.ligand.clash>
0.0000

> <Gold.PLP.ligand.torsion>
0.7371

> <Gold.PLP.Chemscore.Hbond>
2.2760

> <Gold.PLP.Chemscore.CHOScore>
0.0000

> <Gold.PLP.Chemscore.Metal>
0.0000

> <Gold.Chemscore.Hbonds>
donor molecule, donor type, donor heavy atom, donor atom, acceptor molecule, acceptor atom, score
      L1  H    17    33       P1  7948  0.72
      P1  H  7954  7966       L1    17  0.65
      P1  H  8011  8017       L1    12  0.69

> <Gold.PLP.Chemscore.Internal.Correction>
0.1811

> <Gold.Rescore>
     Score         DG    S(hbond)    S(metal)    S(lipo)     H(rot)  DE(clash)    DE(int)     intcor
     10.38     -11.11       1.88        0.00      44.91       2.31       0.08       0.65       ----

> <Gold.Chemscore.Fitness>
10.3779

> <Gold.Chemscore.DG>
-11.1083

> <Gold.Chemscore.ZeroCoef>
-5.4800

> <Gold.Chemscore.Hbond>
1.8839

> <Gold.Chemscore.Metal>
0.0000

> <Gold.Chemscore.Lipo>
44.9080

> <Gold.Chemscore.Internal_Hbond>
0.0000

> <Gold.Chemscore.DEClash>
0.0768

> <Gold.Chemscore.DEInternal>
0.6536

> <Gold.Chemscore.Rot>
2.3118

> <Gold.Chemscore.Internal.Correction>
   9.000000E+99

> <Gold.Chemscore.Hbonds>
donor molecule, donor type, donor heavy atom, donor atom, acceptor molecule, acceptor atom, score
      L1  H    17    33       P1  7948  0.71
      P1  H  7954  7966       L1    17  0.05
      P1  H  8011  8017       L1    12  0.65

> <Gold.Chemscore.Hbond.Weighted>
-6.2923

> <Gold.Chemscore.Metal.Weighted>
-0.0000

> <Gold.Chemscore.Lipo.Weighted>
-5.2542

> <Gold.Chemscore.Internal_Hbond.Weighted>
0.0000

> <Gold.Chemscore.DEClash.Weighted>
0.0768

> <Gold.Chemscore.DEInternal.Weighted>
0.6536

> <Gold.Chemscore.Rot.Weighted>
5.9181

> <Gold.Chemscore.Internal.Correction.Weighted>
   9.000000E+99

> <Gold.Protein.RotatedTorsions>
[ 6907 6896 6895 6894 ] final   11.56 input  -60.11 | X-H torsion
[ 7974 7965 7964 7962 ] final   36.82 input  175.53 | X-H torsion
[ 8008 7997 7996 7995 ] final -111.80 input   59.86 | X-H torsion
[ 10167 10162 10161 10158 ] final  -10.75 input  -65.29 | X-H torsion
[ 10718 10713 10712 10709 ] final   37.83 input   66.30 | X-H torsion
[ 10763 10752 10751 10750 ] final -110.35 input  -60.55 | X-H torsion
[ 11005 11000 10999 10996 ] final   10.36 input  -57.11 | X-H torsion

> <Gold.Protein.ActiveResidues>
 VAL166  LYS551  ARG553  GLY616  TRP617  ASP618  TYR619  PRO620  LYS621  CYS622 
 ASP623  PHE694  ASN695  SER759  ASP760  ASP761  ALA762  ILE779  LEU786  VAL792 
 PHE793  MET794  SER795  GLU796  ALA797  LYS798  CYS799  TRP800  GLU811  SER814 

> <Gold.Protein.RotatedAtoms>
  151.7562  135.0821  160.0338 H   0  0  0  0  0  0  0  0  0  0  0  0  # atno 6907 bound_to 6896
  152.3383  133.6033  159.5867 H   0  0  0  0  0  0  0  0  0  0  0  0  # atno 6908 bound_to 6896
  150.7464  133.9677  159.3577 H   0  0  0  0  0  0  0  0  0  0  0  0  # atno 6909 bound_to 6896
  146.1183  139.5970  142.9307 H   0  0  0  0  0  0  0  0  0  0  0  0  # atno 7974 bound_to 7965
  154.9953  140.0395  157.2337 H   0  0  0  0  0  0  0  0  0  0  0  0  # atno 8008 bound_to 7997
  154.7592  140.2781  155.6206 H   0  0  0  0  0  0  0  0  0  0  0  0  # atno 8009 bound_to 7997
  156.2900  140.2632  156.2365 H   0  0  0  0  0  0  0  0  0  0  0  0  # atno 8010 bound_to 7997
  140.7121  143.5714  150.9088 H   0  0  0  0  0  0  0  0  0  0  0  0  # atno 10167 bound_to 10162
  157.3516  130.7601  149.6982 H   0  0  0  0  0  0  0  0  0  0  0  0  # atno 10718 bound_to 10713
  154.8243  135.4567  154.0872 H   0  0  0  0  0  0  0  0  0  0  0  0  # atno 10763 bound_to 10752
  153.2199  135.6892  153.8019 H   0  0  0  0  0  0  0  0  0  0  0  0  # atno 10764 bound_to 10752
  153.7440  135.3308  155.3286 H   0  0  0  0  0  0  0  0  0  0  0  0  # atno 10765 bound_to 10752
  140.5153  134.0612  155.7829 H   0  0  0  0  0  0  0  0  0  0  0  0  # atno 11005 bound_to 11000
  145.5520  141.0412  143.2273 LP  0  0  0  0  0  0  0  0  0  0  0  0  # atno 17320 bound_to 7965
  144.7573  139.7042  143.7249 LP  0  0  0  0  0  0  0  0  0  0  0  0  # atno 17321 bound_to 7965
  139.9440  143.6348  152.3046 LP  0  0  0  0  0  0  0  0  0  0  0  0  # atno 17342 bound_to 10162
  139.6843  144.7653  151.1551 LP  0  0  0  0  0  0  0  0  0  0  0  0  # atno 17343 bound_to 10162
  155.9722  130.4139  150.4105 LP  0  0  0  0  0  0  0  0  0  0  0  0  # atno 17370 bound_to 10713
  157.2169  131.0473  151.2568 LP  0  0  0  0  0  0  0  0  0  0  0  0  # atno 17371 bound_to 10713
  141.1363  133.9215  157.2426 LP  0  0  0  0  0  0  0  0  0  0  0  0  # atno 17394 bound_to 11000
  139.9636  135.0148  156.9326 LP  0  0  0  0  0  0  0  0  0  0  0  0  # atno 17395 bound_to 11000

$$$$
