AV-unprocessed.smi:1769|AV-procd|sdf|7152|dock10
  -GOLD-   22720 8393D 1   1.00000     0.00000
 Structure written by MMmdl.
 41 42  0  0  0  0  0  0  0  0  1 V2000
  156.1981  133.7872  161.9625 C   0  0  0  0  0  0  0  0  0  0  0  0
  155.8955  135.1439  161.3222 C   0  0  0  0  0  0  0  0  0  0  0  0
  156.2628  135.3309  160.1619 O   0  0  0  0  0  0  0  0  0  0  0  0
  155.2443  136.0869  162.0450 N   0  0  0  0  0  0  0  0  0  0  0  0
  154.8585  135.9607  163.4564 C   0  0  0  0  0  0  0  0  0  0  0  0
  155.7555  136.8865  164.2979 C   0  0  0  0  0  0  0  0  0  0  0  0
  155.6716  138.3416  163.7964 C   0  0  0  0  0  0  0  0  0  0  0  0
  155.9053  138.4355  162.2699 C   0  0  2  0  0  0  0  0  0  0  0  0
  155.6800  139.8601  161.7488 C   0  0  0  0  0  0  0  0  0  0  0  0
  156.6369  140.5492  161.3938 O   0  0  0  0  0  0  0  0  0  0  0  0
  154.4100  140.2963  161.7350 N   0  0  0  0  0  0  0  0  0  0  0  0
  153.9792  141.6445  161.3725 C   0  0  0  0  0  0  0  0  0  0  0  0
  152.9866  141.6390  160.1933 C   0  0  0  0  0  0  0  0  0  0  0  0
  152.3563  142.9941  159.9220 C   0  0  0  0  0  0  0  0  0  0  0  0
  152.4774  143.6128  158.6602 C   0  0  0  0  0  0  0  0  0  0  0  0
  151.8455  144.8530  158.4491 C   0  0  0  0  0  0  0  0  0  0  0  0
  151.1221  145.4264  159.5138 C   0  0  0  0  0  0  0  0  0  0  0  0
  151.0051  144.8471  160.7280 N   0  0  0  0  0  0  0  0  0  0  0  0
  151.6109  143.6557  160.9207 C   0  0  0  0  0  0  0  0  0  0  0  0
  154.9844  137.4375  161.5325 C   0  0  0  0  0  0  0  0  0  0  0  0
  156.8060  133.9091  162.8595 H   0  0  0  0  0  0  0  0  0  0  0  0
  156.7511  133.1503  161.2713 H   0  0  0  0  0  0  0  0  0  0  0  0
  155.2753  133.2701  162.2260 H   0  0  0  0  0  0  0  0  0  0  0  0
  153.8136  136.2533  163.5682 H   0  0  0  0  0  0  0  0  0  0  0  0
  154.9157  134.9416  163.8363 H   0  0  0  0  0  0  0  0  0  0  0  0
  155.4656  136.8372  165.3477 H   0  0  0  0  0  0  0  0  0  0  0  0
  156.7881  136.5396  164.2443 H   0  0  0  0  0  0  0  0  0  0  0  0
  154.6869  138.7391  164.0475 H   0  0  0  0  0  0  0  0  0  0  0  0
  156.3963  138.9585  164.3293 H   0  0  0  0  0  0  0  0  0  0  0  0
  156.9415  138.1556  162.0686 H   0  0  0  0  0  0  0  0  0  0  0  0
  153.6907  139.6591  162.0451 H   0  0  0  0  0  0  0  0  0  0  0  0
  153.5366  142.1524  162.2311 H   0  0  0  0  0  0  0  0  0  0  0  0
  154.8626  142.2234  161.1029 H   0  0  0  0  0  0  0  0  0  0  0  0
  153.4953  141.3026  159.2892 H   0  0  0  0  0  0  0  0  0  0  0  0
  152.1961  140.9120  160.3829 H   0  0  0  0  0  0  0  0  0  0  0  0
  153.0309  143.1400  157.8623 H   0  0  0  0  0  0  0  0  0  0  0  0
  151.9096  145.3504  157.4926 H   0  0  0  0  0  0  0  0  0  0  0  0
  150.6239  146.3760  159.3864 H   0  0  0  0  0  0  0  0  0  0  0  0
  151.4904  143.2130  161.8985 H   0  0  0  0  0  0  0  0  0  0  0  0
  155.1341  137.5084  160.4541 H   0  0  0  0  0  0  0  0  0  0  0  0
  153.9350  137.6869  161.6989 H   0  0  0  0  0  0  0  0  0  0  0  0
  1  2  1  0  0  0  0
  1 21  1  0  0  0  0
  1 22  1  0  0  0  0
  1 23  1  0  0  0  0
  2  3  2  0  0  0  0
  2  4  1  0  0  0  0
  4 20  1  0  0  0  0
  4  5  1  0  0  0  0
  5  6  1  0  0  0  0
  5 24  1  0  0  0  0
  5 25  1  0  0  0  0
  6  7  1  0  0  0  0
  6 26  1  0  0  0  0
  6 27  1  0  0  0  0
  7  8  1  0  0  0  0
  7 28  1  0  0  0  0
  7 29  1  0  0  0  0
  8  9  1  0  0  0  0
  8 20  1  0  0  0  0
  8 30  1  0  0  0  0
  9 10  2  0  0  0  0
  9 11  1  0  0  0  0
 11 12  1  0  0  0  0
 11 31  1  0  0  0  0
 12 13  1  0  0  0  0
 12 32  1  0  0  0  0
 12 33  1  0  0  0  0
 13 14  1  0  0  0  0
 13 34  1  0  0  0  0
 13 35  1  0  0  0  0
 14 19  1  0  0  0  0
 14 15  2  0  0  0  0
 15 16  1  0  0  0  0
 15 36  1  0  0  0  0
 16 17  2  0  0  0  0
 16 37  1  0  0  0  0
 17 18  1  0  0  0  0
 17 38  1  0  0  0  0
 18 19  2  0  0  0  0
 19 39  1  0  0  0  0
 20 40  1  0  0  0  0
 20 41  1  0  0  0  0
M  END
> <s_m_source_file>
AV-unprocessed.smi

> <i_m_source_file_index>
1769

> <i_lp_mmshare_version>
43012

> <i_f3d_flags>
0

> <s_epik_input>
W0NIM11DKD1PKU4xW0NIMl1bQ0gyXVtDSDJdW0NASF0oW0NIMl0xKUMoPU8pW05IXVtDSDJdW0NIMl1jMltjSF1bY0hdW2NIXW5bY0hdMg==

> <s_epik_cmdline>
J2VwaWtfcHl0aG9uJywgJy1waCcsICc3LjAnLCAnLXRuJywgJzgnLCAnLW1hJywgJzIwMCcsICctbWV0YWxfYmluZGluZycsICctaW1hZScsICc8aW5maWxlLm1hZT4nLCAnLW9tYWUnLCAnPG91dGZpbGUubWFlPic=

> <r_epik_Ionization_Penalty>
0.0134099

> <r_epik_Ionization_Penalty_Charging>
0

> <r_epik_Ionization_Penalty_Neutral>
0.0134099

> <r_epik_State_Penalty>
0.010434

> <r_epik_Charging_Adjusted_Penalty>
0.010434

> <i_epik_Tot_Q>
0

> <i_epik_Tot_abs_Q>
0

> <r_epik_Metal_State_Penalty>
0.0102025

> <b_epik_Metal_Only>
0

> <s_lp_Force_Field>
OPLS_2005

> <r_lp_Energy>
22.8084

> <b_lp_Chiralities_Consistent>
1

> <s_lp_Variant>
AV-unprocessed.smi:1769-2

> <Gold.Version>
5.8.1

> <Gold.Id.Protein>
6NUR|6NUR_protein|mol2

> <Gold.PLP.Fitness>
46.0934

> <Gold.PLP.PLP>
-46.4951

> <Gold.PLP.part.hbond>
-1.0000

> <Gold.PLP.part.metal>
0.0000

> <Gold.PLP.part.buried>
-3.1781

> <Gold.PLP.part.nonpolar>
-41.2418

> <Gold.PLP.part.repulsive>
0.1924

> <Gold.PLP.ligand.clash>
0.0000

> <Gold.PLP.ligand.torsion>
0.2168

> <Gold.PLP.Chemscore.Hbond>
0.0000

> <Gold.PLP.Chemscore.CHOScore>
0.0000

> <Gold.PLP.Chemscore.Metal>
0.0000

> <Gold.PLP.Chemscore.Internal.Correction>
0.0318

> <Gold.Rescore>
     Score         DG    S(hbond)    S(metal)    S(lipo)     H(rot)  DE(clash)    DE(int)     intcor
     17.82     -18.39       0.69        0.00     123.90       1.52       0.32       0.26       ----

> <Gold.Chemscore.Fitness>
17.8199

> <Gold.Chemscore.DG>
-18.3924

> <Gold.Chemscore.ZeroCoef>
-5.4800

> <Gold.Chemscore.Hbond>
0.6911

> <Gold.Chemscore.Metal>
0.0000

> <Gold.Chemscore.Lipo>
123.9027

> <Gold.Chemscore.Internal_Hbond>
0.0000

> <Gold.Chemscore.DEClash>
0.3150

> <Gold.Chemscore.DEInternal>
0.2575

> <Gold.Chemscore.Rot>
1.5205

> <Gold.Chemscore.Internal.Correction>
   9.000000E+99

> <Gold.Chemscore.Hbond.Weighted>
-2.3084

> <Gold.Chemscore.Metal.Weighted>
-0.0000

> <Gold.Chemscore.Lipo.Weighted>
-14.4966

> <Gold.Chemscore.Internal_Hbond.Weighted>
0.0000

> <Gold.Chemscore.DEClash.Weighted>
0.3150

> <Gold.Chemscore.DEInternal.Weighted>
0.2575

> <Gold.Chemscore.Rot.Weighted>
3.8926

> <Gold.Chemscore.Internal.Correction.Weighted>
   9.000000E+99

> <Gold.Protein.RotatedTorsions>
[ 6907 6896 6895 6894 ] final -177.88 input  -60.11 | X-H torsion
[ 7974 7965 7964 7962 ] final  -88.27 input  175.53 | X-H torsion
[ 8008 7997 7996 7995 ] final  121.03 input   59.86 | X-H torsion
[ 10167 10162 10161 10158 ] final -137.98 input  -65.29 | X-H torsion
[ 10718 10713 10712 10709 ] final   25.24 input   66.30 | X-H torsion
[ 10763 10752 10751 10750 ] final   -0.19 input  -60.55 | X-H torsion
[ 11005 11000 10999 10996 ] final   86.85 input  -57.11 | X-H torsion

> <Gold.Protein.ActiveResidues>
 VAL166  LYS551  ARG553  GLY616  TRP617  ASP618  TYR619  PRO620  LYS621  CYS622 
 ASP623  PHE694  ASN695  SER759  ASP760  ASP761  ALA762  ILE779  LEU786  VAL792 
 PHE793  MET794  SER795  GLU796  ALA797  LYS798  CYS799  TRP800  GLU811  SER814 

> <Gold.Protein.RotatedAtoms>
  151.6282  133.3334  159.3102 H   0  0  0  0  0  0  0  0  0  0  0  0  # atno 6907 bound_to 6896
  150.8070  134.7205  159.6665 H   0  0  0  0  0  0  0  0  0  0  0  0  # atno 6908 bound_to 6896
  152.4166  134.6035  160.0058 H   0  0  0  0  0  0  0  0  0  0  0  0  # atno 6909 bound_to 6896
  145.4554  140.9561  143.1999 H   0  0  0  0  0  0  0  0  0  0  0  0  # atno 7974 bound_to 7965
  156.2669  140.2817  156.1243 H   0  0  0  0  0  0  0  0  0  0  0  0  # atno 8008 bound_to 7997
  155.1122  140.0391  157.2744 H   0  0  0  0  0  0  0  0  0  0  0  0  # atno 8009 bound_to 7997
  154.6734  140.2593  155.6989 H   0  0  0  0  0  0  0  0  0  0  0  0  # atno 8010 bound_to 7997
  139.8524  143.7182  152.2657 H   0  0  0  0  0  0  0  0  0  0  0  0  # atno 10167 bound_to 10162
  157.1907  130.6845  149.6149 H   0  0  0  0  0  0  0  0  0  0  0  0  # atno 10718 bound_to 10713
  153.3287  135.6974  153.6967 H   0  0  0  0  0  0  0  0  0  0  0  0  # atno 10763 bound_to 10752
  153.5778  135.3504  155.2864 H   0  0  0  0  0  0  0  0  0  0  0  0  # atno 10764 bound_to 10752
  154.8613  135.4288  154.2470 H   0  0  0  0  0  0  0  0  0  0  0  0  # atno 10765 bound_to 10752
  139.8934  134.8383  156.2778 H   0  0  0  0  0  0  0  0  0  0  0  0  # atno 11005 bound_to 11000
  144.8035  139.6095  143.7061 LP  0  0  0  0  0  0  0  0  0  0  0  0  # atno 17320 bound_to 7965
  146.2481  139.6141  142.9446 LP  0  0  0  0  0  0  0  0  0  0  0  0  # atno 17321 bound_to 7965
  139.7453  144.7549  151.0590 LP  0  0  0  0  0  0  0  0  0  0  0  0  # atno 17342 bound_to 10162
  140.7786  143.4924  150.9876 LP  0  0  0  0  0  0  0  0  0  0  0  0  # atno 17343 bound_to 10162
  155.9712  130.4615  150.6113 LP  0  0  0  0  0  0  0  0  0  0  0  0  # atno 17370 bound_to 10713
  157.3863  131.0789  151.1433 LP  0  0  0  0  0  0  0  0  0  0  0  0  # atno 17371 bound_to 10713
  141.0058  133.7124  156.1033 LP  0  0  0  0  0  0  0  0  0  0  0  0  # atno 17394 bound_to 11000
  140.7435  134.4124  157.5551 LP  0  0  0  0  0  0  0  0  0  0  0  0  # atno 17395 bound_to 11000

$$$$
