AV-unprocessed.smi:2279|AV-procd|sdf|9189|dock2
  -GOLD-   2272012403D 1   1.00000     0.00000
 Structure written by MMmdl.
 57 59  0  0  0  0  0  0  0  0  2 V2000
  143.9051  133.9477  151.5532 C   0  0  0  0  0  0  0  0  0  0  0  0
  144.1584  135.2522  152.2791 C   0  0  0  0  0  0  0  0  0  0  0  0
  143.1062  135.9470  152.9058 C   0  0  0  0  0  0  0  0  0  0  0  0
  143.4074  137.1549  153.5650 C   0  0  0  0  0  0  0  0  0  0  0  0
  142.3256  137.9520  154.2627 C   0  0  0  0  0  0  0  0  0  0  0  0
  144.6532  137.6723  153.6223 N   0  0  0  0  0  0  0  0  0  0  0  0
  145.6744  137.0118  153.0224 C   0  0  0  0  0  0  0  0  0  0  0  0
  147.0183  137.4720  153.0234 N   0  0  0  0  0  0  0  0  0  0  0  0
  147.6032  138.3233  153.8847 C   0  0  0  0  0  0  0  0  0  0  0  0
  147.0515  138.8544  154.8491 O   0  0  0  0  0  0  0  0  0  0  0  0
  148.8886  138.5346  153.5644 N   0  0  0  0  0  0  0  0  0  0  0  0
  149.8043  139.4007  154.3019 C   0  0  2  0  0  0  0  0  0  0  0  0
  150.3240  138.7051  155.5693 C   0  0  0  0  0  0  0  0  0  0  0  0
  151.2217  139.6480  156.3859 C   0  0  0  0  0  0  0  0  0  0  0  0
  150.5142  140.9054  156.7650 N   0  3  1  0  0  0  0  0  0  0  0  0
  151.3302  141.7585  157.6913 C   0  0  0  0  0  0  0  0  0  0  0  0
  151.8219  140.9437  158.9106 C   0  0  0  0  0  0  0  0  0  0  0  0
  152.6117  141.8123  159.9052 C   0  0  0  0  0  0  0  0  0  0  0  0
  151.7777  142.9127  160.3812 N   0  0  0  0  0  0  0  0  0  0  0  0
  152.5147  143.6854  161.3714 C   0  0  0  0  0  0  0  0  0  0  0  0
  151.4228  143.7777  159.2593 C   0  0  0  0  0  0  0  0  0  0  0  0
  150.5790  142.9979  158.2364 C   0  0  0  0  0  0  0  0  0  0  0  0
  150.0007  141.6043  155.5497 C   0  0  0  0  0  0  0  0  0  0  0  0
  149.0902  140.6968  154.7043 C   0  0  0  0  0  0  0  0  0  0  0  0
  145.4584  135.7936  152.3397 C   0  0  0  0  0  0  0  0  0  0  0  0
  142.8473  133.6834  151.5689 H   0  0  0  0  0  0  0  0  0  0  0  0
  144.4657  133.1395  152.0232 H   0  0  0  0  0  0  0  0  0  0  0  0
  144.2212  134.0266  150.5127 H   0  0  0  0  0  0  0  0  0  0  0  0
  142.0961  135.5648  152.8827 H   0  0  0  0  0  0  0  0  0  0  0  0
  141.3365  137.5449  154.0510 H   0  0  0  0  0  0  0  0  0  0  0  0
  142.3430  138.9907  153.9315 H   0  0  0  0  0  0  0  0  0  0  0  0
  142.4797  137.9320  155.3418 H   0  0  0  0  0  0  0  0  0  0  0  0
  147.5992  137.1124  152.2808 H   0  0  0  0  0  0  0  0  0  0  0  0
  149.2617  138.0577  152.7566 H   0  0  0  0  0  0  0  0  0  0  0  0
  150.6493  139.6571  153.6594 H   0  0  0  0  0  0  0  0  0  0  0  0
  149.4865  138.3732  156.1848 H   0  0  0  0  0  0  0  0  0  0  0  0
  150.8862  137.8089  155.3039 H   0  0  0  0  0  0  0  0  0  0  0  0
  151.5573  139.1058  157.2675 H   0  0  0  0  0  0  0  0  0  0  0  0
  152.1174  139.8944  155.8131 H   0  0  0  0  0  0  0  0  0  0  0  0
  152.1974  142.1224  157.1370 H   0  0  0  0  0  0  0  0  0  0  0  0
  150.9702  140.4924  159.4218 H   0  0  0  0  0  0  0  0  0  0  0  0
  152.4664  140.1210  158.6065 H   0  0  0  0  0  0  0  0  0  0  0  0
  152.9230  141.1999  160.7526 H   0  0  0  0  0  0  0  0  0  0  0  0
  153.5197  142.1972  159.4382 H   0  0  0  0  0  0  0  0  0  0  0  0
  151.9021  144.5049  161.7491 H   0  0  0  0  0  0  0  0  0  0  0  0
  153.4283  144.1075  160.9504 H   0  0  0  0  0  0  0  0  0  0  0  0
  152.7878  143.0584  162.2209 H   0  0  0  0  0  0  0  0  0  0  0  0
  150.8508  144.6316  159.6248 H   0  0  0  0  0  0  0  0  0  0  0  0
  152.3230  144.1742  158.7864 H   0  0  0  0  0  0  0  0  0  0  0  0
  150.3301  143.6856  157.4282 H   0  0  0  0  0  0  0  0  0  0  0  0
  149.6381  142.6955  158.6992 H   0  0  0  0  0  0  0  0  0  0  0  0
  149.4043  142.4733  155.8230 H   0  0  0  0  0  0  0  0  0  0  0  0
  150.8404  141.9616  154.9516 H   0  0  0  0  0  0  0  0  0  0  0  0
  148.7633  141.2343  153.8132 H   0  0  0  0  0  0  0  0  0  0  0  0
  148.1876  140.4631  155.2712 H   0  0  0  0  0  0  0  0  0  0  0  0
  146.2801  135.2760  151.8661 H   0  0  0  0  0  0  0  0  0  0  0  0
  149.6948  140.6323  157.2887 H   0  0  0  0  0  0  0  0  0  0  0  0
  1  2  1  0  0  0  0
  1 26  1  0  0  0  0
  1 27  1  0  0  0  0
  1 28  1  0  0  0  0
  2 25  1  0  0  0  0
  2  3  2  0  0  0  0
  3  4  1  0  0  0  0
  3 29  1  0  0  0  0
  4  5  1  0  0  0  0
  4  6  2  0  0  0  0
  5 30  1  0  0  0  0
  5 31  1  0  0  0  0
  5 32  1  0  0  0  0
  6  7  1  0  0  0  0
  7  8  1  0  0  0  0
  7 25  2  0  0  0  0
  8  9  1  0  0  0  0
  8 33  1  0  0  0  0
  9 10  2  0  0  0  0
  9 11  1  0  0  0  0
 11 12  1  0  0  0  0
 11 34  1  0  0  0  0
 12 24  1  0  0  0  0
 12 13  1  0  0  0  0
 12 35  1  0  0  0  0
 13 14  1  0  0  0  0
 13 36  1  0  0  0  0
 13 37  1  0  0  0  0
 14 15  1  0  0  0  0
 14 38  1  0  0  0  0
 14 39  1  0  0  0  0
 15 16  1  0  0  0  0
 15 23  1  0  0  0  0
 15 57  1  0  0  0  0
 16 22  1  0  0  0  0
 16 17  1  0  0  0  0
 16 40  1  0  0  0  0
 17 18  1  0  0  0  0
 17 41  1  0  0  0  0
 17 42  1  0  0  0  0
 18 19  1  0  0  0  0
 18 43  1  0  0  0  0
 18 44  1  0  0  0  0
 19 20  1  0  0  0  0
 19 21  1  0  0  0  0
 20 45  1  0  0  0  0
 20 46  1  0  0  0  0
 20 47  1  0  0  0  0
 21 22  1  0  0  0  0
 21 48  1  0  0  0  0
 21 49  1  0  0  0  0
 22 50  1  0  0  0  0
 22 51  1  0  0  0  0
 23 24  1  0  0  0  0
 23 52  1  0  0  0  0
 23 53  1  0  0  0  0
 24 54  1  0  0  0  0
 24 55  1  0  0  0  0
 25 56  1  0  0  0  0
M  CHG  1  15   1
M  END
> <s_m_source_file>
AV-unprocessed.smi

> <i_m_source_file_index>
2279

> <i_lp_mmshare_version>
43012

> <i_f3d_flags>
0

> <s_epik_input>
W0NIM11jMVtjSF1jKFtDSDNdKW5jKFtjSF0xKVtOSF1DKD1PKVtOSF1bQ0hdMltDSDJdW0NIMl1OKFtDSDJdW0NIMl0yKVtDSF0zW0NIMl1bQ0gyXU4oW0NIM10pW0NIMl1bQ0gyXTM=

> <s_epik_cmdline>
J2VwaWtfcHl0aG9uJywgJy1waCcsICc3LjAnLCAnLXRuJywgJzgnLCAnLW1hJywgJzIwMCcsICctbWV0YWxfYmluZGluZycsICctaW1hZScsICc8aW5maWxlLm1hZT4nLCAnLW9tYWUnLCAnPG91dGZpbGUubWFlPic=

> <r_epik_Ionization_Penalty>
1.37263

> <r_epik_Ionization_Penalty_Charging>
0.00081195

> <r_epik_Ionization_Penalty_Neutral>
1.37182

> <r_epik_State_Penalty>
1.55149

> <r_epik_Charging_Adjusted_Penalty>
1.5523

> <i_epik_Tot_Q>
1

> <i_epik_Tot_abs_Q>
1

> <r_epik_Metal_State_Penalty>
1.5515

> <b_epik_Metal_Only>
0

> <s_lp_Force_Field>
OPLS_2005

> <r_lp_Energy>
32.7052

> <b_lp_Chiralities_Consistent>
1

> <s_lp_Variant>
AV-unprocessed.smi:2279-7

> <Gold.Version>
5.8.1

> <Gold.Id.Protein>
6NUR|6NUR_protein|mol2

> <Gold.PLP.Fitness>
46.5168

> <Gold.PLP.PLP>
-42.2532

> <Gold.PLP.part.hbond>
-3.3659

> <Gold.PLP.part.metal>
0.0000

> <Gold.PLP.part.buried>
-6.0753

> <Gold.PLP.part.nonpolar>
-34.0124

> <Gold.PLP.part.repulsive>
1.0038

> <Gold.PLP.ligand.clash>
0.0000

> <Gold.PLP.ligand.torsion>
0.3860

> <Gold.PLP.Chemscore.Hbond>
1.6640

> <Gold.PLP.Chemscore.CHOScore>
0.0000

> <Gold.PLP.Chemscore.Metal>
0.0000

> <Gold.Chemscore.Hbonds>
donor molecule, donor type, donor heavy atom, donor atom, acceptor molecule, acceptor atom, score
      L1  H     8    33       P1  7948  0.98
      L1  H    11    34       P1  7948  0.74

> <Gold.PLP.Chemscore.Internal.Correction>
0.0437

> <Gold.Rescore>
     Score         DG    S(hbond)    S(metal)    S(lipo)     H(rot)  DE(clash)    DE(int)     intcor
     18.56     -21.57       1.84        0.00     111.04       1.19       0.10       2.92       ----

> <Gold.Chemscore.Fitness>
18.5553

> <Gold.Chemscore.DG>
-21.5726

> <Gold.Chemscore.ZeroCoef>
-5.4800

> <Gold.Chemscore.Hbond>
1.8415

> <Gold.Chemscore.Metal>
0.0000

> <Gold.Chemscore.Lipo>
111.0389

> <Gold.Chemscore.Internal_Hbond>
0.0000

> <Gold.Chemscore.DEClash>
0.0995

> <Gold.Chemscore.DEInternal>
2.9178

> <Gold.Chemscore.Rot>
1.1913

> <Gold.Chemscore.Internal.Correction>
   9.000000E+99

> <Gold.Chemscore.Hbonds>
donor molecule, donor type, donor heavy atom, donor atom, acceptor molecule, acceptor atom, score
      L1  H     8    33       P1  7948  0.92
      L1  H    11    34       P1  7948  0.66

> <Gold.Chemscore.Hbond.Weighted>
-6.1508

> <Gold.Chemscore.Metal.Weighted>
-0.0000

> <Gold.Chemscore.Lipo.Weighted>
-12.9915

> <Gold.Chemscore.Internal_Hbond.Weighted>
0.0000

> <Gold.Chemscore.DEClash.Weighted>
0.0995

> <Gold.Chemscore.DEInternal.Weighted>
2.9178

> <Gold.Chemscore.Rot.Weighted>
3.0497

> <Gold.Chemscore.Internal.Correction.Weighted>
   9.000000E+99

> <Gold.Protein.RotatedTorsions>
[ 6907 6896 6895 6894 ] final  127.15 input  -60.11 | X-H torsion
[ 7974 7965 7964 7962 ] final -173.42 input  175.53 | X-H torsion
[ 8008 7997 7996 7995 ] final  139.95 input   59.86 | X-H torsion
[ 10167 10162 10161 10158 ] final  -68.79 input  -65.29 | X-H torsion
[ 10718 10713 10712 10709 ] final  -29.52 input   66.30 | X-H torsion
[ 10763 10752 10751 10750 ] final  -34.00 input  -60.55 | X-H torsion
[ 11005 11000 10999 10996 ] final -134.36 input  -57.11 | X-H torsion

> <Gold.Protein.ActiveResidues>
 VAL166  LYS551  ARG553  GLY616  TRP617  ASP618  TYR619  PRO620  LYS621  CYS622 
 ASP623  PHE694  ASN695  SER759  ASP760  ASP761  ALA762  ILE779  LEU786  VAL792 
 PHE793  MET794  SER795  GLU796  ALA797  LYS798  CYS799  TRP800  GLU811  SER814 

> <Gold.Protein.RotatedAtoms>
  152.3839  133.6584  159.6182 H   0  0  0  0  0  0  0  0  0  0  0  0  # atno 6907 bound_to 6896
  150.7763  133.9068  159.3366 H   0  0  0  0  0  0  0  0  0  0  0  0  # atno 6908 bound_to 6896
  151.6868  135.0954  160.0277 H   0  0  0  0  0  0  0  0  0  0  0  0  # atno 6909 bound_to 6896
  144.7138  140.1625  143.6375 H   0  0  0  0  0  0  0  0  0  0  0  0  # atno 7974 bound_to 7965
  156.2984  140.2354  156.4322 H   0  0  0  0  0  0  0  0  0  0  0  0  # atno 8008 bound_to 7997
  154.8260  140.0435  157.1464 H   0  0  0  0  0  0  0  0  0  0  0  0  # atno 8009 bound_to 7997
  154.9261  140.3010  155.5195 H   0  0  0  0  0  0  0  0  0  0  0  0  # atno 8010 bound_to 7997
  140.5481  143.2312  151.6964 H   0  0  0  0  0  0  0  0  0  0  0  0  # atno 10167 bound_to 10162
  156.4114  130.4409  149.7249 H   0  0  0  0  0  0  0  0  0  0  0  0  # atno 10718 bound_to 10713
  153.8395  135.6859  153.4804 H   0  0  0  0  0  0  0  0  0  0  0  0  # atno 10763 bound_to 10752
  153.1462  135.4637  154.9568 H   0  0  0  0  0  0  0  0  0  0  0  0  # atno 10764 bound_to 10752
  154.7851  135.3282  154.7850 H   0  0  0  0  0  0  0  0  0  0  0  0  # atno 10765 bound_to 10752
  140.8997  134.1706  157.4469 H   0  0  0  0  0  0  0  0  0  0  0  0  # atno 11005 bound_to 11000
  145.9017  139.2434  143.1489 LP  0  0  0  0  0  0  0  0  0  0  0  0  # atno 17320 bound_to 7965
  145.9804  140.8687  143.0117 LP  0  0  0  0  0  0  0  0  0  0  0  0  # atno 17321 bound_to 7965
  139.5015  144.3862  152.0326 LP  0  0  0  0  0  0  0  0  0  0  0  0  # atno 17342 bound_to 10162
  140.2977  144.3682  150.6069 LP  0  0  0  0  0  0  0  0  0  0  0  0  # atno 17343 bound_to 10162
  156.4226  130.7776  151.2794 LP  0  0  0  0  0  0  0  0  0  0  0  0  # atno 17370 bound_to 10713
  157.7507  131.0178  150.3600 LP  0  0  0  0  0  0  0  0  0  0  0  0  # atno 17371 bound_to 10713
  139.8740  134.9893  156.5450 LP  0  0  0  0  0  0  0  0  0  0  0  0  # atno 17394 bound_to 11000
  140.8245  133.8327  155.8926 LP  0  0  0  0  0  0  0  0  0  0  0  0  # atno 17395 bound_to 11000

$$$$
