AV-unprocessed.smi:1641|AV-procd|sdf|6557|dock2
  -GOLD-   22720 7243D 1   1.00000     0.00000
 Structure written by MMmdl.
 41 42  0  0  0  0  0  0  0  0  1 V2000
  138.4218  137.2184  153.5478 C   0  0  0  0  0  0  0  0  0  0  0  0
  139.8717  137.2265  153.8927 C   0  0  0  0  0  0  0  0  0  0  0  0
  140.4433  136.2726  154.6378 N   0  0  0  0  0  0  0  0  0  0  0  0
  141.8005  136.4942  154.8250 N   0  0  0  0  0  0  0  0  0  0  0  0
  142.2136  137.6126  154.2130 C   0  0  0  0  0  0  0  0  0  0  0  0
  143.5543  138.0790  154.2413 N   0  0  0  0  0  0  0  0  0  0  0  0
  144.5898  137.5926  154.9475 C   0  0  0  0  0  0  0  0  0  0  0  0
  144.5459  136.6072  155.6843 O   0  0  0  0  0  0  0  0  0  0  0  0
  145.6967  138.3240  154.7510 N   0  0  0  0  0  0  0  0  0  0  0  0
  146.9810  138.1054  155.4103 C   0  0  0  0  0  0  0  0  0  0  0  0
  148.1064  137.8615  154.3860 C   0  0  0  0  0  0  0  0  0  0  0  0
  149.4432  138.2799  154.8078 N   0  0  0  0  0  0  0  0  0  0  0  0
  150.4603  138.0317  153.7886 C   0  0  0  0  0  0  0  0  0  0  0  0
  151.8670  138.4719  154.2400 C   0  0  2  0  0  0  0  0  0  0  0  0
  152.4883  137.5362  155.2917 C   0  0  0  0  0  0  0  0  0  0  0  0
  151.8398  139.8293  154.6855 O   0  0  0  0  0  0  0  0  0  0  0  0
  150.8565  140.1247  155.6761 C   0  0  1  0  0  0  0  0  0  0  0  0
  150.9169  141.6262  155.9760 C   0  0  0  0  0  0  0  0  0  0  0  0
  149.4698  139.6909  155.1671 C   0  0  0  0  0  0  0  0  0  0  0  0
  140.9634  138.4975  153.3560 S   0  0  0  0  0  0  0  0  0  0  0  0
  138.0470  136.1956  153.5008 H   0  0  0  0  0  0  0  0  0  0  0  0
  138.2629  137.6918  152.5788 H   0  0  0  0  0  0  0  0  0  0  0  0
  137.8571  137.7655  154.3027 H   0  0  0  0  0  0  0  0  0  0  0  0
  143.7440  138.8864  153.6663 H   0  0  0  0  0  0  0  0  0  0  0  0
  145.6396  139.1122  154.1230 H   0  0  0  0  0  0  0  0  0  0  0  0
  147.2262  138.9205  156.0922 H   0  0  0  0  0  0  0  0  0  0  0  0
  146.8773  137.2198  156.0374 H   0  0  0  0  0  0  0  0  0  0  0  0
  148.1240  136.8042  154.1179 H   0  0  0  0  0  0  0  0  0  0  0  0
  147.8399  138.3937  153.4716 H   0  0  0  0  0  0  0  0  0  0  0  0
  150.4896  136.9766  153.5206 H   0  0  0  0  0  0  0  0  0  0  0  0
  150.1973  138.5707  152.8772 H   0  0  0  0  0  0  0  0  0  0  0  0
  152.5207  138.4487  153.3678 H   0  0  0  0  0  0  0  0  0  0  0  0
  152.6110  136.5302  154.8898 H   0  0  0  0  0  0  0  0  0  0  0  0
  151.8697  137.4531  156.1853 H   0  0  0  0  0  0  0  0  0  0  0  0
  153.4726  137.8917  155.5970 H   0  0  0  0  0  0  0  0  0  0  0  0
  151.0937  139.5830  156.5922 H   0  0  0  0  0  0  0  0  0  0  0  0
  150.1955  141.9019  156.7457 H   0  0  0  0  0  0  0  0  0  0  0  0
  150.6989  142.2159  155.0852 H   0  0  0  0  0  0  0  0  0  0  0  0
  151.9070  141.9123  156.3315 H   0  0  0  0  0  0  0  0  0  0  0  0
  149.1887  140.2969  154.3041 H   0  0  0  0  0  0  0  0  0  0  0  0
  148.7274  139.8882  155.9415 H   0  0  0  0  0  0  0  0  0  0  0  0
  1  2  1  0  0  0  0
  1 21  1  0  0  0  0
  1 22  1  0  0  0  0
  1 23  1  0  0  0  0
  2 20  1  0  0  0  0
  2  3  2  0  0  0  0
  3  4  1  0  0  0  0
  4  5  2  0  0  0  0
  5  6  1  0  0  0  0
  5 20  1  0  0  0  0
  6  7  1  0  0  0  0
  6 24  1  0  0  0  0
  7  8  2  0  0  0  0
  7  9  1  0  0  0  0
  9 10  1  0  0  0  0
  9 25  1  0  0  0  0
 10 11  1  0  0  0  0
 10 26  1  0  0  0  0
 10 27  1  0  0  0  0
 11 12  1  0  0  0  0
 11 28  1  0  0  0  0
 11 29  1  0  0  0  0
 12 19  1  0  0  0  0
 12 13  1  0  0  0  0
 13 14  1  0  0  0  0
 13 30  1  0  0  0  0
 13 31  1  0  0  0  0
 14 15  1  0  0  0  0
 14 16  1  0  0  0  0
 14 32  1  0  0  0  0
 15 33  1  0  0  0  0
 15 34  1  0  0  0  0
 15 35  1  0  0  0  0
 16 17  1  0  0  0  0
 17 18  1  0  0  0  0
 17 19  1  0  0  0  0
 17 36  1  0  0  0  0
 18 37  1  0  0  0  0
 18 38  1  0  0  0  0
 18 39  1  0  0  0  0
 19 40  1  0  0  0  0
 19 41  1  0  0  0  0
M  END
> <s_m_source_file>
AV-unprocessed.smi

> <i_m_source_file_index>
1641

> <i_lp_mmshare_version>
43012

> <i_f3d_flags>
0

> <s_epik_input>
W0NIM11jMW5uYyhzMSlbTkhdQyg9TylbTkhdW0NIMl1bQ0gyXU4yW0NIMl1bQ0BASF0oW0NIM10pT1tDQEBIXShbQ0gzXSlbQ0gyXTI=

> <s_epik_cmdline>
J2VwaWtfcHl0aG9uJywgJy1waCcsICc3LjAnLCAnLXRuJywgJzgnLCAnLW1hJywgJzIwMCcsICctbWV0YWxfYmluZGluZycsICctaW1hZScsICc8aW5maWxlLm1hZT4nLCAnLW9tYWUnLCAnPG91dGZpbGUubWFlPic=

> <r_lp_tautomer_probability>
1

> <r_epik_Ionization_Penalty>
0.221104

> <r_epik_Ionization_Penalty_Charging>
0

> <r_epik_Ionization_Penalty_Neutral>
0.221104

> <r_epik_State_Penalty>
0.209349

> <r_epik_Charging_Adjusted_Penalty>
0.209349

> <i_epik_Tot_Q>
0

> <i_epik_Tot_abs_Q>
0

> <r_epik_Metal_State_Penalty>
0.560954

> <b_epik_Metal_Only>
0

> <s_lp_Force_Field>
OPLS_2005

> <r_lp_Energy>
24.8312

> <b_lp_Chiralities_Consistent>
1

> <s_lp_Variant>
AV-unprocessed.smi:1641-2

> <Gold.Version>
5.8.1

> <Gold.Id.Protein>
6NUR|6NUR_protein|mol2

> <Gold.PLP.Fitness>
37.0334

> <Gold.PLP.PLP>
-28.9189

> <Gold.PLP.part.hbond>
-3.2200

> <Gold.PLP.part.metal>
0.0000

> <Gold.PLP.part.buried>
-5.7073

> <Gold.PLP.part.nonpolar>
-21.6116

> <Gold.PLP.part.repulsive>
0.1868

> <Gold.PLP.ligand.clash>
0.0000

> <Gold.PLP.ligand.torsion>
0.1934

> <Gold.PLP.Chemscore.Hbond>
2.8322

> <Gold.PLP.Chemscore.CHOScore>
0.0000

> <Gold.PLP.Chemscore.Metal>
0.0000

> <Gold.Chemscore.Hbonds>
donor molecule, donor type, donor heavy atom, donor atom, acceptor molecule, acceptor atom, score
      L1  H     6    24       P1 10175  1.00
      P1  H  7989  7998       L1    16  0.99
      P1  H 11000 11005       L1     3  0.73

> <Gold.PLP.Chemscore.Internal.Correction>
0.0049

> <Gold.Rescore>
     Score         DG    S(hbond)    S(metal)    S(lipo)     H(rot)  DE(clash)    DE(int)     intcor
     14.49     -16.02       1.99        0.00      68.18       1.60       0.04       1.49       ----

> <Gold.Chemscore.Fitness>
14.4938

> <Gold.Chemscore.DG>
-16.0171

> <Gold.Chemscore.ZeroCoef>
-5.4800

> <Gold.Chemscore.Hbond>
1.9911

> <Gold.Chemscore.Metal>
0.0000

> <Gold.Chemscore.Lipo>
68.1751

> <Gold.Chemscore.Internal_Hbond>
0.0000

> <Gold.Chemscore.DEClash>
0.0371

> <Gold.Chemscore.DEInternal>
1.4863

> <Gold.Chemscore.Rot>
1.5975

> <Gold.Chemscore.Internal.Correction>
   9.000000E+99

> <Gold.Chemscore.Hbonds>
donor molecule, donor type, donor heavy atom, donor atom, acceptor molecule, acceptor atom, score
      L1  H     6    24       P1 10175  0.99
      P1  H  7989  7998       L1    16  0.51
      P1  H 11000 11005       L1     3  0.32

> <Gold.Chemscore.Hbond.Weighted>
-6.6502

> <Gold.Chemscore.Metal.Weighted>
-0.0000

> <Gold.Chemscore.Lipo.Weighted>
-7.9765

> <Gold.Chemscore.Internal_Hbond.Weighted>
0.0000

> <Gold.Chemscore.DEClash.Weighted>
0.0371

> <Gold.Chemscore.DEInternal.Weighted>
1.4863

> <Gold.Chemscore.Rot.Weighted>
4.0896

> <Gold.Chemscore.Internal.Correction.Weighted>
   9.000000E+99

> <Gold.Protein.RotatedTorsions>
[ 6907 6896 6895 6894 ] final  -80.09 input  -60.11 | X-H torsion
[ 7974 7965 7964 7962 ] final  -22.16 input  175.53 | X-H torsion
[ 8008 7997 7996 7995 ] final  -49.39 input   59.86 | X-H torsion
[ 10167 10162 10161 10158 ] final -170.12 input  -65.29 | X-H torsion
[ 10718 10713 10712 10709 ] final  151.74 input   66.30 | X-H torsion
[ 10763 10752 10751 10750 ] final  -36.61 input  -60.55 | X-H torsion
[ 11005 11000 10999 10996 ] final   70.22 input  -57.11 | X-H torsion

> <Gold.Protein.ActiveResidues>
 VAL166  LYS551  ARG553  GLY616  TRP617  ASP618  TYR619  PRO620  LYS621  CYS622 
 ASP623  PHE694  ASN695  SER759  ASP760  ASP761  ALA762  ILE779  LEU786  VAL792 
 PHE793  MET794  SER795  GLU796  ALA797  LYS798  CYS799  TRP800  GLU811  SER814 

> <Gold.Protein.RotatedAtoms>
  150.6936  134.4023  159.5124 H   0  0  0  0  0  0  0  0  0  0  0  0  # atno 6907 bound_to 6896
  152.1794  134.8764  160.0537 H   0  0  0  0  0  0  0  0  0  0  0  0  # atno 6908 bound_to 6896
  151.9760  133.3707  159.4126 H   0  0  0  0  0  0  0  0  0  0  0  0  # atno 6909 bound_to 6896
  146.1691  140.4441  142.8539 H   0  0  0  0  0  0  0  0  0  0  0  0  # atno 7974 bound_to 7965
  154.4043  140.1298  156.4495 H   0  0  0  0  0  0  0  0  0  0  0  0  # atno 8008 bound_to 7997
  155.7380  140.3490  155.5071 H   0  0  0  0  0  0  0  0  0  0  0  0  # atno 8009 bound_to 7997
  155.9065  140.1028  157.1301 H   0  0  0  0  0  0  0  0  0  0  0  0  # atno 8010 bound_to 7997
  139.5881  144.1274  152.1600 H   0  0  0  0  0  0  0  0  0  0  0  0  # atno 10167 bound_to 10162
  157.2667  131.0809  151.1628 H   0  0  0  0  0  0  0  0  0  0  0  0  # atno 10718 bound_to 10713
  153.8826  135.6820  153.4766 H   0  0  0  0  0  0  0  0  0  0  0  0  # atno 10763 bound_to 10752
  153.1225  135.4733  154.9216 H   0  0  0  0  0  0  0  0  0  0  0  0  # atno 10764 bound_to 10752
  154.7661  135.3224  154.8235 H   0  0  0  0  0  0  0  0  0  0  0  0  # atno 10765 bound_to 10752
  139.9610  134.7061  156.0646 H   0  0  0  0  0  0  0  0  0  0  0  0  # atno 11005 bound_to 11000
  144.8137  140.6430  143.6399 LP  0  0  0  0  0  0  0  0  0  0  0  0  # atno 17320 bound_to 7965
  145.4387  139.1538  143.3982 LP  0  0  0  0  0  0  0  0  0  0  0  0  # atno 17321 bound_to 7965
  140.0842  144.5675  150.7101 LP  0  0  0  0  0  0  0  0  0  0  0  0  # atno 17342 bound_to 10162
  140.7149  143.2536  151.4465 LP  0  0  0  0  0  0  0  0  0  0  0  0  # atno 17343 bound_to 10162
  157.3116  130.6892  149.6219 LP  0  0  0  0  0  0  0  0  0  0  0  0  # atno 17370 bound_to 10713
  155.9663  130.4362  150.5123 LP  0  0  0  0  0  0  0  0  0  0  0  0  # atno 17371 bound_to 10713
  141.1287  133.6592  156.3405 LP  0  0  0  0  0  0  0  0  0  0  0  0  # atno 17394 bound_to 11000
  140.5501  134.6036  157.5405 LP  0  0  0  0  0  0  0  0  0  0  0  0  # atno 17395 bound_to 11000

$$$$
