AV-unprocessed.smi:2229|AV-procd|sdf|9029|dock8
  -GOLD-   2272012233D 1   1.00000     0.00000
 Structure written by MMmdl.
 44 45  0  0  0  0  0  0  0  0  1 V2000
  151.6794  145.4969  159.2708 C   0  0  0  0  0  0  0  0  0  0  0  0
  151.4671  143.9763  159.2204 C   0  0  0  0  0  0  0  0  0  0  0  0
  152.6376  143.2477  159.9028 C   0  0  0  0  0  0  0  0  0  0  0  0
  151.2371  143.5064  157.7686 C   0  0  0  0  0  0  0  0  0  0  0  0
  150.8774  142.0155  157.6507 C   0  0  0  0  0  0  0  0  0  0  0  0
  150.8930  141.4775  156.2002 C   0  0  2  0  0  0  0  0  0  0  0  0
  149.5056  141.3811  155.5555 C   0  0  0  0  0  0  0  0  0  0  0  0
  149.7035  140.4261  154.3830 C   0  0  0  0  0  0  0  0  0  0  0  0
  150.6871  139.3771  154.9038 C   0  0  0  0  0  0  0  0  0  0  0  0
  151.5134  140.0691  156.0083 C   0  0  2  0  0  0  0  0  0  0  0  0
  151.4893  139.3039  157.2502 N   0  0  0  0  0  0  0  0  0  0  0  0
  152.5476  138.8325  157.9269 C   0  0  0  0  0  0  0  0  0  0  0  0
  153.7032  138.9388  157.5196 O   0  0  0  0  0  0  0  0  0  0  0  0
  152.2810  138.1575  159.2839 C   0  0  0  0  0  0  0  0  0  0  0  0
  153.4839  137.9173  160.0904 N   0  0  0  0  0  0  0  0  0  0  0  0
  154.0560  138.8781  160.8985 C   0  0  0  0  0  0  0  0  0  0  0  0
  155.0597  138.4145  161.5620 N   0  0  0  0  0  0  0  0  0  0  0  0
  155.1137  137.1253  161.1504 N   0  0  0  0  0  0  0  0  0  0  0  0
  154.1729  136.7927  160.2649 C   0  0  0  0  0  0  0  0  0  0  0  0
  153.9775  135.6931  159.7510 O   0  0  0  0  0  0  0  0  0  0  0  0
  155.8244  136.5155  161.5289 H   0  0  0  0  0  0  0  0  0  0  0  0
  152.5754  145.7901  158.7227 H   0  0  0  0  0  0  0  0  0  0  0  0
  151.7887  145.8453  160.2982 H   0  0  0  0  0  0  0  0  0  0  0  0
  150.8332  146.0286  158.8347 H   0  0  0  0  0  0  0  0  0  0  0  0
  150.5636  143.7586  159.7916 H   0  0  0  0  0  0  0  0  0  0  0  0
  153.5647  143.3777  159.3439 H   0  0  0  0  0  0  0  0  0  0  0  0
  152.4490  142.1786  159.9968 H   0  0  0  0  0  0  0  0  0  0  0  0
  152.8018  143.6304  160.9104 H   0  0  0  0  0  0  0  0  0  0  0  0
  150.4270  144.0970  157.3400 H   0  0  0  0  0  0  0  0  0  0  0  0
  152.1198  143.7204  157.1645 H   0  0  0  0  0  0  0  0  0  0  0  0
  151.5863  141.4352  158.2413 H   0  0  0  0  0  0  0  0  0  0  0  0
  149.8955  141.8505  158.0969 H   0  0  0  0  0  0  0  0  0  0  0  0
  151.4842  142.1661  155.5940 H   0  0  0  0  0  0  0  0  0  0  0  0
  148.7916  140.9529  156.2608 H   0  0  0  0  0  0  0  0  0  0  0  0
  149.1204  142.3497  155.2364 H   0  0  0  0  0  0  0  0  0  0  0  0
  148.7677  139.9872  154.0358 H   0  0  0  0  0  0  0  0  0  0  0  0
  150.1495  140.9638  153.5453 H   0  0  0  0  0  0  0  0  0  0  0  0
  150.1271  138.5328  155.3097 H   0  0  0  0  0  0  0  0  0  0  0  0
  151.3191  138.9863  154.1058 H   0  0  0  0  0  0  0  0  0  0  0  0
  152.5510  140.1822  155.6882 H   0  0  0  0  0  0  0  0  0  0  0  0
  150.5784  139.1569  157.6599 H   0  0  0  0  0  0  0  0  0  0  0  0
  151.5917  138.7861  159.8496 H   0  0  0  0  0  0  0  0  0  0  0  0
  151.7584  137.2154  159.1093 H   0  0  0  0  0  0  0  0  0  0  0  0
  153.6375  139.8858  160.9179 H   0  0  0  0  0  0  0  0  0  0  0  0
  1  2  1  0  0  0  0
  1 22  1  0  0  0  0
  1 23  1  0  0  0  0
  1 24  1  0  0  0  0
  2  3  1  0  0  0  0
  2  4  1  0  0  0  0
  2 25  1  0  0  0  0
  3 26  1  0  0  0  0
  3 27  1  0  0  0  0
  3 28  1  0  0  0  0
  4  5  1  0  0  0  0
  4 29  1  0  0  0  0
  4 30  1  0  0  0  0
  5  6  1  0  0  0  0
  5 31  1  0  0  0  0
  5 32  1  0  0  0  0
  6 10  1  0  0  0  0
  6  7  1  0  0  0  0
  6 33  1  0  0  0  0
  7  8  1  0  0  0  0
  7 34  1  0  0  0  0
  7 35  1  0  0  0  0
  8  9  1  0  0  0  0
  8 36  1  0  0  0  0
  8 37  1  0  0  0  0
  9 10  1  0  0  0  0
  9 38  1  0  0  0  0
  9 39  1  0  0  0  0
 10 11  1  0  0  0  0
 10 40  1  0  0  0  0
 11 12  1  0  0  0  0
 11 41  1  0  0  0  0
 12 13  2  0  0  0  0
 12 14  1  0  0  0  0
 14 15  1  0  0  0  0
 14 42  1  0  0  0  0
 14 43  1  0  0  0  0
 15 19  1  0  0  0  0
 15 16  1  0  0  0  0
 16 17  2  0  0  0  0
 16 44  1  0  0  0  0
 17 18  1  0  0  0  0
 18 21  1  0  0  0  0
 18 19  1  0  0  0  0
 19 20  2  0  0  0  0
M  END
> <s_m_source_file>
AV-unprocessed.smi

> <i_m_source_file_index>
2229

> <i_lp_mmshare_version>
43012

> <i_f3d_flags>
0

> <s_epik_input>
W0NIM11bQ0hdKFtDSDNdKVtDSDJdW0NIMl1bQ0BASF0xW0NIMl1bQ0gyXVtDSDJdW0NASF0xW05IXUMoPU8pW0NIMl1uMltjSF1uW25IXWMyPU8=

> <s_epik_cmdline>
J2VwaWtfcHl0aG9uJywgJy1waCcsICc3LjAnLCAnLXRuJywgJzgnLCAnLW1hJywgJzIwMCcsICctbWV0YWxfYmluZGluZycsICctaW1hZScsICc8aW5maWxlLm1hZT4nLCAnLW9tYWUnLCAnPG91dGZpbGUubWFlPic=

> <r_lp_tautomer_probability>
1

> <r_epik_Ionization_Penalty>
4.14174e-05

> <r_epik_Ionization_Penalty_Charging>
4.13165e-05

> <r_epik_Ionization_Penalty_Neutral>
1.00911e-07

> <r_epik_State_Penalty>
-0

> <r_epik_Charging_Adjusted_Penalty>
4.13165e-05

> <i_epik_Tot_Q>
0

> <i_epik_Tot_abs_Q>
0

> <r_epik_Metal_State_Penalty>
0.0399369

> <b_epik_Metal_Only>
0

> <s_lp_Force_Field>
OPLS_2005

> <r_lp_Energy>
36.2175

> <b_lp_Chiralities_Consistent>
1

> <s_lp_Variant>
AV-unprocessed.smi:2229-3

> <Gold.Version>
5.8.1

> <Gold.Id.Protein>
6NUR|6NUR_protein|mol2

> <Gold.PLP.Fitness>
43.9322

> <Gold.PLP.PLP>
-39.9071

> <Gold.PLP.part.hbond>
-1.8576

> <Gold.PLP.part.metal>
0.0000

> <Gold.PLP.part.buried>
-2.4574

> <Gold.PLP.part.nonpolar>
-35.3590

> <Gold.PLP.part.repulsive>
0.0581

> <Gold.PLP.ligand.clash>
0.0000

> <Gold.PLP.ligand.torsion>
1.0248

> <Gold.PLP.Chemscore.Hbond>
2.0000

> <Gold.PLP.Chemscore.CHOScore>
0.0000

> <Gold.PLP.Chemscore.Metal>
0.0000

> <Gold.Chemscore.Hbonds>
donor molecule, donor type, donor heavy atom, donor atom, acceptor molecule, acceptor atom, score
      P1  H  6896  6907       L1    20  1.00
      P1  H  7997  8008       L1    13  0.96

> <Gold.PLP.Chemscore.Internal.Correction>
0.0747

> <Gold.Rescore>
     Score         DG    S(hbond)    S(metal)    S(lipo)     H(rot)  DE(clash)    DE(int)     intcor
     15.69     -16.63       1.99        0.00      96.20       2.64       0.01       0.92       ----

> <Gold.Chemscore.Fitness>
15.6912

> <Gold.Chemscore.DG>
-16.6261

> <Gold.Chemscore.ZeroCoef>
-5.4800

> <Gold.Chemscore.Hbond>
1.9884

> <Gold.Chemscore.Metal>
0.0000

> <Gold.Chemscore.Lipo>
96.1957

> <Gold.Chemscore.Internal_Hbond>
0.0000

> <Gold.Chemscore.DEClash>
0.0115

> <Gold.Chemscore.DEInternal>
0.9234

> <Gold.Chemscore.Rot>
2.6368

> <Gold.Chemscore.Internal.Correction>
   9.000000E+99

> <Gold.Chemscore.Hbonds>
donor molecule, donor type, donor heavy atom, donor atom, acceptor molecule, acceptor atom, score
      P1  H  6896  6907       L1    20  0.97
      P1  H  7997  8008       L1    13  0.88

> <Gold.Chemscore.Hbond.Weighted>
-6.6413

> <Gold.Chemscore.Metal.Weighted>
-0.0000

> <Gold.Chemscore.Lipo.Weighted>
-11.2549

> <Gold.Chemscore.Internal_Hbond.Weighted>
0.0000

> <Gold.Chemscore.DEClash.Weighted>
0.0115

> <Gold.Chemscore.DEInternal.Weighted>
0.9234

> <Gold.Chemscore.Rot.Weighted>
6.7501

> <Gold.Chemscore.Internal.Correction.Weighted>
   9.000000E+99

> <Gold.Protein.RotatedTorsions>
[ 6907 6896 6895 6894 ] final   50.02 input  -60.11 | X-H torsion
[ 7974 7965 7964 7962 ] final  117.20 input  175.53 | X-H torsion
[ 8008 7997 7996 7995 ] final  -70.13 input   59.86 | X-H torsion
[ 10167 10162 10161 10158 ] final  -30.81 input  -65.29 | X-H torsion
[ 10718 10713 10712 10709 ] final  -83.06 input   66.30 | X-H torsion
[ 10763 10752 10751 10750 ] final   58.52 input  -60.55 | X-H torsion
[ 11005 11000 10999 10996 ] final   21.38 input  -57.11 | X-H torsion

> <Gold.Protein.ActiveResidues>
 VAL166  LYS551  ARG553  GLY616  TRP617  ASP618  TYR619  PRO620  LYS621  CYS622 
 ASP623  PHE694  ASN695  SER759  ASP760  ASP761  ALA762  ILE779  LEU786  VAL792 
 PHE793  MET794  SER795  GLU796  ALA797  LYS798  CYS799  TRP800  GLU811  SER814 

> <Gold.Protein.RotatedAtoms>
  152.2972  134.7653  160.0365 H   0  0  0  0  0  0  0  0  0  0  0  0  # atno 6907 bound_to 6896
  151.8179  133.3385  159.3583 H   0  0  0  0  0  0  0  0  0  0  0  0  # atno 6908 bound_to 6896
  150.7257  134.5531  159.5849 H   0  0  0  0  0  0  0  0  0  0  0  0  # atno 6909 bound_to 6896
  145.1702  139.3105  143.4471 H   0  0  0  0  0  0  0  0  0  0  0  0  # atno 7974 bound_to 7965
  154.4989  140.0840  156.7756 H   0  0  0  0  0  0  0  0  0  0  0  0  # atno 8008 bound_to 7997
  155.4049  140.3439  155.4241 H   0  0  0  0  0  0  0  0  0  0  0  0  # atno 8009 bound_to 7997
  156.1431  140.1535  156.8877 H   0  0  0  0  0  0  0  0  0  0  0  0  # atno 8010 bound_to 7997
  140.7244  143.3820  151.1584 H   0  0  0  0  0  0  0  0  0  0  0  0  # atno 10167 bound_to 10162
  156.0024  130.4654  150.4200 H   0  0  0  0  0  0  0  0  0  0  0  0  # atno 10718 bound_to 10713
  152.9873  135.5603  154.5566 H   0  0  0  0  0  0  0  0  0  0  0  0  # atno 10763 bound_to 10752
  154.4993  135.2796  155.1436 H   0  0  0  0  0  0  0  0  0  0  0  0  # atno 10764 bound_to 10752
  154.2873  135.6333  153.5424 H   0  0  0  0  0  0  0  0  0  0  0  0  # atno 10765 bound_to 10752
  140.3923  134.1806  155.7663 H   0  0  0  0  0  0  0  0  0  0  0  0  # atno 11005 bound_to 11000
  146.3469  140.1845  142.8589 LP  0  0  0  0  0  0  0  0  0  0  0  0  # atno 17320 bound_to 7965
  145.0240  140.8817  143.5149 LP  0  0  0  0  0  0  0  0  0  0  0  0  # atno 17321 bound_to 7965
  139.7410  143.8924  152.3050 LP  0  0  0  0  0  0  0  0  0  0  0  0  # atno 17342 bound_to 10162
  139.8746  144.7050  150.8948 LP  0  0  0  0  0  0  0  0  0  0  0  0  # atno 17343 bound_to 10162
  157.2256  131.0492  151.2521 LP  0  0  0  0  0  0  0  0  0  0  0  0  # atno 17370 bound_to 10713
  157.3759  130.7205  149.6596 LP  0  0  0  0  0  0  0  0  0  0  0  0  # atno 17371 bound_to 10713
  141.1886  133.8255  157.0987 LP  0  0  0  0  0  0  0  0  0  0  0  0  # atno 17394 bound_to 11000
  140.0398  134.9860  157.0939 LP  0  0  0  0  0  0  0  0  0  0  0  0  # atno 17395 bound_to 11000

$$$$
