AV-unprocessed.smi:1383|AV-procd|sdf|5624|dock8
  -GOLD-   22720 5243D 1   1.00000     0.00000
 Structure written by MMmdl.
 30 30  0  0  0  0  0  0  0  0  2 V2000
  151.9044  145.5699  160.3407 C   0  0  0  0  0  0  0  0  0  0  0  0
  152.3484  144.1070  160.4969 C   0  0  0  0  0  0  0  0  0  0  0  0
  152.8692  143.4590  159.1942 C   0  0  2  0  0  0  0  0  0  0  0  0
  152.0371  143.9058  157.9799 C   0  0  0  0  0  0  0  0  0  0  0  0
  152.8858  141.9208  159.2831 C   0  0  0  0  0  0  0  0  0  0  0  0
  153.9590  141.3383  159.4514 O   0  0  0  0  0  0  0  0  0  0  0  0
  151.6466  141.3876  159.1546 N   0  5  0  0  0  0  0  0  0  0  0  0
  151.2133  141.0033  157.9442 C   0  0  0  0  0  0  0  0  0  0  0  0
  151.8850  140.1441  157.1702 N   0  0  0  0  0  0  0  0  0  0  0  0
  151.2638  139.8902  155.9436 C   0  0  0  0  0  0  0  0  0  0  0  0
  151.8958  138.9428  154.9648 C   0  0  0  0  0  0  0  0  0  0  0  0
  150.9350  137.8031  154.6168 C   0  0  0  0  0  0  0  0  0  0  0  0
  149.8164  138.1235  153.9601 N   0  0  0  0  0  0  0  0  0  0  0  0
  151.2050  136.6442  154.9262 O   0  0  0  0  0  0  0  0  0  0  0  0
  150.0872  140.5769  155.7867 C   0  0  0  0  0  0  0  0  0  0  0  0
  149.7319  141.5706  157.1707 S   0  0  0  0  0  0  0  0  0  0  0  0
  151.4940  145.9507  161.2760 H   0  0  0  0  0  0  0  0  0  0  0  0
  151.1337  145.6662  159.5755 H   0  0  0  0  0  0  0  0  0  0  0  0
  152.7366  146.2163  160.0608 H   0  0  0  0  0  0  0  0  0  0  0  0
  153.1081  144.0422  161.2772 H   0  0  0  0  0  0  0  0  0  0  0  0
  151.4984  143.5300  160.8624 H   0  0  0  0  0  0  0  0  0  0  0  0
  153.8849  143.8273  159.0325 H   0  0  0  0  0  0  0  0  0  0  0  0
  152.3980  143.4427  157.0606 H   0  0  0  0  0  0  0  0  0  0  0  0
  152.0946  144.9861  157.8442 H   0  0  0  0  0  0  0  0  0  0  0  0
  150.9851  143.6426  158.0957 H   0  0  0  0  0  0  0  0  0  0  0  0
  152.1795  139.4608  154.0478 H   0  0  0  0  0  0  0  0  0  0  0  0
  152.8149  138.5262  155.3786 H   0  0  0  0  0  0  0  0  0  0  0  0
  149.1662  137.3972  153.6945 H   0  0  0  0  0  0  0  0  0  0  0  0
  149.6345  139.0854  153.7144 H   0  0  0  0  0  0  0  0  0  0  0  0
  149.4137  140.5631  154.9431 H   0  0  0  0  0  0  0  0  0  0  0  0
  1  2  1  0  0  0  0
  1 17  1  0  0  0  0
  1 18  1  0  0  0  0
  1 19  1  0  0  0  0
  2  3  1  0  0  0  0
  2 20  1  0  0  0  0
  2 21  1  0  0  0  0
  3  4  1  0  0  0  0
  3  5  1  0  0  0  0
  3 22  1  0  0  0  0
  4 23  1  0  0  0  0
  4 24  1  0  0  0  0
  4 25  1  0  0  0  0
  5  6  2  0  0  0  0
  5  7  1  0  0  0  0
  7  8  1  0  0  0  0
  8 16  1  0  0  0  0
  8  9  2  0  0  0  0
  9 10  1  0  0  0  0
 10 11  1  0  0  0  0
 10 15  2  0  0  0  0
 11 12  1  0  0  0  0
 11 26  1  0  0  0  0
 11 27  1  0  0  0  0
 12 13  1  0  0  0  0
 12 14  2  0  0  0  0
 13 28  1  0  0  0  0
 13 29  1  0  0  0  0
 15 16  1  0  0  0  0
 15 30  1  0  0  0  0
M  CHG  1   7  -1
M  END
> <s_m_source_file>
AV-unprocessed.smi

> <i_m_source_file_index>
1383

> <i_lp_mmshare_version>
43012

> <i_f3d_flags>
0

> <s_epik_input>
W0NIM11bQ0gyXVtDQEhdKFtDSDNdKUMoPU8pW05IXWMxbmMoW2NIXXMxKVtDSDJdQyg9TylbTkgyXQ==

> <s_epik_cmdline>
J2VwaWtfcHl0aG9uJywgJy1waCcsICc3LjAnLCAnLXRuJywgJzgnLCAnLW1hJywgJzIwMCcsICctbWV0YWxfYmluZGluZycsICctaW1hZScsICc8aW5maWxlLm1hZT4nLCAnLW9tYWUnLCAnPG91dGZpbGUubWFlPic=

> <r_lp_tautomer_probability>
1

> <r_epik_Ionization_Penalty>
5.3563

> <r_epik_Ionization_Penalty_Charging>
4.90463

> <r_epik_Ionization_Penalty_Neutral>
0.451677

> <r_epik_State_Penalty>
4.90447

> <r_epik_Charging_Adjusted_Penalty>
9.8091

> <i_epik_Tot_Q>
-1

> <i_epik_Tot_abs_Q>
1

> <r_epik_Metal_State_Penalty>
1.05508

> <b_epik_Metal_Only>
1

> <s_lp_Force_Field>
OPLS_2005

> <r_lp_Energy>
-0.655456

> <b_lp_Chiralities_Consistent>
1

> <s_lp_Variant>
AV-unprocessed.smi:1383-3

> <Gold.Version>
5.8.1

> <Gold.Id.Protein>
6NUR|6NUR_protein|mol2

> <Gold.PLP.Fitness>
43.5158

> <Gold.PLP.PLP>
-39.5537

> <Gold.PLP.part.hbond>
-3.8831

> <Gold.PLP.part.metal>
0.0000

> <Gold.PLP.part.buried>
-2.6572

> <Gold.PLP.part.nonpolar>
-33.1793

> <Gold.PLP.part.repulsive>
0.2344

> <Gold.PLP.ligand.clash>
0.0000

> <Gold.PLP.ligand.torsion>
1.8106

> <Gold.PLP.Chemscore.Hbond>
2.4875

> <Gold.PLP.Chemscore.CHOScore>
0.0000

> <Gold.PLP.Chemscore.Metal>
0.0000

> <Gold.Chemscore.Hbonds>
donor molecule, donor type, donor heavy atom, donor atom, acceptor molecule, acceptor atom, score
      L1  H    13    28       P1  7948  0.41
      P1  H 10752 10764       L1    14  0.93

> <Gold.PLP.Chemscore.Internal.Correction>
0.1206

> <Gold.Rescore>
     Score         DG    S(hbond)    S(metal)    S(lipo)     H(rot)  DE(clash)    DE(int)     intcor
     15.06     -17.20       2.38        0.00      79.43       2.15       0.41       1.73       ----

> <Gold.Chemscore.Fitness>
15.0558

> <Gold.Chemscore.DG>
-17.1977

> <Gold.Chemscore.ZeroCoef>
-5.4800

> <Gold.Chemscore.Hbond>
2.3763

> <Gold.Chemscore.Metal>
0.0000

> <Gold.Chemscore.Lipo>
79.4297

> <Gold.Chemscore.Internal_Hbond>
0.0000

> <Gold.Chemscore.DEClash>
0.4148

> <Gold.Chemscore.DEInternal>
1.7271

> <Gold.Chemscore.Rot>
2.1532

> <Gold.Chemscore.Internal.Correction>
   9.000000E+99

> <Gold.Chemscore.Hbonds>
donor molecule, donor type, donor heavy atom, donor atom, acceptor molecule, acceptor atom, score
      L1  H    13    28       P1  7948  0.41
      P1  H 10752 10764       L1    14  0.89

> <Gold.Chemscore.Hbond.Weighted>
-7.9367

> <Gold.Chemscore.Metal.Weighted>
-0.0000

> <Gold.Chemscore.Lipo.Weighted>
-9.2933

> <Gold.Chemscore.Internal_Hbond.Weighted>
0.0000

> <Gold.Chemscore.DEClash.Weighted>
0.4148

> <Gold.Chemscore.DEInternal.Weighted>
1.7271

> <Gold.Chemscore.Rot.Weighted>
5.5123

> <Gold.Chemscore.Internal.Correction.Weighted>
   9.000000E+99

> <Gold.Protein.RotatedTorsions>
[ 6907 6896 6895 6894 ] final -154.67 input  -60.11 | X-H torsion
[ 7974 7965 7964 7962 ] final   90.85 input  175.53 | X-H torsion
[ 8008 7997 7996 7995 ] final  -64.57 input   59.86 | X-H torsion
[ 10167 10162 10161 10158 ] final  -87.80 input  -65.29 | X-H torsion
[ 10718 10713 10712 10709 ] final -114.92 input   66.30 | X-H torsion
[ 10763 10752 10751 10750 ] final  -54.60 input  -60.55 | X-H torsion
[ 11005 11000 10999 10996 ] final   75.29 input  -57.11 | X-H torsion

> <Gold.Protein.ActiveResidues>
 VAL166  LYS551  ARG553  GLY616  TRP617  ASP618  TYR619  PRO620  LYS621  CYS622 
 ASP623  PHE694  ASN695  SER759  ASP760  ASP761  ALA762  ILE779  LEU786  VAL792 
 PHE793  MET794  SER795  GLU796  ALA797  LYS798  CYS799  TRP800  GLU811  SER814 

> <Gold.Protein.RotatedAtoms>
  151.2609  133.4302  159.2615 H   0  0  0  0  0  0  0  0  0  0  0  0  # atno 6907 bound_to 6896
  151.0531  134.9687  159.8232 H   0  0  0  0  0  0  0  0  0  0  0  0  # atno 6908 bound_to 6896
  152.5386  134.2563  159.8971 H   0  0  0  0  0  0  0  0  0  0  0  0  # atno 6909 bound_to 6896
  145.5135  139.2277  143.2711 H   0  0  0  0  0  0  0  0  0  0  0  0  # atno 7974 bound_to 7965
  154.4620  140.0951  156.6918 H   0  0  0  0  0  0  0  0  0  0  0  0  # atno 8008 bound_to 7997
  155.4968  140.3472  155.4346 H   0  0  0  0  0  0  0  0  0  0  0  0  # atno 8009 bound_to 7997
  156.0887  140.1391  156.9609 H   0  0  0  0  0  0  0  0  0  0  0  0  # atno 8010 bound_to 7997
  140.3809  143.2749  151.9385 H   0  0  0  0  0  0  0  0  0  0  0  0  # atno 10167 bound_to 10162
  156.0861  130.6053  150.8838 H   0  0  0  0  0  0  0  0  0  0  0  0  # atno 10718 bound_to 10713
  154.1775  135.6449  153.5025 H   0  0  0  0  0  0  0  0  0  0  0  0  # atno 10763 bound_to 10752
  153.0068  135.5398  154.6549 H   0  0  0  0  0  0  0  0  0  0  0  0  # atno 10764 bound_to 10752
  154.5904  135.2933  155.0613 H   0  0  0  0  0  0  0  0  0  0  0  0  # atno 10765 bound_to 10752
  139.9350  134.7505  156.1253 H   0  0  0  0  0  0  0  0  0  0  0  0  # atno 11005 bound_to 11000
  146.2151  140.5943  142.9042 LP  0  0  0  0  0  0  0  0  0  0  0  0  # atno 17320 bound_to 7965
  144.7714  140.5646  143.6667 LP  0  0  0  0  0  0  0  0  0  0  0  0  # atno 17321 bound_to 7965
  139.4795  144.5819  151.7918 LP  0  0  0  0  0  0  0  0  0  0  0  0  # atno 17342 bound_to 10162
  140.4938  144.1270  150.5956 LP  0  0  0  0  0  0  0  0  0  0  0  0  # atno 17343 bound_to 10162
  157.5996  131.0942  150.8983 LP  0  0  0  0  0  0  0  0  0  0  0  0  # atno 17370 bound_to 10713
  156.9142  130.5292  149.5280 LP  0  0  0  0  0  0  0  0  0  0  0  0  # atno 17371 bound_to 10713
  141.0960  133.6695  156.2645 LP  0  0  0  0  0  0  0  0  0  0  0  0  # atno 17394 bound_to 11000
  140.6099  134.5469  157.5532 LP  0  0  0  0  0  0  0  0  0  0  0  0  # atno 17395 bound_to 11000

$$$$
