AV-unprocessed.smi:1361|AV-procd|sdf|5555|dock4
  -GOLD-   22720 5143D 1   1.00000     0.00000
 Structure written by MMmdl.
 46 47  0  0  0  0  0  0  0  0  1 V2000
  146.3759  138.0796  152.2799 C   0  0  0  0  0  0  0  0  0  0  0  0
  146.6747  138.9783  153.4614 C   0  0  0  0  0  0  0  0  0  0  0  0
  146.0168  138.9502  154.5733 N   0  0  0  0  0  0  0  0  0  0  0  0
  146.3905  139.8282  155.6003 C   0  0  0  0  0  0  0  0  0  0  0  0
  145.5698  139.7305  156.8749 C   0  0  0  0  0  0  0  0  0  0  0  0
  147.4264  140.7055  155.4507 C   0  0  0  0  0  0  0  0  0  0  0  0
  147.8623  141.6696  156.5523 C   0  0  0  0  0  0  0  0  0  0  0  0
  149.3224  141.5439  156.9899 C   0  0  0  0  0  0  0  0  0  0  0  0
  149.8611  140.4378  157.0217 O   0  0  0  0  0  0  0  0  0  0  0  0
  149.9494  142.6844  157.3182 N   0  0  0  0  0  0  0  0  0  0  0  0
  151.3396  142.8001  157.7530 C   0  0  0  0  0  0  0  0  0  0  0  0
  151.5243  142.0736  159.1041 C   0  0  0  0  0  0  0  0  0  0  0  0
  152.8769  142.3296  159.7942 C   0  0  0  0  0  0  0  0  0  0  0  0
  152.7823  143.1069  161.1205 C   0  0  0  0  0  0  0  0  0  0  0  0
  151.8443  144.3316  161.1550 C   0  0  0  0  0  0  0  0  0  0  0  0
  152.0564  145.3863  160.0548 C   0  0  0  0  0  0  0  0  0  0  0  0
  151.1832  145.2107  158.7930 C   0  0  0  0  0  0  0  0  0  0  0  0
  151.7716  144.2850  157.7112 C   0  0  0  0  0  0  0  0  0  0  0  0
  148.1671  140.7327  154.1742 C   0  0  0  0  0  0  0  0  0  0  0  0
  149.1081  141.4856  153.9286 O   0  0  0  0  0  0  0  0  0  0  0  0
  147.7390  139.8510  153.2429 N   0  0  0  0  0  0  0  0  0  0  0  0
  148.2144  139.8309  152.3525 H   0  0  0  0  0  0  0  0  0  0  0  0
  145.3561  138.2449  151.9317 H   0  0  0  0  0  0  0  0  0  0  0  0
  146.4740  137.0334  152.5702 H   0  0  0  0  0  0  0  0  0  0  0  0
  147.0559  138.2676  151.4479 H   0  0  0  0  0  0  0  0  0  0  0  0
  146.2054  139.4867  157.7260 H   0  0  0  0  0  0  0  0  0  0  0  0
  144.8092  138.9528  156.7965 H   0  0  0  0  0  0  0  0  0  0  0  0
  145.0606  140.6726  157.0769 H   0  0  0  0  0  0  0  0  0  0  0  0
  147.6705  142.6901  156.2195 H   0  0  0  0  0  0  0  0  0  0  0  0
  147.2346  141.5507  157.4361 H   0  0  0  0  0  0  0  0  0  0  0  0
  149.4233  143.5441  157.2575 H   0  0  0  0  0  0  0  0  0  0  0  0
  151.9664  142.2894  157.0193 H   0  0  0  0  0  0  0  0  0  0  0  0
  150.6978  142.3057  159.7743 H   0  0  0  0  0  0  0  0  0  0  0  0
  151.4312  141.0013  158.9251 H   0  0  0  0  0  0  0  0  0  0  0  0
  153.3488  141.3690  160.0043 H   0  0  0  0  0  0  0  0  0  0  0  0
  153.5730  142.8288  159.1220 H   0  0  0  0  0  0  0  0  0  0  0  0
  152.4575  142.4181  161.9013 H   0  0  0  0  0  0  0  0  0  0  0  0
  153.7868  143.4191  161.4077 H   0  0  0  0  0  0  0  0  0  0  0  0
  150.7995  144.0225  161.1778 H   0  0  0  0  0  0  0  0  0  0  0  0
  152.0037  144.8189  162.1176 H   0  0  0  0  0  0  0  0  0  0  0  0
  151.7864  146.3502  160.4883 H   0  0  0  0  0  0  0  0  0  0  0  0
  153.1125  145.4762  159.7987 H   0  0  0  0  0  0  0  0  0  0  0  0
  150.1650  144.9201  159.0532 H   0  0  0  0  0  0  0  0  0  0  0  0
  151.0886  146.1988  158.3409 H   0  0  0  0  0  0  0  0  0  0  0  0
  152.8579  144.3693  157.7082 H   0  0  0  0  0  0  0  0  0  0  0  0
  151.4761  144.6797  156.7378 H   0  0  0  0  0  0  0  0  0  0  0  0
  1  2  1  0  0  0  0
  1 23  1  0  0  0  0
  1 24  1  0  0  0  0
  1 25  1  0  0  0  0
  2 21  1  0  0  0  0
  2  3  2  0  0  0  0
  3  4  1  0  0  0  0
  4  5  1  0  0  0  0
  4  6  2  0  0  0  0
  5 26  1  0  0  0  0
  5 27  1  0  0  0  0
  5 28  1  0  0  0  0
  6  7  1  0  0  0  0
  6 19  1  0  0  0  0
  7  8  1  0  0  0  0
  7 29  1  0  0  0  0
  7 30  1  0  0  0  0
  8  9  2  0  0  0  0
  8 10  1  0  0  0  0
 10 11  1  0  0  0  0
 10 31  1  0  0  0  0
 11 18  1  0  0  0  0
 11 12  1  0  0  0  0
 11 32  1  0  0  0  0
 12 13  1  0  0  0  0
 12 33  1  0  0  0  0
 12 34  1  0  0  0  0
 13 14  1  0  0  0  0
 13 35  1  0  0  0  0
 13 36  1  0  0  0  0
 14 15  1  0  0  0  0
 14 37  1  0  0  0  0
 14 38  1  0  0  0  0
 15 16  1  0  0  0  0
 15 39  1  0  0  0  0
 15 40  1  0  0  0  0
 16 17  1  0  0  0  0
 16 41  1  0  0  0  0
 16 42  1  0  0  0  0
 17 18  1  0  0  0  0
 17 43  1  0  0  0  0
 17 44  1  0  0  0  0
 18 45  1  0  0  0  0
 18 46  1  0  0  0  0
 19 20  2  0  0  0  0
 19 21  1  0  0  0  0
 21 22  1  0  0  0  0
M  END
> <s_m_source_file>
AV-unprocessed.smi

> <i_m_source_file_index>
1361

> <i_lp_mmshare_version>
43012

> <i_f3d_flags>
0

> <s_epik_input>
W0NIM11jMW5jKFtDSDNdKWMoYyg9TylbbkhdMSlbQ0gyXUMoPU8pW05IXVtDSF0yW0NIMl1bQ0gyXVtDSDJdW0NIMl1bQ0gyXVtDSDJdW0NIMl0y

> <s_epik_cmdline>
J2VwaWtfcHl0aG9uJywgJy1waCcsICc3LjAnLCAnLXRuJywgJzgnLCAnLW1hJywgJzIwMCcsICctbWV0YWxfYmluZGluZycsICctaW1hZScsICc8aW5maWxlLm1hZT4nLCAnLW9tYWUnLCAnPG91dGZpbGUubWFlPic=

> <r_lp_tautomer_probability>
0.839158

> <r_epik_Ionization_Penalty>
0.000386947

> <r_epik_Ionization_Penalty_Charging>
0.000354181

> <r_epik_Ionization_Penalty_Neutral>
3.27662e-05

> <r_epik_State_Penalty>
0.0469431

> <r_epik_Charging_Adjusted_Penalty>
0.0472973

> <i_epik_Tot_Q>
0

> <i_epik_Tot_abs_Q>
0

> <r_epik_Metal_State_Penalty>
0.222645

> <b_epik_Metal_Only>
0

> <s_lp_Force_Field>
OPLS_2005

> <r_lp_Energy>
23.3957

> <b_lp_Chiralities_Consistent>
1

> <s_lp_Variant>
AV-unprocessed.smi:1361-1

> <Gold.Version>
5.8.1

> <Gold.Id.Protein>
6NUR|6NUR_protein|mol2

> <Gold.PLP.Fitness>
51.7189

> <Gold.PLP.PLP>
-45.8096

> <Gold.PLP.part.hbond>
-3.9446

> <Gold.PLP.part.metal>
0.0000

> <Gold.PLP.part.buried>
-5.0399

> <Gold.PLP.part.nonpolar>
-37.2770

> <Gold.PLP.part.repulsive>
0.4715

> <Gold.PLP.ligand.clash>
0.0000

> <Gold.PLP.ligand.torsion>
0.4390

> <Gold.PLP.Chemscore.Hbond>
2.2484

> <Gold.PLP.Chemscore.CHOScore>
0.0000

> <Gold.PLP.Chemscore.Metal>
0.0000

> <Gold.Chemscore.Hbonds>
donor molecule, donor type, donor heavy atom, donor atom, acceptor molecule, acceptor atom, score
      L1  H    10    31       P1  8028  0.64
      L1  H    21    22       P1  7957  1.00
      P1  H  8011  8017       L1    20  0.72

> <Gold.PLP.Chemscore.Internal.Correction>
0.0419

> <Gold.Rescore>
     Score         DG    S(hbond)    S(metal)    S(lipo)     H(rot)  DE(clash)    DE(int)     intcor
     20.52     -23.69       2.75        0.00     109.33       1.47       1.51       1.66       ----

> <Gold.Chemscore.Fitness>
20.5244

> <Gold.Chemscore.DG>
-23.6934

> <Gold.Chemscore.ZeroCoef>
-5.4800

> <Gold.Chemscore.Hbond>
2.7492

> <Gold.Chemscore.Metal>
0.0000

> <Gold.Chemscore.Lipo>
109.3303

> <Gold.Chemscore.Internal_Hbond>
0.0000

> <Gold.Chemscore.DEClash>
1.5056

> <Gold.Chemscore.DEInternal>
1.6634

> <Gold.Chemscore.Rot>
1.4690

> <Gold.Chemscore.Internal.Correction>
   9.000000E+99

> <Gold.Chemscore.Hbonds>
donor molecule, donor type, donor heavy atom, donor atom, acceptor molecule, acceptor atom, score
      L1  H    10    31       P1  8028  0.45
      L1  H    21    22       P1  7957  0.99
      P1  H  8011  8017       L1    20  0.71

> <Gold.Chemscore.Hbond.Weighted>
-9.1824

> <Gold.Chemscore.Metal.Weighted>
-0.0000

> <Gold.Chemscore.Lipo.Weighted>
-12.7916

> <Gold.Chemscore.Internal_Hbond.Weighted>
0.0000

> <Gold.Chemscore.DEClash.Weighted>
1.5056

> <Gold.Chemscore.DEInternal.Weighted>
1.6634

> <Gold.Chemscore.Rot.Weighted>
3.7607

> <Gold.Chemscore.Internal.Correction.Weighted>
   9.000000E+99

> <Gold.Protein.RotatedTorsions>
[ 6907 6896 6895 6894 ] final   39.36 input  -60.11 | X-H torsion
[ 7974 7965 7964 7962 ] final -147.97 input  175.53 | X-H torsion
[ 8008 7997 7996 7995 ] final -157.48 input   59.86 | X-H torsion
[ 10167 10162 10161 10158 ] final   61.38 input  -65.29 | X-H torsion
[ 10718 10713 10712 10709 ] final  129.82 input   66.30 | X-H torsion
[ 10763 10752 10751 10750 ] final -109.32 input  -60.55 | X-H torsion
[ 11005 11000 10999 10996 ] final  157.82 input  -57.11 | X-H torsion

> <Gold.Protein.ActiveResidues>
 VAL166  LYS551  ARG553  GLY616  TRP617  ASP618  TYR619  PRO620  LYS621  CYS622 
 ASP623  PHE694  ASN695  SER759  ASP760  ASP761  ALA762  ILE779  LEU786  VAL792 
 PHE793  MET794  SER795  GLU796  ALA797  LYS798  CYS799  TRP800  GLU811  SER814 

> <Gold.Protein.RotatedAtoms>
  152.1686  134.8853  160.0535 H   0  0  0  0  0  0  0  0  0  0  0  0  # atno 6907 bound_to 6896
  151.9822  133.3756  159.4120 H   0  0  0  0  0  0  0  0  0  0  0  0  # atno 6908 bound_to 6896
  150.6898  134.3949  159.5137 H   0  0  0  0  0  0  0  0  0  0  0  0  # atno 6909 bound_to 6896
  144.8059  140.5258  143.5675 H   0  0  0  0  0  0  0  0  0  0  0  0  # atno 7974 bound_to 7965
  155.7331  140.0804  157.2280 H   0  0  0  0  0  0  0  0  0  0  0  0  # atno 8008 bound_to 7997
  154.4030  140.1591  156.2586 H   0  0  0  0  0  0  0  0  0  0  0  0  # atno 8009 bound_to 7997
  155.9091  140.3405  155.6087 H   0  0  0  0  0  0  0  0  0  0  0  0  # atno 8010 bound_to 7997
  140.1554  144.4422  150.6737 H   0  0  0  0  0  0  0  0  0  0  0  0  # atno 10167 bound_to 10162
  157.5119  131.1097  150.9280 H   0  0  0  0  0  0  0  0  0  0  0  0  # atno 10718 bound_to 10713
  154.8186  135.4605  154.0715 H   0  0  0  0  0  0  0  0  0  0  0  0  # atno 10763 bound_to 10752
  153.2087  135.6879  153.8147 H   0  0  0  0  0  0  0  0  0  0  0  0  # atno 10764 bound_to 10752
  153.7606  135.3284  155.3313 H   0  0  0  0  0  0  0  0  0  0  0  0  # atno 10765 bound_to 10752
  140.1806  134.8478  157.2798 H   0  0  0  0  0  0  0  0  0  0  0  0  # atno 11005 bound_to 11000
  145.5439  139.1475  143.3432 LP  0  0  0  0  0  0  0  0  0  0  0  0  # atno 17320 bound_to 7965
  146.2350  140.5578  142.8958 LP  0  0  0  0  0  0  0  0  0  0  0  0  # atno 17321 bound_to 7965
  140.6677  143.2274  151.5703 LP  0  0  0  0  0  0  0  0  0  0  0  0  # atno 17342 bound_to 10162
  139.5406  144.2658  152.1343 LP  0  0  0  0  0  0  0  0  0  0  0  0  # atno 17343 bound_to 10162
  156.9917  130.5566  149.5304 LP  0  0  0  0  0  0  0  0  0  0  0  0  # atno 17370 bound_to 10713
  156.0295  130.5387  150.8496 LP  0  0  0  0  0  0  0  0  0  0  0  0  # atno 17371 bound_to 10713
  140.2272  134.3953  155.7538 LP  0  0  0  0  0  0  0  0  0  0  0  0  # atno 17394 bound_to 11000
  141.2223  133.7196  156.8583 LP  0  0  0  0  0  0  0  0  0  0  0  0  # atno 17395 bound_to 11000

$$$$
