AV-unprocessed.smi:3276|AV-procd|sdf|12535|dock7
  -GOLD-   2272018453D 1   1.00000     0.00000
 Structure written by MMmdl.
 39 40  0  0  0  0  0  0  0  0  1 V2000
  147.2057  141.4100  154.0096 C   0  0  0  0  0  0  0  0  0  0  0  0
  148.4603  140.6202  154.3157 C   0  0  0  0  0  0  0  0  0  0  0  0
  149.6649  141.2576  154.6811 C   0  0  0  0  0  0  0  0  0  0  0  0
  150.7847  140.5524  154.9505 N   0  0  0  0  0  0  0  0  0  0  0  0
  150.6967  139.2056  154.8524 C   0  0  0  0  0  0  0  0  0  0  0  0
  151.9665  138.4291  155.1521 C   0  0  0  0  0  0  0  0  0  0  0  0
  149.4895  138.5587  154.4838 C   0  0  0  0  0  0  0  0  0  0  0  0
  149.4364  137.1587  154.3929 N   0  0  0  0  0  0  0  0  0  0  0  0
  149.8647  136.3180  155.5049 C   0  0  0  0  0  0  0  0  0  0  0  0
  149.8030  137.0547  156.8507 C   0  0  0  0  0  0  0  0  0  0  0  0
  149.2007  136.2022  157.8094 O   0  0  0  0  0  0  0  0  0  0  0  0
  149.1569  136.7726  159.1071 C   0  0  0  0  0  0  0  0  0  0  0  0
  147.8632  136.3457  159.8144 C   0  0  1  0  0  0  0  0  0  0  0  0
  147.7970  134.8686  160.2136 C   0  0  0  0  0  0  0  0  0  0  0  0
  146.8956  134.9196  161.4265 C   0  0  0  0  0  0  0  0  0  0  0  0
  147.3444  136.2202  162.0845 C   0  0  0  0  0  0  0  0  0  0  0  0
  147.6644  137.0974  161.0098 O   0  0  0  0  0  0  0  0  0  0  0  0
  148.3701  139.2757  154.2175 N   0  0  0  0  0  0  0  0  0  0  0  0
  147.3256  142.4587  154.2827 H   0  0  0  0  0  0  0  0  0  0  0  0
  146.3572  141.0093  154.5652 H   0  0  0  0  0  0  0  0  0  0  0  0
  146.9769  141.3574  152.9449 H   0  0  0  0  0  0  0  0  0  0  0  0
  149.7331  142.3329  154.7576 H   0  0  0  0  0  0  0  0  0  0  0  0
  152.2636  137.8400  154.2839 H   0  0  0  0  0  0  0  0  0  0  0  0
  151.8076  137.7518  155.9916 H   0  0  0  0  0  0  0  0  0  0  0  0
  152.7920  139.0951  155.4068 H   0  0  0  0  0  0  0  0  0  0  0  0
  148.8093  136.7492  153.7157 H   0  0  0  0  0  0  0  0  0  0  0  0
  149.2216  135.4384  155.5384 H   0  0  0  0  0  0  0  0  0  0  0  0
  150.8744  135.9492  155.3218 H   0  0  0  0  0  0  0  0  0  0  0  0
  150.8129  137.3091  157.1752 H   0  0  0  0  0  0  0  0  0  0  0  0
  149.2464  137.9888  156.7595 H   0  0  0  0  0  0  0  0  0  0  0  0
  150.0247  136.4559  159.6874 H   0  0  0  0  0  0  0  0  0  0  0  0
  149.1902  137.8607  159.0346 H   0  0  0  0  0  0  0  0  0  0  0  0
  147.0150  136.5684  159.1656 H   0  0  0  0  0  0  0  0  0  0  0  0
  147.4102  134.2304  159.4187 H   0  0  0  0  0  0  0  0  0  0  0  0
  148.7784  134.4912  160.5038 H   0  0  0  0  0  0  0  0  0  0  0  0
  145.8518  134.9931  161.1179 H   0  0  0  0  0  0  0  0  0  0  0  0
  147.0027  134.0522  162.0785 H   0  0  0  0  0  0  0  0  0  0  0  0
  146.5824  136.6472  162.7370 H   0  0  0  0  0  0  0  0  0  0  0  0
  148.2450  136.0532  162.6767 H   0  0  0  0  0  0  0  0  0  0  0  0
  1  2  1  0  0  0  0
  1 19  1  0  0  0  0
  1 20  1  0  0  0  0
  1 21  1  0  0  0  0
  2 18  1  0  0  0  0
  2  3  2  0  0  0  0
  3  4  1  0  0  0  0
  3 22  1  0  0  0  0
  4  5  2  0  0  0  0
  5  6  1  0  0  0  0
  5  7  1  0  0  0  0
  6 23  1  0  0  0  0
  6 24  1  0  0  0  0
  6 25  1  0  0  0  0
  7  8  1  0  0  0  0
  7 18  2  0  0  0  0
  8  9  1  0  0  0  0
  8 26  1  0  0  0  0
  9 10  1  0  0  0  0
  9 27  1  0  0  0  0
  9 28  1  0  0  0  0
 10 11  1  0  0  0  0
 10 29  1  0  0  0  0
 10 30  1  0  0  0  0
 11 12  1  0  0  0  0
 12 13  1  0  0  0  0
 12 31  1  0  0  0  0
 12 32  1  0  0  0  0
 13 17  1  0  0  0  0
 13 14  1  0  0  0  0
 13 33  1  0  0  0  0
 14 15  1  0  0  0  0
 14 34  1  0  0  0  0
 14 35  1  0  0  0  0
 15 16  1  0  0  0  0
 15 36  1  0  0  0  0
 15 37  1  0  0  0  0
 16 17  1  0  0  0  0
 16 38  1  0  0  0  0
 16 39  1  0  0  0  0
M  END
> <s_m_source_file>
AV-unprocessed.smi

> <i_m_source_file_index>
3276

> <i_lp_mmshare_version>
43012

> <i_f3d_flags>
0

> <s_epik_input>
W0NIM11jMVtjSF1uYyhbQ0gzXSljKG4xKVtOSF1bQ0gyXVtDSDJdT1tDSDJdW0NAQEhdMltDSDJdW0NIMl1bQ0gyXU8y

> <s_epik_cmdline>
J2VwaWtfcHl0aG9uJywgJy1waCcsICc3LjAnLCAnLXRuJywgJzgnLCAnLW1hJywgJzIwMCcsICctbWV0YWxfYmluZGluZycsICctaW1hZScsICc8aW5maWxlLm1hZT4nLCAnLW9tYWUnLCAnPG91dGZpbGUubWFlPic=

> <r_lp_tautomer_probability>
1

> <r_epik_Ionization_Penalty>
0.000506

> <r_epik_Ionization_Penalty_Charging>
0

> <r_epik_Ionization_Penalty_Neutral>
0.000506

> <r_epik_State_Penalty>
-0

> <r_epik_Charging_Adjusted_Penalty>
0

> <i_epik_Tot_Q>
0

> <i_epik_Tot_abs_Q>
0

> <r_epik_Metal_State_Penalty>
-0

> <b_epik_Metal_Only>
0

> <s_lp_Force_Field>
OPLS_2005

> <r_lp_Energy>
26.2022

> <b_lp_Chiralities_Consistent>
1

> <s_lp_Variant>
AV-unprocessed.smi:3276-2

> <Gold.Version>
5.8.1

> <Gold.Id.Protein>
6NUR|6NUR_protein|mol2

> <Gold.PLP.Fitness>
43.2835

> <Gold.PLP.PLP>
-33.0796

> <Gold.PLP.part.hbond>
-4.0000

> <Gold.PLP.part.metal>
0.0000

> <Gold.PLP.part.buried>
-4.0180

> <Gold.PLP.part.nonpolar>
-25.6399

> <Gold.PLP.part.repulsive>
0.2264

> <Gold.PLP.ligand.clash>
0.0048

> <Gold.PLP.ligand.torsion>
1.2675

> <Gold.PLP.Chemscore.Hbond>
3.2464

> <Gold.PLP.Chemscore.CHOScore>
0.9824

> <Gold.PLP.Chemscore.Metal>
0.0000

> <Gold.Chemscore.Hbonds>
donor molecule, donor type, donor heavy atom, donor atom, acceptor molecule, acceptor atom, score
      L1  H     8    26       P1  7948  0.67
      P1  H  6931  6943       L1    17  0.93
      P1  H  6934  6947       L1    17  0.91
      P1  H  7989  7998       L1     4  0.90
      L1  C     3    22       P1  8028  0.63

> <Gold.PLP.Chemscore.Internal.Correction>
0.0573

> <Gold.Rescore>
     Score         DG    S(hbond)    S(metal)    S(lipo)     H(rot)  DE(clash)    DE(int)     intcor
     14.65     -16.92       2.14        0.00      73.44       1.68       0.00       2.27       ----

> <Gold.Chemscore.Fitness>
14.6475

> <Gold.Chemscore.DG>
-16.9217

> <Gold.Chemscore.ZeroCoef>
-5.4800

> <Gold.Chemscore.Hbond>
2.1421

> <Gold.Chemscore.Metal>
0.0000

> <Gold.Chemscore.Lipo>
73.4427

> <Gold.Chemscore.Internal_Hbond>
0.0000

> <Gold.Chemscore.DEClash>
0.0015

> <Gold.Chemscore.DEInternal>
2.2727

> <Gold.Chemscore.Rot>
1.6820

> <Gold.Chemscore.Internal.Correction>
   9.000000E+99

> <Gold.Chemscore.Hbonds>
donor molecule, donor type, donor heavy atom, donor atom, acceptor molecule, acceptor atom, score
      L1  H     8    26       P1  7948  0.68
      P1  H  6931  6943       L1    17  0.22
      P1  H  6934  6947       L1    17  0.86
      P1  H  7989  7998       L1     4  0.04

> <Gold.Chemscore.Hbond.Weighted>
-7.1547

> <Gold.Chemscore.Metal.Weighted>
-0.0000

> <Gold.Chemscore.Lipo.Weighted>
-8.5928

> <Gold.Chemscore.Internal_Hbond.Weighted>
0.0000

> <Gold.Chemscore.DEClash.Weighted>
0.0015

> <Gold.Chemscore.DEInternal.Weighted>
2.2727

> <Gold.Chemscore.Rot.Weighted>
4.3058

> <Gold.Chemscore.Internal.Correction.Weighted>
   9.000000E+99

> <Gold.Protein.RotatedTorsions>
[ 6907 6896 6895 6894 ] final   99.03 input  -60.11 | X-H torsion
[ 7974 7965 7964 7962 ] final   -0.22 input  175.53 | X-H torsion
[ 8008 7997 7996 7995 ] final  168.61 input   59.86 | X-H torsion
[ 10167 10162 10161 10158 ] final   44.34 input  -65.29 | X-H torsion
[ 10718 10713 10712 10709 ] final  -48.54 input   66.30 | X-H torsion
[ 10763 10752 10751 10750 ] final  136.09 input  -60.55 | X-H torsion
[ 11005 11000 10999 10996 ] final  151.69 input  -57.11 | X-H torsion

> <Gold.Protein.ActiveResidues>
 VAL166  LYS551  ARG553  GLY616  TRP617  ASP618  TYR619  PRO620  LYS621  CYS622 
 ASP623  PHE694  ASN695  SER759  ASP760  ASP761  ALA762  ILE779  LEU786  VAL792 
 PHE793  MET794  SER795  GLU796  ALA797  LYS798  CYS799  TRP800  GLU811  SER814 

> <Gold.Protein.RotatedAtoms>
  152.5399  134.0490  159.8101 H   0  0  0  0  0  0  0  0  0  0  0  0  # atno 6907 bound_to 6896
  151.0634  133.5517  159.2640 H   0  0  0  0  0  0  0  0  0  0  0  0  # atno 6908 bound_to 6896
  151.2407  135.0596  159.9078 H   0  0  0  0  0  0  0  0  0  0  0  0  # atno 6909 bound_to 6896
  146.2429  140.1236  142.8340 H   0  0  0  0  0  0  0  0  0  0  0  0  # atno 7974 bound_to 7965
  156.1531  140.1586  156.8737 H   0  0  0  0  0  0  0  0  0  0  0  0  # atno 8008 bound_to 7997
  154.5090  140.0806  156.7988 H   0  0  0  0  0  0  0  0  0  0  0  0  # atno 8009 bound_to 7997
  155.3856  140.3407  155.4251 H   0  0  0  0  0  0  0  0  0  0  0  0  # atno 8010 bound_to 7997
  140.3353  144.2538  150.6162 H   0  0  0  0  0  0  0  0  0  0  0  0  # atno 10167 bound_to 10162
  156.1978  130.4155  149.9283 H   0  0  0  0  0  0  0  0  0  0  0  0  # atno 10718 bound_to 10713
  153.8508  135.3079  155.3432 H   0  0  0  0  0  0  0  0  0  0  0  0  # atno 10763 bound_to 10752
  154.7892  135.4792  154.0017 H   0  0  0  0  0  0  0  0  0  0  0  0  # atno 10764 bound_to 10752
  153.1519  135.6845  153.8962 H   0  0  0  0  0  0  0  0  0  0  0  0  # atno 10765 bound_to 10752
  140.1241  134.8845  157.2113 H   0  0  0  0  0  0  0  0  0  0  0  0  # atno 11005 bound_to 11000
  145.0385  140.8927  143.5066 LP  0  0  0  0  0  0  0  0  0  0  0  0  # atno 17320 bound_to 7965
  145.1313  139.2630  143.5538 LP  0  0  0  0  0  0  0  0  0  0  0  0  # atno 17321 bound_to 7965
  140.5360  143.2233  151.8163 LP  0  0  0  0  0  0  0  0  0  0  0  0  # atno 17342 bound_to 10162
  139.4849  144.4661  151.9482 LP  0  0  0  0  0  0  0  0  0  0  0  0  # atno 17343 bound_to 10162
  156.7002  130.8930  151.3598 LP  0  0  0  0  0  0  0  0  0  0  0  0  # atno 17370 bound_to 10713
  157.6968  130.9290  150.0667 LP  0  0  0  0  0  0  0  0  0  0  0  0  # atno 17371 bound_to 10713
  140.2927  134.3222  155.7311 LP  0  0  0  0  0  0  0  0  0  0  0  0  # atno 17394 bound_to 11000
  141.2157  133.7544  156.9526 LP  0  0  0  0  0  0  0  0  0  0  0  0  # atno 17395 bound_to 11000

$$$$
