AV-unprocessed.smi:2973|AV-procd|sdf|11347|dock9
  -GOLD-   2272016263D 1   1.00000     0.00000
 Structure written by MMmdl.
 48 50  0  0  0  0  0  0  0  0  2 V2000
  147.7001  133.9816  162.5009 C   0  0  0  0  0  0  0  0  0  0  0  0
  146.4047  134.4508  161.8017 C   0  0  2  0  0  0  0  0  0  0  0  0
  145.3322  133.3403  161.8272 C   0  0  0  0  0  0  0  0  0  0  0  0
  143.9968  133.8221  161.2408 C   0  0  0  0  0  0  0  0  0  0  0  0
  144.1784  134.3494  159.8118 C   0  0  0  0  0  0  0  0  0  0  0  0
  145.2378  135.4642  159.7595 C   0  0  0  0  0  0  0  0  0  0  0  0
  146.5991  135.0253  160.3597 C   0  0  2  0  0  0  0  0  0  0  0  0
  147.2509  134.0694  159.4781 N   0  5  0  0  0  0  0  0  0  0  0  0
  148.4051  134.6070  159.0209 C   0  0  0  0  0  0  0  0  0  0  0  0
  149.2152  134.0748  158.2633 O   0  0  0  0  0  0  0  0  0  0  0  0
  148.5934  135.8436  159.5205 N   0  0  0  0  0  0  0  0  0  0  0  0
  149.7664  136.6932  159.2602 C   0  0  0  0  0  0  0  0  0  0  0  0
  150.3211  136.6135  157.8268 C   0  0  0  0  0  0  0  0  0  0  0  0
  151.4021  136.0569  157.6358 O   0  0  0  0  0  0  0  0  0  0  0  0
  149.6018  137.1611  156.8322 N   0  0  0  0  0  0  0  0  0  0  0  0
  149.9927  137.2013  155.4289 C   0  0  0  0  0  0  0  0  0  0  0  0
  151.2548  138.0554  155.2210 C   0  0  0  0  0  0  0  0  0  0  0  0
  151.1184  139.4420  155.8205 C   0  0  0  0  0  0  0  0  0  0  0  0
  151.6834  139.7407  157.0790 C   0  0  0  0  0  0  0  0  0  0  0  0
  151.5323  141.0443  157.5903 C   0  0  0  0  0  0  0  0  0  0  0  0
  150.8259  141.9941  156.8275 C   0  0  0  0  0  0  0  0  0  0  0  0
  150.3015  141.5969  155.5811 C   0  0  0  0  0  0  0  0  0  0  0  0
  150.4426  140.3504  155.0811 N   0  0  0  0  0  0  0  0  0  0  0  0
  147.5823  136.1865  160.3263 C   0  0  0  0  0  0  0  0  0  0  0  0
  147.4470  137.2369  160.9554 O   0  0  0  0  0  0  0  0  0  0  0  0
  148.1752  133.1625  161.9605 H   0  0  0  0  0  0  0  0  0  0  0  0
  147.4900  133.6276  163.5101 H   0  0  0  0  0  0  0  0  0  0  0  0
  148.4280  134.7875  162.5932 H   0  0  0  0  0  0  0  0  0  0  0  0
  146.0130  135.2642  162.4153 H   0  0  0  0  0  0  0  0  0  0  0  0
  145.6835  132.4714  161.2693 H   0  0  0  0  0  0  0  0  0  0  0  0
  145.1720  133.0008  162.8511 H   0  0  0  0  0  0  0  0  0  0  0  0
  143.2735  133.0063  161.2460 H   0  0  0  0  0  0  0  0  0  0  0  0
  143.5810  134.6086  161.8717 H   0  0  0  0  0  0  0  0  0  0  0  0
  144.4702  133.5301  159.1538 H   0  0  0  0  0  0  0  0  0  0  0  0
  143.2280  134.7237  159.4309 H   0  0  0  0  0  0  0  0  0  0  0  0
  145.3609  135.8012  158.7287 H   0  0  0  0  0  0  0  0  0  0  0  0
  144.8574  136.3256  160.3110 H   0  0  0  0  0  0  0  0  0  0  0  0
  149.5180  137.7340  159.4735 H   0  0  0  0  0  0  0  0  0  0  0  0
  150.5708  136.4400  159.9525 H   0  0  0  0  0  0  0  0  0  0  0  0
  148.7257  137.6021  157.0745 H   0  0  0  0  0  0  0  0  0  0  0  0
  150.1481  136.1884  155.0538 H   0  0  0  0  0  0  0  0  0  0  0  0
  149.1612  137.6201  154.8611 H   0  0  0  0  0  0  0  0  0  0  0  0
  152.1182  137.5599  155.6675 H   0  0  0  0  0  0  0  0  0  0  0  0
  151.4751  138.1507  154.1569 H   0  0  0  0  0  0  0  0  0  0  0  0
  152.2211  138.9899  157.6395 H   0  0  0  0  0  0  0  0  0  0  0  0
  151.9503  141.3100  158.5500 H   0  0  0  0  0  0  0  0  0  0  0  0
  150.6893  143.0027  157.1886 H   0  0  0  0  0  0  0  0  0  0  0  0
  149.7540  142.2990  154.9698 H   0  0  0  0  0  0  0  0  0  0  0  0
  1  2  1  0  0  0  0
  1 26  1  0  0  0  0
  1 27  1  0  0  0  0
  1 28  1  0  0  0  0
  2  7  1  0  0  0  0
  2  3  1  0  0  0  0
  2 29  1  0  0  0  0
  3  4  1  0  0  0  0
  3 30  1  0  0  0  0
  3 31  1  0  0  0  0
  4  5  1  0  0  0  0
  4 32  1  0  0  0  0
  4 33  1  0  0  0  0
  5  6  1  0  0  0  0
  5 34  1  0  0  0  0
  5 35  1  0  0  0  0
  6  7  1  0  0  0  0
  6 36  1  0  0  0  0
  6 37  1  0  0  0  0
  7 24  1  0  0  0  0
  7  8  1  0  0  0  0
  8  9  1  0  0  0  0
  9 10  2  0  0  0  0
  9 11  1  0  0  0  0
 11 12  1  0  0  0  0
 11 24  1  0  0  0  0
 12 13  1  0  0  0  0
 12 38  1  0  0  0  0
 12 39  1  0  0  0  0
 13 14  2  0  0  0  0
 13 15  1  0  0  0  0
 15 16  1  0  0  0  0
 15 40  1  0  0  0  0
 16 17  1  0  0  0  0
 16 41  1  0  0  0  0
 16 42  1  0  0  0  0
 17 18  1  0  0  0  0
 17 43  1  0  0  0  0
 17 44  1  0  0  0  0
 18 23  1  0  0  0  0
 18 19  2  0  0  0  0
 19 20  1  0  0  0  0
 19 45  1  0  0  0  0
 20 21  2  0  0  0  0
 20 46  1  0  0  0  0
 21 22  1  0  0  0  0
 21 47  1  0  0  0  0
 22 23  2  0  0  0  0
 22 48  1  0  0  0  0
 24 25  2  0  0  0  0
M  CHG  1   8  -1
M  END
> <s_m_source_file>
AV-unprocessed.smi

> <i_m_source_file_index>
2973

> <i_lp_mmshare_version>
43012

> <i_f3d_flags>
0

> <s_epik_input>
W0NIMl0xW0NIMl1bQ0gyXVtDSDJdW0NAQEhdKFtDSDNdKVtDQF0xMltOSF1DKD1PKU4oQzI9TylbQ0gyXUMoPU8pW05IXVtDSDJdW0NIMl1jM1tjSF1bY0hdW2NIXVtjSF1uMw==

> <s_epik_cmdline>
J2VwaWtfcHl0aG9uJywgJy1waCcsICc3LjAnLCAnLXRuJywgJzgnLCAnLW1hJywgJzIwMCcsICctbWV0YWxfYmluZGluZycsICctaW1hZScsICc8aW5maWxlLm1hZT4nLCAnLW9tYWUnLCAnPG91dGZpbGUubWFlPic=

> <r_lp_tautomer_probability>
1

> <r_epik_Ionization_Penalty>
6.04175

> <r_epik_Ionization_Penalty_Charging>
6.01728

> <r_epik_Ionization_Penalty_Neutral>
0.0244696

> <r_epik_State_Penalty>
6.03712

> <r_epik_Charging_Adjusted_Penalty>
12.0544

> <i_epik_Tot_Q>
-1

> <i_epik_Tot_abs_Q>
1

> <r_epik_Metal_State_Penalty>
2.01153

> <b_epik_Metal_Only>
1

> <s_lp_Force_Field>
OPLS_2005

> <r_lp_Energy>
17.3345

> <b_lp_Chiralities_Consistent>
1

> <s_lp_Variant>
AV-unprocessed.smi:2973-11

> <Gold.Version>
5.8.1

> <Gold.Id.Protein>
6NUR|6NUR_protein|mol2

> <Gold.PLP.Fitness>
47.0084

> <Gold.PLP.PLP>
-34.3478

> <Gold.PLP.part.hbond>
-4.8775

> <Gold.PLP.part.metal>
0.0000

> <Gold.PLP.part.buried>
-3.6312

> <Gold.PLP.part.nonpolar>
-25.0468

> <Gold.PLP.part.repulsive>
0.0748

> <Gold.PLP.ligand.clash>
0.0000

> <Gold.PLP.ligand.torsion>
0.7535

> <Gold.PLP.Chemscore.Hbond>
3.7120

> <Gold.PLP.Chemscore.CHOScore>
1.0000

> <Gold.PLP.Chemscore.Metal>
0.0000

> <Gold.Chemscore.Hbonds>
donor molecule, donor type, donor heavy atom, donor atom, acceptor molecule, acceptor atom, score
      P1  H  6896  6909       L1    10  1.00
      P1  H  6931  6943       L1    25  0.66
      P1  H  6934  6947       L1    25  1.00
      P1  H  7989  7998       L1    23  0.77
      L1  C    22    48       P1  8028  0.66

> <Gold.PLP.Chemscore.Internal.Correction>
0.0317

> <Gold.Rescore>
     Score         DG    S(hbond)    S(metal)    S(lipo)     H(rot)  DE(clash)    DE(int)     intcor
     16.80     -19.88       2.88        0.00      80.31       1.81       0.08       3.00       ----

> <Gold.Chemscore.Fitness>
16.7973

> <Gold.Chemscore.DG>
-19.8766

> <Gold.Chemscore.ZeroCoef>
-5.4800

> <Gold.Chemscore.Hbond>
2.8838

> <Gold.Chemscore.Metal>
0.0000

> <Gold.Chemscore.Lipo>
80.3052

> <Gold.Chemscore.Internal_Hbond>
0.0000

> <Gold.Chemscore.DEClash>
0.0839

> <Gold.Chemscore.DEInternal>
2.9953

> <Gold.Chemscore.Rot>
1.8090

> <Gold.Chemscore.Internal.Correction>
   9.000000E+99

> <Gold.Chemscore.Hbonds>
donor molecule, donor type, donor heavy atom, donor atom, acceptor molecule, acceptor atom, score
      P1  H  6896  6909       L1    10  0.45
      P1  H  6931  6943       L1    25  0.65
      P1  H  6934  6947       L1    25  0.96
      P1  H  7989  7998       L1    23  0.07

> <Gold.Chemscore.Hbond.Weighted>
-9.6319

> <Gold.Chemscore.Metal.Weighted>
-0.0000

> <Gold.Chemscore.Lipo.Weighted>
-9.3957

> <Gold.Chemscore.Internal_Hbond.Weighted>
0.0000

> <Gold.Chemscore.DEClash.Weighted>
0.0839

> <Gold.Chemscore.DEInternal.Weighted>
2.9953

> <Gold.Chemscore.Rot.Weighted>
4.6310

> <Gold.Chemscore.Internal.Correction.Weighted>
   9.000000E+99

> <Gold.Protein.RotatedTorsions>
[ 6907 6896 6895 6894 ] final    4.32 input  -60.11 | X-H torsion
[ 7974 7965 7964 7962 ] final   69.21 input  175.53 | X-H torsion
[ 8008 7997 7996 7995 ] final -149.05 input   59.86 | X-H torsion
[ 10167 10162 10161 10158 ] final  -16.75 input  -65.29 | X-H torsion
[ 10718 10713 10712 10709 ] final   89.19 input   66.30 | X-H torsion
[ 10763 10752 10751 10750 ] final   20.89 input  -60.55 | X-H torsion
[ 11005 11000 10999 10996 ] final   87.02 input  -57.11 | X-H torsion

> <Gold.Protein.ActiveResidues>
 VAL166  LYS551  ARG553  GLY616  TRP617  ASP618  TYR619  PRO620  LYS621  CYS622 
 ASP623  PHE694  ASN695  SER759  ASP760  ASP761  ALA762  ILE779  LEU786  VAL792 
 PHE793  MET794  SER795  GLU796  ALA797  LYS798  CYS799  TRP800  GLU811  SER814 

> <Gold.Protein.RotatedAtoms>
  151.6394  135.1014  160.0137 H   0  0  0  0  0  0  0  0  0  0  0  0  # atno 6907 bound_to 6896
  152.4062  133.6889  159.6367 H   0  0  0  0  0  0  0  0  0  0  0  0  # atno 6908 bound_to 6896
  150.7957  133.8621  159.3275 H   0  0  0  0  0  0  0  0  0  0  0  0  # atno 6909 bound_to 6896
  145.7931  139.2944  143.1198 H   0  0  0  0  0  0  0  0  0  0  0  0  # atno 7974 bound_to 7965
  155.6014  140.0662  157.2732 H   0  0  0  0  0  0  0  0  0  0  0  0  # atno 8008 bound_to 7997
  154.4278  140.1817  156.1225 H   0  0  0  0  0  0  0  0  0  0  0  0  # atno 8009 bound_to 7997
  156.0156  140.3322  155.6989 H   0  0  0  0  0  0  0  0  0  0  0  0  # atno 8010 bound_to 7997
  140.7238  143.5084  150.9780 H   0  0  0  0  0  0  0  0  0  0  0  0  # atno 10167 bound_to 10162
  157.6954  131.0323  150.3388 H   0  0  0  0  0  0  0  0  0  0  0  0  # atno 10718 bound_to 10713
  153.1040  135.6680  153.9620 H   0  0  0  0  0  0  0  0  0  0  0  0  # atno 10763 bound_to 10752
  153.9183  135.3017  155.3449 H   0  0  0  0  0  0  0  0  0  0  0  0  # atno 10764 bound_to 10752
  154.7461  135.5057  153.9282 H   0  0  0  0  0  0  0  0  0  0  0  0  # atno 10765 bound_to 10752
  139.8930  134.8394  156.2801 H   0  0  0  0  0  0  0  0  0  0  0  0  # atno 11005 bound_to 11000
  145.9956  140.8565  143.0044 LP  0  0  0  0  0  0  0  0  0  0  0  0  # atno 17320 bound_to 7965
  144.6779  140.2278  143.7359 LP  0  0  0  0  0  0  0  0  0  0  0  0  # atno 17321 bound_to 7965
  139.8797  143.7088  152.3158 LP  0  0  0  0  0  0  0  0  0  0  0  0  # atno 17342 bound_to 10162
  139.7365  144.7570  151.0719 LP  0  0  0  0  0  0  0  0  0  0  0  0  # atno 17343 bound_to 10162
  156.3851  130.3887  149.7072 LP  0  0  0  0  0  0  0  0  0  0  0  0  # atno 17370 bound_to 10713
  156.4441  130.7875  151.2896 LP  0  0  0  0  0  0  0  0  0  0  0  0  # atno 17371 bound_to 10713
  141.0044  133.7132  156.1012 LP  0  0  0  0  0  0  0  0  0  0  0  0  # atno 17394 bound_to 11000
  140.7453  134.4104  157.5549 LP  0  0  0  0  0  0  0  0  0  0  0  0  # atno 17395 bound_to 11000

$$$$
