AV-unprocessed.smi:35|AV-procd|sdf|262|dock3
  -GOLD-   2262016 23D 1   1.00000     0.00000
 Structure written by MMmdl.
 29 30  0  0  0  0  0  0  0  0  1 V2000
  148.9109  134.3061  158.5482 O   0  0  0  0  0  0  0  0  0  0  0  0
  149.0383  135.1850  157.6986 C   0  0  0  0  0  0  0  0  0  0  0  0
  149.9661  135.0374  156.6643 N   0  0  0  0  0  0  0  0  0  0  0  0
  150.2031  135.9662  155.6495 C   0  0  0  0  0  0  0  0  0  0  0  0
  151.0361  135.7232  154.7771 O   0  0  0  0  0  0  0  0  0  0  0  0
  149.4564  137.1662  155.6777 N   0  0  0  0  0  0  0  0  0  0  0  0
  149.6908  138.1799  154.5705 C   0  0  1  0  0  0  0  0  0  0  0  0
  148.4826  138.4532  153.9237 O   0  0  0  0  0  0  0  0  0  0  0  0
  147.9067  139.6375  154.4658 C   0  0  2  0  0  0  0  0  0  0  0  0
  146.8076  140.1972  153.5467 C   0  0  0  0  0  0  0  0  0  0  0  0
  147.1558  139.9812  152.1958 O   0  0  0  0  0  0  0  0  0  0  0  0
  149.1405  140.5253  154.6504 C   0  0  2  0  0  0  0  0  0  0  0  0
  149.5042  141.1326  153.4207 O   0  0  0  0  0  0  0  0  0  0  0  0
  150.1855  139.5267  155.1484 C   0  0  2  0  0  0  0  0  0  0  0  0
  151.4996  139.8674  154.7460 O   0  0  0  0  0  0  0  0  0  0  0  0
  148.5009  137.3432  156.6741 C   0  0  0  0  0  0  0  0  0  0  0  0
  148.2802  136.4296  157.6488 C   0  0  0  0  0  0  0  0  0  0  0  0
  146.8797  136.8734  158.9781 Br  0  0  0  0  0  0  0  0  0  0  0  0
  150.5065  134.1848  156.6473 H   0  0  0  0  0  0  0  0  0  0  0  0
  150.3794  137.6967  153.8746 H   0  0  0  0  0  0  0  0  0  0  0  0
  147.4930  139.4240  155.4533 H   0  0  0  0  0  0  0  0  0  0  0  0
  145.8658  139.6789  153.7286 H   0  0  0  0  0  0  0  0  0  0  0  0
  146.6369  141.2589  153.7280 H   0  0  0  0  0  0  0  0  0  0  0  0
  148.0904  140.0880  152.1062 H   0  0  0  0  0  0  0  0  0  0  0  0
  148.9626  141.3167  155.3794 H   0  0  0  0  0  0  0  0  0  0  0  0
  149.4124  140.4894  152.7339 H   0  0  0  0  0  0  0  0  0  0  0  0
  150.1465  139.4896  156.2383 H   0  0  0  0  0  0  0  0  0  0  0  0
  152.0909  139.2052  155.0714 H   0  0  0  0  0  0  0  0  0  0  0  0
  147.8917  138.2338  156.6964 H   0  0  0  0  0  0  0  0  0  0  0  0
  1  2  2  0  0  0  0
  2 17  1  0  0  0  0
  2  3  1  0  0  0  0
  3 19  1  0  0  0  0
  3  4  1  0  0  0  0
  4  5  2  0  0  0  0
  4  6  1  0  0  0  0
  6  7  1  0  0  0  0
  6 16  1  0  0  0  0
  7 14  1  0  0  0  0
  7  8  1  0  0  0  0
  7 20  1  0  0  0  0
  8  9  1  0  0  0  0
  9 10  1  0  0  0  0
  9 12  1  0  0  0  0
  9 21  1  0  0  0  0
 10 11  1  0  0  0  0
 10 22  1  0  0  0  0
 10 23  1  0  0  0  0
 11 24  1  0  0  0  0
 12 13  1  0  0  0  0
 12 14  1  0  0  0  0
 12 25  1  0  0  0  0
 13 26  1  0  0  0  0
 14 15  1  0  0  0  0
 14 27  1  0  0  0  0
 15 28  1  0  0  0  0
 16 17  2  0  0  0  0
 16 29  1  0  0  0  0
 17 18  1  0  0  0  0
M  END
> <s_m_source_file>
AV-unprocessed.smi

> <i_m_source_file_index>
35

> <i_lp_mmshare_version>
43012

> <i_f3d_flags>
0

> <s_epik_input>
Tz1jMVtuSF1jKD1PKW4oW2NIXWMxQnIpW0NAQEhdMk9bQ0BASF0oW0NIMl1bT0hdKVtDQEBIXShbT0hdKVtDQEhdMltPSF0=

> <s_epik_cmdline>
J2VwaWtfcHl0aG9uJywgJy1waCcsICc3LjAnLCAnLXRuJywgJzgnLCAnLW1hJywgJzIwMCcsICctbWV0YWxfYmluZGluZycsICctaW1hZScsICc8aW5maWxlLm1hZT4nLCAnLW9tYWUnLCAnPG91dGZpbGUubWFlPic=

> <r_lp_tautomer_probability>
0.999537

> <r_epik_Ionization_Penalty>
0.10812

> <r_epik_Ionization_Penalty_Charging>
0.108119

> <r_epik_Ionization_Penalty_Neutral>
4.93006e-07

> <r_epik_State_Penalty>
0.0979238

> <r_epik_Charging_Adjusted_Penalty>
0.206043

> <i_epik_Tot_Q>
0

> <i_epik_Tot_abs_Q>
0

> <r_epik_Metal_State_Penalty>
3.07911

> <b_epik_Metal_Only>
0

> <s_epik_Chemistry_Notes>
This compound contains an acetal/aminal-like group ( X-CH(R)-Y where X, Y are N, S, or O) that may be acid/base labile, releasing an aldehyde.

> <s_lp_Force_Field>
OPLS_2005

> <r_lp_Energy>
32.933

> <b_lp_Chiralities_Consistent>
1

> <s_lp_Variant>
AV-unprocessed.smi:35-16

> <Gold.Version>
5.8.1

> <Gold.Id.Protein>
6NUR|6NUR_protein|mol2

> <Gold.PLP.Fitness>
38.0826

> <Gold.PLP.PLP>
-20.8947

> <Gold.PLP.part.hbond>
-6.5478

> <Gold.PLP.part.metal>
0.0000

> <Gold.PLP.part.buried>
-5.4135

> <Gold.PLP.part.nonpolar>
-10.8263

> <Gold.PLP.part.repulsive>
0.5629

> <Gold.PLP.ligand.clash>
0.0000

> <Gold.PLP.ligand.torsion>
0.2622

> <Gold.PLP.Chemscore.Hbond>
5.8960

> <Gold.PLP.Chemscore.CHOScore>
0.0000

> <Gold.PLP.Chemscore.Metal>
0.0000

> <Gold.Chemscore.Hbonds>
donor molecule, donor type, donor heavy atom, donor atom, acceptor molecule, acceptor atom, score
      L1  H    11    24       P1  7957  1.00
      L1  H    13    26       P1  7957  0.99
      P1  H  6896  6909       L1     1  1.00
      P1  H  7989  7998       L1    15  1.00
      P1  H  8011  8017       L1    13  0.70
      P1  H 10752 10765       L1     5  1.00

> <Gold.PLP.Chemscore.Internal.Correction>
0.0242

> <Gold.Rescore>
     Score         DG    S(hbond)    S(metal)    S(lipo)     H(rot)  DE(clash)    DE(int)     intcor
     14.56     -14.89       4.63        0.00      28.44       3.67       0.03       0.30       ----

> <Gold.Chemscore.Fitness>
14.5581

> <Gold.Chemscore.DG>
-14.8886

> <Gold.Chemscore.ZeroCoef>
-5.4800

> <Gold.Chemscore.Hbond>
4.6337

> <Gold.Chemscore.Metal>
0.0000

> <Gold.Chemscore.Lipo>
28.4408

> <Gold.Chemscore.Internal_Hbond>
0.0000

> <Gold.Chemscore.DEClash>
0.0317

> <Gold.Chemscore.DEInternal>
0.2989

> <Gold.Chemscore.Rot>
3.6701

> <Gold.Chemscore.Internal.Correction>
   9.000000E+99

> <Gold.Chemscore.Hbonds>
donor molecule, donor type, donor heavy atom, donor atom, acceptor molecule, acceptor atom, score
      L1  H    11    24       P1  7957  0.95
      L1  H    13    26       P1  7957  0.93
      P1  H  6896  6909       L1     1  0.50
      P1  H  7989  7998       L1    15  0.94
      P1  H  8011  8017       L1    13  0.07
      P1  H 10752 10765       L1     5  0.99

> <Gold.Chemscore.Hbond.Weighted>
-15.4765

> <Gold.Chemscore.Metal.Weighted>
-0.0000

> <Gold.Chemscore.Lipo.Weighted>
-3.3276

> <Gold.Chemscore.Internal_Hbond.Weighted>
0.0000

> <Gold.Chemscore.DEClash.Weighted>
0.0317

> <Gold.Chemscore.DEInternal.Weighted>
0.2989

> <Gold.Chemscore.Rot.Weighted>
9.3955

> <Gold.Chemscore.Internal.Correction.Weighted>
   9.000000E+99

> <Gold.Protein.RotatedTorsions>
[ 6907 6896 6895 6894 ] final   27.04 input  -60.11 | X-H torsion
[ 7974 7965 7964 7962 ] final -150.04 input  175.53 | X-H torsion
[ 8008 7997 7996 7995 ] final  156.27 input   59.86 | X-H torsion
[ 10167 10162 10161 10158 ] final  163.17 input  -65.29 | X-H torsion
[ 10718 10713 10712 10709 ] final  135.15 input   66.30 | X-H torsion
[ 10763 10752 10751 10750 ] final  172.07 input  -60.55 | X-H torsion
[ 11005 11000 10999 10996 ] final  -22.27 input  -57.11 | X-H torsion

> <Gold.Protein.ActiveResidues>
 VAL166  LYS551  ARG553  GLY616  TRP617  ASP618  TYR619  PRO620  LYS621  CYS622 
 ASP623  PHE694  ASN695  SER759  ASP760  ASP761  ALA762  ILE779  LEU786  VAL792 
 PHE793  MET794  SER795  GLU796  ALA797  LYS798  CYS799  TRP800  GLU811  SER814 

> <Gold.Protein.RotatedAtoms>
  151.9964  134.9952  160.0563 H   0  0  0  0  0  0  0  0  0  0  0  0  # atno 6907 bound_to 6896
  152.1560  133.4547  159.4845 H   0  0  0  0  0  0  0  0  0  0  0  0  # atno 6908 bound_to 6896
  150.6881  134.2048  159.4379 H   0  0  0  0  0  0  0  0  0  0  0  0  # atno 6909 bound_to 6896
  144.7931  140.4984  143.5759 H   0  0  0  0  0  0  0  0  0  0  0  0  # atno 7974 bound_to 7965
  156.2432  140.1917  156.6929 H   0  0  0  0  0  0  0  0  0  0  0  0  # atno 8008 bound_to 7997
  154.6238  140.0605  156.9675 H   0  0  0  0  0  0  0  0  0  0  0  0  # atno 8009 bound_to 7997
  155.1819  140.3277  155.4376 H   0  0  0  0  0  0  0  0  0  0  0  0  # atno 8010 bound_to 7997
  139.4870  144.4364  151.9007 H   0  0  0  0  0  0  0  0  0  0  0  0  # atno 10167 bound_to 10162
  157.4600  131.1072  150.9932 H   0  0  0  0  0  0  0  0  0  0  0  0  # atno 10718 bound_to 10713
  154.4209  135.2758  155.1976 H   0  0  0  0  0  0  0  0  0  0  0  0  # atno 10763 bound_to 10752
  154.3923  135.6063  153.5853 H   0  0  0  0  0  0  0  0  0  0  0  0  # atno 10764 bound_to 10752
  152.9833  135.5906  154.4504 H   0  0  0  0  0  0  0  0  0  0  0  0  # atno 10765 bound_to 10752
  140.8640  133.7767  156.0108 H   0  0  0  0  0  0  0  0  0  0  0  0  # atno 11005 bound_to 11000
  145.5743  139.1485  143.3271 LP  0  0  0  0  0  0  0  0  0  0  0  0  # atno 17320 bound_to 7965
  146.2190  140.5875  142.9026 LP  0  0  0  0  0  0  0  0  0  0  0  0  # atno 17321 bound_to 7965
  140.3813  144.2732  150.5908 LP  0  0  0  0  0  0  0  0  0  0  0  0  # atno 17342 bound_to 10162
  140.5230  143.2261  151.8359 LP  0  0  0  0  0  0  0  0  0  0  0  0  # atno 17343 bound_to 10162
  157.0732  130.5873  149.5406 LP  0  0  0  0  0  0  0  0  0  0  0  0  # atno 17370 bound_to 10713
  156.0024  130.5105  150.7711 LP  0  0  0  0  0  0  0  0  0  0  0  0  # atno 17371 bound_to 10713
  140.8650  134.2795  157.5217 LP  0  0  0  0  0  0  0  0  0  0  0  0  # atno 17394 bound_to 11000
  139.8708  134.9537  156.4155 LP  0  0  0  0  0  0  0  0  0  0  0  0  # atno 17395 bound_to 11000

$$$$
