AV-unprocessed.smi:2424|AV-procd|sdf|9574|dock7
  -GOLD-   2272013203D 1   1.00000     0.00000
 Structure written by MMmdl.
 49 50  0  0  0  0  0  0  0  0  2 V2000
  151.6496  137.6764  154.0614 C   0  0  0  0  0  0  0  0  0  0  0  0
  151.8759  139.0148  154.7863 C   0  0  0  0  0  0  0  0  0  0  0  0
  150.8379  139.3652  155.8816 C   0  0  0  0  0  0  0  0  0  0  0  0
  149.4218  139.2970  155.2523 C   0  0  0  0  0  0  0  0  0  0  0  0
  149.0460  140.4950  154.3638 C   0  0  0  0  0  0  0  0  0  0  0  0
  151.0555  138.5933  157.2164 C   0  0  2  0  0  0  0  0  0  0  0  0
  149.8270  138.4149  157.9944 N   0  0  0  0  0  0  0  0  0  0  0  0
  149.5383  137.3538  158.7578 C   0  0  0  0  0  0  0  0  0  0  0  0
  150.2981  136.3967  158.9011 O   0  0  0  0  0  0  0  0  0  0  0  0
  148.3264  137.4939  159.3229 N   0  0  0  0  0  0  0  0  0  0  0  0
  147.6419  136.6060  160.1624 C   0  0  0  0  0  0  0  0  0  0  0  0
  148.1622  135.3541  160.4220 C   0  0  0  0  0  0  0  0  0  0  0  0
  147.6592  134.3718  161.2004 N   0  5  0  0  0  0  0  0  0  0  0  0
  146.4774  134.6017  161.8410 C   0  0  0  0  0  0  0  0  0  0  0  0
  145.9591  133.7537  162.5665 O   0  0  0  0  0  0  0  0  0  0  0  0
  145.8078  135.9049  161.6547 C   0  0  0  0  0  0  0  0  0  0  0  0
  144.4933  136.1581  162.3729 C   0  0  0  0  0  0  0  0  0  0  0  0
  146.3751  136.8423  160.8544 C   0  0  0  0  0  0  0  0  0  0  0  0
  151.8973  139.7698  157.7387 C   0  0  2  0  0  0  0  0  0  0  0  0
  151.8949  140.1695  159.2133 C   0  0  0  0  0  0  0  0  0  0  0  0
  151.1939  140.6476  156.6905 C   0  0  2  0  0  0  0  0  0  0  0  0
  150.0693  141.3086  157.2596 O   0  0  0  0  0  0  0  0  0  0  0  0
  150.4194  142.4812  157.9749 C   0  0  0  0  0  0  0  0  0  0  0  0
  152.3348  137.5802  153.2192 H   0  0  0  0  0  0  0  0  0  0  0  0
  150.6366  137.5944  153.6683 H   0  0  0  0  0  0  0  0  0  0  0  0
  151.8289  136.8231  154.7144 H   0  0  0  0  0  0  0  0  0  0  0  0
  152.8870  139.0348  155.1916 H   0  0  0  0  0  0  0  0  0  0  0  0
  151.8818  139.7927  154.0228 H   0  0  0  0  0  0  0  0  0  0  0  0
  149.3264  138.4020  154.6379 H   0  0  0  0  0  0  0  0  0  0  0  0
  148.6585  139.1720  156.0185 H   0  0  0  0  0  0  0  0  0  0  0  0
  148.0945  140.3149  153.8632 H   0  0  0  0  0  0  0  0  0  0  0  0
  149.7938  140.6726  153.5910 H   0  0  0  0  0  0  0  0  0  0  0  0
  148.9346  141.4116  154.9419 H   0  0  0  0  0  0  0  0  0  0  0  0
  151.6369  137.6787  157.0869 H   0  0  0  0  0  0  0  0  0  0  0  0
  149.1466  139.1585  157.9403 H   0  0  0  0  0  0  0  0  0  0  0  0
  147.8295  138.3479  159.1152 H   0  0  0  0  0  0  0  0  0  0  0  0
  149.1282  135.1054  159.9320 H   0  0  0  0  0  0  0  0  0  0  0  0
  144.1016  137.1506  162.1488 H   0  0  0  0  0  0  0  0  0  0  0  0
  144.6293  136.0857  163.4523 H   0  0  0  0  0  0  0  0  0  0  0  0
  143.7458  135.4247  162.0691 H   0  0  0  0  0  0  0  0  0  0  0  0
  145.8591  137.7820  160.7446 H   0  0  0  0  0  0  0  0  0  0  0  0
  152.9280  139.6137  157.4164 H   0  0  0  0  0  0  0  0  0  0  0  0
  150.8909  140.3833  159.5802 H   0  0  0  0  0  0  0  0  0  0  0  0
  152.4978  141.0626  159.3774 H   0  0  0  0  0  0  0  0  0  0  0  0
  152.3079  139.3747  159.8348 H   0  0  0  0  0  0  0  0  0  0  0  0
  151.8915  141.3304  156.2026 H   0  0  0  0  0  0  0  0  0  0  0  0
  149.5164  142.9667  158.3449 H   0  0  0  0  0  0  0  0  0  0  0  0
  150.9521  143.1939  157.3453 H   0  0  0  0  0  0  0  0  0  0  0  0
  151.0471  142.2413  158.8339 H   0  0  0  0  0  0  0  0  0  0  0  0
  1  2  1  0  0  0  0
  1 24  1  0  0  0  0
  1 25  1  0  0  0  0
  1 26  1  0  0  0  0
  2  3  1  0  0  0  0
  2 27  1  0  0  0  0
  2 28  1  0  0  0  0
  3 21  1  0  0  0  0
  3  4  1  0  0  0  0
  3  6  1  0  0  0  0
  4  5  1  0  0  0  0
  4 29  1  0  0  0  0
  4 30  1  0  0  0  0
  5 31  1  0  0  0  0
  5 32  1  0  0  0  0
  5 33  1  0  0  0  0
  6  7  1  0  0  0  0
  6 19  1  0  0  0  0
  6 34  1  0  0  0  0
  7  8  1  0  0  0  0
  7 35  1  0  0  0  0
  8  9  2  0  0  0  0
  8 10  1  0  0  0  0
 10 11  1  0  0  0  0
 10 36  1  0  0  0  0
 11 18  1  0  0  0  0
 11 12  2  0  0  0  0
 12 13  1  0  0  0  0
 12 37  1  0  0  0  0
 13 14  1  0  0  0  0
 14 15  2  0  0  0  0
 14 16  1  0  0  0  0
 16 17  1  0  0  0  0
 16 18  2  0  0  0  0
 17 38  1  0  0  0  0
 17 39  1  0  0  0  0
 17 40  1  0  0  0  0
 18 41  1  0  0  0  0
 19 20  1  0  0  0  0
 19 21  1  0  0  0  0
 19 42  1  0  0  0  0
 20 43  1  0  0  0  0
 20 44  1  0  0  0  0
 20 45  1  0  0  0  0
 21 22  1  0  0  0  0
 21 46  1  0  0  0  0
 22 23  1  0  0  0  0
 23 47  1  0  0  0  0
 23 48  1  0  0  0  0
 23 49  1  0  0  0  0
M  CHG  1  13  -1
M  END
> <s_m_source_file>
AV-unprocessed.smi

> <i_m_source_file_index>
2424

> <i_lp_mmshare_version>
43012

> <i_f3d_flags>
0

> <s_epik_input>
W0NIM11PW0NAQEhdMVtDQEhdKFtDSDNdKVtDQEBIXShDMShbQ0gyXVtDSDNdKVtDSDJdW0NIM10pW05IXUMoPU8pW05IXWMyW2NIXVtuSF1jKD1PKWMoW0NIM10pW2NIXTI=

> <s_epik_cmdline>
J2VwaWtfcHl0aG9uJywgJy1waCcsICc3LjAnLCAnLXRuJywgJzgnLCAnLW1hJywgJzIwMCcsICctbWV0YWxfYmluZGluZycsICctaW1hZScsICc8aW5maWxlLm1hZT4nLCAnLW9tYWUnLCAnPG91dGZpbGUubWFlPic=

> <r_lp_tautomer_probability>
1

> <r_epik_Ionization_Penalty>
7.6122

> <r_epik_Ionization_Penalty_Charging>
1.53843

> <r_epik_Ionization_Penalty_Neutral>
6.07377

> <r_epik_State_Penalty>
6.07371

> <r_epik_Charging_Adjusted_Penalty>
7.61214

> <i_epik_Tot_Q>
-1

> <i_epik_Tot_abs_Q>
1

> <r_epik_Metal_State_Penalty>
2.02136

> <b_epik_Metal_Only>
1

> <s_lp_Force_Field>
OPLS_2005

> <r_lp_Energy>
42.0535

> <b_lp_Chiralities_Consistent>
1

> <s_lp_Variant>
AV-unprocessed.smi:2424-16

> <Gold.Version>
5.8.1

> <Gold.Id.Protein>
6NUR|6NUR_protein|mol2

> <Gold.PLP.Fitness>
35.4626

> <Gold.PLP.PLP>
-33.0457

> <Gold.PLP.part.hbond>
-1.4416

> <Gold.PLP.part.metal>
0.0000

> <Gold.PLP.part.buried>
-4.8192

> <Gold.PLP.part.nonpolar>
-28.4673

> <Gold.PLP.part.repulsive>
0.8577

> <Gold.PLP.ligand.clash>
0.0000

> <Gold.PLP.ligand.torsion>
0.6294

> <Gold.PLP.Chemscore.Hbond>
1.0000

> <Gold.PLP.Chemscore.CHOScore>
0.0000

> <Gold.PLP.Chemscore.Metal>
0.0000

> <Gold.Chemscore.Hbonds>
donor molecule, donor type, donor heavy atom, donor atom, acceptor molecule, acceptor atom, score
      P1  H  6896  6907       L1     9  1.00

> <Gold.PLP.Chemscore.Internal.Correction>
0.6756

> <Gold.Rescore>
     Score         DG    S(hbond)    S(metal)    S(lipo)     H(rot)  DE(clash)    DE(int)     intcor
     13.21     -15.20       0.99        0.00      88.01       1.52       0.11       1.88       ----

> <Gold.Chemscore.Fitness>
13.2108

> <Gold.Chemscore.DG>
-15.1967

> <Gold.Chemscore.ZeroCoef>
-5.4800

> <Gold.Chemscore.Hbond>
0.9915

> <Gold.Chemscore.Metal>
0.0000

> <Gold.Chemscore.Lipo>
88.0122

> <Gold.Chemscore.Internal_Hbond>
0.0000

> <Gold.Chemscore.DEClash>
0.1104

> <Gold.Chemscore.DEInternal>
1.8755

> <Gold.Chemscore.Rot>
1.5204

> <Gold.Chemscore.Internal.Correction>
   9.000000E+99

> <Gold.Chemscore.Hbonds>
donor molecule, donor type, donor heavy atom, donor atom, acceptor molecule, acceptor atom, score
      P1  H  6896  6907       L1     9  0.99

> <Gold.Chemscore.Hbond.Weighted>
-3.3115

> <Gold.Chemscore.Metal.Weighted>
-0.0000

> <Gold.Chemscore.Lipo.Weighted>
-10.2974

> <Gold.Chemscore.Internal_Hbond.Weighted>
0.0000

> <Gold.Chemscore.DEClash.Weighted>
0.1104

> <Gold.Chemscore.DEInternal.Weighted>
1.8755

> <Gold.Chemscore.Rot.Weighted>
3.8922

> <Gold.Chemscore.Internal.Correction.Weighted>
   9.000000E+99

> <Gold.Protein.RotatedTorsions>
[ 6907 6896 6895 6894 ] final  -48.77 input  -60.11 | X-H torsion
[ 7974 7965 7964 7962 ] final  -81.03 input  175.53 | X-H torsion
[ 8008 7997 7996 7995 ] final  -21.38 input   59.86 | X-H torsion
[ 10167 10162 10161 10158 ] final -120.50 input  -65.29 | X-H torsion
[ 10718 10713 10712 10709 ] final  -88.68 input   66.30 | X-H torsion
[ 10763 10752 10751 10750 ] final  -52.69 input  -60.55 | X-H torsion
[ 11005 11000 10999 10996 ] final  -23.89 input  -57.11 | X-H torsion

> <Gold.Protein.ActiveResidues>
 VAL166  LYS551  ARG553  GLY616  TRP617  ASP618  TYR619  PRO620  LYS621  CYS622 
 ASP623  PHE694  ASN695  SER759  ASP760  ASP761  ALA762  ILE779  LEU786  VAL792 
 PHE793  MET794  SER795  GLU796  ALA797  LYS798  CYS799  TRP800  GLU811  SER814 

> <Gold.Protein.RotatedAtoms>
  150.8872  134.8271  159.7267 H   0  0  0  0  0  0  0  0  0  0  0  0  # atno 6907 bound_to 6896
  152.4815  134.4704  159.9643 H   0  0  0  0  0  0  0  0  0  0  0  0  # atno 6908 bound_to 6896
  151.4771  133.3516  159.2868 H   0  0  0  0  0  0  0  0  0  0  0  0  # atno 6909 bound_to 6896
  145.5520  140.9495  143.1494 H   0  0  0  0  0  0  0  0  0  0  0  0  # atno 7974 bound_to 7965
  154.4709  140.2036  155.9998 H   0  0  0  0  0  0  0  0  0  0  0  0  # atno 8008 bound_to 7997
  156.1009  140.3244  155.7911 H   0  0  0  0  0  0  0  0  0  0  0  0  # atno 8009 bound_to 7997
  155.4799  140.0538  157.2959 H   0  0  0  0  0  0  0  0  0  0  0  0  # atno 8010 bound_to 7997
  140.0352  143.5208  152.2157 H   0  0  0  0  0  0  0  0  0  0  0  0  # atno 10167 bound_to 10162
  155.9983  130.4844  150.5055 H   0  0  0  0  0  0  0  0  0  0  0  0  # atno 10718 bound_to 10713
  154.1469  135.6496  153.4954 H   0  0  0  0  0  0  0  0  0  0  0  0  # atno 10763 bound_to 10752
  153.0149  135.5328  154.6848 H   0  0  0  0  0  0  0  0  0  0  0  0  # atno 10764 bound_to 10752
  154.6125  135.2955  155.0387 H   0  0  0  0  0  0  0  0  0  0  0  0  # atno 10765 bound_to 10752
  140.8794  133.7664  156.0283 H   0  0  0  0  0  0  0  0  0  0  0  0  # atno 11005 bound_to 11000
  144.7525  139.7159  143.7267 LP  0  0  0  0  0  0  0  0  0  0  0  0  # atno 17320 bound_to 7965
  146.1910  139.5150  142.9805 LP  0  0  0  0  0  0  0  0  0  0  0  0  # atno 17321 bound_to 7965
  139.6050  144.7593  151.3084 LP  0  0  0  0  0  0  0  0  0  0  0  0  # atno 17342 bound_to 10162
  140.7284  143.6935  150.7903 LP  0  0  0  0  0  0  0  0  0  0  0  0  # atno 17343 bound_to 10162
  157.3035  131.0650  151.2052 LP  0  0  0  0  0  0  0  0  0  0  0  0  # atno 17370 bound_to 10713
  157.3023  130.6849  149.6170 LP  0  0  0  0  0  0  0  0  0  0  0  0  # atno 17371 bound_to 10713
  140.8479  134.2989  157.5287 LP  0  0  0  0  0  0  0  0  0  0  0  0  # atno 17394 bound_to 11000
  139.8718  134.9452  156.3902 LP  0  0  0  0  0  0  0  0  0  0  0  0  # atno 17395 bound_to 11000

$$$$
