AV-unprocessed.smi:252|AV-procd|sdf|1941|dock4
  -GOLD-   2262021 63D 1   1.00000     0.00000
 Structure written by MMmdl.
 56 59  0  0  0  0  0  0  0  0  1 V2000
  151.7056  144.3387  157.9300 C   0  0  0  0  0  0  0  0  0  0  0  0
  151.9105  144.3442  159.4531 C   0  0  0  0  0  0  0  0  0  0  0  0
  152.3762  142.9977  160.0168 C   0  0  0  0  0  0  0  0  0  0  0  0
  151.6572  142.3423  160.7721 O   0  0  0  0  0  0  0  0  0  0  0  0
  153.5987  142.5971  159.6351 N   0  0  0  0  0  0  0  0  0  0  0  0
  154.2454  141.3561  160.0482 C   0  0  1  0  0  0  0  0  0  0  0  0
  154.0630  141.1515  161.5636 C   0  0  0  0  0  0  0  0  0  0  0  0
  154.6570  139.8029  161.9998 C   0  0  0  0  0  0  0  0  0  0  0  0
  154.0655  138.6503  161.1724 C   0  0  0  0  0  0  0  0  0  0  0  0
  154.2380  138.9021  159.7446 N   0  0  0  0  0  0  0  0  0  0  0  0
  153.9279  137.8389  158.9735 C   0  0  0  0  0  0  0  0  0  0  0  0
  154.7595  136.7644  158.9309 N   0  0  0  0  0  0  0  0  0  0  0  0
  154.4496  135.7140  158.1641 C   0  0  0  0  0  0  0  0  0  0  0  0
  153.3826  135.5361  157.3810 N   0  0  0  0  0  0  0  0  0  0  0  0
  152.5507  136.6164  157.4256 C   0  0  0  0  0  0  0  0  0  0  0  0
  152.7475  137.8008  158.1879 C   0  0  0  0  0  0  0  0  0  0  0  0
  151.6958  138.6845  157.9808 N   0  0  0  0  0  0  0  0  0  0  0  0
  150.9188  138.0570  157.1398 C   0  0  0  0  0  0  0  0  0  0  0  0
  151.3565  136.8093  156.7556 N   0  0  0  0  0  0  0  0  0  0  0  0
  150.6968  135.8981  155.8346 C   0  0  0  0  0  0  0  0  0  0  0  0
  149.9491  134.7087  156.5159 C   0  0  1  0  0  0  0  0  0  0  0  0
  150.8445  133.8658  157.2287 O   0  0  0  0  0  0  0  0  0  0  0  0
  148.8558  135.1553  157.4998 C   0  0  0  0  0  0  0  0  0  0  0  0
  147.5948  134.4103  157.0580 C   0  0  0  0  0  0  0  0  0  0  0  0
  148.0701  133.3459  156.2525 O   0  0  0  0  0  0  0  0  0  0  0  0
  149.1591  133.8538  155.5003 C   0  0  2  0  0  0  0  0  0  0  0  0
  149.9295  132.7269  154.7930 C   0  0  0  0  0  0  0  0  0  0  0  0
  153.6642  140.1585  159.2697 C   0  0  0  0  0  0  0  0  0  0  0  0
  151.3840  145.3203  157.5816 H   0  0  0  0  0  0  0  0  0  0  0  0
  150.9424  143.6180  157.6339 H   0  0  0  0  0  0  0  0  0  0  0  0
  152.6282  144.0895  157.4045 H   0  0  0  0  0  0  0  0  0  0  0  0
  152.6454  145.1051  159.7184 H   0  0  0  0  0  0  0  0  0  0  0  0
  150.9777  144.6239  159.9440 H   0  0  0  0  0  0  0  0  0  0  0  0
  154.1219  143.1985  159.0154 H   0  0  0  0  0  0  0  0  0  0  0  0
  155.3155  141.4254  159.8420 H   0  0  0  0  0  0  0  0  0  0  0  0
  154.5372  141.9636  162.1160 H   0  0  0  0  0  0  0  0  0  0  0  0
  153.0022  141.1779  161.8174 H   0  0  0  0  0  0  0  0  0  0  0  0
  155.7402  139.8235  161.8732 H   0  0  0  0  0  0  0  0  0  0  0  0
  154.4713  139.6355  163.0609 H   0  0  0  0  0  0  0  0  0  0  0  0
  154.5505  137.7117  161.4446 H   0  0  0  0  0  0  0  0  0  0  0  0
  153.0035  138.5396  161.3972 H   0  0  0  0  0  0  0  0  0  0  0  0
  155.1579  134.8989  158.1804 H   0  0  0  0  0  0  0  0  0  0  0  0
  150.0003  138.4904  156.7721 H   0  0  0  0  0  0  0  0  0  0  0  0
  150.0200  136.4912  155.2197 H   0  0  0  0  0  0  0  0  0  0  0  0
  151.4547  135.5304  155.1419 H   0  0  0  0  0  0  0  0  0  0  0  0
  151.6286  133.7605  156.7118 H   0  0  0  0  0  0  0  0  0  0  0  0
  149.1117  134.8976  158.5289 H   0  0  0  0  0  0  0  0  0  0  0  0
  148.6719  136.2297  157.4858 H   0  0  0  0  0  0  0  0  0  0  0  0
  147.0057  134.0431  157.8984 H   0  0  0  0  0  0  0  0  0  0  0  0
  146.9586  135.0584  156.4533 H   0  0  0  0  0  0  0  0  0  0  0  0
  148.7285  134.5052  154.7371 H   0  0  0  0  0  0  0  0  0  0  0  0
  150.7912  133.1209  154.2537 H   0  0  0  0  0  0  0  0  0  0  0  0
  149.2900  132.2195  154.0706 H   0  0  0  0  0  0  0  0  0  0  0  0
  150.2868  131.9743  155.4959 H   0  0  0  0  0  0  0  0  0  0  0  0
  152.5799  140.1292  159.3882 H   0  0  0  0  0  0  0  0  0  0  0  0
  153.8659  140.2711  158.2034 H   0  0  0  0  0  0  0  0  0  0  0  0
  1  2  1  0  0  0  0
  1 29  1  0  0  0  0
  1 30  1  0  0  0  0
  1 31  1  0  0  0  0
  2  3  1  0  0  0  0
  2 32  1  0  0  0  0
  2 33  1  0  0  0  0
  3  4  2  0  0  0  0
  3  5  1  0  0  0  0
  5  6  1  0  0  0  0
  5 34  1  0  0  0  0
  6 28  1  0  0  0  0
  6  7  1  0  0  0  0
  6 35  1  0  0  0  0
  7  8  1  0  0  0  0
  7 36  1  0  0  0  0
  7 37  1  0  0  0  0
  8  9  1  0  0  0  0
  8 38  1  0  0  0  0
  8 39  1  0  0  0  0
  9 10  1  0  0  0  0
  9 40  1  0  0  0  0
  9 41  1  0  0  0  0
 10 11  1  0  0  0  0
 10 28  1  0  0  0  0
 11 16  1  0  0  0  0
 11 12  2  0  0  0  0
 12 13  1  0  0  0  0
 13 14  2  0  0  0  0
 13 42  1  0  0  0  0
 14 15  1  0  0  0  0
 15 19  1  0  0  0  0
 15 16  2  0  0  0  0
 16 17  1  0  0  0  0
 17 18  2  0  0  0  0
 18 19  1  0  0  0  0
 18 43  1  0  0  0  0
 19 20  1  0  0  0  0
 20 21  1  0  0  0  0
 20 44  1  0  0  0  0
 20 45  1  0  0  0  0
 21 26  1  0  0  0  0
 21 22  1  0  0  0  0
 21 23  1  0  0  0  0
 22 46  1  0  0  0  0
 23 24  1  0  0  0  0
 23 47  1  0  0  0  0
 23 48  1  0  0  0  0
 24 25  1  0  0  0  0
 24 49  1  0  0  0  0
 24 50  1  0  0  0  0
 25 26  1  0  0  0  0
 26 27  1  0  0  0  0
 26 51  1  0  0  0  0
 27 52  1  0  0  0  0
 27 53  1  0  0  0  0
 27 54  1  0  0  0  0
 28 55  1  0  0  0  0
 28 56  1  0  0  0  0
M  END
> <s_m_source_file>
AV-unprocessed.smi

> <i_m_source_file_index>
252

> <i_lp_mmshare_version>
43012

> <i_f3d_flags>
0

> <s_epik_input>
W0NIM11bQ0gyXUMoPU8pW05IXVtDQEBIXTFbQ0gyXVtDSDJdW0NIMl1OKFtDSDJdMSljKG5bY0hdbjIpYyhjMjMpbltjSF1uM1tDSDJdW0NAQF00KFtPSF0pW0NIMl1bQ0gyXU9bQ0BIXTRbQ0gzXQ==

> <s_epik_cmdline>
J2VwaWtfcHl0aG9uJywgJy1waCcsICc3LjAnLCAnLXRuJywgJzgnLCAnLW1hJywgJzIwMCcsICctbWV0YWxfYmluZGluZycsICctaW1hZScsICc8aW5maWxlLm1hZT4nLCAnLW9tYWUnLCAnPG91dGZpbGUubWFlPic=

> <r_lp_tautomer_probability>
1

> <r_epik_Ionization_Penalty>
0.00182575

> <r_epik_Ionization_Penalty_Charging>
0

> <r_epik_Ionization_Penalty_Neutral>
0.00182575

> <r_epik_State_Penalty>
0.00104524

> <r_epik_Charging_Adjusted_Penalty>
0.00104524

> <i_epik_Tot_Q>
0

> <i_epik_Tot_abs_Q>
0

> <r_epik_Metal_State_Penalty>
-0

> <b_epik_Metal_Only>
0

> <s_lp_Force_Field>
OPLS_2005

> <r_lp_Energy>
42.5457

> <b_lp_Chiralities_Consistent>
1

> <s_lp_Variant>
AV-unprocessed.smi:252-6

> <Gold.Version>
5.8.1

> <Gold.Id.Protein>
6NUR|6NUR_protein|mol2

> <Gold.PLP.Fitness>
42.8889

> <Gold.PLP.PLP>
-40.2375

> <Gold.PLP.part.hbond>
-2.9896

> <Gold.PLP.part.metal>
0.0000

> <Gold.PLP.part.buried>
-6.0179

> <Gold.PLP.part.nonpolar>
-31.4378

> <Gold.PLP.part.repulsive>
0.0909

> <Gold.PLP.ligand.clash>
0.0000

> <Gold.PLP.ligand.torsion>
0.9893

> <Gold.PLP.Chemscore.Hbond>
1.4508

> <Gold.PLP.Chemscore.CHOScore>
0.0000

> <Gold.PLP.Chemscore.Metal>
0.0000

> <Gold.Chemscore.Hbonds>
donor molecule, donor type, donor heavy atom, donor atom, acceptor molecule, acceptor atom, score
      P1  H  6896  6907       L1    22  0.53
      P1  H  6933  6945       L1     4  0.12
      P1  H 10752 10763       L1    14  1.00

> <Gold.PLP.Chemscore.Internal.Correction>
0.2776

> <Gold.Rescore>
     Score         DG    S(hbond)    S(metal)    S(lipo)     H(rot)  DE(clash)    DE(int)     intcor
     11.43     -15.42       1.90        0.00      89.81       2.70       0.07       3.92       ----

> <Gold.Chemscore.Fitness>
11.4256

> <Gold.Chemscore.DG>
-15.4162

> <Gold.Chemscore.ZeroCoef>
-5.4800

> <Gold.Chemscore.Hbond>
1.9016

> <Gold.Chemscore.Metal>
0.0000

> <Gold.Chemscore.Lipo>
89.8054

> <Gold.Chemscore.Internal_Hbond>
0.0000

> <Gold.Chemscore.DEClash>
0.0679

> <Gold.Chemscore.DEInternal>
3.9227

> <Gold.Chemscore.Rot>
2.7041

> <Gold.Chemscore.Internal.Correction>
   9.000000E+99

> <Gold.Chemscore.Hbonds>
donor molecule, donor type, donor heavy atom, donor atom, acceptor molecule, acceptor atom, score
      P1  H  6896  6907       L1    22  0.39
      P1  H  6933  6945       L1     4  0.12
      P1  H 10752 10763       L1    14  0.31

> <Gold.Chemscore.Hbond.Weighted>
-6.3515

> <Gold.Chemscore.Metal.Weighted>
-0.0000

> <Gold.Chemscore.Lipo.Weighted>
-10.5072

> <Gold.Chemscore.Internal_Hbond.Weighted>
0.0000

> <Gold.Chemscore.DEClash.Weighted>
0.0679

> <Gold.Chemscore.DEInternal.Weighted>
3.9227

> <Gold.Chemscore.Rot.Weighted>
6.9225

> <Gold.Chemscore.Internal.Correction.Weighted>
   9.000000E+99

> <Gold.Protein.RotatedTorsions>
[ 6907 6896 6895 6894 ] final -152.45 input  -60.11 | X-H torsion
[ 7974 7965 7964 7962 ] final  -80.37 input  175.53 | X-H torsion
[ 8008 7997 7996 7995 ] final  -33.01 input   59.86 | X-H torsion
[ 10167 10162 10161 10158 ] final   17.93 input  -65.29 | X-H torsion
[ 10718 10713 10712 10709 ] final  145.05 input   66.30 | X-H torsion
[ 10763 10752 10751 10750 ] final  129.05 input  -60.55 | X-H torsion
[ 11005 11000 10999 10996 ] final  -40.23 input  -57.11 | X-H torsion

> <Gold.Protein.ActiveResidues>
 VAL166  LYS551  ARG553  GLY616  TRP617  ASP618  TYR619  PRO620  LYS621  CYS622 
 ASP623  PHE694  ASN695  SER759  ASP760  ASP761  ALA762  ILE779  LEU786  VAL792 
 PHE793  MET794  SER795  GLU796  ALA797  LYS798  CYS799  TRP800  GLU811  SER814 

> <Gold.Protein.RotatedAtoms>
  151.2280  133.4466  159.2602 H   0  0  0  0  0  0  0  0  0  0  0  0  # atno 6907 bound_to 6896
  151.0821  134.9865  159.8371 H   0  0  0  0  0  0  0  0  0  0  0  0  # atno 6908 bound_to 6896
  152.5425  134.2219  159.8844 H   0  0  0  0  0  0  0  0  0  0  0  0  # atno 6909 bound_to 6896
  145.5609  140.9482  143.1448 H   0  0  0  0  0  0  0  0  0  0  0  0  # atno 7974 bound_to 7965
  154.4162  140.1722  156.1820 H   0  0  0  0  0  0  0  0  0  0  0  0  # atno 8008 bound_to 7997
  155.9674  140.3388  155.6521 H   0  0  0  0  0  0  0  0  0  0  0  0  # atno 8009 bound_to 7997
  155.6669  140.0707  157.2525 H   0  0  0  0  0  0  0  0  0  0  0  0  # atno 8010 bound_to 7997
  140.5690  143.9196  150.6699 H   0  0  0  0  0  0  0  0  0  0  0  0  # atno 10167 bound_to 10162
  157.3499  131.0949  151.1009 H   0  0  0  0  0  0  0  0  0  0  0  0  # atno 10718 bound_to 10713
  153.7354  135.3232  155.3294 H   0  0  0  0  0  0  0  0  0  0  0  0  # atno 10763 bound_to 10752
  154.8312  135.4532  154.1080 H   0  0  0  0  0  0  0  0  0  0  0  0  # atno 10764 bound_to 10752
  153.2239  135.6951  153.8049 H   0  0  0  0  0  0  0  0  0  0  0  0  # atno 10765 bound_to 10752
  141.0160  133.6885  156.2294 H   0  0  0  0  0  0  0  0  0  0  0  0  # atno 11005 bound_to 11000
  144.7483  139.7260  143.7283 LP  0  0  0  0  0  0  0  0  0  0  0  0  # atno 17320 bound_to 7965
  146.1852  139.5064  142.9841 LP  0  0  0  0  0  0  0  0  0  0  0  0  # atno 17321 bound_to 7965
  140.2666  143.3485  152.1275 LP  0  0  0  0  0  0  0  0  0  0  0  0  # atno 17342 bound_to 10162
  139.5108  144.6890  151.5811 LP  0  0  0  0  0  0  0  0  0  0  0  0  # atno 17343 bound_to 10162
  157.2189  130.6472  149.5803 LP  0  0  0  0  0  0  0  0  0  0  0  0  # atno 17370 bound_to 10713
  155.9720  130.4635  150.6186 LP  0  0  0  0  0  0  0  0  0  0  0  0  # atno 17371 bound_to 10713
  140.6654  134.4924  157.5585 LP  0  0  0  0  0  0  0  0  0  0  0  0  # atno 17394 bound_to 11000
  139.9117  134.8331  156.1505 LP  0  0  0  0  0  0  0  0  0  0  0  0  # atno 17395 bound_to 11000

$$$$
