AV-unprocessed.smi:2009|AV-procd|sdf|8146|dock1
  -GOLD-   2272010383D 1   1.00000     0.00000
 Structure written by MMmdl.
 38 39  0  0  0  0  0  0  0  0  1 V2000
  150.5728  137.6615  156.7504 C   0  0  0  0  0  0  0  0  0  0  0  0
  151.2940  138.6503  155.8218 C   0  0  1  0  0  0  0  0  0  0  0  0
  150.6088  138.8137  154.4454 C   0  0  0  0  0  0  0  0  0  0  0  0
  149.5215  139.7793  154.4404 N   0  0  0  0  0  0  0  0  0  0  0  0
  148.1738  139.5534  154.2523 C   0  0  0  0  0  0  0  0  0  0  0  0
  147.5439  140.7626  154.3263 C   0  0  0  0  0  0  0  0  0  0  0  0
  148.6041  141.6819  154.5610 C   0  0  0  0  0  0  0  0  0  0  0  0
  149.7860  141.0915  154.6251 N   0  0  0  0  0  0  0  0  0  0  0  0
  151.4162  139.9419  156.5025 N   0  0  0  0  0  0  0  0  0  0  0  0
  152.0897  140.0336  158.0879 S   0  0  0  0  0  0  0  0  0  0  0  0
  151.0852  139.5270  159.0358 O   0  0  0  0  0  0  0  0  0  0  0  0
  153.4518  139.4794  158.0634 O   0  0  0  0  0  0  0  0  0  0  0  0
  152.2000  141.7548  158.2468 N   0  0  0  0  0  0  0  0  0  0  0  0
  151.1111  142.5490  157.6444 C   0  0  0  0  0  0  0  0  0  0  0  0
  151.5014  144.0308  157.5117 C   0  0  0  0  0  0  0  0  0  0  0  0
  151.9456  144.6118  158.8572 C   0  0  0  0  0  0  0  0  0  0  0  0
  153.0904  143.7652  159.4205 C   0  0  0  0  0  0  0  0  0  0  0  0
  152.6826  142.2876  159.5393 C   0  0  0  0  0  0  0  0  0  0  0  0
  150.4632  136.6872  156.2735 H   0  0  0  0  0  0  0  0  0  0  0  0
  149.5775  138.0141  157.0226 H   0  0  0  0  0  0  0  0  0  0  0  0
  151.1330  137.5134  157.6742 H   0  0  0  0  0  0  0  0  0  0  0  0
  152.3009  138.2669  155.6530 H   0  0  0  0  0  0  0  0  0  0  0  0
  151.3318  139.0965  153.6802 H   0  0  0  0  0  0  0  0  0  0  0  0
  150.2028  137.8525  154.1276 H   0  0  0  0  0  0  0  0  0  0  0  0
  147.7802  138.5614  154.0858 H   0  0  0  0  0  0  0  0  0  0  0  0
  146.4874  140.9607  154.2261 H   0  0  0  0  0  0  0  0  0  0  0  0
  148.5510  142.7537  154.6833 H   0  0  0  0  0  0  0  0  0  0  0  0
  150.6063  140.5492  156.3808 H   0  0  0  0  0  0  0  0  0  0  0  0
  150.8673  142.1510  156.6594 H   0  0  0  0  0  0  0  0  0  0  0  0
  150.2156  142.4439  158.2582 H   0  0  0  0  0  0  0  0  0  0  0  0
  152.3085  144.1307  156.7850 H   0  0  0  0  0  0  0  0  0  0  0  0
  150.6600  144.6023  157.1194 H   0  0  0  0  0  0  0  0  0  0  0  0
  152.2653  145.6469  158.7357 H   0  0  0  0  0  0  0  0  0  0  0  0
  151.1078  144.6184  159.5554 H   0  0  0  0  0  0  0  0  0  0  0  0
  153.9643  143.8514  158.7731 H   0  0  0  0  0  0  0  0  0  0  0  0
  153.3904  144.1470  160.3965 H   0  0  0  0  0  0  0  0  0  0  0  0
  151.8956  142.1705  160.2853 H   0  0  0  0  0  0  0  0  0  0  0  0
  153.5343  141.7067  159.8916 H   0  0  0  0  0  0  0  0  0  0  0  0
  1  2  1  0  0  0  0
  1 19  1  0  0  0  0
  1 20  1  0  0  0  0
  1 21  1  0  0  0  0
  2  3  1  0  0  0  0
  2  9  1  0  0  0  0
  2 22  1  0  0  0  0
  3  4  1  0  0  0  0
  3 23  1  0  0  0  0
  3 24  1  0  0  0  0
  4  8  1  0  0  0  0
  4  5  1  0  0  0  0
  5  6  2  0  0  0  0
  5 25  1  0  0  0  0
  6  7  1  0  0  0  0
  6 26  1  0  0  0  0
  7  8  2  0  0  0  0
  7 27  1  0  0  0  0
  9 10  1  0  0  0  0
  9 28  1  0  0  0  0
 10 11  2  0  0  0  0
 10 12  2  0  0  0  0
 10 13  1  0  0  0  0
 13 18  1  0  0  0  0
 13 14  1  0  0  0  0
 14 15  1  0  0  0  0
 14 29  1  0  0  0  0
 14 30  1  0  0  0  0
 15 16  1  0  0  0  0
 15 31  1  0  0  0  0
 15 32  1  0  0  0  0
 16 17  1  0  0  0  0
 16 33  1  0  0  0  0
 16 34  1  0  0  0  0
 17 18  1  0  0  0  0
 17 35  1  0  0  0  0
 17 36  1  0  0  0  0
 18 37  1  0  0  0  0
 18 38  1  0  0  0  0
M  END
> <s_m_source_file>
AV-unprocessed.smi

> <i_m_source_file_index>
2009

> <i_lp_mmshare_version>
43012

> <i_f3d_flags>
0

> <s_epik_input>
bjFbY0hdW2NIXVtjSF1uMVtDSDJdW0NAQEhdKFtDSDNdKVtOSF1TKD1PKSg9TylOMltDSDJdW0NIMl1bQ0gyXVtDSDJdW0NIMl0y

> <s_epik_cmdline>
J2VwaWtfcHl0aG9uJywgJy1waCcsICc3LjAnLCAnLXRuJywgJzgnLCAnLW1hJywgJzIwMCcsICctbWV0YWxfYmluZGluZycsICctaW1hZScsICc8aW5maWxlLm1hZT4nLCAnLW9tYWUnLCAnPG91dGZpbGUubWFlPic=

> <r_lp_tautomer_probability>
1

> <r_epik_Ionization_Penalty>
0.0313937

> <r_epik_Ionization_Penalty_Charging>
0

> <r_epik_Ionization_Penalty_Neutral>
0.0313937

> <r_epik_State_Penalty>
0.0259441

> <r_epik_Charging_Adjusted_Penalty>
0.0259441

> <i_epik_Tot_Q>
0

> <i_epik_Tot_abs_Q>
0

> <r_epik_Metal_State_Penalty>
0.365037

> <b_epik_Metal_Only>
0

> <s_lp_Force_Field>
OPLS_2005

> <r_lp_Energy>
8.11637

> <b_lp_Chiralities_Consistent>
1

> <s_lp_Variant>
AV-unprocessed.smi:2009-2

> <Gold.Version>
5.8.1

> <Gold.Id.Protein>
6NUR|6NUR_protein|mol2

> <Gold.PLP.Fitness>
42.7015

> <Gold.PLP.PLP>
-36.6110

> <Gold.PLP.part.hbond>
-2.0000

> <Gold.PLP.part.metal>
0.0000

> <Gold.PLP.part.buried>
-1.6823

> <Gold.PLP.part.nonpolar>
-31.6438

> <Gold.PLP.part.repulsive>
0.1427

> <Gold.PLP.ligand.clash>
0.0000

> <Gold.PLP.ligand.torsion>
0.9402

> <Gold.PLP.Chemscore.Hbond>
1.3744

> <Gold.PLP.Chemscore.CHOScore>
1.0000

> <Gold.PLP.Chemscore.Metal>
0.0000

> <Gold.Chemscore.Hbonds>
donor molecule, donor type, donor heavy atom, donor atom, acceptor molecule, acceptor atom, score
      P1  H  7989  7998       L1     8  0.22
      P1  H  7997  8009       L1    12  1.00
      L1  C     7    27       P1  8028  1.00

> <Gold.PLP.Chemscore.Internal.Correction>
0.8478

> <Gold.Rescore>
     Score         DG    S(hbond)    S(metal)    S(lipo)     H(rot)  DE(clash)    DE(int)     intcor
     14.83     -17.31       1.67        0.00      93.44       1.82       0.36       2.12       ----

> <Gold.Chemscore.Fitness>
14.8343

> <Gold.Chemscore.DG>
-17.3122

> <Gold.Chemscore.ZeroCoef>
-5.4800

> <Gold.Chemscore.Hbond>
1.6673

> <Gold.Chemscore.Metal>
0.0000

> <Gold.Chemscore.Lipo>
93.4365

> <Gold.Chemscore.Internal_Hbond>
0.0000

> <Gold.Chemscore.DEClash>
0.3564

> <Gold.Chemscore.DEInternal>
2.1215

> <Gold.Chemscore.Rot>
1.8237

> <Gold.Chemscore.Internal.Correction>
   9.000000E+99

> <Gold.Chemscore.Hbonds>
donor molecule, donor type, donor heavy atom, donor atom, acceptor molecule, acceptor atom, score
      P1  H  7989  7998       L1     8  0.01
      P1  H  7997  8009       L1    12  0.98

> <Gold.Chemscore.Hbond.Weighted>
-5.5687

> <Gold.Chemscore.Metal.Weighted>
-0.0000

> <Gold.Chemscore.Lipo.Weighted>
-10.9321

> <Gold.Chemscore.Internal_Hbond.Weighted>
0.0000

> <Gold.Chemscore.DEClash.Weighted>
0.3564

> <Gold.Chemscore.DEInternal.Weighted>
2.1215

> <Gold.Chemscore.Rot.Weighted>
4.6686

> <Gold.Chemscore.Internal.Correction.Weighted>
   9.000000E+99

> <Gold.Protein.RotatedTorsions>
[ 6907 6896 6895 6894 ] final   18.60 input  -60.11 | X-H torsion
[ 7974 7965 7964 7962 ] final  -75.95 input  175.53 | X-H torsion
[ 8008 7997 7996 7995 ] final  156.36 input   59.86 | X-H torsion
[ 10167 10162 10161 10158 ] final   61.83 input  -65.29 | X-H torsion
[ 10718 10713 10712 10709 ] final  116.36 input   66.30 | X-H torsion
[ 10763 10752 10751 10750 ] final  150.39 input  -60.55 | X-H torsion
[ 11005 11000 10999 10996 ] final -107.77 input  -57.11 | X-H torsion

> <Gold.Protein.ActiveResidues>
 VAL166  LYS551  ARG553  GLY616  TRP617  ASP618  TYR619  PRO620  LYS621  CYS622 
 ASP623  PHE694  ASN695  SER759  ASP760  ASP761  ALA762  ILE779  LEU786  VAL792 
 PHE793  MET794  SER795  GLU796  ALA797  LYS798  CYS799  TRP800  GLU811  SER814 

> <Gold.Protein.RotatedAtoms>
  151.8677  135.0501  160.0475 H   0  0  0  0  0  0  0  0  0  0  0  0  # atno 6907 bound_to 6896
  152.2613  133.5295  159.5391 H   0  0  0  0  0  0  0  0  0  0  0  0  # atno 6908 bound_to 6896
  150.7117  134.0742  159.3917 H   0  0  0  0  0  0  0  0  0  0  0  0  # atno 6909 bound_to 6896
  145.6193  140.9367  143.1147 H   0  0  0  0  0  0  0  0  0  0  0  0  # atno 7974 bound_to 7965
  156.2427  140.1914  156.6943 H   0  0  0  0  0  0  0  0  0  0  0  0  # atno 8008 bound_to 7997
  154.6228  140.0606  156.9663 H   0  0  0  0  0  0  0  0  0  0  0  0  # atno 8009 bound_to 7997
  155.1834  140.3278  155.4373 H   0  0  0  0  0  0  0  0  0  0  0  0  # atno 8010 bound_to 7997
  140.1505  144.4467  150.6762 H   0  0  0  0  0  0  0  0  0  0  0  0  # atno 10167 bound_to 10162
  157.6165  131.1024  150.7462 H   0  0  0  0  0  0  0  0  0  0  0  0  # atno 10718 bound_to 10713
  154.0868  135.2855  155.3279 H   0  0  0  0  0  0  0  0  0  0  0  0  # atno 10763 bound_to 10752
  154.6647  135.5321  153.8065 H   0  0  0  0  0  0  0  0  0  0  0  0  # atno 10764 bound_to 10752
  153.0428  135.6542  154.1039 H   0  0  0  0  0  0  0  0  0  0  0  0  # atno 10765 bound_to 10752
  141.0937  133.9010  157.2015 H   0  0  0  0  0  0  0  0  0  0  0  0  # atno 11005 bound_to 11000
  144.7238  139.7943  143.7372 LP  0  0  0  0  0  0  0  0  0  0  0  0  # atno 17320 bound_to 7965
  146.1444  139.4509  143.0088 LP  0  0  0  0  0  0  0  0  0  0  0  0  # atno 17321 bound_to 7965
  140.6705  143.2284  151.5637 LP  0  0  0  0  0  0  0  0  0  0  0  0  # atno 17342 bound_to 10162
  139.5428  144.2602  152.1384 LP  0  0  0  0  0  0  0  0  0  0  0  0  # atno 17343 bound_to 10162
  156.7828  130.4865  149.5398 LP  0  0  0  0  0  0  0  0  0  0  0  0  # atno 17370 bound_to 10713
  156.1289  130.6164  151.0305 LP  0  0  0  0  0  0  0  0  0  0  0  0  # atno 17371 bound_to 10713
  139.9768  135.0111  156.9652 LP  0  0  0  0  0  0  0  0  0  0  0  0  # atno 17394 bound_to 11000
  140.5191  134.0925  155.7288 LP  0  0  0  0  0  0  0  0  0  0  0  0  # atno 17395 bound_to 11000

$$$$
