AV-unprocessed.smi:2329|AV-procd|sdf|9309|dock3
  -GOLD-   2272012523D 1   1.00000     0.00000
 Structure written by MMmdl.
 45 48  0  0  0  0  0  0  0  0  1 V2000
  153.4900  141.3595  160.8072 C   0  0  0  0  0  0  0  0  0  0  0  0
  152.7663  142.5411  160.1961 C   0  0  0  0  0  0  0  0  0  0  0  0
  152.7430  143.7918  160.8442 C   0  0  0  0  0  0  0  0  0  0  0  0
  152.0525  144.8476  160.2229 C   0  0  0  0  0  0  0  0  0  0  0  0
  151.4183  144.6114  158.9882 C   0  0  0  0  0  0  0  0  0  0  0  0
  151.4907  143.3266  158.4048 C   0  0  0  0  0  0  0  0  0  0  0  0
  150.8121  143.1917  157.1662 N   0  0  0  0  0  0  0  0  0  0  0  0
  150.5660  142.0698  156.4622 C   0  0  0  0  0  0  0  0  0  0  0  0
  151.0054  140.9555  156.7402 O   0  0  0  0  0  0  0  0  0  0  0  0
  149.7839  142.2627  155.3857 N   0  0  0  0  0  0  0  0  0  0  0  0
  149.3312  141.2613  154.4187 C   0  0  1  0  0  0  0  0  0  0  0  0
  149.0890  139.9006  155.0736 C   0  0  2  0  0  0  0  0  0  0  0  0
  149.7567  138.5739  154.9928 C   0  0  0  0  0  0  0  0  0  0  0  0
  148.4852  137.7026  154.8129 C   0  0  0  0  0  0  0  0  0  0  0  0
  147.3993  138.6301  154.5727 O   0  0  0  0  0  0  0  0  0  0  0  0
  148.0353  139.7526  153.9965 C   0  0  1  0  0  0  0  0  0  0  0  0
  147.7745  141.2640  154.1528 C   0  0  0  0  0  0  0  0  0  0  0  0
  146.8030  141.7343  155.2497 C   0  0  0  0  0  0  0  0  0  0  0  0
  146.3177  143.1230  154.8457 C   0  0  0  0  0  0  0  0  0  0  0  0
  146.2796  143.0853  153.3220 C   0  0  0  0  0  0  0  0  0  0  0  0
  147.2790  142.0007  152.9015 C   0  0  0  0  0  0  0  0  0  0  0  0
  152.1590  142.3143  159.0114 N   0  0  0  0  0  0  0  0  0  0  0  0
  153.8688  141.5985  161.8013 H   0  0  0  0  0  0  0  0  0  0  0  0
  154.3337  141.0679  160.1811 H   0  0  0  0  0  0  0  0  0  0  0  0
  152.8172  140.5062  160.8965 H   0  0  0  0  0  0  0  0  0  0  0  0
  153.2396  143.9409  161.7917 H   0  0  0  0  0  0  0  0  0  0  0  0
  152.0088  145.8229  160.6848 H   0  0  0  0  0  0  0  0  0  0  0  0
  150.8827  145.4114  158.4980 H   0  0  0  0  0  0  0  0  0  0  0  0
  150.4161  144.0424  156.7948 H   0  0  0  0  0  0  0  0  0  0  0  0
  149.4877  143.2117  155.2077 H   0  0  0  0  0  0  0  0  0  0  0  0
  149.9468  141.1973  153.5165 H   0  0  0  0  0  0  0  0  0  0  0  0
  148.6533  140.0284  156.0694 H   0  0  0  0  0  0  0  0  0  0  0  0
  150.4246  138.5057  154.1330 H   0  0  0  0  0  0  0  0  0  0  0  0
  150.3122  138.3231  155.8968 H   0  0  0  0  0  0  0  0  0  0  0  0
  148.5976  137.0216  153.9682 H   0  0  0  0  0  0  0  0  0  0  0  0
  148.2685  137.1082  155.7007 H   0  0  0  0  0  0  0  0  0  0  0  0
  148.4395  139.5037  153.0084 H   0  0  0  0  0  0  0  0  0  0  0  0
  145.9501  141.0562  155.3020 H   0  0  0  0  0  0  0  0  0  0  0  0
  147.2441  141.7591  156.2461 H   0  0  0  0  0  0  0  0  0  0  0  0
  145.3520  143.3752  155.2848 H   0  0  0  0  0  0  0  0  0  0  0  0
  147.0362  143.8739  155.1752 H   0  0  0  0  0  0  0  0  0  0  0  0
  145.2793  142.8101  152.9858 H   0  0  0  0  0  0  0  0  0  0  0  0
  146.5167  144.0567  152.8862 H   0  0  0  0  0  0  0  0  0  0  0  0
  148.1098  142.4466  152.3550 H   0  0  0  0  0  0  0  0  0  0  0  0
  146.7980  141.3103  152.2076 H   0  0  0  0  0  0  0  0  0  0  0  0
  1  2  1  0  0  0  0
  1 23  1  0  0  0  0
  1 24  1  0  0  0  0
  1 25  1  0  0  0  0
  2 22  1  0  0  0  0
  2  3  2  0  0  0  0
  3  4  1  0  0  0  0
  3 26  1  0  0  0  0
  4  5  2  0  0  0  0
  4 27  1  0  0  0  0
  5  6  1  0  0  0  0
  5 28  1  0  0  0  0
  6  7  1  0  0  0  0
  6 22  2  0  0  0  0
  7  8  1  0  0  0  0
  7 29  1  0  0  0  0
  8  9  2  0  0  0  0
  8 10  1  0  0  0  0
 10 11  1  0  0  0  0
 10 30  1  0  0  0  0
 11 17  1  0  0  0  0
 11 12  1  0  0  0  0
 11 31  1  0  0  0  0
 12 16  1  0  0  0  0
 12 13  1  0  0  0  0
 12 32  1  0  0  0  0
 13 14  1  0  0  0  0
 13 33  1  0  0  0  0
 13 34  1  0  0  0  0
 14 15  1  0  0  0  0
 14 35  1  0  0  0  0
 14 36  1  0  0  0  0
 15 16  1  0  0  0  0
 16 17  1  0  0  0  0
 16 37  1  0  0  0  0
 17 21  1  0  0  0  0
 17 18  1  0  0  0  0
 18 19  1  0  0  0  0
 18 38  1  0  0  0  0
 18 39  1  0  0  0  0
 19 20  1  0  0  0  0
 19 40  1  0  0  0  0
 19 41  1  0  0  0  0
 20 21  1  0  0  0  0
 20 42  1  0  0  0  0
 20 43  1  0  0  0  0
 21 44  1  0  0  0  0
 21 45  1  0  0  0  0
M  END
> <s_m_source_file>
AV-unprocessed.smi

> <i_m_source_file_index>
2329

> <i_lp_mmshare_version>
43012

> <i_f3d_flags>
0

> <s_epik_input>
W0NIM11jMVtjSF1bY0hdW2NIXWMobjEpW05IXUMoPU8pW05IXVtDQEBIXTJbQ0BASF0oW0NIMl1bQ0gyXU8zKVtDQEhdM0MyNFtDSDJdW0NIMl1bQ0gyXVtDSDJdNA==

> <s_epik_cmdline>
J2VwaWtfcHl0aG9uJywgJy1waCcsICc3LjAnLCAnLXRuJywgJzgnLCAnLW1hJywgJzIwMCcsICctbWV0YWxfYmluZGluZycsICctaW1hZScsICc8aW5maWxlLm1hZT4nLCAnLW9tYWUnLCAnPG91dGZpbGUubWFlPic=

> <r_lp_tautomer_probability>
1

> <r_epik_Ionization_Penalty>
8.97002e-05

> <r_epik_Ionization_Penalty_Charging>
0

> <r_epik_Ionization_Penalty_Neutral>
8.97002e-05

> <r_epik_State_Penalty>
-0

> <r_epik_Charging_Adjusted_Penalty>
0

> <i_epik_Tot_Q>
0

> <i_epik_Tot_abs_Q>
0

> <r_epik_Metal_State_Penalty>
-0

> <b_epik_Metal_Only>
0

> <s_lp_Force_Field>
OPLS_2005

> <r_lp_Energy>
86.4026

> <b_lp_Chiralities_Consistent>
1

> <s_lp_Variant>
AV-unprocessed.smi:2329-8

> <Gold.Version>
5.8.1

> <Gold.Id.Protein>
6NUR|6NUR_protein|mol2

> <Gold.PLP.Fitness>
49.1122

> <Gold.PLP.PLP>
-43.6177

> <Gold.PLP.part.hbond>
-2.0000

> <Gold.PLP.part.metal>
0.0000

> <Gold.PLP.part.buried>
-6.8667

> <Gold.PLP.part.nonpolar>
-34.6737

> <Gold.PLP.part.repulsive>
0.3285

> <Gold.PLP.ligand.clash>
0.0000

> <Gold.PLP.ligand.torsion>
0.2362

> <Gold.PLP.Chemscore.Hbond>
1.8960

> <Gold.PLP.Chemscore.CHOScore>
0.0000

> <Gold.PLP.Chemscore.Metal>
0.0000

> <Gold.Chemscore.Hbonds>
donor molecule, donor type, donor heavy atom, donor atom, acceptor molecule, acceptor atom, score
      L1  H     7    29       P1  8028  0.86
      L1  H    10    30       P1  8028  1.00

> <Gold.PLP.Chemscore.Internal.Correction>
0.2789

> <Gold.Rescore>
     Score         DG    S(hbond)    S(metal)    S(lipo)     H(rot)  DE(clash)    DE(int)     intcor
     18.66     -23.12       1.92        0.00     117.83       1.00       1.48       2.98       ----

> <Gold.Chemscore.Fitness>
18.6616

> <Gold.Chemscore.DG>
-23.1196

> <Gold.Chemscore.ZeroCoef>
-5.4800

> <Gold.Chemscore.Hbond>
1.9203

> <Gold.Chemscore.Metal>
0.0000

> <Gold.Chemscore.Lipo>
117.8263

> <Gold.Chemscore.Internal_Hbond>
0.0000

> <Gold.Chemscore.DEClash>
1.4762

> <Gold.Chemscore.DEInternal>
2.9818

> <Gold.Chemscore.Rot>
1.0000

> <Gold.Chemscore.Internal.Correction>
   9.000000E+99

> <Gold.Chemscore.Hbonds>
donor molecule, donor type, donor heavy atom, donor atom, acceptor molecule, acceptor atom, score
      L1  H     7    29       P1  8028  0.81
      L1  H    10    30       P1  8028  0.98

> <Gold.Chemscore.Hbond.Weighted>
-6.4139

> <Gold.Chemscore.Metal.Weighted>
-0.0000

> <Gold.Chemscore.Lipo.Weighted>
-13.7857

> <Gold.Chemscore.Internal_Hbond.Weighted>
0.0000

> <Gold.Chemscore.DEClash.Weighted>
1.4762

> <Gold.Chemscore.DEInternal.Weighted>
2.9818

> <Gold.Chemscore.Rot.Weighted>
2.5600

> <Gold.Chemscore.Internal.Correction.Weighted>
   9.000000E+99

> <Gold.Protein.RotatedTorsions>
[ 6907 6896 6895 6894 ] final  123.83 input  -60.11 | X-H torsion
[ 7974 7965 7964 7962 ] final  -59.36 input  175.53 | X-H torsion
[ 8008 7997 7996 7995 ] final  127.35 input   59.86 | X-H torsion
[ 10167 10162 10161 10158 ] final   65.60 input  -65.29 | X-H torsion
[ 10718 10713 10712 10709 ] final  171.70 input   66.30 | X-H torsion
[ 10763 10752 10751 10750 ] final -169.30 input  -60.55 | X-H torsion
[ 11005 11000 10999 10996 ] final  -72.96 input  -57.11 | X-H torsion

> <Gold.Protein.ActiveResidues>
 VAL166  LYS551  ARG553  GLY616  TRP617  ASP618  TYR619  PRO620  LYS621  CYS622 
 ASP623  PHE694  ASN695  SER759  ASP760  ASP761  ALA762  ILE779  LEU786  VAL792 
 PHE793  MET794  SER795  GLU796  ALA797  LYS798  CYS799  TRP800  GLU811  SER814 

> <Gold.Protein.RotatedAtoms>
  152.4129  133.6991  159.6412 H   0  0  0  0  0  0  0  0  0  0  0  0  # atno 6907 bound_to 6896
  150.8008  133.8592  159.3236 H   0  0  0  0  0  0  0  0  0  0  0  0  # atno 6908 bound_to 6896
  151.6330  135.1023  160.0177 H   0  0  0  0  0  0  0  0  0  0  0  0  # atno 6909 bound_to 6896
  145.8284  140.8495  143.0096 H   0  0  0  0  0  0  0  0  0  0  0  0  # atno 7974 bound_to 7965
  156.2888  140.2671  156.2258 H   0  0  0  0  0  0  0  0  0  0  0  0  # atno 8008 bound_to 7997
  155.0122  140.0387  157.2422 H   0  0  0  0  0  0  0  0  0  0  0  0  # atno 8009 bound_to 7997
  154.7508  140.2742  155.6299 H   0  0  0  0  0  0  0  0  0  0  0  0  # atno 8010 bound_to 7997
  140.1095  144.4831  150.6986 H   0  0  0  0  0  0  0  0  0  0  0  0  # atno 10167 bound_to 10162
  156.9897  131.0144  151.2860 H   0  0  0  0  0  0  0  0  0  0  0  0  # atno 10718 bound_to 10713
  154.6538  135.2915  154.9953 H   0  0  0  0  0  0  0  0  0  0  0  0  # atno 10763 bound_to 10752
  154.1037  135.6573  153.4876 H   0  0  0  0  0  0  0  0  0  0  0  0  # atno 10764 bound_to 10752
  153.0391  135.5248  154.7458 H   0  0  0  0  0  0  0  0  0  0  0  0  # atno 10765 bound_to 10752
  141.1616  133.6863  156.7139 H   0  0  0  0  0  0  0  0  0  0  0  0  # atno 11005 bound_to 11000
  144.6741  140.0636  143.7475 LP  0  0  0  0  0  0  0  0  0  0  0  0  # atno 17320 bound_to 7965
  145.9598  139.2792  143.1162 LP  0  0  0  0  0  0  0  0  0  0  0  0  # atno 17321 bound_to 7965
  140.6933  143.2389  151.5070 LP  0  0  0  0  0  0  0  0  0  0  0  0  # atno 17342 bound_to 10162
  139.5627  144.2118  152.1716 LP  0  0  0  0  0  0  0  0  0  0  0  0  # atno 17343 bound_to 10162
  157.5467  130.8155  149.8095 LP  0  0  0  0  0  0  0  0  0  0  0  0  # atno 17370 bound_to 10713
  156.0212  130.3795  150.1957 LP  0  0  0  0  0  0  0  0  0  0  0  0  # atno 17371 bound_to 10713
  140.2866  134.8274  157.3980 LP  0  0  0  0  0  0  0  0  0  0  0  0  # atno 17394 bound_to 11000
  140.1384  134.5003  155.8050 LP  0  0  0  0  0  0  0  0  0  0  0  0  # atno 17395 bound_to 11000

$$$$
