AV-unprocessed.smi:3329|AV-procd|sdf|12800|dock4
  -GOLD-   2272019163D 1   1.00000     0.00000
 Structure written by MMmdl.
 41 42  0  0  0  0  0  0  0  0  3 V2000
  153.3916  142.6594  163.2441 C   0  0  0  0  0  0  0  0  0  0  0  0
  152.8997  142.4923  161.8354 C   0  0  0  0  0  0  0  0  0  0  0  0
  153.3529  141.5610  160.8585 C   0  0  0  0  0  0  0  0  0  0  0  0
  152.7113  141.6704  159.7065 N   0  0  0  0  0  0  0  0  0  0  0  0
  151.8277  142.6705  159.9063 N   0  0  0  0  0  0  0  0  0  0  0  0
  150.9282  143.0620  158.8356 C   0  0  0  0  0  0  0  0  0  0  0  0
  151.5389  142.8103  157.4473 C   0  0  0  0  0  0  0  0  0  0  0  0
  150.4847  142.6144  156.4346 N   0  3  0  0  0  0  0  0  0  0  0  0
  149.6820  141.3874  156.6024 C   0  0  0  0  0  0  0  0  0  0  0  0
  150.1836  140.3257  155.6222 C   0  0  0  0  0  0  0  0  0  0  0  0
  150.2589  140.5981  154.4254 O   0  0  0  0  0  0  0  0  0  0  0  0
  150.4803  139.1621  156.2550 N   0  5  0  0  0  0  0  0  0  0  0  0
  151.6914  138.3860  155.9897 C   0  0  2  0  0  0  0  0  0  0  0  0
  152.6090  139.1593  155.0223 C   0  0  0  0  0  0  0  0  0  0  0  0
  151.3579  137.0606  155.4226 C   0  0  0  0  0  0  0  0  0  0  0  0
  151.0971  136.0232  154.9793 N   0  0  0  0  0  0  0  0  0  0  0  0
  152.4032  138.2162  157.3310 C   0  0  0  0  0  0  0  0  0  0  0  0
  151.6555  137.8880  158.6047 C   0  0  0  0  0  0  0  0  0  0  0  0
  152.3098  139.2408  158.4406 C   0  0  0  0  0  0  0  0  0  0  0  0
  151.9211  143.1865  161.1821 C   0  0  0  0  0  0  0  0  0  0  0  0
  154.3765  143.1255  163.2725 H   0  0  0  0  0  0  0  0  0  0  0  0
  153.4743  141.7011  163.7571 H   0  0  0  0  0  0  0  0  0  0  0  0
  152.7229  143.2837  163.8370 H   0  0  0  0  0  0  0  0  0  0  0  0
  154.1253  140.8117  160.9529 H   0  0  0  0  0  0  0  0  0  0  0  0
  149.9914  142.5138  158.9454 H   0  0  0  0  0  0  0  0  0  0  0  0
  150.6889  144.1196  158.9550 H   0  0  0  0  0  0  0  0  0  0  0  0
  152.1613  143.6559  157.1530 H   0  0  0  0  0  0  0  0  0  0  0  0
  152.1855  141.9320  157.4771 H   0  0  0  0  0  0  0  0  0  0  0  0
  149.8412  143.3919  156.4907 H   0  0  0  0  0  0  0  0  0  0  0  0
  149.7668  141.0282  157.6289 H   0  0  0  0  0  0  0  0  0  0  0  0
  148.6277  141.5930  156.4098 H   0  0  0  0  0  0  0  0  0  0  0  0
  153.5507  138.6295  154.8746 H   0  0  0  0  0  0  0  0  0  0  0  0
  152.8488  140.1523  155.4045 H   0  0  0  0  0  0  0  0  0  0  0  0
  152.1538  139.2828  154.0394 H   0  0  0  0  0  0  0  0  0  0  0  0
  153.3734  137.7300  157.2361 H   0  0  0  0  0  0  0  0  0  0  0  0
  150.5687  137.8478  158.5695 H   0  0  0  0  0  0  0  0  0  0  0  0
  152.1225  137.1852  159.2916 H   0  0  0  0  0  0  0  0  0  0  0  0
  153.2128  139.4337  159.0154 H   0  0  0  0  0  0  0  0  0  0  0  0
  151.6625  140.1026  158.2934 H   0  0  0  0  0  0  0  0  0  0  0  0
  151.2872  143.9935  161.5190 H   0  0  0  0  0  0  0  0  0  0  0  0
  150.8969  142.6082  155.5131 H   0  0  0  0  0  0  0  0  0  0  0  0
  1  2  1  0  0  0  0
  1 21  1  0  0  0  0
  1 22  1  0  0  0  0
  1 23  1  0  0  0  0
  2 20  2  0  0  0  0
  2  3  1  0  0  0  0
  3  4  2  0  0  0  0
  3 24  1  0  0  0  0
  4  5  1  0  0  0  0
  5  6  1  0  0  0  0
  5 20  1  0  0  0  0
  6  7  1  0  0  0  0
  6 25  1  0  0  0  0
  6 26  1  0  0  0  0
  7  8  1  0  0  0  0
  7 27  1  0  0  0  0
  7 28  1  0  0  0  0
  8  9  1  0  0  0  0
  8 29  1  0  0  0  0
  8 41  1  0  0  0  0
  9 10  1  0  0  0  0
  9 30  1  0  0  0  0
  9 31  1  0  0  0  0
 10 11  2  0  0  0  0
 10 12  1  0  0  0  0
 12 13  1  0  0  0  0
 13 14  1  0  0  0  0
 13 15  1  0  0  0  0
 13 17  1  0  0  0  0
 14 32  1  0  0  0  0
 14 33  1  0  0  0  0
 14 34  1  0  0  0  0
 15 16  3  0  0  0  0
 17 19  1  0  0  0  0
 17 18  1  0  0  0  0
 17 35  1  0  0  0  0
 18 19  1  0  0  0  0
 18 36  1  0  0  0  0
 18 37  1  0  0  0  0
 19 38  1  0  0  0  0
 19 39  1  0  0  0  0
 20 40  1  0  0  0  0
M  CHG  1   8   1
M  CHG  1  12  -1
M  END
> <s_m_source_file>
AV-unprocessed.smi

> <i_m_source_file_index>
3329

> <i_lp_mmshare_version>
43012

> <i_f3d_flags>
0

> <s_epik_input>
W0NIM11jMVtjSF1ubihbY0hdMSlbQ0gyXVtDSDJdW05IXVtDSDJdQyg9TylbTkhdW0NAQF0oW0NIM10pKEMjTilbQ0hdMltDSDJdW0NIMl0y

> <s_epik_cmdline>
J2VwaWtfcHl0aG9uJywgJy1waCcsICc3LjAnLCAnLXRuJywgJzgnLCAnLW1hJywgJzIwMCcsICctbWV0YWxfYmluZGluZycsICctaW1hZScsICc8aW5maWxlLm1hZT4nLCAnLW9tYWUnLCAnPG91dGZpbGUubWFlPic=

> <r_lp_tautomer_probability>
1

> <r_epik_Ionization_Penalty>
5.61187

> <r_epik_Ionization_Penalty_Charging>
5.61186

> <r_epik_Ionization_Penalty_Neutral>
4.91277e-06

> <r_epik_State_Penalty>
5.94522

> <r_epik_Charging_Adjusted_Penalty>
11.5571

> <i_epik_Tot_Q>
0

> <i_epik_Tot_abs_Q>
2

> <r_epik_Metal_State_Penalty>
1.9215

> <b_epik_Metal_Only>
1

> <s_lp_Force_Field>
OPLS_2005

> <r_lp_Energy>
5.18635

> <b_lp_Chiralities_Consistent>
1

> <s_lp_Variant>
AV-unprocessed.smi:3329-6

> <Gold.Version>
5.8.1

> <Gold.Id.Protein>
6NUR|6NUR_protein|mol2

> <Gold.PLP.Fitness>
48.8027

> <Gold.PLP.PLP>
-39.6331

> <Gold.PLP.part.hbond>
-3.0000

> <Gold.PLP.part.metal>
0.0000

> <Gold.PLP.part.buried>
-5.4116

> <Gold.PLP.part.nonpolar>
-31.1075

> <Gold.PLP.part.repulsive>
0.3168

> <Gold.PLP.ligand.clash>
0.0000

> <Gold.PLP.ligand.torsion>
2.0429

> <Gold.PLP.Chemscore.Hbond>
3.8480

> <Gold.PLP.Chemscore.CHOScore>
0.0000

> <Gold.PLP.Chemscore.Metal>
0.0000

> <Gold.Chemscore.Hbonds>
donor molecule, donor type, donor heavy atom, donor atom, acceptor molecule, acceptor atom, score
      L1  H     8    29       P1  8028  2.00
      P1  H  7989  7998       L1    11  0.86
      P1  H 10752 10764       L1    16  0.75

> <Gold.PLP.Chemscore.Internal.Correction>
1.7113

> <Gold.Rescore>
     Score         DG    S(hbond)    S(metal)    S(lipo)     H(rot)  DE(clash)    DE(int)     intcor
     16.02     -19.77       2.58        0.00      99.20       2.31       0.27       3.48       ----

> <Gold.Chemscore.Fitness>
16.0162

> <Gold.Chemscore.DG>
-19.7731

> <Gold.Chemscore.ZeroCoef>
-5.4800

> <Gold.Chemscore.Hbond>
2.5778

> <Gold.Chemscore.Metal>
0.0000

> <Gold.Chemscore.Lipo>
99.2038

> <Gold.Chemscore.Internal_Hbond>
0.0000

> <Gold.Chemscore.DEClash>
0.2744

> <Gold.Chemscore.DEInternal>
3.4824

> <Gold.Chemscore.Rot>
2.3140

> <Gold.Chemscore.Internal.Correction>
   9.000000E+99

> <Gold.Chemscore.Hbonds>
donor molecule, donor type, donor heavy atom, donor atom, acceptor molecule, acceptor atom, score
      L1  H     8    29       P1  8028  0.94
      P1  H  7989  7998       L1    11  0.85
      P1  H 10752 10764       L1    16  0.09

> <Gold.Chemscore.Hbond.Weighted>
-8.6100

> <Gold.Chemscore.Metal.Weighted>
-0.0000

> <Gold.Chemscore.Lipo.Weighted>
-11.6068

> <Gold.Chemscore.Internal_Hbond.Weighted>
0.0000

> <Gold.Chemscore.DEClash.Weighted>
0.2744

> <Gold.Chemscore.DEInternal.Weighted>
3.4824

> <Gold.Chemscore.Rot.Weighted>
5.9238

> <Gold.Chemscore.Internal.Correction.Weighted>
   9.000000E+99

> <Gold.Protein.RotatedTorsions>
[ 6907 6896 6895 6894 ] final   69.64 input  -60.11 | X-H torsion
[ 7974 7965 7964 7962 ] final  -71.99 input  175.53 | X-H torsion
[ 8008 7997 7996 7995 ] final  160.10 input   59.86 | X-H torsion
[ 10167 10162 10161 10158 ] final  -77.79 input  -65.29 | X-H torsion
[ 10718 10713 10712 10709 ] final -120.12 input   66.30 | X-H torsion
[ 10763 10752 10751 10750 ] final  -71.79 input  -60.55 | X-H torsion
[ 11005 11000 10999 10996 ] final -118.27 input  -57.11 | X-H torsion

> <Gold.Protein.ActiveResidues>
 VAL166  LYS551  ARG553  GLY616  TRP617  ASP618  TYR619  PRO620  LYS621  CYS622 
 ASP623  PHE694  ASN695  SER759  ASP760  ASP761  ALA762  ILE779  LEU786  VAL792 
 PHE793  MET794  SER795  GLU796  ALA797  LYS798  CYS799  TRP800  GLU811  SER814 

> <Gold.Protein.RotatedAtoms>
  152.4699  134.4986  159.9717 H   0  0  0  0  0  0  0  0  0  0  0  0  # atno 6907 bound_to 6896
  151.5015  133.3497  159.2877 H   0  0  0  0  0  0  0  0  0  0  0  0  # atno 6908 bound_to 6896
  150.8703  134.8103  159.7211 H   0  0  0  0  0  0  0  0  0  0  0  0  # atno 6909 bound_to 6896
  145.6709  140.9221  143.0883 H   0  0  0  0  0  0  0  0  0  0  0  0  # atno 7974 bound_to 7965
  156.2195  140.1813  156.7511 H   0  0  0  0  0  0  0  0  0  0  0  0  # atno 8008 bound_to 7997
  154.5843  140.0661  156.9177 H   0  0  0  0  0  0  0  0  0  0  0  0  # atno 8009 bound_to 7997
  155.2448  140.3324  155.4291 H   0  0  0  0  0  0  0  0  0  0  0  0  # atno 8010 bound_to 7997
  140.4739  143.2419  151.8163 H   0  0  0  0  0  0  0  0  0  0  0  0  # atno 10167 bound_to 10162
  156.1234  130.6340  150.9501 H   0  0  0  0  0  0  0  0  0  0  0  0  # atno 10718 bound_to 10713
  154.4367  135.5951  153.6103 H   0  0  0  0  0  0  0  0  0  0  0  0  # atno 10763 bound_to 10752
  152.9802  135.5988  154.3773 H   0  0  0  0  0  0  0  0  0  0  0  0  # atno 10764 bound_to 10752
  154.3618  135.2841  155.2294 H   0  0  0  0  0  0  0  0  0  0  0  0  # atno 10765 bound_to 10752
  141.0297  133.9999  157.3161 H   0  0  0  0  0  0  0  0  0  0  0  0  # atno 11005 bound_to 11000
  144.7057  139.8571  143.7430 LP  0  0  0  0  0  0  0  0  0  0  0  0  # atno 17320 bound_to 7965
  146.1046  139.4045  143.0325 LP  0  0  0  0  0  0  0  0  0  0  0  0  # atno 17321 bound_to 7965
  139.4822  144.4858  151.9249 LP  0  0  0  0  0  0  0  0  0  0  0  0  # atno 17342 bound_to 10162
  140.3943  144.2575  150.5897 LP  0  0  0  0  0  0  0  0  0  0  0  0  # atno 17343 bound_to 10162
  157.6416  131.0909  150.8239 LP  0  0  0  0  0  0  0  0  0  0  0  0  # atno 17370 bound_to 10713
  156.8332  130.5023  149.5329 LP  0  0  0  0  0  0  0  0  0  0  0  0  # atno 17371 bound_to 10713
  139.9200  135.0200  156.8027 LP  0  0  0  0  0  0  0  0  0  0  0  0  # atno 17394 bound_to 11000
  140.6428  133.9803  155.7716 LP  0  0  0  0  0  0  0  0  0  0  0  0  # atno 17395 bound_to 11000

$$$$
