AV-unprocessed.smi:2170|AV-procd|sdf|8825|dock2
  -GOLD-   2272012 23D 1   1.00000     0.00000
 Structure written by MMmdl.
 45 46  0  0  0  0  0  0  0  0  2 V2000
  150.5470  139.9749  154.8844 C   0  0  0  0  0  0  0  0  0  0  0  0
  151.4424  138.9344  155.5804 C   0  0  0  0  0  0  0  0  0  0  0  0
  152.5369  138.4069  154.6350 C   0  0  0  0  0  0  0  0  0  0  0  0
  150.6365  137.8389  156.1753 N   0  0  0  0  0  0  0  0  0  0  0  0
  149.2374  138.1753  156.5084 C   0  0  0  0  0  0  0  0  0  0  0  0
  151.4522  136.7039  157.2170 S   0  0  0  0  0  0  0  0  0  0  0  0
  152.6958  137.3531  157.6642 O   0  0  0  0  0  0  0  0  0  0  0  0
  150.4693  136.3226  158.2447 O   0  0  0  0  0  0  0  0  0  0  0  0
  151.7153  135.5531  156.1055 N   0  5  0  0  0  0  0  0  0  0  0  0
  151.5291  134.1630  156.4773 C   0  0  0  0  0  0  0  0  0  0  0  0
  150.4360  133.5010  155.6506 C   0  0  0  0  0  0  0  0  0  0  0  0
  149.7384  134.2202  154.6561 C   0  0  0  0  0  0  0  0  0  0  0  0
  148.7331  133.5662  153.9169 C   0  0  0  0  0  0  0  0  0  0  0  0
  148.4494  132.2065  154.1873 C   0  0  0  0  0  0  0  0  0  0  0  0
  147.4500  131.5309  153.4532 N   0  0  0  0  0  0  0  0  0  0  0  0
  147.6616  130.1164  153.1503 C   0  0  0  0  0  0  0  0  0  0  0  0
  146.3694  129.4866  152.6039 C   0  0  0  0  0  0  0  0  0  0  0  0
  145.9172  130.2265  151.4748 O   0  0  0  0  0  0  0  0  0  0  0  0
  145.6118  131.5751  151.8137 C   0  0  0  0  0  0  0  0  0  0  0  0
  146.8737  132.2807  152.3396 C   0  0  0  0  0  0  0  0  0  0  0  0
  149.1148  131.5209  155.1494 N   0  0  0  0  0  0  0  0  0  0  0  0
  150.0804  132.1493  155.8547 C   0  0  0  0  0  0  0  0  0  0  0  0
  151.1418  140.8110  154.5160 H   0  0  0  0  0  0  0  0  0  0  0  0
  149.8041  140.3840  155.5692 H   0  0  0  0  0  0  0  0  0  0  0  0
  150.0174  139.5506  154.0314 H   0  0  0  0  0  0  0  0  0  0  0  0
  151.9653  139.4375  156.3933 H   0  0  0  0  0  0  0  0  0  0  0  0
  153.2217  139.2084  154.3571 H   0  0  0  0  0  0  0  0  0  0  0  0
  152.1228  138.0056  153.7097 H   0  0  0  0  0  0  0  0  0  0  0  0
  153.1272  137.6241  155.1125 H   0  0  0  0  0  0  0  0  0  0  0  0
  149.1998  138.9661  157.2567 H   0  0  0  0  0  0  0  0  0  0  0  0
  148.7131  137.3120  156.9161 H   0  0  0  0  0  0  0  0  0  0  0  0
  148.6849  138.4923  155.6253 H   0  0  0  0  0  0  0  0  0  0  0  0
  152.4483  133.5881  156.3583 H   0  0  0  0  0  0  0  0  0  0  0  0
  151.2559  134.0614  157.5282 H   0  0  0  0  0  0  0  0  0  0  0  0
  149.9567  135.2591  154.4500 H   0  0  0  0  0  0  0  0  0  0  0  0
  148.1879  134.1165  153.1653 H   0  0  0  0  0  0  0  0  0  0  0  0
  148.4628  130.0195  152.4161 H   0  0  0  0  0  0  0  0  0  0  0  0
  147.9733  129.5803  154.0475 H   0  0  0  0  0  0  0  0  0  0  0  0
  146.5528  128.4551  152.3027 H   0  0  0  0  0  0  0  0  0  0  0  0
  145.5937  129.4613  153.3712 H   0  0  0  0  0  0  0  0  0  0  0  0
  145.2389  132.0877  150.9268 H   0  0  0  0  0  0  0  0  0  0  0  0
  144.8132  131.6030  152.5568 H   0  0  0  0  0  0  0  0  0  0  0  0
  146.6148  133.2983  152.6282 H   0  0  0  0  0  0  0  0  0  0  0  0
  147.6171  132.3560  151.5450 H   0  0  0  0  0  0  0  0  0  0  0  0
  150.5721  131.5398  156.6006 H   0  0  0  0  0  0  0  0  0  0  0  0
  1  2  1  0  0  0  0
  1 23  1  0  0  0  0
  1 24  1  0  0  0  0
  1 25  1  0  0  0  0
  2  3  1  0  0  0  0
  2  4  1  0  0  0  0
  2 26  1  0  0  0  0
  3 27  1  0  0  0  0
  3 28  1  0  0  0  0
  3 29  1  0  0  0  0
  4  5  1  0  0  0  0
  4  6  1  0  0  0  0
  5 30  1  0  0  0  0
  5 31  1  0  0  0  0
  5 32  1  0  0  0  0
  6  7  2  0  0  0  0
  6  8  2  0  0  0  0
  6  9  1  0  0  0  0
  9 10  1  0  0  0  0
 10 11  1  0  0  0  0
 10 33  1  0  0  0  0
 10 34  1  0  0  0  0
 11 22  1  0  0  0  0
 11 12  2  0  0  0  0
 12 13  1  0  0  0  0
 12 35  1  0  0  0  0
 13 14  2  0  0  0  0
 13 36  1  0  0  0  0
 14 15  1  0  0  0  0
 14 21  1  0  0  0  0
 15 20  1  0  0  0  0
 15 16  1  0  0  0  0
 16 17  1  0  0  0  0
 16 37  1  0  0  0  0
 16 38  1  0  0  0  0
 17 18  1  0  0  0  0
 17 39  1  0  0  0  0
 17 40  1  0  0  0  0
 18 19  1  0  0  0  0
 19 20  1  0  0  0  0
 19 41  1  0  0  0  0
 19 42  1  0  0  0  0
 20 43  1  0  0  0  0
 20 44  1  0  0  0  0
 21 22  2  0  0  0  0
 22 45  1  0  0  0  0
M  CHG  1   9  -1
M  END
> <s_m_source_file>
AV-unprocessed.smi

> <i_m_source_file_index>
2170

> <i_lp_mmshare_version>
43012

> <i_f3d_flags>
0

> <s_epik_input>
W0NIM11bQ0hdKFtDSDNdKU4oW0NIM10pUyg9TykoPU8pW05IXVtDSDJdYzFbY0hdW2NIXWMobltjSF0xKU4yW0NIMl1bQ0gyXU9bQ0gyXVtDSDJdMg==

> <s_epik_cmdline>
J2VwaWtfcHl0aG9uJywgJy1waCcsICc3LjAnLCAnLXRuJywgJzgnLCAnLW1hJywgJzIwMCcsICctbWV0YWxfYmluZGluZycsICctaW1hZScsICc8aW5maWxlLm1hZT4nLCAnLW9tYWUnLCAnPG91dGZpbGUubWFlPic=

> <r_lp_tautomer_probability>
1

> <r_epik_Ionization_Penalty>
3.3971

> <r_epik_Ionization_Penalty_Charging>
3.31706

> <r_epik_Ionization_Penalty_Neutral>
0.0800436

> <r_epik_State_Penalty>
3.32044

> <r_epik_Charging_Adjusted_Penalty>
6.63751

> <i_epik_Tot_Q>
-1

> <i_epik_Tot_abs_Q>
1

> <r_epik_Metal_State_Penalty>
0.488406

> <b_epik_Metal_Only>
1

> <s_lp_Force_Field>
OPLS_2005

> <r_lp_Energy>
16.8192

> <b_lp_Chiralities_Consistent>
1

> <s_lp_Variant>
AV-unprocessed.smi:2170-2

> <Gold.Version>
5.8.1

> <Gold.Id.Protein>
6NUR|6NUR_protein|mol2

> <Gold.PLP.Fitness>
39.3765

> <Gold.PLP.PLP>
-31.5163

> <Gold.PLP.part.hbond>
-2.0000

> <Gold.PLP.part.metal>
0.0000

> <Gold.PLP.part.buried>
-3.2587

> <Gold.PLP.part.nonpolar>
-26.6040

> <Gold.PLP.part.repulsive>
0.2290

> <Gold.PLP.ligand.clash>
0.0000

> <Gold.PLP.ligand.torsion>
2.4451

> <Gold.PLP.Chemscore.Hbond>
2.8800

> <Gold.PLP.Chemscore.CHOScore>
0.0000

> <Gold.PLP.Chemscore.Metal>
0.0000

> <Gold.Chemscore.Hbonds>
donor molecule, donor type, donor heavy atom, donor atom, acceptor molecule, acceptor atom, score
      P1  H  6896  6907       L1     8  0.74
      P1  H 10752 10764       L1     9  2.00

> <Gold.PLP.Chemscore.Internal.Correction>
4.1103

> <Gold.Rescore>
     Score         DG    S(hbond)    S(metal)    S(lipo)     H(rot)  DE(clash)    DE(int)     intcor
     13.34     -15.91       1.59        0.00      77.42       1.54       0.05       2.52       ----

> <Gold.Chemscore.Fitness>
13.3420

> <Gold.Chemscore.DG>
-15.9148

> <Gold.Chemscore.ZeroCoef>
-5.4800

> <Gold.Chemscore.Hbond>
1.5938

> <Gold.Chemscore.Metal>
0.0000

> <Gold.Chemscore.Lipo>
77.4176

> <Gold.Chemscore.Internal_Hbond>
0.0000

> <Gold.Chemscore.DEClash>
0.0487

> <Gold.Chemscore.DEInternal>
2.5241

> <Gold.Chemscore.Rot>
1.5415

> <Gold.Chemscore.Internal.Correction>
   9.000000E+99

> <Gold.Chemscore.Hbonds>
donor molecule, donor type, donor heavy atom, donor atom, acceptor molecule, acceptor atom, score
      P1  H  6896  6907       L1     8  0.70
      P1  H 10752 10764       L1     9  0.35

> <Gold.Chemscore.Hbond.Weighted>
-5.3232

> <Gold.Chemscore.Metal.Weighted>
-0.0000

> <Gold.Chemscore.Lipo.Weighted>
-9.0579

> <Gold.Chemscore.Internal_Hbond.Weighted>
0.0000

> <Gold.Chemscore.DEClash.Weighted>
0.0487

> <Gold.Chemscore.DEInternal.Weighted>
2.5241

> <Gold.Chemscore.Rot.Weighted>
3.9462

> <Gold.Chemscore.Internal.Correction.Weighted>
   9.000000E+99

> <Gold.Protein.RotatedTorsions>
[ 6907 6896 6895 6894 ] final  -50.01 input  -60.11 | X-H torsion
[ 7974 7965 7964 7962 ] final   58.39 input  175.53 | X-H torsion
[ 8008 7997 7996 7995 ] final   47.73 input   59.86 | X-H torsion
[ 10167 10162 10161 10158 ] final   52.63 input  -65.29 | X-H torsion
[ 10718 10713 10712 10709 ] final  -64.39 input   66.30 | X-H torsion
[ 10763 10752 10751 10750 ] final  -34.13 input  -60.55 | X-H torsion
[ 11005 11000 10999 10996 ] final -169.77 input  -57.11 | X-H torsion

> <Gold.Protein.ActiveResidues>
 VAL166  LYS551  ARG553  GLY616  TRP617  ASP618  TYR619  PRO620  LYS621  CYS622 
 ASP623  PHE694  ASN695  SER759  ASP760  ASP761  ALA762  ILE779  LEU786  VAL792 
 PHE793  MET794  SER795  GLU796  ALA797  LYS798  CYS799  TRP800  GLU811  SER814 

> <Gold.Protein.RotatedAtoms>
  150.8749  134.8130  159.7181 H   0  0  0  0  0  0  0  0  0  0  0  0  # atno 6907 bound_to 6896
  152.4739  134.4888  159.9698 H   0  0  0  0  0  0  0  0  0  0  0  0  # atno 6908 bound_to 6896
  151.4971  133.3473  159.2898 H   0  0  0  0  0  0  0  0  0  0  0  0  # atno 6909 bound_to 6896
  145.9186  139.3711  143.0492 H   0  0  0  0  0  0  0  0  0  0  0  0  # atno 7974 bound_to 7965
  155.3739  140.3425  155.4244 H   0  0  0  0  0  0  0  0  0  0  0  0  # atno 8008 bound_to 7997
  156.1647  140.1612  156.8585 H   0  0  0  0  0  0  0  0  0  0  0  0  # atno 8009 bound_to 7997
  154.5174  140.0775  156.8088 H   0  0  0  0  0  0  0  0  0  0  0  0  # atno 8010 bound_to 7997
  140.2493  144.3497  150.6353 H   0  0  0  0  0  0  0  0  0  0  0  0  # atno 10167 bound_to 10162
  156.0732  130.4233  150.1413 H   0  0  0  0  0  0  0  0  0  0  0  0  # atno 10718 bound_to 10713
  153.8416  135.6857  153.4802 H   0  0  0  0  0  0  0  0  0  0  0  0  # atno 10763 bound_to 10752
  153.1450  135.4641  154.9551 H   0  0  0  0  0  0  0  0  0  0  0  0  # atno 10764 bound_to 10752
  154.7842  135.3279  154.7869 H   0  0  0  0  0  0  0  0  0  0  0  0  # atno 10765 bound_to 10752
  140.5270  134.5654  157.5064 H   0  0  0  0  0  0  0  0  0  0  0  0  # atno 11005 bound_to 11000
  145.8579  140.9492  143.0715 LP  0  0  0  0  0  0  0  0  0  0  0  0  # atno 17320 bound_to 7965
  144.6750  140.0492  143.7479 LP  0  0  0  0  0  0  0  0  0  0  0  0  # atno 17321 bound_to 7965
  140.6053  143.2167  151.6993 LP  0  0  0  0  0  0  0  0  0  0  0  0  # atno 17342 bound_to 10162
  139.5051  144.3728  152.0453 LP  0  0  0  0  0  0  0  0  0  0  0  0  # atno 17343 bound_to 10162
  156.9460  130.9759  151.3507 LP  0  0  0  0  0  0  0  0  0  0  0  0  # atno 17370 bound_to 10713
  157.5814  130.8379  149.8528 LP  0  0  0  0  0  0  0  0  0  0  0  0  # atno 17371 bound_to 10713
  139.9575  134.7510  156.0310 LP  0  0  0  0  0  0  0  0  0  0  0  0  # atno 17394 bound_to 11000
  141.1303  133.6588  156.3446 LP  0  0  0  0  0  0  0  0  0  0  0  0  # atno 17395 bound_to 11000

$$$$
