AV-unprocessed.smi:2819|AV-procd|sdf|10852|dock4
  -GOLD-   2272015293D 1   1.00000     0.00000
 Structure written by MMmdl.
 49 50  0  0  0  0  0  0  0  0  1 V2000
  153.2041  141.0583  160.6908 C   0  0  0  0  0  0  0  0  0  0  0  0
  152.7902  142.3189  161.2976 N   0  0  0  0  0  0  0  0  0  0  0  0
  153.0959  142.5942  162.6958 C   0  0  0  0  0  0  0  0  0  0  0  0
  152.1630  143.3054  160.5045 C   0  0  0  0  0  0  0  0  0  0  0  0
  152.0921  144.6599  160.9114 C   0  0  0  0  0  0  0  0  0  0  0  0
  151.4448  145.5538  160.0370 C   0  0  0  0  0  0  0  0  0  0  0  0
  150.9151  145.1460  158.8662 N   0  0  0  0  0  0  0  0  0  0  0  0
  151.0278  143.8470  158.5615 C   0  0  0  0  0  0  0  0  0  0  0  0
  150.5075  143.3624  157.3809 N   0  0  0  0  0  0  0  0  0  0  0  0
  150.4743  142.1129  156.8798 C   0  0  0  0  0  0  0  0  0  0  0  0
  150.9361  141.1106  157.4270 O   0  0  0  0  0  0  0  0  0  0  0  0
  149.8536  142.0859  155.6913 N   0  0  0  0  0  0  0  0  0  0  0  0
  149.6033  140.8913  154.8841 C   0  0  0  0  0  0  0  0  0  0  0  0
  148.0862  140.6245  154.6521 C   0  0  0  0  0  0  0  0  0  0  0  0
  147.5445  141.7923  153.7925 C   0  0  0  0  0  0  0  0  0  0  0  0
  147.9886  139.3411  153.7879 C   0  0  0  0  0  0  0  0  0  0  0  0
  147.3542  140.4612  155.9402 N   0  0  0  0  0  0  0  0  0  0  0  0
  146.1414  139.6388  155.8632 C   0  0  0  0  0  0  0  0  0  0  0  0
  145.5072  139.4124  157.2463 C   0  0  0  0  0  0  0  0  0  0  0  0
  145.2227  140.6660  157.8550 O   0  0  0  0  0  0  0  0  0  0  0  0
  146.3843  141.4730  158.0035 C   0  0  0  0  0  0  0  0  0  0  0  0
  147.0251  141.7165  156.6266 C   0  0  0  0  0  0  0  0  0  0  0  0
  151.6199  142.9216  159.3222 N   0  0  0  0  0  0  0  0  0  0  0  0
  152.3455  140.5382  160.2650 H   0  0  0  0  0  0  0  0  0  0  0  0
  153.6647  140.3954  161.4236 H   0  0  0  0  0  0  0  0  0  0  0  0
  153.9310  141.2362  159.8976 H   0  0  0  0  0  0  0  0  0  0  0  0
  153.7501  143.4624  162.7820 H   0  0  0  0  0  0  0  0  0  0  0  0
  153.6006  141.7500  163.1657 H   0  0  0  0  0  0  0  0  0  0  0  0
  152.1816  142.7892  163.2570 H   0  0  0  0  0  0  0  0  0  0  0  0
  152.5062  145.0174  161.8418 H   0  0  0  0  0  0  0  0  0  0  0  0
  151.3516  146.6020  160.2799 H   0  0  0  0  0  0  0  0  0  0  0  0
  150.0700  144.0651  156.8038 H   0  0  0  0  0  0  0  0  0  0  0  0
  149.4999  142.9566  155.3228 H   0  0  0  0  0  0  0  0  0  0  0  0
  150.1267  141.0163  153.9365 H   0  0  0  0  0  0  0  0  0  0  0  0
  150.0748  140.0175  155.3372 H   0  0  0  0  0  0  0  0  0  0  0  0
  148.0893  141.8694  152.8508 H   0  0  0  0  0  0  0  0  0  0  0  0
  147.6490  142.7545  154.2934 H   0  0  0  0  0  0  0  0  0  0  0  0
  146.4934  141.6632  153.5360 H   0  0  0  0  0  0  0  0  0  0  0  0
  148.6661  139.3816  152.9340 H   0  0  0  0  0  0  0  0  0  0  0  0
  146.9901  139.1951  153.3759 H   0  0  0  0  0  0  0  0  0  0  0  0
  148.2413  138.4481  154.3605 H   0  0  0  0  0  0  0  0  0  0  0  0
  145.4057  140.1106  155.2121 H   0  0  0  0  0  0  0  0  0  0  0  0
  146.3605  138.6613  155.4376 H   0  0  0  0  0  0  0  0  0  0  0  0
  144.5809  138.8460  157.1495 H   0  0  0  0  0  0  0  0  0  0  0  0
  146.1732  138.8313  157.8861 H   0  0  0  0  0  0  0  0  0  0  0  0
  146.1028  142.4206  158.4627 H   0  0  0  0  0  0  0  0  0  0  0  0
  147.0912  140.9872  158.6784 H   0  0  0  0  0  0  0  0  0  0  0  0
  147.9152  142.3238  156.7788 H   0  0  0  0  0  0  0  0  0  0  0  0
  146.3380  142.3076  156.0213 H   0  0  0  0  0  0  0  0  0  0  0  0
  1  2  1  0  0  0  0
  1 24  1  0  0  0  0
  1 25  1  0  0  0  0
  1 26  1  0  0  0  0
  2  3  1  0  0  0  0
  2  4  1  0  0  0  0
  3 27  1  0  0  0  0
  3 28  1  0  0  0  0
  3 29  1  0  0  0  0
  4 23  1  0  0  0  0
  4  5  2  0  0  0  0
  5  6  1  0  0  0  0
  5 30  1  0  0  0  0
  6  7  2  0  0  0  0
  6 31  1  0  0  0  0
  7  8  1  0  0  0  0
  8  9  1  0  0  0  0
  8 23  2  0  0  0  0
  9 10  1  0  0  0  0
  9 32  1  0  0  0  0
 10 11  2  0  0  0  0
 10 12  1  0  0  0  0
 12 13  1  0  0  0  0
 12 33  1  0  0  0  0
 13 14  1  0  0  0  0
 13 34  1  0  0  0  0
 13 35  1  0  0  0  0
 14 15  1  0  0  0  0
 14 16  1  0  0  0  0
 14 17  1  0  0  0  0
 15 36  1  0  0  0  0
 15 37  1  0  0  0  0
 15 38  1  0  0  0  0
 16 39  1  0  0  0  0
 16 40  1  0  0  0  0
 16 41  1  0  0  0  0
 17 22  1  0  0  0  0
 17 18  1  0  0  0  0
 18 19  1  0  0  0  0
 18 42  1  0  0  0  0
 18 43  1  0  0  0  0
 19 20  1  0  0  0  0
 19 44  1  0  0  0  0
 19 45  1  0  0  0  0
 20 21  1  0  0  0  0
 21 22  1  0  0  0  0
 21 46  1  0  0  0  0
 21 47  1  0  0  0  0
 22 48  1  0  0  0  0
 22 49  1  0  0  0  0
M  END
> <s_m_source_file>
AV-unprocessed.smi

> <i_m_source_file_index>
2819

> <i_lp_mmshare_version>
43012

> <i_f3d_flags>
0

> <s_epik_input>
W0NIM11OKFtDSDNdKWMxW2NIXVtjSF1uYyhuMSlbTkhdQyg9TylbTkhdW0NIMl1DKFtDSDNdKShbQ0gzXSlOMltDSDJdW0NIMl1PW0NIMl1bQ0gyXTI=

> <s_epik_cmdline>
J2VwaWtfcHl0aG9uJywgJy1waCcsICc3LjAnLCAnLXRuJywgJzgnLCAnLW1hJywgJzIwMCcsICctbWV0YWxfYmluZGluZycsICctaW1hZScsICc8aW5maWxlLm1hZT4nLCAnLW9tYWUnLCAnPG91dGZpbGUubWFlPic=

> <r_lp_tautomer_probability>
1

> <r_epik_Ionization_Penalty>
1.38931

> <r_epik_Ionization_Penalty_Charging>
0

> <r_epik_Ionization_Penalty_Neutral>
1.38931

> <r_epik_State_Penalty>
1.41304

> <r_epik_Charging_Adjusted_Penalty>
1.41304

> <i_epik_Tot_Q>
0

> <i_epik_Tot_abs_Q>
0

> <r_epik_Metal_State_Penalty>
0.631353

> <b_epik_Metal_Only>
0

> <s_lp_Force_Field>
OPLS_2005

> <r_lp_Energy>
40.3447

> <b_lp_Chiralities_Consistent>
1

> <s_lp_Variant>
AV-unprocessed.smi:2819-3

> <Gold.Version>
5.8.1

> <Gold.Id.Protein>
6NUR|6NUR_protein|mol2

> <Gold.PLP.Fitness>
48.0772

> <Gold.PLP.PLP>
-43.6691

> <Gold.PLP.part.hbond>
-2.0000

> <Gold.PLP.part.metal>
0.0000

> <Gold.PLP.part.buried>
-6.0432

> <Gold.PLP.part.nonpolar>
-35.0121

> <Gold.PLP.part.repulsive>
0.3807

> <Gold.PLP.ligand.clash>
0.0000

> <Gold.PLP.ligand.torsion>
0.8353

> <Gold.PLP.Chemscore.Hbond>
1.9920

> <Gold.PLP.Chemscore.CHOScore>
0.0000

> <Gold.PLP.Chemscore.Metal>
0.0000

> <Gold.Chemscore.Hbonds>
donor molecule, donor type, donor heavy atom, donor atom, acceptor molecule, acceptor atom, score
      L1  H     9    32       P1  8028  1.00
      L1  H    12    33       P1  8028  0.98

> <Gold.PLP.Chemscore.Internal.Correction>
0.1028

> <Gold.Rescore>
     Score         DG    S(hbond)    S(metal)    S(lipo)     H(rot)  DE(clash)    DE(int)     intcor
     14.11     -16.89       1.95        0.00      74.87       1.51       0.03       2.75       ----

> <Gold.Chemscore.Fitness>
14.1131

> <Gold.Chemscore.DG>
-16.8894

> <Gold.Chemscore.ZeroCoef>
-5.4800

> <Gold.Chemscore.Hbond>
1.9485

> <Gold.Chemscore.Metal>
0.0000

> <Gold.Chemscore.Lipo>
74.8749

> <Gold.Chemscore.Internal_Hbond>
0.0000

> <Gold.Chemscore.DEClash>
0.0307

> <Gold.Chemscore.DEInternal>
2.7456

> <Gold.Chemscore.Rot>
1.5075

> <Gold.Chemscore.Internal.Correction>
   9.000000E+99

> <Gold.Chemscore.Hbonds>
donor molecule, donor type, donor heavy atom, donor atom, acceptor molecule, acceptor atom, score
      L1  H     9    32       P1  8028  0.97
      L1  H    12    33       P1  8028  0.93

> <Gold.Chemscore.Hbond.Weighted>
-6.5082

> <Gold.Chemscore.Metal.Weighted>
-0.0000

> <Gold.Chemscore.Lipo.Weighted>
-8.7604

> <Gold.Chemscore.Internal_Hbond.Weighted>
0.0000

> <Gold.Chemscore.DEClash.Weighted>
0.0307

> <Gold.Chemscore.DEInternal.Weighted>
2.7456

> <Gold.Chemscore.Rot.Weighted>
3.8591

> <Gold.Chemscore.Internal.Correction.Weighted>
   9.000000E+99

> <Gold.Protein.RotatedTorsions>
[ 6907 6896 6895 6894 ] final   39.75 input  -60.11 | X-H torsion
[ 7974 7965 7964 7962 ] final   -6.23 input  175.53 | X-H torsion
[ 8008 7997 7996 7995 ] final   -2.38 input   59.86 | X-H torsion
[ 10167 10162 10161 10158 ] final   63.53 input  -65.29 | X-H torsion
[ 10718 10713 10712 10709 ] final   -3.24 input   66.30 | X-H torsion
[ 10763 10752 10751 10750 ] final   43.02 input  -60.55 | X-H torsion
[ 11005 11000 10999 10996 ] final -106.00 input  -57.11 | X-H torsion

> <Gold.Protein.ActiveResidues>
 VAL166  LYS551  ARG553  GLY616  TRP617  ASP618  TYR619  PRO620  LYS621  CYS622 
 ASP623  PHE694  ASN695  SER759  ASP760  ASP761  ALA762  ILE779  LEU786  VAL792 
 PHE793  MET794  SER795  GLU796  ALA797  LYS798  CYS799  TRP800  GLU811  SER814 

> <Gold.Protein.RotatedAtoms>
  152.1736  134.8813  160.0532 H   0  0  0  0  0  0  0  0  0  0  0  0  # atno 6907 bound_to 6896
  151.9764  133.3738  159.4099 H   0  0  0  0  0  0  0  0  0  0  0  0  # atno 6908 bound_to 6896
  150.6906  134.4009  159.5162 H   0  0  0  0  0  0  0  0  0  0  0  0  # atno 6909 bound_to 6896
  146.2335  140.2140  142.8336 H   0  0  0  0  0  0  0  0  0  0  0  0  # atno 7974 bound_to 7965
  154.6364  140.2536  155.7373 H   0  0  0  0  0  0  0  0  0  0  0  0  # atno 8008 bound_to 7997
  156.2506  140.2896  156.0659 H   0  0  0  0  0  0  0  0  0  0  0  0  # atno 8009 bound_to 7997
  155.1664  140.0385  157.2844 H   0  0  0  0  0  0  0  0  0  0  0  0  # atno 8010 bound_to 7997
  140.1320  144.4634  150.6859 H   0  0  0  0  0  0  0  0  0  0  0  0  # atno 10167 bound_to 10162
  156.7790  130.5324  149.5754 H   0  0  0  0  0  0  0  0  0  0  0  0  # atno 10718 bound_to 10713
  152.9870  135.6114  154.3043 H   0  0  0  0  0  0  0  0  0  0  0  0  # atno 10763 bound_to 10752
  154.2762  135.2778  155.2719 H   0  0  0  0  0  0  0  0  0  0  0  0  # atno 10764 bound_to 10752
  154.5078  135.5849  153.6638 H   0  0  0  0  0  0  0  0  0  0  0  0  # atno 10765 bound_to 10752
  141.1026  133.8856  157.1802 H   0  0  0  0  0  0  0  0  0  0  0  0  # atno 11005 bound_to 11000
  144.9684  140.8345  143.5470 LP  0  0  0  0  0  0  0  0  0  0  0  0  # atno 17320 bound_to 7965
  145.2118  139.2201  143.5139 LP  0  0  0  0  0  0  0  0  0  0  0  0  # atno 17321 bound_to 7965
  140.6811  143.2327  151.5382 LP  0  0  0  0  0  0  0  0  0  0  0  0  # atno 17342 bound_to 10162
  139.5514  144.2385  152.1538 LP  0  0  0  0  0  0  0  0  0  0  0  0  # atno 17343 bound_to 10162
  156.1230  130.6123  151.0221 LP  0  0  0  0  0  0  0  0  0  0  0  0  # atno 17370 bound_to 10713
  157.6655  131.0872  150.7738 LP  0  0  0  0  0  0  0  0  0  0  0  0  # atno 17371 bound_to 10713
  139.9883  135.0074  156.9916 LP  0  0  0  0  0  0  0  0  0  0  0  0  # atno 17394 bound_to 11000
  140.4983  134.1123  155.7245 LP  0  0  0  0  0  0  0  0  0  0  0  0  # atno 17395 bound_to 11000

$$$$
