AV-unprocessed.smi:1574|AV-procd|sdf|6338|dock1
  -GOLD-   22720 6553D 1   1.00000     0.00000
 Structure written by MMmdl.
 40 41  0  0  0  0  0  0  0  0  1 V2000
  152.9288  142.9827  162.7413 C   0  0  0  0  0  0  0  0  0  0  0  0
  152.3422  143.2195  161.3404 C   0  0  1  0  0  0  0  0  0  0  0  0
  152.1059  144.7239  161.0950 C   0  0  0  0  0  0  0  0  0  0  0  0
  151.5283  144.9911  159.6964 C   0  0  0  0  0  0  0  0  0  0  0  0
  152.4321  144.4023  158.6045 C   0  0  0  0  0  0  0  0  0  0  0  0
  152.6621  142.9030  158.8355 C   0  0  0  0  0  0  0  0  0  0  0  0
  153.2431  142.6218  160.2365 C   0  0  2  0  0  0  0  0  0  0  0  0
  153.2999  141.2139  160.4207 O   0  0  0  0  0  0  0  0  0  0  0  0
  154.4808  140.6081  159.9154 C   0  0  0  0  0  0  0  0  0  0  0  0
  154.2549  139.0927  159.8247 C   0  0  0  0  0  0  0  0  0  0  0  0
  153.9644  138.5259  161.1375 N   0  0  0  0  0  0  0  0  0  0  0  0
  153.3766  137.3380  161.3500 C   0  0  0  0  0  0  0  0  0  0  0  0
  153.0735  136.5601  160.4459 O   0  0  0  0  0  0  0  0  0  0  0  0
  153.0682  136.9756  162.8026 C   0  0  0  0  0  0  0  0  0  0  0  0
  154.2635  137.0464  163.6228 N   0  0  0  0  0  0  0  0  0  0  0  0
  154.5313  137.7529  164.7227 C   0  0  0  0  0  0  0  0  0  0  0  0
  155.7594  137.5258  165.1636 N   0  0  0  0  0  0  0  0  0  0  0  0
  156.2555  136.6076  164.2534 N   0  0  0  0  0  0  0  0  0  0  0  0
  155.3734  136.3207  163.3358 N   0  0  0  0  0  0  0  0  0  0  0  0
  153.9091  143.4488  162.8448 H   0  0  0  0  0  0  0  0  0  0  0  0
  153.0439  141.9183  162.9481 H   0  0  0  0  0  0  0  0  0  0  0  0
  152.2803  143.3970  163.5136 H   0  0  0  0  0  0  0  0  0  0  0  0
  151.3738  142.7186  161.2967 H   0  0  0  0  0  0  0  0  0  0  0  0
  151.4272  145.1229  161.8497 H   0  0  0  0  0  0  0  0  0  0  0  0
  153.0449  145.2677  161.2080 H   0  0  0  0  0  0  0  0  0  0  0  0
  150.5319  144.5537  159.6218 H   0  0  0  0  0  0  0  0  0  0  0  0
  151.4085  146.0638  159.5414 H   0  0  0  0  0  0  0  0  0  0  0  0
  151.9831  144.5611  157.6236 H   0  0  0  0  0  0  0  0  0  0  0  0
  153.3900  144.9236  158.5970 H   0  0  0  0  0  0  0  0  0  0  0  0
  151.7141  142.3761  158.7318 H   0  0  0  0  0  0  0  0  0  0  0  0
  153.3163  142.5107  158.0571 H   0  0  0  0  0  0  0  0  0  0  0  0
  154.2398  143.0601  160.3230 H   0  0  0  0  0  0  0  0  0  0  0  0
  154.7502  141.0033  158.9352 H   0  0  0  0  0  0  0  0  0  0  0  0
  155.3109  140.8312  160.5867 H   0  0  0  0  0  0  0  0  0  0  0  0
  153.4385  138.8726  159.1350 H   0  0  0  0  0  0  0  0  0  0  0  0
  155.1434  138.6053  159.4222 H   0  0  0  0  0  0  0  0  0  0  0  0
  154.1809  139.1015  161.9382 H   0  0  0  0  0  0  0  0  0  0  0  0
  152.3168  137.6550  163.2079 H   0  0  0  0  0  0  0  0  0  0  0  0
  152.6564  135.9671  162.8603 H   0  0  0  0  0  0  0  0  0  0  0  0
  153.8332  138.4268  165.1965 H   0  0  0  0  0  0  0  0  0  0  0  0
  1  2  1  0  0  0  0
  1 20  1  0  0  0  0
  1 21  1  0  0  0  0
  1 22  1  0  0  0  0
  2  7  1  0  0  0  0
  2  3  1  0  0  0  0
  2 23  1  0  0  0  0
  3  4  1  0  0  0  0
  3 24  1  0  0  0  0
  3 25  1  0  0  0  0
  4  5  1  0  0  0  0
  4 26  1  0  0  0  0
  4 27  1  0  0  0  0
  5  6  1  0  0  0  0
  5 28  1  0  0  0  0
  5 29  1  0  0  0  0
  6  7  1  0  0  0  0
  6 30  1  0  0  0  0
  6 31  1  0  0  0  0
  7  8  1  0  0  0  0
  7 32  1  0  0  0  0
  8  9  1  0  0  0  0
  9 10  1  0  0  0  0
  9 33  1  0  0  0  0
  9 34  1  0  0  0  0
 10 11  1  0  0  0  0
 10 35  1  0  0  0  0
 10 36  1  0  0  0  0
 11 12  1  0  0  0  0
 11 37  1  0  0  0  0
 12 13  2  0  0  0  0
 12 14  1  0  0  0  0
 14 15  1  0  0  0  0
 14 38  1  0  0  0  0
 14 39  1  0  0  0  0
 15 19  1  0  0  0  0
 15 16  1  0  0  0  0
 16 17  2  0  0  0  0
 16 40  1  0  0  0  0
 17 18  1  0  0  0  0
 18 19  2  0  0  0  0
M  END
> <s_m_source_file>
AV-unprocessed.smi

> <i_m_source_file_index>
1574

> <i_lp_mmshare_version>
43012

> <i_f3d_flags>
0

> <s_epik_input>
W0NIM11bQ0BASF0xW0NIMl1bQ0gyXVtDSDJdW0NIMl1bQ0BIXTFPW0NIMl1bQ0gyXVtOSF1DKD1PKVtDSDJdbjJbY0hdbm5uMg==

> <s_epik_cmdline>
J2VwaWtfcHl0aG9uJywgJy1waCcsICc3LjAnLCAnLXRuJywgJzgnLCAnLW1hJywgJzIwMCcsICctbWV0YWxfYmluZGluZycsICctaW1hZScsICc8aW5maWxlLm1hZT4nLCAnLW9tYWUnLCAnPG91dGZpbGUubWFlPic=

> <r_lp_tautomer_probability>
1

> <r_epik_Ionization_Penalty>
1.44269e-06

> <r_epik_Ionization_Penalty_Charging>
0

> <r_epik_Ionization_Penalty_Neutral>
1.44269e-06

> <r_epik_State_Penalty>
-0

> <r_epik_Charging_Adjusted_Penalty>
0

> <i_epik_Tot_Q>
0

> <i_epik_Tot_abs_Q>
0

> <r_epik_Metal_State_Penalty>
-0

> <b_epik_Metal_Only>
0

> <s_lp_Force_Field>
OPLS_2005

> <r_lp_Energy>
11.2802

> <b_lp_Chiralities_Consistent>
1

> <s_lp_Variant>
AV-unprocessed.smi:1574-4

> <Gold.Version>
5.8.1

> <Gold.Id.Protein>
6NUR|6NUR_protein|mol2

> <Gold.PLP.Fitness>
46.8998

> <Gold.PLP.PLP>
-44.8620

> <Gold.PLP.part.hbond>
-1.0000

> <Gold.PLP.part.metal>
0.0000

> <Gold.PLP.part.buried>
-5.6194

> <Gold.PLP.part.nonpolar>
-37.4947

> <Gold.PLP.part.repulsive>
0.1278

> <Gold.PLP.ligand.clash>
0.0000

> <Gold.PLP.ligand.torsion>
0.5268

> <Gold.PLP.Chemscore.Hbond>
1.0000

> <Gold.PLP.Chemscore.CHOScore>
0.0000

> <Gold.PLP.Chemscore.Metal>
0.0000

> <Gold.Chemscore.Hbonds>
donor molecule, donor type, donor heavy atom, donor atom, acceptor molecule, acceptor atom, score
      P1  H  6896  6908       L1    13  1.00

> <Gold.PLP.Chemscore.Internal.Correction>
0.0913

> <Gold.Rescore>
     Score         DG    S(hbond)    S(metal)    S(lipo)     H(rot)  DE(clash)    DE(int)     intcor
     13.92     -14.36       1.00        0.00     111.02       2.90       0.10       0.34       ----

> <Gold.Chemscore.Fitness>
13.9154

> <Gold.Chemscore.DG>
-14.3565

> <Gold.Chemscore.ZeroCoef>
-5.4800

> <Gold.Chemscore.Hbond>
0.9953

> <Gold.Chemscore.Metal>
0.0000

> <Gold.Chemscore.Lipo>
111.0154

> <Gold.Chemscore.Internal_Hbond>
0.0000

> <Gold.Chemscore.DEClash>
0.0963

> <Gold.Chemscore.DEInternal>
0.3449

> <Gold.Chemscore.Rot>
2.9050

> <Gold.Chemscore.Internal.Correction>
   9.000000E+99

> <Gold.Chemscore.Hbonds>
donor molecule, donor type, donor heavy atom, donor atom, acceptor molecule, acceptor atom, score
      P1  H  6896  6908       L1    13  1.00

> <Gold.Chemscore.Hbond.Weighted>
-3.3244

> <Gold.Chemscore.Metal.Weighted>
-0.0000

> <Gold.Chemscore.Lipo.Weighted>
-12.9888

> <Gold.Chemscore.Internal_Hbond.Weighted>
0.0000

> <Gold.Chemscore.DEClash.Weighted>
0.0963

> <Gold.Chemscore.DEInternal.Weighted>
0.3449

> <Gold.Chemscore.Rot.Weighted>
7.4367

> <Gold.Chemscore.Internal.Correction.Weighted>
   9.000000E+99

> <Gold.Protein.RotatedTorsions>
[ 6907 6896 6895 6894 ] final  -84.31 input  -60.11 | X-H torsion
[ 7974 7965 7964 7962 ] final  -78.95 input  175.53 | X-H torsion
[ 8008 7997 7996 7995 ] final    0.03 input   59.86 | X-H torsion
[ 10167 10162 10161 10158 ] final  128.58 input  -65.29 | X-H torsion
[ 10718 10713 10712 10709 ] final  -38.52 input   66.30 | X-H torsion
[ 10763 10752 10751 10750 ] final  -86.25 input  -60.55 | X-H torsion
[ 11005 11000 10999 10996 ] final -156.09 input  -57.11 | X-H torsion

> <Gold.Protein.ActiveResidues>
 VAL166  LYS551  ARG553  GLY616  TRP617  ASP618  TYR619  PRO620  LYS621  CYS622 
 ASP623  PHE694  ASN695  SER759  ASP760  ASP761  ALA762  ILE779  LEU786  VAL792 
 PHE793  MET794  SER795  GLU796  ALA797  LYS798  CYS799  TRP800  GLU811  SER814 

> <Gold.Protein.RotatedAtoms>
  150.6877  134.3378  159.4854 H   0  0  0  0  0  0  0  0  0  0  0  0  # atno 6907 bound_to 6896
  152.1235  134.9185  160.0571 H   0  0  0  0  0  0  0  0  0  0  0  0  # atno 6908 bound_to 6896
  152.0382  133.3931  159.4362 H   0  0  0  0  0  0  0  0  0  0  0  0  # atno 6909 bound_to 6896
  145.5797  140.9451  143.1351 H   0  0  0  0  0  0  0  0  0  0  0  0  # atno 7974 bound_to 7965
  154.6635  140.2596  155.7084 H   0  0  0  0  0  0  0  0  0  0  0  0  # atno 8008 bound_to 7997
  156.2628  140.2844  156.1037 H   0  0  0  0  0  0  0  0  0  0  0  0  # atno 8009 bound_to 7997
  155.1274  140.0378  157.2756 H   0  0  0  0  0  0  0  0  0  0  0  0  # atno 8010 bound_to 7997
  139.5520  144.6820  151.4295 H   0  0  0  0  0  0  0  0  0  0  0  0  # atno 10167 bound_to 10162
  156.3028  130.4242  149.8126 H   0  0  0  0  0  0  0  0  0  0  0  0  # atno 10718 bound_to 10713
  154.6203  135.5456  153.7568 H   0  0  0  0  0  0  0  0  0  0  0  0  # atno 10763 bound_to 10752
  153.0235  135.6411  154.1450 H   0  0  0  0  0  0  0  0  0  0  0  0  # atno 10764 bound_to 10752
  154.1385  135.2910  155.3147 H   0  0  0  0  0  0  0  0  0  0  0  0  # atno 10765 bound_to 10752
  140.6793  134.4162  157.5227 H   0  0  0  0  0  0  0  0  0  0  0  0  # atno 11005 bound_to 11000
  144.7400  139.7477  143.7314 LP  0  0  0  0  0  0  0  0  0  0  0  0  # atno 17320 bound_to 7965
  146.1725  139.4882  142.9918 LP  0  0  0  0  0  0  0  0  0  0  0  0  # atno 17321 bound_to 7965
  140.6785  143.8136  150.7089 LP  0  0  0  0  0  0  0  0  0  0  0  0  # atno 17342 bound_to 10162
  140.1582  143.4298  152.2085 LP  0  0  0  0  0  0  0  0  0  0  0  0  # atno 17343 bound_to 10162
  156.5498  130.8337  151.3296 LP  0  0  0  0  0  0  0  0  0  0  0  0  # atno 17370 bound_to 10713
  157.7372  130.9792  150.2180 LP  0  0  0  0  0  0  0  0  0  0  0  0  # atno 17371 bound_to 10713
  139.8956  134.8678  156.2122 LP  0  0  0  0  0  0  0  0  0  0  0  0  # atno 17394 bound_to 11000
  141.0330  133.6978  156.1463 LP  0  0  0  0  0  0  0  0  0  0  0  0  # atno 17395 bound_to 11000

$$$$
