AV-unprocessed.smi:3029|AV-procd|sdf|11530|dock1
  -GOLD-   2272016473D 1   1.00000     0.00000
 Structure written by MMmdl.
 41 42  0  0  0  0  0  0  0  0  3 V2000
  151.4500  134.4107  155.8717 O   0  0  0  0  0  0  0  0  0  0  0  0
  150.4792  133.9198  155.2955 C   0  0  0  0  0  0  0  0  0  0  0  0
  150.2832  132.4691  155.2081 C   0  0  0  0  0  0  0  0  0  0  0  0
  149.2263  131.9342  154.5660 C   0  0  0  0  0  0  0  0  0  0  0  0
  148.2397  132.7891  153.9354 C   0  0  0  0  0  0  0  0  0  0  0  0
  147.1102  132.2255  153.2293 N   0  3  0  0  0  0  0  0  0  0  0  0
  146.3289  132.9796  152.6572 O   0  0  0  0  0  0  0  0  0  0  0  0
  146.9682  131.0070  153.2241 O   0  5  0  0  0  0  0  0  0  0  0  0
  148.4179  134.1218  154.0232 C   0  0  0  0  0  0  0  0  0  0  0  0
  149.5203  134.6873  154.6927 N   0  0  0  0  0  0  0  0  0  0  0  0
  149.6133  136.1554  154.6839 C   0  0  0  0  0  0  0  0  0  0  0  0
  148.3265  136.8145  155.2131 C   0  0  0  0  0  0  0  0  0  0  0  0
  148.5643  138.2170  155.5221 N   0  0  0  0  0  0  0  0  0  0  0  0
  149.0109  138.9756  154.3581 C   0  0  1  0  0  0  0  0  0  0  0  0
  147.7670  139.3981  153.5476 C   0  0  0  0  0  0  0  0  0  0  0  0
  146.9626  140.5184  154.2309 C   0  0  0  0  0  0  0  0  0  0  0  0
  147.8506  141.7221  154.5719 C   0  0  0  0  0  0  0  0  0  0  0  0
  149.0486  141.2997  155.4352 C   0  0  0  0  0  0  0  0  0  0  0  0
  149.8863  140.2018  154.7449 C   0  0  1  0  0  0  0  0  0  0  0  0
  151.1802  139.8658  155.5216 C   0  0  0  0  0  0  0  0  0  0  0  0
  152.0281  139.1485  154.7845 F   0  0  0  0  0  0  0  0  0  0  0  0
  151.7829  140.9873  155.9161 F   0  0  0  0  0  0  0  0  0  0  0  0
  150.8740  139.1608  156.6107 F   0  0  0  0  0  0  0  0  0  0  0  0
  151.0069  131.8139  155.6704 H   0  0  0  0  0  0  0  0  0  0  0  0
  149.1264  130.8593  154.5276 H   0  0  0  0  0  0  0  0  0  0  0  0
  147.7463  134.8445  153.5823 H   0  0  0  0  0  0  0  0  0  0  0  0
  150.4492  136.4540  155.3181 H   0  0  0  0  0  0  0  0  0  0  0  0
  149.8624  136.5481  153.6966 H   0  0  0  0  0  0  0  0  0  0  0  0
  147.5224  136.7101  154.4854 H   0  0  0  0  0  0  0  0  0  0  0  0
  148.0029  136.3073  156.1227 H   0  0  0  0  0  0  0  0  0  0  0  0
  147.7169  138.6247  155.8911 H   0  0  0  0  0  0  0  0  0  0  0  0
  149.6004  138.3194  153.7158 H   0  0  0  0  0  0  0  0  0  0  0  0
  148.0914  139.7508  152.5678 H   0  0  0  0  0  0  0  0  0  0  0  0
  147.1240  138.5378  153.3567 H   0  0  0  0  0  0  0  0  0  0  0  0
  146.1438  140.8337  153.5837 H   0  0  0  0  0  0  0  0  0  0  0  0
  146.5015  140.1373  155.1431 H   0  0  0  0  0  0  0  0  0  0  0  0
  148.2071  142.1871  153.6520 H   0  0  0  0  0  0  0  0  0  0  0  0
  147.2652  142.4794  155.0939 H   0  0  0  0  0  0  0  0  0  0  0  0
  149.6687  142.1731  155.6379 H   0  0  0  0  0  0  0  0  0  0  0  0
  148.6961  140.9437  156.4041 H   0  0  0  0  0  0  0  0  0  0  0  0
  150.2220  140.6288  153.7982 H   0  0  0  0  0  0  0  0  0  0  0  0
  1  2  2  0  0  0  0
  2 10  1  0  0  0  0
  2  3  1  0  0  0  0
  3  4  2  0  0  0  0
  3 24  1  0  0  0  0
  4  5  1  0  0  0  0
  4 25  1  0  0  0  0
  5  6  1  0  0  0  0
  5  9  2  0  0  0  0
  6  7  2  0  0  0  0
  6  8  1  0  0  0  0
  9 10  1  0  0  0  0
  9 26  1  0  0  0  0
 10 11  1  0  0  0  0
 11 12  1  0  0  0  0
 11 27  1  0  0  0  0
 11 28  1  0  0  0  0
 12 13  1  0  0  0  0
 12 29  1  0  0  0  0
 12 30  1  0  0  0  0
 13 14  1  0  0  0  0
 13 31  1  0  0  0  0
 14 19  1  0  0  0  0
 14 15  1  0  0  0  0
 14 32  1  0  0  0  0
 15 16  1  0  0  0  0
 15 33  1  0  0  0  0
 15 34  1  0  0  0  0
 16 17  1  0  0  0  0
 16 35  1  0  0  0  0
 16 36  1  0  0  0  0
 17 18  1  0  0  0  0
 17 37  1  0  0  0  0
 17 38  1  0  0  0  0
 18 19  1  0  0  0  0
 18 39  1  0  0  0  0
 18 40  1  0  0  0  0
 19 20  1  0  0  0  0
 19 41  1  0  0  0  0
 20 21  1  0  0  0  0
 20 22  1  0  0  0  0
 20 23  1  0  0  0  0
M  CHG  1   6   1
M  CHG  1   8  -1
M  END
> <s_m_source_file>
AV-unprocessed.smi

> <i_m_source_file_index>
3029

> <i_lp_mmshare_version>
43012

> <i_f3d_flags>
0

> <s_epik_input>
Tz1jMVtjSF1bY0hdYyhbTitdKD1PKVtPLV0pW2NIXW4xW0NIMl1bQ0gyXVtOSF1bQ0BASF0yW0NIMl1bQ0gyXVtDSDJdW0NIMl1bQ0BIXTJDKEYpKEYpRg==

> <s_epik_cmdline>
J2VwaWtfcHl0aG9uJywgJy1waCcsICc3LjAnLCAnLXRuJywgJzgnLCAnLW1hJywgJzIwMCcsICctbWV0YWxfYmluZGluZycsICctaW1hZScsICc8aW5maWxlLm1hZT4nLCAnLW9tYWUnLCAnPG91dGZpbGUubWFlPic=

> <r_lp_tautomer_probability>
1

> <r_epik_Ionization_Penalty>
1.65565

> <r_epik_Ionization_Penalty_Charging>
3.32684e-10

> <r_epik_Ionization_Penalty_Neutral>
1.65565

> <r_epik_State_Penalty>
1.75811

> <r_epik_Charging_Adjusted_Penalty>
1.75811

> <i_epik_Tot_Q>
0

> <i_epik_Tot_abs_Q>
2

> <r_epik_Metal_State_Penalty>
1.75811

> <b_epik_Metal_Only>
0

> <s_lp_Force_Field>
OPLS_2005

> <r_lp_Energy>
39.0204

> <b_lp_Chiralities_Consistent>
1

> <s_lp_Variant>
AV-unprocessed.smi:3029-6

> <Gold.Version>
5.8.1

> <Gold.Id.Protein>
6NUR|6NUR_protein|mol2

> <Gold.PLP.Fitness>
42.8191

> <Gold.PLP.PLP>
-37.9815

> <Gold.PLP.part.hbond>
-1.0000

> <Gold.PLP.part.metal>
0.0000

> <Gold.PLP.part.buried>
-1.2811

> <Gold.PLP.part.nonpolar>
-34.9706

> <Gold.PLP.part.repulsive>
0.2350

> <Gold.PLP.ligand.clash>
0.0000

> <Gold.PLP.ligand.torsion>
0.5587

> <Gold.PLP.Chemscore.Hbond>
0.8938

> <Gold.PLP.Chemscore.CHOScore>
1.0000

> <Gold.PLP.Chemscore.Metal>
0.0000

> <Gold.Chemscore.Hbonds>
donor molecule, donor type, donor heavy atom, donor atom, acceptor molecule, acceptor atom, score
      P1  H 10752 10764       L1     1  0.40
      L1  C     9    26       P1  7948  0.59

> <Gold.PLP.Chemscore.Internal.Correction>
0.2737

> <Gold.Rescore>
     Score         DG    S(hbond)    S(metal)    S(lipo)     H(rot)  DE(clash)    DE(int)     intcor
      8.62     -11.45       0.66        0.00      72.84       1.86       0.46       2.38       ----

> <Gold.Chemscore.Fitness>
8.6151

> <Gold.Chemscore.DG>
-11.4516

> <Gold.Chemscore.ZeroCoef>
-5.4800

> <Gold.Chemscore.Hbond>
0.6609

> <Gold.Chemscore.Metal>
0.0000

> <Gold.Chemscore.Lipo>
72.8363

> <Gold.Chemscore.Internal_Hbond>
0.0000

> <Gold.Chemscore.DEClash>
0.4565

> <Gold.Chemscore.DEInternal>
2.3799

> <Gold.Chemscore.Rot>
1.8584

> <Gold.Chemscore.Internal.Correction>
   9.000000E+99

> <Gold.Chemscore.Hbonds>
donor molecule, donor type, donor heavy atom, donor atom, acceptor molecule, acceptor atom, score
      P1  H 10752 10764       L1     1  0.40

> <Gold.Chemscore.Hbond.Weighted>
-2.2073

> <Gold.Chemscore.Metal.Weighted>
-0.0000

> <Gold.Chemscore.Lipo.Weighted>
-8.5218

> <Gold.Chemscore.Internal_Hbond.Weighted>
0.0000

> <Gold.Chemscore.DEClash.Weighted>
0.4565

> <Gold.Chemscore.DEInternal.Weighted>
2.3799

> <Gold.Chemscore.Rot.Weighted>
4.7576

> <Gold.Chemscore.Internal.Correction.Weighted>
   9.000000E+99

> <Gold.Protein.RotatedTorsions>
[ 6907 6896 6895 6894 ] final  116.77 input  -60.11 | X-H torsion
[ 7974 7965 7964 7962 ] final -157.75 input  175.53 | X-H torsion
[ 8008 7997 7996 7995 ] final  -54.80 input   59.86 | X-H torsion
[ 10167 10162 10161 10158 ] final  -18.81 input  -65.29 | X-H torsion
[ 10718 10713 10712 10709 ] final  150.26 input   66.30 | X-H torsion
[ 10763 10752 10751 10750 ] final  -20.80 input  -60.55 | X-H torsion
[ 11005 11000 10999 10996 ] final  106.89 input  -57.11 | X-H torsion

> <Gold.Protein.ActiveResidues>
 VAL166  LYS551  ARG553  GLY616  TRP617  ASP618  TYR619  PRO620  LYS621  CYS622 
 ASP623  PHE694  ASN695  SER759  ASP760  ASP761  ALA762  ILE779  LEU786  VAL792 
 PHE793  MET794  SER795  GLU796  ALA797  LYS798  CYS799  TRP800  GLU811  SER814 

> <Gold.Protein.RotatedAtoms>
  152.4656  133.7916  159.6904 H   0  0  0  0  0  0  0  0  0  0  0  0  # atno 6907 bound_to 6896
  150.8619  133.7621  159.2996 H   0  0  0  0  0  0  0  0  0  0  0  0  # atno 6908 bound_to 6896
  151.5184  135.1070  159.9924 H   0  0  0  0  0  0  0  0  0  0  0  0  # atno 6909 bound_to 6896
  144.7535  140.3925  143.6030 H   0  0  0  0  0  0  0  0  0  0  0  0  # atno 7974 bound_to 7965
  154.4174  140.1167  156.5375 H   0  0  0  0  0  0  0  0  0  0  0  0  # atno 8008 bound_to 7997
  155.6542  140.3496  155.4740 H   0  0  0  0  0  0  0  0  0  0  0  0  # atno 8009 bound_to 7997
  155.9767  140.1152  157.0753 H   0  0  0  0  0  0  0  0  0  0  0  0  # atno 8010 bound_to 7997
  140.7262  143.4879  151.0030 H   0  0  0  0  0  0  0  0  0  0  0  0  # atno 10167 bound_to 10162
  157.2857  131.0844  151.1499 H   0  0  0  0  0  0  0  0  0  0  0  0  # atno 10718 bound_to 10713
  153.6261  135.6991  153.5292 H   0  0  0  0  0  0  0  0  0  0  0  0  # atno 10763 bound_to 10752
  153.2897  135.4160  155.1155 H   0  0  0  0  0  0  0  0  0  0  0  0  # atno 10764 bound_to 10752
  154.8532  135.3622  154.5803 H   0  0  0  0  0  0  0  0  0  0  0  0  # atno 10765 bound_to 10752
  139.8820  134.9383  156.5736 H   0  0  0  0  0  0  0  0  0  0  0  0  # atno 11005 bound_to 11000
  145.6861  139.1629  143.2673 LP  0  0  0  0  0  0  0  0  0  0  0  0  # atno 17320 bound_to 7965
  146.1516  140.6917  142.9319 LP  0  0  0  0  0  0  0  0  0  0  0  0  # atno 17321 bound_to 7965
  139.8582  143.7349  152.3175 LP  0  0  0  0  0  0  0  0  0  0  0  0  # atno 17342 bound_to 10162
  139.7555  144.7522  151.0442 LP  0  0  0  0  0  0  0  0  0  0  0  0  # atno 17343 bound_to 10162
  157.2916  130.6799  149.6117 LP  0  0  0  0  0  0  0  0  0  0  0  0  # atno 17370 bound_to 10713
  155.9665  130.4419  150.5359 LP  0  0  0  0  0  0  0  0  0  0  0  0  # atno 17371 bound_to 10713
  140.8080  133.8452  155.8785 LP  0  0  0  0  0  0  0  0  0  0  0  0  # atno 17394 bound_to 11000
  140.9532  134.1751  157.4711 LP  0  0  0  0  0  0  0  0  0  0  0  0  # atno 17395 bound_to 11000

$$$$
