AV-unprocessed.smi:1637|AV-procd|sdf|6545|dock5
  -GOLD-   22720 7233D 1   1.00000     0.00000
 Structure written by MMmdl.
 38 39  0  0  0  0  0  0  0  0  1 V2000
  150.5064  140.4984  156.5265 C   0  0  0  0  0  0  0  0  0  0  0  0
  149.6709  141.3046  155.7030 O   0  0  0  0  0  0  0  0  0  0  0  0
  148.7398  140.6770  154.9010 C   0  0  0  0  0  0  0  0  0  0  0  0
  147.9300  141.4677  154.0625 C   0  0  0  0  0  0  0  0  0  0  0  0
  146.9795  140.8360  153.2375 C   0  0  0  0  0  0  0  0  0  0  0  0
  146.8646  139.4253  153.2814 C   0  0  0  0  0  0  0  0  0  0  0  0
  145.9611  138.6555  152.4976 N   0  0  0  0  0  0  0  0  0  0  0  0
  145.6433  137.3526  152.5907 C   0  0  0  0  0  0  0  0  0  0  0  0
  146.1259  136.5511  153.3898 O   0  0  0  0  0  0  0  0  0  0  0  0
  144.7183  137.0188  151.6792 N   0  0  0  0  0  0  0  0  0  0  0  0
  144.1542  135.6825  151.4804 C   0  0  1  0  0  0  0  0  0  0  0  0
  145.2592  134.7016  151.0281 C   0  0  0  0  0  0  0  0  0  0  0  0
  144.7318  133.4632  150.2858 C   0  0  0  0  0  0  0  0  0  0  0  0
  143.8202  132.5500  151.1188 C   0  0  0  0  0  0  0  0  0  0  0  0
  142.4931  133.2110  151.5291 C   0  0  0  0  0  0  0  0  0  0  0  0
  142.6429  134.1060  152.6699 N   0  0  0  0  0  0  0  0  0  0  0  0
  143.3773  135.2272  152.7301 C   0  0  0  0  0  0  0  0  0  0  0  0
  143.4359  135.8798  153.7722 O   0  0  0  0  0  0  0  0  0  0  0  0
  147.7256  138.7268  154.1534 C   0  0  0  0  0  0  0  0  0  0  0  0
  148.6393  139.3258  154.9456 N   0  0  0  0  0  0  0  0  0  0  0  0
  151.1788  141.1401  157.0953 H   0  0  0  0  0  0  0  0  0  0  0  0
  151.1202  139.8220  155.9300 H   0  0  0  0  0  0  0  0  0  0  0  0
  149.9221  139.9165  157.2407 H   0  0  0  0  0  0  0  0  0  0  0  0
  148.0387  142.5422  154.0488 H   0  0  0  0  0  0  0  0  0  0  0  0
  146.3739  141.4500  152.5907 H   0  0  0  0  0  0  0  0  0  0  0  0
  145.5023  139.1640  151.7560 H   0  0  0  0  0  0  0  0  0  0  0  0
  144.3849  137.7399  151.0560 H   0  0  0  0  0  0  0  0  0  0  0  0
  143.4179  135.7655  150.6786 H   0  0  0  0  0  0  0  0  0  0  0  0
  145.9465  135.2131  150.3529 H   0  0  0  0  0  0  0  0  0  0  0  0
  145.8626  134.3958  151.8842 H   0  0  0  0  0  0  0  0  0  0  0  0
  144.2058  133.7776  149.3834 H   0  0  0  0  0  0  0  0  0  0  0  0
  145.5855  132.8783  149.9419 H   0  0  0  0  0  0  0  0  0  0  0  0
  143.5919  131.6679  150.5196 H   0  0  0  0  0  0  0  0  0  0  0  0
  144.3502  132.1833  151.9989 H   0  0  0  0  0  0  0  0  0  0  0  0
  142.0369  133.7367  150.6891 H   0  0  0  0  0  0  0  0  0  0  0  0
  141.7856  132.4361  151.8244 H   0  0  0  0  0  0  0  0  0  0  0  0
  142.1466  133.8408  153.5084 H   0  0  0  0  0  0  0  0  0  0  0  0
  147.6822  137.6494  154.2190 H   0  0  0  0  0  0  0  0  0  0  0  0
  1  2  1  0  0  0  0
  1 21  1  0  0  0  0
  1 22  1  0  0  0  0
  1 23  1  0  0  0  0
  2  3  1  0  0  0  0
  3 20  1  0  0  0  0
  3  4  2  0  0  0  0
  4  5  1  0  0  0  0
  4 24  1  0  0  0  0
  5  6  2  0  0  0  0
  5 25  1  0  0  0  0
  6  7  1  0  0  0  0
  6 19  1  0  0  0  0
  7  8  1  0  0  0  0
  7 26  1  0  0  0  0
  8  9  2  0  0  0  0
  8 10  1  0  0  0  0
 10 11  1  0  0  0  0
 10 27  1  0  0  0  0
 11 17  1  0  0  0  0
 11 12  1  0  0  0  0
 11 28  1  0  0  0  0
 12 13  1  0  0  0  0
 12 29  1  0  0  0  0
 12 30  1  0  0  0  0
 13 14  1  0  0  0  0
 13 31  1  0  0  0  0
 13 32  1  0  0  0  0
 14 15  1  0  0  0  0
 14 33  1  0  0  0  0
 14 34  1  0  0  0  0
 15 16  1  0  0  0  0
 15 35  1  0  0  0  0
 15 36  1  0  0  0  0
 16 17  1  0  0  0  0
 16 37  1  0  0  0  0
 17 18  2  0  0  0  0
 19 20  2  0  0  0  0
 19 38  1  0  0  0  0
M  END
> <s_m_source_file>
AV-unprocessed.smi

> <i_m_source_file_index>
1637

> <i_lp_mmshare_version>
43012

> <i_f3d_flags>
0

> <s_epik_input>
W0NIM11PYzFbY0hdW2NIXWMoW2NIXW4xKVtOSF1DKD1PKVtOSF1bQ0BASF0yW0NIMl1bQ0gyXVtDSDJdW0NIMl1bTkhdQzI9Tw==

> <s_epik_cmdline>
J2VwaWtfcHl0aG9uJywgJy1waCcsICc3LjAnLCAnLXRuJywgJzgnLCAnLW1hJywgJzIwMCcsICctbWV0YWxfYmluZGluZycsICctaW1hZScsICc8aW5maWxlLm1hZT4nLCAnLW9tYWUnLCAnPG91dGZpbGUubWFlPic=

> <r_lp_tautomer_probability>
1

> <r_epik_Ionization_Penalty>
8.30847e-05

> <r_epik_Ionization_Penalty_Charging>
0

> <r_epik_Ionization_Penalty_Neutral>
8.30847e-05

> <r_epik_State_Penalty>
-0

> <r_epik_Charging_Adjusted_Penalty>
0

> <i_epik_Tot_Q>
0

> <i_epik_Tot_abs_Q>
0

> <r_epik_Metal_State_Penalty>
-0

> <b_epik_Metal_Only>
0

> <s_lp_Force_Field>
OPLS_2005

> <r_lp_Energy>
13.0177

> <b_lp_Chiralities_Consistent>
1

> <s_lp_Variant>
AV-unprocessed.smi:1637-2

> <Gold.Version>
5.8.1

> <Gold.Id.Protein>
6NUR|6NUR_protein|mol2

> <Gold.PLP.Fitness>
42.5868

> <Gold.PLP.PLP>
-32.7435

> <Gold.PLP.part.hbond>
-4.0000

> <Gold.PLP.part.metal>
0.0000

> <Gold.PLP.part.buried>
-2.2825

> <Gold.PLP.part.nonpolar>
-29.5161

> <Gold.PLP.part.repulsive>
2.0968

> <Gold.PLP.ligand.clash>
0.0000

> <Gold.PLP.ligand.torsion>
0.0415

> <Gold.PLP.Chemscore.Hbond>
2.3360

> <Gold.PLP.Chemscore.CHOScore>
0.9636

> <Gold.PLP.Chemscore.Metal>
0.0000

> <Gold.Chemscore.Hbonds>
donor molecule, donor type, donor heavy atom, donor atom, acceptor molecule, acceptor atom, score
      L1  H     7    26       P1 10175  0.07
      L1  H    10    27       P1 10171  1.00

> <Gold.PLP.Chemscore.Internal.Correction>
0.0275

> <Gold.Rescore>
     Score         DG    S(hbond)    S(metal)    S(lipo)     H(rot)  DE(clash)    DE(int)     intcor
     13.45     -17.58       2.36        0.00      64.62       1.31       1.22       2.90       ----

> <Gold.Chemscore.Fitness>
13.4544

> <Gold.Chemscore.DG>
-17.5823

> <Gold.Chemscore.ZeroCoef>
-5.4800

> <Gold.Chemscore.Hbond>
2.3632

> <Gold.Chemscore.Metal>
0.0000

> <Gold.Chemscore.Lipo>
64.6168

> <Gold.Chemscore.Internal_Hbond>
0.0000

> <Gold.Chemscore.DEClash>
1.2250

> <Gold.Chemscore.DEInternal>
2.9029

> <Gold.Chemscore.Rot>
1.3090

> <Gold.Chemscore.Internal.Correction>
   9.000000E+99

> <Gold.Chemscore.Hbonds>
donor molecule, donor type, donor heavy atom, donor atom, acceptor molecule, acceptor atom, score
      L1  H     7    26       P1 10175  0.07
      L1  H    10    27       P1 10171  0.98
      L1  H    16    37       P1 10957  0.01

> <Gold.Chemscore.Hbond.Weighted>
-7.8930

> <Gold.Chemscore.Metal.Weighted>
-0.0000

> <Gold.Chemscore.Lipo.Weighted>
-7.5602

> <Gold.Chemscore.Internal_Hbond.Weighted>
0.0000

> <Gold.Chemscore.DEClash.Weighted>
1.2250

> <Gold.Chemscore.DEInternal.Weighted>
2.9029

> <Gold.Chemscore.Rot.Weighted>
3.3509

> <Gold.Chemscore.Internal.Correction.Weighted>
   9.000000E+99

> <Gold.Protein.RotatedTorsions>
[ 6907 6896 6895 6894 ] final   63.04 input  -60.11 | X-H torsion
[ 7974 7965 7964 7962 ] final  -50.51 input  175.53 | X-H torsion
[ 8008 7997 7996 7995 ] final  -27.17 input   59.86 | X-H torsion
[ 10167 10162 10161 10158 ] final   38.69 input  -65.29 | X-H torsion
[ 10718 10713 10712 10709 ] final -140.16 input   66.30 | X-H torsion
[ 10763 10752 10751 10750 ] final  122.84 input  -60.55 | X-H torsion
[ 11005 11000 10999 10996 ] final -121.23 input  -57.11 | X-H torsion

> <Gold.Protein.ActiveResidues>
 VAL166  LYS551  ARG553  GLY616  TRP617  ASP618  TYR619  PRO620  LYS621  CYS622 
 ASP623  PHE694  ASN695  SER759  ASP760  ASP761  ALA762  ILE779  LEU786  VAL792 
 PHE793  MET794  SER795  GLU796  ALA797  LYS798  CYS799  TRP800  GLU811  SER814 

> <Gold.Protein.RotatedAtoms>
  152.4221  134.5936  159.9980 H   0  0  0  0  0  0  0  0  0  0  0  0  # atno 6907 bound_to 6896
  151.6083  133.3344  159.3070 H   0  0  0  0  0  0  0  0  0  0  0  0  # atno 6908 bound_to 6896
  150.8109  134.7301  159.6752 H   0  0  0  0  0  0  0  0  0  0  0  0  # atno 6909 bound_to 6896
  145.9291  140.7766  142.9609 H   0  0  0  0  0  0  0  0  0  0  0  0  # atno 7974 bound_to 7965
  154.4390  140.1879  156.0890 H   0  0  0  0  0  0  0  0  0  0  0  0  # atno 8008 bound_to 7997
  156.0380  140.3323  155.7186 H   0  0  0  0  0  0  0  0  0  0  0  0  # atno 8009 bound_to 7997
  155.5742  140.0615  157.2790 H   0  0  0  0  0  0  0  0  0  0  0  0  # atno 8010 bound_to 7997
  140.3912  144.1849  150.6131 H   0  0  0  0  0  0  0  0  0  0  0  0  # atno 10167 bound_to 10162
  156.3191  130.7524  151.1618 H   0  0  0  0  0  0  0  0  0  0  0  0  # atno 10718 bound_to 10713
  153.6362  135.3387  155.3057 H   0  0  0  0  0  0  0  0  0  0  0  0  # atno 10763 bound_to 10752
  154.8569  135.4307  154.2053 H   0  0  0  0  0  0  0  0  0  0  0  0  # atno 10764 bound_to 10752
  153.2961  135.7021  153.7321 H   0  0  0  0  0  0  0  0  0  0  0  0  # atno 10765 bound_to 10752
  141.0086  134.0298  157.3444 H   0  0  0  0  0  0  0  0  0  0  0  0  # atno 11005 bound_to 11000
  144.6762  140.2097  143.7378 LP  0  0  0  0  0  0  0  0  0  0  0  0  # atno 17320 bound_to 7965
  145.8450  139.2148  143.1805 LP  0  0  0  0  0  0  0  0  0  0  0  0  # atno 17321 bound_to 7965
  140.4837  143.2370  151.8918 LP  0  0  0  0  0  0  0  0  0  0  0  0  # atno 17342 bound_to 10162
  139.4789  144.5241  151.8759 LP  0  0  0  0  0  0  0  0  0  0  0  0  # atno 17343 bound_to 10162
  157.7408  131.0512  150.5142 LP  0  0  0  0  0  0  0  0  0  0  0  0  # atno 17370 bound_to 10713
  156.5292  130.4180  149.6210 LP  0  0  0  0  0  0  0  0  0  0  0  0  # atno 17371 bound_to 10713
  139.9077  135.0183  156.7557 LP  0  0  0  0  0  0  0  0  0  0  0  0  # atno 17394 bound_to 11000
  140.6772  133.9507  155.7889 LP  0  0  0  0  0  0  0  0  0  0  0  0  # atno 17395 bound_to 11000

$$$$
