AV-unprocessed.smi:198|AV-procd|sdf|1556|dock1
  -GOLD-   2262019423D 1   1.00000     0.00000
 Structure written by MMmdl.
 59 63  0  0  0  0  0  0  0  0  2 V2000
  137.8737  138.6061  160.1059 C   0  0  0  0  0  0  0  0  0  0  0  0
  138.0340  138.3864  158.6523 N   0  3  1  0  0  0  0  0  0  0  0  0
  139.4079  138.6927  158.1846 C   0  0  0  0  0  0  0  0  0  0  0  0
  139.5009  138.5971  156.6548 C   0  0  0  0  0  0  0  0  0  0  0  0
  139.0568  137.2028  156.1623 C   0  0  1  0  0  0  0  0  0  0  0  0
  137.6515  136.8510  156.7049 C   0  0  2  0  0  0  0  0  0  0  0  0
  136.5402  137.6268  155.9674 C   0  0  0  0  0  0  0  0  0  0  0  0
  136.6601  137.4180  154.4513 C   0  0  0  0  0  0  0  0  0  0  0  0
  138.0619  137.7954  153.9489 C   0  0  0  0  0  0  0  0  0  0  0  0
  139.0966  137.0787  154.6995 N   0  0  0  0  0  0  0  0  0  0  0  0
  140.3384  137.0149  154.1513 C   0  0  0  0  0  0  0  0  0  0  0  0
  141.1044  138.1371  154.0871 N   0  0  0  0  0  0  0  0  0  0  0  0
  142.3362  138.0864  153.5727 C   0  0  0  0  0  0  0  0  0  0  0  0
  142.9895  137.0349  153.0761 N   0  0  0  0  0  0  0  0  0  0  0  0
  142.2264  135.9058  153.1300 C   0  0  0  0  0  0  0  0  0  0  0  0
  140.9014  135.8095  153.6429 C   0  0  0  0  0  0  0  0  0  0  0  0
  140.4391  134.5055  153.5113 N   0  0  0  0  0  0  0  0  0  0  0  0
  141.4347  133.8673  152.9595 C   0  0  0  0  0  0  0  0  0  0  0  0
  142.5562  134.6273  152.7120 N   0  0  0  0  0  0  0  0  0  0  0  0
  143.7815  134.1876  152.1054 C   0  0  0  0  0  0  0  0  0  0  0  0
  144.1264  134.5884  150.6707 C   0  0  0  0  0  0  0  0  0  0  0  0
  144.7669  133.2032  150.4242 C   0  0  0  0  0  0  0  0  0  0  0  0
  144.3459  132.5165  149.1159 C   0  0  0  0  0  0  0  0  0  0  0  0
  142.9629  132.2260  149.1078 O   0  0  0  0  0  0  0  0  0  0  0  0
  146.3070  133.1107  150.5111 C   0  0  0  0  0  0  0  0  0  0  0  0
  146.7796  131.7852  150.6387 O   0  0  0  0  0  0  0  0  0  0  0  0
  143.9861  132.7319  151.6724 C   0  0  0  0  0  0  0  0  0  0  0  0
  137.5897  137.0323  158.2356 C   0  0  0  0  0  0  0  0  0  0  0  0
  138.5105  137.9286  160.6765 H   0  0  0  0  0  0  0  0  0  0  0  0
  136.8393  138.4404  160.4089 H   0  0  0  0  0  0  0  0  0  0  0  0
  138.1376  139.6301  160.3729 H   0  0  0  0  0  0  0  0  0  0  0  0
  139.6871  139.6982  158.5018 H   0  0  0  0  0  0  0  0  0  0  0  0
  140.1163  138.0046  158.6489 H   0  0  0  0  0  0  0  0  0  0  0  0
  138.8888  139.3798  156.2066 H   0  0  0  0  0  0  0  0  0  0  0  0
  140.5267  138.7966  156.3426 H   0  0  0  0  0  0  0  0  0  0  0  0
  139.7441  136.4776  156.5953 H   0  0  0  0  0  0  0  0  0  0  0  0
  137.4799  135.7925  156.5023 H   0  0  0  0  0  0  0  0  0  0  0  0
  135.5593  137.2930  156.3076 H   0  0  0  0  0  0  0  0  0  0  0  0
  136.5988  138.6914  156.1950 H   0  0  0  0  0  0  0  0  0  0  0  0
  136.4580  136.3734  154.2105 H   0  0  0  0  0  0  0  0  0  0  0  0
  135.9055  138.0073  153.9297 H   0  0  0  0  0  0  0  0  0  0  0  0
  138.1360  137.5525  152.8879 H   0  0  0  0  0  0  0  0  0  0  0  0
  138.2175  138.8709  154.0400 H   0  0  0  0  0  0  0  0  0  0  0  0
  142.8767  139.0214  153.5601 H   0  0  0  0  0  0  0  0  0  0  0  0
  141.3734  132.8165  152.7166 H   0  0  0  0  0  0  0  0  0  0  0  0
  144.5846  134.4845  152.7805 H   0  0  0  0  0  0  0  0  0  0  0  0
  143.2360  134.7584  150.0630 H   0  0  0  0  0  0  0  0  0  0  0  0
  144.8149  135.4307  150.5947 H   0  0  0  0  0  0  0  0  0  0  0  0
  144.5828  133.1357  148.2498 H   0  0  0  0  0  0  0  0  0  0  0  0
  144.8824  131.5772  148.9790 H   0  0  0  0  0  0  0  0  0  0  0  0
  142.4849  133.0397  149.1591 H   0  0  0  0  0  0  0  0  0  0  0  0
  146.7692  133.5410  149.6221 H   0  0  0  0  0  0  0  0  0  0  0  0
  146.6869  133.6744  151.3634 H   0  0  0  0  0  0  0  0  0  0  0  0
  147.7202  131.7912  150.5465 H   0  0  0  0  0  0  0  0  0  0  0  0
  144.5677  132.1357  152.3765 H   0  0  0  0  0  0  0  0  0  0  0  0
  143.0540  132.2248  151.4214 H   0  0  0  0  0  0  0  0  0  0  0  0
  138.2239  136.2873  158.7191 H   0  0  0  0  0  0  0  0  0  0  0  0
  136.5734  136.8520  158.5883 H   0  0  0  0  0  0  0  0  0  0  0  0
  137.4201  139.0448  158.1939 H   0  0  0  0  0  0  0  0  0  0  0  0
  1  2  1  0  0  0  0
  1 29  1  0  0  0  0
  1 30  1  0  0  0  0
  1 31  1  0  0  0  0
  2 28  1  0  0  0  0
  2  3  1  0  0  0  0
  2 59  1  0  0  0  0
  3  4  1  0  0  0  0
  3 32  1  0  0  0  0
  3 33  1  0  0  0  0
  4  5  1  0  0  0  0
  4 34  1  0  0  0  0
  4 35  1  0  0  0  0
  5 10  1  0  0  0  0
  5  6  1  0  0  0  0
  5 36  1  0  0  0  0
  6  7  1  0  0  0  0
  6 28  1  0  0  0  0
  6 37  1  0  0  0  0
  7  8  1  0  0  0  0
  7 38  1  0  0  0  0
  7 39  1  0  0  0  0
  8  9  1  0  0  0  0
  8 40  1  0  0  0  0
  8 41  1  0  0  0  0
  9 10  1  0  0  0  0
  9 42  1  0  0  0  0
  9 43  1  0  0  0  0
 10 11  1  0  0  0  0
 11 16  1  0  0  0  0
 11 12  2  0  0  0  0
 12 13  1  0  0  0  0
 13 14  2  0  0  0  0
 13 44  1  0  0  0  0
 14 15  1  0  0  0  0
 15 19  1  0  0  0  0
 15 16  2  0  0  0  0
 16 17  1  0  0  0  0
 17 18  2  0  0  0  0
 18 19  1  0  0  0  0
 18 45  1  0  0  0  0
 19 20  1  0  0  0  0
 20 27  1  0  0  0  0
 20 21  1  0  0  0  0
 20 46  1  0  0  0  0
 21 22  1  0  0  0  0
 21 47  1  0  0  0  0
 21 48  1  0  0  0  0
 22 23  1  0  0  0  0
 22 25  1  0  0  0  0
 22 27  1  0  0  0  0
 23 24  1  0  0  0  0
 23 49  1  0  0  0  0
 23 50  1  0  0  0  0
 24 51  1  0  0  0  0
 25 26  1  0  0  0  0
 25 52  1  0  0  0  0
 25 53  1  0  0  0  0
 26 54  1  0  0  0  0
 27 55  1  0  0  0  0
 27 56  1  0  0  0  0
 28 57  1  0  0  0  0
 28 58  1  0  0  0  0
M  CHG  1   2   1
M  END
> <s_m_source_file>
AV-unprocessed.smi

> <i_m_source_file_index>
198

> <i_lp_mmshare_version>
43012

> <i_f3d_flags>
0

> <s_epik_input>
W0NIMl0xW0NIMl1OKFtDSDNdKVtDSDJdW0NAQEhdKFtDQEhdMTIpW0NIMl1bQ0gyXVtDSDJdTjJjKG5bY0hdbjMpYyhjMzQpbltjSF1uNFtDSF0oW0NIMl01KVtDSDJdQzUoW0NIMl1bT0hdKVtDSDJdW09IXQ==

> <s_epik_cmdline>
J2VwaWtfcHl0aG9uJywgJy1waCcsICc3LjAnLCAnLXRuJywgJzgnLCAnLW1hJywgJzIwMCcsICctbWV0YWxfYmluZGluZycsICctaW1hZScsICc8aW5maWxlLm1hZT4nLCAnLW9tYWUnLCAnPG91dGZpbGUubWFlPic=

> <r_lp_tautomer_probability>
1

> <r_epik_Ionization_Penalty>
0.00239938

> <r_epik_Ionization_Penalty_Charging>
0.00138697

> <r_epik_Ionization_Penalty_Neutral>
0.00101241

> <r_epik_State_Penalty>
-0

> <r_epik_Charging_Adjusted_Penalty>
0.00138697

> <i_epik_Tot_Q>
1

> <i_epik_Tot_abs_Q>
1

> <r_epik_Metal_State_Penalty>
-0

> <b_epik_Metal_Only>
0

> <s_lp_Force_Field>
OPLS_2005

> <r_lp_Energy>
58.4616

> <b_lp_Chiralities_Consistent>
1

> <s_lp_Variant>
AV-unprocessed.smi:198-5

> <Gold.Version>
5.8.1

> <Gold.Id.Protein>
6NUR|6NUR_protein|mol2

> <Gold.PLP.Fitness>
56.4721

> <Gold.PLP.PLP>
-44.7699

> <Gold.PLP.part.hbond>
-4.9100

> <Gold.PLP.part.metal>
0.0000

> <Gold.PLP.part.buried>
-6.6671

> <Gold.PLP.part.nonpolar>
-36.0726

> <Gold.PLP.part.repulsive>
0.8780

> <Gold.PLP.ligand.clash>
0.0000

> <Gold.PLP.ligand.torsion>
0.6966

> <Gold.PLP.Chemscore.Hbond>
3.0004

> <Gold.PLP.Chemscore.CHOScore>
1.0461

> <Gold.PLP.Chemscore.Metal>
0.0000

> <Gold.Chemscore.Hbonds>
donor molecule, donor type, donor heavy atom, donor atom, acceptor molecule, acceptor atom, score
      L1  H    24    51       P1 10186  0.94
      L1  H    26    54       P1 10747  0.86
      P1  H 10785 10796       L1    24  0.61
      P1  H 10995 11001       L1    17  0.22
      P1  H 11000 11005       L1    17  0.35
      L1  C    13    44       P1 10175  0.75
      L1  C    18    45       P1 10957  0.26

> <Gold.PLP.Chemscore.Internal.Correction>
0.9558

> <Gold.Rescore>
     Score         DG    S(hbond)    S(metal)    S(lipo)     H(rot)  DE(clash)    DE(int)     intcor
     12.59     -14.21       2.01        0.00      84.66       3.08       1.00       0.62       ----

> <Gold.Chemscore.Fitness>
12.5862

> <Gold.Chemscore.DG>
-14.2066

> <Gold.Chemscore.ZeroCoef>
-5.4800

> <Gold.Chemscore.Hbond>
2.0064

> <Gold.Chemscore.Metal>
0.0000

> <Gold.Chemscore.Lipo>
84.6617

> <Gold.Chemscore.Internal_Hbond>
0.0000

> <Gold.Chemscore.DEClash>
0.9957

> <Gold.Chemscore.DEInternal>
0.6247

> <Gold.Chemscore.Rot>
3.0781

> <Gold.Chemscore.Internal.Correction>
   9.000000E+99

> <Gold.Chemscore.Hbonds>
donor molecule, donor type, donor heavy atom, donor atom, acceptor molecule, acceptor atom, score
      L1  H    24    51       P1 10186  0.90
      L1  H    26    54       P1 10747  0.83
      P1  H 10785 10796       L1    24  0.09
      P1  H 10995 11001       L1    17  0.06
      P1  H 11000 11005       L1    17  0.02

> <Gold.Chemscore.Hbond.Weighted>
-6.7012

> <Gold.Chemscore.Metal.Weighted>
-0.0000

> <Gold.Chemscore.Lipo.Weighted>
-9.9054

> <Gold.Chemscore.Internal_Hbond.Weighted>
0.0000

> <Gold.Chemscore.DEClash.Weighted>
0.9957

> <Gold.Chemscore.DEInternal.Weighted>
0.6247

> <Gold.Chemscore.Rot.Weighted>
7.8800

> <Gold.Chemscore.Internal.Correction.Weighted>
   9.000000E+99

> <Gold.Protein.RotatedTorsions>
[ 6907 6896 6895 6894 ] final  138.63 input  -60.11 | X-H torsion
[ 7974 7965 7964 7962 ] final  125.11 input  175.53 | X-H torsion
[ 8008 7997 7996 7995 ] final  -29.95 input   59.86 | X-H torsion
[ 10167 10162 10161 10158 ] final  -80.83 input  -65.29 | X-H torsion
[ 10718 10713 10712 10709 ] final -145.08 input   66.30 | X-H torsion
[ 10763 10752 10751 10750 ] final  154.16 input  -60.55 | X-H torsion
[ 11005 11000 10999 10996 ] final   17.79 input  -57.11 | X-H torsion

> <Gold.Protein.ActiveResidues>
 VAL166  LYS551  ARG553  GLY616  TRP617  ASP618  TYR619  PRO620  LYS621  CYS622 
 ASP623  PHE694  ASN695  SER759  ASP760  ASP761  ALA762  ILE779  LEU786  VAL792 
 PHE793  MET794  SER795  GLU796  ALA797  LYS798  CYS799  TRP800  GLU811  SER814 

> <Gold.Protein.RotatedAtoms>
  152.2644  133.5326  159.5400 H   0  0  0  0  0  0  0  0  0  0  0  0  # atno 6907 bound_to 6896
  150.7136  134.0785  159.3898 H   0  0  0  0  0  0  0  0  0  0  0  0  # atno 6908 bound_to 6896
  151.8702  135.0492  160.0529 H   0  0  0  0  0  0  0  0  0  0  0  0  # atno 6909 bound_to 6896
  145.0767  139.3688  143.4930 H   0  0  0  0  0  0  0  0  0  0  0  0  # atno 7974 bound_to 7965
  154.4269  140.1804  156.1329 H   0  0  0  0  0  0  0  0  0  0  0  0  # atno 8008 bound_to 7997
  156.0053  140.3356  155.6861 H   0  0  0  0  0  0  0  0  0  0  0  0  # atno 8009 bound_to 7997
  155.6186  140.0657  157.2675 H   0  0  0  0  0  0  0  0  0  0  0  0  # atno 8010 bound_to 7997
  140.4468  143.2496  151.8547 H   0  0  0  0  0  0  0  0  0  0  0  0  # atno 10167 bound_to 10162
  156.3780  130.7822  151.2011 H   0  0  0  0  0  0  0  0  0  0  0  0  # atno 10718 bound_to 10713
  154.1478  135.2817  155.3143 H   0  0  0  0  0  0  0  0  0  0  0  0  # atno 10763 bound_to 10752
  154.6240  135.5458  153.7609 H   0  0  0  0  0  0  0  0  0  0  0  0  # atno 10764 bound_to 10752
  153.0230  135.6446  154.1623 H   0  0  0  0  0  0  0  0  0  0  0  0  # atno 10765 bound_to 10752
  140.4320  134.1410  155.7681 H   0  0  0  0  0  0  0  0  0  0  0  0  # atno 11005 bound_to 11000
  146.3530  140.0537  142.8634 LP  0  0  0  0  0  0  0  0  0  0  0  0  # atno 17320 bound_to 7965
  145.1227  140.9472  143.4590 LP  0  0  0  0  0  0  0  0  0  0  0  0  # atno 17321 bound_to 7965
  139.4793  144.5166  151.8859 LP  0  0  0  0  0  0  0  0  0  0  0  0  # atno 17342 bound_to 10162
  140.4254  144.2187  150.5887 LP  0  0  0  0  0  0  0  0  0  0  0  0  # atno 17343 bound_to 10162
  157.7490  131.0352  150.4355 LP  0  0  0  0  0  0  0  0  0  0  0  0  # atno 17370 bound_to 10713
  156.4593  130.4028  149.6586 LP  0  0  0  0  0  0  0  0  0  0  0  0  # atno 17371 bound_to 10713
  141.1741  133.8549  157.1477 LP  0  0  0  0  0  0  0  0  0  0  0  0  # atno 17394 bound_to 11000
  140.0127  134.9981  157.0430 LP  0  0  0  0  0  0  0  0  0  0  0  0  # atno 17395 bound_to 11000

$$$$
