AV-unprocessed.smi:2478|AV-procd|sdf|9765|dock4
  -GOLD-   2272013403D 1   1.00000     0.00000
 Structure written by MMmdl.
 42 43  0  0  0  0  0  0  0  0  1 V2000
  151.3539  141.1372  157.0536 C   0  0  0  0  0  0  0  0  0  0  0  0
  150.7867  140.4955  155.7776 C   0  0  2  0  0  0  0  0  0  0  0  0
  149.3824  141.0371  155.4423 C   0  0  0  0  0  0  0  0  0  0  0  0
  148.8328  140.4171  154.1477 C   0  0  0  0  0  0  0  0  0  0  0  0
  148.8213  138.8831  154.2252 C   0  0  0  0  0  0  0  0  0  0  0  0
  150.2171  138.3304  154.5608 C   0  0  0  0  0  0  0  0  0  0  0  0
  150.7859  138.9513  155.8501 C   0  0  2  0  0  0  0  0  0  0  0  0
  149.9678  138.5340  156.9352 O   0  0  0  0  0  0  0  0  0  0  0  0
  149.9593  137.1317  157.1654 C   0  0  0  0  0  0  0  0  0  0  0  0
  149.6966  136.8649  158.6482 C   0  0  0  0  0  0  0  0  0  0  0  0
  150.6189  136.9816  159.4547 O   0  0  0  0  0  0  0  0  0  0  0  0
  148.4341  136.5260  158.9694 N   0  0  0  0  0  0  0  0  0  0  0  0
  147.8912  136.2070  160.2420 C   0  0  0  0  0  0  0  0  0  0  0  0
  147.8335  137.0922  161.2680 N   0  0  0  0  0  0  0  0  0  0  0  0
  147.2997  136.7046  162.4441 C   0  0  0  0  0  0  0  0  0  0  0  0
  146.7887  135.4144  162.6679 C   0  0  0  0  0  0  0  0  0  0  0  0
  146.8418  134.4878  161.6122 C   0  0  0  0  0  0  0  0  0  0  0  0
  147.4081  134.8814  160.3770 C   0  0  0  0  0  0  0  0  0  0  0  0
  147.4759  134.0254  159.2998 O   0  0  0  0  0  0  0  0  0  0  0  0
  148.1722  132.8656  159.4302 C   0  0  0  0  0  0  0  0  0  0  0  0
  147.4264  131.9357  160.0756 F   0  0  0  0  0  0  0  0  0  0  0  0
  148.4759  132.3726  158.2053 F   0  0  0  0  0  0  0  0  0  0  0  0
  150.7288  140.9220  157.9208 H   0  0  0  0  0  0  0  0  0  0  0  0
  151.4161  142.2210  156.9519 H   0  0  0  0  0  0  0  0  0  0  0  0
  152.3577  140.7684  157.2660 H   0  0  0  0  0  0  0  0  0  0  0  0
  151.4498  140.7805  154.9594 H   0  0  0  0  0  0  0  0  0  0  0  0
  148.6979  140.8280  156.2655 H   0  0  0  0  0  0  0  0  0  0  0  0
  149.4158  142.1221  155.3397 H   0  0  0  0  0  0  0  0  0  0  0  0
  147.8248  140.7869  153.9577 H   0  0  0  0  0  0  0  0  0  0  0  0
  149.4439  140.7350  153.3020 H   0  0  0  0  0  0  0  0  0  0  0  0
  148.1056  138.5617  154.9829 H   0  0  0  0  0  0  0  0  0  0  0  0
  148.4749  138.4661  153.2792 H   0  0  0  0  0  0  0  0  0  0  0  0
  150.1741  137.2450  154.6571 H   0  0  0  0  0  0  0  0  0  0  0  0
  150.8945  138.5382  153.7316 H   0  0  0  0  0  0  0  0  0  0  0  0
  151.8126  138.6015  155.9765 H   0  0  0  0  0  0  0  0  0  0  0  0
  149.1861  136.6560  156.5602 H   0  0  0  0  0  0  0  0  0  0  0  0
  150.9205  136.6927  156.8940 H   0  0  0  0  0  0  0  0  0  0  0  0
  147.7869  136.4626  158.1967 H   0  0  0  0  0  0  0  0  0  0  0  0
  147.2774  137.4460  163.2290 H   0  0  0  0  0  0  0  0  0  0  0  0
  146.3646  135.1437  163.6234 H   0  0  0  0  0  0  0  0  0  0  0  0
  146.4477  133.4925  161.7543 H   0  0  0  0  0  0  0  0  0  0  0  0
  149.1070  133.0156  159.9714 H   0  0  0  0  0  0  0  0  0  0  0  0
  1  2  1  0  0  0  0
  1 23  1  0  0  0  0
  1 24  1  0  0  0  0
  1 25  1  0  0  0  0
  2  7  1  0  0  0  0
  2  3  1  0  0  0  0
  2 26  1  0  0  0  0
  3  4  1  0  0  0  0
  3 27  1  0  0  0  0
  3 28  1  0  0  0  0
  4  5  1  0  0  0  0
  4 29  1  0  0  0  0
  4 30  1  0  0  0  0
  5  6  1  0  0  0  0
  5 31  1  0  0  0  0
  5 32  1  0  0  0  0
  6  7  1  0  0  0  0
  6 33  1  0  0  0  0
  6 34  1  0  0  0  0
  7  8  1  0  0  0  0
  7 35  1  0  0  0  0
  8  9  1  0  0  0  0
  9 10  1  0  0  0  0
  9 36  1  0  0  0  0
  9 37  1  0  0  0  0
 10 11  2  0  0  0  0
 10 12  1  0  0  0  0
 12 13  1  0  0  0  0
 12 38  1  0  0  0  0
 13 18  1  0  0  0  0
 13 14  2  0  0  0  0
 14 15  1  0  0  0  0
 15 16  2  0  0  0  0
 15 39  1  0  0  0  0
 16 17  1  0  0  0  0
 16 40  1  0  0  0  0
 17 18  2  0  0  0  0
 17 41  1  0  0  0  0
 18 19  1  0  0  0  0
 19 20  1  0  0  0  0
 20 21  1  0  0  0  0
 20 22  1  0  0  0  0
 20 42  1  0  0  0  0
M  END
> <s_m_source_file>
AV-unprocessed.smi

> <i_m_source_file_index>
2478

> <i_lp_mmshare_version>
43012

> <i_f3d_flags>
0

> <s_epik_input>
W0NIM11bQ0BASF0xW0NIMl1bQ0gyXVtDSDJdW0NIMl1bQ0BIXTFPW0NIMl1DKD1PKVtOSF1jMm5bY0hdW2NIXVtjSF1jMk9bQ0hdKEYpRg==

> <s_epik_cmdline>
J2VwaWtfcHl0aG9uJywgJy1waCcsICc3LjAnLCAnLXRuJywgJzgnLCAnLW1hJywgJzIwMCcsICctbWV0YWxfYmluZGluZycsICctaW1hZScsICc8aW5maWxlLm1hZT4nLCAnLW9tYWUnLCAnPG91dGZpbGUubWFlPic=

> <r_lp_tautomer_probability>
1

> <r_epik_Ionization_Penalty>
6.06012e-05

> <r_epik_Ionization_Penalty_Charging>
0

> <r_epik_Ionization_Penalty_Neutral>
6.06012e-05

> <r_epik_State_Penalty>
-0

> <r_epik_Charging_Adjusted_Penalty>
0

> <i_epik_Tot_Q>
0

> <i_epik_Tot_abs_Q>
0

> <r_epik_Metal_State_Penalty>
-0

> <b_epik_Metal_Only>
0

> <s_lp_Force_Field>
OPLS_2005

> <r_lp_Energy>
14.1885

> <b_lp_Chiralities_Consistent>
1

> <s_lp_Variant>
AV-unprocessed.smi:2478-3

> <Gold.Version>
5.8.1

> <Gold.Id.Protein>
6NUR|6NUR_protein|mol2

> <Gold.PLP.Fitness>
43.5127

> <Gold.PLP.PLP>
-37.6877

> <Gold.PLP.part.hbond>
-2.9506

> <Gold.PLP.part.metal>
0.0000

> <Gold.PLP.part.buried>
-4.9134

> <Gold.PLP.part.nonpolar>
-30.7298

> <Gold.PLP.part.repulsive>
0.1601

> <Gold.PLP.ligand.clash>
0.0000

> <Gold.PLP.ligand.torsion>
1.2374

> <Gold.PLP.Chemscore.Hbond>
2.7433

> <Gold.PLP.Chemscore.CHOScore>
0.0000

> <Gold.PLP.Chemscore.Metal>
0.0000

> <Gold.Chemscore.Hbonds>
donor molecule, donor type, donor heavy atom, donor atom, acceptor molecule, acceptor atom, score
      P1  H  6896  6909       L1    11  1.00
      P1  H  6931  6943       L1    14  0.90
      P1  H  6934  6947       L1    14  0.73

> <Gold.PLP.Chemscore.Internal.Correction>
0.0699

> <Gold.Rescore>
     Score         DG    S(hbond)    S(metal)    S(lipo)     H(rot)  DE(clash)    DE(int)     intcor
     16.25     -17.68       2.35        0.00      77.63       1.85       0.00       1.43       ----

> <Gold.Chemscore.Fitness>
16.2489

> <Gold.Chemscore.DG>
-17.6785

> <Gold.Chemscore.ZeroCoef>
-5.4800

> <Gold.Chemscore.Hbond>
2.3495

> <Gold.Chemscore.Metal>
0.0000

> <Gold.Chemscore.Lipo>
77.6254

> <Gold.Chemscore.Internal_Hbond>
0.0000

> <Gold.Chemscore.DEClash>
0.0000

> <Gold.Chemscore.DEInternal>
1.4295

> <Gold.Chemscore.Rot>
1.8481

> <Gold.Chemscore.Internal.Correction>
   9.000000E+99

> <Gold.Chemscore.Hbonds>
donor molecule, donor type, donor heavy atom, donor atom, acceptor molecule, acceptor atom, score
      P1  H  6896  6909       L1    11  0.58
      P1  H  6931  6943       L1    14  0.17
      P1  H  6934  6947       L1    14  0.41

> <Gold.Chemscore.Hbond.Weighted>
-7.8474

> <Gold.Chemscore.Metal.Weighted>
-0.0000

> <Gold.Chemscore.Lipo.Weighted>
-9.0822

> <Gold.Chemscore.Internal_Hbond.Weighted>
0.0000

> <Gold.Chemscore.DEClash.Weighted>
0.0000

> <Gold.Chemscore.DEInternal.Weighted>
1.4295

> <Gold.Chemscore.Rot.Weighted>
4.7311

> <Gold.Chemscore.Internal.Correction.Weighted>
   9.000000E+99

> <Gold.Protein.RotatedTorsions>
[ 6907 6896 6895 6894 ] final  100.67 input  -60.11 | X-H torsion
[ 7974 7965 7964 7962 ] final   51.52 input  175.53 | X-H torsion
[ 8008 7997 7996 7995 ] final   53.89 input   59.86 | X-H torsion
[ 10167 10162 10161 10158 ] final  108.19 input  -65.29 | X-H torsion
[ 10718 10713 10712 10709 ] final    5.37 input   66.30 | X-H torsion
[ 10763 10752 10751 10750 ] final   37.61 input  -60.55 | X-H torsion
[ 11005 11000 10999 10996 ] final  -38.97 input  -57.11 | X-H torsion

> <Gold.Protein.ActiveResidues>
 VAL166  LYS551  ARG553  GLY616  TRP617  ASP618  TYR619  PRO620  LYS621  CYS622 
 ASP623  PHE694  ASN695  SER759  ASP760  ASP761  ALA762  ILE779  LEU786  VAL792 
 PHE793  MET794  SER795  GLU796  ALA797  LYS798  CYS799  TRP800  GLU811  SER814 

> <Gold.Protein.RotatedAtoms>
  152.5367  134.0242  159.7995 H   0  0  0  0  0  0  0  0  0  0  0  0  # atno 6907 bound_to 6896
  151.0423  133.5687  159.2657 H   0  0  0  0  0  0  0  0  0  0  0  0  # atno 6908 bound_to 6896
  151.2652  135.0674  159.9167 H   0  0  0  0  0  0  0  0  0  0  0  0  # atno 6909 bound_to 6896
  145.9905  139.4334  143.0076 H   0  0  0  0  0  0  0  0  0  0  0  0  # atno 7974 bound_to 7965
  155.4757  140.3466  155.4332 H   0  0  0  0  0  0  0  0  0  0  0  0  # atno 8008 bound_to 7997
  156.1072  140.1451  156.9417 H   0  0  0  0  0  0  0  0  0  0  0  0  # atno 8009 bound_to 7997
  154.4732  140.0894  156.7175 H   0  0  0  0  0  0  0  0  0  0  0  0  # atno 8010 bound_to 7997
  139.6866  144.7113  151.1422 H   0  0  0  0  0  0  0  0  0  0  0  0  # atno 10167 bound_to 10162
  156.9064  130.5740  149.5647 H   0  0  0  0  0  0  0  0  0  0  0  0  # atno 10718 bound_to 10713
  153.0031  135.6273  154.2173 H   0  0  0  0  0  0  0  0  0  0  0  0  # atno 10763 bound_to 10752
  154.1916  135.2808  155.3022 H   0  0  0  0  0  0  0  0  0  0  0  0  # atno 10764 bound_to 10752
  154.5755  135.5663  153.7195 H   0  0  0  0  0  0  0  0  0  0  0  0  # atno 10765 bound_to 10752
  141.0067  133.6928  156.2124 H   0  0  0  0  0  0  0  0  0  0  0  0  # atno 11005 bound_to 11000
  145.7636  140.9925  143.1187 LP  0  0  0  0  0  0  0  0  0  0  0  0  # atno 17320 bound_to 7965
  144.6888  139.9361  143.7473 LP  0  0  0  0  0  0  0  0  0  0  0  0  # atno 17321 bound_to 7965
  140.7669  143.5621  150.9088 LP  0  0  0  0  0  0  0  0  0  0  0  0  # atno 17342 bound_to 10162
  139.9296  143.6509  152.3079 LP  0  0  0  0  0  0  0  0  0  0  0  0  # atno 17343 bound_to 10162
  156.0557  130.5619  150.9086 LP  0  0  0  0  0  0  0  0  0  0  0  0  # atno 17370 bound_to 10713
  157.5995  131.0942  150.8985 LP  0  0  0  0  0  0  0  0  0  0  0  0  # atno 17371 bound_to 10713
  140.6800  134.4777  157.5589 LP  0  0  0  0  0  0  0  0  0  0  0  0  # atno 17394 bound_to 11000
  139.9067  134.8433  156.1678 LP  0  0  0  0  0  0  0  0  0  0  0  0  # atno 17395 bound_to 11000

$$$$
