AV-unprocessed.smi:236|AV-procd|sdf|1815|dock5
  -GOLD-   2262020403D 1   1.00000     0.00000
 Structure written by MMmdl.
 58 62  0  0  0  0  0  0  0  0  1 V2000
  144.3373  135.1429  149.9156 C   0  0  0  0  0  0  0  0  0  0  0  0
  145.2567  135.1897  151.1468 C   0  0  2  0  0  0  0  0  0  0  0  0
  146.2617  134.1901  151.0611 O   0  0  0  0  0  0  0  0  0  0  0  0
  146.8110  134.0448  152.3582 C   0  0  0  0  0  0  0  0  0  0  0  0
  145.5754  134.0404  153.2500 C   0  0  0  0  0  0  0  0  0  0  0  0
  144.5953  134.9757  152.5339 C   0  0  2  0  0  0  0  0  0  0  0  0
  143.3494  134.3062  152.4236 O   0  0  0  0  0  0  0  0  0  0  0  0
  144.3730  136.2947  153.3146 C   0  0  0  0  0  0  0  0  0  0  0  0
  145.5934  137.0584  153.5287 N   0  0  0  0  0  0  0  0  0  0  0  0
  145.9362  138.2482  152.9259 C   0  0  0  0  0  0  0  0  0  0  0  0
  147.0885  138.7437  153.2850 N   0  0  0  0  0  0  0  0  0  0  0  0
  147.5773  137.8287  154.2093 C   0  0  0  0  0  0  0  0  0  0  0  0
  148.7631  137.7412  154.9922 C   0  0  0  0  0  0  0  0  0  0  0  0
  149.7612  138.6495  154.9857 N   0  0  0  0  0  0  0  0  0  0  0  0
  151.0751  138.0592  154.7691 C   0  0  0  0  0  0  0  0  0  0  0  0
  152.1294  139.1690  154.6305 C   0  0  0  0  0  0  0  0  0  0  0  0
  152.0814  140.0132  155.7769 O   0  0  0  0  0  0  0  0  0  0  0  0
  150.8189  140.6614  155.9237 C   0  0  2  0  0  0  0  0  0  0  0  0
  150.8982  141.5983  157.1358 C   0  0  0  0  0  0  0  0  0  0  0  0
  151.8282  141.0701  158.0661 O   0  0  0  0  0  0  0  0  0  0  0  0
  151.8269  141.7658  159.3031 C   0  0  0  0  0  0  0  0  0  0  0  0
  152.4332  143.1503  159.1601 C   0  0  0  0  0  0  0  0  0  0  0  0
  151.9089  144.3210  159.9661 C   0  0  0  0  0  0  0  0  0  0  0  0
  151.6683  144.2685  158.4816 C   0  0  0  0  0  0  0  0  0  0  0  0
  149.7358  139.5805  156.1073 C   0  0  0  0  0  0  0  0  0  0  0  0
  148.9024  136.6777  155.8205 N   0  0  0  0  0  0  0  0  0  0  0  0
  147.9430  135.7490  155.8811 C   0  0  0  0  0  0  0  0  0  0  0  0
  146.7876  135.6962  155.2141 N   0  0  0  0  0  0  0  0  0  0  0  0
  146.6456  136.7662  154.3798 C   0  0  0  0  0  0  0  0  0  0  0  0
  143.5506  135.8947  149.9827 H   0  0  0  0  0  0  0  0  0  0  0  0
  143.8649  134.1668  149.8036 H   0  0  0  0  0  0  0  0  0  0  0  0
  144.9041  135.3391  149.0054 H   0  0  0  0  0  0  0  0  0  0  0  0
  145.7859  136.1430  151.1447 H   0  0  0  0  0  0  0  0  0  0  0  0
  147.3999  133.1317  152.4482 H   0  0  0  0  0  0  0  0  0  0  0  0
  147.4550  134.8963  152.5841 H   0  0  0  0  0  0  0  0  0  0  0  0
  145.1831  133.0232  153.3004 H   0  0  0  0  0  0  0  0  0  0  0  0
  145.8051  134.3490  154.2703 H   0  0  0  0  0  0  0  0  0  0  0  0
  143.3442  133.5797  153.0277 H   0  0  0  0  0  0  0  0  0  0  0  0
  143.6622  136.9323  152.7871 H   0  0  0  0  0  0  0  0  0  0  0  0
  143.9262  136.0833  154.2869 H   0  0  0  0  0  0  0  0  0  0  0  0
  145.3016  138.7393  152.2027 H   0  0  0  0  0  0  0  0  0  0  0  0
  151.3311  137.4090  155.6065 H   0  0  0  0  0  0  0  0  0  0  0  0
  151.0624  137.4403  153.8707 H   0  0  0  0  0  0  0  0  0  0  0  0
  153.1256  138.7339  154.5498 H   0  0  0  0  0  0  0  0  0  0  0  0
  151.9620  139.7553  153.7256 H   0  0  0  0  0  0  0  0  0  0  0  0
  150.5983  141.2497  155.0310 H   0  0  0  0  0  0  0  0  0  0  0  0
  151.2344  142.5869  156.8189 H   0  0  0  0  0  0  0  0  0  0  0  0
  149.9142  141.7163  157.5924 H   0  0  0  0  0  0  0  0  0  0  0  0
  150.8069  141.8669  159.6763 H   0  0  0  0  0  0  0  0  0  0  0  0
  152.3993  141.2105  160.0475 H   0  0  0  0  0  0  0  0  0  0  0  0
  153.5076  143.1383  158.9863 H   0  0  0  0  0  0  0  0  0  0  0  0
  151.0551  144.1527  160.6194 H   0  0  0  0  0  0  0  0  0  0  0  0
  152.6364  145.0431  160.3311 H   0  0  0  0  0  0  0  0  0  0  0  0
  152.2345  144.9562  157.8570 H   0  0  0  0  0  0  0  0  0  0  0  0
  150.6538  144.0645  158.1447 H   0  0  0  0  0  0  0  0  0  0  0  0
  148.7506  140.0438  156.1768 H   0  0  0  0  0  0  0  0  0  0  0  0
  149.9077  139.0452  157.0415 H   0  0  0  0  0  0  0  0  0  0  0  0
  148.1267  134.9315  156.5626 H   0  0  0  0  0  0  0  0  0  0  0  0
  1  2  1  0  0  0  0
  1 30  1  0  0  0  0
  1 31  1  0  0  0  0
  1 32  1  0  0  0  0
  2  6  1  0  0  0  0
  2  3  1  0  0  0  0
  2 33  1  0  0  0  0
  3  4  1  0  0  0  0
  4  5  1  0  0  0  0
  4 34  1  0  0  0  0
  4 35  1  0  0  0  0
  5  6  1  0  0  0  0
  5 36  1  0  0  0  0
  5 37  1  0  0  0  0
  6  7  1  0  0  0  0
  6  8  1  0  0  0  0
  7 38  1  0  0  0  0
  8  9  1  0  0  0  0
  8 39  1  0  0  0  0
  8 40  1  0  0  0  0
  9 29  1  0  0  0  0
  9 10  1  0  0  0  0
 10 11  2  0  0  0  0
 10 41  1  0  0  0  0
 11 12  1  0  0  0  0
 12 29  2  0  0  0  0
 12 13  1  0  0  0  0
 13 14  1  0  0  0  0
 13 26  2  0  0  0  0
 14 25  1  0  0  0  0
 14 15  1  0  0  0  0
 15 16  1  0  0  0  0
 15 42  1  0  0  0  0
 15 43  1  0  0  0  0
 16 17  1  0  0  0  0
 16 44  1  0  0  0  0
 16 45  1  0  0  0  0
 17 18  1  0  0  0  0
 18 19  1  0  0  0  0
 18 25  1  0  0  0  0
 18 46  1  0  0  0  0
 19 20  1  0  0  0  0
 19 47  1  0  0  0  0
 19 48  1  0  0  0  0
 20 21  1  0  0  0  0
 21 22  1  0  0  0  0
 21 49  1  0  0  0  0
 21 50  1  0  0  0  0
 22 24  1  0  0  0  0
 22 23  1  0  0  0  0
 22 51  1  0  0  0  0
 23 24  1  0  0  0  0
 23 52  1  0  0  0  0
 23 53  1  0  0  0  0
 24 54  1  0  0  0  0
 24 55  1  0  0  0  0
 25 56  1  0  0  0  0
 25 57  1  0  0  0  0
 26 27  1  0  0  0  0
 27 28  2  0  0  0  0
 27 58  1  0  0  0  0
 28 29  1  0  0  0  0
M  END
> <s_m_source_file>
AV-unprocessed.smi

> <i_m_source_file_index>
236

> <i_lp_mmshare_version>
43012

> <i_f3d_flags>
0

> <s_epik_input>
W0NIMl0xW0NIMl1PW0NAQEhdKFtDSDNdKVtDQEBdMShbT0hdKVtDSDJdbihbY0hdbjIpYyhjMjMpbltjSF1uYzNONFtDSDJdW0NIMl1PW0NASF0oW0NIMl00KVtDSDJdT1tDSDJdW0NIXTVbQ0gyXVtDSDJdNQ==

> <s_epik_cmdline>
J2VwaWtfcHl0aG9uJywgJy1waCcsICc3LjAnLCAnLXRuJywgJzgnLCAnLW1hJywgJzIwMCcsICctbWV0YWxfYmluZGluZycsICctaW1hZScsICc8aW5maWxlLm1hZT4nLCAnLW9tYWUnLCAnPG91dGZpbGUubWFlPic=

> <r_lp_tautomer_probability>
1

> <r_epik_Ionization_Penalty>
7.21838e-05

> <r_epik_Ionization_Penalty_Charging>
0

> <r_epik_Ionization_Penalty_Neutral>
7.21838e-05

> <r_epik_State_Penalty>
-0

> <r_epik_Charging_Adjusted_Penalty>
0

> <i_epik_Tot_Q>
0

> <i_epik_Tot_abs_Q>
0

> <r_epik_Metal_State_Penalty>
-0

> <b_epik_Metal_Only>
0

> <s_lp_Force_Field>
OPLS_2005

> <r_lp_Energy>
47.5689

> <b_lp_Chiralities_Consistent>
1

> <s_lp_Variant>
AV-unprocessed.smi:236-7

> <Gold.Version>
5.8.1

> <Gold.Id.Protein>
6NUR|6NUR_protein|mol2

> <Gold.PLP.Fitness>
45.3099

> <Gold.PLP.PLP>
-40.6753

> <Gold.PLP.part.hbond>
-0.5794

> <Gold.PLP.part.metal>
0.0000

> <Gold.PLP.part.buried>
-2.3613

> <Gold.PLP.part.nonpolar>
-38.2790

> <Gold.PLP.part.repulsive>
0.6399

> <Gold.PLP.ligand.clash>
0.0000

> <Gold.PLP.ligand.torsion>
1.1684

> <Gold.PLP.Chemscore.Hbond>
0.6012

> <Gold.PLP.Chemscore.CHOScore>
1.4293

> <Gold.PLP.Chemscore.Metal>
0.0000

> <Gold.Chemscore.Hbonds>
donor molecule, donor type, donor heavy atom, donor atom, acceptor molecule, acceptor atom, score
      P1  H  7997  8010       L1    17  0.29
      L1  C    10    41       P1 10171  0.38
      L1  C    10    41       P1 10175  1.00

> <Gold.PLP.Chemscore.Internal.Correction>
0.8799

> <Gold.Rescore>
     Score         DG    S(hbond)    S(metal)    S(lipo)     H(rot)  DE(clash)    DE(int)     intcor
     14.63     -16.13       1.72        0.00     104.55       2.87       0.21       1.29       ----

> <Gold.Chemscore.Fitness>
14.6326

> <Gold.Chemscore.DG>
-16.1301

> <Gold.Chemscore.ZeroCoef>
-5.4800

> <Gold.Chemscore.Hbond>
1.7225

> <Gold.Chemscore.Metal>
0.0000

> <Gold.Chemscore.Lipo>
104.5534

> <Gold.Chemscore.Internal_Hbond>
0.0000

> <Gold.Chemscore.DEClash>
0.2055

> <Gold.Chemscore.DEInternal>
1.2921

> <Gold.Chemscore.Rot>
2.8655

> <Gold.Chemscore.Internal.Correction>
   9.000000E+99

> <Gold.Chemscore.Hbonds>
donor molecule, donor type, donor heavy atom, donor atom, acceptor molecule, acceptor atom, score
      P1  H  7997  8010       L1    17  0.07

> <Gold.Chemscore.Hbond.Weighted>
-5.7532

> <Gold.Chemscore.Metal.Weighted>
-0.0000

> <Gold.Chemscore.Lipo.Weighted>
-12.2327

> <Gold.Chemscore.Internal_Hbond.Weighted>
0.0000

> <Gold.Chemscore.DEClash.Weighted>
0.2055

> <Gold.Chemscore.DEInternal.Weighted>
1.2921

> <Gold.Chemscore.Rot.Weighted>
7.3358

> <Gold.Chemscore.Internal.Correction.Weighted>
   9.000000E+99

> <Gold.Protein.RotatedTorsions>
[ 6907 6896 6895 6894 ] final  -12.46 input  -60.11 | X-H torsion
[ 7974 7965 7964 7962 ] final   53.80 input  175.53 | X-H torsion
[ 8008 7997 7996 7995 ] final   82.85 input   59.86 | X-H torsion
[ 10167 10162 10161 10158 ] final -112.82 input  -65.29 | X-H torsion
[ 10718 10713 10712 10709 ] final -130.62 input   66.30 | X-H torsion
[ 10763 10752 10751 10750 ] final   78.63 input  -60.55 | X-H torsion
[ 11005 11000 10999 10996 ] final   28.54 input  -57.11 | X-H torsion

> <Gold.Protein.ActiveResidues>
 VAL166  LYS551  ARG553  GLY616  TRP617  ASP618  TYR619  PRO620  LYS621  CYS622 
 ASP623  PHE694  ASN695  SER759  ASP760  ASP761  ALA762  ILE779  LEU786  VAL792 
 PHE793  MET794  SER795  GLU796  ALA797  LYS798  CYS799  TRP800  GLU811  SER814 

> <Gold.Protein.RotatedAtoms>
  151.3701  135.0921  159.9462 H   0  0  0  0  0  0  0  0  0  0  0  0  # atno 6907 bound_to 6896
  152.5138  133.9173  159.7527 H   0  0  0  0  0  0  0  0  0  0  0  0  # atno 6908 bound_to 6896
  150.9585  133.6416  159.2788 H   0  0  0  0  0  0  0  0  0  0  0  0  # atno 6909 bound_to 6896
  145.9674  139.4116  143.0211 H   0  0  0  0  0  0  0  0  0  0  0  0  # atno 7974 bound_to 7965
  155.9161  140.3424  155.6136 H   0  0  0  0  0  0  0  0  0  0  0  0  # atno 8008 bound_to 7997
  155.7329  140.0798  157.2299 H   0  0  0  0  0  0  0  0  0  0  0  0  # atno 8009 bound_to 7997
  154.4062  140.1585  156.2517 H   0  0  0  0  0  0  0  0  0  0  0  0  # atno 8010 bound_to 7997
  140.1186  143.4464  152.1706 H   0  0  0  0  0  0  0  0  0  0  0  0  # atno 10167 bound_to 10162
  156.2163  130.6950  151.0706 H   0  0  0  0  0  0  0  0  0  0  0  0  # atno 10718 bound_to 10713
  153.0889  135.4870  154.8652 H   0  0  0  0  0  0  0  0  0  0  0  0  # atno 10763 bound_to 10752
  154.7245  135.3046  154.8995 H   0  0  0  0  0  0  0  0  0  0  0  0  # atno 10764 bound_to 10752
  153.9649  135.6808  153.4799 H   0  0  0  0  0  0  0  0  0  0  0  0  # atno 10765 bound_to 10752
  140.3145  134.2613  155.7728 H   0  0  0  0  0  0  0  0  0  0  0  0  # atno 11005 bound_to 11000
  145.7954  140.9795  143.1027 LP  0  0  0  0  0  0  0  0  0  0  0  0  # atno 17320 bound_to 7965
  144.6829  139.9735  143.7482 LP  0  0  0  0  0  0  0  0  0  0  0  0  # atno 17321 bound_to 7965
  139.5581  144.7387  151.4235 LP  0  0  0  0  0  0  0  0  0  0  0  0  # atno 17342 bound_to 10162
  140.6885  143.7917  150.7221 LP  0  0  0  0  0  0  0  0  0  0  0  0  # atno 17343 bound_to 10162
  157.7065  131.0754  150.6650 LP  0  0  0  0  0  0  0  0  0  0  0  0  # atno 17370 bound_to 10713
  156.6711  130.4540  149.5657 LP  0  0  0  0  0  0  0  0  0  0  0  0  # atno 17371 bound_to 10713
  141.2101  133.7730  156.9956 LP  0  0  0  0  0  0  0  0  0  0  0  0  # atno 17394 bound_to 11000
  140.0996  134.9543  157.1902 LP  0  0  0  0  0  0  0  0  0  0  0  0  # atno 17395 bound_to 11000

$$$$
