AV-unprocessed.smi:2105|AV-procd|sdf|8591|dock10
  -GOLD-   2272011323D 1   1.00000     0.00000
 Structure written by MMmdl.
 42 43  0  0  0  0  0  0  0  0  1 V2000
  150.6993  141.1221  156.0083 C   0  0  0  0  0  0  0  0  0  0  0  0
  151.5350  139.8632  155.8066 C   0  0  0  0  0  0  0  0  0  0  0  0
  152.6063  139.7331  156.3984 O   0  0  0  0  0  0  0  0  0  0  0  0
  151.0320  138.9442  154.9682 N   0  0  0  0  0  0  0  0  0  0  0  0
  151.6657  137.6697  154.6491 C   0  0  0  0  0  0  0  0  0  0  0  0
  150.9997  136.4918  155.3892 C   0  0  0  0  0  0  0  0  0  0  0  0
  150.0424  135.7892  154.5419 N   0  0  0  0  0  0  0  0  0  0  0  0
  149.5890  134.5453  154.7476 C   0  0  0  0  0  0  0  0  0  0  0  0
  149.8878  133.8647  155.7290 O   0  0  0  0  0  0  0  0  0  0  0  0
  148.8033  134.1473  153.7340 N   0  0  0  0  0  0  0  0  0  0  0  0
  148.2060  132.8719  153.5286 C   0  0  0  0  0  0  0  0  0  0  0  0
  148.7976  131.6663  153.9767 C   0  0  0  0  0  0  0  0  0  0  0  0
  148.1267  130.4501  153.7527 C   0  0  0  0  0  0  0  0  0  0  0  0
  146.8827  130.4831  153.0972 C   0  0  0  0  0  0  0  0  0  0  0  0
  146.2987  131.6243  152.6780 N   0  0  0  0  0  0  0  0  0  0  0  0
  146.9439  132.7979  152.8855 C   0  0  0  0  0  0  0  0  0  0  0  0
  146.3058  133.9755  152.4567 N   0  0  0  0  0  0  0  0  0  0  0  0
  146.2060  134.1883  151.0173 C   0  0  0  0  0  0  0  0  0  0  0  0
  144.9709  135.0636  150.8224 C   0  0  0  0  0  0  0  0  0  0  0  0
  144.0439  134.5739  151.9293 C   0  0  0  0  0  0  0  0  0  0  0  0
  145.0038  134.2181  153.0686 C   0  0  0  0  0  0  0  0  0  0  0  0
  150.4759  141.5916  155.0502 H   0  0  0  0  0  0  0  0  0  0  0  0
  151.2321  141.8456  156.6262 H   0  0  0  0  0  0  0  0  0  0  0  0
  149.7589  140.8777  156.5028 H   0  0  0  0  0  0  0  0  0  0  0  0
  150.1437  139.1362  154.5282 H   0  0  0  0  0  0  0  0  0  0  0  0
  151.7122  137.5088  153.5706 H   0  0  0  0  0  0  0  0  0  0  0  0
  152.7005  137.7500  154.9828 H   0  0  0  0  0  0  0  0  0  0  0  0
  151.7655  135.7834  155.7093 H   0  0  0  0  0  0  0  0  0  0  0  0
  150.5027  136.8292  156.2995 H   0  0  0  0  0  0  0  0  0  0  0  0
  149.7451  136.2673  153.7040 H   0  0  0  0  0  0  0  0  0  0  0  0
  148.7247  134.7881  152.9578 H   0  0  0  0  0  0  0  0  0  0  0  0
  149.7415  131.6546  154.4993 H   0  0  0  0  0  0  0  0  0  0  0  0
  148.5537  129.5144  154.0817 H   0  0  0  0  0  0  0  0  0  0  0  0
  146.3374  129.5695  152.9118 H   0  0  0  0  0  0  0  0  0  0  0  0
  147.1033  134.6748  150.6344 H   0  0  0  0  0  0  0  0  0  0  0  0
  146.0825  133.2465  150.4817 H   0  0  0  0  0  0  0  0  0  0  0  0
  145.2262  136.1116  150.9875 H   0  0  0  0  0  0  0  0  0  0  0  0
  144.5373  134.9709  149.8267 H   0  0  0  0  0  0  0  0  0  0  0  0
  143.2967  135.3132  152.2195 H   0  0  0  0  0  0  0  0  0  0  0  0
  143.5199  133.6766  151.5968 H   0  0  0  0  0  0  0  0  0  0  0  0
  144.6401  133.3645  153.6427 H   0  0  0  0  0  0  0  0  0  0  0  0
  145.1047  135.0588  153.7557 H   0  0  0  0  0  0  0  0  0  0  0  0
  1  2  1  0  0  0  0
  1 22  1  0  0  0  0
  1 23  1  0  0  0  0
  1 24  1  0  0  0  0
  2  3  2  0  0  0  0
  2  4  1  0  0  0  0
  4  5  1  0  0  0  0
  4 25  1  0  0  0  0
  5  6  1  0  0  0  0
  5 26  1  0  0  0  0
  5 27  1  0  0  0  0
  6  7  1  0  0  0  0
  6 28  1  0  0  0  0
  6 29  1  0  0  0  0
  7  8  1  0  0  0  0
  7 30  1  0  0  0  0
  8  9  2  0  0  0  0
  8 10  1  0  0  0  0
 10 11  1  0  0  0  0
 10 31  1  0  0  0  0
 11 16  1  0  0  0  0
 11 12  2  0  0  0  0
 12 13  1  0  0  0  0
 12 32  1  0  0  0  0
 13 14  2  0  0  0  0
 13 33  1  0  0  0  0
 14 15  1  0  0  0  0
 14 34  1  0  0  0  0
 15 16  2  0  0  0  0
 16 17  1  0  0  0  0
 17 21  1  0  0  0  0
 17 18  1  0  0  0  0
 18 19  1  0  0  0  0
 18 35  1  0  0  0  0
 18 36  1  0  0  0  0
 19 20  1  0  0  0  0
 19 37  1  0  0  0  0
 19 38  1  0  0  0  0
 20 21  1  0  0  0  0
 20 39  1  0  0  0  0
 20 40  1  0  0  0  0
 21 41  1  0  0  0  0
 21 42  1  0  0  0  0
M  END
> <s_m_source_file>
AV-unprocessed.smi

> <i_m_source_file_index>
2105

> <i_lp_mmshare_version>
43012

> <i_f3d_flags>
0

> <s_epik_input>
W0NIM11DKD1PKVtOSF1bQ0gyXVtDSDJdW05IXUMoPU8pW05IXWMxW2NIXVtjSF1bY0hdbmMxTjJbQ0gyXVtDSDJdW0NIMl1bQ0gyXTI=

> <s_epik_cmdline>
J2VwaWtfcHl0aG9uJywgJy1waCcsICc3LjAnLCAnLXRuJywgJzgnLCAnLW1hJywgJzIwMCcsICctbWV0YWxfYmluZGluZycsICctaW1hZScsICc8aW5maWxlLm1hZT4nLCAnLW9tYWUnLCAnPG91dGZpbGUubWFlPic=

> <r_lp_tautomer_probability>
1

> <r_epik_Ionization_Penalty>
0.0963551

> <r_epik_Ionization_Penalty_Charging>
0

> <r_epik_Ionization_Penalty_Neutral>
0.0963551

> <r_epik_State_Penalty>
0.0859578

> <r_epik_Charging_Adjusted_Penalty>
0.0859578

> <i_epik_Tot_Q>
0

> <i_epik_Tot_abs_Q>
0

> <r_epik_Metal_State_Penalty>
0.0739032

> <b_epik_Metal_Only>
0

> <s_lp_Force_Field>
OPLS_2005

> <r_lp_Energy>
32.5144

> <b_lp_Chiralities_Consistent>
1

> <s_lp_Variant>
AV-unprocessed.smi:2105-1

> <Gold.Version>
5.8.1

> <Gold.Id.Protein>
6NUR|6NUR_protein|mol2

> <Gold.PLP.Fitness>
43.1848

> <Gold.PLP.PLP>
-35.8674

> <Gold.PLP.part.hbond>
-3.5560

> <Gold.PLP.part.metal>
0.0000

> <Gold.PLP.part.buried>
-3.7942

> <Gold.PLP.part.nonpolar>
-28.4414

> <Gold.PLP.part.repulsive>
0.4459

> <Gold.PLP.ligand.clash>
0.0000

> <Gold.PLP.ligand.torsion>
0.8127

> <Gold.PLP.Chemscore.Hbond>
2.9420

> <Gold.PLP.Chemscore.CHOScore>
0.0000

> <Gold.PLP.Chemscore.Metal>
0.0000

> <Gold.Chemscore.Hbonds>
donor molecule, donor type, donor heavy atom, donor atom, acceptor molecule, acceptor atom, score
      L1  H     7    30       P1  7948  1.00
      L1  H    10    31       P1  7948  0.95
      P1  H  7997  8010       L1     3  1.00

> <Gold.PLP.Chemscore.Internal.Correction>
0.1168

> <Gold.Rescore>
     Score         DG    S(hbond)    S(metal)    S(lipo)     H(rot)  DE(clash)    DE(int)     intcor
     13.68     -15.53       2.41        0.00      59.69       1.94       0.03       1.81       ----

> <Gold.Chemscore.Fitness>
13.6818

> <Gold.Chemscore.DG>
-15.5300

> <Gold.Chemscore.ZeroCoef>
-5.4800

> <Gold.Chemscore.Hbond>
2.4078

> <Gold.Chemscore.Metal>
0.0000

> <Gold.Chemscore.Lipo>
59.6904

> <Gold.Chemscore.Internal_Hbond>
0.0000

> <Gold.Chemscore.DEClash>
0.0339

> <Gold.Chemscore.DEInternal>
1.8144

> <Gold.Chemscore.Rot>
1.9437

> <Gold.Chemscore.Internal.Correction>
   9.000000E+99

> <Gold.Chemscore.Hbonds>
donor molecule, donor type, donor heavy atom, donor atom, acceptor molecule, acceptor atom, score
      L1  H     7    30       P1  7948  0.32
      L1  H    10    31       P1  7948  0.22
      P1  H  7997  8010       L1     3  0.95

> <Gold.Chemscore.Hbond.Weighted>
-8.0421

> <Gold.Chemscore.Metal.Weighted>
-0.0000

> <Gold.Chemscore.Lipo.Weighted>
-6.9838

> <Gold.Chemscore.Internal_Hbond.Weighted>
0.0000

> <Gold.Chemscore.DEClash.Weighted>
0.0339

> <Gold.Chemscore.DEInternal.Weighted>
1.8144

> <Gold.Chemscore.Rot.Weighted>
4.9759

> <Gold.Chemscore.Internal.Correction.Weighted>
   9.000000E+99

> <Gold.Protein.RotatedTorsions>
[ 6907 6896 6895 6894 ] final   23.42 input  -60.11 | X-H torsion
[ 7974 7965 7964 7962 ] final -169.89 input  175.53 | X-H torsion
[ 8008 7997 7996 7995 ] final   93.16 input   59.86 | X-H torsion
[ 10167 10162 10161 10158 ] final   84.97 input  -65.29 | X-H torsion
[ 10718 10713 10712 10709 ] final   63.95 input   66.30 | X-H torsion
[ 10763 10752 10751 10750 ] final -131.36 input  -60.55 | X-H torsion
[ 11005 11000 10999 10996 ] final -141.26 input  -57.11 | X-H torsion

> <Gold.Protein.ActiveResidues>
 VAL166  LYS551  ARG553  GLY616  TRP617  ASP618  TYR619  PRO620  LYS621  CYS622 
 ASP623  PHE694  ASN695  SER759  ASP760  ASP761  ALA762  ILE779  LEU786  VAL792 
 PHE793  MET794  SER795  GLU796  ALA797  LYS798  CYS799  TRP800  GLU811  SER814 

> <Gold.Protein.RotatedAtoms>
  151.9420  135.0209  160.0536 H   0  0  0  0  0  0  0  0  0  0  0  0  # atno 6907 bound_to 6896
  152.2028  133.4848  159.5076 H   0  0  0  0  0  0  0  0  0  0  0  0  # atno 6908 bound_to 6896
  150.6958  134.1486  159.4174 H   0  0  0  0  0  0  0  0  0  0  0  0  # atno 6909 bound_to 6896
  144.7178  140.2154  143.6322 H   0  0  0  0  0  0  0  0  0  0  0  0  # atno 7974 bound_to 7965
  156.0436  140.3316  155.7271 H   0  0  0  0  0  0  0  0  0  0  0  0  # atno 8008 bound_to 7997
  155.5707  140.0627  157.2825 H   0  0  0  0  0  0  0  0  0  0  0  0  # atno 8009 bound_to 7997
  154.4404  140.1861  156.0864 H   0  0  0  0  0  0  0  0  0  0  0  0  # atno 8010 bound_to 7997
  139.9025  144.6321  150.8622 H   0  0  0  0  0  0  0  0  0  0  0  0  # atno 10167 bound_to 10162
  157.6006  130.9133  149.9782 H   0  0  0  0  0  0  0  0  0  0  0  0  # atno 10718 bound_to 10713
  154.8751  135.3833  154.4233 H   0  0  0  0  0  0  0  0  0  0  0  0  # atno 10763 bound_to 10752
  153.4934  135.7030  153.5876 H   0  0  0  0  0  0  0  0  0  0  0  0  # atno 10764 bound_to 10752
  153.4240  135.3894  155.2096 H   0  0  0  0  0  0  0  0  0  0  0  0  # atno 10765 bound_to 10752
  140.8342  134.2480  157.4842 H   0  0  0  0  0  0  0  0  0  0  0  0  # atno 11005 bound_to 11000
  145.8552  139.2195  143.1749 LP  0  0  0  0  0  0  0  0  0  0  0  0  # atno 17320 bound_to 7965
  146.0224  140.8335  142.9916 LP  0  0  0  0  0  0  0  0  0  0  0  0  # atno 17321 bound_to 7965
  140.7703  143.3426  151.2177 LP  0  0  0  0  0  0  0  0  0  0  0  0  # atno 17342 bound_to 10162
  139.7013  143.9529  152.2906 LP  0  0  0  0  0  0  0  0  0  0  0  0  # atno 17343 bound_to 10162
  156.1078  130.3651  150.0102 LP  0  0  0  0  0  0  0  0  0  0  0  0  # atno 17370 bound_to 10713
  156.8206  130.9357  151.3641 LP  0  0  0  0  0  0  0  0  0  0  0  0  # atno 17371 bound_to 10713
  139.8704  134.9602  156.4356 LP  0  0  0  0  0  0  0  0  0  0  0  0  # atno 17394 bound_to 11000
  140.8965  133.7810  155.9631 LP  0  0  0  0  0  0  0  0  0  0  0  0  # atno 17395 bound_to 11000

$$$$
