AV-unprocessed.smi:144|AV-procd|sdf|1196|dock7
  -GOLD-   2262018353D 1   1.00000     0.00000
 Structure written by MMmdl.
 46 48  0  0  0  0  0  0  0  0  1 V2000
  149.9696  131.9271  156.2677 O   0  0  0  0  0  0  0  0  0  0  0  0
  150.0277  132.9904  155.6520 C   0  0  0  0  0  0  0  0  0  0  0  0
  150.9437  134.1018  156.1976 C   0  0  0  0  0  0  0  0  0  0  0  0
  150.2938  135.4205  156.3818 N   0  0  0  0  0  0  0  0  0  0  0  0
  149.5340  135.6476  157.5566 C   0  0  0  0  0  0  0  0  0  0  0  0
  149.4092  134.7724  158.4142 O   0  0  0  0  0  0  0  0  0  0  0  0
  148.9105  136.9621  157.6602 C   0  0  0  0  0  0  0  0  0  0  0  0
  148.1665  137.2627  158.7380 F   0  0  0  0  0  0  0  0  0  0  0  0
  149.0604  137.8805  156.6838 C   0  0  0  0  0  0  0  0  0  0  0  0
  149.8040  137.6447  155.5417 N   0  0  0  0  0  0  0  0  0  0  0  0
  149.9383  138.6909  154.4566 C   0  0  1  0  0  0  0  0  0  0  0  0
  148.5529  139.1090  153.9510 C   0  0  0  0  0  0  0  0  0  0  0  0
  148.2569  140.3128  154.8185 C   0  0  0  0  0  0  0  0  0  0  0  0
  149.6430  140.9297  154.9703 C   0  0  0  0  0  0  0  0  0  0  0  0
  150.5505  139.8299  154.9903 O   0  0  0  0  0  0  0  0  0  0  0  0
  150.4325  136.3936  155.3634 C   0  0  0  0  0  0  0  0  0  0  0  0
  151.0717  136.1507  154.3374 O   0  0  0  0  0  0  0  0  0  0  0  0
  149.3208  133.2546  154.5348 N   0  0  0  0  0  0  0  0  0  0  0  0
  148.4204  132.4124  153.8296 C   0  0  0  0  0  0  0  0  0  0  0  0
  147.5984  133.0194  152.8589 C   0  0  0  0  0  0  0  0  0  0  0  0
  146.6901  132.2501  152.1008 C   0  0  0  0  0  0  0  0  0  0  0  0
  145.7878  132.9063  151.0665 C   0  0  0  0  0  0  0  0  0  0  0  0
  145.9673  132.3423  149.8717 F   0  0  0  0  0  0  0  0  0  0  0  0
  144.5162  132.7465  151.4303 F   0  0  0  0  0  0  0  0  0  0  0  0
  146.0404  134.2110  150.9542 F   0  0  0  0  0  0  0  0  0  0  0  0
  146.6101  130.8590  152.3194 C   0  0  0  0  0  0  0  0  0  0  0  0
  147.4421  130.2331  153.2724 C   0  0  0  0  0  0  0  0  0  0  0  0
  147.3794  128.7310  153.5072 C   0  0  0  0  0  0  0  0  0  0  0  0
  148.5694  128.1871  153.2514 F   0  0  0  0  0  0  0  0  0  0  0  0
  147.0643  128.4955  154.7805 F   0  0  0  0  0  0  0  0  0  0  0  0
  146.4715  128.1406  152.7291 F   0  0  0  0  0  0  0  0  0  0  0  0
  148.3480  131.0127  154.0212 C   0  0  0  0  0  0  0  0  0  0  0  0
  151.3785  133.7498  157.1344 H   0  0  0  0  0  0  0  0  0  0  0  0
  151.8039  134.1869  155.5317 H   0  0  0  0  0  0  0  0  0  0  0  0
  148.5675  138.8328  156.8112 H   0  0  0  0  0  0  0  0  0  0  0  0
  150.5792  138.2529  153.6897 H   0  0  0  0  0  0  0  0  0  0  0  0
  148.6393  139.4040  152.9044 H   0  0  0  0  0  0  0  0  0  0  0  0
  147.8172  138.3078  154.0334 H   0  0  0  0  0  0  0  0  0  0  0  0
  147.5326  140.9951  154.3729 H   0  0  0  0  0  0  0  0  0  0  0  0
  147.8748  139.9949  155.7893 H   0  0  0  0  0  0  0  0  0  0  0  0
  149.8746  141.5564  154.1081 H   0  0  0  0  0  0  0  0  0  0  0  0
  149.7347  141.5406  155.8685 H   0  0  0  0  0  0  0  0  0  0  0  0
  149.3908  134.1999  154.1873 H   0  0  0  0  0  0  0  0  0  0  0  0
  147.6617  134.0868  152.7043 H   0  0  0  0  0  0  0  0  0  0  0  0
  145.9070  130.2750  151.7445 H   0  0  0  0  0  0  0  0  0  0  0  0
  148.9888  130.5125  154.7309 H   0  0  0  0  0  0  0  0  0  0  0  0
  1  2  2  0  0  0  0
  2  3  1  0  0  0  0
  2 18  1  0  0  0  0
  3  4  1  0  0  0  0
  3 33  1  0  0  0  0
  3 34  1  0  0  0  0
  4 16  1  0  0  0  0
  4  5  1  0  0  0  0
  5  6  2  0  0  0  0
  5  7  1  0  0  0  0
  7  8  1  0  0  0  0
  7  9  2  0  0  0  0
  9 10  1  0  0  0  0
  9 35  1  0  0  0  0
 10 11  1  0  0  0  0
 10 16  1  0  0  0  0
 11 15  1  0  0  0  0
 11 12  1  0  0  0  0
 11 36  1  0  0  0  0
 12 13  1  0  0  0  0
 12 37  1  0  0  0  0
 12 38  1  0  0  0  0
 13 14  1  0  0  0  0
 13 39  1  0  0  0  0
 13 40  1  0  0  0  0
 14 15  1  0  0  0  0
 14 41  1  0  0  0  0
 14 42  1  0  0  0  0
 16 17  2  0  0  0  0
 18 19  1  0  0  0  0
 18 43  1  0  0  0  0
 19 32  1  0  0  0  0
 19 20  2  0  0  0  0
 20 21  1  0  0  0  0
 20 44  1  0  0  0  0
 21 22  1  0  0  0  0
 21 26  2  0  0  0  0
 22 23  1  0  0  0  0
 22 24  1  0  0  0  0
 22 25  1  0  0  0  0
 26 27  1  0  0  0  0
 26 45  1  0  0  0  0
 27 28  1  0  0  0  0
 27 32  2  0  0  0  0
 28 29  1  0  0  0  0
 28 30  1  0  0  0  0
 28 31  1  0  0  0  0
 32 46  1  0  0  0  0
M  END
> <s_m_source_file>
AV-unprocessed.smi

> <i_m_source_file_index>
144

> <i_lp_mmshare_version>
43012

> <i_f3d_flags>
0

> <s_epik_input>
RkMoRikoRiljKFtjSF0xKVtjSF1jKEMoRikoRilGKVtjSF1jMVtOSF1DKD1PKVtDSDJdbjJjKD1PKWMoRilbY0hdbihjMj1PKVtDQEBIXTNbQ0gyXVtDSDJdW0NIMl1PMw==

> <s_epik_cmdline>
J2VwaWtfcHl0aG9uJywgJy1waCcsICc3LjAnLCAnLXRuJywgJzgnLCAnLW1hJywgJzIwMCcsICctbWV0YWxfYmluZGluZycsICctaW1hZScsICc8aW5maWxlLm1hZT4nLCAnLW9tYWUnLCAnPG91dGZpbGUubWFlPic=

> <r_lp_tautomer_probability>
1

> <r_epik_Ionization_Penalty>
3.68082e-06

> <r_epik_Ionization_Penalty_Charging>
3.88729e-08

> <r_epik_Ionization_Penalty_Neutral>
3.64194e-06

> <r_epik_State_Penalty>
-0

> <r_epik_Charging_Adjusted_Penalty>
3.88729e-08

> <i_epik_Tot_Q>
0

> <i_epik_Tot_abs_Q>
0

> <r_epik_Metal_State_Penalty>
-0

> <b_epik_Metal_Only>
0

> <s_epik_Chemistry_Notes>
This compound contains an acetal/aminal-like group ( X-CH(R)-Y where X, Y are N, S, or O) that may be acid/base labile, releasing an aldehyde.

> <s_lp_Force_Field>
OPLS_2005

> <r_lp_Energy>
36.4766

> <b_lp_Chiralities_Consistent>
1

> <s_lp_Variant>
AV-unprocessed.smi:144-2

> <Gold.Version>
5.8.1

> <Gold.Id.Protein>
6NUR|6NUR_protein|mol2

> <Gold.PLP.Fitness>
52.1003

> <Gold.PLP.PLP>
-46.1747

> <Gold.PLP.part.hbond>
-2.7710

> <Gold.PLP.part.metal>
0.0000

> <Gold.PLP.part.buried>
-6.8563

> <Gold.PLP.part.nonpolar>
-39.6749

> <Gold.PLP.part.repulsive>
1.6676

> <Gold.PLP.ligand.clash>
0.5777

> <Gold.PLP.ligand.torsion>
0.4645

> <Gold.PLP.Chemscore.Hbond>
2.2437

> <Gold.PLP.Chemscore.CHOScore>
0.0000

> <Gold.PLP.Chemscore.Metal>
0.0000

> <Gold.Chemscore.Hbonds>
donor molecule, donor type, donor heavy atom, donor atom, acceptor molecule, acceptor atom, score
      P1  H  6896  6909       L1     6  1.00
      P1  H  7989  7998       L1    15  0.23
      P1  H 10752 10765       L1    17  1.00

> <Gold.PLP.Chemscore.Internal.Correction>
0.7011

> <Gold.Rescore>
     Score         DG    S(hbond)    S(metal)    S(lipo)     H(rot)  DE(clash)    DE(int)     intcor
     13.86     -15.68       1.98        0.00      70.84       1.83       0.13       1.69       ----

> <Gold.Chemscore.Fitness>
13.8635

> <Gold.Chemscore.DG>
-15.6817

> <Gold.Chemscore.ZeroCoef>
-5.4800

> <Gold.Chemscore.Hbond>
1.9773

> <Gold.Chemscore.Metal>
0.0000

> <Gold.Chemscore.Lipo>
70.8436

> <Gold.Chemscore.Internal_Hbond>
0.0000

> <Gold.Chemscore.DEClash>
0.1323

> <Gold.Chemscore.DEInternal>
1.6859

> <Gold.Chemscore.Rot>
1.8325

> <Gold.Chemscore.Internal.Correction>
   9.000000E+99

> <Gold.Chemscore.Hbonds>
donor molecule, donor type, donor heavy atom, donor atom, acceptor molecule, acceptor atom, score
      P1  H  6896  6909       L1     6  0.97
      P1  H 10752 10765       L1    17  0.96

> <Gold.Chemscore.Hbond.Weighted>
-6.6041

> <Gold.Chemscore.Metal.Weighted>
-0.0000

> <Gold.Chemscore.Lipo.Weighted>
-8.2887

> <Gold.Chemscore.Internal_Hbond.Weighted>
0.0000

> <Gold.Chemscore.DEClash.Weighted>
0.1323

> <Gold.Chemscore.DEInternal.Weighted>
1.6859

> <Gold.Chemscore.Rot.Weighted>
4.6911

> <Gold.Chemscore.Internal.Correction.Weighted>
   9.000000E+99

> <Gold.Protein.RotatedTorsions>
[ 6907 6896 6895 6894 ] final   17.24 input  -60.11 | X-H torsion
[ 7974 7965 7964 7962 ] final  109.79 input  175.53 | X-H torsion
[ 8008 7997 7996 7995 ] final  -70.51 input   59.86 | X-H torsion
[ 10167 10162 10161 10158 ] final  131.19 input  -65.29 | X-H torsion
[ 10718 10713 10712 10709 ] final  130.32 input   66.30 | X-H torsion
[ 10763 10752 10751 10750 ] final  174.43 input  -60.55 | X-H torsion
[ 11005 11000 10999 10996 ] final -147.09 input  -57.11 | X-H torsion

> <Gold.Protein.ActiveResidues>
 VAL166  LYS551  ARG553  GLY616  TRP617  ASP618  TYR619  PRO620  LYS621  CYS622 
 ASP623  PHE694  ASN695  SER759  ASP760  ASP761  ALA762  ILE779  LEU786  VAL792 
 PHE793  MET794  SER795  GLU796  ALA797  LYS798  CYS799  TRP800  GLU811  SER814 

> <Gold.Protein.RotatedAtoms>
  151.8465  135.0572  160.0453 H   0  0  0  0  0  0  0  0  0  0  0  0  # atno 6907 bound_to 6896
  152.2769  133.5430  159.5482 H   0  0  0  0  0  0  0  0  0  0  0  0  # atno 6908 bound_to 6896
  150.7174  134.0535  159.3848 H   0  0  0  0  0  0  0  0  0  0  0  0  # atno 6909 bound_to 6896
  145.2633  139.2694  143.4005 H   0  0  0  0  0  0  0  0  0  0  0  0  # atno 7974 bound_to 7965
  154.5017  140.0833  156.7812 H   0  0  0  0  0  0  0  0  0  0  0  0  # atno 8008 bound_to 7997
  155.3987  140.3436  155.4237 H   0  0  0  0  0  0  0  0  0  0  0  0  # atno 8009 bound_to 7997
  156.1465  140.1545  156.8826 H   0  0  0  0  0  0  0  0  0  0  0  0  # atno 8010 bound_to 7997
  139.5395  144.6716  151.4672 H   0  0  0  0  0  0  0  0  0  0  0  0  # atno 10167 bound_to 10162
  157.5072  131.1096  150.9344 H   0  0  0  0  0  0  0  0  0  0  0  0  # atno 10718 bound_to 10713
  154.4538  135.2765  155.1762 H   0  0  0  0  0  0  0  0  0  0  0  0  # atno 10763 bound_to 10752
  154.3578  135.6136  153.5679 H   0  0  0  0  0  0  0  0  0  0  0  0  # atno 10764 bound_to 10752
  152.9849  135.5827  154.4888 H   0  0  0  0  0  0  0  0  0  0  0  0  # atno 10765 bound_to 10752
  140.7752  134.3143  157.5063 H   0  0  0  0  0  0  0  0  0  0  0  0  # atno 11005 bound_to 11000
  146.3268  140.3056  142.8623 LP  0  0  0  0  0  0  0  0  0  0  0  0  # atno 17320 bound_to 7965
  144.9399  140.8067  143.5637 LP  0  0  0  0  0  0  0  0  0  0  0  0  # atno 17321 bound_to 7965
  140.6618  143.8482  150.6896 LP  0  0  0  0  0  0  0  0  0  0  0  0  # atno 17342 bound_to 10162
  140.1879  143.4061  152.1885 LP  0  0  0  0  0  0  0  0  0  0  0  0  # atno 17343 bound_to 10162
  156.9995  130.5594  149.5310 LP  0  0  0  0  0  0  0  0  0  0  0  0  # atno 17370 bound_to 10713
  156.0266  130.5359  150.8423 LP  0  0  0  0  0  0  0  0  0  0  0  0  # atno 17371 bound_to 10713
  139.8750  134.9285  156.3453 LP  0  0  0  0  0  0  0  0  0  0  0  0  # atno 17394 bound_to 11000
  140.9535  133.7435  156.0304 LP  0  0  0  0  0  0  0  0  0  0  0  0  # atno 17395 bound_to 11000

$$$$
