AV-unprocessed.smi:2562|AV-procd|sdf|10049|dock1
  -GOLD-   2272014 93D 1   1.00000     0.00000
 Structure written by MMmdl.
 30 31  0  0  0  0  0  0  0  0  1 V2000
  153.8502  141.1096  160.3081 C   0  0  0  0  0  0  0  0  0  0  0  0
  152.7743  141.8501  161.1103 C   0  0  0  0  0  0  0  0  0  0  0  0
  152.5523  143.2863  160.6132 C   0  0  0  0  0  0  0  0  0  0  0  0
  152.1125  143.3294  159.1870 C   0  0  0  0  0  0  0  0  0  0  0  0
  151.6011  144.4384  158.6546 N   0  0  0  0  0  0  0  0  0  0  0  0
  151.3079  144.0368  157.3997 N   0  0  0  0  0  0  0  0  0  0  0  0
  151.6322  142.7495  157.2587 C   0  0  0  0  0  0  0  0  0  0  0  0
  151.4302  142.0159  155.9702 C   0  0  1  0  0  0  0  0  0  0  0  0
  151.7171  140.5075  156.1031 C   0  0  0  0  0  0  0  0  0  0  0  0
  151.4221  139.8238  154.8450 N   0  0  0  0  0  0  0  0  0  0  0  0
  150.0495  140.0846  154.4133 C   0  0  0  0  0  0  0  0  0  0  0  0
  149.7944  141.6002  154.3271 C   0  0  0  0  0  0  0  0  0  0  0  0
  150.0704  142.2044  155.5864 O   0  0  0  0  0  0  0  0  0  0  0  0
  152.1517  142.2344  158.3695 N   0  0  0  0  0  0  0  0  0  0  0  0
  150.8988  144.6465  156.7063 H   0  0  0  0  0  0  0  0  0  0  0  0
  153.9829  140.0940  160.6819 H   0  0  0  0  0  0  0  0  0  0  0  0
  154.8122  141.6181  160.3766 H   0  0  0  0  0  0  0  0  0  0  0  0
  153.5794  141.0431  159.2540 H   0  0  0  0  0  0  0  0  0  0  0  0
  151.8376  141.2942  161.0516 H   0  0  0  0  0  0  0  0  0  0  0  0
  153.0582  141.8665  162.1632 H   0  0  0  0  0  0  0  0  0  0  0  0
  151.8053  143.7845  161.2327 H   0  0  0  0  0  0  0  0  0  0  0  0
  153.4728  143.8624  160.7154 H   0  0  0  0  0  0  0  0  0  0  0  0
  152.0838  142.4575  155.2148 H   0  0  0  0  0  0  0  0  0  0  0  0
  152.7582  140.3453  156.3823 H   0  0  0  0  0  0  0  0  0  0  0  0
  151.1078  140.0852  156.9035 H   0  0  0  0  0  0  0  0  0  0  0  0
  151.5577  138.8245  154.9609 H   0  0  0  0  0  0  0  0  0  0  0  0
  149.8654  139.6173  153.4456 H   0  0  0  0  0  0  0  0  0  0  0  0
  149.3478  139.6354  155.1171 H   0  0  0  0  0  0  0  0  0  0  0  0
  150.4062  142.0560  153.5468 H   0  0  0  0  0  0  0  0  0  0  0  0
  148.7534  141.7902  154.0660 H   0  0  0  0  0  0  0  0  0  0  0  0
  1  2  1  0  0  0  0
  1 16  1  0  0  0  0
  1 17  1  0  0  0  0
  1 18  1  0  0  0  0
  2  3  1  0  0  0  0
  2 19  1  0  0  0  0
  2 20  1  0  0  0  0
  3  4  1  0  0  0  0
  3 21  1  0  0  0  0
  3 22  1  0  0  0  0
  4 14  1  0  0  0  0
  4  5  2  0  0  0  0
  5  6  1  0  0  0  0
  6 15  1  0  0  0  0
  6  7  1  0  0  0  0
  7  8  1  0  0  0  0
  7 14  2  0  0  0  0
  8 13  1  0  0  0  0
  8  9  1  0  0  0  0
  8 23  1  0  0  0  0
  9 10  1  0  0  0  0
  9 24  1  0  0  0  0
  9 25  1  0  0  0  0
 10 11  1  0  0  0  0
 10 26  1  0  0  0  0
 11 12  1  0  0  0  0
 11 27  1  0  0  0  0
 11 28  1  0  0  0  0
 12 13  1  0  0  0  0
 12 29  1  0  0  0  0
 12 30  1  0  0  0  0
M  END
> <s_m_source_file>
AV-unprocessed.smi

> <i_m_source_file_index>
2562

> <i_lp_mmshare_version>
43012

> <i_f3d_flags>
0

> <s_epik_input>
W0NIM11bQ0gyXVtDSDJdYzFuW25IXWMobjEpW0NAQEhdMltDSDJdW05IXVtDSDJdW0NIMl1PMg==

> <s_epik_cmdline>
J2VwaWtfcHl0aG9uJywgJy1waCcsICc3LjAnLCAnLXRuJywgJzgnLCAnLW1hJywgJzIwMCcsICctbWV0YWxfYmluZGluZycsICctaW1hZScsICc8aW5maWxlLm1hZT4nLCAnLW9tYWUnLCAnPG91dGZpbGUubWFlPic=

> <r_lp_tautomer_probability>
0.948284

> <r_epik_Ionization_Penalty>
0.982917

> <r_epik_Ionization_Penalty_Charging>
0

> <r_epik_Ionization_Penalty_Neutral>
0.982917

> <r_epik_State_Penalty>
1.68334

> <r_epik_Charging_Adjusted_Penalty>
1.68334

> <i_epik_Tot_Q>
0

> <i_epik_Tot_abs_Q>
0

> <r_epik_Metal_State_Penalty>
1.80323

> <b_epik_Metal_Only>
0

> <s_lp_Force_Field>
OPLS_2005

> <r_lp_Energy>
10.1015

> <b_lp_Chiralities_Consistent>
1

> <s_lp_Variant>
AV-unprocessed.smi:2562-8

> <Gold.Version>
5.8.1

> <Gold.Id.Protein>
6NUR|6NUR_protein|mol2

> <Gold.PLP.Fitness>
37.1596

> <Gold.PLP.PLP>
-31.6537

> <Gold.PLP.part.hbond>
-2.0000

> <Gold.PLP.part.metal>
0.0000

> <Gold.PLP.part.buried>
-5.8605

> <Gold.PLP.part.nonpolar>
-23.8279

> <Gold.PLP.part.repulsive>
0.4963

> <Gold.PLP.ligand.clash>
0.0000

> <Gold.PLP.ligand.torsion>
0.2505

> <Gold.PLP.Chemscore.Hbond>
2.0000

> <Gold.PLP.Chemscore.CHOScore>
0.0000

> <Gold.PLP.Chemscore.Metal>
0.0000

> <Gold.Chemscore.Hbonds>
donor molecule, donor type, donor heavy atom, donor atom, acceptor molecule, acceptor atom, score
      L1  H     6    15       P1  8028  0.35

> <Gold.PLP.Chemscore.Internal.Correction>
0.0070

> <Gold.Rescore>
     Score         DG    S(hbond)    S(metal)    S(lipo)     H(rot)  DE(clash)    DE(int)     intcor
     11.94     -12.22       1.05        0.00      59.85       1.48       0.00       0.28       ----

> <Gold.Chemscore.Fitness>
11.9356

> <Gold.Chemscore.DG>
-12.2194

> <Gold.Chemscore.ZeroCoef>
-5.4800

> <Gold.Chemscore.Hbond>
1.0534

> <Gold.Chemscore.Metal>
0.0000

> <Gold.Chemscore.Lipo>
59.8460

> <Gold.Chemscore.Internal_Hbond>
0.0000

> <Gold.Chemscore.DEClash>
0.0000

> <Gold.Chemscore.DEInternal>
0.2839

> <Gold.Chemscore.Rot>
1.4769

> <Gold.Chemscore.Internal.Correction>
   9.000000E+99

> <Gold.Chemscore.Hbonds>
donor molecule, donor type, donor heavy atom, donor atom, acceptor molecule, acceptor atom, score
      L1  H     6    15       P1  8028  0.33

> <Gold.Chemscore.Hbond.Weighted>
-3.5182

> <Gold.Chemscore.Metal.Weighted>
-0.0000

> <Gold.Chemscore.Lipo.Weighted>
-7.0020

> <Gold.Chemscore.Internal_Hbond.Weighted>
0.0000

> <Gold.Chemscore.DEClash.Weighted>
0.0000

> <Gold.Chemscore.DEInternal.Weighted>
0.2839

> <Gold.Chemscore.Rot.Weighted>
3.7808

> <Gold.Chemscore.Internal.Correction.Weighted>
   9.000000E+99

> <Gold.Protein.RotatedTorsions>
[ 6907 6896 6895 6894 ] final  -42.20 input  -60.11 | X-H torsion
[ 7974 7965 7964 7962 ] final   36.53 input  175.53 | X-H torsion
[ 8008 7997 7996 7995 ] final  119.02 input   59.86 | X-H torsion
[ 10167 10162 10161 10158 ] final -136.75 input  -65.29 | X-H torsion
[ 10718 10713 10712 10709 ] final  -19.69 input   66.30 | X-H torsion
[ 10763 10752 10751 10750 ] final   46.73 input  -60.55 | X-H torsion
[ 11005 11000 10999 10996 ] final   79.89 input  -57.11 | X-H torsion

> <Gold.Protein.ActiveResidues>
 VAL166  LYS551  ARG553  GLY616  TRP617  ASP618  TYR619  PRO620  LYS621  CYS622 
 ASP623  PHE694  ASN695  SER759  ASP760  ASP761  ALA762  ILE779  LEU786  VAL792 
 PHE793  MET794  SER795  GLU796  ALA797  LYS798  CYS799  TRP800  GLU811  SER814 

> <Gold.Protein.RotatedAtoms>
  150.9580  134.8971  159.7712 H   0  0  0  0  0  0  0  0  0  0  0  0  # atno 6907 bound_to 6896
  152.5145  134.3713  159.9329 H   0  0  0  0  0  0  0  0  0  0  0  0  # atno 6908 bound_to 6896
  151.3726  133.3809  159.2736 H   0  0  0  0  0  0  0  0  0  0  0  0  # atno 6909 bound_to 6896
  146.1204  139.6006  142.9293 H   0  0  0  0  0  0  0  0  0  0  0  0  # atno 7974 bound_to 7965
  156.2575  140.2862  156.0927 H   0  0  0  0  0  0  0  0  0  0  0  0  # atno 8008 bound_to 7997
  155.1446  140.0396  157.2824 H   0  0  0  0  0  0  0  0  0  0  0  0  # atno 8009 bound_to 7997
  154.6505  140.2543  155.7226 H   0  0  0  0  0  0  0  0  0  0  0  0  # atno 8010 bound_to 7997
  139.8646  143.7033  152.2646 H   0  0  0  0  0  0  0  0  0  0  0  0  # atno 10167 bound_to 10162
  156.5422  130.4681  149.6493 H   0  0  0  0  0  0  0  0  0  0  0  0  # atno 10718 bound_to 10713
  152.9807  135.5999  154.3647 H   0  0  0  0  0  0  0  0  0  0  0  0  # atno 10763 bound_to 10752
  154.3326  135.2768  155.2466 H   0  0  0  0  0  0  0  0  0  0  0  0  # atno 10764 bound_to 10752
  154.4583  135.5972  153.6294 H   0  0  0  0  0  0  0  0  0  0  0  0  # atno 10765 bound_to 10752
  139.9155  134.7878  156.1838 H   0  0  0  0  0  0  0  0  0  0  0  0  # atno 11005 bound_to 11000
  145.5477  141.0416  143.2295 LP  0  0  0  0  0  0  0  0  0  0  0  0  # atno 17320 bound_to 7965
  144.7592  139.6998  143.7241 LP  0  0  0  0  0  0  0  0  0  0  0  0  # atno 17321 bound_to 7965
  139.7341  144.7575  151.0756 LP  0  0  0  0  0  0  0  0  0  0  0  0  # atno 17342 bound_to 10162
  140.7770  143.5052  150.9721 LP  0  0  0  0  0  0  0  0  0  0  0  0  # atno 17343 bound_to 10162
  156.2961  130.7151  151.2011 LP  0  0  0  0  0  0  0  0  0  0  0  0  # atno 17370 bound_to 10713
  157.7403  131.0518  150.5174 LP  0  0  0  0  0  0  0  0  0  0  0  0  # atno 17371 bound_to 10713
  141.0626  133.6834  156.1982 LP  0  0  0  0  0  0  0  0  0  0  0  0  # atno 17394 bound_to 11000
  140.6637  134.4941  157.5584 LP  0  0  0  0  0  0  0  0  0  0  0  0  # atno 17395 bound_to 11000

$$$$
