AV-unprocessed.smi:2390|AV-procd|sdf|9473|dock7
  -GOLD-   2272013103D 1   1.00000     0.00000
 Structure written by MMmdl.
 45 46  0  0  0  0  0  0  0  0  1 V2000
  153.1363  141.4160  160.6666 C   0  0  0  0  0  0  0  0  0  0  0  0
  152.5290  142.5541  159.8736 C   0  0  0  0  0  0  0  0  0  0  0  0
  152.8047  143.8957  160.2026 C   0  0  0  0  0  0  0  0  0  0  0  0
  152.2087  144.9043  159.4242 C   0  0  0  0  0  0  0  0  0  0  0  0
  151.3666  144.5327  158.3582 C   0  0  0  0  0  0  0  0  0  0  0  0
  151.1380  143.1627  158.0980 C   0  0  0  0  0  0  0  0  0  0  0  0
  150.2686  142.8914  157.0079 N   0  0  0  0  0  0  0  0  0  0  0  0
  150.1534  141.7522  156.3023 C   0  0  0  0  0  0  0  0  0  0  0  0
  150.8268  140.7366  156.4791 O   0  0  0  0  0  0  0  0  0  0  0  0
  149.1946  141.8552  155.3700 N   0  0  0  0  0  0  0  0  0  0  0  0
  148.7551  140.7898  154.4678 C   0  0  2  0  0  0  0  0  0  0  0  0
  147.6131  141.3145  153.5789 C   0  0  0  0  0  0  0  0  0  0  0  0
  148.3909  139.4947  155.2641 C   0  0  2  0  0  0  0  0  0  0  0  0
  147.4407  139.8542  156.4369 C   0  0  0  0  0  0  0  0  0  0  0  0
  149.5694  138.7049  155.7026 N   0  0  0  0  0  0  0  0  0  0  0  0
  150.6331  138.6440  154.6922 C   0  0  0  0  0  0  0  0  0  0  0  0
  151.8466  137.8199  155.1556 C   0  0  0  0  0  0  0  0  0  0  0  0
  151.4307  136.5054  155.4989 O   0  0  0  0  0  0  0  0  0  0  0  0
  150.4475  136.5083  156.5245 C   0  0  0  0  0  0  0  0  0  0  0  0
  149.2261  137.3261  156.0703 C   0  0  0  0  0  0  0  0  0  0  0  0
  151.7195  142.1978  158.8535 N   0  0  0  0  0  0  0  0  0  0  0  0
  153.9129  141.7758  161.3419 H   0  0  0  0  0  0  0  0  0  0  0  0
  153.5834  140.6803  159.9972 H   0  0  0  0  0  0  0  0  0  0  0  0
  152.3691  140.9189  161.2608 H   0  0  0  0  0  0  0  0  0  0  0  0
  153.4549  144.1477  161.0274 H   0  0  0  0  0  0  0  0  0  0  0  0
  152.3934  145.9460  159.6410 H   0  0  0  0  0  0  0  0  0  0  0  0
  150.9005  145.2957  157.7518 H   0  0  0  0  0  0  0  0  0  0  0  0
  149.6479  143.6442  156.7502 H   0  0  0  0  0  0  0  0  0  0  0  0
  148.6985  142.7315  155.3010 H   0  0  0  0  0  0  0  0  0  0  0  0
  149.5418  140.5693  153.7498 H   0  0  0  0  0  0  0  0  0  0  0  0
  147.2151  140.5233  152.9431 H   0  0  0  0  0  0  0  0  0  0  0  0
  147.9726  142.1080  152.9227 H   0  0  0  0  0  0  0  0  0  0  0  0
  146.7878  141.7308  154.1552 H   0  0  0  0  0  0  0  0  0  0  0  0
  147.8159  138.8655  154.5828 H   0  0  0  0  0  0  0  0  0  0  0  0
  146.6262  140.5064  156.1290 H   0  0  0  0  0  0  0  0  0  0  0  0
  147.9739  140.3538  157.2463 H   0  0  0  0  0  0  0  0  0  0  0  0
  146.9551  138.9720  156.8523 H   0  0  0  0  0  0  0  0  0  0  0  0
  150.2404  138.2220  153.7660 H   0  0  0  0  0  0  0  0  0  0  0  0
  151.0076  139.6354  154.4525 H   0  0  0  0  0  0  0  0  0  0  0  0
  152.5904  137.7611  154.3610 H   0  0  0  0  0  0  0  0  0  0  0  0
  152.3302  138.2940  156.0114 H   0  0  0  0  0  0  0  0  0  0  0  0
  150.1565  135.4803  156.7406 H   0  0  0  0  0  0  0  0  0  0  0  0
  150.8679  136.9214  157.4428 H   0  0  0  0  0  0  0  0  0  0  0  0
  148.5131  137.3129  156.8929 H   0  0  0  0  0  0  0  0  0  0  0  0
  148.7477  136.8262  155.2268 H   0  0  0  0  0  0  0  0  0  0  0  0
  1  2  1  0  0  0  0
  1 22  1  0  0  0  0
  1 23  1  0  0  0  0
  1 24  1  0  0  0  0
  2 21  1  0  0  0  0
  2  3  2  0  0  0  0
  3  4  1  0  0  0  0
  3 25  1  0  0  0  0
  4  5  2  0  0  0  0
  4 26  1  0  0  0  0
  5  6  1  0  0  0  0
  5 27  1  0  0  0  0
  6  7  1  0  0  0  0
  6 21  2  0  0  0  0
  7  8  1  0  0  0  0
  7 28  1  0  0  0  0
  8  9  2  0  0  0  0
  8 10  1  0  0  0  0
 10 11  1  0  0  0  0
 10 29  1  0  0  0  0
 11 12  1  0  0  0  0
 11 13  1  0  0  0  0
 11 30  1  0  0  0  0
 12 31  1  0  0  0  0
 12 32  1  0  0  0  0
 12 33  1  0  0  0  0
 13 14  1  0  0  0  0
 13 15  1  0  0  0  0
 13 34  1  0  0  0  0
 14 35  1  0  0  0  0
 14 36  1  0  0  0  0
 14 37  1  0  0  0  0
 15 20  1  0  0  0  0
 15 16  1  0  0  0  0
 16 17  1  0  0  0  0
 16 38  1  0  0  0  0
 16 39  1  0  0  0  0
 17 18  1  0  0  0  0
 17 40  1  0  0  0  0
 17 41  1  0  0  0  0
 18 19  1  0  0  0  0
 19 20  1  0  0  0  0
 19 42  1  0  0  0  0
 19 43  1  0  0  0  0
 20 44  1  0  0  0  0
 20 45  1  0  0  0  0
M  END
> <s_m_source_file>
AV-unprocessed.smi

> <i_m_source_file_index>
2390

> <i_lp_mmshare_version>
43012

> <i_f3d_flags>
0

> <s_epik_input>
W0NIM11jMVtjSF1bY0hdW2NIXWMobjEpW05IXUMoPU8pW05IXVtDQEhdKFtDSDNdKVtDQEhdKFtDSDNdKU4yW0NIMl1bQ0gyXU9bQ0gyXVtDSDJdMg==

> <s_epik_cmdline>
J2VwaWtfcHl0aG9uJywgJy1waCcsICc3LjAnLCAnLXRuJywgJzgnLCAnLW1hJywgJzIwMCcsICctbWV0YWxfYmluZGluZycsICctaW1hZScsICc8aW5maWxlLm1hZT4nLCAnLW9tYWUnLCAnPG91dGZpbGUubWFlPic=

> <r_epik_Ionization_Penalty>
0.266074

> <r_epik_Ionization_Penalty_Charging>
0

> <r_epik_Ionization_Penalty_Neutral>
0.266074

> <r_epik_State_Penalty>
0.257924

> <r_epik_Charging_Adjusted_Penalty>
0.257924

> <i_epik_Tot_Q>
0

> <i_epik_Tot_abs_Q>
0

> <r_epik_Metal_State_Penalty>
0.257919

> <b_epik_Metal_Only>
0

> <s_lp_Force_Field>
OPLS_2005

> <r_lp_Energy>
37.1524

> <b_lp_Chiralities_Consistent>
1

> <s_lp_Variant>
AV-unprocessed.smi:2390-1

> <Gold.Version>
5.8.1

> <Gold.Id.Protein>
6NUR|6NUR_protein|mol2

> <Gold.PLP.Fitness>
49.8049

> <Gold.PLP.PLP>
-42.5284

> <Gold.PLP.part.hbond>
-3.0000

> <Gold.PLP.part.metal>
0.0000

> <Gold.PLP.part.buried>
-7.4510

> <Gold.PLP.part.nonpolar>
-33.0224

> <Gold.PLP.part.repulsive>
0.3711

> <Gold.PLP.ligand.clash>
0.0000

> <Gold.PLP.ligand.torsion>
0.6368

> <Gold.PLP.Chemscore.Hbond>
2.8160

> <Gold.PLP.Chemscore.CHOScore>
0.0000

> <Gold.PLP.Chemscore.Metal>
0.0000

> <Gold.Chemscore.Hbonds>
donor molecule, donor type, donor heavy atom, donor atom, acceptor molecule, acceptor atom, score
      L1  H     7    28       P1  8028  1.00
      L1  H    10    29       P1  8028  0.86
      P1  H 10752 10764       L1    18  0.90

> <Gold.PLP.Chemscore.Internal.Correction>
0.1020

> <Gold.Rescore>
     Score         DG    S(hbond)    S(metal)    S(lipo)     H(rot)  DE(clash)    DE(int)     intcor
     17.96     -22.44       2.49        0.00     105.46       1.44       0.34       4.13       ----

> <Gold.Chemscore.Fitness>
17.9648

> <Gold.Chemscore.DG>
-22.4395

> <Gold.Chemscore.ZeroCoef>
-5.4800

> <Gold.Chemscore.Hbond>
2.4869

> <Gold.Chemscore.Metal>
0.0000

> <Gold.Chemscore.Lipo>
105.4599

> <Gold.Chemscore.Internal_Hbond>
0.0000

> <Gold.Chemscore.DEClash>
0.3438

> <Gold.Chemscore.DEInternal>
4.1308

> <Gold.Chemscore.Rot>
1.4396

> <Gold.Chemscore.Internal.Correction>
   9.000000E+99

> <Gold.Chemscore.Hbonds>
donor molecule, donor type, donor heavy atom, donor atom, acceptor molecule, acceptor atom, score
      L1  H     7    28       P1  8028  0.98
      L1  H    10    29       P1  8028  0.80
      P1  H 10752 10764       L1    18  0.18

> <Gold.Chemscore.Hbond.Weighted>
-8.3061

> <Gold.Chemscore.Metal.Weighted>
-0.0000

> <Gold.Chemscore.Lipo.Weighted>
-12.3388

> <Gold.Chemscore.Internal_Hbond.Weighted>
0.0000

> <Gold.Chemscore.DEClash.Weighted>
0.3438

> <Gold.Chemscore.DEInternal.Weighted>
4.1308

> <Gold.Chemscore.Rot.Weighted>
3.6855

> <Gold.Chemscore.Internal.Correction.Weighted>
   9.000000E+99

> <Gold.Protein.RotatedTorsions>
[ 6907 6896 6895 6894 ] final  -37.92 input  -60.11 | X-H torsion
[ 7974 7965 7964 7962 ] final   34.19 input  175.53 | X-H torsion
[ 8008 7997 7996 7995 ] final   21.52 input   59.86 | X-H torsion
[ 10167 10162 10161 10158 ] final -112.89 input  -65.29 | X-H torsion
[ 10718 10713 10712 10709 ] final -123.17 input   66.30 | X-H torsion
[ 10763 10752 10751 10750 ] final  -46.26 input  -60.55 | X-H torsion
[ 11005 11000 10999 10996 ] final -121.43 input  -57.11 | X-H torsion

> <Gold.Protein.ActiveResidues>
 VAL166  LYS551  ARG553  GLY616  TRP617  ASP618  TYR619  PRO620  LYS621  CYS622 
 ASP623  PHE694  ASN695  SER759  ASP760  ASP761  ALA762  ILE779  LEU786  VAL792 
 PHE793  MET794  SER795  GLU796  ALA797  LYS798  CYS799  TRP800  GLU811  SER814 

> <Gold.Protein.RotatedAtoms>
  151.0088  134.9380  159.7995 H   0  0  0  0  0  0  0  0  0  0  0  0  # atno 6907 bound_to 6896
  152.5297  134.3056  159.9104 H   0  0  0  0  0  0  0  0  0  0  0  0  # atno 6908 bound_to 6896
  151.3062  133.4059  159.2677 H   0  0  0  0  0  0  0  0  0  0  0  0  # atno 6909 bound_to 6896
  146.1369  139.6300  142.9189 H   0  0  0  0  0  0  0  0  0  0  0  0  # atno 7974 bound_to 7965
  154.9518  140.3066  155.5071 H   0  0  0  0  0  0  0  0  0  0  0  0  # atno 8008 bound_to 7997
  156.2986  140.2317  156.4534 H   0  0  0  0  0  0  0  0  0  0  0  0  # atno 8009 bound_to 7997
  154.8047  140.0432  157.1287 H   0  0  0  0  0  0  0  0  0  0  0  0  # atno 8010 bound_to 7997
  140.1178  143.4470  152.1711 H   0  0  0  0  0  0  0  0  0  0  0  0  # atno 10167 bound_to 10162
  156.1479  130.6513  150.9870 H   0  0  0  0  0  0  0  0  0  0  0  0  # atno 10718 bound_to 10713
  154.0420  135.6642  153.4791 H   0  0  0  0  0  0  0  0  0  0  0  0  # atno 10763 bound_to 10752
  153.0498  135.5092  154.7833 H   0  0  0  0  0  0  0  0  0  0  0  0  # atno 10764 bound_to 10752
  154.6812  135.3045  154.9576 H   0  0  0  0  0  0  0  0  0  0  0  0  # atno 10765 bound_to 10752
  141.0071  134.0319  157.3463 H   0  0  0  0  0  0  0  0  0  0  0  0  # atno 11005 bound_to 11000
  145.5134  141.0434  143.2475 LP  0  0  0  0  0  0  0  0  0  0  0  0  # atno 17320 bound_to 7965
  144.7750  139.6650  143.7179 LP  0  0  0  0  0  0  0  0  0  0  0  0  # atno 17321 bound_to 7965
  139.5585  144.7389  151.4224 LP  0  0  0  0  0  0  0  0  0  0  0  0  # atno 17342 bound_to 10162
  140.6889  143.7907  150.7227 LP  0  0  0  0  0  0  0  0  0  0  0  0  # atno 17343 bound_to 10162
  157.6632  131.0877  150.7789 LP  0  0  0  0  0  0  0  0  0  0  0  0  # atno 17370 bound_to 10713
  156.7859  130.4874  149.5393 LP  0  0  0  0  0  0  0  0  0  0  0  0  # atno 17371 bound_to 10713
  139.9069  135.0181  156.7525 LP  0  0  0  0  0  0  0  0  0  0  0  0  # atno 17394 bound_to 11000
  140.6795  133.9487  155.7902 LP  0  0  0  0  0  0  0  0  0  0  0  0  # atno 17395 bound_to 11000

$$$$
