AV-unprocessed.smi:1817|AV-procd|sdf|7369|dock1
  -GOLD-   22720 9 33D 1   1.00000     0.00000
 Structure written by MMmdl.
 43 44  0  0  0  0  0  0  0  0  2 V2000
  151.3437  140.3185  155.9807 C   0  0  0  0  0  0  0  0  0  0  0  0
  150.7487  141.6902  156.3297 C   0  0  0  0  0  0  0  0  0  0  0  0
  149.3321  141.8232  155.9075 N   0  3  0  0  0  0  0  0  0  0  0  0
  148.3981  140.9539  156.6671 C   0  0  0  0  0  0  0  0  0  0  0  0
  146.9477  141.1723  156.1861 C   0  0  0  0  0  0  0  0  0  0  0  0
  146.7934  140.8737  154.7545 N   0  0  0  0  0  0  0  0  0  0  0  0
  146.9363  139.4483  154.3775 C   0  0  1  0  0  0  0  0  0  0  0  0
  145.9061  138.5789  155.1391 C   0  0  0  0  0  0  0  0  0  0  0  0
  146.7856  139.2688  152.8416 C   0  0  0  0  0  0  0  0  0  0  0  0
  146.9291  137.8793  152.4126 N   0  0  0  0  0  0  0  0  0  0  0  0
  145.9188  137.0376  152.1474 C   0  0  0  0  0  0  0  0  0  0  0  0
  144.7322  137.3452  152.2552 O   0  0  0  0  0  0  0  0  0  0  0  0
  146.3772  135.8357  151.7620 N   0  0  0  0  0  0  0  0  0  0  0  0
  145.6242  134.6879  151.4086 C   0  0  0  0  0  0  0  0  0  0  0  0
  146.2861  133.6218  150.9436 N   0  0  0  0  0  0  0  0  0  0  0  0
  145.4302  132.5708  150.6373 N   0  0  0  0  0  0  0  0  0  0  0  0
  144.1550  132.8858  150.8842 C   0  0  0  0  0  0  0  0  0  0  0  0
  143.8713  134.4982  151.5160 S   0  0  0  0  0  0  0  0  0  0  0  0
  147.6784  141.8118  154.0482 C   0  0  0  0  0  0  0  0  0  0  0  0
  149.1566  141.6198  154.4486 C   0  0  0  0  0  0  0  0  0  0  0  0
  152.3512  140.2246  156.3866 H   0  0  0  0  0  0  0  0  0  0  0  0
  151.4155  140.1646  154.9045 H   0  0  0  0  0  0  0  0  0  0  0  0
  150.7437  139.5096  156.3988 H   0  0  0  0  0  0  0  0  0  0  0  0
  150.8082  141.8145  157.4119 H   0  0  0  0  0  0  0  0  0  0  0  0
  151.3464  142.4915  155.8927 H   0  0  0  0  0  0  0  0  0  0  0  0
  148.6908  139.9077  156.5733 H   0  0  0  0  0  0  0  0  0  0  0  0
  148.4499  141.1962  157.7279 H   0  0  0  0  0  0  0  0  0  0  0  0
  146.2489  140.5994  156.7926 H   0  0  0  0  0  0  0  0  0  0  0  0
  146.6690  142.2136  156.3550 H   0  0  0  0  0  0  0  0  0  0  0  0
  147.9289  139.0967  154.6554 H   0  0  0  0  0  0  0  0  0  0  0  0
  145.9507  137.5342  154.8348 H   0  0  0  0  0  0  0  0  0  0  0  0
  144.8870  138.9266  154.9662 H   0  0  0  0  0  0  0  0  0  0  0  0
  146.0857  138.5657  156.2130 H   0  0  0  0  0  0  0  0  0  0  0  0
  145.8388  139.6925  152.5017 H   0  0  0  0  0  0  0  0  0  0  0  0
  147.5695  139.8027  152.3079 H   0  0  0  0  0  0  0  0  0  0  0  0
  147.8717  137.5360  152.2988 H   0  0  0  0  0  0  0  0  0  0  0  0
  147.3794  135.7261  151.7162 H   0  0  0  0  0  0  0  0  0  0  0  0
  143.3758  132.1635  150.6921 H   0  0  0  0  0  0  0  0  0  0  0  0
  147.5582  141.7436  152.9691 H   0  0  0  0  0  0  0  0  0  0  0  0
  147.3712  142.8292  154.2953 H   0  0  0  0  0  0  0  0  0  0  0  0
  149.7661  142.3468  153.9110 H   0  0  0  0  0  0  0  0  0  0  0  0
  149.5206  140.6340  154.1569 H   0  0  0  0  0  0  0  0  0  0  0  0
  149.0599  142.7780  156.0924 H   0  0  0  0  0  0  0  0  0  0  0  0
  1  2  1  0  0  0  0
  1 21  1  0  0  0  0
  1 22  1  0  0  0  0
  1 23  1  0  0  0  0
  2  3  1  0  0  0  0
  2 24  1  0  0  0  0
  2 25  1  0  0  0  0
  3 20  1  0  0  0  0
  3  4  1  0  0  0  0
  3 43  1  0  0  0  0
  4  5  1  0  0  0  0
  4 26  1  0  0  0  0
  4 27  1  0  0  0  0
  5  6  1  0  0  0  0
  5 28  1  0  0  0  0
  5 29  1  0  0  0  0
  6  7  1  0  0  0  0
  6 19  1  0  0  0  0
  7  8  1  0  0  0  0
  7  9  1  0  0  0  0
  7 30  1  0  0  0  0
  8 31  1  0  0  0  0
  8 32  1  0  0  0  0
  8 33  1  0  0  0  0
  9 10  1  0  0  0  0
  9 34  1  0  0  0  0
  9 35  1  0  0  0  0
 10 11  1  0  0  0  0
 10 36  1  0  0  0  0
 11 12  2  0  0  0  0
 11 13  1  0  0  0  0
 13 14  1  0  0  0  0
 13 37  1  0  0  0  0
 14 18  1  0  0  0  0
 14 15  2  0  0  0  0
 15 16  1  0  0  0  0
 16 17  2  0  0  0  0
 17 18  1  0  0  0  0
 17 38  1  0  0  0  0
 19 20  1  0  0  0  0
 19 39  1  0  0  0  0
 19 40  1  0  0  0  0
 20 41  1  0  0  0  0
 20 42  1  0  0  0  0
M  CHG  1   3   1
M  END
> <s_m_source_file>
AV-unprocessed.smi

> <i_m_source_file_index>
1817

> <i_lp_mmshare_version>
43012

> <i_f3d_flags>
0

> <s_epik_input>
W0NIM11bQ0gyXU4xW0NIMl1bQ0gyXU4oW0NIMl1bQ0gyXTEpW0NASF0oW0NIM10pW0NIMl1bTkhdQyg9TylbTkhdYzJubltjSF1zMg==

> <s_epik_cmdline>
J2VwaWtfcHl0aG9uJywgJy1waCcsICc3LjAnLCAnLXRuJywgJzgnLCAnLW1hJywgJzIwMCcsICctbWV0YWxfYmluZGluZycsICctaW1hZScsICc8aW5maWxlLm1hZT4nLCAnLW9tYWUnLCAnPG91dGZpbGUubWFlPic=

> <r_lp_tautomer_probability>
1

> <r_epik_Ionization_Penalty>
0.0474318

> <r_epik_Ionization_Penalty_Charging>
0.0451959

> <r_epik_Ionization_Penalty_Neutral>
0.00223598

> <r_epik_State_Penalty>
0.165541

> <r_epik_Charging_Adjusted_Penalty>
0.210737

> <i_epik_Tot_Q>
1

> <i_epik_Tot_abs_Q>
1

> <r_epik_Metal_State_Penalty>
0.500395

> <b_epik_Metal_Only>
0

> <s_lp_Force_Field>
OPLS_2005

> <r_lp_Energy>
20.492

> <b_lp_Chiralities_Consistent>
1

> <s_lp_Variant>
AV-unprocessed.smi:1817-2

> <Gold.Version>
5.8.1

> <Gold.Id.Protein>
6NUR|6NUR_protein|mol2

> <Gold.PLP.Fitness>
41.3189

> <Gold.PLP.PLP>
-29.6422

> <Gold.PLP.part.hbond>
-3.0000

> <Gold.PLP.part.metal>
0.0000

> <Gold.PLP.part.buried>
-4.7031

> <Gold.PLP.part.nonpolar>
-23.6628

> <Gold.PLP.part.repulsive>
2.2135

> <Gold.PLP.ligand.clash>
0.0000

> <Gold.PLP.ligand.torsion>
0.1893

> <Gold.PLP.Chemscore.Hbond>
4.0000

> <Gold.PLP.Chemscore.CHOScore>
0.0000

> <Gold.PLP.Chemscore.Metal>
0.0000

> <Gold.Chemscore.Hbonds>
donor molecule, donor type, donor heavy atom, donor atom, acceptor molecule, acceptor atom, score
      L1  H     3    43       P1  8028  2.00
      L1  H    10    36       P1  7948  0.99
      L1  H    13    37       P1  7948  1.00

> <Gold.PLP.Chemscore.Internal.Correction>
0.0553

> <Gold.Rescore>
     Score         DG    S(hbond)    S(metal)    S(lipo)     H(rot)  DE(clash)    DE(int)     intcor
     16.05     -17.25       2.96        0.00      58.16       1.92       0.27       0.93       ----

> <Gold.Chemscore.Fitness>
16.0502

> <Gold.Chemscore.DG>
-17.2483

> <Gold.Chemscore.ZeroCoef>
-5.4800

> <Gold.Chemscore.Hbond>
2.9574

> <Gold.Chemscore.Metal>
0.0000

> <Gold.Chemscore.Lipo>
58.1589

> <Gold.Chemscore.Internal_Hbond>
0.0000

> <Gold.Chemscore.DEClash>
0.2699

> <Gold.Chemscore.DEInternal>
0.9282

> <Gold.Chemscore.Rot>
1.9196

> <Gold.Chemscore.Internal.Correction>
   9.000000E+99

> <Gold.Chemscore.Hbonds>
donor molecule, donor type, donor heavy atom, donor atom, acceptor molecule, acceptor atom, score
      L1  H     3    43       P1  8028  0.95
      L1  H    10    36       P1  7948  0.94
      L1  H    13    37       P1  7948  0.98

> <Gold.Chemscore.Hbond.Weighted>
-9.8778

> <Gold.Chemscore.Metal.Weighted>
-0.0000

> <Gold.Chemscore.Lipo.Weighted>
-6.8046

> <Gold.Chemscore.Internal_Hbond.Weighted>
0.0000

> <Gold.Chemscore.DEClash.Weighted>
0.2699

> <Gold.Chemscore.DEInternal.Weighted>
0.9282

> <Gold.Chemscore.Rot.Weighted>
4.9141

> <Gold.Chemscore.Internal.Correction.Weighted>
   9.000000E+99

> <Gold.Protein.RotatedTorsions>
[ 6907 6896 6895 6894 ] final  149.17 input  -60.11 | X-H torsion
[ 7974 7965 7964 7962 ] final  108.37 input  175.53 | X-H torsion
[ 8008 7997 7996 7995 ] final  153.11 input   59.86 | X-H torsion
[ 10167 10162 10161 10158 ] final -167.06 input  -65.29 | X-H torsion
[ 10718 10713 10712 10709 ] final -173.16 input   66.30 | X-H torsion
[ 10763 10752 10751 10750 ] final -135.59 input  -60.55 | X-H torsion
[ 11005 11000 10999 10996 ] final -125.41 input  -57.11 | X-H torsion

> <Gold.Protein.ActiveResidues>
 VAL166  LYS551  ARG553  GLY616  TRP617  ASP618  TYR619  PRO620  LYS621  CYS622 
 ASP623  PHE694  ASN695  SER759  ASP760  ASP761  ALA762  ILE779  LEU786  VAL792 
 PHE793  MET794  SER795  GLU796  ALA797  LYS798  CYS799  TRP800  GLU811  SER814 

> <Gold.Protein.RotatedAtoms>
  152.1317  133.4411  159.4723 H   0  0  0  0  0  0  0  0  0  0  0  0  # atno 6907 bound_to 6896
  150.6878  134.2413  159.4483 H   0  0  0  0  0  0  0  0  0  0  0  0  # atno 6908 bound_to 6896
  152.0297  134.9774  160.0623 H   0  0  0  0  0  0  0  0  0  0  0  0  # atno 6909 bound_to 6896
  145.2816  139.2631  143.3913 H   0  0  0  0  0  0  0  0  0  0  0  0  # atno 7974 bound_to 7965
  156.2597  140.2002  156.6439 H   0  0  0  0  0  0  0  0  0  0  0  0  # atno 8008 bound_to 7997
  154.6588  140.0563  157.0064 H   0  0  0  0  0  0  0  0  0  0  0  0  # atno 8009 bound_to 7997
  155.1307  140.3233  155.4478 H   0  0  0  0  0  0  0  0  0  0  0  0  # atno 8010 bound_to 7997
  139.6074  144.0885  152.1807 H   0  0  0  0  0  0  0  0  0  0  0  0  # atno 10167 bound_to 10162
  156.7662  130.9432  151.3119 H   0  0  0  0  0  0  0  0  0  0  0  0  # atno 10718 bound_to 10713
  154.8700  135.3698  154.4924 H   0  0  0  0  0  0  0  0  0  0  0  0  # atno 10763 bound_to 10752
  153.5570  135.7023  153.5570 H   0  0  0  0  0  0  0  0  0  0  0  0  # atno 10764 bound_to 10752
  153.3663  135.4033  155.1719 H   0  0  0  0  0  0  0  0  0  0  0  0  # atno 10765 bound_to 10752
  140.9764  134.0734  157.3813 H   0  0  0  0  0  0  0  0  0  0  0  0  # atno 11005 bound_to 11000
  146.3214  140.3284  142.8638 LP  0  0  0  0  0  0  0  0  0  0  0  0  # atno 17320 bound_to 7965
  144.9249  140.7909  143.5725 LP  0  0  0  0  0  0  0  0  0  0  0  0  # atno 17321 bound_to 7965
  140.0495  144.5944  150.7347 LP  0  0  0  0  0  0  0  0  0  0  0  0  # atno 17342 bound_to 10162
  140.7295  143.2673  151.4004 LP  0  0  0  0  0  0  0  0  0  0  0  0  # atno 17343 bound_to 10162
  157.6712  130.9053  150.0045 LP  0  0  0  0  0  0  0  0  0  0  0  0  # atno 17370 bound_to 10713
  156.1307  130.3643  149.9736 LP  0  0  0  0  0  0  0  0  0  0  0  0  # atno 17371 bound_to 10713
  139.8932  135.0129  156.6888 LP  0  0  0  0  0  0  0  0  0  0  0  0  # atno 17394 bound_to 11000
  140.7252  133.9106  155.8173 LP  0  0  0  0  0  0  0  0  0  0  0  0  # atno 17395 bound_to 11000

$$$$
