AV-unprocessed.smi:3237|AV-procd|sdf|12364|dock5
  -GOLD-   2272018223D 1   1.00000     0.00000
 Structure written by MMmdl.
 37 39  0  0  0  0  0  0  0  0  2 V2000
  150.3194  141.8565  154.0489 C   0  0  0  0  0  0  0  0  0  0  0  0
  148.9795  141.4034  153.5800 C   0  0  0  0  0  0  0  0  0  0  0  0
  148.4546  140.1689  153.3205 C   0  0  0  0  0  0  0  0  0  0  0  0
  147.1234  140.4686  152.9083 C   0  0  0  0  0  0  0  0  0  0  0  0
  146.1330  139.5313  152.5169 N   0  0  0  0  0  0  0  0  0  0  0  0
  146.2337  138.1936  152.4411 C   0  0  0  0  0  0  0  0  0  0  0  0
  147.2407  137.5360  152.7029 O   0  0  0  0  0  0  0  0  0  0  0  0
  145.0808  137.6409  152.0373 N   0  0  0  0  0  0  0  0  0  0  0  0
  144.8585  136.2080  151.8773 C   0  0  1  0  0  0  0  0  0  0  0  0
  143.8414  135.6315  152.8534 C   0  0  0  0  0  0  0  0  0  0  0  0
  143.4336  134.3190  152.1729 C   0  0  0  0  0  0  0  0  0  0  0  0
  143.6243  134.5151  150.7134 N   0  3  2  0  0  0  0  0  0  0  0  0
  144.3714  133.4165  150.0629 C   0  0  0  0  0  0  0  0  0  0  0  0
  143.5842  132.7021  148.9903 C   0  0  0  0  0  0  0  0  0  0  0  0
  143.7948  132.0486  150.3390 C   0  0  0  0  0  0  0  0  0  0  0  0
  144.2450  135.8441  150.5229 C   0  0  0  0  0  0  0  0  0  0  0  0
  146.8684  141.7639  152.9139 N   0  0  0  0  0  0  0  0  0  0  0  0
  148.0535  142.3715  153.3447 O   0  0  0  0  0  0  0  0  0  0  0  0
  150.8425  141.0520  154.5661 H   0  0  0  0  0  0  0  0  0  0  0  0
  150.2274  142.6961  154.7382 H   0  0  0  0  0  0  0  0  0  0  0  0
  150.9348  142.1746  153.2074 H   0  0  0  0  0  0  0  0  0  0  0  0
  148.9572  139.2185  153.4158 H   0  0  0  0  0  0  0  0  0  0  0  0
  145.2377  139.9296  152.2749 H   0  0  0  0  0  0  0  0  0  0  0  0
  144.3004  138.2517  151.8426 H   0  0  0  0  0  0  0  0  0  0  0  0
  145.8049  135.6770  152.0018 H   0  0  0  0  0  0  0  0  0  0  0  0
  144.2490  135.4805  153.8535 H   0  0  0  0  0  0  0  0  0  0  0  0
  142.9764  136.2918  152.9357 H   0  0  0  0  0  0  0  0  0  0  0  0
  144.0738  133.5110  152.5312 H   0  0  0  0  0  0  0  0  0  0  0  0
  142.4031  134.0440  152.3990 H   0  0  0  0  0  0  0  0  0  0  0  0
  145.4463  133.5555  149.9577 H   0  0  0  0  0  0  0  0  0  0  0  0
  142.5848  133.0647  148.7566 H   0  0  0  0  0  0  0  0  0  0  0  0
  144.1393  132.2945  148.1477 H   0  0  0  0  0  0  0  0  0  0  0  0
  144.4884  131.2114  150.3842 H   0  0  0  0  0  0  0  0  0  0  0  0
  142.9344  131.9760  151.0021 H   0  0  0  0  0  0  0  0  0  0  0  0
  143.4550  136.5499  150.2621 H   0  0  0  0  0  0  0  0  0  0  0  0
  144.9764  135.8566  149.7133 H   0  0  0  0  0  0  0  0  0  0  0  0
  142.7115  134.5509  150.2826 H   0  0  0  0  0  0  0  0  0  0  0  0
  1  2  1  0  0  0  0
  1 19  1  0  0  0  0
  1 20  1  0  0  0  0
  1 21  1  0  0  0  0
  2 18  1  0  0  0  0
  2  3  2  0  0  0  0
  3  4  1  0  0  0  0
  3 22  1  0  0  0  0
  4  5  1  0  0  0  0
  4 17  2  0  0  0  0
  5  6  1  0  0  0  0
  5 23  1  0  0  0  0
  6  7  2  0  0  0  0
  6  8  1  0  0  0  0
  8  9  1  0  0  0  0
  8 24  1  0  0  0  0
  9 16  1  0  0  0  0
  9 10  1  0  0  0  0
  9 25  1  0  0  0  0
 10 11  1  0  0  0  0
 10 26  1  0  0  0  0
 10 27  1  0  0  0  0
 11 12  1  0  0  0  0
 11 28  1  0  0  0  0
 11 29  1  0  0  0  0
 12 13  1  0  0  0  0
 12 16  1  0  0  0  0
 12 37  1  0  0  0  0
 13 15  1  0  0  0  0
 13 14  1  0  0  0  0
 13 30  1  0  0  0  0
 14 15  1  0  0  0  0
 14 31  1  0  0  0  0
 14 32  1  0  0  0  0
 15 33  1  0  0  0  0
 15 34  1  0  0  0  0
 16 35  1  0  0  0  0
 16 36  1  0  0  0  0
 17 18  1  0  0  0  0
M  CHG  1  12   1
M  END
> <s_m_source_file>
AV-unprocessed.smi

> <i_m_source_file_index>
3237

> <i_lp_mmshare_version>
43012

> <i_f3d_flags>
0

> <s_epik_input>
W0NIM11jMVtjSF1jKG5vMSlbTkhdQyg9TylbTkhdW0NAQEhdMltDSDJdW0NIMl1OKFtDSDJdMilbQ0hdM1tDSDJdW0NIMl0z

> <s_epik_cmdline>
J2VwaWtfcHl0aG9uJywgJy1waCcsICc3LjAnLCAnLXRuJywgJzgnLCAnLW1hJywgJzIwMCcsICctbWV0YWxfYmluZGluZycsICctaW1hZScsICc8aW5maWxlLm1hZT4nLCAnLW9tYWUnLCAnPG91dGZpbGUubWFlPic=

> <r_epik_Ionization_Penalty>
0.000720579

> <r_epik_Ionization_Penalty_Charging>
0.000680516

> <r_epik_Ionization_Penalty_Neutral>
4.00628e-05

> <r_epik_State_Penalty>
0.000432256

> <r_epik_Charging_Adjusted_Penalty>
0.00111277

> <i_epik_Tot_Q>
1

> <i_epik_Tot_abs_Q>
1

> <r_epik_Metal_State_Penalty>
0.0255091

> <b_epik_Metal_Only>
0

> <s_lp_Force_Field>
OPLS_2005

> <r_lp_Energy>
35.6683

> <b_lp_Chiralities_Consistent>
1

> <s_lp_Variant>
AV-unprocessed.smi:3237-2

> <Gold.Version>
5.8.1

> <Gold.Id.Protein>
6NUR|6NUR_protein|mol2

> <Gold.PLP.Fitness>
39.6916

> <Gold.PLP.PLP>
-30.1238

> <Gold.PLP.part.hbond>
-3.7059

> <Gold.PLP.part.metal>
0.0000

> <Gold.PLP.part.buried>
-2.5634

> <Gold.PLP.part.nonpolar>
-26.5698

> <Gold.PLP.part.repulsive>
3.6347

> <Gold.PLP.ligand.clash>
0.0000

> <Gold.PLP.ligand.torsion>
0.8320

> <Gold.PLP.Chemscore.Hbond>
3.3224

> <Gold.PLP.Chemscore.CHOScore>
0.0000

> <Gold.PLP.Chemscore.Metal>
0.0000

> <Gold.Chemscore.Hbonds>
donor molecule, donor type, donor heavy atom, donor atom, acceptor molecule, acceptor atom, score
      L1  H     5    23       P1 10175  1.00
      L1  H     8    24       P1 10171  0.28
      L1  H    12    37       P1 10186  2.00

> <Gold.PLP.Chemscore.Internal.Correction>
1.2647

> <Gold.Rescore>
     Score         DG    S(hbond)    S(metal)    S(lipo)     H(rot)  DE(clash)    DE(int)     intcor
     13.83     -18.04       2.05        0.00      76.32       1.26       2.09       2.12       ----

> <Gold.Chemscore.Fitness>
13.8271

> <Gold.Chemscore.DG>
-18.0422

> <Gold.Chemscore.ZeroCoef>
-5.4800

> <Gold.Chemscore.Hbond>
2.0529

> <Gold.Chemscore.Metal>
0.0000

> <Gold.Chemscore.Lipo>
76.3189

> <Gold.Chemscore.Internal_Hbond>
0.0000

> <Gold.Chemscore.DEClash>
2.0904

> <Gold.Chemscore.DEInternal>
2.1247

> <Gold.Chemscore.Rot>
1.2593

> <Gold.Chemscore.Internal.Correction>
   9.000000E+99

> <Gold.Chemscore.Hbonds>
donor molecule, donor type, donor heavy atom, donor atom, acceptor molecule, acceptor atom, score
      L1  H     5    23       P1 10175  0.90
      L1  H     8    24       P1 10171  0.28
      L1  H    12    37       P1 10186  0.55
      P1  H  8022  8030       L1    18  0.03

> <Gold.Chemscore.Hbond.Weighted>
-6.8566

> <Gold.Chemscore.Metal.Weighted>
-0.0000

> <Gold.Chemscore.Lipo.Weighted>
-8.9293

> <Gold.Chemscore.Internal_Hbond.Weighted>
0.0000

> <Gold.Chemscore.DEClash.Weighted>
2.0904

> <Gold.Chemscore.DEInternal.Weighted>
2.1247

> <Gold.Chemscore.Rot.Weighted>
3.2237

> <Gold.Chemscore.Internal.Correction.Weighted>
   9.000000E+99

> <Gold.Protein.RotatedTorsions>
[ 6907 6896 6895 6894 ] final -147.13 input  -60.11 | X-H torsion
[ 7974 7965 7964 7962 ] final   95.05 input  175.53 | X-H torsion
[ 8008 7997 7996 7995 ] final -125.11 input   59.86 | X-H torsion
[ 10167 10162 10161 10158 ] final -170.55 input  -65.29 | X-H torsion
[ 10718 10713 10712 10709 ] final  -66.95 input   66.30 | X-H torsion
[ 10763 10752 10751 10750 ] final  -50.61 input  -60.55 | X-H torsion
[ 11005 11000 10999 10996 ] final  158.49 input  -57.11 | X-H torsion

> <Gold.Protein.ActiveResidues>
 VAL166  LYS551  ARG553  GLY616  TRP617  ASP618  TYR619  PRO620  LYS621  CYS622 
 ASP623  PHE694  ASN695  SER759  ASP760  ASP761  ALA762  ILE779  LEU786  VAL792 
 PHE793  MET794  SER795  GLU796  ALA797  LYS798  CYS799  TRP800  GLU811  SER814 

> <Gold.Protein.RotatedAtoms>
  151.1513  133.4906  159.2595 H   0  0  0  0  0  0  0  0  0  0  0  0  # atno 6907 bound_to 6896
  151.1551  135.0246  159.8695 H   0  0  0  0  0  0  0  0  0  0  0  0  # atno 6908 bound_to 6896
  152.5463  134.1393  159.8525 H   0  0  0  0  0  0  0  0  0  0  0  0  # atno 6909 bound_to 6896
  145.4573  139.2289  143.3006 H   0  0  0  0  0  0  0  0  0  0  0  0  # atno 7974 bound_to 7965
  155.2079  140.0418  157.2928 H   0  0  0  0  0  0  0  0  0  0  0  0  # atno 8008 bound_to 7997
  154.6031  140.2457  155.7738 H   0  0  0  0  0  0  0  0  0  0  0  0  # atno 8009 bound_to 7997
  156.2333  140.2930  156.0255 H   0  0  0  0  0  0  0  0  0  0  0  0  # atno 8010 bound_to 7997
  139.5855  144.1328  152.1570 H   0  0  0  0  0  0  0  0  0  0  0  0  # atno 10167 bound_to 10162
  156.0584  130.4270  150.1783 H   0  0  0  0  0  0  0  0  0  0  0  0  # atno 10718 bound_to 10713
  154.1132  135.6546  153.4889 H   0  0  0  0  0  0  0  0  0  0  0  0  # atno 10763 bound_to 10752
  153.0250  135.5252  154.7171 H   0  0  0  0  0  0  0  0  0  0  0  0  # atno 10764 bound_to 10752
  154.6357  135.2982  155.0133 H   0  0  0  0  0  0  0  0  0  0  0  0  # atno 10765 bound_to 10752
  140.1870  134.8435  157.2868 H   0  0  0  0  0  0  0  0  0  0  0  0  # atno 11005 bound_to 11000
  146.2471  140.5339  142.8909 LP  0  0  0  0  0  0  0  0  0  0  0  0  # atno 17320 bound_to 7965
  144.8024  140.6238  143.6469 LP  0  0  0  0  0  0  0  0  0  0  0  0  # atno 17321 bound_to 7965
  140.0890  144.5636  150.7068 LP  0  0  0  0  0  0  0  0  0  0  0  0  # atno 17342 bound_to 10162
  140.7127  143.2518  151.4530 LP  0  0  0  0  0  0  0  0  0  0  0  0  # atno 17343 bound_to 10162
  156.9855  130.9877  151.3427 LP  0  0  0  0  0  0  0  0  0  0  0  0  # atno 17370 bound_to 10713
  157.5573  130.8222  149.8221 LP  0  0  0  0  0  0  0  0  0  0  0  0  # atno 17371 bound_to 10713
  140.2203  134.4032  155.7569 LP  0  0  0  0  0  0  0  0  0  0  0  0  # atno 17394 bound_to 11000
  141.2225  133.7162  156.8479 LP  0  0  0  0  0  0  0  0  0  0  0  0  # atno 17395 bound_to 11000

$$$$
