AV-unprocessed.smi:1163|AV-procd|sdf|4922|dock7
  -GOLD-   22720 3503D 1   1.00000     0.00000
 Structure written by MMmdl.
 40 41  0  0  0  0  0  0  0  0  2 V2000
  136.2390  137.1287  155.3616 C   0  0  0  0  0  0  0  0  0  0  0  0
  136.9091  138.3430  155.0411 O   0  0  0  0  0  0  0  0  0  0  0  0
  138.2155  138.2740  154.6025 C   0  0  0  0  0  0  0  0  0  0  0  0
  138.9342  137.0797  154.8093 C   0  0  0  0  0  0  0  0  0  0  0  0
  140.2664  136.9993  154.3609 C   0  0  0  0  0  0  0  0  0  0  0  0
  140.8376  138.1187  153.7104 C   0  0  0  0  0  0  0  0  0  0  0  0
  142.1736  138.1666  153.2291 N   0  0  0  0  0  0  0  0  0  0  0  0
  143.0121  137.1424  152.9971 C   0  0  0  0  0  0  0  0  0  0  0  0
  142.7453  135.9517  153.1576 O   0  0  0  0  0  0  0  0  0  0  0  0
  144.1945  137.5746  152.5366 N   0  0  0  0  0  0  0  0  0  0  0  0
  145.3136  136.7093  152.1784 C   0  0  2  0  0  0  0  0  0  0  0  0
  144.9362  135.5938  151.2048 C   0  0  0  0  0  0  0  0  0  0  0  0
  145.9179  134.4531  151.5252 C   0  0  0  0  0  0  0  0  0  0  0  0
  146.6419  134.8390  152.7613 N   0  3  2  0  0  0  0  0  0  0  0  0
  146.9579  133.7279  153.6913 C   0  0  0  0  0  0  0  0  0  0  0  0
  148.2746  133.0134  153.3397 C   0  0  0  0  0  0  0  0  0  0  0  0
  148.3102  131.8362  153.9622 F   0  0  0  0  0  0  0  0  0  0  0  0
  148.3721  132.7999  152.0280 F   0  0  0  0  0  0  0  0  0  0  0  0
  149.3139  133.7434  153.7446 F   0  0  0  0  0  0  0  0  0  0  0  0
  145.8684  135.9338  153.3730 C   0  0  0  0  0  0  0  0  0  0  0  0
  140.0396  139.2728  153.5687 C   0  0  0  0  0  0  0  0  0  0  0  0
  138.7615  139.3557  153.9940 N   0  0  0  0  0  0  0  0  0  0  0  0
  135.2238  137.3526  155.6891 H   0  0  0  0  0  0  0  0  0  0  0  0
  136.7393  136.5997  156.1742 H   0  0  0  0  0  0  0  0  0  0  0  0
  136.1689  136.4695  154.4950 H   0  0  0  0  0  0  0  0  0  0  0  0
  138.4727  136.2396  155.3068 H   0  0  0  0  0  0  0  0  0  0  0  0
  140.8232  136.0918  154.5363 H   0  0  0  0  0  0  0  0  0  0  0  0
  142.5070  139.0840  152.9713 H   0  0  0  0  0  0  0  0  0  0  0  0
  144.3312  138.5695  152.4308 H   0  0  0  0  0  0  0  0  0  0  0  0
  146.1119  137.3074  151.7337 H   0  0  0  0  0  0  0  0  0  0  0  0
  143.9152  135.2558  151.3891 H   0  0  0  0  0  0  0  0  0  0  0  0
  144.9952  135.9158  150.1645 H   0  0  0  0  0  0  0  0  0  0  0  0
  145.3709  133.5182  151.6564 H   0  0  0  0  0  0  0  0  0  0  0  0
  146.6361  134.3073  150.7177 H   0  0  0  0  0  0  0  0  0  0  0  0
  147.0510  134.1440  154.6955 H   0  0  0  0  0  0  0  0  0  0  0  0
  146.1301  133.0183  153.7266 H   0  0  0  0  0  0  0  0  0  0  0  0
  146.4940  136.5491  154.0209 H   0  0  0  0  0  0  0  0  0  0  0  0
  145.0551  135.5217  153.9738 H   0  0  0  0  0  0  0  0  0  0  0  0
  140.4353  140.1580  153.0922 H   0  0  0  0  0  0  0  0  0  0  0  0
  147.5184  135.2479  152.4694 H   0  0  0  0  0  0  0  0  0  0  0  0
  1  2  1  0  0  0  0
  1 23  1  0  0  0  0
  1 24  1  0  0  0  0
  1 25  1  0  0  0  0
  2  3  1  0  0  0  0
  3 22  1  0  0  0  0
  3  4  2  0  0  0  0
  4  5  1  0  0  0  0
  4 26  1  0  0  0  0
  5  6  2  0  0  0  0
  5 27  1  0  0  0  0
  6  7  1  0  0  0  0
  6 21  1  0  0  0  0
  7  8  1  0  0  0  0
  7 28  1  0  0  0  0
  8  9  2  0  0  0  0
  8 10  1  0  0  0  0
 10 11  1  0  0  0  0
 10 29  1  0  0  0  0
 11 20  1  0  0  0  0
 11 12  1  0  0  0  0
 11 30  1  0  0  0  0
 12 13  1  0  0  0  0
 12 31  1  0  0  0  0
 12 32  1  0  0  0  0
 13 14  1  0  0  0  0
 13 33  1  0  0  0  0
 13 34  1  0  0  0  0
 14 15  1  0  0  0  0
 14 20  1  0  0  0  0
 14 40  1  0  0  0  0
 15 16  1  0  0  0  0
 15 35  1  0  0  0  0
 15 36  1  0  0  0  0
 16 17  1  0  0  0  0
 16 18  1  0  0  0  0
 16 19  1  0  0  0  0
 20 37  1  0  0  0  0
 20 38  1  0  0  0  0
 21 22  2  0  0  0  0
 21 39  1  0  0  0  0
M  CHG  1  14   1
M  END
> <s_m_source_file>
AV-unprocessed.smi

> <i_m_source_file_index>
1163

> <i_lp_mmshare_version>
43012

> <i_f3d_flags>
0

> <s_epik_input>
W0NIM11PYzFbY0hdW2NIXWMoW2NIXW4xKVtOSF1DKD1PKVtOSF1bQ0BASF0yW0NIMl1bQ0gyXU4oW0NIMl0yKVtDSDJdQyhGKShGKUY=

> <s_epik_cmdline>
J2VwaWtfcHl0aG9uJywgJy1waCcsICc3LjAnLCAnLXRuJywgJzgnLCAnLW1hJywgJzIwMCcsICctbWV0YWxfYmluZGluZycsICctaW1hZScsICc8aW5maWxlLm1hZT4nLCAnLW9tYWUnLCAnPG91dGZpbGUubWFlPic=

> <r_lp_tautomer_probability>
1

> <r_epik_Ionization_Penalty>
1.12054

> <r_epik_Ionization_Penalty_Charging>
1.12047

> <r_epik_Ionization_Penalty_Neutral>
7.20346e-05

> <r_epik_State_Penalty>
1.17927

> <r_epik_Charging_Adjusted_Penalty>
2.29974

> <i_epik_Tot_Q>
1

> <i_epik_Tot_abs_Q>
1

> <r_epik_Metal_State_Penalty>
1.17928

> <b_epik_Metal_Only>
0

> <s_lp_Force_Field>
OPLS_2005

> <r_lp_Energy>
30.0061

> <b_lp_Chiralities_Consistent>
1

> <s_lp_Variant>
AV-unprocessed.smi:1163-3

> <Gold.Version>
5.8.1

> <Gold.Id.Protein>
6NUR|6NUR_protein|mol2

> <Gold.PLP.Fitness>
49.8407

> <Gold.PLP.PLP>
-36.5376

> <Gold.PLP.part.hbond>
-4.0000

> <Gold.PLP.part.metal>
0.0000

> <Gold.PLP.part.buried>
-0.6888

> <Gold.PLP.part.nonpolar>
-32.5823

> <Gold.PLP.part.repulsive>
0.3230

> <Gold.PLP.ligand.clash>
0.0000

> <Gold.PLP.ligand.torsion>
0.8361

> <Gold.PLP.Chemscore.Hbond>
4.0000

> <Gold.PLP.Chemscore.CHOScore>
0.8266

> <Gold.PLP.Chemscore.Metal>
0.0000

> <Gold.Chemscore.Hbonds>
donor molecule, donor type, donor heavy atom, donor atom, acceptor molecule, acceptor atom, score
      L1  H     7    28       P1 10175  1.00
      L1  H    10    29       P1 10175  1.00
      L1  H    14    40       P1  7948  2.00
      L1  C    21    39       P1 10160  0.90

> <Gold.PLP.Chemscore.Internal.Correction>
0.4956

> <Gold.Rescore>
     Score         DG    S(hbond)    S(metal)    S(lipo)     H(rot)  DE(clash)    DE(int)     intcor
     13.80     -17.99       2.95        0.00      59.43       1.68       1.07       3.12       ----

> <Gold.Chemscore.Fitness>
13.7997

> <Gold.Chemscore.DG>
-17.9925

> <Gold.Chemscore.ZeroCoef>
-5.4800

> <Gold.Chemscore.Hbond>
2.9504

> <Gold.Chemscore.Metal>
0.0000

> <Gold.Chemscore.Lipo>
59.4287

> <Gold.Chemscore.Internal_Hbond>
0.0000

> <Gold.Chemscore.DEClash>
1.0693

> <Gold.Chemscore.DEInternal>
3.1235

> <Gold.Chemscore.Rot>
1.6778

> <Gold.Chemscore.Internal.Correction>
   9.000000E+99

> <Gold.Chemscore.Hbonds>
donor molecule, donor type, donor heavy atom, donor atom, acceptor molecule, acceptor atom, score
      L1  H     7    28       P1 10175  1.00
      L1  H    10    29       P1 10175  0.93
      L1  H    14    40       P1  7948  1.00

> <Gold.Chemscore.Hbond.Weighted>
-9.8544

> <Gold.Chemscore.Metal.Weighted>
-0.0000

> <Gold.Chemscore.Lipo.Weighted>
-6.9532

> <Gold.Chemscore.Internal_Hbond.Weighted>
0.0000

> <Gold.Chemscore.DEClash.Weighted>
1.0693

> <Gold.Chemscore.DEInternal.Weighted>
3.1235

> <Gold.Chemscore.Rot.Weighted>
4.2951

> <Gold.Chemscore.Internal.Correction.Weighted>
   9.000000E+99

> <Gold.Protein.RotatedTorsions>
[ 6907 6896 6895 6894 ] final -136.95 input  -60.11 | X-H torsion
[ 7974 7965 7964 7962 ] final  -75.00 input  175.53 | X-H torsion
[ 8008 7997 7996 7995 ] final   23.53 input   59.86 | X-H torsion
[ 10167 10162 10161 10158 ] final   24.32 input  -65.29 | X-H torsion
[ 10718 10713 10712 10709 ] final  152.53 input   66.30 | X-H torsion
[ 10763 10752 10751 10750 ] final   65.52 input  -60.55 | X-H torsion
[ 11005 11000 10999 10996 ] final   -3.89 input  -57.11 | X-H torsion

> <Gold.Protein.ActiveResidues>
 VAL166  LYS551  ARG553  GLY616  TRP617  ASP618  TYR619  PRO620  LYS621  CYS622 
 ASP623  PHE694  ASN695  SER759  ASP760  ASP761  ALA762  ILE779  LEU786  VAL792 
 PHE793  MET794  SER795  GLU796  ALA797  LYS798  CYS799  TRP800  GLU811  SER814 

> <Gold.Protein.RotatedAtoms>
  151.0164  133.5917  159.2676 H   0  0  0  0  0  0  0  0  0  0  0  0  # atno 6907 bound_to 6896
  151.3050  135.0778  159.9262 H   0  0  0  0  0  0  0  0  0  0  0  0  # atno 6908 bound_to 6896
  152.5312  133.9839  159.7873 H   0  0  0  0  0  0  0  0  0  0  0  0  # atno 6909 bound_to 6896
  145.6317  140.9336  143.1083 H   0  0  0  0  0  0  0  0  0  0  0  0  # atno 7974 bound_to 7965
  154.9824  140.3103  155.4941 H   0  0  0  0  0  0  0  0  0  0  0  0  # atno 8008 bound_to 7997
  156.2951  140.2264  156.4863 H   0  0  0  0  0  0  0  0  0  0  0  0  # atno 8009 bound_to 7997
  154.7777  140.0448  157.1091 H   0  0  0  0  0  0  0  0  0  0  0  0  # atno 8010 bound_to 7997
  140.5198  144.0022  150.6411 H   0  0  0  0  0  0  0  0  0  0  0  0  # atno 10167 bound_to 10162
  157.2565  131.0789  151.1694 H   0  0  0  0  0  0  0  0  0  0  0  0  # atno 10718 bound_to 10713
  153.0100  135.5354  154.6679 H   0  0  0  0  0  0  0  0  0  0  0  0  # atno 10763 bound_to 10752
  154.5871  135.2855  155.0675 H   0  0  0  0  0  0  0  0  0  0  0  0  # atno 10764 bound_to 10752
  154.1782  135.6520  153.5080 H   0  0  0  0  0  0  0  0  0  0  0  0  # atno 10765 bound_to 10752
  140.6742  133.9209  155.8514 H   0  0  0  0  0  0  0  0  0  0  0  0  # atno 11005 bound_to 11000
  144.7191  139.8092  143.7388 LP  0  0  0  0  0  0  0  0  0  0  0  0  # atno 17320 bound_to 7965
  146.1351  139.4395  143.0144 LP  0  0  0  0  0  0  0  0  0  0  0  0  # atno 17321 bound_to 7965
  140.3368  143.3044  152.0630 LP  0  0  0  0  0  0  0  0  0  0  0  0  # atno 17342 bound_to 10162
  139.4920  144.6471  151.6755 LP  0  0  0  0  0  0  0  0  0  0  0  0  # atno 17343 bound_to 10162
  157.3221  130.6942  149.6275 LP  0  0  0  0  0  0  0  0  0  0  0  0  # atno 17370 bound_to 10713
  155.9665  130.4332  150.4997 LP  0  0  0  0  0  0  0  0  0  0  0  0  # atno 17371 bound_to 10713
  141.0368  134.0678  157.3950 LP  0  0  0  0  0  0  0  0  0  0  0  0  # atno 17394 bound_to 11000
  139.8972  135.0149  156.7087 LP  0  0  0  0  0  0  0  0  0  0  0  0  # atno 17395 bound_to 11000

$$$$
