AV-unprocessed.smi:1610|AV-procd|sdf|6472|dock4
  -GOLD-   22720 7133D 1   1.00000     0.00000
 Structure written by MMmdl.
 43 44  0  0  0  0  0  0  0  0  2 V2000
  143.2293  144.5383  154.3267 C   0  0  0  0  0  0  0  0  0  0  0  0
  143.0072  143.6357  155.9107 S   0  0  0  0  0  0  0  0  0  0  0  0
  142.4119  144.6053  156.8442 O   0  0  0  0  0  0  0  0  0  0  0  0
  142.2123  142.4418  155.5817 O   0  0  0  0  0  0  0  0  0  0  0  0
  144.5494  143.2869  156.2681 N   0  5  0  0  0  0  0  0  0  0  0  0
  145.1425  142.0373  155.8131 C   0  0  0  0  0  0  0  0  0  0  0  0
  146.1235  141.5005  156.8918 C   0  0  0  0  0  0  0  0  0  0  0  0
  147.0187  140.3313  156.3953 C   0  0  0  0  0  0  0  0  0  0  0  0
  147.7719  140.7433  155.1927 N   0  0  0  0  0  0  0  0  0  0  0  0
  149.0646  141.1500  155.1462 C   0  0  0  0  0  0  0  0  0  0  0  0
  149.6749  141.3266  154.0908 O   0  0  0  0  0  0  0  0  0  0  0  0
  149.6137  141.4042  156.3472 N   0  0  0  0  0  0  0  0  0  0  0  0
  150.8713  142.1146  156.5715 C   0  0  0  0  0  0  0  0  0  0  0  0
  151.3565  141.9653  158.0287 C   0  0  0  0  0  0  0  0  0  0  0  0
  151.3927  143.2664  158.8197 C   0  0  0  0  0  0  0  0  0  0  0  0
  151.9664  143.3265  160.1077 C   0  0  0  0  0  0  0  0  0  0  0  0
  152.0136  144.5657  160.7747 C   0  0  0  0  0  0  0  0  0  0  0  0
  151.4697  145.6952  160.1319 C   0  0  0  0  0  0  0  0  0  0  0  0
  150.8953  145.6465  158.9111 N   0  0  0  0  0  0  0  0  0  0  0  0
  150.8647  144.4565  158.2739 C   0  0  0  0  0  0  0  0  0  0  0  0
  146.8237  141.0282  154.1018 C   0  0  0  0  0  0  0  0  0  0  0  0
  145.9230  142.2384  154.4821 C   0  0  0  0  0  0  0  0  0  0  0  0
  142.2566  144.8565  153.9534 H   0  0  0  0  0  0  0  0  0  0  0  0
  143.7015  143.8806  153.5975 H   0  0  0  0  0  0  0  0  0  0  0  0
  143.8593  145.4119  154.4917 H   0  0  0  0  0  0  0  0  0  0  0  0
  144.3864  141.2686  155.6490 H   0  0  0  0  0  0  0  0  0  0  0  0
  146.7764  142.3079  157.2220 H   0  0  0  0  0  0  0  0  0  0  0  0
  145.5640  141.1855  157.7732 H   0  0  0  0  0  0  0  0  0  0  0  0
  147.6643  139.9948  157.2065 H   0  0  0  0  0  0  0  0  0  0  0  0
  146.4092  139.4584  156.1521 H   0  0  0  0  0  0  0  0  0  0  0  0
  149.0499  141.2178  157.1637 H   0  0  0  0  0  0  0  0  0  0  0  0
  151.6264  141.7300  155.8857 H   0  0  0  0  0  0  0  0  0  0  0  0
  150.7661  143.1748  156.3376 H   0  0  0  0  0  0  0  0  0  0  0  0
  150.7015  141.2631  158.5458 H   0  0  0  0  0  0  0  0  0  0  0  0
  152.3505  141.5177  158.0433 H   0  0  0  0  0  0  0  0  0  0  0  0
  152.3837  142.4441  160.5695 H   0  0  0  0  0  0  0  0  0  0  0  0
  152.4631  144.6510  161.7526 H   0  0  0  0  0  0  0  0  0  0  0  0
  151.4940  146.6623  160.6120 H   0  0  0  0  0  0  0  0  0  0  0  0
  150.4137  144.4597  157.2928 H   0  0  0  0  0  0  0  0  0  0  0  0
  147.3335  141.2371  153.1604 H   0  0  0  0  0  0  0  0  0  0  0  0
  146.2193  140.1403  153.9038 H   0  0  0  0  0  0  0  0  0  0  0  0
  145.2246  142.4338  153.6683 H   0  0  0  0  0  0  0  0  0  0  0  0
  146.5534  143.1261  154.5595 H   0  0  0  0  0  0  0  0  0  0  0  0
  1  2  1  0  0  0  0
  1 23  1  0  0  0  0
  1 24  1  0  0  0  0
  1 25  1  0  0  0  0
  2  3  2  0  0  0  0
  2  4  2  0  0  0  0
  2  5  1  0  0  0  0
  5  6  1  0  0  0  0
  6 22  1  0  0  0  0
  6  7  1  0  0  0  0
  6 26  1  0  0  0  0
  7  8  1  0  0  0  0
  7 27  1  0  0  0  0
  7 28  1  0  0  0  0
  8  9  1  0  0  0  0
  8 29  1  0  0  0  0
  8 30  1  0  0  0  0
  9 10  1  0  0  0  0
  9 21  1  0  0  0  0
 10 11  2  0  0  0  0
 10 12  1  0  0  0  0
 12 13  1  0  0  0  0
 12 31  1  0  0  0  0
 13 14  1  0  0  0  0
 13 32  1  0  0  0  0
 13 33  1  0  0  0  0
 14 15  1  0  0  0  0
 14 34  1  0  0  0  0
 14 35  1  0  0  0  0
 15 20  1  0  0  0  0
 15 16  2  0  0  0  0
 16 17  1  0  0  0  0
 16 36  1  0  0  0  0
 17 18  2  0  0  0  0
 17 37  1  0  0  0  0
 18 19  1  0  0  0  0
 18 38  1  0  0  0  0
 19 20  2  0  0  0  0
 20 39  1  0  0  0  0
 21 22  1  0  0  0  0
 21 40  1  0  0  0  0
 21 41  1  0  0  0  0
 22 42  1  0  0  0  0
 22 43  1  0  0  0  0
M  CHG  1   5  -1
M  END
> <s_m_source_file>
AV-unprocessed.smi

> <i_m_source_file_index>
1610

> <i_lp_mmshare_version>
43012

> <i_f3d_flags>
0

> <s_epik_input>
W0NIM11TKD1PKSg9TylbTkhdW0NIXTFbQ0gyXVtDSDJdTihbQ0gyXVtDSDJdMSlDKD1PKVtOSF1bQ0gyXVtDSDJdYzJbY0hdW2NIXVtjSF1uW2NIXTI=

> <s_epik_cmdline>
J2VwaWtfcHl0aG9uJywgJy1waCcsICc3LjAnLCAnLXRuJywgJzgnLCAnLW1hJywgJzIwMCcsICctbWV0YWxfYmluZGluZycsICctaW1hZScsICc8aW5maWxlLm1hZT4nLCAnLW9tYWUnLCAnPG91dGZpbGUubWFlPic=

> <r_epik_Ionization_Penalty>
6.72257

> <r_epik_Ionization_Penalty_Charging>
6.70803

> <r_epik_Ionization_Penalty_Neutral>
0.0145361

> <r_epik_State_Penalty>
6.71933

> <r_epik_Charging_Adjusted_Penalty>
13.4274

> <i_epik_Tot_Q>
-1

> <i_epik_Tot_abs_Q>
1

> <r_epik_Metal_State_Penalty>
2.65475

> <b_epik_Metal_Only>
1

> <s_lp_Force_Field>
OPLS_2005

> <r_lp_Energy>
25.1746

> <b_lp_Chiralities_Consistent>
1

> <s_lp_Variant>
AV-unprocessed.smi:1610-3

> <Gold.Version>
5.8.1

> <Gold.Id.Protein>
6NUR|6NUR_protein|mol2

> <Gold.PLP.Fitness>
47.1399

> <Gold.PLP.PLP>
-43.0467

> <Gold.PLP.part.hbond>
-3.0925

> <Gold.PLP.part.metal>
0.0000

> <Gold.PLP.part.buried>
-4.1967

> <Gold.PLP.part.nonpolar>
-35.4266

> <Gold.PLP.part.repulsive>
0.6745

> <Gold.PLP.ligand.clash>
0.0000

> <Gold.PLP.ligand.torsion>
1.5139

> <Gold.PLP.Chemscore.Hbond>
0.9920

> <Gold.PLP.Chemscore.CHOScore>
1.0000

> <Gold.PLP.Chemscore.Metal>
0.0000

> <Gold.Chemscore.Hbonds>
donor molecule, donor type, donor heavy atom, donor atom, acceptor molecule, acceptor atom, score
      P1  H  7989  7998       L1    11  0.29
      P1  H  8011  8017       L1    11  0.64
      L1  C    20    39       P1  8028  1.00

> <Gold.PLP.Chemscore.Internal.Correction>
1.1451

> <Gold.Rescore>
     Score         DG    S(hbond)    S(metal)    S(lipo)     H(rot)  DE(clash)    DE(int)     intcor
     13.83     -15.63       0.93        0.00      96.96       1.68       0.11       1.70       ----

> <Gold.Chemscore.Fitness>
13.8292

> <Gold.Chemscore.DG>
-15.6318

> <Gold.Chemscore.ZeroCoef>
-5.4800

> <Gold.Chemscore.Hbond>
0.9315

> <Gold.Chemscore.Metal>
0.0000

> <Gold.Chemscore.Lipo>
96.9636

> <Gold.Chemscore.Internal_Hbond>
0.0000

> <Gold.Chemscore.DEClash>
0.1072

> <Gold.Chemscore.DEInternal>
1.6954

> <Gold.Chemscore.Rot>
1.6813

> <Gold.Chemscore.Internal.Correction>
   9.000000E+99

> <Gold.Chemscore.Hbonds>
donor molecule, donor type, donor heavy atom, donor atom, acceptor molecule, acceptor atom, score
      P1  H  7989  7998       L1    11  0.28
      P1  H  8011  8017       L1    11  0.61

> <Gold.Chemscore.Hbond.Weighted>
-3.1113

> <Gold.Chemscore.Metal.Weighted>
-0.0000

> <Gold.Chemscore.Lipo.Weighted>
-11.3447

> <Gold.Chemscore.Internal_Hbond.Weighted>
0.0000

> <Gold.Chemscore.DEClash.Weighted>
0.1072

> <Gold.Chemscore.DEInternal.Weighted>
1.6954

> <Gold.Chemscore.Rot.Weighted>
4.3042

> <Gold.Chemscore.Internal.Correction.Weighted>
   9.000000E+99

> <Gold.Protein.RotatedTorsions>
[ 6907 6896 6895 6894 ] final  -52.25 input  -60.11 | X-H torsion
[ 7974 7965 7964 7962 ] final   54.99 input  175.53 | X-H torsion
[ 8008 7997 7996 7995 ] final  -13.02 input   59.86 | X-H torsion
[ 10167 10162 10161 10158 ] final  -44.66 input  -65.29 | X-H torsion
[ 10718 10713 10712 10709 ] final   41.22 input   66.30 | X-H torsion
[ 10763 10752 10751 10750 ] final -168.73 input  -60.55 | X-H torsion
[ 11005 11000 10999 10996 ] final  -64.17 input  -57.11 | X-H torsion

> <Gold.Protein.ActiveResidues>
 VAL166  LYS551  ARG553  GLY616  TRP617  ASP618  TYR619  PRO620  LYS621  CYS622 
 ASP623  PHE694  ASN695  SER759  ASP760  ASP761  ALA762  ILE779  LEU786  VAL792 
 PHE793  MET794  SER795  GLU796  ALA797  LYS798  CYS799  TRP800  GLU811  SER814 

> <Gold.Protein.RotatedAtoms>
  150.8535  134.7867  159.7026 H   0  0  0  0  0  0  0  0  0  0  0  0  # atno 6907 bound_to 6896
  152.4593  134.5217  159.9794 H   0  0  0  0  0  0  0  0  0  0  0  0  # atno 6908 bound_to 6896
  151.5334  133.3407  159.2958 H   0  0  0  0  0  0  0  0  0  0  0  0  # atno 6909 bound_to 6896
  145.9551  139.4007  143.0282 H   0  0  0  0  0  0  0  0  0  0  0  0  # atno 7974 bound_to 7965
  154.5328  140.2261  155.8775 H   0  0  0  0  0  0  0  0  0  0  0  0  # atno 8008 bound_to 7997
  156.1781  140.3106  155.9060 H   0  0  0  0  0  0  0  0  0  0  0  0  # atno 8009 bound_to 7997
  155.3416  140.0451  157.3035 H   0  0  0  0  0  0  0  0  0  0  0  0  # atno 8010 bound_to 7997
  140.6888  143.2919  151.3528 H   0  0  0  0  0  0  0  0  0  0  0  0  # atno 10167 bound_to 10162
  157.3911  130.7807  149.7270 H   0  0  0  0  0  0  0  0  0  0  0  0  # atno 10718 bound_to 10713
  154.6598  135.2923  154.9881 H   0  0  0  0  0  0  0  0  0  0  0  0  # atno 10763 bound_to 10752
  154.0944  135.6586  153.4862 H   0  0  0  0  0  0  0  0  0  0  0  0  # atno 10764 bound_to 10752
  153.0423  135.5227  154.7544 H   0  0  0  0  0  0  0  0  0  0  0  0  # atno 10765 bound_to 10752
  141.1416  133.6662  156.5792 H   0  0  0  0  0  0  0  0  0  0  0  0  # atno 11005 bound_to 11000
  145.8118  140.9722  143.0945 LP  0  0  0  0  0  0  0  0  0  0  0  0  # atno 17320 bound_to 7965
  144.6803  139.9930  143.7484 LP  0  0  0  0  0  0  0  0  0  0  0  0  # atno 17321 bound_to 7965
  139.6271  144.0793  152.2444 LP  0  0  0  0  0  0  0  0  0  0  0  0  # atno 17342 bound_to 10162
  140.0256  144.6120  150.7530 LP  0  0  0  0  0  0  0  0  0  0  0  0  # atno 17343 bound_to 10162
  155.9799  130.4035  150.3562 LP  0  0  0  0  0  0  0  0  0  0  0  0  # atno 17370 bound_to 10713
  157.1678  131.0361  151.2810 LP  0  0  0  0  0  0  0  0  0  0  0  0  # atno 17371 bound_to 10713
  140.3851  134.7489  157.4686 LP  0  0  0  0  0  0  0  0  0  0  0  0  # atno 17394 bound_to 11000
  140.0608  134.5999  155.8751 LP  0  0  0  0  0  0  0  0  0  0  0  0  # atno 17395 bound_to 11000

$$$$
