AV-unprocessed.smi:1961|AV-procd|sdf|7920|dock5
  -GOLD-   2272010 83D 1   1.00000     0.00000
 Structure written by MMmdl.
 35 36  0  0  0  0  0  0  0  0  2 V2000
  153.1149  142.5315  162.1319 C   0  0  0  0  0  0  0  0  0  0  0  0
  153.0970  142.6845  160.6038 C   0  0  0  0  0  0  0  0  0  0  0  0
  152.4500  143.9960  160.1356 C   0  0  0  0  0  0  0  0  0  0  0  0
  152.5053  141.4902  159.9232 C   0  0  0  0  0  0  0  0  0  0  0  0
  151.4092  141.5515  159.1608 N   0  0  0  0  0  0  0  0  0  0  0  0
  151.0612  140.3133  158.6416 N   0  0  0  0  0  0  0  0  0  0  0  0
  151.9019  139.3355  159.0066 C   0  0  0  0  0  0  0  0  0  0  0  0
  151.7413  138.0616  158.6122 N   0  5  0  0  0  0  0  0  0  0  0  0
  150.4991  137.5358  158.5148 C   0  0  0  0  0  0  0  0  0  0  0  0
  149.6759  137.7666  157.6259 O   0  0  0  0  0  0  0  0  0  0  0  0
  150.1933  136.6859  159.5055 N   0  0  0  0  0  0  0  0  0  0  0  0
  148.9369  135.9590  159.6500 C   0  0  0  0  0  0  0  0  0  0  0  0
  148.4531  135.9498  161.1095 C   0  0  2  0  0  0  0  0  0  0  0  0
  147.4708  134.8259  161.4301 C   0  0  0  0  0  0  0  0  0  0  0  0
  146.6937  135.3650  162.6216 C   0  0  0  0  0  0  0  0  0  0  0  0
  147.0051  136.8650  162.6236 C   0  0  0  0  0  0  0  0  0  0  0  0
  147.6829  137.1060  161.3988 O   0  0  0  0  0  0  0  0  0  0  0  0
  153.2032  139.8846  160.0616 S   0  0  0  0  0  0  0  0  0  0  0  0
  153.6536  141.6311  162.4292 H   0  0  0  0  0  0  0  0  0  0  0  0
  152.1041  142.4637  162.5355 H   0  0  0  0  0  0  0  0  0  0  0  0
  153.6051  143.3822  162.6060 H   0  0  0  0  0  0  0  0  0  0  0  0
  154.1406  142.7300  160.2899 H   0  0  0  0  0  0  0  0  0  0  0  0
  152.5333  144.1085  159.0542 H   0  0  0  0  0  0  0  0  0  0  0  0
  152.9325  144.8586  160.5957 H   0  0  0  0  0  0  0  0  0  0  0  0
  151.3909  144.0306  160.3930 H   0  0  0  0  0  0  0  0  0  0  0  0
  150.8977  136.5223  160.2097 H   0  0  0  0  0  0  0  0  0  0  0  0
  148.1911  136.4290  159.0085 H   0  0  0  0  0  0  0  0  0  0  0  0
  149.0591  134.9379  159.2855 H   0  0  0  0  0  0  0  0  0  0  0  0
  149.2989  135.9019  161.7984 H   0  0  0  0  0  0  0  0  0  0  0  0
  146.7902  134.6695  160.5920 H   0  0  0  0  0  0  0  0  0  0  0  0
  147.9696  133.8793  161.6398 H   0  0  0  0  0  0  0  0  0  0  0  0
  145.6263  135.1728  162.5103 H   0  0  0  0  0  0  0  0  0  0  0  0
  147.0230  134.9049  163.5539 H   0  0  0  0  0  0  0  0  0  0  0  0
  146.1085  137.4799  162.7033 H   0  0  0  0  0  0  0  0  0  0  0  0
  147.6668  137.1180  163.4534 H   0  0  0  0  0  0  0  0  0  0  0  0
  1  2  1  0  0  0  0
  1 19  1  0  0  0  0
  1 20  1  0  0  0  0
  1 21  1  0  0  0  0
  2  3  1  0  0  0  0
  2  4  1  0  0  0  0
  2 22  1  0  0  0  0
  3 23  1  0  0  0  0
  3 24  1  0  0  0  0
  3 25  1  0  0  0  0
  4 18  1  0  0  0  0
  4  5  2  0  0  0  0
  5  6  1  0  0  0  0
  6  7  2  0  0  0  0
  7  8  1  0  0  0  0
  7 18  1  0  0  0  0
  8  9  1  0  0  0  0
  9 10  2  0  0  0  0
  9 11  1  0  0  0  0
 11 12  1  0  0  0  0
 11 26  1  0  0  0  0
 12 13  1  0  0  0  0
 12 27  1  0  0  0  0
 12 28  1  0  0  0  0
 13 17  1  0  0  0  0
 13 14  1  0  0  0  0
 13 29  1  0  0  0  0
 14 15  1  0  0  0  0
 14 30  1  0  0  0  0
 14 31  1  0  0  0  0
 15 16  1  0  0  0  0
 15 32  1  0  0  0  0
 15 33  1  0  0  0  0
 16 17  1  0  0  0  0
 16 34  1  0  0  0  0
 16 35  1  0  0  0  0
M  CHG  1   8  -1
M  END
> <s_m_source_file>
AV-unprocessed.smi

> <i_m_source_file_index>
1961

> <i_lp_mmshare_version>
43012

> <i_f3d_flags>
0

> <s_epik_input>
W0NIM11bQ0hdKFtDSDNdKWMxbm5jKHMxKVtOSF1DKD1PKVtOSF1bQ0gyXVtDQEBIXTJbQ0gyXVtDSDJdW0NIMl1PMg==

> <s_epik_cmdline>
J2VwaWtfcHl0aG9uJywgJy1waCcsICc3LjAnLCAnLXRuJywgJzgnLCAnLW1hJywgJzIwMCcsICctbWV0YWxfYmluZGluZycsICctaW1hZScsICc8aW5maWxlLm1hZT4nLCAnLW9tYWUnLCAnPG91dGZpbGUubWFlPic=

> <r_lp_tautomer_probability>
1

> <r_epik_Ionization_Penalty>
4.36179

> <r_epik_Ionization_Penalty_Charging>
4.21437

> <r_epik_Ionization_Penalty_Neutral>
0.147417

> <r_epik_State_Penalty>
4.21389

> <r_epik_Charging_Adjusted_Penalty>
8.42826

> <i_epik_Tot_Q>
-1

> <i_epik_Tot_abs_Q>
1

> <r_epik_Metal_State_Penalty>
0.693772

> <b_epik_Metal_Only>
1

> <s_lp_Force_Field>
OPLS_2005

> <r_lp_Energy>
8.68115

> <b_lp_Chiralities_Consistent>
1

> <s_lp_Variant>
AV-unprocessed.smi:1961-3

> <Gold.Version>
5.8.1

> <Gold.Id.Protein>
6NUR|6NUR_protein|mol2

> <Gold.PLP.Fitness>
39.8321

> <Gold.PLP.PLP>
-37.1750

> <Gold.PLP.part.hbond>
-2.5522

> <Gold.PLP.part.metal>
0.0000

> <Gold.PLP.part.buried>
-5.5487

> <Gold.PLP.part.nonpolar>
-28.9805

> <Gold.PLP.part.repulsive>
0.1962

> <Gold.PLP.ligand.clash>
0.0000

> <Gold.PLP.ligand.torsion>
1.4532

> <Gold.PLP.Chemscore.Hbond>
1.8000

> <Gold.PLP.Chemscore.CHOScore>
0.0000

> <Gold.PLP.Chemscore.Metal>
0.0000

> <Gold.Chemscore.Hbonds>
donor molecule, donor type, donor heavy atom, donor atom, acceptor molecule, acceptor atom, score
      P1  H  6931  6943       L1    17  1.00
      P1  H  6934  6947       L1    17  0.82

> <Gold.PLP.Chemscore.Internal.Correction>
0.1633

> <Gold.Rescore>
     Score         DG    S(hbond)    S(metal)    S(lipo)     H(rot)  DE(clash)    DE(int)     intcor
     14.08     -15.88       1.03        0.00      90.66       1.42       0.07       1.73       ----

> <Gold.Chemscore.Fitness>
14.0836

> <Gold.Chemscore.DG>
-15.8793

> <Gold.Chemscore.ZeroCoef>
-5.4800

> <Gold.Chemscore.Hbond>
1.0256

> <Gold.Chemscore.Metal>
0.0000

> <Gold.Chemscore.Lipo>
90.6594

> <Gold.Chemscore.Internal_Hbond>
0.0000

> <Gold.Chemscore.DEClash>
0.0665

> <Gold.Chemscore.DEInternal>
1.7292

> <Gold.Chemscore.Rot>
1.4193

> <Gold.Chemscore.Internal.Correction>
   9.000000E+99

> <Gold.Chemscore.Hbonds>
donor molecule, donor type, donor heavy atom, donor atom, acceptor molecule, acceptor atom, score
      P1  H  6931  6943       L1    17  0.08
      P1  H  6934  6947       L1    17  0.34

> <Gold.Chemscore.Hbond.Weighted>
-3.4255

> <Gold.Chemscore.Metal.Weighted>
-0.0000

> <Gold.Chemscore.Lipo.Weighted>
-10.6071

> <Gold.Chemscore.Internal_Hbond.Weighted>
0.0000

> <Gold.Chemscore.DEClash.Weighted>
0.0665

> <Gold.Chemscore.DEInternal.Weighted>
1.7292

> <Gold.Chemscore.Rot.Weighted>
3.6333

> <Gold.Chemscore.Internal.Correction.Weighted>
   9.000000E+99

> <Gold.Protein.RotatedTorsions>
[ 6907 6896 6895 6894 ] final  -87.63 input  -60.11 | X-H torsion
[ 7974 7965 7964 7962 ] final -131.54 input  175.53 | X-H torsion
[ 8008 7997 7996 7995 ] final -121.76 input   59.86 | X-H torsion
[ 10167 10162 10161 10158 ] final   75.60 input  -65.29 | X-H torsion
[ 10718 10713 10712 10709 ] final   83.56 input   66.30 | X-H torsion
[ 10763 10752 10751 10750 ] final   45.67 input  -60.55 | X-H torsion
[ 11005 11000 10999 10996 ] final  -49.06 input  -57.11 | X-H torsion

> <Gold.Protein.ActiveResidues>
 VAL166  LYS551  ARG553  GLY616  TRP617  ASP618  TYR619  PRO620  LYS621  CYS622 
 ASP623  PHE694  ASN695  SER759  ASP760  ASP761  ALA762  ILE779  LEU786  VAL792 
 PHE793  MET794  SER795  GLU796  ALA797  LYS798  CYS799  TRP800  GLU811  SER814 

> <Gold.Protein.RotatedAtoms>
  150.6867  134.2866  159.4648 H   0  0  0  0  0  0  0  0  0  0  0  0  # atno 6907 bound_to 6896
  152.0775  134.9490  160.0583 H   0  0  0  0  0  0  0  0  0  0  0  0  # atno 6908 bound_to 6896
  152.0856  133.4140  159.4558 H   0  0  0  0  0  0  0  0  0  0  0  0  # atno 6909 bound_to 6896
  144.9370  140.7195  143.4870 H   0  0  0  0  0  0  0  0  0  0  0  0  # atno 7974 bound_to 7965
  155.1532  140.0404  157.2826 H   0  0  0  0  0  0  0  0  0  0  0  0  # atno 8008 bound_to 7997
  154.6389  140.2542  155.7319 H   0  0  0  0  0  0  0  0  0  0  0  0  # atno 8009 bound_to 7997
  156.2522  140.2860  156.0774 H   0  0  0  0  0  0  0  0  0  0  0  0  # atno 8010 bound_to 7997
  140.0013  144.5684  150.7735 H   0  0  0  0  0  0  0  0  0  0  0  0  # atno 10167 bound_to 10162
  157.6881  131.0096  150.2541 H   0  0  0  0  0  0  0  0  0  0  0  0  # atno 10718 bound_to 10713
  152.9821  135.6032  154.3474 H   0  0  0  0  0  0  0  0  0  0  0  0  # atno 10763 bound_to 10752
  154.3166  135.2770  155.2542 H   0  0  0  0  0  0  0  0  0  0  0  0  # atno 10764 bound_to 10752
  154.4727  135.5937  153.6389 H   0  0  0  0  0  0  0  0  0  0  0  0  # atno 10765 bound_to 10752
  141.0737  133.6672  156.3531 H   0  0  0  0  0  0  0  0  0  0  0  0  # atno 11005 bound_to 11000
  145.3051  139.1837  143.4668 LP  0  0  0  0  0  0  0  0  0  0  0  0  # atno 17320 bound_to 7965
  146.3270  140.3048  142.8623 LP  0  0  0  0  0  0  0  0  0  0  0  0  # atno 17321 bound_to 7965
  140.7418  143.2823  151.3564 LP  0  0  0  0  0  0  0  0  0  0  0  0  # atno 17342 bound_to 10162
  139.6270  144.0795  152.2443 LP  0  0  0  0  0  0  0  0  0  0  0  0  # atno 17343 bound_to 10162
  156.3132  130.3775  149.7642 LP  0  0  0  0  0  0  0  0  0  0  0  0  # atno 17370 bound_to 10713
  156.5236  130.8226  151.3212 LP  0  0  0  0  0  0  0  0  0  0  0  0  # atno 17371 bound_to 10713
  140.5619  134.5926  157.5436 LP  0  0  0  0  0  0  0  0  0  0  0  0  # atno 17394 bound_to 11000
  139.9550  134.7551  156.0363 LP  0  0  0  0  0  0  0  0  0  0  0  0  # atno 17395 bound_to 11000

$$$$
