AV-unprocessed.smi:2721|AV-procd|sdf|10500|dock7
  -GOLD-   2272014543D 1   1.00000     0.00000
 Structure written by MMmdl.
 29 30  0  0  0  0  0  0  0  0  2 V2000
  151.7205  138.7255  155.3273 C   0  0  0  0  0  0  0  0  0  0  0  0
  151.4358  139.9571  156.0320 N   0  0  0  0  0  0  0  0  0  0  0  0
  151.5909  140.2375  157.3723 C   0  0  0  0  0  0  0  0  0  0  0  0
  151.1882  141.5288  157.5711 C   0  0  0  0  0  0  0  0  0  0  0  0
  151.1778  142.3301  158.8466 C   0  0  1  0  0  0  0  0  0  0  0  0
  152.5067  142.4592  159.3490 O   0  0  0  0  0  0  0  0  0  0  0  0
  152.5904  143.1197  160.6073 C   0  0  0  0  0  0  0  0  0  0  0  0
  152.0815  144.5613  160.4688 C   0  0  0  0  0  0  0  0  0  0  0  0
  150.6519  144.5656  159.9198 C   0  0  0  0  0  0  0  0  0  0  0  0
  150.5837  143.7431  158.6240 C   0  0  2  0  0  0  0  0  0  0  0  0
  149.1932  143.6762  158.1352 N   0  3  0  0  0  0  0  0  0  0  0  0
  150.8003  141.9563  156.2689 C   0  0  0  0  0  0  0  0  0  0  0  0
  150.9502  141.0157  155.3518 N   0  0  0  0  0  0  0  0  0  0  0  0
  150.5842  141.8075  159.5993 H   0  0  0  0  0  0  0  0  0  0  0  0
  151.1702  144.2540  157.8587 H   0  0  0  0  0  0  0  0  0  0  0  0
  152.2890  138.0511  155.9683 H   0  0  0  0  0  0  0  0  0  0  0  0
  152.3041  138.9359  154.4304 H   0  0  0  0  0  0  0  0  0  0  0  0
  150.7862  138.2413  155.0417 H   0  0  0  0  0  0  0  0  0  0  0  0
  151.9723  139.5040  158.0677 H   0  0  0  0  0  0  0  0  0  0  0  0
  152.0189  142.5727  161.3585 H   0  0  0  0  0  0  0  0  0  0  0  0
  153.6298  143.1196  160.9359 H   0  0  0  0  0  0  0  0  0  0  0  0
  152.1183  145.0696  161.4326 H   0  0  0  0  0  0  0  0  0  0  0  0
  152.7367  145.1166  159.7962 H   0  0  0  0  0  0  0  0  0  0  0  0
  149.9766  144.1439  160.6660 H   0  0  0  0  0  0  0  0  0  0  0  0
  150.3232  145.5904  159.7422 H   0  0  0  0  0  0  0  0  0  0  0  0
  149.1906  143.5986  157.1281 H   0  0  0  0  0  0  0  0  0  0  0  0
  148.7008  144.5148  158.4089 H   0  0  0  0  0  0  0  0  0  0  0  0
  150.4205  142.9203  155.9645 H   0  0  0  0  0  0  0  0  0  0  0  0
  148.7327  142.8715  158.5359 H   0  0  0  0  0  0  0  0  0  0  0  0
  1  2  1  0  0  0  0
  1 16  1  0  0  0  0
  1 17  1  0  0  0  0
  1 18  1  0  0  0  0
  2 13  1  0  0  0  0
  2  3  1  0  0  0  0
  3  4  2  0  0  0  0
  3 19  1  0  0  0  0
  4  5  1  0  0  0  0
  4 12  1  0  0  0  0
  5 14  1  0  0  0  0
  5 10  1  0  0  0  0
  5  6  1  0  0  0  0
  6  7  1  0  0  0  0
  7  8  1  0  0  0  0
  7 20  1  0  0  0  0
  7 21  1  0  0  0  0
  8  9  1  0  0  0  0
  8 22  1  0  0  0  0
  8 23  1  0  0  0  0
  9 10  1  0  0  0  0
  9 24  1  0  0  0  0
  9 25  1  0  0  0  0
 10 15  1  0  0  0  0
 10 11  1  0  0  0  0
 11 26  1  0  0  0  0
 11 27  1  0  0  0  0
 11 29  1  0  0  0  0
 12 13  2  0  0  0  0
 12 28  1  0  0  0  0
M  CHG  1  11   1
M  END
> <s_m_source_file>
AV-unprocessed.smi

> <i_m_source_file_index>
2721

> <i_lp_mmshare_version>
43012

> <i_f3d_flags>
0

> <s_epik_input>
W0NIM11uMVtjSF1jKFtjSF1uMSlbQ0BIXTJPW0NIMl1bQ0gyXVtDSDJdW0NAQEhdMltOSDJd

> <s_epik_cmdline>
J2VwaWtfcHl0aG9uJywgJy1waCcsICc3LjAnLCAnLXRuJywgJzgnLCAnLW1hJywgJzIwMCcsICctbWV0YWxfYmluZGluZycsICctaW1hZScsICc8aW5maWxlLm1hZT4nLCAnLW9tYWUnLCAnPG91dGZpbGUubWFlPic=

> <r_lp_tautomer_probability>
1

> <r_epik_Ionization_Penalty>
0.0061467

> <r_epik_Ionization_Penalty_Charging>
0.00611941

> <r_epik_Ionization_Penalty_Neutral>
2.72888e-05

> <r_epik_State_Penalty>
0.00451057

> <r_epik_Charging_Adjusted_Penalty>
0.01063

> <i_epik_Tot_Q>
1

> <i_epik_Tot_abs_Q>
1

> <r_epik_Metal_State_Penalty>
-0

> <b_epik_Metal_Only>
0

> <s_lp_Force_Field>
OPLS_2005

> <r_lp_Energy>
11.0235

> <b_lp_Chiralities_Consistent>
1

> <s_lp_Variant>
AV-unprocessed.smi:2721-1

> <Gold.Version>
5.8.1

> <Gold.Id.Protein>
6NUR|6NUR_protein|mol2

> <Gold.PLP.Fitness>
41.2557

> <Gold.PLP.PLP>
-28.3936

> <Gold.PLP.part.hbond>
-3.0000

> <Gold.PLP.part.metal>
0.0000

> <Gold.PLP.part.buried>
-2.6979

> <Gold.PLP.part.nonpolar>
-22.7822

> <Gold.PLP.part.repulsive>
0.1085

> <Gold.PLP.ligand.clash>
0.0000

> <Gold.PLP.ligand.torsion>
0.0144

> <Gold.PLP.Chemscore.Hbond>
3.2960

> <Gold.PLP.Chemscore.CHOScore>
1.0000

> <Gold.PLP.Chemscore.Metal>
0.0000

> <Gold.Chemscore.Hbonds>
donor molecule, donor type, donor heavy atom, donor atom, acceptor molecule, acceptor atom, score
      L1  H    11    26       P1  8028  1.44
      L1  H    11    27       P1  8029  1.15
      P1  H  7989  7998       L1    13  0.69
      L1  C    12    28       P1  8028  1.00

> <Gold.PLP.Chemscore.Internal.Correction>
0.0029

> <Gold.Rescore>
     Score         DG    S(hbond)    S(metal)    S(lipo)     H(rot)  DE(clash)    DE(int)     intcor
     16.00     -17.17       1.54        0.00      77.73       1.00       0.14       1.02       ----

> <Gold.Chemscore.Fitness>
16.0039

> <Gold.Chemscore.DG>
-17.1665

> <Gold.Chemscore.ZeroCoef>
-5.4800

> <Gold.Chemscore.Hbond>
1.5424

> <Gold.Chemscore.Metal>
0.0000

> <Gold.Chemscore.Lipo>
77.7325

> <Gold.Chemscore.Internal_Hbond>
0.0000

> <Gold.Chemscore.DEClash>
0.1435

> <Gold.Chemscore.DEInternal>
1.0190

> <Gold.Chemscore.Rot>
1.0000

> <Gold.Chemscore.Internal.Correction>
   9.000000E+99

> <Gold.Chemscore.Hbonds>
donor molecule, donor type, donor heavy atom, donor atom, acceptor molecule, acceptor atom, score
      L1  H    11    26       P1  8028  0.47
      L1  H    11    27       P1  8029  0.37
      P1  H  7989  7998       L1    13  0.44

> <Gold.Chemscore.Hbond.Weighted>
-5.1518

> <Gold.Chemscore.Metal.Weighted>
-0.0000

> <Gold.Chemscore.Lipo.Weighted>
-9.0947

> <Gold.Chemscore.Internal_Hbond.Weighted>
0.0000

> <Gold.Chemscore.DEClash.Weighted>
0.1435

> <Gold.Chemscore.DEInternal.Weighted>
1.0190

> <Gold.Chemscore.Rot.Weighted>
2.5600

> <Gold.Chemscore.Internal.Correction.Weighted>
   9.000000E+99

> <Gold.Protein.RotatedTorsions>
[ 6907 6896 6895 6894 ] final  113.98 input  -60.11 | X-H torsion
[ 7974 7965 7964 7962 ] final -174.52 input  175.53 | X-H torsion
[ 8008 7997 7996 7995 ] final  110.84 input   59.86 | X-H torsion
[ 10167 10162 10161 10158 ] final -142.20 input  -65.29 | X-H torsion
[ 10718 10713 10712 10709 ] final   94.32 input   66.30 | X-H torsion
[ 10763 10752 10751 10750 ] final -148.19 input  -60.55 | X-H torsion
[ 11005 11000 10999 10996 ] final  -95.52 input  -57.11 | X-H torsion

> <Gold.Protein.ActiveResidues>
 VAL166  LYS551  ARG553  GLY616  TRP617  ASP618  TYR619  PRO620  LYS621  CYS622 
 ASP623  PHE694  ASN695  SER759  ASP760  ASP761  ALA762  ILE779  LEU786  VAL792 
 PHE793  MET794  SER795  GLU796  ALA797  LYS798  CYS799  TRP800  GLU811  SER814 

> <Gold.Protein.RotatedAtoms>
  152.4829  133.8300  159.7097 H   0  0  0  0  0  0  0  0  0  0  0  0  # atno 6907 bound_to 6896
  150.8893  133.7256  159.2916 H   0  0  0  0  0  0  0  0  0  0  0  0  # atno 6908 bound_to 6896
  151.4734  135.1051  159.9810 H   0  0  0  0  0  0  0  0  0  0  0  0  # atno 6909 bound_to 6896
  144.7131  140.1458  143.6388 H   0  0  0  0  0  0  0  0  0  0  0  0  # atno 7974 bound_to 7965
  156.2082  140.3031  155.9673 H   0  0  0  0  0  0  0  0  0  0  0  0  # atno 8008 bound_to 7997
  155.2790  140.0437  157.3031 H   0  0  0  0  0  0  0  0  0  0  0  0  # atno 8009 bound_to 7997
  154.5662  140.2335  155.8269 H   0  0  0  0  0  0  0  0  0  0  0  0  # atno 8010 bound_to 7997
  139.8111  143.7701  152.2663 H   0  0  0  0  0  0  0  0  0  0  0  0  # atno 10167 bound_to 10162
  157.6949  131.0508  150.4168 H   0  0  0  0  0  0  0  0  0  0  0  0  # atno 10718 bound_to 10713
  154.8246  135.3341  154.6935 H   0  0  0  0  0  0  0  0  0  0  0  0  # atno 10763 bound_to 10752
  153.7563  135.6935  153.4939 H   0  0  0  0  0  0  0  0  0  0  0  0  # atno 10764 bound_to 10752
  153.2141  135.4472  155.0364 H   0  0  0  0  0  0  0  0  0  0  0  0  # atno 10765 bound_to 10752
  141.1439  133.8032  157.0446 H   0  0  0  0  0  0  0  0  0  0  0  0  # atno 11005 bound_to 11000
  145.9160  139.2516  143.1409 LP  0  0  0  0  0  0  0  0  0  0  0  0  # atno 17320 bound_to 7965
  145.9668  140.8792  143.0183 LP  0  0  0  0  0  0  0  0  0  0  0  0  # atno 17321 bound_to 7965
  139.7850  144.7431  151.0034 LP  0  0  0  0  0  0  0  0  0  0  0  0  # atno 17342 bound_to 10162
  140.7817  143.4501  151.0425 LP  0  0  0  0  0  0  0  0  0  0  0  0  # atno 17343 bound_to 10162
  156.4547  130.4019  149.6614 LP  0  0  0  0  0  0  0  0  0  0  0  0  # atno 17370 bound_to 10713
  156.3750  130.7550  151.2537 LP  0  0  0  0  0  0  0  0  0  0  0  0  # atno 17371 bound_to 10713
  140.0671  134.9723  157.1404 LP  0  0  0  0  0  0  0  0  0  0  0  0  # atno 17394 bound_to 11000
  140.3765  134.2334  155.7174 LP  0  0  0  0  0  0  0  0  0  0  0  0  # atno 17395 bound_to 11000

$$$$
