AV-unprocessed.smi:55|AV-procd|sdf|562|dock1
  -GOLD-   2262016463D 1   1.00000     0.00000
 Structure written by MMmdl.
 31 32  0  0  0  0  0  0  0  0  1 V2000
  149.5923  134.5377  154.3069 C   0  0  0  0  0  0  0  0  0  0  0  0
  148.8210  133.3271  153.8081 C   0  0  0  0  0  0  0  0  0  0  0  0
  147.8937  133.4118  152.8202 C   0  0  0  0  0  0  0  0  0  0  0  0
  147.1733  132.3257  152.3430 N   0  0  0  0  0  0  0  0  0  0  0  0
  146.1512  132.4894  151.2411 C   0  0  1  0  0  0  0  0  0  0  0  0
  144.7777  131.9921  151.6941 C   0  0  0  0  0  0  0  0  0  0  0  0
  143.8652  133.0196  151.0583 C   0  0  1  0  0  0  0  0  0  0  0  0
  142.6404  133.1097  151.7569 O   0  0  0  0  0  0  0  0  0  0  0  0
  144.6984  134.2988  151.1694 C   0  0  2  0  0  0  0  0  0  0  0  0
  144.3172  135.3696  150.1361 C   0  0  0  0  0  0  0  0  0  0  0  0
  145.2355  136.4404  150.1883 O   0  0  0  0  0  0  0  0  0  0  0  0
  146.0308  133.8466  150.9282 O   0  0  0  0  0  0  0  0  0  0  0  0
  147.3860  131.0524  152.9117 C   0  0  0  0  0  0  0  0  0  0  0  0
  146.7692  130.0474  152.5604 O   0  0  0  0  0  0  0  0  0  0  0  0
  148.3403  130.9640  153.9240 N   0  0  0  0  0  0  0  0  0  0  0  0
  149.0939  132.0272  154.4272 C   0  0  0  0  0  0  0  0  0  0  0  0
  149.9081  131.8224  155.3259 O   0  0  0  0  0  0  0  0  0  0  0  0
  146.5243  131.9816  150.3505 H   0  0  0  0  0  0  0  0  0  0  0  0
  143.6856  132.7642  150.0127 H   0  0  0  0  0  0  0  0  0  0  0  0
  144.6280  134.6911  152.1858 H   0  0  0  0  0  0  0  0  0  0  0  0
  148.4980  130.0539  154.3314 H   0  0  0  0  0  0  0  0  0  0  0  0
  149.3208  135.4429  153.7630 H   0  0  0  0  0  0  0  0  0  0  0  0
  150.6650  134.3840  154.1836 H   0  0  0  0  0  0  0  0  0  0  0  0
  149.3896  134.7094  155.3646 H   0  0  0  0  0  0  0  0  0  0  0  0
  147.7064  134.3821  152.3861 H   0  0  0  0  0  0  0  0  0  0  0  0
  144.5957  130.9693  151.3629 H   0  0  0  0  0  0  0  0  0  0  0  0
  144.7108  132.0325  152.7830 H   0  0  0  0  0  0  0  0  0  0  0  0
  142.0039  133.5268  151.1965 H   0  0  0  0  0  0  0  0  0  0  0  0
  144.2740  134.9526  149.1294 H   0  0  0  0  0  0  0  0  0  0  0  0
  143.3304  135.7751  150.3620 H   0  0  0  0  0  0  0  0  0  0  0  0
  144.7586  137.2501  150.0879 H   0  0  0  0  0  0  0  0  0  0  0  0
  1  2  1  0  0  0  0
  1 22  1  0  0  0  0
  1 23  1  0  0  0  0
  1 24  1  0  0  0  0
  2 16  1  0  0  0  0
  2  3  2  0  0  0  0
  3  4  1  0  0  0  0
  3 25  1  0  0  0  0
  4  5  1  0  0  0  0
  4 13  1  0  0  0  0
  5 18  1  0  0  0  0
  5 12  1  0  0  0  0
  5  6  1  0  0  0  0
  6  7  1  0  0  0  0
  6 26  1  0  0  0  0
  6 27  1  0  0  0  0
  7 19  1  0  0  0  0
  7  8  1  0  0  0  0
  7  9  1  0  0  0  0
  8 28  1  0  0  0  0
  9 20  1  0  0  0  0
  9 10  1  0  0  0  0
  9 12  1  0  0  0  0
 10 11  1  0  0  0  0
 10 29  1  0  0  0  0
 10 30  1  0  0  0  0
 11 31  1  0  0  0  0
 13 14  2  0  0  0  0
 13 15  1  0  0  0  0
 15 21  1  0  0  0  0
 15 16  1  0  0  0  0
 16 17  2  0  0  0  0
M  END
> <s_m_source_file>
AV-unprocessed.smi

> <i_m_source_file_index>
55

> <i_lp_mmshare_version>
43012

> <i_f3d_flags>
0

> <s_epik_input>
Tz1jMVtuSF1jKD1PKW4oW2NIXWMxW0NIM10pW0NAQEhdMltDSDJdW0NAQEhdKFtPSF0pW0NAQEhdKE8yKVtDSDJdW09IXQ==

> <s_epik_cmdline>
J2VwaWtfcHl0aG9uJywgJy1waCcsICc3LjAnLCAnLXRuJywgJzgnLCAnLW1hJywgJzIwMCcsICctbWV0YWxfYmluZGluZycsICctaW1hZScsICc8aW5maWxlLm1hZT4nLCAnLW9tYWUnLCAnPG91dGZpbGUubWFlPic=

> <r_lp_tautomer_probability>
0.999537

> <r_epik_Ionization_Penalty>
0.00121888

> <r_epik_Ionization_Penalty_Charging>
0.00121876

> <r_epik_Ionization_Penalty_Neutral>
1.19946e-07

> <r_epik_State_Penalty>
0.000805124

> <r_epik_Charging_Adjusted_Penalty>
0.00202389

> <i_epik_Tot_Q>
0

> <i_epik_Tot_abs_Q>
0

> <r_epik_Metal_State_Penalty>
0.662472

> <b_epik_Metal_Only>
0

> <s_epik_Chemistry_Notes>
This compound contains an acetal/aminal-like group ( X-CH(R)-Y where X, Y are N, S, or O) that may be acid/base labile, releasing an aldehyde.

> <s_lp_Force_Field>
OPLS_2005

> <r_lp_Energy>
25.0544

> <b_lp_Chiralities_Consistent>
1

> <s_lp_Variant>
AV-unprocessed.smi:55-2

> <Gold.Version>
5.8.1

> <Gold.Id.Protein>
6NUR|6NUR_protein|mol2

> <Gold.PLP.Fitness>
39.2943

> <Gold.PLP.PLP>
-30.3870

> <Gold.PLP.part.hbond>
-2.9621

> <Gold.PLP.part.metal>
0.0000

> <Gold.PLP.part.buried>
-2.5352

> <Gold.PLP.part.nonpolar>
-24.5056

> <Gold.PLP.part.repulsive>
0.3349

> <Gold.PLP.ligand.clash>
0.0000

> <Gold.PLP.ligand.torsion>
0.0513

> <Gold.PLP.Chemscore.Hbond>
2.0000

> <Gold.PLP.Chemscore.CHOScore>
1.0000

> <Gold.PLP.Chemscore.Metal>
0.0000

> <Gold.Chemscore.Hbonds>
donor molecule, donor type, donor heavy atom, donor atom, acceptor molecule, acceptor atom, score
      L1  H     8    28       P1 10186  0.81
      L1  H    11    31       P1 10171  1.00
      L1  C     3    25       P1  7948  1.00

> <Gold.PLP.Chemscore.Internal.Correction>
0.0099

> <Gold.Rescore>
     Score         DG    S(hbond)    S(metal)    S(lipo)     H(rot)  DE(clash)    DE(int)     intcor
      8.71     -10.04       1.95        0.00      42.97       2.73       0.10       1.23       ----

> <Gold.Chemscore.Fitness>
8.7102

> <Gold.Chemscore.DG>
-10.0398

> <Gold.Chemscore.ZeroCoef>
-5.4800

> <Gold.Chemscore.Hbond>
1.9489

> <Gold.Chemscore.Metal>
0.0000

> <Gold.Chemscore.Lipo>
42.9695

> <Gold.Chemscore.Internal_Hbond>
0.0000

> <Gold.Chemscore.DEClash>
0.0986

> <Gold.Chemscore.DEInternal>
1.2310

> <Gold.Chemscore.Rot>
2.7253

> <Gold.Chemscore.Internal.Correction>
   9.000000E+99

> <Gold.Chemscore.Hbonds>
donor molecule, donor type, donor heavy atom, donor atom, acceptor molecule, acceptor atom, score
      L1  H     8    28       P1 10186  0.36
      L1  H    11    31       P1 10171  0.99

> <Gold.Chemscore.Hbond.Weighted>
-6.5092

> <Gold.Chemscore.Metal.Weighted>
-0.0000

> <Gold.Chemscore.Lipo.Weighted>
-5.0274

> <Gold.Chemscore.Internal_Hbond.Weighted>
0.0000

> <Gold.Chemscore.DEClash.Weighted>
0.0986

> <Gold.Chemscore.DEInternal.Weighted>
1.2310

> <Gold.Chemscore.Rot.Weighted>
6.9769

> <Gold.Chemscore.Internal.Correction.Weighted>
   9.000000E+99

> <Gold.Protein.RotatedTorsions>
[ 6907 6896 6895 6894 ] final  -39.85 input  -60.11 | X-H torsion
[ 7974 7965 7964 7962 ] final  177.38 input  175.53 | X-H torsion
[ 8008 7997 7996 7995 ] final  -29.76 input   59.86 | X-H torsion
[ 10167 10162 10161 10158 ] final -101.01 input  -65.29 | X-H torsion
[ 10718 10713 10712 10709 ] final  -13.11 input   66.30 | X-H torsion
[ 10763 10752 10751 10750 ] final  -53.64 input  -60.55 | X-H torsion
[ 11005 11000 10999 10996 ] final -176.69 input  -57.11 | X-H torsion

> <Gold.Protein.ActiveResidues>
 VAL166  LYS551  ARG553  GLY616  TRP617  ASP618  TYR619  PRO620  LYS621  CYS622 
 ASP623  PHE694  ASN695  SER759  ASP760  ASP761  ALA762  ILE779  LEU786  VAL792 
 PHE793  MET794  SER795  GLU796  ALA797  LYS798  CYS799  TRP800  GLU811  SER814 

> <Gold.Protein.RotatedAtoms>
  150.9855  134.9201  159.7868 H   0  0  0  0  0  0  0  0  0  0  0  0  # atno 6907 bound_to 6896
  152.5235  134.3353  159.9207 H   0  0  0  0  0  0  0  0  0  0  0  0  # atno 6908 bound_to 6896
  151.3359  133.3940  159.2701 H   0  0  0  0  0  0  0  0  0  0  0  0  # atno 6909 bound_to 6896
  144.7170  140.0238  143.6440 H   0  0  0  0  0  0  0  0  0  0  0  0  # atno 7974 bound_to 7965
  154.4277  140.1809  156.1300 H   0  0  0  0  0  0  0  0  0  0  0  0  # atno 8008 bound_to 7997
  156.0075  140.3354  155.6882 H   0  0  0  0  0  0  0  0  0  0  0  0  # atno 8009 bound_to 7997
  155.6157  140.0654  157.2684 H   0  0  0  0  0  0  0  0  0  0  0  0  # atno 8010 bound_to 7997
  140.2458  143.3506  152.0760 H   0  0  0  0  0  0  0  0  0  0  0  0  # atno 10167 bound_to 10162
  156.6350  130.4912  149.6115 H   0  0  0  0  0  0  0  0  0  0  0  0  # atno 10718 bound_to 10713
  154.1620  135.6473  153.4988 H   0  0  0  0  0  0  0  0  0  0  0  0  # atno 10763 bound_to 10752
  153.0108  135.5363  154.6701 H   0  0  0  0  0  0  0  0  0  0  0  0  # atno 10764 bound_to 10752
  154.6017  135.2944  155.0500 H   0  0  0  0  0  0  0  0  0  0  0  0  # atno 10765 bound_to 10752
  140.4492  134.6359  157.4793 H   0  0  0  0  0  0  0  0  0  0  0  0  # atno 11005 bound_to 11000
  146.0158  139.3209  143.0842 LP  0  0  0  0  0  0  0  0  0  0  0  0  # atno 17320 bound_to 7965
  145.8627  140.9466  143.0692 LP  0  0  0  0  0  0  0  0  0  0  0  0  # atno 17321 bound_to 7965
  139.5062  144.6809  151.6010 LP  0  0  0  0  0  0  0  0  0  0  0  0  # atno 17342 bound_to 10162
  140.6078  143.9492  150.6431 LP  0  0  0  0  0  0  0  0  0  0  0  0  # atno 17343 bound_to 10162
  156.2204  130.6734  151.1362 LP  0  0  0  0  0  0  0  0  0  0  0  0  # atno 17370 bound_to 10713
  157.7188  131.0694  150.6219 LP  0  0  0  0  0  0  0  0  0  0  0  0  # atno 17371 bound_to 10713
  140.0018  134.6825  155.9519 LP  0  0  0  0  0  0  0  0  0  0  0  0  # atno 17394 bound_to 11000
  141.1671  133.6537  156.4519 LP  0  0  0  0  0  0  0  0  0  0  0  0  # atno 17395 bound_to 11000

$$$$
