AV-unprocessed.smi:102|AV-procd|sdf|954|dock4
  -GOLD-   2262017483D 1   1.00000     0.00000
 Structure written by MMmdl.
 44 45  0  0  0  0  0  0  0  0  1 V2000
  147.0372  135.0700  161.9242 C   0  0  0  0  0  0  0  0  0  0  0  0
  147.4275  136.3063  161.1253 C   0  0  0  0  0  0  0  0  0  0  0  0
  147.0903  137.4354  161.4818 O   0  0  0  0  0  0  0  0  0  0  0  0
  148.1496  136.0050  160.0348 O   0  0  0  0  0  0  0  0  0  0  0  0
  148.4643  137.0223  159.0983 C   0  0  0  0  0  0  0  0  0  0  0  0
  149.9775  137.2867  159.1148 C   0  0  1  0  0  0  0  0  0  0  0  0
  150.6577  136.2292  158.4418 O   0  0  0  0  0  0  0  0  0  0  0  0
  150.9795  136.5762  157.1258 C   0  0  1  0  0  0  0  0  0  0  0  0
  150.3113  135.6178  156.1577 N   0  0  0  0  0  0  0  0  0  0  0  0
  149.4231  134.6314  156.5708 C   0  0  0  0  0  0  0  0  0  0  0  0
  148.8172  133.7790  155.7107 C   0  0  0  0  0  0  0  0  0  0  0  0
  147.9686  132.8509  156.1847 F   0  0  0  0  0  0  0  0  0  0  0  0
  149.0809  133.8537  154.2766 C   0  0  0  0  0  0  0  0  0  0  0  0
  148.5768  133.1300  153.4204 O   0  0  0  0  0  0  0  0  0  0  0  0
  149.9923  134.8476  153.9087 N   0  0  0  0  0  0  0  0  0  0  0  0
  150.6246  135.7310  154.7850 C   0  0  0  0  0  0  0  0  0  0  0  0
  151.4123  136.5718  154.3532 O   0  0  0  0  0  0  0  0  0  0  0  0
  150.5606  138.0471  156.9116 C   0  0  1  0  0  0  0  0  0  0  0  0
  149.3535  138.1580  156.1608 O   0  0  0  0  0  0  0  0  0  0  0  0
  148.6838  139.3201  156.1161 C   0  0  0  0  0  0  0  0  0  0  0  0
  147.4598  139.2456  155.2137 C   0  0  0  0  0  0  0  0  0  0  0  0
  148.9795  140.3516  156.7188 O   0  0  0  0  0  0  0  0  0  0  0  0
  150.3423  138.5494  158.3288 C   0  0  2  0  0  0  0  0  0  0  0  0
  151.5442  139.1413  158.8076 O   0  0  0  0  0  0  0  0  0  0  0  0
  151.8764  140.3940  158.4476 C   0  0  0  0  0  0  0  0  0  0  0  0
  153.0461  140.9391  159.2561 C   0  0  0  0  0  0  0  0  0  0  0  0
  151.3263  141.0684  157.5768 O   0  0  0  0  0  0  0  0  0  0  0  0
  150.2106  134.9330  152.9265 H   0  0  0  0  0  0  0  0  0  0  0  0
  146.5933  134.3188  161.2704 H   0  0  0  0  0  0  0  0  0  0  0  0
  146.3121  135.3271  162.6968 H   0  0  0  0  0  0  0  0  0  0  0  0
  147.9154  134.6378  162.4039 H   0  0  0  0  0  0  0  0  0  0  0  0
  148.1368  136.7490  158.0948 H   0  0  0  0  0  0  0  0  0  0  0  0
  147.9239  137.9273  159.3780 H   0  0  0  0  0  0  0  0  0  0  0  0
  150.3166  137.3539  160.1494 H   0  0  0  0  0  0  0  0  0  0  0  0
  152.0518  136.4179  156.9956 H   0  0  0  0  0  0  0  0  0  0  0  0
  149.1909  134.5127  157.6170 H   0  0  0  0  0  0  0  0  0  0  0  0
  151.3720  138.5735  156.4061 H   0  0  0  0  0  0  0  0  0  0  0  0
  147.7328  138.8478  154.2360 H   0  0  0  0  0  0  0  0  0  0  0  0
  147.0246  140.2354  155.0746 H   0  0  0  0  0  0  0  0  0  0  0  0
  146.7051  138.5943  155.6545 H   0  0  0  0  0  0  0  0  0  0  0  0
  149.5405  139.2893  158.3584 H   0  0  0  0  0  0  0  0  0  0  0  0
  153.8844  140.2426  159.2289 H   0  0  0  0  0  0  0  0  0  0  0  0
  152.7505  141.0864  160.2949 H   0  0  0  0  0  0  0  0  0  0  0  0
  153.3788  141.8956  158.8523 H   0  0  0  0  0  0  0  0  0  0  0  0
  1  2  1  0  0  0  0
  1 29  1  0  0  0  0
  1 30  1  0  0  0  0
  1 31  1  0  0  0  0
  2  3  2  0  0  0  0
  2  4  1  0  0  0  0
  4  5  1  0  0  0  0
  5  6  1  0  0  0  0
  5 32  1  0  0  0  0
  5 33  1  0  0  0  0
  6 23  1  0  0  0  0
  6  7  1  0  0  0  0
  6 34  1  0  0  0  0
  7  8  1  0  0  0  0
  8  9  1  0  0  0  0
  8 18  1  0  0  0  0
  8 35  1  0  0  0  0
  9 16  1  0  0  0  0
  9 10  1  0  0  0  0
 10 11  2  0  0  0  0
 10 36  1  0  0  0  0
 11 12  1  0  0  0  0
 11 13  1  0  0  0  0
 13 14  2  0  0  0  0
 13 15  1  0  0  0  0
 15 28  1  0  0  0  0
 15 16  1  0  0  0  0
 16 17  2  0  0  0  0
 18 19  1  0  0  0  0
 18 23  1  0  0  0  0
 18 37  1  0  0  0  0
 19 20  1  0  0  0  0
 20 21  1  0  0  0  0
 20 22  2  0  0  0  0
 21 38  1  0  0  0  0
 21 39  1  0  0  0  0
 21 40  1  0  0  0  0
 23 24  1  0  0  0  0
 23 41  1  0  0  0  0
 24 25  1  0  0  0  0
 25 26  1  0  0  0  0
 25 27  2  0  0  0  0
 26 42  1  0  0  0  0
 26 43  1  0  0  0  0
 26 44  1  0  0  0  0
M  END
> <s_m_source_file>
AV-unprocessed.smi

> <i_m_source_file_index>
102

> <i_lp_mmshare_version>
43012

> <i_f3d_flags>
0

> <s_epik_input>
W0NIM11DKD1PKU9bQ0gyXVtDQEBIXTFPW0NASF0oW0NAQEhdKE9DKD1PKVtDSDNdKVtDQEhdMU9DKD1PKVtDSDNdKW4yW2NIXWMoRiljKD1PKVtuSF1jMj1P

> <s_epik_cmdline>
J2VwaWtfcHl0aG9uJywgJy1waCcsICc3LjAnLCAnLXRuJywgJzgnLCAnLW1hJywgJzIwMCcsICctbWV0YWxfYmluZGluZycsICctaW1hZScsICc8aW5maWxlLm1hZT4nLCAnLW9tYWUnLCAnPG91dGZpbGUubWFlPic=

> <r_lp_tautomer_probability>
0.999537

> <r_epik_Ionization_Penalty>
0.058267

> <r_epik_Ionization_Penalty_Charging>
0.058267

> <r_epik_Ionization_Penalty_Neutral>
6.57791e-16

> <r_epik_State_Penalty>
0.0503774

> <r_epik_Charging_Adjusted_Penalty>
0.108644

> <i_epik_Tot_Q>
0

> <i_epik_Tot_abs_Q>
0

> <r_epik_Metal_State_Penalty>
2.6644

> <b_epik_Metal_Only>
0

> <s_epik_Chemistry_Notes>
This compound has an ester and may undergo hydrolysis at high or low pH. This compound contains an acetal/aminal-like group ( X-CH(R)-Y where X, Y are N, S, or O) that may be acid/base labile, releasing an aldehyde.

> <s_lp_Force_Field>
OPLS_2005

> <r_lp_Energy>
14.5716

> <b_lp_Chiralities_Consistent>
1

> <s_lp_Variant>
AV-unprocessed.smi:102-10

> <Gold.Version>
5.8.1

> <Gold.Id.Protein>
6NUR|6NUR_protein|mol2

> <Gold.PLP.Fitness>
39.2687

> <Gold.PLP.PLP>
-30.3848

> <Gold.PLP.part.hbond>
-5.9928

> <Gold.PLP.part.metal>
0.0000

> <Gold.PLP.part.buried>
-4.4907

> <Gold.PLP.part.nonpolar>
-20.8103

> <Gold.PLP.part.repulsive>
0.4196

> <Gold.PLP.ligand.clash>
0.0000

> <Gold.PLP.ligand.torsion>
0.8739

> <Gold.PLP.Chemscore.Hbond>
3.5120

> <Gold.PLP.Chemscore.CHOScore>
0.0000

> <Gold.PLP.Chemscore.Metal>
0.0000

> <Gold.Chemscore.Hbonds>
donor molecule, donor type, donor heavy atom, donor atom, acceptor molecule, acceptor atom, score
      P1  H  6896  6907       L1     7  0.83
      P1  H  6931  6943       L1     3  0.53
      P1  H  6934  6947       L1     3  0.99
      P1  H 10752 10765       L1    17  1.00

> <Gold.PLP.Chemscore.Internal.Correction>
0.0956

> <Gold.Rescore>
     Score         DG    S(hbond)    S(metal)    S(lipo)     H(rot)  DE(clash)    DE(int)     intcor
      6.82      -9.41       2.91        0.00      39.31       4.05       0.04       2.56       ----

> <Gold.Chemscore.Fitness>
6.8163

> <Gold.Chemscore.DG>
-9.4125

> <Gold.Chemscore.ZeroCoef>
-5.4800

> <Gold.Chemscore.Hbond>
2.9062

> <Gold.Chemscore.Metal>
0.0000

> <Gold.Chemscore.Lipo>
39.3082

> <Gold.Chemscore.Internal_Hbond>
0.0000

> <Gold.Chemscore.DEClash>
0.0402

> <Gold.Chemscore.DEInternal>
2.5560

> <Gold.Chemscore.Rot>
4.0520

> <Gold.Chemscore.Internal.Correction>
   9.000000E+99

> <Gold.Chemscore.Hbonds>
donor molecule, donor type, donor heavy atom, donor atom, acceptor molecule, acceptor atom, score
      P1  H  6896  6907       L1     7  0.41
      P1  H  6931  6943       L1     3  0.13
      P1  H  6934  6947       L1     3  0.94
      P1  H 10752 10765       L1    17  0.45

> <Gold.Chemscore.Hbond.Weighted>
-9.7066

> <Gold.Chemscore.Metal.Weighted>
-0.0000

> <Gold.Chemscore.Lipo.Weighted>
-4.5991

> <Gold.Chemscore.Internal_Hbond.Weighted>
0.0000

> <Gold.Chemscore.DEClash.Weighted>
0.0402

> <Gold.Chemscore.DEInternal.Weighted>
2.5560

> <Gold.Chemscore.Rot.Weighted>
10.3732

> <Gold.Chemscore.Internal.Correction.Weighted>
   9.000000E+99

> <Gold.Protein.RotatedTorsions>
[ 6907 6896 6895 6894 ] final  -38.75 input  -60.11 | X-H torsion
[ 7974 7965 7964 7962 ] final -173.81 input  175.53 | X-H torsion
[ 8008 7997 7996 7995 ] final  -99.91 input   59.86 | X-H torsion
[ 10167 10162 10161 10158 ] final -109.88 input  -65.29 | X-H torsion
[ 10718 10713 10712 10709 ] final -169.09 input   66.30 | X-H torsion
[ 10763 10752 10751 10750 ] final  156.50 input  -60.55 | X-H torsion
[ 11005 11000 10999 10996 ] final -153.95 input  -57.11 | X-H torsion

> <Gold.Protein.ActiveResidues>
 VAL166  LYS551  ARG553  GLY616  TRP617  ASP618  TYR619  PRO620  LYS621  CYS622 
 ASP623  PHE694  ASN695  SER759  ASP760  ASP761  ALA762  ILE779  LEU786  VAL792 
 PHE793  MET794  SER795  GLU796  ALA797  LYS798  CYS799  TRP800  GLU811  SER814 

> <Gold.Protein.RotatedAtoms>
  150.9986  134.9304  159.7940 H   0  0  0  0  0  0  0  0  0  0  0  0  # atno 6907 bound_to 6896
  152.5271  134.3185  159.9149 H   0  0  0  0  0  0  0  0  0  0  0  0  # atno 6908 bound_to 6896
  151.3190  133.4006  159.2687 H   0  0  0  0  0  0  0  0  0  0  0  0  # atno 6909 bound_to 6896
  144.7135  140.1565  143.6380 H   0  0  0  0  0  0  0  0  0  0  0  0  # atno 7974 bound_to 7965
  154.8213  140.0444  157.1413 H   0  0  0  0  0  0  0  0  0  0  0  0  # atno 8008 bound_to 7997
  154.9256  140.3033  155.5173 H   0  0  0  0  0  0  0  0  0  0  0  0  # atno 8009 bound_to 7997
  156.2980  140.2332  156.4311 H   0  0  0  0  0  0  0  0  0  0  0  0  # atno 8010 bound_to 7997
  140.1505  143.4203  152.1498 H   0  0  0  0  0  0  0  0  0  0  0  0  # atno 10167 bound_to 10162
  156.7065  130.9217  151.3085 H   0  0  0  0  0  0  0  0  0  0  0  0  # atno 10718 bound_to 10713
  154.1854  135.2797  155.3039 H   0  0  0  0  0  0  0  0  0  0  0  0  # atno 10763 bound_to 10752
  154.5970  135.5541  153.7339 H   0  0  0  0  0  0  0  0  0  0  0  0  # atno 10764 bound_to 10752
  153.0126  135.6382  154.1993 H   0  0  0  0  0  0  0  0  0  0  0  0  # atno 10765 bound_to 10752
  140.7026  134.3921  157.5208 H   0  0  0  0  0  0  0  0  0  0  0  0  # atno 11005 bound_to 11000
  145.9069  139.2463  143.1460 LP  0  0  0  0  0  0  0  0  0  0  0  0  # atno 17320 bound_to 7965
  145.9755  140.8725  143.0141 LP  0  0  0  0  0  0  0  0  0  0  0  0  # atno 17321 bound_to 7965
  139.5428  144.7272  151.4679 LP  0  0  0  0  0  0  0  0  0  0  0  0  # atno 17342 bound_to 10162
  140.6705  143.8303  150.6994 LP  0  0  0  0  0  0  0  0  0  0  0  0  # atno 17343 bound_to 10162
  157.6953  130.9275  150.0626 LP  0  0  0  0  0  0  0  0  0  0  0  0  # atno 17370 bound_to 10713
  156.1691  130.3646  149.9190 LP  0  0  0  0  0  0  0  0  0  0  0  0  # atno 17371 bound_to 10713
  139.8893  134.8834  156.2430 LP  0  0  0  0  0  0  0  0  0  0  0  0  # atno 17394 bound_to 11000
  141.0151  133.7073  156.1176 LP  0  0  0  0  0  0  0  0  0  0  0  0  # atno 17395 bound_to 11000

$$$$
