AV-unprocessed.smi:1795|AV-procd|sdf|7244|dock3
  -GOLD-   22720 8493D 1   1.00000     0.00000
 Structure written by MMmdl.
 48 49  0  0  0  0  0  0  0  0  2 V2000
  148.8740  141.4386  154.6686 C   0  0  0  0  0  0  0  0  0  0  0  0
  149.2442  140.0058  155.0674 C   0  0  1  0  0  0  0  0  0  0  0  0
  148.6193  138.9606  154.1151 C   0  0  0  0  0  0  0  0  0  0  0  0
  149.0699  137.5787  154.4401 N   0  3  2  0  0  0  0  0  0  0  0  0
  148.3839  136.9680  155.6285 C   0  0  2  0  0  0  0  0  0  0  0  0
  148.6742  137.7157  156.9530 C   0  0  0  0  0  0  0  0  0  0  0  0
  148.7734  135.4710  155.7712 C   0  0  0  0  0  0  0  0  0  0  0  0
  147.9232  134.7530  156.7143 N   0  0  0  0  0  0  0  0  0  0  0  0
  148.2006  134.5697  158.0148 C   0  0  0  0  0  0  0  0  0  0  0  0
  149.2031  135.0290  158.5613 O   0  0  0  0  0  0  0  0  0  0  0  0
  147.2115  133.7192  158.8188 C   0  0  0  0  0  0  0  0  0  0  0  0
  147.1364  134.1455  160.2257 N   0  0  0  0  0  0  0  0  0  0  0  0
  147.1511  133.1250  161.1973 C   0  0  0  0  0  0  0  0  0  0  0  0
  147.0806  133.3926  162.5110 C   0  0  0  0  0  0  0  0  0  0  0  0
  146.9911  134.7736  162.9218 C   0  0  0  0  0  0  0  0  0  0  0  0
  146.9692  135.7574  162.0011 C   0  0  0  0  0  0  0  0  0  0  0  0
  147.0350  135.4684  160.5640 C   0  0  0  0  0  0  0  0  0  0  0  0
  146.9929  136.3608  159.7167 O   0  0  0  0  0  0  0  0  0  0  0  0
  150.5581  137.5587  154.4399 C   0  0  0  0  0  0  0  0  0  0  0  0
  151.1285  138.6034  155.4207 C   0  0  1  0  0  0  0  0  0  0  0  0
  152.6608  138.6294  155.4095 C   0  0  0  0  0  0  0  0  0  0  0  0
  150.6630  139.8909  155.0302 O   0  0  0  0  0  0  0  0  0  0  0  0
  147.7938  141.5858  154.6905 H   0  0  0  0  0  0  0  0  0  0  0  0
  149.2236  141.6724  153.6627 H   0  0  0  0  0  0  0  0  0  0  0  0
  149.3208  142.1608  155.3524 H   0  0  0  0  0  0  0  0  0  0  0  0
  148.9010  139.8437  156.0896 H   0  0  0  0  0  0  0  0  0  0  0  0
  147.5355  139.0510  154.1157 H   0  0  0  0  0  0  0  0  0  0  0  0
  148.9277  139.1802  153.0919 H   0  0  0  0  0  0  0  0  0  0  0  0
  147.3086  137.0326  155.4686 H   0  0  0  0  0  0  0  0  0  0  0  0
  148.2064  137.2258  157.8070 H   0  0  0  0  0  0  0  0  0  0  0  0
  148.2752  138.7296  156.9476 H   0  0  0  0  0  0  0  0  0  0  0  0
  149.7445  137.7689  157.1544 H   0  0  0  0  0  0  0  0  0  0  0  0
  148.7354  134.9374  154.8230 H   0  0  0  0  0  0  0  0  0  0  0  0
  149.8031  135.3904  156.1210 H   0  0  0  0  0  0  0  0  0  0  0  0
  147.0754  134.3427  156.3481 H   0  0  0  0  0  0  0  0  0  0  0  0
  146.2250  133.7864  158.3571 H   0  0  0  0  0  0  0  0  0  0  0  0
  147.4914  132.6678  158.7331 H   0  0  0  0  0  0  0  0  0  0  0  0
  147.2154  132.1200  160.8054 H   0  0  0  0  0  0  0  0  0  0  0  0
  147.0888  132.5964  163.2409 H   0  0  0  0  0  0  0  0  0  0  0  0
  146.9429  135.0192  163.9725 H   0  0  0  0  0  0  0  0  0  0  0  0
  146.9032  136.7850  162.3274 H   0  0  0  0  0  0  0  0  0  0  0  0
  150.9611  136.5649  154.6287 H   0  0  0  0  0  0  0  0  0  0  0  0
  150.8943  137.8035  153.4311 H   0  0  0  0  0  0  0  0  0  0  0  0
  150.7950  138.3904  156.4376 H   0  0  0  0  0  0  0  0  0  0  0  0
  153.0719  137.6652  155.7099 H   0  0  0  0  0  0  0  0  0  0  0  0
  153.0428  139.3819  156.0998 H   0  0  0  0  0  0  0  0  0  0  0  0
  153.0456  138.8632  154.4164 H   0  0  0  0  0  0  0  0  0  0  0  0
  148.7962  136.9980  153.6603 H   0  0  0  0  0  0  0  0  0  0  0  0
  1  2  1  0  0  0  0
  1 23  1  0  0  0  0
  1 24  1  0  0  0  0
  1 25  1  0  0  0  0
  2 22  1  0  0  0  0
  2  3  1  0  0  0  0
  2 26  1  0  0  0  0
  3  4  1  0  0  0  0
  3 27  1  0  0  0  0
  3 28  1  0  0  0  0
  4  5  1  0  0  0  0
  4 19  1  0  0  0  0
  4 48  1  0  0  0  0
  5  6  1  0  0  0  0
  5  7  1  0  0  0  0
  5 29  1  0  0  0  0
  6 30  1  0  0  0  0
  6 31  1  0  0  0  0
  6 32  1  0  0  0  0
  7  8  1  0  0  0  0
  7 33  1  0  0  0  0
  7 34  1  0  0  0  0
  8  9  1  0  0  0  0
  8 35  1  0  0  0  0
  9 10  2  0  0  0  0
  9 11  1  0  0  0  0
 11 12  1  0  0  0  0
 11 36  1  0  0  0  0
 11 37  1  0  0  0  0
 12 17  1  0  0  0  0
 12 13  1  0  0  0  0
 13 14  2  0  0  0  0
 13 38  1  0  0  0  0
 14 15  1  0  0  0  0
 14 39  1  0  0  0  0
 15 16  2  0  0  0  0
 15 40  1  0  0  0  0
 16 17  1  0  0  0  0
 16 41  1  0  0  0  0
 17 18  2  0  0  0  0
 19 20  1  0  0  0  0
 19 42  1  0  0  0  0
 19 43  1  0  0  0  0
 20 21  1  0  0  0  0
 20 22  1  0  0  0  0
 20 44  1  0  0  0  0
 21 45  1  0  0  0  0
 21 46  1  0  0  0  0
 21 47  1  0  0  0  0
M  CHG  1   4   1
M  END
> <s_m_source_file>
AV-unprocessed.smi

> <i_m_source_file_index>
1795

> <i_lp_mmshare_version>
43012

> <i_f3d_flags>
0

> <s_epik_input>
W0NIM11bQ0BASF0xW0NIMl1OKFtDSDJdW0NASF0oTzEpW0NIM10pW0NASF0oW0NIM10pW0NIMl1bTkhdQyg9TylbQ0gyXW4yW2NIXVtjSF1bY0hdW2NIXWMyPU8=

> <s_epik_cmdline>
J2VwaWtfcHl0aG9uJywgJy1waCcsICc3LjAnLCAnLXRuJywgJzgnLCAnLW1hJywgJzIwMCcsICctbWV0YWxfYmluZGluZycsICctaW1hZScsICc8aW5maWxlLm1hZT4nLCAnLW9tYWUnLCAnPG91dGZpbGUubWFlPic=

> <r_lp_tautomer_probability>
1

> <r_epik_Ionization_Penalty>
0.656654

> <r_epik_Ionization_Penalty_Charging>
0.656654

> <r_epik_Ionization_Penalty_Neutral>
8.90321e-08

> <r_epik_State_Penalty>
0.675641

> <r_epik_Charging_Adjusted_Penalty>
1.33229

> <i_epik_Tot_Q>
1

> <i_epik_Tot_abs_Q>
1

> <r_epik_Metal_State_Penalty>
0.675691

> <b_epik_Metal_Only>
0

> <s_lp_Force_Field>
OPLS_2005

> <r_lp_Energy>
32.228

> <b_lp_Chiralities_Consistent>
1

> <s_lp_Variant>
AV-unprocessed.smi:1795-8

> <Gold.Version>
5.8.1

> <Gold.Id.Protein>
6NUR|6NUR_protein|mol2

> <Gold.PLP.Fitness>
51.0280

> <Gold.PLP.PLP>
-38.0341

> <Gold.PLP.part.hbond>
-4.0000

> <Gold.PLP.part.metal>
0.0000

> <Gold.PLP.part.buried>
-0.0955

> <Gold.PLP.part.nonpolar>
-34.9653

> <Gold.PLP.part.repulsive>
0.0984

> <Gold.PLP.ligand.clash>
0.0000

> <Gold.PLP.ligand.torsion>
0.8103

> <Gold.PLP.Chemscore.Hbond>
4.8450

> <Gold.PLP.Chemscore.CHOScore>
0.0000

> <Gold.PLP.Chemscore.Metal>
0.0000

> <Gold.Chemscore.Hbonds>
donor molecule, donor type, donor heavy atom, donor atom, acceptor molecule, acceptor atom, score
      L1  H     4    48       P1  7948  2.00
      P1  H  6896  6907       L1    10  0.86
      P1  H  7989  7998       L1    22  0.93

> <Gold.PLP.Chemscore.Internal.Correction>
0.0795

> <Gold.Rescore>
     Score         DG    S(hbond)    S(metal)    S(lipo)     H(rot)  DE(clash)    DE(int)     intcor
     17.63     -20.32       2.91        0.00      85.01       1.89       0.10       2.59       ----

> <Gold.Chemscore.Fitness>
17.6343

> <Gold.Chemscore.DG>
-20.3205

> <Gold.Chemscore.ZeroCoef>
-5.4800

> <Gold.Chemscore.Hbond>
2.9118

> <Gold.Chemscore.Metal>
0.0000

> <Gold.Chemscore.Lipo>
85.0082

> <Gold.Chemscore.Internal_Hbond>
0.0000

> <Gold.Chemscore.DEClash>
0.0969

> <Gold.Chemscore.DEInternal>
2.5892

> <Gold.Chemscore.Rot>
1.8870

> <Gold.Chemscore.Internal.Correction>
   9.000000E+99

> <Gold.Chemscore.Hbonds>
donor molecule, donor type, donor heavy atom, donor atom, acceptor molecule, acceptor atom, score
      L1  H     4    48       P1  7948  0.97
      P1  H  6896  6907       L1    10  0.86
      P1  H  7989  7998       L1    22  0.81

> <Gold.Chemscore.Hbond.Weighted>
-9.7253

> <Gold.Chemscore.Metal.Weighted>
-0.0000

> <Gold.Chemscore.Lipo.Weighted>
-9.9460

> <Gold.Chemscore.Internal_Hbond.Weighted>
0.0000

> <Gold.Chemscore.DEClash.Weighted>
0.0969

> <Gold.Chemscore.DEInternal.Weighted>
2.5892

> <Gold.Chemscore.Rot.Weighted>
4.8308

> <Gold.Chemscore.Internal.Correction.Weighted>
   9.000000E+99

> <Gold.Protein.RotatedTorsions>
[ 6907 6896 6895 6894 ] final  -53.57 input  -60.11 | X-H torsion
[ 7974 7965 7964 7962 ] final   72.82 input  175.53 | X-H torsion
[ 8008 7997 7996 7995 ] final  132.43 input   59.86 | X-H torsion
[ 10167 10162 10161 10158 ] final  -53.16 input  -65.29 | X-H torsion
[ 10718 10713 10712 10709 ] final   78.79 input   66.30 | X-H torsion
[ 10763 10752 10751 10750 ] final -112.88 input  -60.55 | X-H torsion
[ 11005 11000 10999 10996 ] final  133.72 input  -57.11 | X-H torsion

> <Gold.Protein.ActiveResidues>
 VAL166  LYS551  ARG553  GLY616  TRP617  ASP618  TYR619  PRO620  LYS621  CYS622 
 ASP623  PHE694  ASN695  SER759  ASP760  ASP761  ALA762  ILE779  LEU786  VAL792 
 PHE793  MET794  SER795  GLU796  ALA797  LYS798  CYS799  TRP800  GLU811  SER814 

> <Gold.Protein.RotatedAtoms>
  150.8415  134.7709  159.6935 H   0  0  0  0  0  0  0  0  0  0  0  0  # atno 6907 bound_to 6896
  152.4501  134.5408  159.9848 H   0  0  0  0  0  0  0  0  0  0  0  0  # atno 6908 bound_to 6896
  151.5547  133.3374  159.2995 H   0  0  0  0  0  0  0  0  0  0  0  0  # atno 6909 bound_to 6896
  145.7486  139.2750  143.1444 H   0  0  0  0  0  0  0  0  0  0  0  0  # atno 7974 bound_to 7965
  156.2982  140.2546  156.3088 H   0  0  0  0  0  0  0  0  0  0  0  0  # atno 8008 bound_to 7997
  154.9346  140.0397  157.2084 H   0  0  0  0  0  0  0  0  0  0  0  0  # atno 8009 bound_to 7997
  154.8185  140.2856  155.5808 H   0  0  0  0  0  0  0  0  0  0  0  0  # atno 8010 bound_to 7997
  140.6500  143.2559  151.4751 H   0  0  0  0  0  0  0  0  0  0  0  0  # atno 10167 bound_to 10162
  157.6756  130.9884  150.1837 H   0  0  0  0  0  0  0  0  0  0  0  0  # atno 10718 bound_to 10713
  154.8370  135.4474  154.1263 H   0  0  0  0  0  0  0  0  0  0  0  0  # atno 10763 bound_to 10752
  153.2485  135.6924  153.7711 H   0  0  0  0  0  0  0  0  0  0  0  0  # atno 10764 bound_to 10752
  153.7032  135.3368  155.3205 H   0  0  0  0  0  0  0  0  0  0  0  0  # atno 10765 bound_to 10752
  139.9869  134.9529  156.9765 H   0  0  0  0  0  0  0  0  0  0  0  0  # atno 11005 bound_to 11000
  146.0378  140.8195  142.9844 LP  0  0  0  0  0  0  0  0  0  0  0  0  # atno 17320 bound_to 7965
  144.6854  140.2865  143.7284 LP  0  0  0  0  0  0  0  0  0  0  0  0  # atno 17321 bound_to 7965
  139.5714  144.1920  152.1841 LP  0  0  0  0  0  0  0  0  0  0  0  0  # atno 17342 bound_to 10162
  140.1218  144.5367  150.6858 LP  0  0  0  0  0  0  0  0  0  0  0  0  # atno 17343 bound_to 10162
  156.2564  130.3706  149.8177 LP  0  0  0  0  0  0  0  0  0  0  0  0  # atno 17370 bound_to 10713
  156.5935  130.8516  151.3414 LP  0  0  0  0  0  0  0  0  0  0  0  0  # atno 17371 bound_to 10713
  140.4984  134.1122  155.7246 LP  0  0  0  0  0  0  0  0  0  0  0  0  # atno 17394 bound_to 11000
  141.1533  133.8930  157.2043 LP  0  0  0  0  0  0  0  0  0  0  0  0  # atno 17395 bound_to 11000

$$$$
