AV-unprocessed.smi:776|AV-procd|sdf|3700|dock8
  -GOLD-   22720 1123D 1   1.00000     0.00000
 Structure written by MMmdl.
 44 45  0  0  0  0  0  0  0  0  1 V2000
  154.2342  135.5934  157.7033 C   0  0  0  0  0  0  0  0  0  0  0  0
  154.0829  137.0971  157.9783 C   0  0  0  0  0  0  0  0  0  0  0  0
  153.7804  137.4115  159.4514 C   0  0  0  0  0  0  0  0  0  0  0  0
  153.0927  137.7369  157.0535 C   0  0  0  0  0  0  0  0  0  0  0  0
  152.4163  137.0260  156.1570 N   0  0  0  0  0  0  0  0  0  0  0  0
  151.6308  137.9869  155.5049 O   0  0  0  0  0  0  0  0  0  0  0  0
  151.9205  139.1675  156.1021 C   0  0  0  0  0  0  0  0  0  0  0  0
  151.2736  140.4109  155.5913 C   0  0  0  0  0  0  0  0  0  0  0  0
  150.6121  141.2293  156.7117 C   0  0  0  0  0  0  0  0  0  0  0  0
  151.6025  141.7872  157.6252 N   0  0  0  0  0  0  0  0  0  0  0  0
  151.3258  142.5472  158.6985 C   0  0  0  0  0  0  0  0  0  0  0  0
  150.1758  142.8759  158.9902 O   0  0  0  0  0  0  0  0  0  0  0  0
  152.4328  143.0100  159.3334 N   0  0  0  0  0  0  0  0  0  0  0  0
  153.5814  142.1248  159.6017 C   0  0  0  0  0  0  0  0  0  0  0  0
  153.4283  141.5131  161.0085 C   0  0  0  0  0  0  0  0  0  0  0  0
  153.2884  142.6106  162.0798 C   0  0  0  0  0  0  0  0  0  0  0  0
  152.2226  143.6546  161.6961 C   0  0  0  0  0  0  0  0  0  0  0  0
  152.4510  144.1653  160.2583 C   0  0  2  0  0  0  0  0  0  0  0  0
  151.5059  145.3276  159.8865 C   0  0  0  0  0  0  0  0  0  0  0  0
  152.8376  139.0747  157.0616 N   0  0  0  0  0  0  0  0  0  0  0  0
  154.5249  135.4124  156.6680 H   0  0  0  0  0  0  0  0  0  0  0  0
  153.3014  135.0592  157.8870 H   0  0  0  0  0  0  0  0  0  0  0  0
  154.9998  135.1532  158.3425 H   0  0  0  0  0  0  0  0  0  0  0  0
  155.0536  137.5464  157.7635 H   0  0  0  0  0  0  0  0  0  0  0  0
  153.7554  138.4875  159.6260 H   0  0  0  0  0  0  0  0  0  0  0  0
  154.5418  136.9882  160.1069 H   0  0  0  0  0  0  0  0  0  0  0  0
  152.8169  137.0011  159.7557 H   0  0  0  0  0  0  0  0  0  0  0  0
  152.0286  141.0115  155.0828 H   0  0  0  0  0  0  0  0  0  0  0  0
  150.5363  140.1318  154.8374 H   0  0  0  0  0  0  0  0  0  0  0  0
  149.9971  142.0271  156.2916 H   0  0  0  0  0  0  0  0  0  0  0  0
  149.9422  140.5925  157.2902 H   0  0  0  0  0  0  0  0  0  0  0  0
  152.5721  141.5938  157.4213 H   0  0  0  0  0  0  0  0  0  0  0  0
  153.6909  141.3244  158.8690 H   0  0  0  0  0  0  0  0  0  0  0  0
  154.5075  142.6982  159.5409 H   0  0  0  0  0  0  0  0  0  0  0  0
  152.5493  140.8674  161.0316 H   0  0  0  0  0  0  0  0  0  0  0  0
  154.2841  140.8773  161.2370 H   0  0  0  0  0  0  0  0  0  0  0  0
  153.0519  142.1667  163.0473 H   0  0  0  0  0  0  0  0  0  0  0  0
  154.2491  143.1129  162.1991 H   0  0  0  0  0  0  0  0  0  0  0  0
  151.2281  143.2136  161.7789 H   0  0  0  0  0  0  0  0  0  0  0  0
  152.2528  144.4848  162.4025 H   0  0  0  0  0  0  0  0  0  0  0  0
  153.4550  144.5909  160.2119 H   0  0  0  0  0  0  0  0  0  0  0  0
  151.7366  146.2104  160.4831 H   0  0  0  0  0  0  0  0  0  0  0  0
  150.4583  145.0916  160.0718 H   0  0  0  0  0  0  0  0  0  0  0  0
  151.6144  145.6071  158.8380 H   0  0  0  0  0  0  0  0  0  0  0  0
  1  2  1  0  0  0  0
  1 21  1  0  0  0  0
  1 22  1  0  0  0  0
  1 23  1  0  0  0  0
  2  3  1  0  0  0  0
  2  4  1  0  0  0  0
  2 24  1  0  0  0  0
  3 25  1  0  0  0  0
  3 26  1  0  0  0  0
  3 27  1  0  0  0  0
  4 20  1  0  0  0  0
  4  5  2  0  0  0  0
  5  6  1  0  0  0  0
  6  7  1  0  0  0  0
  7  8  1  0  0  0  0
  7 20  2  0  0  0  0
  8  9  1  0  0  0  0
  8 28  1  0  0  0  0
  8 29  1  0  0  0  0
  9 10  1  0  0  0  0
  9 30  1  0  0  0  0
  9 31  1  0  0  0  0
 10 11  1  0  0  0  0
 10 32  1  0  0  0  0
 11 12  2  0  0  0  0
 11 13  1  0  0  0  0
 13 18  1  0  0  0  0
 13 14  1  0  0  0  0
 14 15  1  0  0  0  0
 14 33  1  0  0  0  0
 14 34  1  0  0  0  0
 15 16  1  0  0  0  0
 15 35  1  0  0  0  0
 15 36  1  0  0  0  0
 16 17  1  0  0  0  0
 16 37  1  0  0  0  0
 16 38  1  0  0  0  0
 17 18  1  0  0  0  0
 17 39  1  0  0  0  0
 17 40  1  0  0  0  0
 18 19  1  0  0  0  0
 18 41  1  0  0  0  0
 19 42  1  0  0  0  0
 19 43  1  0  0  0  0
 19 44  1  0  0  0  0
M  END
> <s_m_source_file>
AV-unprocessed.smi

> <i_m_source_file_index>
776

> <i_lp_mmshare_version>
43012

> <i_f3d_flags>
0

> <s_epik_input>
W0NIM11bQ0hdKFtDSDNdKWMxbm9jKG4xKVtDSDJdW0NIMl1bTkhdQyg9TylOMltDSDJdW0NIMl1bQ0gyXVtDSDJdW0NASF0yW0NIM10=

> <s_epik_cmdline>
J2VwaWtfcHl0aG9uJywgJy1waCcsICc3LjAnLCAnLXRuJywgJzgnLCAnLW1hJywgJzIwMCcsICctbWV0YWxfYmluZGluZycsICctaW1hZScsICc8aW5maWxlLm1hZT4nLCAnLW9tYWUnLCAnPG91dGZpbGUubWFlPic=

> <r_lp_tautomer_probability>
1

> <r_epik_Ionization_Penalty>
6.23032e-05

> <r_epik_Ionization_Penalty_Charging>
0

> <r_epik_Ionization_Penalty_Neutral>
6.23032e-05

> <r_epik_State_Penalty>
-0

> <r_epik_Charging_Adjusted_Penalty>
0

> <i_epik_Tot_Q>
0

> <i_epik_Tot_abs_Q>
0

> <r_epik_Metal_State_Penalty>
-0

> <b_epik_Metal_Only>
0

> <s_lp_Force_Field>
OPLS_2005

> <r_lp_Energy>
25.3462

> <b_lp_Chiralities_Consistent>
1

> <s_lp_Variant>
AV-unprocessed.smi:776-2

> <Gold.Version>
5.8.1

> <Gold.Id.Protein>
6NUR|6NUR_protein|mol2

> <Gold.PLP.Fitness>
47.9861

> <Gold.PLP.PLP>
-42.6452

> <Gold.PLP.part.hbond>
-2.4222

> <Gold.PLP.part.metal>
0.0000

> <Gold.PLP.part.buried>
-4.4854

> <Gold.PLP.part.nonpolar>
-35.0079

> <Gold.PLP.part.repulsive>
0.1865

> <Gold.PLP.ligand.clash>
0.0000

> <Gold.PLP.ligand.torsion>
0.4922

> <Gold.PLP.Chemscore.Hbond>
1.9440

> <Gold.PLP.Chemscore.CHOScore>
0.0000

> <Gold.PLP.Chemscore.Metal>
0.0000

> <Gold.Chemscore.Hbonds>
donor molecule, donor type, donor heavy atom, donor atom, acceptor molecule, acceptor atom, score
      P1  H  7997  8008       L1    20  1.00
      P1  H 10752 10765       L1     5  0.93

> <Gold.PLP.Chemscore.Internal.Correction>
0.4932

> <Gold.Rescore>
     Score         DG    S(hbond)    S(metal)    S(lipo)     H(rot)  DE(clash)    DE(int)     intcor
     14.76     -17.83       1.66        0.00      94.11       1.65       0.07       3.00       ----

> <Gold.Chemscore.Fitness>
14.7580

> <Gold.Chemscore.DG>
-17.8344

> <Gold.Chemscore.ZeroCoef>
-5.4800

> <Gold.Chemscore.Hbond>
1.6645

> <Gold.Chemscore.Metal>
0.0000

> <Gold.Chemscore.Lipo>
94.1148

> <Gold.Chemscore.Internal_Hbond>
0.0000

> <Gold.Chemscore.DEClash>
0.0726

> <Gold.Chemscore.DEInternal>
3.0039

> <Gold.Chemscore.Rot>
1.6470

> <Gold.Chemscore.Internal.Correction>
   9.000000E+99

> <Gold.Chemscore.Hbonds>
donor molecule, donor type, donor heavy atom, donor atom, acceptor molecule, acceptor atom, score
      P1  H  7997  8008       L1    20  0.61
      P1  H 10752 10765       L1     5  0.81

> <Gold.Chemscore.Hbond.Weighted>
-5.5594

> <Gold.Chemscore.Metal.Weighted>
-0.0000

> <Gold.Chemscore.Lipo.Weighted>
-11.0114

> <Gold.Chemscore.Internal_Hbond.Weighted>
0.0000

> <Gold.Chemscore.DEClash.Weighted>
0.0726

> <Gold.Chemscore.DEInternal.Weighted>
3.0039

> <Gold.Chemscore.Rot.Weighted>
4.2164

> <Gold.Chemscore.Internal.Correction.Weighted>
   9.000000E+99

> <Gold.Protein.RotatedTorsions>
[ 6907 6896 6895 6894 ] final  -17.15 input  -60.11 | X-H torsion
[ 7974 7965 7964 7962 ] final   -8.11 input  175.53 | X-H torsion
[ 8008 7997 7996 7995 ] final  -56.91 input   59.86 | X-H torsion
[ 10167 10162 10161 10158 ] final  144.34 input  -65.29 | X-H torsion
[ 10718 10713 10712 10709 ] final  179.71 input   66.30 | X-H torsion
[ 10763 10752 10751 10750 ] final -149.01 input  -60.55 | X-H torsion
[ 11005 11000 10999 10996 ] final  100.69 input  -57.11 | X-H torsion

> <Gold.Protein.ActiveResidues>
 VAL166  LYS551  ARG553  GLY616  TRP617  ASP618  TYR619  PRO620  LYS621  CYS622 
 ASP623  PHE694  ASN695  SER759  ASP760  ASP761  ALA762  ILE779  LEU786  VAL792 
 PHE793  MET794  SER795  GLU796  ALA797  LYS798  CYS799  TRP800  GLU811  SER814 

> <Gold.Protein.RotatedAtoms>
  151.2977  135.0760  159.9226 H   0  0  0  0  0  0  0  0  0  0  0  0  # atno 6907 bound_to 6896
  152.5304  133.9866  159.7841 H   0  0  0  0  0  0  0  0  0  0  0  0  # atno 6908 bound_to 6896
  151.0147  133.5881  159.2709 H   0  0  0  0  0  0  0  0  0  0  0  0  # atno 6909 bound_to 6896
  146.2289  140.2420  142.8344 H   0  0  0  0  0  0  0  0  0  0  0  0  # atno 7974 bound_to 7965
  154.4247  140.1119  156.5712 H   0  0  0  0  0  0  0  0  0  0  0  0  # atno 8008 bound_to 7997
  155.6209  140.3495  155.4633 H   0  0  0  0  0  0  0  0  0  0  0  0  # atno 8009 bound_to 7997
  156.0024  140.1202  157.0523 H   0  0  0  0  0  0  0  0  0  0  0  0  # atno 8010 bound_to 7997
  139.4949  144.5979  151.6545 H   0  0  0  0  0  0  0  0  0  0  0  0  # atno 10167 bound_to 10162
  156.8717  130.9786  151.3072 H   0  0  0  0  0  0  0  0  0  0  0  0  # atno 10718 bound_to 10713
  154.8201  135.3320  154.7062 H   0  0  0  0  0  0  0  0  0  0  0  0  # atno 10763 bound_to 10752
  153.7697  135.6926  153.4913 H   0  0  0  0  0  0  0  0  0  0  0  0  # atno 10764 bound_to 10752
  153.2053  135.4501  155.0264 H   0  0  0  0  0  0  0  0  0  0  0  0  # atno 10765 bound_to 10752
  139.8771  134.9151  156.4795 H   0  0  0  0  0  0  0  0  0  0  0  0  # atno 11005 bound_to 11000
  144.9477  140.8146  143.5591 LP  0  0  0  0  0  0  0  0  0  0  0  0  # atno 17320 bound_to 7965
  145.2378  139.2086  143.5009 LP  0  0  0  0  0  0  0  0  0  0  0  0  # atno 17321 bound_to 7965
  140.5621  144.0251  150.6174 LP  0  0  0  0  0  0  0  0  0  0  0  0  # atno 17342 bound_to 10162
  140.3341  143.3060  152.0657 LP  0  0  0  0  0  0  0  0  0  0  0  0  # atno 17343 bound_to 10162
  157.6192  130.8642  149.9080 LP  0  0  0  0  0  0  0  0  0  0  0  0  # atno 17370 bound_to 10713
  156.0723  130.3683  150.0750 LP  0  0  0  0  0  0  0  0  0  0  0  0  # atno 17371 bound_to 10713
  140.8738  133.7969  155.9392 LP  0  0  0  0  0  0  0  0  0  0  0  0  # atno 17394 bound_to 11000
  140.8925  134.2477  157.5086 LP  0  0  0  0  0  0  0  0  0  0  0  0  # atno 17395 bound_to 11000

$$$$
