AV-unprocessed.smi:3141|AV-procd|sdf|11967|dock8
  -GOLD-   2272017363D 1   1.00000     0.00000
 Structure written by MMmdl.
 35 37  0  0  0  0  0  0  0  0  1 V2000
  144.7018  137.4509  152.6633 O   0  0  0  0  0  0  0  0  0  0  0  0
  145.8567  137.0869  152.4398 C   0  0  0  0  0  0  0  0  0  0  0  0
  146.9191  137.9022  152.4490 N   0  0  0  0  0  0  0  0  0  0  0  0
  146.8862  139.2987  152.7391 C   0  0  0  0  0  0  0  0  0  0  0  0
  147.9199  139.8431  153.7009 C   0  0  0  0  0  0  0  0  0  0  0  0
  146.4874  139.7130  154.1389 C   0  0  0  0  0  0  0  0  0  0  0  0
  146.2086  135.8193  152.1800 N   0  0  0  0  0  0  0  0  0  0  0  0
  145.2966  134.6735  152.1519 C   0  0  1  0  0  0  0  0  0  0  0  0
  144.5922  134.5945  150.7801 C   0  0  0  0  0  0  0  0  0  0  0  0
  144.9797  133.2468  150.1557 C   0  0  0  0  0  0  0  0  0  0  0  0
  146.2551  132.8222  150.8791 C   0  0  0  0  0  0  0  0  0  0  0  0
  146.0215  133.3151  152.3101 C   0  0  1  0  0  0  0  0  0  0  0  0
  147.2055  133.3245  153.1637 N   0  0  0  0  0  0  0  0  0  0  0  0
  148.5186  133.0006  152.8323 C   0  0  0  0  0  0  0  0  0  0  0  0
  149.2749  133.2074  153.9633 C   0  0  0  0  0  0  0  0  0  0  0  0
  148.4611  133.6696  154.9935 N   0  0  0  0  0  0  0  0  0  0  0  0
  147.2548  133.7201  154.4438 C   0  0  0  0  0  0  0  0  0  0  0  0
  147.8253  137.5017  152.2554 H   0  0  0  0  0  0  0  0  0  0  0  0
  146.5777  139.9689  151.9378 H   0  0  0  0  0  0  0  0  0  0  0  0
  148.6399  139.1452  154.1241 H   0  0  0  0  0  0  0  0  0  0  0  0
  148.2987  140.8460  153.5144 H   0  0  0  0  0  0  0  0  0  0  0  0
  145.9097  140.6289  154.2450 H   0  0  0  0  0  0  0  0  0  0  0  0
  146.2499  138.9280  154.8545 H   0  0  0  0  0  0  0  0  0  0  0  0
  147.1848  135.6239  152.0131 H   0  0  0  0  0  0  0  0  0  0  0  0
  144.5475  134.7803  152.9388 H   0  0  0  0  0  0  0  0  0  0  0  0
  143.5097  134.6770  150.8821 H   0  0  0  0  0  0  0  0  0  0  0  0
  144.9094  135.4084  150.1259 H   0  0  0  0  0  0  0  0  0  0  0  0
  144.1930  132.5160  150.3490 H   0  0  0  0  0  0  0  0  0  0  0  0
  145.1132  133.3085  149.0754 H   0  0  0  0  0  0  0  0  0  0  0  0
  146.4295  131.7471  150.8270 H   0  0  0  0  0  0  0  0  0  0  0  0
  147.1064  133.3258  150.4209 H   0  0  0  0  0  0  0  0  0  0  0  0
  145.3125  132.6218  152.7670 H   0  0  0  0  0  0  0  0  0  0  0  0
  148.8085  132.6644  151.8485 H   0  0  0  0  0  0  0  0  0  0  0  0
  150.3359  133.0693  154.1104 H   0  0  0  0  0  0  0  0  0  0  0  0
  146.3841  134.0603  154.9851 H   0  0  0  0  0  0  0  0  0  0  0  0
  1  2  2  0  0  0  0
  2  3  1  0  0  0  0
  2  7  1  0  0  0  0
  3  4  1  0  0  0  0
  3 18  1  0  0  0  0
  4  6  1  0  0  0  0
  4  5  1  0  0  0  0
  4 19  1  0  0  0  0
  5  6  1  0  0  0  0
  5 20  1  0  0  0  0
  5 21  1  0  0  0  0
  6 22  1  0  0  0  0
  6 23  1  0  0  0  0
  7  8  1  0  0  0  0
  7 24  1  0  0  0  0
  8 12  1  0  0  0  0
  8  9  1  0  0  0  0
  8 25  1  0  0  0  0
  9 10  1  0  0  0  0
  9 26  1  0  0  0  0
  9 27  1  0  0  0  0
 10 11  1  0  0  0  0
 10 28  1  0  0  0  0
 10 29  1  0  0  0  0
 11 12  1  0  0  0  0
 11 30  1  0  0  0  0
 11 31  1  0  0  0  0
 12 13  1  0  0  0  0
 12 32  1  0  0  0  0
 13 17  1  0  0  0  0
 13 14  1  0  0  0  0
 14 15  2  0  0  0  0
 14 33  1  0  0  0  0
 15 16  1  0  0  0  0
 15 34  1  0  0  0  0
 16 17  2  0  0  0  0
 17 35  1  0  0  0  0
M  END
> <s_m_source_file>
AV-unprocessed.smi

> <i_m_source_file_index>
3141

> <i_lp_mmshare_version>
43012

> <i_f3d_flags>
0

> <s_epik_input>
W0NIMl0xW0NIMl1bQ0hdMVtOSF1DKD1PKVtOSF1bQ0BASF0yW0NIMl1bQ0gyXVtDSDJdW0NASF0ybjNbY0hdW2NIXW5bY0hdMw==

> <s_epik_cmdline>
J2VwaWtfcHl0aG9uJywgJy1waCcsICc3LjAnLCAnLXRuJywgJzgnLCAnLW1hJywgJzIwMCcsICctbWV0YWxfYmluZGluZycsICctaW1hZScsICc8aW5maWxlLm1hZT4nLCAnLW9tYWUnLCAnPG91dGZpbGUubWFlPic=

> <r_lp_tautomer_probability>
1

> <r_epik_Ionization_Penalty>
0.728419

> <r_epik_Ionization_Penalty_Charging>
0.728357

> <r_epik_Ionization_Penalty_Neutral>
6.27871e-05

> <r_epik_State_Penalty>
0.753408

> <r_epik_Charging_Adjusted_Penalty>
1.48176

> <i_epik_Tot_Q>
0

> <i_epik_Tot_abs_Q>
0

> <r_epik_Metal_State_Penalty>
0.332413

> <b_epik_Metal_Only>
0

> <s_lp_Force_Field>
OPLS_2005

> <r_lp_Energy>
36.0261

> <b_lp_Chiralities_Consistent>
1

> <s_lp_Variant>
AV-unprocessed.smi:3141-6

> <Gold.Version>
5.8.1

> <Gold.Id.Protein>
6NUR|6NUR_protein|mol2

> <Gold.PLP.Fitness>
35.9456

> <Gold.PLP.PLP>
-27.6904

> <Gold.PLP.part.hbond>
-2.0000

> <Gold.PLP.part.metal>
0.0000

> <Gold.PLP.part.buried>
-2.6493

> <Gold.PLP.part.nonpolar>
-23.6769

> <Gold.PLP.part.repulsive>
0.3525

> <Gold.PLP.ligand.clash>
0.0000

> <Gold.PLP.ligand.torsion>
0.4026

> <Gold.PLP.Chemscore.Hbond>
2.0000

> <Gold.PLP.Chemscore.CHOScore>
1.0000

> <Gold.PLP.Chemscore.Metal>
0.0000

> <Gold.Chemscore.Hbonds>
donor molecule, donor type, donor heavy atom, donor atom, acceptor molecule, acceptor atom, score
      L1  H     3    18       P1  7948  1.00
      L1  H     7    24       P1  7948  1.00
      L1  C    14    33       P1 10747  1.00

> <Gold.PLP.Chemscore.Internal.Correction>
0.0604

> <Gold.Rescore>
     Score         DG    S(hbond)    S(metal)    S(lipo)     H(rot)  DE(clash)    DE(int)     intcor
     14.72     -15.07       1.95        0.00      60.55       1.57       0.01       0.34       ----

> <Gold.Chemscore.Fitness>
14.7176

> <Gold.Chemscore.DG>
-15.0704

> <Gold.Chemscore.ZeroCoef>
-5.4800

> <Gold.Chemscore.Hbond>
1.9543

> <Gold.Chemscore.Metal>
0.0000

> <Gold.Chemscore.Lipo>
60.5457

> <Gold.Chemscore.Internal_Hbond>
0.0000

> <Gold.Chemscore.DEClash>
0.0096

> <Gold.Chemscore.DEInternal>
0.3433

> <Gold.Chemscore.Rot>
1.5705

> <Gold.Chemscore.Internal.Correction>
   9.000000E+99

> <Gold.Chemscore.Hbonds>
donor molecule, donor type, donor heavy atom, donor atom, acceptor molecule, acceptor atom, score
      L1  H     3    18       P1  7948  0.99
      L1  H     7    24       P1  7948  0.95

> <Gold.Chemscore.Hbond.Weighted>
-6.5272

> <Gold.Chemscore.Metal.Weighted>
-0.0000

> <Gold.Chemscore.Lipo.Weighted>
-7.0838

> <Gold.Chemscore.Internal_Hbond.Weighted>
0.0000

> <Gold.Chemscore.DEClash.Weighted>
0.0096

> <Gold.Chemscore.DEInternal.Weighted>
0.3433

> <Gold.Chemscore.Rot.Weighted>
4.0206

> <Gold.Chemscore.Internal.Correction.Weighted>
   9.000000E+99

> <Gold.Protein.RotatedTorsions>
[ 6907 6896 6895 6894 ] final -128.94 input  -60.11 | X-H torsion
[ 7974 7965 7964 7962 ] final   29.38 input  175.53 | X-H torsion
[ 8008 7997 7996 7995 ] final -127.13 input   59.86 | X-H torsion
[ 10167 10162 10161 10158 ] final   33.30 input  -65.29 | X-H torsion
[ 10718 10713 10712 10709 ] final   84.61 input   66.30 | X-H torsion
[ 10763 10752 10751 10750 ] final  170.99 input  -60.55 | X-H torsion
[ 11005 11000 10999 10996 ] final  -60.43 input  -57.11 | X-H torsion

> <Gold.Protein.ActiveResidues>
 VAL166  LYS551  ARG553  GLY616  TRP617  ASP618  TYR619  PRO620  LYS621  CYS622 
 ASP623  PHE694  ASN695  SER759  ASP760  ASP761  ALA762  ILE779  LEU786  VAL792 
 PHE793  MET794  SER795  GLU796  ALA797  LYS798  CYS799  TRP800  GLU811  SER814 

> <Gold.Protein.RotatedAtoms>
  150.9234  133.6853  159.2826 H   0  0  0  0  0  0  0  0  0  0  0  0  # atno 6907 bound_to 6896
  151.4300  135.1007  159.9649 H   0  0  0  0  0  0  0  0  0  0  0  0  # atno 6908 bound_to 6896
  152.4990  133.8666  159.7332 H   0  0  0  0  0  0  0  0  0  0  0  0  # atno 6909 bound_to 6896
  146.1674  139.6929  142.8991 H   0  0  0  0  0  0  0  0  0  0  0  0  # atno 7974 bound_to 7965
  155.2410  140.0428  157.2975 H   0  0  0  0  0  0  0  0  0  0  0  0  # atno 8008 bound_to 7997
  154.5828  140.2405  155.7999 H   0  0  0  0  0  0  0  0  0  0  0  0  # atno 8009 bound_to 7997
  156.2205  140.2971  155.9949 H   0  0  0  0  0  0  0  0  0  0  0  0  # atno 8010 bound_to 7997
  140.4420  144.1174  150.6175 H   0  0  0  0  0  0  0  0  0  0  0  0  # atno 10167 bound_to 10162
  157.6901  131.0140  150.2698 H   0  0  0  0  0  0  0  0  0  0  0  0  # atno 10718 bound_to 10713
  154.4056  135.2755  155.2069 H   0  0  0  0  0  0  0  0  0  0  0  0  # atno 10763 bound_to 10752
  154.4077  135.6030  153.5937 H   0  0  0  0  0  0  0  0  0  0  0  0  # atno 10764 bound_to 10752
  152.9831  135.5942  154.4330 H   0  0  0  0  0  0  0  0  0  0  0  0  # atno 10765 bound_to 10752
  141.1287  133.6622  156.5222 H   0  0  0  0  0  0  0  0  0  0  0  0  # atno 11005 bound_to 11000
  145.4430  141.0423  143.2847 LP  0  0  0  0  0  0  0  0  0  0  0  0  # atno 17320 bound_to 7965
  144.8113  139.5957  143.7028 LP  0  0  0  0  0  0  0  0  0  0  0  0  # atno 17321 bound_to 7965
  140.4307  143.2569  151.9599 LP  0  0  0  0  0  0  0  0  0  0  0  0  # atno 17342 bound_to 10162
  139.4790  144.5746  151.8032 LP  0  0  0  0  0  0  0  0  0  0  0  0  # atno 17343 bound_to 10162
  156.3263  130.3793  149.7530 LP  0  0  0  0  0  0  0  0  0  0  0  0  # atno 17370 bound_to 10713
  156.5084  130.8161  151.3159 LP  0  0  0  0  0  0  0  0  0  0  0  0  # atno 17371 bound_to 10713
  140.4283  134.7125  157.4928 LP  0  0  0  0  0  0  0  0  0  0  0  0  # atno 17394 bound_to 11000
  140.0312  134.6404  155.9104 LP  0  0  0  0  0  0  0  0  0  0  0  0  # atno 17395 bound_to 11000

$$$$
