AV-unprocessed.smi:1947|AV-procd|sdf|7867|dock4
  -GOLD-   2272010 13D 1   1.00000     0.00000
 Structure written by MMmdl.
 39 40  0  0  0  0  0  0  0  0  1 V2000
  145.2939  135.7282  151.9194 C   0  0  0  0  0  0  0  0  0  0  0  0
  145.2434  134.4250  151.1052 C   0  0  2  0  0  0  0  0  0  0  0  0
  143.9880  133.5923  151.4318 C   0  0  0  0  0  0  0  0  0  0  0  0
  143.9335  132.3052  150.5933 C   0  0  0  0  0  0  0  0  0  0  0  0
  145.2073  131.4656  150.7750 C   0  0  0  0  0  0  0  0  0  0  0  0
  146.4688  132.2855  150.4551 C   0  0  0  0  0  0  0  0  0  0  0  0
  146.5287  133.5859  151.2785 C   0  0  2  0  0  0  0  0  0  0  0  0
  146.6712  133.2486  152.6525 O   0  0  0  0  0  0  0  0  0  0  0  0
  147.9027  132.6239  152.9770 C   0  0  0  0  0  0  0  0  0  0  0  0
  148.4815  133.2921  154.2342 C   0  0  0  0  0  0  0  0  0  0  0  0
  148.8744  134.6749  153.9816 N   0  0  0  0  0  0  0  0  0  0  0  0
  149.6102  135.4365  154.8029 C   0  0  0  0  0  0  0  0  0  0  0  0
  149.9836  135.0706  155.9172 O   0  0  0  0  0  0  0  0  0  0  0  0
  149.8826  136.6256  154.2425 N   0  0  0  0  0  0  0  0  0  0  0  0
  150.7109  137.6579  154.7482 C   0  0  0  0  0  0  0  0  0  0  0  0
  150.5345  138.8953  154.2703 N   0  0  0  0  0  0  0  0  0  0  0  0
  151.4157  139.8048  154.8426 N   0  0  0  0  0  0  0  0  0  0  0  0
  152.2240  139.2159  155.7292 C   0  0  0  0  0  0  0  0  0  0  0  0
  151.9906  137.4912  155.9536 S   0  0  0  0  0  0  0  0  0  0  0  0
  145.3327  135.5299  152.9908 H   0  0  0  0  0  0  0  0  0  0  0  0
  144.4142  136.3435  151.7295 H   0  0  0  0  0  0  0  0  0  0  0  0
  146.1723  136.3197  151.6596 H   0  0  0  0  0  0  0  0  0  0  0  0
  145.1809  134.7102  150.0539 H   0  0  0  0  0  0  0  0  0  0  0  0
  143.9769  133.3382  152.4926 H   0  0  0  0  0  0  0  0  0  0  0  0
  143.0906  134.1842  151.2488 H   0  0  0  0  0  0  0  0  0  0  0  0
  143.0585  131.7173  150.8721 H   0  0  0  0  0  0  0  0  0  0  0  0
  143.8115  132.5606  149.5400 H   0  0  0  0  0  0  0  0  0  0  0  0
  145.2588  131.0986  151.8009 H   0  0  0  0  0  0  0  0  0  0  0  0
  145.1658  130.5840  150.1351 H   0  0  0  0  0  0  0  0  0  0  0  0
  147.3599  131.6845  150.6380 H   0  0  0  0  0  0  0  0  0  0  0  0
  146.4778  132.5312  149.3925 H   0  0  0  0  0  0  0  0  0  0  0  0
  147.3758  134.1826  150.9339 H   0  0  0  0  0  0  0  0  0  0  0  0
  147.7480  131.5585  153.1528 H   0  0  0  0  0  0  0  0  0  0  0  0
  148.6014  132.7194  152.1446 H   0  0  0  0  0  0  0  0  0  0  0  0
  147.7321  133.2949  155.0260 H   0  0  0  0  0  0  0  0  0  0  0  0
  149.3333  132.7238  154.6106 H   0  0  0  0  0  0  0  0  0  0  0  0
  148.6100  135.0612  153.0872 H   0  0  0  0  0  0  0  0  0  0  0  0
  149.4836  136.7972  153.3312 H   0  0  0  0  0  0  0  0  0  0  0  0
  152.9642  139.8018  156.2538 H   0  0  0  0  0  0  0  0  0  0  0  0
  1  2  1  0  0  0  0
  1 20  1  0  0  0  0
  1 21  1  0  0  0  0
  1 22  1  0  0  0  0
  2  7  1  0  0  0  0
  2  3  1  0  0  0  0
  2 23  1  0  0  0  0
  3  4  1  0  0  0  0
  3 24  1  0  0  0  0
  3 25  1  0  0  0  0
  4  5  1  0  0  0  0
  4 26  1  0  0  0  0
  4 27  1  0  0  0  0
  5  6  1  0  0  0  0
  5 28  1  0  0  0  0
  5 29  1  0  0  0  0
  6  7  1  0  0  0  0
  6 30  1  0  0  0  0
  6 31  1  0  0  0  0
  7  8  1  0  0  0  0
  7 32  1  0  0  0  0
  8  9  1  0  0  0  0
  9 10  1  0  0  0  0
  9 33  1  0  0  0  0
  9 34  1  0  0  0  0
 10 11  1  0  0  0  0
 10 35  1  0  0  0  0
 10 36  1  0  0  0  0
 11 12  1  0  0  0  0
 11 37  1  0  0  0  0
 12 13  2  0  0  0  0
 12 14  1  0  0  0  0
 14 15  1  0  0  0  0
 14 38  1  0  0  0  0
 15 19  1  0  0  0  0
 15 16  2  0  0  0  0
 16 17  1  0  0  0  0
 17 18  2  0  0  0  0
 18 19  1  0  0  0  0
 18 39  1  0  0  0  0
M  END
> <s_m_source_file>
AV-unprocessed.smi

> <i_m_source_file_index>
1947

> <i_lp_mmshare_version>
43012

> <i_f3d_flags>
0

> <s_epik_input>
W0NIM11bQ0BASF0xW0NIMl1bQ0gyXVtDSDJdW0NIMl1bQ0BIXTFPW0NIMl1bQ0gyXVtOSF1DKD1PKVtOSF1jMm5uW2NIXXMy

> <s_epik_cmdline>
J2VwaWtfcHl0aG9uJywgJy1waCcsICc3LjAnLCAnLXRuJywgJzgnLCAnLW1hJywgJzIwMCcsICctbWV0YWxfYmluZGluZycsICctaW1hZScsICc8aW5maWxlLm1hZT4nLCAnLW9tYWUnLCAnPG91dGZpbGUubWFlPic=

> <r_lp_tautomer_probability>
1

> <r_epik_Ionization_Penalty>
0.00220897

> <r_epik_Ionization_Penalty_Charging>
0

> <r_epik_Ionization_Penalty_Neutral>
0.00220897

> <r_epik_State_Penalty>
-0

> <r_epik_Charging_Adjusted_Penalty>
0

> <i_epik_Tot_Q>
0

> <i_epik_Tot_abs_Q>
0

> <r_epik_Metal_State_Penalty>
0.345002

> <b_epik_Metal_Only>
0

> <s_lp_Force_Field>
OPLS_2005

> <r_lp_Energy>
8.93842

> <b_lp_Chiralities_Consistent>
1

> <s_lp_Variant>
AV-unprocessed.smi:1947-3

> <Gold.Version>
5.8.1

> <Gold.Id.Protein>
6NUR|6NUR_protein|mol2

> <Gold.PLP.Fitness>
40.7595

> <Gold.PLP.PLP>
-33.0799

> <Gold.PLP.part.hbond>
-3.7792

> <Gold.PLP.part.metal>
0.0000

> <Gold.PLP.part.buried>
-2.8911

> <Gold.PLP.part.nonpolar>
-27.7715

> <Gold.PLP.part.repulsive>
0.4542

> <Gold.PLP.ligand.clash>
0.0000

> <Gold.PLP.ligand.torsion>
0.5272

> <Gold.PLP.Chemscore.Hbond>
2.9040

> <Gold.PLP.Chemscore.CHOScore>
0.0000

> <Gold.PLP.Chemscore.Metal>
0.0000

> <Gold.Chemscore.Hbonds>
donor molecule, donor type, donor heavy atom, donor atom, acceptor molecule, acceptor atom, score
      L1  H    11    37       P1  7948  0.93
      L1  H    14    38       P1  7948  0.99
      P1  H  7989  7998       L1    17  1.00

> <Gold.PLP.Chemscore.Internal.Correction>
0.0221

> <Gold.Rescore>
     Score         DG    S(hbond)    S(metal)    S(lipo)     H(rot)  DE(clash)    DE(int)     intcor
     14.58     -15.19       1.83        0.00      73.25       1.94       0.14       0.48       ----

> <Gold.Chemscore.Fitness>
14.5783

> <Gold.Chemscore.DG>
-15.1950

> <Gold.Chemscore.ZeroCoef>
-5.4800

> <Gold.Chemscore.Hbond>
1.8284

> <Gold.Chemscore.Metal>
0.0000

> <Gold.Chemscore.Lipo>
73.2519

> <Gold.Chemscore.Internal_Hbond>
0.0000

> <Gold.Chemscore.DEClash>
0.1381

> <Gold.Chemscore.DEInternal>
0.4786

> <Gold.Chemscore.Rot>
1.9385

> <Gold.Chemscore.Internal.Correction>
   9.000000E+99

> <Gold.Chemscore.Hbonds>
donor molecule, donor type, donor heavy atom, donor atom, acceptor molecule, acceptor atom, score
      L1  H    11    37       P1  7948  0.59
      L1  H    14    38       P1  7948  0.77
      P1  H  7989  7998       L1    17  0.26

> <Gold.Chemscore.Hbond.Weighted>
-6.1070

> <Gold.Chemscore.Metal.Weighted>
-0.0000

> <Gold.Chemscore.Lipo.Weighted>
-8.5705

> <Gold.Chemscore.Internal_Hbond.Weighted>
0.0000

> <Gold.Chemscore.DEClash.Weighted>
0.1381

> <Gold.Chemscore.DEInternal.Weighted>
0.4786

> <Gold.Chemscore.Rot.Weighted>
4.9625

> <Gold.Chemscore.Internal.Correction.Weighted>
   9.000000E+99

> <Gold.Protein.RotatedTorsions>
[ 6907 6896 6895 6894 ] final   98.60 input  -60.11 | X-H torsion
[ 7974 7965 7964 7962 ] final  163.99 input  175.53 | X-H torsion
[ 8008 7997 7996 7995 ] final   -3.06 input   59.86 | X-H torsion
[ 10167 10162 10161 10158 ] final  100.86 input  -65.29 | X-H torsion
[ 10718 10713 10712 10709 ] final   92.89 input   66.30 | X-H torsion
[ 10763 10752 10751 10750 ] final  112.17 input  -60.55 | X-H torsion
[ 11005 11000 10999 10996 ] final  144.16 input  -57.11 | X-H torsion

> <Gold.Protein.ActiveResidues>
 VAL166  LYS551  ARG553  GLY616  TRP617  ASP618  TYR619  PRO620  LYS621  CYS622 
 ASP623  PHE694  ASN695  SER759  ASP760  ASP761  ALA762  ILE779  LEU786  VAL792 
 PHE793  MET794  SER795  GLU796  ALA797  LYS798  CYS799  TRP800  GLU811  SER814 

> <Gold.Protein.RotatedAtoms>
  152.5406  134.0555  159.8128 H   0  0  0  0  0  0  0  0  0  0  0  0  # atno 6907 bound_to 6896
  151.0690  133.5474  159.2636 H   0  0  0  0  0  0  0  0  0  0  0  0  # atno 6908 bound_to 6896
  151.2344  135.0574  159.9054 H   0  0  0  0  0  0  0  0  0  0  0  0  # atno 6909 bound_to 6896
  144.7565  139.8261  143.6348 H   0  0  0  0  0  0  0  0  0  0  0  0  # atno 7974 bound_to 7965
  154.6289  140.2518  155.7457 H   0  0  0  0  0  0  0  0  0  0  0  0  # atno 8008 bound_to 7997
  156.2469  140.2911  156.0552 H   0  0  0  0  0  0  0  0  0  0  0  0  # atno 8009 bound_to 7997
  155.1776  140.0388  157.2866 H   0  0  0  0  0  0  0  0  0  0  0  0  # atno 8010 bound_to 7997
  139.7490  144.6989  151.0461 H   0  0  0  0  0  0  0  0  0  0  0  0  # atno 10167 bound_to 10162
  157.6957  131.0459  150.3951 H   0  0  0  0  0  0  0  0  0  0  0  0  # atno 10718 bound_to 10713
  153.4739  135.3694  155.2406 H   0  0  0  0  0  0  0  0  0  0  0  0  # atno 10763 bound_to 10752
  154.8756  135.3938  154.3779 H   0  0  0  0  0  0  0  0  0  0  0  0  # atno 10764 bound_to 10752
  153.4372  135.7083  153.6257 H   0  0  0  0  0  0  0  0  0  0  0  0  # atno 10765 bound_to 10752
  140.0611  134.9204  157.1185 H   0  0  0  0  0  0  0  0  0  0  0  0  # atno 11005 bound_to 11000
  146.1581  139.4685  143.0006 LP  0  0  0  0  0  0  0  0  0  0  0  0  # atno 17320 bound_to 7965
  145.6762  141.0203  143.1631 LP  0  0  0  0  0  0  0  0  0  0  0  0  # atno 17321 bound_to 7965
  140.7795  143.4832  150.9990 LP  0  0  0  0  0  0  0  0  0  0  0  0  # atno 17342 bound_to 10162
  139.8520  143.7426  152.3177 LP  0  0  0  0  0  0  0  0  0  0  0  0  # atno 17343 bound_to 10162
  156.4350  130.3980  149.6735 LP  0  0  0  0  0  0  0  0  0  0  0  0  # atno 17370 bound_to 10713
  156.3939  130.7641  151.2644 LP  0  0  0  0  0  0  0  0  0  0  0  0  # atno 17371 bound_to 10713
  140.3769  134.2329  155.7173 LP  0  0  0  0  0  0  0  0  0  0  0  0  # atno 17394 bound_to 11000
  141.1973  133.8062  157.0633 LP  0  0  0  0  0  0  0  0  0  0  0  0  # atno 17395 bound_to 11000

$$$$
