AV-unprocessed.smi:2193|AV-procd|sdf|8901|dock10
  -GOLD-   2272012113D 1   1.00000     0.00000
 Structure written by MMmdl.
 41 43  0  0  0  0  0  0  0  0  2 V2000
  151.2619  136.5414  155.1139 O   0  0  0  0  0  0  0  0  0  0  0  0
  151.7466  137.7515  154.5706 C   0  0  0  0  0  0  0  0  0  0  0  0
  150.6645  138.7425  154.2793 C   0  0  0  0  0  0  0  0  0  0  0  0
  149.6016  138.5564  153.4449 N   0  3  0  0  0  0  0  0  0  0  0  0
  148.8087  139.7041  153.4228 C   0  0  0  0  0  0  0  0  0  0  0  0
  147.6355  139.9895  152.7311 C   0  0  0  0  0  0  0  0  0  0  0  0
  147.0773  141.2689  152.9332 C   0  0  0  0  0  0  0  0  0  0  0  0
  147.6835  142.2071  153.7940 C   0  0  0  0  0  0  0  0  0  0  0  0
  148.8731  141.9062  154.4897 C   0  0  0  0  0  0  0  0  0  0  0  0
  149.4172  140.6386  154.2851 C   0  0  0  0  0  0  0  0  0  0  0  0
  150.5548  140.0019  154.7930 N   0  0  0  0  0  0  0  0  0  0  0  0
  151.4183  140.7253  155.7396 C   0  0  0  0  0  0  0  0  0  0  0  0
  150.6995  141.0882  157.0548 C   0  0  1  0  0  0  0  0  0  0  0  0
  150.5999  139.9275  157.8564 O   0  0  0  0  0  0  0  0  0  0  0  0
  151.4574  142.1679  157.8436 C   0  0  0  0  0  0  0  0  0  0  0  0
  152.4826  141.5442  158.6061 O   0  0  0  0  0  0  0  0  0  0  0  0
  152.6881  141.9729  159.9001 C   0  0  0  0  0  0  0  0  0  0  0  0
  152.2503  143.2751  160.2195 C   0  0  0  0  0  0  0  0  0  0  0  0
  152.4193  143.7956  161.5171 C   0  0  0  0  0  0  0  0  0  0  0  0
  153.0328  143.0142  162.5133 C   0  0  0  0  0  0  0  0  0  0  0  0
  153.1972  143.5127  163.7615 F   0  0  0  0  0  0  0  0  0  0  0  0
  153.4753  141.7135  162.2091 C   0  0  0  0  0  0  0  0  0  0  0  0
  153.3053  141.1928  160.9110 C   0  0  0  0  0  0  0  0  0  0  0  0
  150.3307  136.6262  155.2531 H   0  0  0  0  0  0  0  0  0  0  0  0
  152.4591  138.1885  155.2705 H   0  0  0  0  0  0  0  0  0  0  0  0
  152.2874  137.5352  153.6490 H   0  0  0  0  0  0  0  0  0  0  0  0
  147.1694  139.2727  152.0708 H   0  0  0  0  0  0  0  0  0  0  0  0
  146.1661  141.5360  152.4176 H   0  0  0  0  0  0  0  0  0  0  0  0
  147.2266  143.1777  153.9233 H   0  0  0  0  0  0  0  0  0  0  0  0
  149.3297  142.6312  155.1472 H   0  0  0  0  0  0  0  0  0  0  0  0
  152.2876  140.0987  155.9435 H   0  0  0  0  0  0  0  0  0  0  0  0
  151.7970  141.6191  155.2422 H   0  0  0  0  0  0  0  0  0  0  0  0
  149.6941  141.4442  156.8279 H   0  0  0  0  0  0  0  0  0  0  0  0
  150.0250  140.1138  158.5829 H   0  0  0  0  0  0  0  0  0  0  0  0
  151.8582  142.9294  157.1718 H   0  0  0  0  0  0  0  0  0  0  0  0
  150.7692  142.6594  158.5332 H   0  0  0  0  0  0  0  0  0  0  0  0
  151.7785  143.8822  159.4609 H   0  0  0  0  0  0  0  0  0  0  0  0
  152.0781  144.7942  161.7473 H   0  0  0  0  0  0  0  0  0  0  0  0
  153.9469  141.1130  162.9728 H   0  0  0  0  0  0  0  0  0  0  0  0
  153.6582  140.1914  160.7168 H   0  0  0  0  0  0  0  0  0  0  0  0
  149.4364  137.7003  152.9309 H   0  0  0  0  0  0  0  0  0  0  0  0
  1  2  1  0  0  0  0
  1 24  1  0  0  0  0
  2  3  1  0  0  0  0
  2 25  1  0  0  0  0
  2 26  1  0  0  0  0
  3 11  1  0  0  0  0
  3  4  2  0  0  0  0
  4  5  1  0  0  0  0
  4 41  1  0  0  0  0
  5 10  2  0  0  0  0
  5  6  1  0  0  0  0
  6  7  2  0  0  0  0
  6 27  1  0  0  0  0
  7  8  1  0  0  0  0
  7 28  1  0  0  0  0
  8  9  2  0  0  0  0
  8 29  1  0  0  0  0
  9 10  1  0  0  0  0
  9 30  1  0  0  0  0
 10 11  1  0  0  0  0
 11 12  1  0  0  0  0
 12 13  1  0  0  0  0
 12 31  1  0  0  0  0
 12 32  1  0  0  0  0
 13 14  1  0  0  0  0
 13 15  1  0  0  0  0
 13 33  1  0  0  0  0
 14 34  1  0  0  0  0
 15 16  1  0  0  0  0
 15 35  1  0  0  0  0
 15 36  1  0  0  0  0
 16 17  1  0  0  0  0
 17 23  1  0  0  0  0
 17 18  2  0  0  0  0
 18 19  1  0  0  0  0
 18 37  1  0  0  0  0
 19 20  2  0  0  0  0
 19 38  1  0  0  0  0
 20 21  1  0  0  0  0
 20 22  1  0  0  0  0
 22 23  2  0  0  0  0
 22 39  1  0  0  0  0
 23 40  1  0  0  0  0
M  CHG  1   4   1
M  END
> <s_m_source_file>
AV-unprocessed.smi

> <i_m_source_file_index>
2193

> <i_lp_mmshare_version>
43012

> <i_f3d_flags>
0

> <s_epik_input>
W2NIXTFbY0hdW2NIXVtjSF1jKGMxMiluKGMobjIpW0NIMl1bT0hdKVtDSDJdW0NASF0oW09IXSlbQ0gyXU9jM1tjSF1bY0hdYyhGKVtjSF1bY0hdMw==

> <s_epik_cmdline>
J2VwaWtfcHl0aG9uJywgJy1waCcsICc3LjAnLCAnLXRuJywgJzgnLCAnLW1hJywgJzIwMCcsICctbWV0YWxfYmluZGluZycsICctaW1hZScsICc8aW5maWxlLm1hZT4nLCAnLW9tYWUnLCAnPG91dGZpbGUubWFlPic=

> <r_lp_tautomer_probability>
1

> <r_epik_Ionization_Penalty>
1.43752

> <r_epik_Ionization_Penalty_Charging>
1.43666

> <r_epik_Ionization_Penalty_Neutral>
0.000858184

> <r_epik_State_Penalty>
1.52171

> <r_epik_Charging_Adjusted_Penalty>
2.95837

> <i_epik_Tot_Q>
1

> <i_epik_Tot_abs_Q>
1

> <r_epik_Metal_State_Penalty>
5.56725

> <b_epik_Metal_Only>
0

> <s_lp_Force_Field>
OPLS_2005

> <r_lp_Energy>
18.7626

> <b_lp_Chiralities_Consistent>
1

> <s_lp_Variant>
AV-unprocessed.smi:2193-4

> <Gold.Version>
5.8.1

> <Gold.Id.Protein>
6NUR|6NUR_protein|mol2

> <Gold.PLP.Fitness>
63.5823

> <Gold.PLP.PLP>
-56.9547

> <Gold.PLP.part.hbond>
-3.0000

> <Gold.PLP.part.metal>
0.0000

> <Gold.PLP.part.buried>
1.3398

> <Gold.PLP.part.nonpolar>
-54.0338

> <Gold.PLP.part.repulsive>
0.0695

> <Gold.PLP.ligand.clash>
0.4143

> <Gold.PLP.ligand.torsion>
1.0050

> <Gold.PLP.Chemscore.Hbond>
3.0000

> <Gold.PLP.Chemscore.CHOScore>
0.0000

> <Gold.PLP.Chemscore.Metal>
0.0000

> <Gold.Chemscore.Hbonds>
donor molecule, donor type, donor heavy atom, donor atom, acceptor molecule, acceptor atom, score
      L1  H     4    41       P1  7948  2.00
      P1  H 10752 10765       L1     1  0.55

> <Gold.PLP.Chemscore.Internal.Correction>
0.0520

> <Gold.Rescore>
     Score         DG    S(hbond)    S(metal)    S(lipo)     H(rot)  DE(clash)    DE(int)     intcor
     17.21     -18.80       1.84        0.00     133.79       3.31       0.48       1.12       ----

> <Gold.Chemscore.Fitness>
17.2084

> <Gold.Chemscore.DG>
-18.7992

> <Gold.Chemscore.ZeroCoef>
-5.4800

> <Gold.Chemscore.Hbond>
1.8409

> <Gold.Chemscore.Metal>
0.0000

> <Gold.Chemscore.Lipo>
133.7859

> <Gold.Chemscore.Internal_Hbond>
0.0000

> <Gold.Chemscore.DEClash>
0.4756

> <Gold.Chemscore.DEInternal>
1.1152

> <Gold.Chemscore.Rot>
3.3134

> <Gold.Chemscore.Internal.Correction>
   9.000000E+99

> <Gold.Chemscore.Hbonds>
donor molecule, donor type, donor heavy atom, donor atom, acceptor molecule, acceptor atom, score
      L1  H     4    41       P1  7948  0.88
      P1  H 10752 10765       L1     1  0.03

> <Gold.Chemscore.Hbond.Weighted>
-6.1486

> <Gold.Chemscore.Metal.Weighted>
-0.0000

> <Gold.Chemscore.Lipo.Weighted>
-15.6530

> <Gold.Chemscore.Internal_Hbond.Weighted>
0.0000

> <Gold.Chemscore.DEClash.Weighted>
0.4756

> <Gold.Chemscore.DEInternal.Weighted>
1.1152

> <Gold.Chemscore.Rot.Weighted>
8.4823

> <Gold.Chemscore.Internal.Correction.Weighted>
   9.000000E+99

> <Gold.Protein.RotatedTorsions>
[ 6907 6896 6895 6894 ] final -139.11 input  -60.11 | X-H torsion
[ 7974 7965 7964 7962 ] final  149.61 input  175.53 | X-H torsion
[ 8008 7997 7996 7995 ] final   -2.64 input   59.86 | X-H torsion
[ 10167 10162 10161 10158 ] final   11.52 input  -65.29 | X-H torsion
[ 10718 10713 10712 10709 ] final   46.90 input   66.30 | X-H torsion
[ 10763 10752 10751 10750 ] final -178.77 input  -60.55 | X-H torsion
[ 11005 11000 10999 10996 ] final -116.17 input  -57.11 | X-H torsion

> <Gold.Protein.ActiveResidues>
 VAL166  LYS551  ARG553  GLY616  TRP617  ASP618  TYR619  PRO620  LYS621  CYS622 
 ASP623  PHE694  ASN695  SER759  ASP760  ASP761  ALA762  ILE779  LEU786  VAL792 
 PHE793  MET794  SER795  GLU796  ALA797  LYS798  CYS799  TRP800  GLU811  SER814 

> <Gold.Protein.RotatedAtoms>
  151.0436  133.5684  159.2648 H   0  0  0  0  0  0  0  0  0  0  0  0  # atno 6907 bound_to 6896
  151.2721  135.0687  159.9148 H   0  0  0  0  0  0  0  0  0  0  0  0  # atno 6908 bound_to 6896
  152.5369  134.0165  159.8016 H   0  0  0  0  0  0  0  0  0  0  0  0  # atno 6909 bound_to 6896
  144.8425  139.6302  143.6010 H   0  0  0  0  0  0  0  0  0  0  0  0  # atno 7974 bound_to 7965
  154.6335  140.2529  155.7405 H   0  0  0  0  0  0  0  0  0  0  0  0  # atno 8008 bound_to 7997
  156.2492  140.2902  156.0617 H   0  0  0  0  0  0  0  0  0  0  0  0  # atno 8009 bound_to 7997
  155.1707  140.0386  157.2852 H   0  0  0  0  0  0  0  0  0  0  0  0  # atno 8010 bound_to 7997
  140.6126  143.8375  150.7083 H   0  0  0  0  0  0  0  0  0  0  0  0  # atno 10167 bound_to 10162
  157.4529  130.8149  149.7807 H   0  0  0  0  0  0  0  0  0  0  0  0  # atno 10718 bound_to 10713
  154.5436  135.2808  155.1073 H   0  0  0  0  0  0  0  0  0  0  0  0  # atno 10763 bound_to 10752
  154.2547  135.6333  153.5256 H   0  0  0  0  0  0  0  0  0  0  0  0  # atno 10764 bound_to 10752
  152.9985  135.5591  154.5982 H   0  0  0  0  0  0  0  0  0  0  0  0  # atno 10765 bound_to 10752
  141.0440  133.9792  157.2949 H   0  0  0  0  0  0  0  0  0  0  0  0  # atno 11005 bound_to 11000
  146.2715  139.6648  142.9292 LP  0  0  0  0  0  0  0  0  0  0  0  0  # atno 17320 bound_to 7965
  145.4664  141.0434  143.2723 LP  0  0  0  0  0  0  0  0  0  0  0  0  # atno 17321 bound_to 7965
  140.1947  143.4008  152.1837 LP  0  0  0  0  0  0  0  0  0  0  0  0  # atno 17342 bound_to 10162
  139.5373  144.7222  151.4849 LP  0  0  0  0  0  0  0  0  0  0  0  0  # atno 17343 bound_to 10162
  155.9995  130.3888  150.2662 LP  0  0  0  0  0  0  0  0  0  0  0  0  # atno 17370 bound_to 10713
  157.0835  131.0150  151.3148 LP  0  0  0  0  0  0  0  0  0  0  0  0  # atno 17371 bound_to 10713
  139.9297  135.0200  156.8358 LP  0  0  0  0  0  0  0  0  0  0  0  0  # atno 17394 bound_to 11000
  140.6182  134.0018  155.7606 LP  0  0  0  0  0  0  0  0  0  0  0  0  # atno 17395 bound_to 11000

$$$$
