AV-unprocessed.smi:2229|AV-procd|sdf|9033|dock2
  -GOLD-   2272012243D 1   1.00000     0.00000
 Structure written by MMmdl.
 43 44  0  0  0  0  0  0  0  0  2 V2000
  152.4206  144.1611  160.6806 C   0  0  0  0  0  0  0  0  0  0  0  0
  152.1826  142.8357  159.9372 C   0  0  0  0  0  0  0  0  0  0  0  0
  153.5061  142.2936  159.3756 C   0  0  0  0  0  0  0  0  0  0  0  0
  151.1284  142.9652  158.8183 C   0  0  0  0  0  0  0  0  0  0  0  0
  150.8244  141.6455  158.0862 C   0  0  0  0  0  0  0  0  0  0  0  0
  150.0396  141.8432  156.7710 C   0  0  2  0  0  0  0  0  0  0  0  0
  148.5292  141.6235  156.8923 C   0  0  0  0  0  0  0  0  0  0  0  0
  148.0571  141.4945  155.4461 C   0  0  0  0  0  0  0  0  0  0  0  0
  149.2011  140.7913  154.7063 C   0  0  0  0  0  0  0  0  0  0  0  0
  150.4599  140.9425  155.5876 C   0  0  2  0  0  0  0  0  0  0  0  0
  150.9406  139.6361  156.0358 N   0  0  0  0  0  0  0  0  0  0  0  0
  152.0512  139.0241  155.5998 C   0  0  0  0  0  0  0  0  0  0  0  0
  152.8108  139.5181  154.7658 O   0  0  0  0  0  0  0  0  0  0  0  0
  152.3508  137.6577  156.2297 C   0  0  0  0  0  0  0  0  0  0  0  0
  151.4224  137.2981  157.3041 N   0  0  0  0  0  0  0  0  0  0  0  0
  150.1498  136.8408  157.0712 C   0  0  0  0  0  0  0  0  0  0  0  0
  149.5503  136.5794  158.1770 N   0  0  0  0  0  0  0  0  0  0  0  0
  150.4805  136.8799  159.2230 N   0  5  0  0  0  0  0  0  0  0  0  0
  151.6111  137.3163  158.6245 C   0  0  0  0  0  0  0  0  0  0  0  0
  152.6642  137.6760  159.1498 O   0  0  0  0  0  0  0  0  0  0  0  0
  152.7549  144.9432  159.9983 H   0  0  0  0  0  0  0  0  0  0  0  0
  153.1838  144.0455  161.4506 H   0  0  0  0  0  0  0  0  0  0  0  0
  151.5175  144.5138  161.1780 H   0  0  0  0  0  0  0  0  0  0  0  0
  151.8180  142.1068  160.6622 H   0  0  0  0  0  0  0  0  0  0  0  0
  153.9341  142.9762  158.6406 H   0  0  0  0  0  0  0  0  0  0  0  0
  153.3629  141.3284  158.8894 H   0  0  0  0  0  0  0  0  0  0  0  0
  154.2425  142.1541  160.1676 H   0  0  0  0  0  0  0  0  0  0  0  0
  150.2086  143.3815  159.2309 H   0  0  0  0  0  0  0  0  0  0  0  0
  151.4844  143.6894  158.0846 H   0  0  0  0  0  0  0  0  0  0  0  0
  151.7661  141.1438  157.8603 H   0  0  0  0  0  0  0  0  0  0  0  0
  150.2700  140.9795  158.7471 H   0  0  0  0  0  0  0  0  0  0  0  0
  150.1891  142.8741  156.4453 H   0  0  0  0  0  0  0  0  0  0  0  0
  148.3262  140.6969  157.4310 H   0  0  0  0  0  0  0  0  0  0  0  0
  148.0255  142.4346  157.4186 H   0  0  0  0  0  0  0  0  0  0  0  0
  147.1129  140.9554  155.3633 H   0  0  0  0  0  0  0  0  0  0  0  0
  147.9064  142.4887  155.0234 H   0  0  0  0  0  0  0  0  0  0  0  0
  148.9517  139.7410  154.5459 H   0  0  0  0  0  0  0  0  0  0  0  0
  149.3525  141.2327  153.7207 H   0  0  0  0  0  0  0  0  0  0  0  0
  151.2567  141.4398  155.0311 H   0  0  0  0  0  0  0  0  0  0  0  0
  150.3786  139.1578  156.7246 H   0  0  0  0  0  0  0  0  0  0  0  0
  152.3383  136.9032  155.4416 H   0  0  0  0  0  0  0  0  0  0  0  0
  153.3644  137.6590  156.6343 H   0  0  0  0  0  0  0  0  0  0  0  0
  149.7783  136.7428  156.0498 H   0  0  0  0  0  0  0  0  0  0  0  0
  1  2  1  0  0  0  0
  1 21  1  0  0  0  0
  1 22  1  0  0  0  0
  1 23  1  0  0  0  0
  2  3  1  0  0  0  0
  2  4  1  0  0  0  0
  2 24  1  0  0  0  0
  3 25  1  0  0  0  0
  3 26  1  0  0  0  0
  3 27  1  0  0  0  0
  4  5  1  0  0  0  0
  4 28  1  0  0  0  0
  4 29  1  0  0  0  0
  5  6  1  0  0  0  0
  5 30  1  0  0  0  0
  5 31  1  0  0  0  0
  6 10  1  0  0  0  0
  6  7  1  0  0  0  0
  6 32  1  0  0  0  0
  7  8  1  0  0  0  0
  7 33  1  0  0  0  0
  7 34  1  0  0  0  0
  8  9  1  0  0  0  0
  8 35  1  0  0  0  0
  8 36  1  0  0  0  0
  9 10  1  0  0  0  0
  9 37  1  0  0  0  0
  9 38  1  0  0  0  0
 10 11  1  0  0  0  0
 10 39  1  0  0  0  0
 11 12  1  0  0  0  0
 11 40  1  0  0  0  0
 12 13  2  0  0  0  0
 12 14  1  0  0  0  0
 14 15  1  0  0  0  0
 14 41  1  0  0  0  0
 14 42  1  0  0  0  0
 15 19  1  0  0  0  0
 15 16  1  0  0  0  0
 16 17  2  0  0  0  0
 16 43  1  0  0  0  0
 17 18  1  0  0  0  0
 18 19  1  0  0  0  0
 19 20  2  0  0  0  0
M  CHG  1  18  -1
M  END
> <s_m_source_file>
AV-unprocessed.smi

> <i_m_source_file_index>
2229

> <i_lp_mmshare_version>
43012

> <i_f3d_flags>
0

> <s_epik_input>
W0NIM11bQ0hdKFtDSDNdKVtDSDJdW0NIMl1bQ0BASF0xW0NIMl1bQ0gyXVtDSDJdW0NASF0xW05IXUMoPU8pW0NIMl1uMltjSF1uW25IXWMyPU8=

> <s_epik_cmdline>
J2VwaWtfcHl0aG9uJywgJy1waCcsICc3LjAnLCAnLXRuJywgJzgnLCAnLW1hJywgJzIwMCcsICctbWV0YWxfYmluZGluZycsICctaW1hZScsICc8aW5maWxlLm1hZT4nLCAnLW9tYWUnLCAnPG91dGZpbGUubWFlPic=

> <r_lp_tautomer_probability>
1

> <r_epik_Ionization_Penalty>
13.6733

> <r_epik_Ionization_Penalty_Charging>
13.6725

> <r_epik_Ionization_Penalty_Neutral>
0.000837689

> <r_epik_State_Penalty>
5.67062

> <r_epik_Charging_Adjusted_Penalty>
19.3431

> <i_epik_Tot_Q>
-1

> <i_epik_Tot_abs_Q>
1

> <r_epik_Metal_State_Penalty>
1.61781

> <b_epik_Metal_Only>
1

> <s_lp_Force_Field>
OPLS_2005

> <r_lp_Energy>
26.4382

> <b_lp_Chiralities_Consistent>
1

> <s_lp_Variant>
AV-unprocessed.smi:2229-7

> <Gold.Version>
5.8.1

> <Gold.Id.Protein>
6NUR|6NUR_protein|mol2

> <Gold.PLP.Fitness>
41.6609

> <Gold.PLP.PLP>
-33.7252

> <Gold.PLP.part.hbond>
-3.0000

> <Gold.PLP.part.metal>
0.0000

> <Gold.PLP.part.buried>
-5.6266

> <Gold.PLP.part.nonpolar>
-26.9438

> <Gold.PLP.part.repulsive>
0.1117

> <Gold.PLP.ligand.clash>
0.0000

> <Gold.PLP.ligand.torsion>
0.9875

> <Gold.PLP.Chemscore.Hbond>
3.2865

> <Gold.PLP.Chemscore.CHOScore>
0.0000

> <Gold.PLP.Chemscore.Metal>
0.0000

> <Gold.Chemscore.Hbonds>
donor molecule, donor type, donor heavy atom, donor atom, acceptor molecule, acceptor atom, score
      P1  H  6896  6908       L1    18  2.00
      P1  H  7989  7998       L1    13  0.33
      P1  H  7997  8008       L1    13  0.76

> <Gold.PLP.Chemscore.Internal.Correction>
0.0511

> <Gold.Rescore>
     Score         DG    S(hbond)    S(metal)    S(lipo)     H(rot)  DE(clash)    DE(int)     intcor
     12.44     -13.56       1.60        0.00      79.97       2.59       0.00       1.11       ----

> <Gold.Chemscore.Fitness>
12.4446

> <Gold.Chemscore.DG>
-13.5564

> <Gold.Chemscore.ZeroCoef>
-5.4800

> <Gold.Chemscore.Hbond>
1.6048

> <Gold.Chemscore.Metal>
0.0000

> <Gold.Chemscore.Lipo>
79.9731

> <Gold.Chemscore.Internal_Hbond>
0.0000

> <Gold.Chemscore.DEClash>
0.0000

> <Gold.Chemscore.DEInternal>
1.1118

> <Gold.Chemscore.Rot>
2.5939

> <Gold.Chemscore.Internal.Correction>
   9.000000E+99

> <Gold.Chemscore.Hbonds>
donor molecule, donor type, donor heavy atom, donor atom, acceptor molecule, acceptor atom, score
      P1  H  6896  6908       L1    18  0.08
      P1  H  7989  7998       L1    13  0.23
      P1  H  7997  8008       L1    13  0.56

> <Gold.Chemscore.Hbond.Weighted>
-5.3600

> <Gold.Chemscore.Metal.Weighted>
-0.0000

> <Gold.Chemscore.Lipo.Weighted>
-9.3568

> <Gold.Chemscore.Internal_Hbond.Weighted>
0.0000

> <Gold.Chemscore.DEClash.Weighted>
0.0000

> <Gold.Chemscore.DEInternal.Weighted>
1.1118

> <Gold.Chemscore.Rot.Weighted>
6.6405

> <Gold.Chemscore.Internal.Correction.Weighted>
   9.000000E+99

> <Gold.Protein.RotatedTorsions>
[ 6907 6896 6895 6894 ] final -155.64 input  -60.11 | X-H torsion
[ 7974 7965 7964 7962 ] final  -26.25 input  175.53 | X-H torsion
[ 8008 7997 7996 7995 ] final   -2.01 input   59.86 | X-H torsion
[ 10167 10162 10161 10158 ] final -122.86 input  -65.29 | X-H torsion
[ 10718 10713 10712 10709 ] final  -47.31 input   66.30 | X-H torsion
[ 10763 10752 10751 10750 ] final   89.93 input  -60.55 | X-H torsion
[ 11005 11000 10999 10996 ] final -131.16 input  -57.11 | X-H torsion

> <Gold.Protein.ActiveResidues>
 VAL166  LYS551  ARG553  GLY616  TRP617  ASP618  TYR619  PRO620  LYS621  CYS622 
 ASP623  PHE694  ASN695  SER759  ASP760  ASP761  ALA762  ILE779  LEU786  VAL792 
 PHE793  MET794  SER795  GLU796  ALA797  LYS798  CYS799  TRP800  GLU811  SER814 

> <Gold.Protein.RotatedAtoms>
  151.2756  133.4234  159.2623 H   0  0  0  0  0  0  0  0  0  0  0  0  # atno 6907 bound_to 6896
  151.0406  134.9605  159.8170 H   0  0  0  0  0  0  0  0  0  0  0  0  # atno 6908 bound_to 6896
  152.5364  134.2714  159.9025 H   0  0  0  0  0  0  0  0  0  0  0  0  # atno 6909 bound_to 6896
  146.1438  140.4994  142.8640 H   0  0  0  0  0  0  0  0  0  0  0  0  # atno 7974 bound_to 7965
  154.6404  140.2545  155.7328 H   0  0  0  0  0  0  0  0  0  0  0  0  # atno 8008 bound_to 7997
  156.2526  140.2888  156.0716 H   0  0  0  0  0  0  0  0  0  0  0  0  # atno 8009 bound_to 7997
  155.1605  140.0384  157.2831 H   0  0  0  0  0  0  0  0  0  0  0  0  # atno 8010 bound_to 7997
  140.0097  143.5455  152.2268 H   0  0  0  0  0  0  0  0  0  0  0  0  # atno 10167 bound_to 10162
  156.2097  130.4160  149.9131 H   0  0  0  0  0  0  0  0  0  0  0  0  # atno 10718 bound_to 10713
  153.1922  135.4452  155.0163 H   0  0  0  0  0  0  0  0  0  0  0  0  # atno 10763 bound_to 10752
  154.8097  135.3289  154.7340 H   0  0  0  0  0  0  0  0  0  0  0  0  # atno 10764 bound_to 10752
  153.7793  135.6979  153.4947 H   0  0  0  0  0  0  0  0  0  0  0  0  # atno 10765 bound_to 10752
  140.9282  134.1354  157.4257 H   0  0  0  0  0  0  0  0  0  0  0  0  # atno 11005 bound_to 11000
  144.7822  140.5864  143.6597 LP  0  0  0  0  0  0  0  0  0  0  0  0  # atno 17320 bound_to 7965
  145.4985  139.1484  143.3670 LP  0  0  0  0  0  0  0  0  0  0  0  0  # atno 17321 bound_to 7965
  139.6214  144.7629  151.2733 LP  0  0  0  0  0  0  0  0  0  0  0  0  # atno 17342 bound_to 10162
  140.7386  143.6642  150.8137 LP  0  0  0  0  0  0  0  0  0  0  0  0  # atno 17343 bound_to 10162
  156.6813  130.8859  151.3576 LP  0  0  0  0  0  0  0  0  0  0  0  0  # atno 17370 bound_to 10713
  157.7032  130.9355  150.0848 LP  0  0  0  0  0  0  0  0  0  0  0  0  # atno 17371 bound_to 10713
  139.8790  134.9996  156.5963 LP  0  0  0  0  0  0  0  0  0  0  0  0  # atno 17394 bound_to 11000
  140.7897  133.8592  155.8636 LP  0  0  0  0  0  0  0  0  0  0  0  0  # atno 17395 bound_to 11000

$$$$
