AV-unprocessed.smi:275|AV-procd|sdf|2065|dock10
  -GOLD-   2262021313D 1   1.00000     0.00000
 Structure written by MMmdl.
 65 69  0  0  0  0  0  0  0  0  1 V2000
  150.0641  130.2129  155.5244 C   0  0  0  0  0  0  0  0  0  0  0  0
  150.7611  131.5713  155.7083 C   0  0  0  0  0  0  0  0  0  0  0  0
  151.5529  131.5250  157.0294 C   0  0  0  0  0  0  0  0  0  0  0  0
  149.7881  132.7791  155.6672 C   0  0  1  0  0  0  0  0  0  0  0  0
  150.6032  133.9974  155.6371 N   0  0  0  0  0  0  0  0  0  0  0  0
  150.2313  135.0486  156.5384 C   0  0  0  0  0  0  0  0  0  0  0  0
  149.1559  134.8723  157.3540 N   0  0  0  0  0  0  0  0  0  0  0  0
  148.7735  135.8127  158.2211 C   0  0  0  0  0  0  0  0  0  0  0  0
  149.3110  137.0118  158.4368 N   0  0  0  0  0  0  0  0  0  0  0  0
  150.3677  137.2263  157.6047 C   0  0  0  0  0  0  0  0  0  0  0  0
  150.8792  136.3176  156.6328 C   0  0  0  0  0  0  0  0  0  0  0  0
  151.9506  136.9070  155.9704 N   0  0  0  0  0  0  0  0  0  0  0  0
  152.0787  138.0782  156.5289 C   0  0  0  0  0  0  0  0  0  0  0  0
  151.1837  138.3417  157.5383 N   0  0  0  0  0  0  0  0  0  0  0  0
  151.1109  139.5516  158.3356 C   0  0  0  0  0  0  0  0  0  0  0  0
  151.7533  140.7988  157.6675 C   0  0  1  0  0  0  0  0  0  0  0  0
  151.0822  141.0339  156.2923 C   0  0  0  0  0  0  0  0  0  0  0  0
  149.7348  141.4320  156.4421 O   0  0  0  0  0  0  0  0  0  0  0  0
  151.6923  142.0716  158.5671 C   0  0  2  0  0  0  0  0  0  0  0  0
  152.0856  143.3730  157.8814 C   0  0  0  0  0  0  0  0  0  0  0  0
  152.4129  144.2770  159.0593 C   0  0  0  0  0  0  0  0  0  0  0  0
  153.1083  143.4228  159.9502 O   0  0  0  0  0  0  0  0  0  0  0  0
  152.6500  142.0855  159.7752 C   0  0  0  0  0  0  0  0  0  0  0  0
  150.3246  134.2089  154.2213 C   0  0  0  0  0  0  0  0  0  0  0  0
  149.0876  133.3126  154.3773 C   0  0  0  0  0  0  0  0  0  0  0  0
  147.7681  134.0964  154.5869 C   0  0  0  0  0  0  0  0  0  0  0  0
  146.5423  133.2007  154.8135 C   0  0  0  0  0  0  0  0  0  0  0  0
  146.3313  132.2667  153.6201 C   0  0  0  0  0  0  0  0  0  0  0  0
  147.5983  131.4508  153.3562 C   0  0  0  0  0  0  0  0  0  0  0  0
  148.8374  132.3565  153.1930 C   0  0  0  0  0  0  0  0  0  0  0  0
  149.1762  130.1319  156.1521 H   0  0  0  0  0  0  0  0  0  0  0  0
  150.7287  129.3900  155.7899 H   0  0  0  0  0  0  0  0  0  0  0  0
  149.7771  130.0367  154.4910 H   0  0  0  0  0  0  0  0  0  0  0  0
  151.4903  131.6636  154.9018 H   0  0  0  0  0  0  0  0  0  0  0  0
  150.8907  131.3743  157.8822 H   0  0  0  0  0  0  0  0  0  0  0  0
  152.1143  132.4435  157.2008 H   0  0  0  0  0  0  0  0  0  0  0  0
  152.2754  130.7083  157.0274 H   0  0  0  0  0  0  0  0  0  0  0  0
  149.0710  132.7530  156.4866 H   0  0  0  0  0  0  0  0  0  0  0  0
  147.9174  135.5663  158.8316 H   0  0  0  0  0  0  0  0  0  0  0  0
  152.8433  138.7801  156.2294 H   0  0  0  0  0  0  0  0  0  0  0  0
  150.0556  139.7278  158.5445 H   0  0  0  0  0  0  0  0  0  0  0  0
  151.5817  139.3643  159.3011 H   0  0  0  0  0  0  0  0  0  0  0  0
  152.8056  140.5829  157.4751 H   0  0  0  0  0  0  0  0  0  0  0  0
  151.6219  141.7894  155.7202 H   0  0  0  0  0  0  0  0  0  0  0  0
  151.0677  140.1260  155.6913 H   0  0  0  0  0  0  0  0  0  0  0  0
  149.7134  142.2535  156.9089 H   0  0  0  0  0  0  0  0  0  0  0  0
  150.6726  142.1934  158.9367 H   0  0  0  0  0  0  0  0  0  0  0  0
  152.9744  143.2307  157.2649 H   0  0  0  0  0  0  0  0  0  0  0  0
  151.2935  143.7851  157.2556 H   0  0  0  0  0  0  0  0  0  0  0  0
  153.0146  145.1411  158.7774 H   0  0  0  0  0  0  0  0  0  0  0  0
  151.5000  144.6326  159.5393 H   0  0  0  0  0  0  0  0  0  0  0  0
  152.1564  141.7493  160.6861 H   0  0  0  0  0  0  0  0  0  0  0  0
  153.5211  141.4515  159.6089 H   0  0  0  0  0  0  0  0  0  0  0  0
  150.1051  135.2261  153.8971 H   0  0  0  0  0  0  0  0  0  0  0  0
  151.1004  133.7605  153.5989 H   0  0  0  0  0  0  0  0  0  0  0  0
  147.8441  134.7757  155.4346 H   0  0  0  0  0  0  0  0  0  0  0  0
  147.5810  134.7389  153.7254 H   0  0  0  0  0  0  0  0  0  0  0  0
  146.6745  132.6173  155.7254 H   0  0  0  0  0  0  0  0  0  0  0  0
  145.6549  133.8158  154.9647 H   0  0  0  0  0  0  0  0  0  0  0  0
  145.4868  131.6021  153.8051 H   0  0  0  0  0  0  0  0  0  0  0  0
  146.0801  132.8523  152.7350 H   0  0  0  0  0  0  0  0  0  0  0  0
  147.7323  130.7592  154.1847 H   0  0  0  0  0  0  0  0  0  0  0  0
  147.4664  130.8386  152.4637 H   0  0  0  0  0  0  0  0  0  0  0  0
  148.7102  132.9432  152.2823 H   0  0  0  0  0  0  0  0  0  0  0  0
  149.7180  131.7441  153.0028 H   0  0  0  0  0  0  0  0  0  0  0  0
  1  2  1  0  0  0  0
  1 31  1  0  0  0  0
  1 32  1  0  0  0  0
  1 33  1  0  0  0  0
  2  3  1  0  0  0  0
  2  4  1  0  0  0  0
  2 34  1  0  0  0  0
  3 35  1  0  0  0  0
  3 36  1  0  0  0  0
  3 37  1  0  0  0  0
  4 25  1  0  0  0  0
  4  5  1  0  0  0  0
  4 38  1  0  0  0  0
  5  6  1  0  0  0  0
  5 24  1  0  0  0  0
  6 11  1  0  0  0  0
  6  7  2  0  0  0  0
  7  8  1  0  0  0  0
  8  9  2  0  0  0  0
  8 39  1  0  0  0  0
  9 10  1  0  0  0  0
 10 14  1  0  0  0  0
 10 11  2  0  0  0  0
 11 12  1  0  0  0  0
 12 13  2  0  0  0  0
 13 14  1  0  0  0  0
 13 40  1  0  0  0  0
 14 15  1  0  0  0  0
 15 16  1  0  0  0  0
 15 41  1  0  0  0  0
 15 42  1  0  0  0  0
 16 17  1  0  0  0  0
 16 19  1  0  0  0  0
 16 43  1  0  0  0  0
 17 18  1  0  0  0  0
 17 44  1  0  0  0  0
 17 45  1  0  0  0  0
 18 46  1  0  0  0  0
 19 23  1  0  0  0  0
 19 20  1  0  0  0  0
 19 47  1  0  0  0  0
 20 21  1  0  0  0  0
 20 48  1  0  0  0  0
 20 49  1  0  0  0  0
 21 22  1  0  0  0  0
 21 50  1  0  0  0  0
 21 51  1  0  0  0  0
 22 23  1  0  0  0  0
 23 52  1  0  0  0  0
 23 53  1  0  0  0  0
 24 25  1  0  0  0  0
 24 54  1  0  0  0  0
 24 55  1  0  0  0  0
 25 30  1  0  0  0  0
 25 26  1  0  0  0  0
 26 27  1  0  0  0  0
 26 56  1  0  0  0  0
 26 57  1  0  0  0  0
 27 28  1  0  0  0  0
 27 58  1  0  0  0  0
 27 59  1  0  0  0  0
 28 29  1  0  0  0  0
 28 60  1  0  0  0  0
 28 61  1  0  0  0  0
 29 30  1  0  0  0  0
 29 62  1  0  0  0  0
 29 63  1  0  0  0  0
 30 64  1  0  0  0  0
 30 65  1  0  0  0  0
M  END
> <s_m_source_file>
AV-unprocessed.smi

> <i_m_source_file_index>
275

> <i_lp_mmshare_version>
43012

> <i_f3d_flags>
0

> <s_epik_input>
W0NIMl0xW0NIMl1bQ0gyXVtDSDJdW0NIMl1DMTJbQ0BIXShbQ0hdKFtDSDNdKVtDSDNdKU4oW0NIMl0yKWMobltjSF1uMyljKGMzNCluW2NIXW40W0NIMl1bQ0BIXShbQ0gyXVtPSF0pW0NAQEhdNVtDSDJdW0NIMl1PW0NIMl01

> <s_epik_cmdline>
J2VwaWtfcHl0aG9uJywgJy1waCcsICc3LjAnLCAnLXRuJywgJzgnLCAnLW1hJywgJzIwMCcsICctbWV0YWxfYmluZGluZycsICctaW1hZScsICc8aW5maWxlLm1hZT4nLCAnLW9tYWUnLCAnPG91dGZpbGUubWFlPic=

> <r_lp_tautomer_probability>
1

> <r_epik_Ionization_Penalty>
0.00375122

> <r_epik_Ionization_Penalty_Charging>
0

> <r_epik_Ionization_Penalty_Neutral>
0.00375122

> <r_epik_State_Penalty>
0.00260593

> <r_epik_Charging_Adjusted_Penalty>
0.00260593

> <i_epik_Tot_Q>
0

> <i_epik_Tot_abs_Q>
0

> <r_epik_Metal_State_Penalty>
-0

> <b_epik_Metal_Only>
0

> <s_lp_Force_Field>
OPLS_2005

> <r_lp_Energy>
67.0366

> <b_lp_Chiralities_Consistent>
1

> <s_lp_Variant>
AV-unprocessed.smi:275-4

> <Gold.Version>
5.8.1

> <Gold.Id.Protein>
6NUR|6NUR_protein|mol2

> <Gold.PLP.Fitness>
42.6095

> <Gold.PLP.PLP>
-40.7311

> <Gold.PLP.part.hbond>
-1.0571

> <Gold.PLP.part.metal>
0.0000

> <Gold.PLP.part.buried>
-7.4388

> <Gold.PLP.part.nonpolar>
-32.9628

> <Gold.PLP.part.repulsive>
0.0586

> <Gold.PLP.ligand.clash>
0.0000

> <Gold.PLP.ligand.torsion>
0.7684

> <Gold.PLP.Chemscore.Hbond>
0.9602

> <Gold.PLP.Chemscore.CHOScore>
0.0000

> <Gold.PLP.Chemscore.Metal>
0.0000

> <Gold.Chemscore.Hbonds>
donor molecule, donor type, donor heavy atom, donor atom, acceptor molecule, acceptor atom, score
      P1  H 10752 10765       L1    12  0.93

> <Gold.PLP.Chemscore.Internal.Correction>
0.5345

> <Gold.Rescore>
     Score         DG    S(hbond)    S(metal)    S(lipo)     H(rot)  DE(clash)    DE(int)     intcor
     13.62     -15.30       0.92        0.00     113.11       2.54       1.02       0.65       ----

> <Gold.Chemscore.Fitness>
13.6227

> <Gold.Chemscore.DG>
-15.2974

> <Gold.Chemscore.ZeroCoef>
-5.4800

> <Gold.Chemscore.Hbond>
0.9223

> <Gold.Chemscore.Metal>
0.0000

> <Gold.Chemscore.Lipo>
113.1060

> <Gold.Chemscore.Internal_Hbond>
0.0000

> <Gold.Chemscore.DEClash>
1.0198

> <Gold.Chemscore.DEInternal>
0.6548

> <Gold.Chemscore.Rot>
2.5377

> <Gold.Chemscore.Internal.Correction>
   9.000000E+99

> <Gold.Chemscore.Hbonds>
donor molecule, donor type, donor heavy atom, donor atom, acceptor molecule, acceptor atom, score
      P1  H 10752 10765       L1    12  0.71

> <Gold.Chemscore.Hbond.Weighted>
-3.0806

> <Gold.Chemscore.Metal.Weighted>
-0.0000

> <Gold.Chemscore.Lipo.Weighted>
-13.2334

> <Gold.Chemscore.Internal_Hbond.Weighted>
0.0000

> <Gold.Chemscore.DEClash.Weighted>
1.0198

> <Gold.Chemscore.DEInternal.Weighted>
0.6548

> <Gold.Chemscore.Rot.Weighted>
6.4966

> <Gold.Chemscore.Internal.Correction.Weighted>
   9.000000E+99

> <Gold.Protein.RotatedTorsions>
[ 6907 6896 6895 6894 ] final -111.47 input  -60.11 | X-H torsion
[ 7974 7965 7964 7962 ] final  -15.77 input  175.53 | X-H torsion
[ 8008 7997 7996 7995 ] final  108.47 input   59.86 | X-H torsion
[ 10167 10162 10161 10158 ] final -135.83 input  -65.29 | X-H torsion
[ 10718 10713 10712 10709 ] final  -20.54 input   66.30 | X-H torsion
[ 10763 10752 10751 10750 ] final -163.32 input  -60.55 | X-H torsion
[ 11005 11000 10999 10996 ] final   30.41 input  -57.11 | X-H torsion

> <Gold.Protein.ActiveResidues>
 VAL166  LYS551  ARG553  GLY616  TRP617  ASP618  TYR619  PRO620  LYS621  CYS622 
 ASP623  PHE694  ASN695  SER759  ASP760  ASP761  ALA762  ILE779  LEU786  VAL792 
 PHE793  MET794  SER795  GLU796  ALA797  LYS798  CYS799  TRP800  GLU811  SER814 

> <Gold.Protein.RotatedAtoms>
  150.7692  133.9231  159.3403 H   0  0  0  0  0  0  0  0  0  0  0  0  # atno 6907 bound_to 6896
  151.7121  135.0909  160.0279 H   0  0  0  0  0  0  0  0  0  0  0  0  # atno 6908 bound_to 6896
  152.3703  133.6372  159.6117 H   0  0  0  0  0  0  0  0  0  0  0  0  # atno 6909 bound_to 6896
  146.2017  140.3541  142.8421 H   0  0  0  0  0  0  0  0  0  0  0  0  # atno 7974 bound_to 7965
  156.1906  140.3076  155.9324 H   0  0  0  0  0  0  0  0  0  0  0  0  # atno 8008 bound_to 7997
  155.3183  140.0454  157.3055 H   0  0  0  0  0  0  0  0  0  0  0  0  # atno 8009 bound_to 7997
  154.5447  140.2272  155.8592 H   0  0  0  0  0  0  0  0  0  0  0  0  # atno 8010 bound_to 7997
  139.8739  143.6922  152.2636 H   0  0  0  0  0  0  0  0  0  0  0  0  # atno 10167 bound_to 10162
  156.5304  130.4654  149.6550 H   0  0  0  0  0  0  0  0  0  0  0  0  # atno 10718 bound_to 10713
  154.7133  135.3010  154.9163 H   0  0  0  0  0  0  0  0  0  0  0  0  # atno 10763 bound_to 10752
  154.0058  135.6701  153.4766 H   0  0  0  0  0  0  0  0  0  0  0  0  # atno 10764 bound_to 10752
  153.0773  135.5028  154.8344 H   0  0  0  0  0  0  0  0  0  0  0  0  # atno 10765 bound_to 10752
  140.2947  134.2824  155.7767 H   0  0  0  0  0  0  0  0  0  0  0  0  # atno 11005 bound_to 11000
  144.8699  140.7257  143.6054 LP  0  0  0  0  0  0  0  0  0  0  0  0  # atno 17320 bound_to 7965
  145.3460  139.1719  143.4460 LP  0  0  0  0  0  0  0  0  0  0  0  0  # atno 17321 bound_to 7965
  139.7258  144.7593  151.0881 LP  0  0  0  0  0  0  0  0  0  0  0  0  # atno 17342 bound_to 10162
  140.7756  143.5150  150.9606 LP  0  0  0  0  0  0  0  0  0  0  0  0  # atno 17343 bound_to 10162
  156.3065  130.7205  151.2089 LP  0  0  0  0  0  0  0  0  0  0  0  0  # atno 17370 bound_to 10713
  157.7422  131.0492  150.5037 LP  0  0  0  0  0  0  0  0  0  0  0  0  # atno 17371 bound_to 10713
  141.2139  133.7607  156.9677 LP  0  0  0  0  0  0  0  0  0  0  0  0  # atno 17394 bound_to 11000
  140.1163  134.9445  157.2139 LP  0  0  0  0  0  0  0  0  0  0  0  0  # atno 17395 bound_to 11000

$$$$
