AV-unprocessed.smi:2690|AV-procd|sdf|10389|dock9
  -GOLD-   2272014423D 1   1.00000     0.00000
 Structure written by MMmdl.
 47 49  0  0  0  0  0  0  0  0  1 V2000
  154.1088  141.6961  160.1524 C   0  0  0  0  0  0  0  0  0  0  0  0
  152.6965  142.0922  159.6997 C   0  0  2  0  0  0  0  0  0  0  0  0
  151.9510  140.8969  159.0764 C   0  0  0  0  0  0  0  0  0  0  0  0
  150.5421  141.2926  158.6006 C   0  0  0  0  0  0  0  0  0  0  0  0
  150.5593  142.4836  157.6156 C   0  0  2  0  0  0  0  0  0  0  0  0
  149.2136  142.8935  157.4562 O   0  0  0  0  0  0  0  0  0  0  0  0
  151.0908  142.0670  156.2161 C   0  0  0  0  0  0  0  0  0  0  0  0
  150.6080  140.7731  155.7535 N   0  0  0  0  0  0  0  0  0  0  0  0
  149.2985  140.4178  155.5138 C   0  0  0  0  0  0  0  0  0  0  0  0
  149.1171  139.1915  155.1049 N   0  0  0  0  0  0  0  0  0  0  0  0
  150.3984  138.6573  155.0699 C   0  0  0  0  0  0  0  0  0  0  0  0
  150.9242  137.3859  154.7219 C   0  0  0  0  0  0  0  0  0  0  0  0
  150.1118  136.3835  154.3182 N   0  0  0  0  0  0  0  0  0  0  0  0
  149.8432  135.2286  155.1708 C   0  0  0  0  0  0  0  0  0  0  0  0
  150.9435  135.0464  156.2297 C   0  0  0  0  0  0  0  0  0  0  0  0
  149.6981  133.9667  154.3105 C   0  0  0  0  0  0  0  0  0  0  0  0
  152.2687  137.2113  154.8156 N   0  0  0  0  0  0  0  0  0  0  0  0
  153.0486  138.2182  155.2210 C   0  0  0  0  0  0  0  0  0  0  0  0
  152.6965  139.4560  155.5756 N   0  0  0  0  0  0  0  0  0  0  0  0
  151.3477  139.6344  155.4814 C   0  0  0  0  0  0  0  0  0  0  0  0
  151.3222  143.6722  158.2481 C   0  0  0  0  0  0  0  0  0  0  0  0
  152.7338  143.2780  158.7177 C   0  0  0  0  0  0  0  0  0  0  0  0
  154.7174  141.3671  159.3097 H   0  0  0  0  0  0  0  0  0  0  0  0
  154.0750  140.8821  160.8770 H   0  0  0  0  0  0  0  0  0  0  0  0
  154.6199  142.5359  160.6240 H   0  0  0  0  0  0  0  0  0  0  0  0
  152.1437  142.4081  160.5855 H   0  0  0  0  0  0  0  0  0  0  0  0
  152.5262  140.4929  158.2431 H   0  0  0  0  0  0  0  0  0  0  0  0
  151.8712  140.0906  159.8064 H   0  0  0  0  0  0  0  0  0  0  0  0
  150.0491  140.4314  158.1477 H   0  0  0  0  0  0  0  0  0  0  0  0
  149.9472  141.5533  159.4777 H   0  0  0  0  0  0  0  0  0  0  0  0
  149.1282  143.3225  156.6186 H   0  0  0  0  0  0  0  0  0  0  0  0
  150.8236  142.8116  155.4666 H   0  0  0  0  0  0  0  0  0  0  0  0
  152.1811  142.0333  156.2242 H   0  0  0  0  0  0  0  0  0  0  0  0
  148.4748  141.1036  155.6484 H   0  0  0  0  0  0  0  0  0  0  0  0
  149.6944  136.3561  153.3990 H   0  0  0  0  0  0  0  0  0  0  0  0
  148.8909  135.3804  155.6801 H   0  0  0  0  0  0  0  0  0  0  0  0
  150.7341  134.1864  156.8663 H   0  0  0  0  0  0  0  0  0  0  0  0
  151.0257  135.9181  156.8792 H   0  0  0  0  0  0  0  0  0  0  0  0
  151.9170  134.8861  155.7655 H   0  0  0  0  0  0  0  0  0  0  0  0
  149.4587  133.0985  154.9252 H   0  0  0  0  0  0  0  0  0  0  0  0
  150.6179  133.7466  153.7674 H   0  0  0  0  0  0  0  0  0  0  0  0
  148.8977  134.0810  153.5787 H   0  0  0  0  0  0  0  0  0  0  0  0
  154.1055  138.0008  155.2674 H   0  0  0  0  0  0  0  0  0  0  0  0
  151.3793  144.5144  157.5582 H   0  0  0  0  0  0  0  0  0  0  0  0
  150.7667  144.0395  159.1127 H   0  0  0  0  0  0  0  0  0  0  0  0
  153.2091  144.1374  159.1919 H   0  0  0  0  0  0  0  0  0  0  0  0
  153.3546  143.0228  157.8594 H   0  0  0  0  0  0  0  0  0  0  0  0
  1  2  1  0  0  0  0
  1 23  1  0  0  0  0
  1 24  1  0  0  0  0
  1 25  1  0  0  0  0
  2 22  1  0  0  0  0
  2  3  1  0  0  0  0
  2 26  1  0  0  0  0
  3  4  1  0  0  0  0
  3 27  1  0  0  0  0
  3 28  1  0  0  0  0
  4  5  1  0  0  0  0
  4 29  1  0  0  0  0
  4 30  1  0  0  0  0
  5  6  1  0  0  0  0
  5  7  1  0  0  0  0
  5 21  1  0  0  0  0
  6 31  1  0  0  0  0
  7  8  1  0  0  0  0
  7 32  1  0  0  0  0
  7 33  1  0  0  0  0
  8 20  1  0  0  0  0
  8  9  1  0  0  0  0
  9 10  2  0  0  0  0
  9 34  1  0  0  0  0
 10 11  1  0  0  0  0
 11 20  2  0  0  0  0
 11 12  1  0  0  0  0
 12 13  1  0  0  0  0
 12 17  2  0  0  0  0
 13 14  1  0  0  0  0
 13 35  1  0  0  0  0
 14 15  1  0  0  0  0
 14 16  1  0  0  0  0
 14 36  1  0  0  0  0
 15 37  1  0  0  0  0
 15 38  1  0  0  0  0
 15 39  1  0  0  0  0
 16 40  1  0  0  0  0
 16 41  1  0  0  0  0
 16 42  1  0  0  0  0
 17 18  1  0  0  0  0
 18 19  2  0  0  0  0
 18 43  1  0  0  0  0
 19 20  1  0  0  0  0
 21 22  1  0  0  0  0
 21 44  1  0  0  0  0
 21 45  1  0  0  0  0
 22 46  1  0  0  0  0
 22 47  1  0  0  0  0
M  END
> <s_m_source_file>
AV-unprocessed.smi

> <i_m_source_file_index>
2690

> <i_lp_mmshare_version>
43012

> <i_f3d_flags>
0

> <s_epik_input>
W0NIMl0xW0NIMl1bQ0BIXShbQ0gzXSlbQ0gyXVtDSDJdW0NAQF0xKFtPSF0pW0NIMl1uKFtjSF1uMiljKGMyMyluW2NIXW5jM1tOSF1bQ0hdKFtDSDNdKVtDSDNd

> <s_epik_cmdline>
J2VwaWtfcHl0aG9uJywgJy1waCcsICc3LjAnLCAnLXRuJywgJzgnLCAnLW1hJywgJzIwMCcsICctbWV0YWxfYmluZGluZycsICctaW1hZScsICc8aW5maWxlLm1hZT4nLCAnLW9tYWUnLCAnPG91dGZpbGUubWFlPic=

> <r_lp_tautomer_probability>
1

> <r_epik_Ionization_Penalty>
0.00225104

> <r_epik_Ionization_Penalty_Charging>
0

> <r_epik_Ionization_Penalty_Neutral>
0.00225104

> <r_epik_State_Penalty>
-0

> <r_epik_Charging_Adjusted_Penalty>
0

> <i_epik_Tot_Q>
0

> <i_epik_Tot_abs_Q>
0

> <r_epik_Metal_State_Penalty>
-0

> <b_epik_Metal_Only>
0

> <s_lp_Force_Field>
OPLS_2005

> <r_lp_Energy>
15.1009

> <b_lp_Chiralities_Consistent>
1

> <s_lp_Variant>
AV-unprocessed.smi:2690-2

> <Gold.Version>
5.8.1

> <Gold.Id.Protein>
6NUR|6NUR_protein|mol2

> <Gold.PLP.Fitness>
53.5021

> <Gold.PLP.PLP>
-44.6101

> <Gold.PLP.part.hbond>
-5.0909

> <Gold.PLP.part.metal>
0.0000

> <Gold.PLP.part.buried>
-5.2210

> <Gold.PLP.part.nonpolar>
-36.0376

> <Gold.PLP.part.repulsive>
0.2288

> <Gold.PLP.ligand.clash>
0.0000

> <Gold.PLP.ligand.torsion>
1.2009

> <Gold.PLP.Chemscore.Hbond>
3.7520

> <Gold.PLP.Chemscore.CHOScore>
0.0000

> <Gold.PLP.Chemscore.Metal>
0.0000

> <Gold.Chemscore.Hbonds>
donor molecule, donor type, donor heavy atom, donor atom, acceptor molecule, acceptor atom, score
      L1  H     6    31       P1  8028  1.00
      L1  H    13    35       P1  7948  1.00
      P1  H  7997  8010       L1    19  1.00
      P1  H 10752 10764       L1    17  0.77

> <Gold.PLP.Chemscore.Internal.Correction>
0.0378

> <Gold.Rescore>
     Score         DG    S(hbond)    S(metal)    S(lipo)     H(rot)  DE(clash)    DE(int)     intcor
     18.68     -21.48       3.08        0.00      93.82       2.05       0.34       2.47       ----

> <Gold.Chemscore.Fitness>
18.6757

> <Gold.Chemscore.DG>
-21.4839

> <Gold.Chemscore.ZeroCoef>
-5.4800

> <Gold.Chemscore.Hbond>
3.0784

> <Gold.Chemscore.Metal>
0.0000

> <Gold.Chemscore.Lipo>
93.8180

> <Gold.Chemscore.Internal_Hbond>
0.0000

> <Gold.Chemscore.DEClash>
0.3379

> <Gold.Chemscore.DEInternal>
2.4703

> <Gold.Chemscore.Rot>
2.0526

> <Gold.Chemscore.Internal.Correction>
   9.000000E+99

> <Gold.Chemscore.Hbonds>
donor molecule, donor type, donor heavy atom, donor atom, acceptor molecule, acceptor atom, score
      L1  H     6    31       P1  8028  0.93
      L1  H    13    35       P1  7948  0.30
      P1  H  7997  8010       L1    19  0.28
      P1  H 10752 10764       L1    17  0.72

> <Gold.Chemscore.Hbond.Weighted>
-10.2818

> <Gold.Chemscore.Metal.Weighted>
-0.0000

> <Gold.Chemscore.Lipo.Weighted>
-10.9767

> <Gold.Chemscore.Internal_Hbond.Weighted>
0.0000

> <Gold.Chemscore.DEClash.Weighted>
0.3379

> <Gold.Chemscore.DEInternal.Weighted>
2.4703

> <Gold.Chemscore.Rot.Weighted>
5.2546

> <Gold.Chemscore.Internal.Correction.Weighted>
   9.000000E+99

> <Gold.Protein.RotatedTorsions>
[ 6907 6896 6895 6894 ] final -152.05 input  -60.11 | X-H torsion
[ 7974 7965 7964 7962 ] final  -57.66 input  175.53 | X-H torsion
[ 8008 7997 7996 7995 ] final   69.99 input   59.86 | X-H torsion
[ 10167 10162 10161 10158 ] final   -1.43 input  -65.29 | X-H torsion
[ 10718 10713 10712 10709 ] final -147.57 input   66.30 | X-H torsion
[ 10763 10752 10751 10750 ] final  -62.87 input  -60.55 | X-H torsion
[ 11005 11000 10999 10996 ] final -104.73 input  -57.11 | X-H torsion

> <Gold.Protein.ActiveResidues>
 VAL166  LYS551  ARG553  GLY616  TRP617  ASP618  TYR619  PRO620  LYS621  CYS622 
 ASP623  PHE694  ASN695  SER759  ASP760  ASP761  ALA762  ILE779  LEU786  VAL792 
 PHE793  MET794  SER795  GLU796  ALA797  LYS798  CYS799  TRP800  GLU811  SER814 

> <Gold.Protein.RotatedAtoms>
  151.2220  133.4497  159.2600 H   0  0  0  0  0  0  0  0  0  0  0  0  # atno 6907 bound_to 6896
  151.0875  134.9896  159.8397 H   0  0  0  0  0  0  0  0  0  0  0  0  # atno 6908 bound_to 6896
  152.5431  134.2156  159.8820 H   0  0  0  0  0  0  0  0  0  0  0  0  # atno 6909 bound_to 6896
  145.8484  140.8369  142.9998 H   0  0  0  0  0  0  0  0  0  0  0  0  # atno 7974 bound_to 7965
  155.7320  140.3492  155.5064 H   0  0  0  0  0  0  0  0  0  0  0  0  # atno 8008 bound_to 7997
  155.9174  140.1061  157.1255 H   0  0  0  0  0  0  0  0  0  0  0  0  # atno 8009 bound_to 7997
  154.4064  140.1256  156.4622 H   0  0  0  0  0  0  0  0  0  0  0  0  # atno 8010 bound_to 7997
  140.6810  143.6776  150.8132 H   0  0  0  0  0  0  0  0  0  0  0  0  # atno 10167 bound_to 10162
  156.4092  130.7973  151.2189 H   0  0  0  0  0  0  0  0  0  0  0  0  # atno 10718 bound_to 10713
  154.3064  135.6224  153.5446 H   0  0  0  0  0  0  0  0  0  0  0  0  # atno 10763 bound_to 10752
  152.9834  135.5690  154.5227 H   0  0  0  0  0  0  0  0  0  0  0  0  # atno 10764 bound_to 10752
  154.4867  135.2865  155.1505 H   0  0  0  0  0  0  0  0  0  0  0  0  # atno 10765 bound_to 10752
  141.1087  133.8748  157.1647 H   0  0  0  0  0  0  0  0  0  0  0  0  # atno 11005 bound_to 11000
  144.6730  140.0917  143.7465 LP  0  0  0  0  0  0  0  0  0  0  0  0  # atno 17320 bound_to 7965
  145.9385  139.2653  143.1283 LP  0  0  0  0  0  0  0  0  0  0  0  0  # atno 17321 bound_to 7965
  140.0477  143.5282  152.2688 LP  0  0  0  0  0  0  0  0  0  0  0  0  # atno 17342 bound_to 10162
  139.6132  144.7613  151.2905 LP  0  0  0  0  0  0  0  0  0  0  0  0  # atno 17343 bound_to 10162
  157.7506  131.0263  150.3955 LP  0  0  0  0  0  0  0  0  0  0  0  0  # atno 17370 bound_to 10713
  156.4250  130.3960  149.6799 LP  0  0  0  0  0  0  0  0  0  0  0  0  # atno 17371 bound_to 10713
  139.9969  135.0043  157.0103 LP  0  0  0  0  0  0  0  0  0  0  0  0  # atno 17394 bound_to 11000
  140.4834  134.1266  155.7220 LP  0  0  0  0  0  0  0  0  0  0  0  0  # atno 17395 bound_to 11000

$$$$
