AV-unprocessed.smi:2083|AV-procd|sdf|8495|dock9
  -GOLD-   2272011203D 1   1.00000     0.00000
 Structure written by MMmdl.
 45 46  0  0  0  0  0  0  0  0  2 V2000
  143.4250  143.5721  162.5876 C   0  0  0  0  0  0  0  0  0  0  0  0
  144.3154  144.1532  161.5437 C   0  0  0  0  0  0  0  0  0  0  0  0
  145.6616  144.0761  161.3204 C   0  0  0  0  0  0  0  0  0  0  0  0
  145.8383  144.8694  160.1557 C   0  0  0  0  0  0  0  0  0  0  0  0
  147.1249  145.0521  159.5870 N   0  0  0  0  0  0  0  0  0  0  0  0
  148.3070  144.6716  160.1007 C   0  0  0  0  0  0  0  0  0  0  0  0
  148.4612  144.1081  161.1846 O   0  0  0  0  0  0  0  0  0  0  0  0
  149.3215  144.9882  159.2819 N   0  0  0  0  0  0  0  0  0  0  0  0
  150.7295  144.6844  159.5253 C   0  0  0  0  0  0  0  0  0  0  0  0
  151.4901  144.3013  158.2294 C   0  0  1  0  0  0  0  0  0  0  0  0
  152.8612  144.9922  158.0953 C   0  0  0  0  0  0  0  0  0  0  0  0
  151.6336  142.8262  158.0515 N   0  3  1  0  0  0  0  0  0  0  0  0
  152.3830  142.1227  159.1281 C   0  0  0  0  0  0  0  0  0  0  0  0
  152.6933  140.6751  158.7176 C   0  0  0  0  0  0  0  0  0  0  0  0
  151.4059  139.9188  158.3574 C   0  0  0  0  0  0  0  0  0  0  0  0
  150.5886  140.6761  157.2938 C   0  0  2  0  0  0  0  0  0  0  0  0
  151.2073  140.5787  155.8883 C   0  0  0  0  0  0  0  0  0  0  0  0
  150.3540  142.1382  157.7286 C   0  0  0  0  0  0  0  0  0  0  0  0
  144.7029  145.3829  159.7075 N   0  0  0  0  0  0  0  0  0  0  0  0
  143.7213  144.9268  160.5952 O   0  0  0  0  0  0  0  0  0  0  0  0
  143.9915  142.9514  163.2820 H   0  0  0  0  0  0  0  0  0  0  0  0
  142.6511  142.9530  162.1340 H   0  0  0  0  0  0  0  0  0  0  0  0
  142.9362  144.3602  163.1605 H   0  0  0  0  0  0  0  0  0  0  0  0
  146.3978  143.5388  161.8995 H   0  0  0  0  0  0  0  0  0  0  0  0
  147.1443  145.5123  158.6890 H   0  0  0  0  0  0  0  0  0  0  0  0
  149.1008  145.4510  158.4121 H   0  0  0  0  0  0  0  0  0  0  0  0
  151.2077  145.5279  160.0249 H   0  0  0  0  0  0  0  0  0  0  0  0
  150.7567  143.8589  160.2359 H   0  0  0  0  0  0  0  0  0  0  0  0
  150.8996  144.6611  157.3853 H   0  0  0  0  0  0  0  0  0  0  0  0
  152.7529  146.0717  157.9896 H   0  0  0  0  0  0  0  0  0  0  0  0
  153.3955  144.6390  157.2129 H   0  0  0  0  0  0  0  0  0  0  0  0
  153.4948  144.8136  158.9640 H   0  0  0  0  0  0  0  0  0  0  0  0
  153.3182  142.6385  159.3437 H   0  0  0  0  0  0  0  0  0  0  0  0
  151.8003  142.1190  160.0501 H   0  0  0  0  0  0  0  0  0  0  0  0
  153.3801  140.6703  157.8708 H   0  0  0  0  0  0  0  0  0  0  0  0
  153.2081  140.1617  159.5304 H   0  0  0  0  0  0  0  0  0  0  0  0
  151.6413  138.9106  158.0146 H   0  0  0  0  0  0  0  0  0  0  0  0
  150.8008  139.8001  159.2570 H   0  0  0  0  0  0  0  0  0  0  0  0
  149.6122  140.1937  157.2317 H   0  0  0  0  0  0  0  0  0  0  0  0
  152.1838  141.0604  155.8378 H   0  0  0  0  0  0  0  0  0  0  0  0
  150.5671  141.0554  155.1457 H   0  0  0  0  0  0  0  0  0  0  0  0
  151.3351  139.5381  155.5886 H   0  0  0  0  0  0  0  0  0  0  0  0
  149.7020  142.1569  158.6026 H   0  0  0  0  0  0  0  0  0  0  0  0
  149.8273  142.6720  156.9367 H   0  0  0  0  0  0  0  0  0  0  0  0
  152.1978  142.7242  157.2199 H   0  0  0  0  0  0  0  0  0  0  0  0
  1  2  1  0  0  0  0
  1 21  1  0  0  0  0
  1 22  1  0  0  0  0
  1 23  1  0  0  0  0
  2 20  1  0  0  0  0
  2  3  2  0  0  0  0
  3  4  1  0  0  0  0
  3 24  1  0  0  0  0
  4  5  1  0  0  0  0
  4 19  2  0  0  0  0
  5  6  1  0  0  0  0
  5 25  1  0  0  0  0
  6  7  2  0  0  0  0
  6  8  1  0  0  0  0
  8  9  1  0  0  0  0
  8 26  1  0  0  0  0
  9 10  1  0  0  0  0
  9 27  1  0  0  0  0
  9 28  1  0  0  0  0
 10 11  1  0  0  0  0
 10 12  1  0  0  0  0
 10 29  1  0  0  0  0
 11 30  1  0  0  0  0
 11 31  1  0  0  0  0
 11 32  1  0  0  0  0
 12 18  1  0  0  0  0
 12 13  1  0  0  0  0
 12 45  1  0  0  0  0
 13 14  1  0  0  0  0
 13 33  1  0  0  0  0
 13 34  1  0  0  0  0
 14 15  1  0  0  0  0
 14 35  1  0  0  0  0
 14 36  1  0  0  0  0
 15 16  1  0  0  0  0
 15 37  1  0  0  0  0
 15 38  1  0  0  0  0
 16 17  1  0  0  0  0
 16 18  1  0  0  0  0
 16 39  1  0  0  0  0
 17 40  1  0  0  0  0
 17 41  1  0  0  0  0
 17 42  1  0  0  0  0
 18 43  1  0  0  0  0
 18 44  1  0  0  0  0
 19 20  1  0  0  0  0
M  CHG  1  12   1
M  END
> <s_m_source_file>
AV-unprocessed.smi

> <i_m_source_file_index>
2083

> <i_lp_mmshare_version>
43012

> <i_f3d_flags>
0

> <s_epik_input>
W0NIM11jMVtjSF1jKG5vMSlbTkhdQyg9TylbTkhdW0NIMl1bQ0BIXShbQ0gzXSlOMltDSDJdW0NIMl1bQ0gyXVtDQEBIXShbQ0gzXSlbQ0gyXTI=

> <s_epik_cmdline>
J2VwaWtfcHl0aG9uJywgJy1waCcsICc3LjAnLCAnLXRuJywgJzgnLCAnLW1hJywgJzIwMCcsICctbWV0YWxfYmluZGluZycsICctaW1hZScsICc8aW5maWxlLm1hZT4nLCAnLW9tYWUnLCAnPG91dGZpbGUubWFlPic=

> <r_epik_Ionization_Penalty>
0.00216453

> <r_epik_Ionization_Penalty_Charging>
0.00212879

> <r_epik_Ionization_Penalty_Neutral>
3.57418e-05

> <r_epik_State_Penalty>
0.00146033

> <r_epik_Charging_Adjusted_Penalty>
0.00358912

> <i_epik_Tot_Q>
1

> <i_epik_Tot_abs_Q>
1

> <r_epik_Metal_State_Penalty>
0.0215827

> <b_epik_Metal_Only>
0

> <s_lp_Force_Field>
OPLS_2005

> <r_lp_Energy>
20.2755

> <b_lp_Chiralities_Consistent>
1

> <s_lp_Variant>
AV-unprocessed.smi:2083-6

> <Gold.Version>
5.8.1

> <Gold.Id.Protein>
6NUR|6NUR_protein|mol2

> <Gold.PLP.Fitness>
46.6975

> <Gold.PLP.PLP>
-39.6704

> <Gold.PLP.part.hbond>
-3.0000

> <Gold.PLP.part.metal>
0.0000

> <Gold.PLP.part.buried>
-6.3504

> <Gold.PLP.part.nonpolar>
-30.7963

> <Gold.PLP.part.repulsive>
0.8601

> <Gold.PLP.ligand.clash>
0.0000

> <Gold.PLP.ligand.torsion>
0.8911

> <Gold.PLP.Chemscore.Hbond>
2.8960

> <Gold.PLP.Chemscore.CHOScore>
0.0000

> <Gold.PLP.Chemscore.Metal>
0.0000

> <Gold.Chemscore.Hbonds>
donor molecule, donor type, donor heavy atom, donor atom, acceptor molecule, acceptor atom, score
      L1  H     5    25       P1  8029  1.00
      L1  H     8    26       P1  8029  0.99
      P1  H  6933  6944       L1     7  0.91

> <Gold.PLP.Chemscore.Internal.Correction>
0.1212

> <Gold.Rescore>
     Score         DG    S(hbond)    S(metal)    S(lipo)     H(rot)  DE(clash)    DE(int)     intcor
     20.31     -22.54       2.89        0.00      97.17       1.55       0.00       2.23       ----

> <Gold.Chemscore.Fitness>
20.3089

> <Gold.Chemscore.DG>
-22.5400

> <Gold.Chemscore.ZeroCoef>
-5.4800

> <Gold.Chemscore.Hbond>
2.8900

> <Gold.Chemscore.Metal>
0.0000

> <Gold.Chemscore.Lipo>
97.1692

> <Gold.Chemscore.Internal_Hbond>
0.0000

> <Gold.Chemscore.DEClash>
0.0015

> <Gold.Chemscore.DEInternal>
2.2297

> <Gold.Chemscore.Rot>
1.5474

> <Gold.Chemscore.Internal.Correction>
   9.000000E+99

> <Gold.Chemscore.Hbonds>
donor molecule, donor type, donor heavy atom, donor atom, acceptor molecule, acceptor atom, score
      L1  H     5    25       P1  8029  0.97
      L1  H     8    26       P1  8029  0.88
      P1  H  6933  6944       L1     7  0.89

> <Gold.Chemscore.Hbond.Weighted>
-9.6525

> <Gold.Chemscore.Metal.Weighted>
-0.0000

> <Gold.Chemscore.Lipo.Weighted>
-11.3688

> <Gold.Chemscore.Internal_Hbond.Weighted>
0.0000

> <Gold.Chemscore.DEClash.Weighted>
0.0015

> <Gold.Chemscore.DEInternal.Weighted>
2.2297

> <Gold.Chemscore.Rot.Weighted>
3.9612

> <Gold.Chemscore.Internal.Correction.Weighted>
   9.000000E+99

> <Gold.Protein.RotatedTorsions>
[ 6907 6896 6895 6894 ] final  -22.46 input  -60.11 | X-H torsion
[ 7974 7965 7964 7962 ] final   82.11 input  175.53 | X-H torsion
[ 8008 7997 7996 7995 ] final  -34.14 input   59.86 | X-H torsion
[ 10167 10162 10161 10158 ] final -156.90 input  -65.29 | X-H torsion
[ 10718 10713 10712 10709 ] final   24.10 input   66.30 | X-H torsion
[ 10763 10752 10751 10750 ] final   42.55 input  -60.55 | X-H torsion
[ 11005 11000 10999 10996 ] final  -80.26 input  -57.11 | X-H torsion

> <Gold.Protein.ActiveResidues>
 VAL166  LYS551  ARG553  GLY616  TRP617  ASP618  TYR619  PRO620  LYS621  CYS622 
 ASP623  PHE694  ASN695  SER759  ASP760  ASP761  ALA762  ILE779  LEU786  VAL792 
 PHE793  MET794  SER795  GLU796  ALA797  LYS798  CYS799  TRP800  GLU811  SER814 

> <Gold.Protein.RotatedAtoms>
  151.2183  135.0508  159.8938 H   0  0  0  0  0  0  0  0  0  0  0  0  # atno 6907 bound_to 6896
  152.5418  134.0669  159.8187 H   0  0  0  0  0  0  0  0  0  0  0  0  # atno 6908 bound_to 6896
  151.0831  133.5326  159.2651 H   0  0  0  0  0  0  0  0  0  0  0  0  # atno 6909 bound_to 6896
  145.6293  139.2401  143.2094 H   0  0  0  0  0  0  0  0  0  0  0  0  # atno 7974 bound_to 7965
  154.4129  140.1692  156.2002 H   0  0  0  0  0  0  0  0  0  0  0  0  # atno 8008 bound_to 7997
  155.9530  140.3399  155.6401 H   0  0  0  0  0  0  0  0  0  0  0  0  # atno 8009 bound_to 7997
  155.6845  140.0726  157.2462 H   0  0  0  0  0  0  0  0  0  0  0  0  # atno 8010 bound_to 7997
  139.6813  143.9576  152.2338 H   0  0  0  0  0  0  0  0  0  0  0  0  # atno 10167 bound_to 10162
  157.1752  130.6777  149.6092 H   0  0  0  0  0  0  0  0  0  0  0  0  # atno 10718 bound_to 10713
  152.9880  135.6128  154.2968 H   0  0  0  0  0  0  0  0  0  0  0  0  # atno 10763 bound_to 10752
  154.2691  135.2780  155.2748 H   0  0  0  0  0  0  0  0  0  0  0  0  # atno 10764 bound_to 10752
  154.5138  135.5833  153.6683 H   0  0  0  0  0  0  0  0  0  0  0  0  # atno 10765 bound_to 10752
  141.1668  133.7142  156.8246 H   0  0  0  0  0  0  0  0  0  0  0  0  # atno 11005 bound_to 11000
  146.1369  140.7110  142.9385 LP  0  0  0  0  0  0  0  0  0  0  0  0  # atno 17320 bound_to 7965
  144.7200  140.4340  143.7015 LP  0  0  0  0  0  0  0  0  0  0  0  0  # atno 17321 bound_to 7965
  139.9367  144.6708  150.8308 LP  0  0  0  0  0  0  0  0  0  0  0  0  # atno 17342 bound_to 10162
  140.7653  143.3272  151.2490 LP  0  0  0  0  0  0  0  0  0  0  0  0  # atno 17343 bound_to 10162
  155.9732  130.4665  150.6293 LP  0  0  0  0  0  0  0  0  0  0  0  0  # atno 17370 bound_to 10713
  157.4005  131.0809  151.1312 LP  0  0  0  0  0  0  0  0  0  0  0  0  # atno 17371 bound_to 10713
  140.2095  134.8838  157.3258 LP  0  0  0  0  0  0  0  0  0  0  0  0  # atno 17394 bound_to 11000
  140.2102  134.4148  155.7617 LP  0  0  0  0  0  0  0  0  0  0  0  0  # atno 17395 bound_to 11000

$$$$
