AV-unprocessed.smi:2879|AV-procd|sdf|11050|dock3
  -GOLD-   2272015513D 1   1.00000     0.00000
 Structure written by MMmdl.
 44 45  0  0  0  0  0  0  0  0  1 V2000
  147.4720  142.0857  153.7661 C   0  0  0  0  0  0  0  0  0  0  0  0
  148.2926  140.8300  153.7946 C   0  0  0  0  0  0  0  0  0  0  0  0
  149.4822  140.5717  154.5368 C   0  0  0  0  0  0  0  0  0  0  0  0
  149.8182  139.2894  154.2032 C   0  0  0  0  0  0  0  0  0  0  0  0
  150.9554  138.4213  154.6416 C   0  0  0  0  0  0  0  0  0  0  0  0
  151.9468  139.1791  155.5296 C   0  0  0  0  0  0  0  0  0  0  0  0
  152.7888  139.9250  155.0282 O   0  0  0  0  0  0  0  0  0  0  0  0
  151.8277  138.9839  156.8524 N   0  0  0  0  0  0  0  0  0  0  0  0
  152.6685  139.5878  157.8823 C   0  0  0  0  0  0  0  0  0  0  0  0
  152.0180  140.8328  158.5221 C   0  0  0  0  0  0  0  0  0  0  0  0
  151.3495  141.7615  157.4862 C   0  0  0  0  0  0  0  0  0  0  0  0
  150.7419  143.0148  158.1416 C   0  0  0  0  0  0  0  0  0  0  0  0
  151.7550  143.8215  158.9887 C   0  0  0  0  0  0  0  0  0  0  0  0
  152.7997  144.5151  158.0870 C   0  0  0  0  0  0  0  0  0  0  0  0
  150.9982  144.9173  159.7639 C   0  0  0  0  0  0  0  0  0  0  0  0
  152.4391  142.8712  160.0007 C   0  0  0  0  0  0  0  0  0  0  0  0
  153.0541  141.6223  159.3444 C   0  0  0  0  0  0  0  0  0  0  0  0
  148.8532  138.8594  153.3196 N   0  0  0  0  0  0  0  0  0  0  0  0
  147.9183  139.7923  153.0611 N   0  0  0  0  0  0  0  0  0  0  0  0
  148.8238  137.9472  152.8869 H   0  0  0  0  0  0  0  0  0  0  0  0
  147.8618  142.8269  154.4641 H   0  0  0  0  0  0  0  0  0  0  0  0
  146.4361  141.8850  154.0402 H   0  0  0  0  0  0  0  0  0  0  0  0
  147.4740  142.5326  152.7716 H   0  0  0  0  0  0  0  0  0  0  0  0
  150.0091  141.2297  155.2121 H   0  0  0  0  0  0  0  0  0  0  0  0
  151.4667  138.0180  153.7661 H   0  0  0  0  0  0  0  0  0  0  0  0
  150.5755  137.5660  155.2012 H   0  0  0  0  0  0  0  0  0  0  0  0
  151.1012  138.3598  157.1724 H   0  0  0  0  0  0  0  0  0  0  0  0
  152.8305  138.8277  158.6472 H   0  0  0  0  0  0  0  0  0  0  0  0
  153.6569  139.8332  157.4894 H   0  0  0  0  0  0  0  0  0  0  0  0
  151.2450  140.4880  159.2108 H   0  0  0  0  0  0  0  0  0  0  0  0
  152.0737  142.0508  156.7243 H   0  0  0  0  0  0  0  0  0  0  0  0
  150.5568  141.2298  156.9605 H   0  0  0  0  0  0  0  0  0  0  0  0
  150.3034  143.6523  157.3729 H   0  0  0  0  0  0  0  0  0  0  0  0
  149.9118  142.6993  158.7753 H   0  0  0  0  0  0  0  0  0  0  0  0
  153.5079  145.0957  158.6792 H   0  0  0  0  0  0  0  0  0  0  0  0
  152.3219  145.2012  157.3867 H   0  0  0  0  0  0  0  0  0  0  0  0
  153.3794  143.8068  157.4967 H   0  0  0  0  0  0  0  0  0  0  0  0
  151.6765  145.5068  160.3819 H   0  0  0  0  0  0  0  0  0  0  0  0
  150.2418  144.4915  160.4243 H   0  0  0  0  0  0  0  0  0  0  0  0
  150.4903  145.6045  159.0862 H   0  0  0  0  0  0  0  0  0  0  0  0
  153.2079  143.4067  160.5593 H   0  0  0  0  0  0  0  0  0  0  0  0
  151.7071  142.5434  160.7405 H   0  0  0  0  0  0  0  0  0  0  0  0
  153.4711  140.9811  160.1217 H   0  0  0  0  0  0  0  0  0  0  0  0
  153.8934  141.9082  158.7101 H   0  0  0  0  0  0  0  0  0  0  0  0
  1 21  1  0  0  0  0
  1 22  1  0  0  0  0
  1 23  1  0  0  0  0
  1  2  1  0  0  0  0
  2 19  2  0  0  0  0
  2  3  1  0  0  0  0
  3  4  2  0  0  0  0
  3 24  1  0  0  0  0
  4 18  1  0  0  0  0
  4  5  1  0  0  0  0
  5  6  1  0  0  0  0
  5 25  1  0  0  0  0
  5 26  1  0  0  0  0
  6  7  2  0  0  0  0
  6  8  1  0  0  0  0
  8  9  1  0  0  0  0
  8 27  1  0  0  0  0
  9 10  1  0  0  0  0
  9 28  1  0  0  0  0
  9 29  1  0  0  0  0
 10 17  1  0  0  0  0
 10 11  1  0  0  0  0
 10 30  1  0  0  0  0
 11 12  1  0  0  0  0
 11 31  1  0  0  0  0
 11 32  1  0  0  0  0
 12 13  1  0  0  0  0
 12 33  1  0  0  0  0
 12 34  1  0  0  0  0
 13 14  1  0  0  0  0
 13 15  1  0  0  0  0
 13 16  1  0  0  0  0
 14 35  1  0  0  0  0
 14 36  1  0  0  0  0
 14 37  1  0  0  0  0
 15 38  1  0  0  0  0
 15 39  1  0  0  0  0
 15 40  1  0  0  0  0
 16 17  1  0  0  0  0
 16 41  1  0  0  0  0
 16 42  1  0  0  0  0
 17 43  1  0  0  0  0
 17 44  1  0  0  0  0
 18 19  1  0  0  0  0
 18 20  1  0  0  0  0
M  END
> <s_m_source_file>
AV-unprocessed.smi

> <i_m_source_file_index>
2879

> <i_lp_mmshare_version>
43012

> <i_f3d_flags>
0

> <s_epik_input>
W0NIM11jMVtjSF1jKG5bbkhdMSlbQ0gyXUMoPU8pW05IXVtDSDJdW0NIXShbQ0gyXVtDSDJdMilbQ0gyXVtDSDJdQzIoW0NIM10pW0NIM10=

> <s_epik_cmdline>
J2VwaWtfcHl0aG9uJywgJy1waCcsICc3LjAnLCAnLXRuJywgJzgnLCAnLW1hJywgJzIwMCcsICctbWV0YWxfYmluZGluZycsICctaW1hZScsICc8aW5maWxlLm1hZT4nLCAnLW9tYWUnLCAnPG91dGZpbGUubWFlPic=

> <r_lp_tautomer_probability>
0.5

> <r_epik_Ionization_Penalty>
0.000119486

> <r_epik_Ionization_Penalty_Charging>
0

> <r_epik_Ionization_Penalty_Neutral>
0.000119486

> <r_epik_State_Penalty>
0.41068

> <r_epik_Charging_Adjusted_Penalty>
0.41068

> <i_epik_Tot_Q>
0

> <i_epik_Tot_abs_Q>
0

> <r_epik_Metal_State_Penalty>
0.41066

> <b_epik_Metal_Only>
0

> <s_lp_Force_Field>
OPLS_2005

> <r_lp_Energy>
12.3825

> <b_lp_Chiralities_Consistent>
1

> <s_lp_Variant>
AV-unprocessed.smi:2879-2

> <Gold.Version>
5.8.1

> <Gold.Id.Protein>
6NUR|6NUR_protein|mol2

> <Gold.PLP.Fitness>
52.5431

> <Gold.PLP.PLP>
-46.1626

> <Gold.PLP.part.hbond>
-4.0000

> <Gold.PLP.part.metal>
0.0000

> <Gold.PLP.part.buried>
-4.9607

> <Gold.PLP.part.nonpolar>
-39.4009

> <Gold.PLP.part.repulsive>
1.9008

> <Gold.PLP.ligand.clash>
0.0000

> <Gold.PLP.ligand.torsion>
0.5789

> <Gold.PLP.Chemscore.Hbond>
2.5061

> <Gold.PLP.Chemscore.CHOScore>
0.0000

> <Gold.PLP.Chemscore.Metal>
0.0000

> <Gold.Chemscore.Hbonds>
donor molecule, donor type, donor heavy atom, donor atom, acceptor molecule, acceptor atom, score
      L1  H    18    20       P1  7948  1.00
      P1  H  7989  7998       L1     7  0.38
      P1  H  7997  8010       L1     7  1.00

> <Gold.PLP.Chemscore.Internal.Correction>
0.0201

> <Gold.Rescore>
     Score         DG    S(hbond)    S(metal)    S(lipo)     H(rot)  DE(clash)    DE(int)     intcor
     21.71     -22.72       2.19        0.00     118.82       1.55       0.34       0.68       ----

> <Gold.Chemscore.Fitness>
21.7099

> <Gold.Chemscore.DG>
-22.7230

> <Gold.Chemscore.ZeroCoef>
-5.4800

> <Gold.Chemscore.Hbond>
2.1875

> <Gold.Chemscore.Metal>
0.0000

> <Gold.Chemscore.Lipo>
118.8198

> <Gold.Chemscore.Internal_Hbond>
0.0000

> <Gold.Chemscore.DEClash>
0.3380

> <Gold.Chemscore.DEInternal>
0.6752

> <Gold.Chemscore.Rot>
1.5489

> <Gold.Chemscore.Internal.Correction>
   9.000000E+99

> <Gold.Chemscore.Hbonds>
donor molecule, donor type, donor heavy atom, donor atom, acceptor molecule, acceptor atom, score
      L1  H    18    20       P1  7948  0.98
      P1  H  7989  7998       L1     7  0.13
      P1  H  7997  8010       L1     7  0.92

> <Gold.Chemscore.Hbond.Weighted>
-7.3063

> <Gold.Chemscore.Metal.Weighted>
-0.0000

> <Gold.Chemscore.Lipo.Weighted>
-13.9019

> <Gold.Chemscore.Internal_Hbond.Weighted>
0.0000

> <Gold.Chemscore.DEClash.Weighted>
0.3380

> <Gold.Chemscore.DEInternal.Weighted>
0.6752

> <Gold.Chemscore.Rot.Weighted>
3.9652

> <Gold.Chemscore.Internal.Correction.Weighted>
   9.000000E+99

> <Gold.Protein.RotatedTorsions>
[ 6907 6896 6895 6894 ] final  -59.24 input  -60.11 | X-H torsion
[ 7974 7965 7964 7962 ] final   57.39 input  175.53 | X-H torsion
[ 8008 7997 7996 7995 ] final   93.05 input   59.86 | X-H torsion
[ 10167 10162 10161 10158 ] final  137.59 input  -65.29 | X-H torsion
[ 10718 10713 10712 10709 ] final   87.73 input   66.30 | X-H torsion
[ 10763 10752 10751 10750 ] final   20.44 input  -60.55 | X-H torsion
[ 11005 11000 10999 10996 ] final    4.72 input  -57.11 | X-H torsion

> <Gold.Protein.ActiveResidues>
 VAL166  LYS551  ARG553  GLY616  TRP617  ASP618  TYR619  PRO620  LYS621  CYS622 
 ASP623  PHE694  ASN695  SER759  ASP760  ASP761  ALA762  ILE779  LEU786  VAL792 
 PHE793  MET794  SER795  GLU796  ALA797  LYS798  CYS799  TRP800  GLU811  SER814 

> <Gold.Protein.RotatedAtoms>
  150.7945  134.6994  159.6541 H   0  0  0  0  0  0  0  0  0  0  0  0  # atno 6907 bound_to 6896
  152.4056  134.6210  160.0060 H   0  0  0  0  0  0  0  0  0  0  0  0  # atno 6908 bound_to 6896
  151.6468  133.3286  159.3179 H   0  0  0  0  0  0  0  0  0  0  0  0  # atno 6909 bound_to 6896
  145.9296  139.3796  143.0429 H   0  0  0  0  0  0  0  0  0  0  0  0  # atno 7974 bound_to 7965
  156.0423  140.3318  155.7258 H   0  0  0  0  0  0  0  0  0  0  0  0  # atno 8008 bound_to 7997
  155.5725  140.0629  157.2820 H   0  0  0  0  0  0  0  0  0  0  0  0  # atno 8009 bound_to 7997
  154.4398  140.1858  156.0882 H   0  0  0  0  0  0  0  0  0  0  0  0  # atno 8010 bound_to 7997
  139.5139  144.6401  151.5591 H   0  0  0  0  0  0  0  0  0  0  0  0  # atno 10167 bound_to 10162
  157.6943  131.0267  150.3168 H   0  0  0  0  0  0  0  0  0  0  0  0  # atno 10718 bound_to 10713
  153.1077  135.6689  153.9556 H   0  0  0  0  0  0  0  0  0  0  0  0  # atno 10763 bound_to 10752
  153.9108  135.3025  155.3450 H   0  0  0  0  0  0  0  0  0  0  0  0  # atno 10764 bound_to 10752
  154.7498  135.5040  153.9345 H   0  0  0  0  0  0  0  0  0  0  0  0  # atno 10765 bound_to 10752
  140.5788  134.0032  155.8039 H   0  0  0  0  0  0  0  0  0  0  0  0  # atno 11005 bound_to 11000
  145.8444  140.9563  143.0782 LP  0  0  0  0  0  0  0  0  0  0  0  0  # atno 17320 bound_to 7965
  144.6763  140.0326  143.7482 LP  0  0  0  0  0  0  0  0  0  0  0  0  # atno 17321 bound_to 7965
  140.6165  143.9339  150.6492 LP  0  0  0  0  0  0  0  0  0  0  0  0  # atno 17342 bound_to 10162
  140.2598  143.3532  152.1332 LP  0  0  0  0  0  0  0  0  0  0  0  0  # atno 17343 bound_to 10162
  156.3661  130.3855  149.7212 LP  0  0  0  0  0  0  0  0  0  0  0  0  # atno 17370 bound_to 10713
  156.4642  130.7966  151.2986 LP  0  0  0  0  0  0  0  0  0  0  0  0  # atno 17371 bound_to 10713
  141.1009  133.9769  157.3080 LP  0  0  0  0  0  0  0  0  0  0  0  0  # atno 17394 bound_to 11000
  139.9327  135.0199  156.8453 LP  0  0  0  0  0  0  0  0  0  0  0  0  # atno 17395 bound_to 11000

$$$$
