AV-unprocessed.smi:1338|AV-procd|sdf|5500|dock8
  -GOLD-   22720 5 83D 1   1.00000     0.00000
 Structure written by MMmdl.
 40 41  0  0  0  0  0  0  0  0  1 V2000
  145.6910  137.6796  153.1309 C   0  0  0  0  0  0  0  0  0  0  0  0
  146.7617  138.6648  153.5466 C   0  0  0  0  0  0  0  0  0  0  0  0
  146.3463  139.9856  153.5135 N   0  0  0  0  0  0  0  0  0  0  0  0
  147.2554  140.9599  153.8863 C   0  0  0  0  0  0  0  0  0  0  0  0
  146.7169  142.3791  153.8292 C   0  0  0  0  0  0  0  0  0  0  0  0
  148.5175  140.6348  154.2659 C   0  0  0  0  0  0  0  0  0  0  0  0
  149.5501  141.6798  154.6843 C   0  0  0  0  0  0  0  0  0  0  0  0
  150.0897  141.5280  156.1076 C   0  0  0  0  0  0  0  0  0  0  0  0
  150.2647  140.4058  156.5817 O   0  0  0  0  0  0  0  0  0  0  0  0
  150.3564  142.6622  156.7736 N   0  0  0  0  0  0  0  0  0  0  0  0
  150.8967  142.7389  158.1274 C   0  0  0  0  0  0  0  0  0  0  0  0
  151.4384  144.1540  158.4173 C   0  0  0  0  0  0  0  0  0  0  0  0
  152.0806  144.2347  159.8117 C   0  0  0  0  0  0  0  0  0  0  0  0
  153.1824  143.1768  159.9812 C   0  0  0  0  0  0  0  0  0  0  0  0
  152.6445  141.7654  159.6981 C   0  0  0  0  0  0  0  0  0  0  0  0
  152.0040  141.6824  158.3028 C   0  0  0  0  0  0  0  0  0  0  0  0
  148.9076  139.2047  154.2686 C   0  0  0  0  0  0  0  0  0  0  0  0
  150.0410  138.8463  154.5855 O   0  0  0  0  0  0  0  0  0  0  0  0
  147.9443  138.2550  153.8919 N   0  0  0  0  0  0  0  0  0  0  0  0
  145.4178  140.2708  153.2373 H   0  0  0  0  0  0  0  0  0  0  0  0
  146.0315  136.6526  153.2689 H   0  0  0  0  0  0  0  0  0  0  0  0
  145.4376  137.8166  152.0794 H   0  0  0  0  0  0  0  0  0  0  0  0
  144.7891  137.8211  153.7274 H   0  0  0  0  0  0  0  0  0  0  0  0
  146.7607  142.8447  154.8139 H   0  0  0  0  0  0  0  0  0  0  0  0
  145.6783  142.4015  153.4965 H   0  0  0  0  0  0  0  0  0  0  0  0
  147.3022  142.9817  153.1344 H   0  0  0  0  0  0  0  0  0  0  0  0
  149.1440  142.6865  154.5802 H   0  0  0  0  0  0  0  0  0  0  0  0
  150.3809  141.6468  153.9786 H   0  0  0  0  0  0  0  0  0  0  0  0
  150.1797  143.5387  156.3045 H   0  0  0  0  0  0  0  0  0  0  0  0
  150.1020  142.5134  158.8413 H   0  0  0  0  0  0  0  0  0  0  0  0
  152.1775  144.4287  157.6630 H   0  0  0  0  0  0  0  0  0  0  0  0
  150.6353  144.8881  158.3435 H   0  0  0  0  0  0  0  0  0  0  0  0
  152.4934  145.2308  159.9737 H   0  0  0  0  0  0  0  0  0  0  0  0
  151.3147  144.0897  160.5745 H   0  0  0  0  0  0  0  0  0  0  0  0
  154.0077  143.3967  159.3027 H   0  0  0  0  0  0  0  0  0  0  0  0
  153.5908  143.2238  160.9911 H   0  0  0  0  0  0  0  0  0  0  0  0
  153.4514  141.0367  159.7806 H   0  0  0  0  0  0  0  0  0  0  0  0
  151.9066  141.4969  160.4551 H   0  0  0  0  0  0  0  0  0  0  0  0
  151.5959  140.6830  158.1459 H   0  0  0  0  0  0  0  0  0  0  0  0
  152.7748  141.8242  157.5439 H   0  0  0  0  0  0  0  0  0  0  0  0
  1 21  1  0  0  0  0
  1 22  1  0  0  0  0
  1 23  1  0  0  0  0
  1  2  1  0  0  0  0
  2  3  1  0  0  0  0
  2 19  2  0  0  0  0
  3  4  1  0  0  0  0
  3 20  1  0  0  0  0
  4  6  2  0  0  0  0
  4  5  1  0  0  0  0
  5 24  1  0  0  0  0
  5 25  1  0  0  0  0
  5 26  1  0  0  0  0
  6 17  1  0  0  0  0
  6  7  1  0  0  0  0
  7  8  1  0  0  0  0
  7 27  1  0  0  0  0
  7 28  1  0  0  0  0
  8  9  2  0  0  0  0
  8 10  1  0  0  0  0
 10 11  1  0  0  0  0
 10 29  1  0  0  0  0
 11 16  1  0  0  0  0
 11 12  1  0  0  0  0
 11 30  1  0  0  0  0
 12 13  1  0  0  0  0
 12 31  1  0  0  0  0
 12 32  1  0  0  0  0
 13 14  1  0  0  0  0
 13 33  1  0  0  0  0
 13 34  1  0  0  0  0
 14 15  1  0  0  0  0
 14 35  1  0  0  0  0
 14 36  1  0  0  0  0
 15 16  1  0  0  0  0
 15 37  1  0  0  0  0
 15 38  1  0  0  0  0
 16 39  1  0  0  0  0
 16 40  1  0  0  0  0
 17 18  2  0  0  0  0
 17 19  1  0  0  0  0
M  END
> <s_m_source_file>
AV-unprocessed.smi

> <i_m_source_file_index>
1338

> <i_lp_mmshare_version>
43012

> <i_f3d_flags>
0

> <s_epik_input>
W0NIM11jMW5jKFtDSDNdKWMoYyg9TylbbkhdMSlbQ0gyXUMoPU8pW05IXVtDSF0yW0NIMl1bQ0gyXVtDSDJdW0NIMl1bQ0gyXTI=

> <s_epik_cmdline>
J2VwaWtfcHl0aG9uJywgJy1waCcsICc3LjAnLCAnLXRuJywgJzgnLCAnLW1hJywgJzIwMCcsICctbWV0YWxfYmluZGluZycsICctaW1hZScsICc8aW5maWxlLm1hZT4nLCAnLW9tYWUnLCAnPG91dGZpbGUubWFlPic=

> <r_lp_tautomer_probability>
0.156392

> <r_epik_Ionization_Penalty>
0.0136832

> <r_epik_Ionization_Penalty_Charging>
0.0135532

> <r_epik_Ionization_Penalty_Neutral>
0.000130025

> <r_epik_State_Penalty>
1.15342

> <r_epik_Charging_Adjusted_Penalty>
1.16697

> <i_epik_Tot_Q>
0

> <i_epik_Tot_abs_Q>
0

> <r_epik_Metal_State_Penalty>
1.31441

> <b_epik_Metal_Only>
0

> <s_lp_Force_Field>
OPLS_2005

> <r_lp_Energy>
13.63

> <b_lp_Chiralities_Consistent>
1

> <s_lp_Variant>
AV-unprocessed.smi:1338-2

> <Gold.Version>
5.8.1

> <Gold.Id.Protein>
6NUR|6NUR_protein|mol2

> <Gold.PLP.Fitness>
42.8312

> <Gold.PLP.PLP>
-38.0375

> <Gold.PLP.part.hbond>
-2.0000

> <Gold.PLP.part.metal>
0.0000

> <Gold.PLP.part.buried>
-4.1340

> <Gold.PLP.part.nonpolar>
-32.4949

> <Gold.PLP.part.repulsive>
0.7701

> <Gold.PLP.ligand.clash>
0.0000

> <Gold.PLP.ligand.torsion>
0.5694

> <Gold.PLP.Chemscore.Hbond>
1.9760

> <Gold.PLP.Chemscore.CHOScore>
0.0000

> <Gold.PLP.Chemscore.Metal>
0.0000

> <Gold.Chemscore.Hbonds>
donor molecule, donor type, donor heavy atom, donor atom, acceptor molecule, acceptor atom, score
      L1  H     3    20       P1 10175  1.00
      L1  H    10    29       P1  8028  0.94

> <Gold.PLP.Chemscore.Internal.Correction>
0.0045

> <Gold.Rescore>
     Score         DG    S(hbond)    S(metal)    S(lipo)     H(rot)  DE(clash)    DE(int)     intcor
     14.93     -19.44       1.91        0.00      97.38       1.49       0.22       4.29       ----

> <Gold.Chemscore.Fitness>
14.9259

> <Gold.Chemscore.DG>
-19.4400

> <Gold.Chemscore.ZeroCoef>
-5.4800

> <Gold.Chemscore.Hbond>
1.9138

> <Gold.Chemscore.Metal>
0.0000

> <Gold.Chemscore.Lipo>
97.3782

> <Gold.Chemscore.Internal_Hbond>
0.0000

> <Gold.Chemscore.DEClash>
0.2211

> <Gold.Chemscore.DEInternal>
4.2930

> <Gold.Chemscore.Rot>
1.4942

> <Gold.Chemscore.Internal.Correction>
   9.000000E+99

> <Gold.Chemscore.Hbonds>
donor molecule, donor type, donor heavy atom, donor atom, acceptor molecule, acceptor atom, score
      L1  H     3    20       P1 10175  0.99
      L1  H    10    29       P1  8028  0.91

> <Gold.Chemscore.Hbond.Weighted>
-6.3920

> <Gold.Chemscore.Metal.Weighted>
-0.0000

> <Gold.Chemscore.Lipo.Weighted>
-11.3933

> <Gold.Chemscore.Internal_Hbond.Weighted>
0.0000

> <Gold.Chemscore.DEClash.Weighted>
0.2211

> <Gold.Chemscore.DEInternal.Weighted>
4.2930

> <Gold.Chemscore.Rot.Weighted>
3.8253

> <Gold.Chemscore.Internal.Correction.Weighted>
   9.000000E+99

> <Gold.Protein.RotatedTorsions>
[ 6907 6896 6895 6894 ] final  -50.95 input  -60.11 | X-H torsion
[ 7974 7965 7964 7962 ] final  120.25 input  175.53 | X-H torsion
[ 8008 7997 7996 7995 ] final   31.34 input   59.86 | X-H torsion
[ 10167 10162 10161 10158 ] final   77.58 input  -65.29 | X-H torsion
[ 10718 10713 10712 10709 ] final   55.35 input   66.30 | X-H torsion
[ 10763 10752 10751 10750 ] final    5.77 input  -60.55 | X-H torsion
[ 11005 11000 10999 10996 ] final   91.31 input  -57.11 | X-H torsion

> <Gold.Protein.ActiveResidues>
 VAL166  LYS551  ARG553  GLY616  TRP617  ASP618  TYR619  PRO620  LYS621  CYS622 
 ASP623  PHE694  ASN695  SER759  ASP760  ASP761  ALA762  ILE779  LEU786  VAL792 
 PHE793  MET794  SER795  GLU796  ALA797  LYS798  CYS799  TRP800  GLU811  SER814 

> <Gold.Protein.RotatedAtoms>
  150.8658  134.8021  159.7117 H   0  0  0  0  0  0  0  0  0  0  0  0  # atno 6907 bound_to 6896
  152.4680  134.5026  159.9739 H   0  0  0  0  0  0  0  0  0  0  0  0  # atno 6908 bound_to 6896
  151.5122  133.3444  159.2922 H   0  0  0  0  0  0  0  0  0  0  0  0  # atno 6909 bound_to 6896
  145.1334  139.3313  143.4653 H   0  0  0  0  0  0  0  0  0  0  0  0  # atno 7974 bound_to 7965
  155.1049  140.3233  155.4537 H   0  0  0  0  0  0  0  0  0  0  0  0  # atno 8008 bound_to 7997
  156.2707  140.2054  156.6121 H   0  0  0  0  0  0  0  0  0  0  0  0  # atno 8009 bound_to 7997
  154.6801  140.0527  157.0244 H   0  0  0  0  0  0  0  0  0  0  0  0  # atno 8010 bound_to 7997
  139.9800  144.5833  150.7909 H   0  0  0  0  0  0  0  0  0  0  0  0  # atno 10167 bound_to 10162
  157.5337  130.8648  149.8723 H   0  0  0  0  0  0  0  0  0  0  0  0  # atno 10718 bound_to 10713
  153.2555  135.6918  153.7634 H   0  0  0  0  0  0  0  0  0  0  0  0  # atno 10763 bound_to 10752
  153.6713  135.3344  155.3155 H   0  0  0  0  0  0  0  0  0  0  0  0  # atno 10764 bound_to 10752
  154.8410  135.4500  154.1527 H   0  0  0  0  0  0  0  0  0  0  0  0  # atno 10765 bound_to 10752
  139.8841  134.8666  156.3410 H   0  0  0  0  0  0  0  0  0  0  0  0  # atno 11005 bound_to 11000
  146.3512  140.1342  142.8596 LP  0  0  0  0  0  0  0  0  0  0  0  0  # atno 17320 bound_to 7965
  145.0610  140.9088  143.4938 LP  0  0  0  0  0  0  0  0  0  0  0  0  # atno 17321 bound_to 7965
  140.7492  143.2935  151.3266 LP  0  0  0  0  0  0  0  0  0  0  0  0  # atno 17342 bound_to 10162
  139.6417  144.0527  152.2559 LP  0  0  0  0  0  0  0  0  0  0  0  0  # atno 17343 bound_to 10162
  156.0442  130.3732  150.1359 LP  0  0  0  0  0  0  0  0  0  0  0  0  # atno 17370 bound_to 10713
  156.9543  130.9784  151.3492 LP  0  0  0  0  0  0  0  0  0  0  0  0  # atno 17371 bound_to 10713
  140.9659  133.7358  156.0466 LP  0  0  0  0  0  0  0  0  0  0  0  0  # atno 17394 bound_to 11000
  140.7932  134.3594  157.5459 LP  0  0  0  0  0  0  0  0  0  0  0  0  # atno 17395 bound_to 11000

$$$$
