AV-unprocessed.smi:339|AV-procd|sdf|2378|dock6
  -GOLD-   2262022303D 1   1.00000     0.00000
 Structure written by MMmdl.
 45 46  0  0  0  0  0  0  0  0  1 V2000
  154.2406  141.1900  161.0784 C   0  0  0  0  0  0  0  0  0  0  0  0
  153.2810  141.8336  160.0944 C   0  0  0  0  0  0  0  0  0  0  0  0
  152.7731  143.1213  160.3632 C   0  0  0  0  0  0  0  0  0  0  0  0
  151.8716  143.7287  159.4697 C   0  0  0  0  0  0  0  0  0  0  0  0
  151.4700  143.0491  158.3050 C   0  0  0  0  0  0  0  0  0  0  0  0
  151.9719  141.7613  158.0252 C   0  0  0  0  0  0  0  0  0  0  0  0
  151.5211  141.0390  156.7692 C   0  0  0  0  0  0  0  0  0  0  0  0
  152.8905  141.1558  158.9147 C   0  0  0  0  0  0  0  0  0  0  0  0
  153.3772  139.9021  158.6476 O   0  0  0  0  0  0  0  0  0  0  0  0
  152.5552  138.8532  159.1385 C   0  0  0  0  0  0  0  0  0  0  0  0
  153.4350  137.6247  159.4218 C   0  0  2  0  0  0  0  0  0  0  0  0
  152.6541  136.4782  159.1448 O   0  0  0  0  0  0  0  0  0  0  0  0
  153.8706  137.5567  160.9027 C   0  0  0  0  0  0  0  0  0  0  0  0
  154.2274  136.1921  161.3106 N   0  0  0  0  0  0  0  0  0  0  0  0
  154.6150  135.3782  160.2647 N   0  0  0  0  0  0  0  0  0  0  0  0
  154.9791  134.1541  160.4634 C   0  0  0  0  0  0  0  0  0  0  0  0
  155.3822  133.3627  159.2482 C   0  0  0  0  0  0  0  0  0  0  0  0
  154.9830  133.6116  161.8183 C   0  0  0  0  0  0  0  0  0  0  0  0
  155.4245  132.1648  161.9930 C   0  0  0  0  0  0  0  0  0  0  0  0
  154.5897  134.4178  162.8358 C   0  0  0  0  0  0  0  0  0  0  0  0
  154.5543  133.9731  164.1918 C   0  0  0  0  0  0  0  0  0  0  0  0
  154.5157  133.5958  165.2856 N   0  0  0  0  0  0  0  0  0  0  0  0
  154.1748  135.8055  162.6174 C   0  0  0  0  0  0  0  0  0  0  0  0
  153.8150  136.5642  163.5188 O   0  0  0  0  0  0  0  0  0  0  0  0
  154.1301  141.6236  162.0727 H   0  0  0  0  0  0  0  0  0  0  0  0
  155.2704  141.3387  160.7540 H   0  0  0  0  0  0  0  0  0  0  0  0
  154.0563  140.1185  161.1606 H   0  0  0  0  0  0  0  0  0  0  0  0
  153.0710  143.6472  161.2586 H   0  0  0  0  0  0  0  0  0  0  0  0
  151.4837  144.7144  159.6808 H   0  0  0  0  0  0  0  0  0  0  0  0
  150.7729  143.5202  157.6275 H   0  0  0  0  0  0  0  0  0  0  0  0
  151.3424  139.9827  156.9711 H   0  0  0  0  0  0  0  0  0  0  0  0
  152.2834  141.1181  155.9945 H   0  0  0  0  0  0  0  0  0  0  0  0
  150.5958  141.4648  156.3808 H   0  0  0  0  0  0  0  0  0  0  0  0
  152.0931  139.1994  160.0639 H   0  0  0  0  0  0  0  0  0  0  0  0
  151.7426  138.6083  158.4520 H   0  0  0  0  0  0  0  0  0  0  0  0
  154.3071  137.6474  158.7672 H   0  0  0  0  0  0  0  0  0  0  0  0
  153.0595  136.0025  158.4363 H   0  0  0  0  0  0  0  0  0  0  0  0
  154.7359  138.2015  161.0658 H   0  0  0  0  0  0  0  0  0  0  0  0
  153.0928  137.9678  161.5496 H   0  0  0  0  0  0  0  0  0  0  0  0
  154.8041  132.4412  159.1757 H   0  0  0  0  0  0  0  0  0  0  0  0
  156.4387  133.0974  159.2937 H   0  0  0  0  0  0  0  0  0  0  0  0
  155.2222  133.9235  158.3260 H   0  0  0  0  0  0  0  0  0  0  0  0
  155.5031  131.8817  163.0422 H   0  0  0  0  0  0  0  0  0  0  0  0
  156.4028  132.0012  161.5399 H   0  0  0  0  0  0  0  0  0  0  0  0
  154.7097  131.4904  161.5209 H   0  0  0  0  0  0  0  0  0  0  0  0
  1  2  1  0  0  0  0
  1 25  1  0  0  0  0
  1 26  1  0  0  0  0
  1 27  1  0  0  0  0
  2  8  1  0  0  0  0
  2  3  2  0  0  0  0
  3  4  1  0  0  0  0
  3 28  1  0  0  0  0
  4  5  2  0  0  0  0
  4 29  1  0  0  0  0
  5  6  1  0  0  0  0
  5 30  1  0  0  0  0
  6  7  1  0  0  0  0
  6  8  2  0  0  0  0
  7 31  1  0  0  0  0
  7 32  1  0  0  0  0
  7 33  1  0  0  0  0
  8  9  1  0  0  0  0
  9 10  1  0  0  0  0
 10 11  1  0  0  0  0
 10 34  1  0  0  0  0
 10 35  1  0  0  0  0
 11 12  1  0  0  0  0
 11 13  1  0  0  0  0
 11 36  1  0  0  0  0
 12 37  1  0  0  0  0
 13 14  1  0  0  0  0
 13 38  1  0  0  0  0
 13 39  1  0  0  0  0
 14 23  1  0  0  0  0
 14 15  1  0  0  0  0
 15 16  2  0  0  0  0
 16 17  1  0  0  0  0
 16 18  1  0  0  0  0
 17 40  1  0  0  0  0
 17 41  1  0  0  0  0
 17 42  1  0  0  0  0
 18 19  1  0  0  0  0
 18 20  2  0  0  0  0
 19 43  1  0  0  0  0
 19 44  1  0  0  0  0
 19 45  1  0  0  0  0
 20 21  1  0  0  0  0
 20 23  1  0  0  0  0
 21 22  3  0  0  0  0
 23 24  2  0  0  0  0
M  END
> <s_m_source_file>
AV-unprocessed.smi

> <i_m_source_file_index>
339

> <i_lp_mmshare_version>
43012

> <i_f3d_flags>
0

> <s_epik_input>
W0NIM11jMVtjSF1bY0hdW2NIXWMoW0NIM10pYzFPW0NIMl1bQ0BIXShbT0hdKVtDSDJdbjJuYyhbQ0gzXSljKFtDSDNdKWMoQyNOKWMyPU8=

> <s_epik_cmdline>
J2VwaWtfcHl0aG9uJywgJy1waCcsICc3LjAnLCAnLXRuJywgJzgnLCAnLW1hJywgJzIwMCcsICctbWV0YWxfYmluZGluZycsICctaW1hZScsICc8aW5maWxlLm1hZT4nLCAnLW9tYWUnLCAnPG91dGZpbGUubWFlPic=

> <r_lp_tautomer_probability>
1

> <r_epik_Ionization_Penalty>
1.17331e-07

> <r_epik_Ionization_Penalty_Charging>
1.57223e-10

> <r_epik_Ionization_Penalty_Neutral>
1.17174e-07

> <r_epik_State_Penalty>
-0

> <r_epik_Charging_Adjusted_Penalty>
1.57223e-10

> <i_epik_Tot_Q>
0

> <i_epik_Tot_abs_Q>
0

> <r_epik_Metal_State_Penalty>
-0

> <b_epik_Metal_Only>
0

> <s_lp_Force_Field>
OPLS_2005

> <r_lp_Energy>
35.9352

> <b_lp_Chiralities_Consistent>
1

> <s_lp_Variant>
AV-unprocessed.smi:339-1

> <Gold.Version>
5.8.1

> <Gold.Id.Protein>
6NUR|6NUR_protein|mol2

> <Gold.PLP.Fitness>
43.5849

> <Gold.PLP.PLP>
-41.1422

> <Gold.PLP.part.hbond>
-2.0795

> <Gold.PLP.part.metal>
0.0000

> <Gold.PLP.part.buried>
-5.7410

> <Gold.PLP.part.nonpolar>
-33.1160

> <Gold.PLP.part.repulsive>
0.1325

> <Gold.PLP.ligand.clash>
0.0000

> <Gold.PLP.ligand.torsion>
1.5472

> <Gold.PLP.Chemscore.Hbond>
1.8208

> <Gold.PLP.Chemscore.CHOScore>
0.0000

> <Gold.PLP.Chemscore.Metal>
0.0000

> <Gold.Chemscore.Hbonds>
donor molecule, donor type, donor heavy atom, donor atom, acceptor molecule, acceptor atom, score
      P1  H  6896  6908       L1    12  0.83
      P1  H  7997  8008       L1     9  1.00

> <Gold.PLP.Chemscore.Internal.Correction>
0.0747

> <Gold.Rescore>
     Score         DG    S(hbond)    S(metal)    S(lipo)     H(rot)  DE(clash)    DE(int)     intcor
     12.81     -16.02       1.31        0.00     102.88       2.29       0.04       3.17       ----

> <Gold.Chemscore.Fitness>
12.8137

> <Gold.Chemscore.DG>
-16.0224

> <Gold.Chemscore.ZeroCoef>
-5.4800

> <Gold.Chemscore.Hbond>
1.3081

> <Gold.Chemscore.Metal>
0.0000

> <Gold.Chemscore.Lipo>
102.8788

> <Gold.Chemscore.Internal_Hbond>
0.0000

> <Gold.Chemscore.DEClash>
0.0376

> <Gold.Chemscore.DEInternal>
3.1710

> <Gold.Chemscore.Rot>
2.2905

> <Gold.Chemscore.Internal.Correction>
   9.000000E+99

> <Gold.Chemscore.Hbonds>
donor molecule, donor type, donor heavy atom, donor atom, acceptor molecule, acceptor atom, score
      P1  H  6896  6908       L1    12  0.25
      P1  H  7997  8008       L1     9  0.64

> <Gold.Chemscore.Hbond.Weighted>
-4.3692

> <Gold.Chemscore.Metal.Weighted>
-0.0000

> <Gold.Chemscore.Lipo.Weighted>
-12.0368

> <Gold.Chemscore.Internal_Hbond.Weighted>
0.0000

> <Gold.Chemscore.DEClash.Weighted>
0.0376

> <Gold.Chemscore.DEInternal.Weighted>
3.1710

> <Gold.Chemscore.Rot.Weighted>
5.8636

> <Gold.Chemscore.Internal.Correction.Weighted>
   9.000000E+99

> <Gold.Protein.RotatedTorsions>
[ 6907 6896 6895 6894 ] final -109.94 input  -60.11 | X-H torsion
[ 7974 7965 7964 7962 ] final   82.08 input  175.53 | X-H torsion
[ 8008 7997 7996 7995 ] final  -99.50 input   59.86 | X-H torsion
[ 10167 10162 10161 10158 ] final   21.05 input  -65.29 | X-H torsion
[ 10718 10713 10712 10709 ] final -160.71 input   66.30 | X-H torsion
[ 10763 10752 10751 10750 ] final  164.85 input  -60.55 | X-H torsion
[ 11005 11000 10999 10996 ] final  175.54 input  -57.11 | X-H torsion

> <Gold.Protein.ActiveResidues>
 VAL166  LYS551  ARG553  GLY616  TRP617  ASP618  TYR619  PRO620  LYS621  CYS622 
 ASP623  PHE694  ASN695  SER759  ASP760  ASP761  ALA762  ILE779  LEU786  VAL792 
 PHE793  MET794  SER795  GLU796  ALA797  LYS798  CYS799  TRP800  GLU811  SER814 

> <Gold.Protein.RotatedAtoms>
  150.7593  133.9455  159.3469 H   0  0  0  0  0  0  0  0  0  0  0  0  # atno 6907 bound_to 6896
  151.7367  135.0861  160.0318 H   0  0  0  0  0  0  0  0  0  0  0  0  # atno 6908 bound_to 6896
  152.3555  133.6194  159.6012 H   0  0  0  0  0  0  0  0  0  0  0  0  # atno 6909 bound_to 6896
  145.6298  139.2402  143.2091 H   0  0  0  0  0  0  0  0  0  0  0  0  # atno 7974 bound_to 7965
  154.8157  140.0447  157.1374 H   0  0  0  0  0  0  0  0  0  0  0  0  # atno 8008 bound_to 7997
  154.9317  140.3041  155.5144 H   0  0  0  0  0  0  0  0  0  0  0  0  # atno 8009 bound_to 7997
  156.2976  140.2322  156.4378 H   0  0  0  0  0  0  0  0  0  0  0  0  # atno 8010 bound_to 7997
  140.5456  143.9600  150.6546 H   0  0  0  0  0  0  0  0  0  0  0  0  # atno 10167 bound_to 10162
  156.5860  130.8750  151.2877 H   0  0  0  0  0  0  0  0  0  0  0  0  # atno 10718 bound_to 10713
  154.3152  135.2756  155.2546 H   0  0  0  0  0  0  0  0  0  0  0  0  # atno 10763 bound_to 10752
  154.4924  135.5830  153.6473 H   0  0  0  0  0  0  0  0  0  0  0  0  # atno 10764 bound_to 10752
  152.9883  135.6138  154.3332 H   0  0  0  0  0  0  0  0  0  0  0  0  # atno 10765 bound_to 10752
  140.3633  134.7094  157.4345 H   0  0  0  0  0  0  0  0  0  0  0  0  # atno 11005 bound_to 11000
  146.1366  140.7115  142.9387 LP  0  0  0  0  0  0  0  0  0  0  0  0  # atno 17320 bound_to 7965
  144.7198  140.4335  143.7017 LP  0  0  0  0  0  0  0  0  0  0  0  0  # atno 17321 bound_to 7965
  140.3012  143.3259  152.0970 LP  0  0  0  0  0  0  0  0  0  0  0  0  # atno 17342 bound_to 10162
  139.5006  144.6695  151.6276 LP  0  0  0  0  0  0  0  0  0  0  0  0  # atno 17343 bound_to 10162
  157.7315  130.9701  150.1884 LP  0  0  0  0  0  0  0  0  0  0  0  0  # atno 17370 bound_to 10713
  156.2591  130.3709  149.8150 LP  0  0  0  0  0  0  0  0  0  0  0  0  # atno 17371 bound_to 10713
  140.0609  134.5997  155.8750 LP  0  0  0  0  0  0  0  0  0  0  0  0  # atno 17394 bound_to 11000
  141.1977  133.6598  156.5756 LP  0  0  0  0  0  0  0  0  0  0  0  0  # atno 17395 bound_to 11000

$$$$
