AV-unprocessed.smi:2229|AV-procd|sdf|9029|dock7
  -GOLD-   2272012233D 1   1.00000     0.00000
 Structure written by MMmdl.
 44 45  0  0  0  0  0  0  0  0  1 V2000
  151.9282  145.4027  159.0334 C   0  0  0  0  0  0  0  0  0  0  0  0
  151.4743  143.9369  159.1069 C   0  0  0  0  0  0  0  0  0  0  0  0
  152.5635  143.0696  159.7610 C   0  0  0  0  0  0  0  0  0  0  0  0
  151.0618  143.4240  157.7112 C   0  0  0  0  0  0  0  0  0  0  0  0
  150.9930  141.8906  157.6112 C   0  0  0  0  0  0  0  0  0  0  0  0
  150.9195  141.3576  156.1606 C   0  0  2  0  0  0  0  0  0  0  0  0
  149.5043  141.3446  155.5716 C   0  0  0  0  0  0  0  0  0  0  0  0
  149.5993  140.3837  154.3911 C   0  0  0  0  0  0  0  0  0  0  0  0
  150.5397  139.2773  154.8711 C   0  0  0  0  0  0  0  0  0  0  0  0
  151.4483  139.9160  155.9426 C   0  0  2  0  0  0  0  0  0  0  0  0
  151.4288  139.1492  157.1836 N   0  0  0  0  0  0  0  0  0  0  0  0
  152.4870  138.7939  157.9279 C   0  0  0  0  0  0  0  0  0  0  0  0
  153.6477  139.0264  157.5943 O   0  0  0  0  0  0  0  0  0  0  0  0
  152.2098  138.0902  159.2681 C   0  0  0  0  0  0  0  0  0  0  0  0
  153.3564  138.0535  160.1842 N   0  0  0  0  0  0  0  0  0  0  0  0
  153.8328  139.1681  160.8433 C   0  0  0  0  0  0  0  0  0  0  0  0
  154.7992  138.8772  161.6457 N   0  0  0  0  0  0  0  0  0  0  0  0
  154.9282  137.5395  161.4774 N   0  0  0  0  0  0  0  0  0  0  0  0
  154.0686  137.0114  160.6045 C   0  0  0  0  0  0  0  0  0  0  0  0
  153.9502  135.8303  160.2847 O   0  0  0  0  0  0  0  0  0  0  0  0
  155.6290  137.0406  162.0067 H   0  0  0  0  0  0  0  0  0  0  0  0
  152.8145  145.5120  158.4076 H   0  0  0  0  0  0  0  0  0  0  0  0
  152.1701  145.7900  160.0236 H   0  0  0  0  0  0  0  0  0  0  0  0
  151.1460  146.0381  158.6171 H   0  0  0  0  0  0  0  0  0  0  0  0
  150.5944  143.9046  159.7509 H   0  0  0  0  0  0  0  0  0  0  0  0
  153.4538  143.0124  159.1341 H   0  0  0  0  0  0  0  0  0  0  0  0
  152.2156  142.0533  159.9441 H   0  0  0  0  0  0  0  0  0  0  0  0
  152.8634  143.4805  160.7253 H   0  0  0  0  0  0  0  0  0  0  0  0
  150.0812  143.8350  157.4695 H   0  0  0  0  0  0  0  0  0  0  0  0
  151.7465  143.8113  156.9556 H   0  0  0  0  0  0  0  0  0  0  0  0
  151.8761  141.4673  158.0897 H   0  0  0  0  0  0  0  0  0  0  0  0
  150.1329  141.5356  158.1807 H   0  0  0  0  0  0  0  0  0  0  0  0
  151.5254  142.0126  155.5321 H   0  0  0  0  0  0  0  0  0  0  0  0
  148.7951  140.9564  156.3044 H   0  0  0  0  0  0  0  0  0  0  0  0
  149.1640  142.3351  155.2692 H   0  0  0  0  0  0  0  0  0  0  0  0
  148.6263  140.0014  154.0811 H   0  0  0  0  0  0  0  0  0  0  0  0
  150.0423  140.8972  153.5369 H   0  0  0  0  0  0  0  0  0  0  0  0
  149.9478  138.4657  155.2981 H   0  0  0  0  0  0  0  0  0  0  0  0
  151.1155  138.8529  154.0482 H   0  0  0  0  0  0  0  0  0  0  0  0
  152.4771  139.9694  155.5814 H   0  0  0  0  0  0  0  0  0  0  0  0
  150.5151  138.9029  157.5354 H   0  0  0  0  0  0  0  0  0  0  0  0
  151.3784  138.5999  159.7571 H   0  0  0  0  0  0  0  0  0  0  0  0
  151.8658  137.0745  159.0653 H   0  0  0  0  0  0  0  0  0  0  0  0
  153.3796  140.1424  160.6527 H   0  0  0  0  0  0  0  0  0  0  0  0
  1  2  1  0  0  0  0
  1 22  1  0  0  0  0
  1 23  1  0  0  0  0
  1 24  1  0  0  0  0
  2  3  1  0  0  0  0
  2  4  1  0  0  0  0
  2 25  1  0  0  0  0
  3 26  1  0  0  0  0
  3 27  1  0  0  0  0
  3 28  1  0  0  0  0
  4  5  1  0  0  0  0
  4 29  1  0  0  0  0
  4 30  1  0  0  0  0
  5  6  1  0  0  0  0
  5 31  1  0  0  0  0
  5 32  1  0  0  0  0
  6 10  1  0  0  0  0
  6  7  1  0  0  0  0
  6 33  1  0  0  0  0
  7  8  1  0  0  0  0
  7 34  1  0  0  0  0
  7 35  1  0  0  0  0
  8  9  1  0  0  0  0
  8 36  1  0  0  0  0
  8 37  1  0  0  0  0
  9 10  1  0  0  0  0
  9 38  1  0  0  0  0
  9 39  1  0  0  0  0
 10 11  1  0  0  0  0
 10 40  1  0  0  0  0
 11 12  1  0  0  0  0
 11 41  1  0  0  0  0
 12 13  2  0  0  0  0
 12 14  1  0  0  0  0
 14 15  1  0  0  0  0
 14 42  1  0  0  0  0
 14 43  1  0  0  0  0
 15 19  1  0  0  0  0
 15 16  1  0  0  0  0
 16 17  2  0  0  0  0
 16 44  1  0  0  0  0
 17 18  1  0  0  0  0
 18 21  1  0  0  0  0
 18 19  1  0  0  0  0
 19 20  2  0  0  0  0
M  END
> <s_m_source_file>
AV-unprocessed.smi

> <i_m_source_file_index>
2229

> <i_lp_mmshare_version>
43012

> <i_f3d_flags>
0

> <s_epik_input>
W0NIM11bQ0hdKFtDSDNdKVtDSDJdW0NIMl1bQ0BASF0xW0NIMl1bQ0gyXVtDSDJdW0NASF0xW05IXUMoPU8pW0NIMl1uMltjSF1uW25IXWMyPU8=

> <s_epik_cmdline>
J2VwaWtfcHl0aG9uJywgJy1waCcsICc3LjAnLCAnLXRuJywgJzgnLCAnLW1hJywgJzIwMCcsICctbWV0YWxfYmluZGluZycsICctaW1hZScsICc8aW5maWxlLm1hZT4nLCAnLW9tYWUnLCAnPG91dGZpbGUubWFlPic=

> <r_lp_tautomer_probability>
1

> <r_epik_Ionization_Penalty>
4.14174e-05

> <r_epik_Ionization_Penalty_Charging>
4.13165e-05

> <r_epik_Ionization_Penalty_Neutral>
1.00911e-07

> <r_epik_State_Penalty>
-0

> <r_epik_Charging_Adjusted_Penalty>
4.13165e-05

> <i_epik_Tot_Q>
0

> <i_epik_Tot_abs_Q>
0

> <r_epik_Metal_State_Penalty>
0.0399369

> <b_epik_Metal_Only>
0

> <s_lp_Force_Field>
OPLS_2005

> <r_lp_Energy>
36.2175

> <b_lp_Chiralities_Consistent>
1

> <s_lp_Variant>
AV-unprocessed.smi:2229-3

> <Gold.Version>
5.8.1

> <Gold.Id.Protein>
6NUR|6NUR_protein|mol2

> <Gold.PLP.Fitness>
44.6040

> <Gold.PLP.PLP>
-40.3924

> <Gold.PLP.part.hbond>
-1.7513

> <Gold.PLP.part.metal>
0.0000

> <Gold.PLP.part.buried>
-3.7643

> <Gold.PLP.part.nonpolar>
-34.4284

> <Gold.PLP.part.repulsive>
0.0472

> <Gold.PLP.ligand.clash>
0.0000

> <Gold.PLP.ligand.torsion>
0.9184

> <Gold.PLP.Chemscore.Hbond>
1.9913

> <Gold.PLP.Chemscore.CHOScore>
0.0000

> <Gold.PLP.Chemscore.Metal>
0.0000

> <Gold.Chemscore.Hbonds>
donor molecule, donor type, donor heavy atom, donor atom, acceptor molecule, acceptor atom, score
      P1  H  6896  6907       L1    20  1.00
      P1  H  7997  8010       L1    13  1.00

> <Gold.PLP.Chemscore.Internal.Correction>
0.0747

> <Gold.Rescore>
     Score         DG    S(hbond)    S(metal)    S(lipo)     H(rot)  DE(clash)    DE(int)     intcor
     15.94     -16.68       1.97        0.00      97.06       2.64       0.01       0.72       ----

> <Gold.Chemscore.Fitness>
15.9445

> <Gold.Chemscore.DG>
-16.6775

> <Gold.Chemscore.ZeroCoef>
-5.4800

> <Gold.Chemscore.Hbond>
1.9733

> <Gold.Chemscore.Metal>
0.0000

> <Gold.Chemscore.Lipo>
97.0649

> <Gold.Chemscore.Internal_Hbond>
0.0000

> <Gold.Chemscore.DEClash>
0.0121

> <Gold.Chemscore.DEInternal>
0.7208

> <Gold.Chemscore.Rot>
2.6368

> <Gold.Chemscore.Internal.Correction>
   9.000000E+99

> <Gold.Chemscore.Hbonds>
donor molecule, donor type, donor heavy atom, donor atom, acceptor molecule, acceptor atom, score
      P1  H  6896  6907       L1    20  1.00
      P1  H  7997  8010       L1    13  0.91

> <Gold.Chemscore.Hbond.Weighted>
-6.5910

> <Gold.Chemscore.Metal.Weighted>
-0.0000

> <Gold.Chemscore.Lipo.Weighted>
-11.3566

> <Gold.Chemscore.Internal_Hbond.Weighted>
0.0000

> <Gold.Chemscore.DEClash.Weighted>
0.0121

> <Gold.Chemscore.DEInternal.Weighted>
0.7208

> <Gold.Chemscore.Rot.Weighted>
6.7501

> <Gold.Chemscore.Internal.Correction.Weighted>
   9.000000E+99

> <Gold.Protein.RotatedTorsions>
[ 6907 6896 6895 6894 ] final   50.97 input  -60.11 | X-H torsion
[ 7974 7965 7964 7962 ] final  -17.21 input  175.53 | X-H torsion
[ 8008 7997 7996 7995 ] final   53.05 input   59.86 | X-H torsion
[ 10167 10162 10161 10158 ] final  -29.54 input  -65.29 | X-H torsion
[ 10718 10713 10712 10709 ] final   80.67 input   66.30 | X-H torsion
[ 10763 10752 10751 10750 ] final  124.94 input  -60.55 | X-H torsion
[ 11005 11000 10999 10996 ] final  -97.95 input  -57.11 | X-H torsion

> <Gold.Protein.ActiveResidues>
 VAL166  LYS551  ARG553  GLY616  TRP617  ASP618  TYR619  PRO620  LYS621  CYS622 
 ASP623  PHE694  ASN695  SER759  ASP760  ASP761  ALA762  ILE779  LEU786  VAL792 
 PHE793  MET794  SER795  GLU796  ALA797  LYS798  CYS799  TRP800  GLU811  SER814 

> <Gold.Protein.RotatedAtoms>
  152.3076  134.7537  160.0343 H   0  0  0  0  0  0  0  0  0  0  0  0  # atno 6907 bound_to 6896
  151.8028  133.3367  159.3540 H   0  0  0  0  0  0  0  0  0  0  0  0  # atno 6908 bound_to 6896
  150.7304  134.5667  159.5914 H   0  0  0  0  0  0  0  0  0  0  0  0  # atno 6909 bound_to 6896
  146.1952  140.3747  142.8443 H   0  0  0  0  0  0  0  0  0  0  0  0  # atno 7974 bound_to 7965
  155.4618  140.3462  155.4314 H   0  0  0  0  0  0  0  0  0  0  0  0  # atno 8008 bound_to 7997
  156.1156  140.1473  156.9307 H   0  0  0  0  0  0  0  0  0  0  0  0  # atno 8009 bound_to 7997
  154.4786  140.0877  156.7302 H   0  0  0  0  0  0  0  0  0  0  0  0  # atno 8010 bound_to 7997
  140.7259  143.3921  151.1412 H   0  0  0  0  0  0  0  0  0  0  0  0  # atno 10167 bound_to 10162
  157.6812  130.9969  150.2113 H   0  0  0  0  0  0  0  0  0  0  0  0  # atno 10718 bound_to 10713
  153.6693  135.3333  155.3149 H   0  0  0  0  0  0  0  0  0  0  0  0  # atno 10763 bound_to 10752
  154.8495  135.4382  154.1721 H   0  0  0  0  0  0  0  0  0  0  0  0  # atno 10764 bound_to 10752
  153.2709  135.7000  153.7558 H   0  0  0  0  0  0  0  0  0  0  0  0  # atno 10765 bound_to 10752
  141.1361  133.8209  157.0774 H   0  0  0  0  0  0  0  0  0  0  0  0  # atno 11005 bound_to 11000
  144.8565  140.7078  143.6135 LP  0  0  0  0  0  0  0  0  0  0  0  0  # atno 17320 bound_to 7965
  145.3668  139.1668  143.4354 LP  0  0  0  0  0  0  0  0  0  0  0  0  # atno 17321 bound_to 7965
  139.7527  143.8754  152.3081 LP  0  0  0  0  0  0  0  0  0  0  0  0  # atno 17342 bound_to 10162
  139.8613  144.7116  150.9096 LP  0  0  0  0  0  0  0  0  0  0  0  0  # atno 17343 bound_to 10162
  156.2783  130.3730  149.7961 LP  0  0  0  0  0  0  0  0  0  0  0  0  # atno 17370 bound_to 10713
  156.5657  130.8403  151.3342 LP  0  0  0  0  0  0  0  0  0  0  0  0  # atno 17371 bound_to 10713
  140.0473  134.9824  157.1072 LP  0  0  0  0  0  0  0  0  0  0  0  0  # atno 17394 bound_to 11000
  140.4044  134.2048  155.7163 LP  0  0  0  0  0  0  0  0  0  0  0  0  # atno 17395 bound_to 11000

$$$$
