AV-unprocessed.smi:2436|AV-procd|sdf|9593|dock4
  -GOLD-   2272013223D 1   1.00000     0.00000
 Structure written by MMmdl.
 36 37  0  0  0  0  0  0  0  0  1 V2000
  151.9075  145.9970  160.3871 C   0  0  0  0  0  0  0  0  0  0  0  0
  151.1243  145.4220  159.1968 C   0  0  0  0  0  0  0  0  0  0  0  0
  151.5599  144.0062  158.7748 C   0  0  0  0  0  0  0  0  0  0  0  0
  150.7593  143.5354  157.6401 N   0  0  0  0  0  0  0  0  0  0  0  0
  150.7338  142.2885  157.1425 C   0  0  0  0  0  0  0  0  0  0  0  0
  151.3981  141.3582  157.6004 O   0  0  0  0  0  0  0  0  0  0  0  0
  149.8971  142.2029  156.0935 N   0  0  0  0  0  0  0  0  0  0  0  0
  149.5982  141.0619  155.3028 C   0  0  0  0  0  0  0  0  0  0  0  0
  150.6335  140.1073  155.1871 C   0  0  0  0  0  0  0  0  0  0  0  0
  150.3785  138.9602  154.4078 C   0  0  0  0  0  0  0  0  0  0  0  0
  151.3641  138.0054  154.2676 O   0  0  0  0  0  0  0  0  0  0  0  0
  152.6751  138.3221  154.7219 C   0  0  0  0  0  0  0  0  0  0  0  0
  149.1841  138.7788  153.7942 N   0  0  0  0  0  0  0  0  0  0  0  0
  148.2704  139.7350  153.9643 C   0  0  0  0  0  0  0  0  0  0  0  0
  148.4130  140.8537  154.6775 N   0  0  0  0  0  0  0  0  0  0  0  0
  153.0663  143.7371  158.5647 C   0  0  0  0  0  0  0  0  0  0  0  0
  153.1202  143.2169  160.0032 C   0  0  0  0  0  0  0  0  0  0  0  0
  151.6269  142.9116  159.8591 C   0  0  0  0  0  0  0  0  0  0  0  0
  151.5810  147.0137  160.6058 H   0  0  0  0  0  0  0  0  0  0  0  0
  152.9771  146.0321  160.1811 H   0  0  0  0  0  0  0  0  0  0  0  0
  151.7579  145.4054  161.2906 H   0  0  0  0  0  0  0  0  0  0  0  0
  150.0606  145.4342  159.4358 H   0  0  0  0  0  0  0  0  0  0  0  0
  151.2339  146.1067  158.3553 H   0  0  0  0  0  0  0  0  0  0  0  0
  150.1759  144.2271  157.1926 H   0  0  0  0  0  0  0  0  0  0  0  0
  149.4173  143.0512  155.8312 H   0  0  0  0  0  0  0  0  0  0  0  0
  151.5886  140.2450  155.6731 H   0  0  0  0  0  0  0  0  0  0  0  0
  153.3322  137.4695  154.5510 H   0  0  0  0  0  0  0  0  0  0  0  0
  152.6854  138.5378  155.7913 H   0  0  0  0  0  0  0  0  0  0  0  0
  153.0901  139.1735  154.1806 H   0  0  0  0  0  0  0  0  0  0  0  0
  147.3191  139.5893  153.4749 H   0  0  0  0  0  0  0  0  0  0  0  0
  153.2806  142.9553  157.8331 H   0  0  0  0  0  0  0  0  0  0  0  0
  153.6691  144.6275  158.3832 H   0  0  0  0  0  0  0  0  0  0  0  0
  153.7547  142.3424  160.1493 H   0  0  0  0  0  0  0  0  0  0  0  0
  153.3288  143.9988  160.7353 H   0  0  0  0  0  0  0  0  0  0  0  0
  151.0404  143.1093  160.7565 H   0  0  0  0  0  0  0  0  0  0  0  0
  151.4455  141.9034  159.4809 H   0  0  0  0  0  0  0  0  0  0  0  0
  1  2  1  0  0  0  0
  1 19  1  0  0  0  0
  1 20  1  0  0  0  0
  1 21  1  0  0  0  0
  2  3  1  0  0  0  0
  2 22  1  0  0  0  0
  2 23  1  0  0  0  0
  3 18  1  0  0  0  0
  3  4  1  0  0  0  0
  3 16  1  0  0  0  0
  4  5  1  0  0  0  0
  4 24  1  0  0  0  0
  5  6  2  0  0  0  0
  5  7  1  0  0  0  0
  7  8  1  0  0  0  0
  7 25  1  0  0  0  0
  8 15  1  0  0  0  0
  8  9  2  0  0  0  0
  9 10  1  0  0  0  0
  9 26  1  0  0  0  0
 10 11  1  0  0  0  0
 10 13  2  0  0  0  0
 11 12  1  0  0  0  0
 12 27  1  0  0  0  0
 12 28  1  0  0  0  0
 12 29  1  0  0  0  0
 13 14  1  0  0  0  0
 14 15  2  0  0  0  0
 14 30  1  0  0  0  0
 16 17  1  0  0  0  0
 16 31  1  0  0  0  0
 16 32  1  0  0  0  0
 17 18  1  0  0  0  0
 17 33  1  0  0  0  0
 17 34  1  0  0  0  0
 18 35  1  0  0  0  0
 18 36  1  0  0  0  0
M  END
> <s_m_source_file>
AV-unprocessed.smi

> <i_m_source_file_index>
2436

> <i_lp_mmshare_version>
43012

> <i_f3d_flags>
0

> <s_epik_input>
W0NIMl0xW0NIMl1bQ0gyXUMxKFtDSDJdW0NIM10pW05IXUMoPU8pW05IXWMyW2NIXWMoT1tDSDNdKW5bY0hdbjI=

> <s_epik_cmdline>
J2VwaWtfcHl0aG9uJywgJy1waCcsICc3LjAnLCAnLXRuJywgJzgnLCAnLW1hJywgJzIwMCcsICctbWV0YWxfYmluZGluZycsICctaW1hZScsICc8aW5maWxlLm1hZT4nLCAnLW9tYWUnLCAnPG91dGZpbGUubWFlPic=

> <r_lp_tautomer_probability>
1

> <r_epik_Ionization_Penalty>
2.8431e-05

> <r_epik_Ionization_Penalty_Charging>
0

> <r_epik_Ionization_Penalty_Neutral>
2.8431e-05

> <r_epik_State_Penalty>
-0

> <r_epik_Charging_Adjusted_Penalty>
0

> <i_epik_Tot_Q>
0

> <i_epik_Tot_abs_Q>
0

> <r_epik_Metal_State_Penalty>
-0

> <b_epik_Metal_Only>
0

> <s_lp_Force_Field>
OPLS_2005

> <r_lp_Energy>
14.8333

> <b_lp_Chiralities_Consistent>
1

> <s_lp_Variant>
AV-unprocessed.smi:2436-1

> <Gold.Version>
5.8.1

> <Gold.Id.Protein>
6NUR|6NUR_protein|mol2

> <Gold.PLP.Fitness>
42.1846

> <Gold.PLP.PLP>
-36.9123

> <Gold.PLP.part.hbond>
-2.0000

> <Gold.PLP.part.metal>
0.0000

> <Gold.PLP.part.buried>
-3.2969

> <Gold.PLP.part.nonpolar>
-34.6328

> <Gold.PLP.part.repulsive>
1.7918

> <Gold.PLP.ligand.clash>
0.0000

> <Gold.PLP.ligand.torsion>
0.5517

> <Gold.PLP.Chemscore.Hbond>
1.9913

> <Gold.PLP.Chemscore.CHOScore>
0.0000

> <Gold.PLP.Chemscore.Metal>
0.0000

> <Gold.Chemscore.Hbonds>
donor molecule, donor type, donor heavy atom, donor atom, acceptor molecule, acceptor atom, score
      L1  H     4    24       P1  8028  0.99
      L1  H     7    25       P1  8028  1.00

> <Gold.PLP.Chemscore.Internal.Correction>
0.4020

> <Gold.Rescore>
     Score         DG    S(hbond)    S(metal)    S(lipo)     H(rot)  DE(clash)    DE(int)     intcor
     13.39     -18.11       1.88        0.00      88.69       1.57       0.49       4.23       ----

> <Gold.Chemscore.Fitness>
13.3881

> <Gold.Chemscore.DG>
-18.1149

> <Gold.Chemscore.ZeroCoef>
-5.4800

> <Gold.Chemscore.Hbond>
1.8819

> <Gold.Chemscore.Metal>
0.0000

> <Gold.Chemscore.Lipo>
88.6892

> <Gold.Chemscore.Internal_Hbond>
0.0000

> <Gold.Chemscore.DEClash>
0.4924

> <Gold.Chemscore.DEInternal>
4.2345

> <Gold.Chemscore.Rot>
1.5732

> <Gold.Chemscore.Internal.Correction>
   9.000000E+99

> <Gold.Chemscore.Hbonds>
donor molecule, donor type, donor heavy atom, donor atom, acceptor molecule, acceptor atom, score
      L1  H     4    24       P1  8028  0.68
      L1  H     7    25       P1  8028  1.00

> <Gold.Chemscore.Hbond.Weighted>
-6.2857

> <Gold.Chemscore.Metal.Weighted>
-0.0000

> <Gold.Chemscore.Lipo.Weighted>
-10.3766

> <Gold.Chemscore.Internal_Hbond.Weighted>
0.0000

> <Gold.Chemscore.DEClash.Weighted>
0.4924

> <Gold.Chemscore.DEInternal.Weighted>
4.2345

> <Gold.Chemscore.Rot.Weighted>
4.0274

> <Gold.Chemscore.Internal.Correction.Weighted>
   9.000000E+99

> <Gold.Protein.RotatedTorsions>
[ 6907 6896 6895 6894 ] final   74.68 input  -60.11 | X-H torsion
[ 7974 7965 7964 7962 ] final  -43.11 input  175.53 | X-H torsion
[ 8008 7997 7996 7995 ] final   54.31 input   59.86 | X-H torsion
[ 10167 10162 10161 10158 ] final  169.06 input  -65.29 | X-H torsion
[ 10718 10713 10712 10709 ] final  167.73 input   66.30 | X-H torsion
[ 10763 10752 10751 10750 ] final   54.49 input  -60.55 | X-H torsion
[ 11005 11000 10999 10996 ] final  -96.60 input  -57.11 | X-H torsion

> <Gold.Protein.ActiveResidues>
 VAL166  LYS551  ARG553  GLY616  TRP617  ASP618  TYR619  PRO620  LYS621  CYS622 
 ASP623  PHE694  ASN695  SER759  ASP760  ASP761  ALA762  ILE779  LEU786  VAL792 
 PHE793  MET794  SER795  GLU796  ALA797  LYS798  CYS799  TRP800  GLU811  SER814 

> <Gold.Protein.RotatedAtoms>
  152.4988  134.4234  159.9487 H   0  0  0  0  0  0  0  0  0  0  0  0  # atno 6907 bound_to 6896
  151.4208  133.3692  159.2763 H   0  0  0  0  0  0  0  0  0  0  0  0  # atno 6908 bound_to 6896
  150.9224  134.8663  159.7557 H   0  0  0  0  0  0  0  0  0  0  0  0  # atno 6909 bound_to 6896
  146.0050  140.7030  142.9252 H   0  0  0  0  0  0  0  0  0  0  0  0  # atno 7974 bound_to 7965
  155.4825  140.3469  155.4342 H   0  0  0  0  0  0  0  0  0  0  0  0  # atno 8008 bound_to 7997
  156.1029  140.1440  156.9471 H   0  0  0  0  0  0  0  0  0  0  0  0  # atno 8009 bound_to 7997
  154.4706  140.0902  156.7112 H   0  0  0  0  0  0  0  0  0  0  0  0  # atno 8010 bound_to 7997
  139.4983  144.3746  151.9687 H   0  0  0  0  0  0  0  0  0  0  0  0  # atno 10167 bound_to 10162
  157.0473  131.0303  151.2693 H   0  0  0  0  0  0  0  0  0  0  0  0  # atno 10718 bound_to 10713
  152.9805  135.5743  154.4913 H   0  0  0  0  0  0  0  0  0  0  0  0  # atno 10763 bound_to 10752
  154.4447  135.2777  155.1825 H   0  0  0  0  0  0  0  0  0  0  0  0  # atno 10764 bound_to 10752
  154.3478  135.6215  153.5681 H   0  0  0  0  0  0  0  0  0  0  0  0  # atno 10765 bound_to 10752
  141.1406  133.8110  157.0593 H   0  0  0  0  0  0  0  0  0  0  0  0  # atno 11005 bound_to 11000
  144.6932  140.3299  143.7218 LP  0  0  0  0  0  0  0  0  0  0  0  0  # atno 17320 bound_to 7965
  145.7429  139.1770  143.2365 LP  0  0  0  0  0  0  0  0  0  0  0  0  # atno 17321 bound_to 7965
  140.3183  144.3458  150.6016 LP  0  0  0  0  0  0  0  0  0  0  0  0  # atno 17342 bound_to 10162
  140.5743  143.2178  151.7542 LP  0  0  0  0  0  0  0  0  0  0  0  0  # atno 17343 bound_to 10162
  157.5057  130.7907  149.7652 LP  0  0  0  0  0  0  0  0  0  0  0  0  # atno 17370 bound_to 10713
  156.0019  130.3876  150.2575 LP  0  0  0  0  0  0  0  0  0  0  0  0  # atno 17371 bound_to 10713
  140.0581  134.9769  157.1257 LP  0  0  0  0  0  0  0  0  0  0  0  0  # atno 17394 bound_to 11000
  140.3889  134.2206  155.7167 LP  0  0  0  0  0  0  0  0  0  0  0  0  # atno 17395 bound_to 11000

$$$$
