AV-unprocessed.smi:1221|AV-procd|sdf|5118|dock3
  -GOLD-   22720 4173D 1   1.00000     0.00000
 Structure written by MMmdl.
 40 41  0  0  0  0  0  0  0  0  1 V2000
  144.0571  132.1115  150.1816 C   0  0  0  0  0  0  0  0  0  0  0  0
  144.4592  133.3744  150.8630 C   0  0  0  0  0  0  0  0  0  0  0  0
  145.6337  134.0716  150.9120 C   0  0  0  0  0  0  0  0  0  0  0  0
  145.3130  135.1799  151.7402 C   0  0  0  0  0  0  0  0  0  0  0  0
  146.2856  136.1660  152.0451 N   0  0  0  0  0  0  0  0  0  0  0  0
  146.0957  137.3301  152.6891 C   0  0  0  0  0  0  0  0  0  0  0  0
  145.0166  137.7310  153.1263 O   0  0  0  0  0  0  0  0  0  0  0  0
  147.2417  138.0164  152.8054 N   0  0  0  0  0  0  0  0  0  0  0  0
  147.3711  139.3134  153.4576 C   0  0  0  0  0  0  0  0  0  0  0  0
  148.8432  139.7581  153.5424 C   0  0  0  0  0  0  0  0  0  0  0  0
  149.0264  140.7912  154.5693 N   0  0  0  0  0  0  0  0  0  0  0  0
  147.8782  141.6792  154.8158 C   0  0  0  0  0  0  0  0  0  0  0  0
  147.1935  141.4453  156.1830 C   0  0  0  0  0  0  0  0  0  0  0  0
  148.0977  140.9335  157.3219 C   0  0  0  0  0  0  0  0  0  0  0  0
  149.3756  141.7637  157.5634 C   0  0  0  0  0  0  0  0  0  0  0  0
  150.2899  141.9960  156.3369 C   0  0  0  0  0  0  0  0  0  0  0  0
  150.1895  140.9066  155.2570 C   0  0  0  0  0  0  0  0  0  0  0  0
  151.1618  140.1772  155.0599 O   0  0  0  0  0  0  0  0  0  0  0  0
  144.0568  135.1609  152.1589 N   0  0  0  0  0  0  0  0  0  0  0  0
  143.5026  134.0046  151.5975 O   0  0  0  0  0  0  0  0  0  0  0  0
  144.9316  131.5190  149.9126 H   0  0  0  0  0  0  0  0  0  0  0  0
  143.5000  132.3268  149.2699 H   0  0  0  0  0  0  0  0  0  0  0  0
  143.4248  131.5047  150.8300 H   0  0  0  0  0  0  0  0  0  0  0  0
  146.5691  133.8259  150.4319 H   0  0  0  0  0  0  0  0  0  0  0  0
  147.2264  135.9617  151.7427 H   0  0  0  0  0  0  0  0  0  0  0  0
  148.0828  137.6141  152.4184 H   0  0  0  0  0  0  0  0  0  0  0  0
  146.7972  140.0419  152.8839 H   0  0  0  0  0  0  0  0  0  0  0  0
  146.9165  139.2750  154.4491 H   0  0  0  0  0  0  0  0  0  0  0  0
  149.4839  138.9026  153.7637 H   0  0  0  0  0  0  0  0  0  0  0  0
  149.1767  140.1148  152.5675 H   0  0  0  0  0  0  0  0  0  0  0  0
  148.2059  142.7164  154.7397 H   0  0  0  0  0  0  0  0  0  0  0  0
  147.1269  141.5828  154.0315 H   0  0  0  0  0  0  0  0  0  0  0  0
  146.7017  142.3678  156.4931 H   0  0  0  0  0  0  0  0  0  0  0  0
  146.3921  140.7183  156.0471 H   0  0  0  0  0  0  0  0  0  0  0  0
  147.5174  140.9046  158.2444 H   0  0  0  0  0  0  0  0  0  0  0  0
  148.3695  139.8949  157.1287 H   0  0  0  0  0  0  0  0  0  0  0  0
  149.0943  142.7340  157.9738 H   0  0  0  0  0  0  0  0  0  0  0  0
  149.9568  141.2739  158.3457 H   0  0  0  0  0  0  0  0  0  0  0  0
  150.0729  142.9636  155.8848 H   0  0  0  0  0  0  0  0  0  0  0  0
  151.3251  142.0721  156.6721 H   0  0  0  0  0  0  0  0  0  0  0  0
  1  2  1  0  0  0  0
  1 21  1  0  0  0  0
  1 22  1  0  0  0  0
  1 23  1  0  0  0  0
  2 20  1  0  0  0  0
  2  3  2  0  0  0  0
  3  4  1  0  0  0  0
  3 24  1  0  0  0  0
  4  5  1  0  0  0  0
  4 19  2  0  0  0  0
  5  6  1  0  0  0  0
  5 25  1  0  0  0  0
  6  7  2  0  0  0  0
  6  8  1  0  0  0  0
  8  9  1  0  0  0  0
  8 26  1  0  0  0  0
  9 10  1  0  0  0  0
  9 27  1  0  0  0  0
  9 28  1  0  0  0  0
 10 11  1  0  0  0  0
 10 29  1  0  0  0  0
 10 30  1  0  0  0  0
 11 17  1  0  0  0  0
 11 12  1  0  0  0  0
 12 13  1  0  0  0  0
 12 31  1  0  0  0  0
 12 32  1  0  0  0  0
 13 14  1  0  0  0  0
 13 33  1  0  0  0  0
 13 34  1  0  0  0  0
 14 15  1  0  0  0  0
 14 35  1  0  0  0  0
 14 36  1  0  0  0  0
 15 16  1  0  0  0  0
 15 37  1  0  0  0  0
 15 38  1  0  0  0  0
 16 17  1  0  0  0  0
 16 39  1  0  0  0  0
 16 40  1  0  0  0  0
 17 18  2  0  0  0  0
 19 20  1  0  0  0  0
M  END
> <s_m_source_file>
AV-unprocessed.smi

> <i_m_source_file_index>
1221

> <i_lp_mmshare_version>
43012

> <i_f3d_flags>
0

> <s_epik_input>
W0NIM11jMVtjSF1jKG5vMSlbTkhdQyg9TylbTkhdW0NIMl1bQ0gyXU4yW0NIMl1bQ0gyXVtDSDJdW0NIMl1bQ0gyXUMyPU8=

> <s_epik_cmdline>
J2VwaWtfcHl0aG9uJywgJy1waCcsICc3LjAnLCAnLXRuJywgJzgnLCAnLW1hJywgJzIwMCcsICctbWV0YWxfYmluZGluZycsICctaW1hZScsICc8aW5maWxlLm1hZT4nLCAnLW9tYWUnLCAnPG91dGZpbGUubWFlPic=

> <r_lp_tautomer_probability>
1

> <r_epik_Ionization_Penalty>
2.943e-05

> <r_epik_Ionization_Penalty_Charging>
0

> <r_epik_Ionization_Penalty_Neutral>
2.943e-05

> <r_epik_State_Penalty>
-0

> <r_epik_Charging_Adjusted_Penalty>
0

> <i_epik_Tot_Q>
0

> <i_epik_Tot_abs_Q>
0

> <r_epik_Metal_State_Penalty>
0.0104721

> <b_epik_Metal_Only>
0

> <s_lp_Force_Field>
OPLS_2005

> <r_lp_Energy>
18.1231

> <b_lp_Chiralities_Consistent>
1

> <s_lp_Variant>
AV-unprocessed.smi:1221-1

> <Gold.Version>
5.8.1

> <Gold.Id.Protein>
6NUR|6NUR_protein|mol2

> <Gold.PLP.Fitness>
38.4780

> <Gold.PLP.PLP>
-30.4774

> <Gold.PLP.part.hbond>
-3.0000

> <Gold.PLP.part.metal>
0.0000

> <Gold.PLP.part.buried>
-0.2569

> <Gold.PLP.part.nonpolar>
-28.0404

> <Gold.PLP.part.repulsive>
1.0964

> <Gold.PLP.ligand.clash>
0.0000

> <Gold.PLP.ligand.torsion>
0.4922

> <Gold.PLP.Chemscore.Hbond>
2.9920

> <Gold.PLP.Chemscore.CHOScore>
0.0000

> <Gold.PLP.Chemscore.Metal>
0.0000

> <Gold.Chemscore.Hbonds>
donor molecule, donor type, donor heavy atom, donor atom, acceptor molecule, acceptor atom, score
      L1  H     5    25       P1  7948  1.00
      L1  H     8    26       P1  7948  1.00
      P1  H  7989  7998       L1    18  0.85

> <Gold.PLP.Chemscore.Internal.Correction>
0.0089

> <Gold.Rescore>
     Score         DG    S(hbond)    S(metal)    S(lipo)     H(rot)  DE(clash)    DE(int)     intcor
     14.09     -17.39       2.90        0.00      54.68       1.63       1.52       1.78       ----

> <Gold.Chemscore.Fitness>
14.0931

> <Gold.Chemscore.DG>
-17.3865

> <Gold.Chemscore.ZeroCoef>
-5.4800

> <Gold.Chemscore.Hbond>
2.8961

> <Gold.Chemscore.Metal>
0.0000

> <Gold.Chemscore.Lipo>
54.6797

> <Gold.Chemscore.Internal_Hbond>
0.0000

> <Gold.Chemscore.DEClash>
1.5165

> <Gold.Chemscore.DEInternal>
1.7769

> <Gold.Chemscore.Rot>
1.6266

> <Gold.Chemscore.Internal.Correction>
   9.000000E+99

> <Gold.Chemscore.Hbonds>
donor molecule, donor type, donor heavy atom, donor atom, acceptor molecule, acceptor atom, score
      L1  H     5    25       P1  7948  0.96
      L1  H     8    26       P1  7948  0.95
      P1  H  7989  7998       L1    18  0.15

> <Gold.Chemscore.Hbond.Weighted>
-9.6731

> <Gold.Chemscore.Metal.Weighted>
-0.0000

> <Gold.Chemscore.Lipo.Weighted>
-6.3975

> <Gold.Chemscore.Internal_Hbond.Weighted>
0.0000

> <Gold.Chemscore.DEClash.Weighted>
1.5165

> <Gold.Chemscore.DEInternal.Weighted>
1.7769

> <Gold.Chemscore.Rot.Weighted>
4.1641

> <Gold.Chemscore.Internal.Correction.Weighted>
   9.000000E+99

> <Gold.Protein.RotatedTorsions>
[ 6907 6896 6895 6894 ] final   37.58 input  -60.11 | X-H torsion
[ 7974 7965 7964 7962 ] final   55.09 input  175.53 | X-H torsion
[ 8008 7997 7996 7995 ] final   14.57 input   59.86 | X-H torsion
[ 10167 10162 10161 10158 ] final   93.52 input  -65.29 | X-H torsion
[ 10718 10713 10712 10709 ] final -108.37 input   66.30 | X-H torsion
[ 10763 10752 10751 10750 ] final -108.97 input  -60.55 | X-H torsion
[ 11005 11000 10999 10996 ] final -136.36 input  -57.11 | X-H torsion

> <Gold.Protein.ActiveResidues>
 VAL166  LYS551  ARG553  GLY616  TRP617  ASP618  TYR619  PRO620  LYS621  CYS622 
 ASP623  PHE694  ASN695  SER759  ASP760  ASP761  ALA762  ILE779  LEU786  VAL792 
 PHE793  MET794  SER795  GLU796  ALA797  LYS798  CYS799  TRP800  GLU811  SER814 

> <Gold.Protein.RotatedAtoms>
  152.1451  134.9032  160.0551 H   0  0  0  0  0  0  0  0  0  0  0  0  # atno 6907 bound_to 6896
  152.0086  133.3847  159.4218 H   0  0  0  0  0  0  0  0  0  0  0  0  # atno 6908 bound_to 6896
  150.6869  134.3677  159.5022 H   0  0  0  0  0  0  0  0  0  0  0  0  # atno 6909 bound_to 6896
  145.9541  139.3998  143.0288 H   0  0  0  0  0  0  0  0  0  0  0  0  # atno 7974 bound_to 7965
  154.8503  140.2928  155.5602 H   0  0  0  0  0  0  0  0  0  0  0  0  # atno 8008 bound_to 7997
  156.3016  140.2497  156.3393 H   0  0  0  0  0  0  0  0  0  0  0  0  # atno 8009 bound_to 7997
  154.9028  140.0391  157.1892 H   0  0  0  0  0  0  0  0  0  0  0  0  # atno 8010 bound_to 7997
  139.8172  144.6747  150.9564 H   0  0  0  0  0  0  0  0  0  0  0  0  # atno 10167 bound_to 10162
  156.0482  130.5710  150.7952 H   0  0  0  0  0  0  0  0  0  0  0  0  # atno 10718 bound_to 10713
  154.8166  135.4618  154.0661 H   0  0  0  0  0  0  0  0  0  0  0  0  # atno 10763 bound_to 10752
  153.2049  135.6874  153.8192 H   0  0  0  0  0  0  0  0  0  0  0  0  # atno 10764 bound_to 10752
  153.7664  135.3276  155.3322 H   0  0  0  0  0  0  0  0  0  0  0  0  # atno 10765 bound_to 10752
  140.8812  134.1929  157.4590 H   0  0  0  0  0  0  0  0  0  0  0  0  # atno 11005 bound_to 11000
  145.8131  140.9716  143.0938 LP  0  0  0  0  0  0  0  0  0  0  0  0  # atno 17320 bound_to 7965
  144.6801  139.9946  143.7484 LP  0  0  0  0  0  0  0  0  0  0  0  0  # atno 17321 bound_to 7965
  140.7815  143.4127  151.0967 LP  0  0  0  0  0  0  0  0  0  0  0  0  # atno 17342 bound_to 10162
  139.7789  143.8384  152.3134 LP  0  0  0  0  0  0  0  0  0  0  0  0  # atno 17343 bound_to 10162
  157.5381  131.0939  150.9864 LP  0  0  0  0  0  0  0  0  0  0  0  0  # atno 17370 bound_to 10713
  157.0154  130.5653  149.5325 LP  0  0  0  0  0  0  0  0  0  0  0  0  # atno 17371 bound_to 10713
  139.8720  134.9818  156.5130 LP  0  0  0  0  0  0  0  0  0  0  0  0  # atno 17394 bound_to 11000
  140.8459  133.8169  155.9120 LP  0  0  0  0  0  0  0  0  0  0  0  0  # atno 17395 bound_to 11000

$$$$
