AV-unprocessed.smi:2774|AV-procd|sdf|10684|dock1
  -GOLD-   2272015133D 1   1.00000     0.00000
 Structure written by MMmdl.
 34 35  0  0  0  0  0  0  0  0  1 V2000
  149.4174  142.1056  154.6964 O   0  0  0  0  0  0  0  0  0  0  0  0
  149.4870  141.2468  155.8180 C   0  0  2  0  0  0  0  0  0  0  0  0
  149.9345  142.0544  157.0520 C   0  0  0  0  0  0  0  0  0  0  0  0
  151.0612  142.9424  156.7529 N   0  0  0  0  0  0  0  0  0  0  0  0
  151.7964  143.4564  157.9119 C   0  0  2  0  0  0  0  0  0  0  0  0
  151.9294  142.3924  159.0273 C   0  0  0  0  0  0  0  0  0  0  0  0
  152.7331  142.8929  160.2390 C   0  0  0  0  0  0  0  0  0  0  0  0
  152.0903  144.1121  160.9116 C   0  0  0  0  0  0  0  0  0  0  0  0
  152.0121  145.5160  159.7696 S   0  0  0  0  0  0  0  0  0  0  0  0
  151.0817  144.7168  158.4339 C   0  0  0  0  0  0  0  0  0  0  0  0
  150.3128  139.9881  155.5792 C   0  0  0  0  0  0  0  0  0  0  0  0
  149.9077  139.0000  154.6541 C   0  0  0  0  0  0  0  0  0  0  0  0
  150.7226  137.8637  154.4806 C   0  0  0  0  0  0  0  0  0  0  0  0
  151.8744  137.6662  155.1567 N   0  0  0  0  0  0  0  0  0  0  0  0
  152.2577  138.6137  156.0387 C   0  0  0  0  0  0  0  0  0  0  0  0
  151.5175  139.7872  156.2853 C   0  0  0  0  0  0  0  0  0  0  0  0
  149.4981  142.9973  154.9990 H   0  0  0  0  0  0  0  0  0  0  0  0
  148.4603  140.9240  155.9942 H   0  0  0  0  0  0  0  0  0  0  0  0
  149.0817  142.6152  157.4326 H   0  0  0  0  0  0  0  0  0  0  0  0
  150.2260  141.3607  157.8414 H   0  0  0  0  0  0  0  0  0  0  0  0
  150.7353  143.7164  156.1824 H   0  0  0  0  0  0  0  0  0  0  0  0
  152.7969  143.7476  157.5889 H   0  0  0  0  0  0  0  0  0  0  0  0
  150.9394  142.0704  159.3534 H   0  0  0  0  0  0  0  0  0  0  0  0
  152.4296  141.5018  158.6493 H   0  0  0  0  0  0  0  0  0  0  0  0
  152.8207  142.0869  160.9681 H   0  0  0  0  0  0  0  0  0  0  0  0
  153.7508  143.1366  159.9310 H   0  0  0  0  0  0  0  0  0  0  0  0
  151.0830  143.8722  161.2536 H   0  0  0  0  0  0  0  0  0  0  0  0
  152.6657  144.4072  161.7894 H   0  0  0  0  0  0  0  0  0  0  0  0
  150.9577  145.4429  157.6296 H   0  0  0  0  0  0  0  0  0  0  0  0
  150.0828  144.4714  158.7973 H   0  0  0  0  0  0  0  0  0  0  0  0
  148.9986  139.1087  154.0812 H   0  0  0  0  0  0  0  0  0  0  0  0
  150.4407  137.0928  153.7788 H   0  0  0  0  0  0  0  0  0  0  0  0
  153.1830  138.4314  156.5648 H   0  0  0  0  0  0  0  0  0  0  0  0
  151.8703  140.5153  157.0008 H   0  0  0  0  0  0  0  0  0  0  0  0
  1  2  1  0  0  0  0
  1 17  1  0  0  0  0
  2  3  1  0  0  0  0
  2 11  1  0  0  0  0
  2 18  1  0  0  0  0
  3  4  1  0  0  0  0
  3 19  1  0  0  0  0
  3 20  1  0  0  0  0
  4  5  1  0  0  0  0
  4 21  1  0  0  0  0
  5 10  1  0  0  0  0
  5  6  1  0  0  0  0
  5 22  1  0  0  0  0
  6  7  1  0  0  0  0
  6 23  1  0  0  0  0
  6 24  1  0  0  0  0
  7  8  1  0  0  0  0
  7 25  1  0  0  0  0
  7 26  1  0  0  0  0
  8  9  1  0  0  0  0
  8 27  1  0  0  0  0
  8 28  1  0  0  0  0
  9 10  1  0  0  0  0
 10 29  1  0  0  0  0
 10 30  1  0  0  0  0
 11 16  1  0  0  0  0
 11 12  2  0  0  0  0
 12 13  1  0  0  0  0
 12 31  1  0  0  0  0
 13 14  2  0  0  0  0
 13 32  1  0  0  0  0
 14 15  1  0  0  0  0
 15 16  2  0  0  0  0
 15 33  1  0  0  0  0
 16 34  1  0  0  0  0
M  END
> <s_m_source_file>
AV-unprocessed.smi

> <i_m_source_file_index>
2774

> <i_lp_mmshare_version>
43012

> <i_f3d_flags>
0

> <s_epik_input>
W2NIXTFbY0hdbltjSF1bY0hdYzFbQ0BIXShbT0hdKVtDSDJdW05IXVtDQEBIXTJbQ0gyXVtDSDJdW0NIMl1TW0NIMl0y

> <s_epik_cmdline>
J2VwaWtfcHl0aG9uJywgJy1waCcsICc3LjAnLCAnLXRuJywgJzgnLCAnLW1hJywgJzIwMCcsICctbWV0YWxfYmluZGluZycsICctaW1hZScsICc8aW5maWxlLm1hZT4nLCAnLW9tYWUnLCAnPG91dGZpbGUubWFlPic=

> <r_epik_Ionization_Penalty>
2.08116

> <r_epik_Ionization_Penalty_Charging>
0

> <r_epik_Ionization_Penalty_Neutral>
2.08116

> <r_epik_State_Penalty>
2.1944

> <r_epik_Charging_Adjusted_Penalty>
2.1944

> <i_epik_Tot_Q>
0

> <i_epik_Tot_abs_Q>
0

> <r_epik_Metal_State_Penalty>
2.1769

> <b_epik_Metal_Only>
0

> <s_lp_Force_Field>
OPLS_2005

> <r_lp_Energy>
17.4742

> <b_lp_Chiralities_Consistent>
1

> <s_lp_Variant>
AV-unprocessed.smi:2774-5

> <Gold.Version>
5.8.1

> <Gold.Id.Protein>
6NUR|6NUR_protein|mol2

> <Gold.PLP.Fitness>
51.3354

> <Gold.PLP.PLP>
-43.2158

> <Gold.PLP.part.hbond>
-3.3779

> <Gold.PLP.part.metal>
0.0000

> <Gold.PLP.part.buried>
-4.1593

> <Gold.PLP.part.nonpolar>
-35.9657

> <Gold.PLP.part.repulsive>
0.0706

> <Gold.PLP.ligand.clash>
0.0000

> <Gold.PLP.ligand.torsion>
0.6615

> <Gold.PLP.Chemscore.Hbond>
2.0000

> <Gold.PLP.Chemscore.CHOScore>
1.1152

> <Gold.PLP.Chemscore.Metal>
0.0000

> <Gold.Chemscore.Hbonds>
donor molecule, donor type, donor heavy atom, donor atom, acceptor molecule, acceptor atom, score
      L1  H     1    17       P1  8028  1.00
      L1  H     4    21       P1  8028  0.57
      P1  H  8011  8017       L1     1  0.02
      L1  C    13    32       P1  7948  0.75
      L1  C    13    32       P1  7949  0.35

> <Gold.PLP.Chemscore.Internal.Correction>
0.0973

> <Gold.Rescore>
     Score         DG    S(hbond)    S(metal)    S(lipo)     H(rot)  DE(clash)    DE(int)     intcor
     20.21     -20.84       1.99        0.00     115.96       1.89       0.02       0.61       ----

> <Gold.Chemscore.Fitness>
20.2092

> <Gold.Chemscore.DG>
-20.8359

> <Gold.Chemscore.ZeroCoef>
-5.4800

> <Gold.Chemscore.Hbond>
1.9865

> <Gold.Chemscore.Metal>
0.0000

> <Gold.Chemscore.Lipo>
115.9551

> <Gold.Chemscore.Internal_Hbond>
0.0000

> <Gold.Chemscore.DEClash>
0.0202

> <Gold.Chemscore.DEInternal>
0.6065

> <Gold.Chemscore.Rot>
1.8928

> <Gold.Chemscore.Internal.Correction>
   9.000000E+99

> <Gold.Chemscore.Hbonds>
donor molecule, donor type, donor heavy atom, donor atom, acceptor molecule, acceptor atom, score
      L1  H     1    17       P1  8028  0.98
      L1  H     4    21       P1  8028  0.56
      P1  H  8011  8017       L1     1  0.01

> <Gold.Chemscore.Hbond.Weighted>
-6.6348

> <Gold.Chemscore.Metal.Weighted>
-0.0000

> <Gold.Chemscore.Lipo.Weighted>
-13.5667

> <Gold.Chemscore.Internal_Hbond.Weighted>
0.0000

> <Gold.Chemscore.DEClash.Weighted>
0.0202

> <Gold.Chemscore.DEInternal.Weighted>
0.6065

> <Gold.Chemscore.Rot.Weighted>
4.8455

> <Gold.Chemscore.Internal.Correction.Weighted>
   9.000000E+99

> <Gold.Protein.RotatedTorsions>
[ 6907 6896 6895 6894 ] final -163.98 input  -60.11 | X-H torsion
[ 7974 7965 7964 7962 ] final -105.54 input  175.53 | X-H torsion
[ 8008 7997 7996 7995 ] final -124.53 input   59.86 | X-H torsion
[ 10167 10162 10161 10158 ] final  -34.65 input  -65.29 | X-H torsion
[ 10718 10713 10712 10709 ] final  146.43 input   66.30 | X-H torsion
[ 10763 10752 10751 10750 ] final -102.45 input  -60.55 | X-H torsion
[ 11005 11000 10999 10996 ] final   62.10 input  -57.11 | X-H torsion

> <Gold.Protein.ActiveResidues>
 VAL166  LYS551  ARG553  GLY616  TRP617  ASP618  TYR619  PRO620  LYS621  CYS622 
 ASP623  PHE694  ASN695  SER759  ASP760  ASP761  ALA762  ILE779  LEU786  VAL792 
 PHE793  MET794  SER795  GLU796  ALA797  LYS798  CYS799  TRP800  GLU811  SER814 

> <Gold.Protein.RotatedAtoms>
  151.4047  133.3746  159.2736 H   0  0  0  0  0  0  0  0  0  0  0  0  # atno 6907 bound_to 6896
  150.9407  134.8818  159.7621 H   0  0  0  0  0  0  0  0  0  0  0  0  # atno 6908 bound_to 6896
  152.5070  134.3997  159.9464 H   0  0  0  0  0  0  0  0  0  0  0  0  # atno 6909 bound_to 6896
  145.2292  140.9164  143.3215 H   0  0  0  0  0  0  0  0  0  0  0  0  # atno 7974 bound_to 7965
  155.1984  140.0415  157.2913 H   0  0  0  0  0  0  0  0  0  0  0  0  # atno 8008 bound_to 7997
  154.6091  140.2472  155.7663 H   0  0  0  0  0  0  0  0  0  0  0  0  # atno 8009 bound_to 7997
  156.2368  140.2918  156.0345 H   0  0  0  0  0  0  0  0  0  0  0  0  # atno 8010 bound_to 7997
  140.7181  143.3533  151.2111 H   0  0  0  0  0  0  0  0  0  0  0  0  # atno 10167 bound_to 10162
  157.3333  131.0924  151.1144 H   0  0  0  0  0  0  0  0  0  0  0  0  # atno 10718 bound_to 10713
  154.7735  135.4860  153.9696 H   0  0  0  0  0  0  0  0  0  0  0  0  # atno 10763 bound_to 10752
  153.1398  135.6770  153.9053 H   0  0  0  0  0  0  0  0  0  0  0  0  # atno 10764 bound_to 10752
  153.8731  135.3141  155.3421 H   0  0  0  0  0  0  0  0  0  0  0  0  # atno 10765 bound_to 10752
  140.0115  134.6289  155.9773 H   0  0  0  0  0  0  0  0  0  0  0  0  # atno 11005 bound_to 11000
  144.9693  139.3897  143.6317 LP  0  0  0  0  0  0  0  0  0  0  0  0  # atno 17320 bound_to 7965
  146.3357  139.8783  142.8828 LP  0  0  0  0  0  0  0  0  0  0  0  0  # atno 17321 bound_to 7965
  139.7069  143.9441  152.2930 LP  0  0  0  0  0  0  0  0  0  0  0  0  # atno 17342 bound_to 10162
  139.9153  144.6832  150.8519 LP  0  0  0  0  0  0  0  0  0  0  0  0  # atno 17343 bound_to 10162
  157.2384  130.6558  149.5879 LP  0  0  0  0  0  0  0  0  0  0  0  0  # atno 17370 bound_to 10713
  155.9698  130.4576  150.5969 LP  0  0  0  0  0  0  0  0  0  0  0  0  # atno 17371 bound_to 10713
  141.1714  133.6537  156.4666 LP  0  0  0  0  0  0  0  0  0  0  0  0  # atno 17394 bound_to 11000
  140.4546  134.6898  157.5056 LP  0  0  0  0  0  0  0  0  0  0  0  0  # atno 17395 bound_to 11000

$$$$
