AV-unprocessed.smi:81|AV-procd|sdf|786|dock9
  -GOLD-   2262017153D 1   1.00000     0.00000
 Structure written by MMmdl.
 64 67  0  0  0  0  0  0  0  0  2 V2000
  141.2939  138.2679  153.1660 C   0  0  0  0  0  0  0  0  0  0  0  0
  142.2534  137.0727  153.0425 C   0  0  0  0  0  0  0  0  0  0  0  0
  141.7011  135.8591  153.8031 C   0  0  0  0  0  0  0  0  0  0  0  0
  143.6741  137.4202  153.5435 C   0  0  0  0  0  0  0  0  0  0  0  0
  144.5132  136.2510  153.8233 N   0  0  0  0  0  0  0  0  0  0  0  0
  145.7188  136.5384  154.3739 C   0  0  0  0  0  0  0  0  0  0  0  0
  146.2520  135.7128  155.3130 N   0  0  0  0  0  0  0  0  0  0  0  0
  147.4490  135.9856  155.8407 C   0  0  0  0  0  0  0  0  0  0  0  0
  148.2668  137.0056  155.5716 N   0  0  0  0  0  0  0  0  0  0  0  0
  147.7384  137.8281  154.6204 C   0  0  0  0  0  0  0  0  0  0  0  0
  146.4783  137.6719  153.9797 C   0  0  0  0  0  0  0  0  0  0  0  0
  146.2729  138.7025  153.0718 N   0  0  0  0  0  0  0  0  0  0  0  0
  147.3553  139.4256  153.1652 C   0  0  0  0  0  0  0  0  0  0  0  0
  148.2940  138.9659  154.0621 N   0  0  0  0  0  0  0  0  0  0  0  0
  149.5901  139.5611  154.3498 C   0  0  0  0  0  0  0  0  0  0  0  0
  149.4897  140.9043  155.1202 C   0  0  1  0  0  0  0  0  0  0  0  0
  149.1510  141.9187  154.1891 O   0  0  0  0  0  0  0  0  0  0  0  0
  148.4249  140.9040  156.2132 C   0  0  0  0  0  0  0  0  0  0  0  0
  148.9549  141.9287  157.2042 C   0  0  0  0  0  0  0  0  0  0  0  0
  150.3466  141.6635  157.2049 O   0  0  0  0  0  0  0  0  0  0  0  0
  150.7675  141.3675  155.8750 C   0  0  1  0  0  0  0  0  0  0  0  0
  151.9180  140.3537  155.9723 C   0  0  0  0  0  0  0  0  0  0  0  0
  144.4977  135.1789  152.8175 C   0  0  2  0  0  0  0  0  0  0  0  0
  145.2680  133.9116  153.2446 C   0  0  0  0  0  0  0  0  0  0  0  0
  145.1356  132.8058  152.1848 C   0  0  0  0  0  0  0  0  0  0  0  0
  145.6060  133.2796  150.8594 N   0  3  1  0  0  0  0  0  0  0  0  0
  145.6060  132.2032  149.8456 C   0  0  0  0  0  0  0  0  0  0  0  0
  144.8675  134.4838  150.4040 C   0  0  0  0  0  0  0  0  0  0  0  0
  144.9893  135.6276  151.4241 C   0  0  0  0  0  0  0  0  0  0  0  0
  141.2019  138.5967  154.2015 H   0  0  0  0  0  0  0  0  0  0  0  0
  140.2967  138.0085  152.8096 H   0  0  0  0  0  0  0  0  0  0  0  0
  141.6371  139.1182  152.5770 H   0  0  0  0  0  0  0  0  0  0  0  0
  142.3028  136.7882  151.9909 H   0  0  0  0  0  0  0  0  0  0  0  0
  141.6171  136.0642  154.8708 H   0  0  0  0  0  0  0  0  0  0  0  0
  142.3495  134.9912  153.6807 H   0  0  0  0  0  0  0  0  0  0  0  0
  140.7117  135.5825  153.4380 H   0  0  0  0  0  0  0  0  0  0  0  0
  144.1720  138.0411  152.7979 H   0  0  0  0  0  0  0  0  0  0  0  0
  143.6038  138.0324  154.4436 H   0  0  0  0  0  0  0  0  0  0  0  0
  147.8051  135.2844  156.5811 H   0  0  0  0  0  0  0  0  0  0  0  0
  147.5043  140.3151  152.5707 H   0  0  0  0  0  0  0  0  0  0  0  0
  150.1643  138.8329  154.9230 H   0  0  0  0  0  0  0  0  0  0  0  0
  150.1199  139.7008  153.4065 H   0  0  0  0  0  0  0  0  0  0  0  0
  149.1501  142.7504  154.6377 H   0  0  0  0  0  0  0  0  0  0  0  0
  147.4208  141.1327  155.8529 H   0  0  0  0  0  0  0  0  0  0  0  0
  148.3887  139.9294  156.7016 H   0  0  0  0  0  0  0  0  0  0  0  0
  148.7716  142.9462  156.8557 H   0  0  0  0  0  0  0  0  0  0  0  0
  148.5229  141.8186  158.1989 H   0  0  0  0  0  0  0  0  0  0  0  0
  151.1574  142.2877  155.4357 H   0  0  0  0  0  0  0  0  0  0  0  0
  152.2996  140.0875  154.9866 H   0  0  0  0  0  0  0  0  0  0  0  0
  151.6048  139.4394  156.4767 H   0  0  0  0  0  0  0  0  0  0  0  0
  152.7493  140.7710  156.5409 H   0  0  0  0  0  0  0  0  0  0  0  0
  143.4512  134.8887  152.7146 H   0  0  0  0  0  0  0  0  0  0  0  0
  146.3258  134.1333  153.3915 H   0  0  0  0  0  0  0  0  0  0  0  0
  144.8878  133.5472  154.1995 H   0  0  0  0  0  0  0  0  0  0  0  0
  145.7196  131.9372  152.4912 H   0  0  0  0  0  0  0  0  0  0  0  0
  144.0969  132.4797  152.1097 H   0  0  0  0  0  0  0  0  0  0  0  0
  144.5940  131.8417  149.6582 H   0  0  0  0  0  0  0  0  0  0  0  0
  146.2140  131.3610  150.1773 H   0  0  0  0  0  0  0  0  0  0  0  0
  146.0215  132.5615  148.9033 H   0  0  0  0  0  0  0  0  0  0  0  0
  145.2633  134.8122  149.4421 H   0  0  0  0  0  0  0  0  0  0  0  0
  143.8176  134.2321  150.2456 H   0  0  0  0  0  0  0  0  0  0  0  0
  144.4153  136.4852  151.0726 H   0  0  0  0  0  0  0  0  0  0  0  0
  146.0301  135.9487  151.4719 H   0  0  0  0  0  0  0  0  0  0  0  0
  146.5691  133.5603  150.9793 H   0  0  0  0  0  0  0  0  0  0  0  0
  1  2  1  0  0  0  0
  1 30  1  0  0  0  0
  1 31  1  0  0  0  0
  1 32  1  0  0  0  0
  2  3  1  0  0  0  0
  2  4  1  0  0  0  0
  2 33  1  0  0  0  0
  3 34  1  0  0  0  0
  3 35  1  0  0  0  0
  3 36  1  0  0  0  0
  4  5  1  0  0  0  0
  4 37  1  0  0  0  0
  4 38  1  0  0  0  0
  5  6  1  0  0  0  0
  5 23  1  0  0  0  0
  6 11  1  0  0  0  0
  6  7  2  0  0  0  0
  7  8  1  0  0  0  0
  8  9  2  0  0  0  0
  8 39  1  0  0  0  0
  9 10  1  0  0  0  0
 10 14  1  0  0  0  0
 10 11  2  0  0  0  0
 11 12  1  0  0  0  0
 12 13  2  0  0  0  0
 13 14  1  0  0  0  0
 13 40  1  0  0  0  0
 14 15  1  0  0  0  0
 15 16  1  0  0  0  0
 15 41  1  0  0  0  0
 15 42  1  0  0  0  0
 16 21  1  0  0  0  0
 16 17  1  0  0  0  0
 16 18  1  0  0  0  0
 17 43  1  0  0  0  0
 18 19  1  0  0  0  0
 18 44  1  0  0  0  0
 18 45  1  0  0  0  0
 19 20  1  0  0  0  0
 19 46  1  0  0  0  0
 19 47  1  0  0  0  0
 20 21  1  0  0  0  0
 21 22  1  0  0  0  0
 21 48  1  0  0  0  0
 22 49  1  0  0  0  0
 22 50  1  0  0  0  0
 22 51  1  0  0  0  0
 23 29  1  0  0  0  0
 23 24  1  0  0  0  0
 23 52  1  0  0  0  0
 24 25  1  0  0  0  0
 24 53  1  0  0  0  0
 24 54  1  0  0  0  0
 25 26  1  0  0  0  0
 25 55  1  0  0  0  0
 25 56  1  0  0  0  0
 26 27  1  0  0  0  0
 26 28  1  0  0  0  0
 26 64  1  0  0  0  0
 27 57  1  0  0  0  0
 27 58  1  0  0  0  0
 27 59  1  0  0  0  0
 28 29  1  0  0  0  0
 28 60  1  0  0  0  0
 28 61  1  0  0  0  0
 29 62  1  0  0  0  0
 29 63  1  0  0  0  0
M  CHG  1  26   1
M  END
> <s_m_source_file>
AV-unprocessed.smi

> <i_m_source_file_index>
81

> <i_lp_mmshare_version>
43012

> <i_f3d_flags>
0

> <s_epik_input>
W0NIMl0xW0NIMl1OKFtDSDNdKVtDSDJdW0NIMl1bQ0hdMU4oW0NIMl1bQ0hdKFtDSDNdKVtDSDNdKWMobltjSF1uMiljKGMyMyluW2NIXW4zW0NIMl1bQ0BAXTQoW09IXSlbQ0gyXVtDSDJdT1tDQEhdNFtDSDNd

> <s_epik_cmdline>
J2VwaWtfcHl0aG9uJywgJy1waCcsICc3LjAnLCAnLXRuJywgJzgnLCAnLW1hJywgJzIwMCcsICctbWV0YWxfYmluZGluZycsICctaW1hZScsICc8aW5maWxlLm1hZT4nLCAnLW9tYWUnLCAnPG91dGZpbGUubWFlPic=

> <r_lp_tautomer_probability>
1

> <r_epik_Ionization_Penalty>
0.00272708

> <r_epik_Ionization_Penalty_Charging>
0.00158983

> <r_epik_Ionization_Penalty_Neutral>
0.00113725

> <r_epik_State_Penalty>
-0

> <r_epik_Charging_Adjusted_Penalty>
0.00158983

> <i_epik_Tot_Q>
1

> <i_epik_Tot_abs_Q>
1

> <r_epik_Metal_State_Penalty>
-0

> <b_epik_Metal_Only>
0

> <s_lp_Force_Field>
OPLS_2005

> <r_lp_Energy>
44.8479

> <b_lp_Chiralities_Consistent>
1

> <s_lp_Variant>
AV-unprocessed.smi:81-1

> <Gold.Version>
5.8.1

> <Gold.Id.Protein>
6NUR|6NUR_protein|mol2

> <Gold.PLP.Fitness>
41.6416

> <Gold.PLP.PLP>
-38.7268

> <Gold.PLP.part.hbond>
-1.9932

> <Gold.PLP.part.metal>
0.0000

> <Gold.PLP.part.buried>
-3.9799

> <Gold.PLP.part.nonpolar>
-32.0499

> <Gold.PLP.part.repulsive>
0.4963

> <Gold.PLP.ligand.clash>
0.0000

> <Gold.PLP.ligand.torsion>
1.2796

> <Gold.PLP.Chemscore.Hbond>
1.0036

> <Gold.PLP.Chemscore.CHOScore>
0.5077

> <Gold.PLP.Chemscore.Metal>
0.0000

> <Gold.Chemscore.Hbonds>
donor molecule, donor type, donor heavy atom, donor atom, acceptor molecule, acceptor atom, score
      L1  H    17    43       P1  8028  0.54
      P1  H  8011  8017       L1    17  0.43
      L1  C    13    40       P1  7957  0.60

> <Gold.PLP.Chemscore.Internal.Correction>
0.9401

> <Gold.Rescore>
     Score         DG    S(hbond)    S(metal)    S(lipo)     H(rot)  DE(clash)    DE(int)     intcor
      8.48     -12.56       1.01        0.00      88.12       2.58       0.61       3.47       ----

> <Gold.Chemscore.Fitness>
8.4775

> <Gold.Chemscore.DG>
-12.5551

> <Gold.Chemscore.ZeroCoef>
-5.4800

> <Gold.Chemscore.Hbond>
1.0069

> <Gold.Chemscore.Metal>
0.0000

> <Gold.Chemscore.Lipo>
88.1213

> <Gold.Chemscore.Internal_Hbond>
0.0000

> <Gold.Chemscore.DEClash>
0.6085

> <Gold.Chemscore.DEInternal>
3.4691

> <Gold.Chemscore.Rot>
2.5774

> <Gold.Chemscore.Internal.Correction>
   9.000000E+99

> <Gold.Chemscore.Hbonds>
donor molecule, donor type, donor heavy atom, donor atom, acceptor molecule, acceptor atom, score
      L1  H    17    43       P1  8028  0.54
      P1  H  8011  8017       L1    17  0.14

> <Gold.Chemscore.Hbond.Weighted>
-3.3632

> <Gold.Chemscore.Metal.Weighted>
-0.0000

> <Gold.Chemscore.Lipo.Weighted>
-10.3102

> <Gold.Chemscore.Internal_Hbond.Weighted>
0.0000

> <Gold.Chemscore.DEClash.Weighted>
0.6085

> <Gold.Chemscore.DEInternal.Weighted>
3.4691

> <Gold.Chemscore.Rot.Weighted>
6.5982

> <Gold.Chemscore.Internal.Correction.Weighted>
   9.000000E+99

> <Gold.Protein.RotatedTorsions>
[ 6907 6896 6895 6894 ] final -125.88 input  -60.11 | X-H torsion
[ 7974 7965 7964 7962 ] final  153.08 input  175.53 | X-H torsion
[ 8008 7997 7996 7995 ] final -143.95 input   59.86 | X-H torsion
[ 10167 10162 10161 10158 ] final   35.63 input  -65.29 | X-H torsion
[ 10718 10713 10712 10709 ] final    2.84 input   66.30 | X-H torsion
[ 10763 10752 10751 10750 ] final -129.16 input  -60.55 | X-H torsion
[ 11005 11000 10999 10996 ] final  173.42 input  -57.11 | X-H torsion

> <Gold.Protein.ActiveResidues>
 VAL166  LYS551  ARG553  GLY616  TRP617  ASP618  TYR619  PRO620  LYS621  CYS622 
 ASP623  PHE694  ASN695  SER759  ASP760  ASP761  ALA762  ILE779  LEU786  VAL792 
 PHE793  MET794  SER795  GLU796  ALA797  LYS798  CYS799  TRP800  GLU811  SER814 

> <Gold.Protein.RotatedAtoms>
  150.8913  133.7240  159.2903 H   0  0  0  0  0  0  0  0  0  0  0  0  # atno 6907 bound_to 6896
  151.4789  135.1049  159.9782 H   0  0  0  0  0  0  0  0  0  0  0  0  # atno 6908 bound_to 6896
  152.4821  133.8234  159.7121 H   0  0  0  0  0  0  0  0  0  0  0  0  # atno 6909 bound_to 6896
  144.8178  139.6753  143.6113 H   0  0  0  0  0  0  0  0  0  0  0  0  # atno 7974 bound_to 7965
  155.5189  140.0590  157.2910 H   0  0  0  0  0  0  0  0  0  0  0  0  # atno 8008 bound_to 7997
  154.4525  140.1956  156.0424 H   0  0  0  0  0  0  0  0  0  0  0  0  # atno 8009 bound_to 7997
  156.0732  140.3257  155.7606 H   0  0  0  0  0  0  0  0  0  0  0  0  # atno 8010 bound_to 7997
  140.4204  144.1468  150.6147 H   0  0  0  0  0  0  0  0  0  0  0  0  # atno 10167 bound_to 10162
  156.8690  130.5613  149.5658 H   0  0  0  0  0  0  0  0  0  0  0  0  # atno 10718 bound_to 10713
  154.8757  135.3904  154.3874 H   0  0  0  0  0  0  0  0  0  0  0  0  # atno 10763 bound_to 10752
  153.4614  135.7029  153.6053 H   0  0  0  0  0  0  0  0  0  0  0  0  # atno 10764 bound_to 10752
  153.4550  135.3825  155.2274 H   0  0  0  0  0  0  0  0  0  0  0  0  # atno 10765 bound_to 10752
  140.3403  134.7282  157.4197 H   0  0  0  0  0  0  0  0  0  0  0  0  # atno 11005 bound_to 11000
  146.2483  139.6144  142.9445 LP  0  0  0  0  0  0  0  0  0  0  0  0  # atno 17320 bound_to 7965
  145.5173  141.0433  143.2455 LP  0  0  0  0  0  0  0  0  0  0  0  0  # atno 17321 bound_to 7965
  140.4540  143.2475  151.9309 LP  0  0  0  0  0  0  0  0  0  0  0  0  # atno 17342 bound_to 10162
  139.4782  144.5534  151.8351 LP  0  0  0  0  0  0  0  0  0  0  0  0  # atno 17343 bound_to 10162
  156.0736  130.5763  150.9431 LP  0  0  0  0  0  0  0  0  0  0  0  0  # atno 17370 bound_to 10713
  157.6206  131.0930  150.8628 LP  0  0  0  0  0  0  0  0  0  0  0  0  # atno 17371 bound_to 10713
  140.0787  134.5761  155.8564 LP  0  0  0  0  0  0  0  0  0  0  0  0  # atno 17394 bound_to 11000
  141.2040  133.6636  156.6097 LP  0  0  0  0  0  0  0  0  0  0  0  0  # atno 17395 bound_to 11000

$$$$
