AV-unprocessed.smi:722|AV-procd|sdf|3504|dock2
  -GOLD-   22720 0503D 1   1.00000     0.00000
 Structure written by MMmdl.
 38 39  0  0  0  0  0  0  0  0  1 V2000
  151.2405  137.2862  154.4559 C   0  0  0  0  0  0  0  0  0  0  0  0
  151.7498  138.1799  155.5401 C   0  0  0  0  0  0  0  0  0  0  0  0
  152.9826  138.0964  156.0457 N   0  0  0  0  0  0  0  0  0  0  0  0
  153.0490  139.0771  157.0109 N   0  0  0  0  0  0  0  0  0  0  0  0
  151.8519  139.6676  157.0020 C   0  0  0  0  0  0  0  0  0  0  0  0
  151.4150  140.9907  158.0774 S   0  0  0  0  0  0  0  0  0  0  0  0
  152.9396  140.9988  159.0578 C   0  0  0  0  0  0  0  0  0  0  0  0
  152.8060  141.8922  160.2976 C   0  0  0  0  0  0  0  0  0  0  0  0
  152.0155  143.1842  160.0277 C   0  0  0  0  0  0  0  0  0  0  0  0
  152.3936  143.8989  158.7253 C   0  0  0  0  0  0  0  0  0  0  0  0
  151.9438  145.3534  158.9116 C   0  0  0  0  0  0  0  0  0  0  0  0
  151.7731  145.5644  160.4236 C   0  0  0  0  0  0  0  0  0  0  0  0
  152.2335  144.2645  161.0891 C   0  0  0  0  0  0  0  0  0  0  0  0
  150.9950  139.1485  156.0987 N   0  0  0  0  0  0  0  0  0  0  0  0
  149.6160  139.5263  155.8156 C   0  0  0  0  0  0  0  0  0  0  0  0
  149.4569  140.0073  154.3711 C   0  0  0  0  0  0  0  0  0  0  0  0
  148.9919  139.1256  153.4825 N   0  0  0  0  0  0  0  0  0  0  0  0
  149.7571  141.1576  154.0588 O   0  0  0  0  0  0  0  0  0  0  0  0
  151.9826  136.5270  154.2073 H   0  0  0  0  0  0  0  0  0  0  0  0
  151.0272  137.8682  153.5591 H   0  0  0  0  0  0  0  0  0  0  0  0
  150.3281  136.7835  154.7769 H   0  0  0  0  0  0  0  0  0  0  0  0
  153.1651  139.9745  159.3545 H   0  0  0  0  0  0  0  0  0  0  0  0
  153.7633  141.3377  158.4288 H   0  0  0  0  0  0  0  0  0  0  0  0
  152.3095  141.3280  161.0879 H   0  0  0  0  0  0  0  0  0  0  0  0
  153.7978  142.1414  160.6771 H   0  0  0  0  0  0  0  0  0  0  0  0
  150.9496  142.9513  159.9985 H   0  0  0  0  0  0  0  0  0  0  0  0
  153.4754  143.8710  158.5866 H   0  0  0  0  0  0  0  0  0  0  0  0
  151.9392  143.4370  157.8482 H   0  0  0  0  0  0  0  0  0  0  0  0
  152.6724  146.0450  158.4872 H   0  0  0  0  0  0  0  0  0  0  0  0
  150.9948  145.5275  158.4028 H   0  0  0  0  0  0  0  0  0  0  0  0
  152.3365  146.4248  160.7859 H   0  0  0  0  0  0  0  0  0  0  0  0
  150.7216  145.7441  160.6505 H   0  0  0  0  0  0  0  0  0  0  0  0
  151.6950  144.0571  162.0144 H   0  0  0  0  0  0  0  0  0  0  0  0
  153.2944  144.3374  161.3332 H   0  0  0  0  0  0  0  0  0  0  0  0
  148.9649  138.6744  156.0167 H   0  0  0  0  0  0  0  0  0  0  0  0
  149.3076  140.3193  156.4968 H   0  0  0  0  0  0  0  0  0  0  0  0
  148.8663  139.3979  152.5181 H   0  0  0  0  0  0  0  0  0  0  0  0
  148.7632  138.1881  153.7800 H   0  0  0  0  0  0  0  0  0  0  0  0
  1  2  1  0  0  0  0
  1 19  1  0  0  0  0
  1 20  1  0  0  0  0
  1 21  1  0  0  0  0
  2 14  1  0  0  0  0
  2  3  2  0  0  0  0
  3  4  1  0  0  0  0
  4  5  2  0  0  0  0
  5  6  1  0  0  0  0
  5 14  1  0  0  0  0
  6  7  1  0  0  0  0
  7  8  1  0  0  0  0
  7 22  1  0  0  0  0
  7 23  1  0  0  0  0
  8  9  1  0  0  0  0
  8 24  1  0  0  0  0
  8 25  1  0  0  0  0
  9 13  1  0  0  0  0
  9 10  1  0  0  0  0
  9 26  1  0  0  0  0
 10 11  1  0  0  0  0
 10 27  1  0  0  0  0
 10 28  1  0  0  0  0
 11 12  1  0  0  0  0
 11 29  1  0  0  0  0
 11 30  1  0  0  0  0
 12 13  1  0  0  0  0
 12 31  1  0  0  0  0
 12 32  1  0  0  0  0
 13 33  1  0  0  0  0
 13 34  1  0  0  0  0
 14 15  1  0  0  0  0
 15 16  1  0  0  0  0
 15 35  1  0  0  0  0
 15 36  1  0  0  0  0
 16 17  1  0  0  0  0
 16 18  2  0  0  0  0
 17 37  1  0  0  0  0
 17 38  1  0  0  0  0
M  END
> <s_m_source_file>
AV-unprocessed.smi

> <i_m_source_file_index>
722

> <i_lp_mmshare_version>
43012

> <i_f3d_flags>
0

> <s_epik_input>
W0NIM11jMW5uYyhuMVtDSDJdQyg9TylbTkgyXSlTW0NIMl1bQ0gyXVtDSF0yW0NIMl1bQ0gyXVtDSDJdW0NIMl0y

> <s_epik_cmdline>
J2VwaWtfcHl0aG9uJywgJy1waCcsICc3LjAnLCAnLXRuJywgJzgnLCAnLW1hJywgJzIwMCcsICctbWV0YWxfYmluZGluZycsICctaW1hZScsICc8aW5maWxlLm1hZT4nLCAnLW9tYWUnLCAnPG91dGZpbGUubWFlPic=

> <r_lp_tautomer_probability>
1

> <r_epik_Ionization_Penalty>
8.38536e-06

> <r_epik_Ionization_Penalty_Charging>
0

> <r_epik_Ionization_Penalty_Neutral>
8.38536e-06

> <r_epik_State_Penalty>
-0

> <r_epik_Charging_Adjusted_Penalty>
0

> <i_epik_Tot_Q>
0

> <i_epik_Tot_abs_Q>
0

> <r_epik_Metal_State_Penalty>
-0

> <b_epik_Metal_Only>
0

> <s_lp_Force_Field>
OPLS_2005

> <r_lp_Energy>
19.4661

> <b_lp_Chiralities_Consistent>
1

> <s_lp_Variant>
AV-unprocessed.smi:722-1

> <Gold.Version>
5.8.1

> <Gold.Id.Protein>
6NUR|6NUR_protein|mol2

> <Gold.PLP.Fitness>
49.1744

> <Gold.PLP.PLP>
-41.6430

> <Gold.PLP.part.hbond>
-4.2400

> <Gold.PLP.part.metal>
0.0000

> <Gold.PLP.part.buried>
-3.2135

> <Gold.PLP.part.nonpolar>
-35.5021

> <Gold.PLP.part.repulsive>
0.6113

> <Gold.PLP.ligand.clash>
0.0000

> <Gold.PLP.ligand.torsion>
0.6001

> <Gold.PLP.Chemscore.Hbond>
2.8850

> <Gold.PLP.Chemscore.CHOScore>
0.0000

> <Gold.PLP.Chemscore.Metal>
0.0000

> <Gold.Chemscore.Hbonds>
donor molecule, donor type, donor heavy atom, donor atom, acceptor molecule, acceptor atom, score
      L1  H    17    37       P1  7957  0.93
      P1  H  7989  7998       L1    18  0.40
      P1  H  7997  8010       L1     4  1.00
      P1  H  8011  8017       L1    18  0.59

> <Gold.PLP.Chemscore.Internal.Correction>
0.0766

> <Gold.Rescore>
     Score         DG    S(hbond)    S(metal)    S(lipo)     H(rot)  DE(clash)    DE(int)     intcor
     17.30     -18.59       2.48        0.00      99.42       2.66       1.03       0.26       ----

> <Gold.Chemscore.Fitness>
17.3011

> <Gold.Chemscore.DG>
-18.5909

> <Gold.Chemscore.ZeroCoef>
-5.4800

> <Gold.Chemscore.Hbond>
2.4802

> <Gold.Chemscore.Metal>
0.0000

> <Gold.Chemscore.Lipo>
99.4208

> <Gold.Chemscore.Internal_Hbond>
0.0000

> <Gold.Chemscore.DEClash>
1.0270

> <Gold.Chemscore.DEInternal>
0.2628

> <Gold.Chemscore.Rot>
2.6583

> <Gold.Chemscore.Internal.Correction>
   9.000000E+99

> <Gold.Chemscore.Hbonds>
donor molecule, donor type, donor heavy atom, donor atom, acceptor molecule, acceptor atom, score
      L1  H    17    37       P1  7957  0.89
      P1  H  7989  7998       L1    18  0.12
      P1  H  7997  8010       L1     4  0.35
      P1  H  8011  8017       L1    18  0.58

> <Gold.Chemscore.Hbond.Weighted>
-8.2838

> <Gold.Chemscore.Metal.Weighted>
-0.0000

> <Gold.Chemscore.Lipo.Weighted>
-11.6322

> <Gold.Chemscore.Internal_Hbond.Weighted>
0.0000

> <Gold.Chemscore.DEClash.Weighted>
1.0270

> <Gold.Chemscore.DEInternal.Weighted>
0.2628

> <Gold.Chemscore.Rot.Weighted>
6.8052

> <Gold.Chemscore.Internal.Correction.Weighted>
   9.000000E+99

> <Gold.Protein.RotatedTorsions>
[ 6907 6896 6895 6894 ] final   94.79 input  -60.11 | X-H torsion
[ 7974 7965 7964 7962 ] final -151.08 input  175.53 | X-H torsion
[ 8008 7997 7996 7995 ] final   70.96 input   59.86 | X-H torsion
[ 10167 10162 10161 10158 ] final   33.93 input  -65.29 | X-H torsion
[ 10718 10713 10712 10709 ] final    3.26 input   66.30 | X-H torsion
[ 10763 10752 10751 10750 ] final   78.53 input  -60.55 | X-H torsion
[ 11005 11000 10999 10996 ] final -104.90 input  -57.11 | X-H torsion

> <Gold.Protein.ActiveResidues>
 VAL166  LYS551  ARG553  GLY616  TRP617  ASP618  TYR619  PRO620  LYS621  CYS622 
 ASP623  PHE694  ASN695  SER759  ASP760  ASP761  ALA762  ILE779  LEU786  VAL792 
 PHE793  MET794  SER795  GLU796  ALA797  LYS798  CYS799  TRP800  GLU811  SER814 

> <Gold.Protein.RotatedAtoms>
  152.5447  134.1140  159.8370 H   0  0  0  0  0  0  0  0  0  0  0  0  # atno 6907 bound_to 6896
  151.1203  133.5101  159.2609 H   0  0  0  0  0  0  0  0  0  0  0  0  # atno 6908 bound_to 6896
  151.1786  135.0360  159.8837 H   0  0  0  0  0  0  0  0  0  0  0  0  # atno 6909 bound_to 6896
  144.7870  140.4845  143.5799 H   0  0  0  0  0  0  0  0  0  0  0  0  # atno 7974 bound_to 7965
  155.7467  140.3489  155.5130 H   0  0  0  0  0  0  0  0  0  0  0  0  # atno 8008 bound_to 7997
  155.9043  140.1039  157.1348 H   0  0  0  0  0  0  0  0  0  0  0  0  # atno 8009 bound_to 7997
  154.4048  140.1280  156.4463 H   0  0  0  0  0  0  0  0  0  0  0  0  # atno 8010 bound_to 7997
  140.4362  144.1254  150.6166 H   0  0  0  0  0  0  0  0  0  0  0  0  # atno 10167 bound_to 10162
  156.8752  130.5634  149.5655 H   0  0  0  0  0  0  0  0  0  0  0  0  # atno 10718 bound_to 10713
  153.0881  135.4873  154.8637 H   0  0  0  0  0  0  0  0  0  0  0  0  # atno 10763 bound_to 10752
  154.7236  135.3044  154.9010 H   0  0  0  0  0  0  0  0  0  0  0  0  # atno 10764 bound_to 10752
  153.9666  135.6806  153.4799 H   0  0  0  0  0  0  0  0  0  0  0  0  # atno 10765 bound_to 10752
  141.1079  133.8762  157.1668 H   0  0  0  0  0  0  0  0  0  0  0  0  # atno 11005 bound_to 11000
  145.5895  139.1494  143.3190 LP  0  0  0  0  0  0  0  0  0  0  0  0  # atno 17320 bound_to 7965
  146.2106  140.6021  142.9061 LP  0  0  0  0  0  0  0  0  0  0  0  0  # atno 17321 bound_to 7965
  140.4371  143.2542  151.9521 LP  0  0  0  0  0  0  0  0  0  0  0  0  # atno 17342 bound_to 10162
  139.4787  144.5689  151.8120 LP  0  0  0  0  0  0  0  0  0  0  0  0  # atno 17343 bound_to 10162
  156.0706  130.5739  150.9375 LP  0  0  0  0  0  0  0  0  0  0  0  0  # atno 17370 bound_to 10713
  157.6173  131.0932  150.8688 LP  0  0  0  0  0  0  0  0  0  0  0  0  # atno 17371 bound_to 10713
  139.9957  135.0047  157.0078 LP  0  0  0  0  0  0  0  0  0  0  0  0  # atno 17394 bound_to 11000
  140.4854  134.1247  155.7223 LP  0  0  0  0  0  0  0  0  0  0  0  0  # atno 17395 bound_to 11000

$$$$
