AV-unprocessed.smi:107|AV-procd|sdf|1016|dock2
  -GOLD-   2262018 13D 1   1.00000     0.00000
 Structure written by MMmdl.
 31 32  0  0  0  0  0  0  0  0  1 V2000
  154.2644  139.2681  160.4776 C   0  0  0  0  0  0  0  0  0  0  0  0
  153.7382  140.5575  161.0858 C   0  0  0  0  0  0  0  0  0  0  0  0
  152.9292  141.4069  160.4027 C   0  0  0  0  0  0  0  0  0  0  0  0
  152.4350  142.5924  160.9282 N   0  0  0  0  0  0  0  0  0  0  0  0
  151.5363  143.4885  160.1056 C   0  0  1  0  0  0  0  0  0  0  0  0
  152.3516  144.2963  159.0907 C   0  0  0  0  0  0  0  0  0  0  0  0
  152.0323  143.5938  157.7845 C   0  0  2  0  0  0  0  0  0  0  0  0
  152.0984  144.4923  156.6959 O   0  0  0  0  0  0  0  0  0  0  0  0
  150.6132  143.0746  158.0283 C   0  0  1  0  0  0  0  0  0  0  0  0
  150.2405  141.8688  157.1527 C   0  0  0  0  0  0  0  0  0  0  0  0
  150.1686  142.2603  155.7984 O   0  0  0  0  0  0  0  0  0  0  0  0
  150.6381  142.6867  159.3989 O   0  0  0  0  0  0  0  0  0  0  0  0
  152.7860  142.9639  162.2434 C   0  0  0  0  0  0  0  0  0  0  0  0
  152.4060  144.0073  162.7732 O   0  0  0  0  0  0  0  0  0  0  0  0
  153.6131  142.0899  162.9471 N   0  0  0  0  0  0  0  0  0  0  0  0
  154.1278  140.8861  162.4596 C   0  0  0  0  0  0  0  0  0  0  0  0
  154.8502  140.1987  163.1795 O   0  0  0  0  0  0  0  0  0  0  0  0
  153.8642  142.3507  163.8894 H   0  0  0  0  0  0  0  0  0  0  0  0
  153.8995  139.1221  159.4607 H   0  0  0  0  0  0  0  0  0  0  0  0
  153.9497  138.4097  161.0718 H   0  0  0  0  0  0  0  0  0  0  0  0
  155.3543  139.2803  160.4433 H   0  0  0  0  0  0  0  0  0  0  0  0
  152.6567  141.1420  159.3920 H   0  0  0  0  0  0  0  0  0  0  0  0
  150.9694  144.1175  160.7933 H   0  0  0  0  0  0  0  0  0  0  0  0
  151.9748  145.3203  159.0911 H   0  0  0  0  0  0  0  0  0  0  0  0
  153.4155  144.3135  159.3320 H   0  0  0  0  0  0  0  0  0  0  0  0
  152.7254  142.7670  157.6242 H   0  0  0  0  0  0  0  0  0  0  0  0
  151.2194  144.6689  156.3965 H   0  0  0  0  0  0  0  0  0  0  0  0
  149.8990  143.8915  157.9046 H   0  0  0  0  0  0  0  0  0  0  0  0
  151.0075  141.0975  157.2291 H   0  0  0  0  0  0  0  0  0  0  0  0
  149.2983  141.4220  157.4719 H   0  0  0  0  0  0  0  0  0  0  0  0
  149.7866  143.1235  155.7545 H   0  0  0  0  0  0  0  0  0  0  0  0
  1  2  1  0  0  0  0
  1 19  1  0  0  0  0
  1 20  1  0  0  0  0
  1 21  1  0  0  0  0
  2 16  1  0  0  0  0
  2  3  2  0  0  0  0
  3  4  1  0  0  0  0
  3 22  1  0  0  0  0
  4  5  1  0  0  0  0
  4 13  1  0  0  0  0
  5 12  1  0  0  0  0
  5  6  1  0  0  0  0
  5 23  1  0  0  0  0
  6  7  1  0  0  0  0
  6 24  1  0  0  0  0
  6 25  1  0  0  0  0
  7  8  1  0  0  0  0
  7  9  1  0  0  0  0
  7 26  1  0  0  0  0
  8 27  1  0  0  0  0
  9 10  1  0  0  0  0
  9 12  1  0  0  0  0
  9 28  1  0  0  0  0
 10 11  1  0  0  0  0
 10 29  1  0  0  0  0
 10 30  1  0  0  0  0
 11 31  1  0  0  0  0
 13 14  2  0  0  0  0
 13 15  1  0  0  0  0
 15 18  1  0  0  0  0
 15 16  1  0  0  0  0
 16 17  2  0  0  0  0
M  END
> <s_m_source_file>
AV-unprocessed.smi

> <i_m_source_file_index>
107

> <i_lp_mmshare_version>
43012

> <i_f3d_flags>
0

> <s_epik_input>
Tz1jMVtuSF1jKD1PKW4oW2NIXWMxW0NIM10pW0NAQEhdMltDSDJdW0NAQEhdKFtPSF0pW0NASF0oTzIpW0NIMl1bT0hd

> <s_epik_cmdline>
J2VwaWtfcHl0aG9uJywgJy1waCcsICc3LjAnLCAnLXRuJywgJzgnLCAnLW1hJywgJzIwMCcsICctbWV0YWxfYmluZGluZycsICctaW1hZScsICc8aW5maWxlLm1hZT4nLCAnLW9tYWUnLCAnPG91dGZpbGUubWFlPic=

> <r_lp_tautomer_probability>
0.999537

> <r_epik_Ionization_Penalty>
0.00121888

> <r_epik_Ionization_Penalty_Charging>
0.00121876

> <r_epik_Ionization_Penalty_Neutral>
1.19946e-07

> <r_epik_State_Penalty>
0.000805124

> <r_epik_Charging_Adjusted_Penalty>
0.00202389

> <i_epik_Tot_Q>
0

> <i_epik_Tot_abs_Q>
0

> <r_epik_Metal_State_Penalty>
0.662472

> <b_epik_Metal_Only>
0

> <s_epik_Chemistry_Notes>
This compound contains an acetal/aminal-like group ( X-CH(R)-Y where X, Y are N, S, or O) that may be acid/base labile, releasing an aldehyde.

> <s_lp_Force_Field>
OPLS_2005

> <r_lp_Energy>
24.9253

> <b_lp_Chiralities_Consistent>
1

> <s_lp_Variant>
AV-unprocessed.smi:107-4

> <Gold.Version>
5.8.1

> <Gold.Id.Protein>
6NUR|6NUR_protein|mol2

> <Gold.PLP.Fitness>
39.9605

> <Gold.PLP.PLP>
-34.9946

> <Gold.PLP.part.hbond>
-5.0000

> <Gold.PLP.part.metal>
0.0000

> <Gold.PLP.part.buried>
0.4248

> <Gold.PLP.part.nonpolar>
-30.5825

> <Gold.PLP.part.repulsive>
1.1197

> <Gold.PLP.ligand.clash>
0.0000

> <Gold.PLP.ligand.torsion>
0.5215

> <Gold.PLP.Chemscore.Hbond>
2.0000

> <Gold.PLP.Chemscore.CHOScore>
0.0000

> <Gold.PLP.Chemscore.Metal>
0.0000

> <Gold.Chemscore.Hbonds>
donor molecule, donor type, donor heavy atom, donor atom, acceptor molecule, acceptor atom, score
      L1  H     8    27       P1  8028  0.06
      L1  H    11    31       P1  8028  1.00

> <Gold.PLP.Chemscore.Internal.Correction>
0.0089

> <Gold.Rescore>
     Score         DG    S(hbond)    S(metal)    S(lipo)     H(rot)  DE(clash)    DE(int)     intcor
     10.15     -12.41       1.93        0.00      63.77       2.73       1.60       0.66       ----

> <Gold.Chemscore.Fitness>
10.1493

> <Gold.Chemscore.DG>
-12.4069

> <Gold.Chemscore.ZeroCoef>
-5.4800

> <Gold.Chemscore.Hbond>
1.9288

> <Gold.Chemscore.Metal>
0.0000

> <Gold.Chemscore.Lipo>
63.7744

> <Gold.Chemscore.Internal_Hbond>
0.0000

> <Gold.Chemscore.DEClash>
1.6000

> <Gold.Chemscore.DEInternal>
0.6575

> <Gold.Chemscore.Rot>
2.7253

> <Gold.Chemscore.Internal.Correction>
   9.000000E+99

> <Gold.Chemscore.Hbonds>
donor molecule, donor type, donor heavy atom, donor atom, acceptor molecule, acceptor atom, score
      L1  H     8    27       P1  8028  0.10
      L1  H    11    31       P1  8028  1.00

> <Gold.Chemscore.Hbond.Weighted>
-6.4421

> <Gold.Chemscore.Metal.Weighted>
-0.0000

> <Gold.Chemscore.Lipo.Weighted>
-7.4616

> <Gold.Chemscore.Internal_Hbond.Weighted>
0.0000

> <Gold.Chemscore.DEClash.Weighted>
1.6000

> <Gold.Chemscore.DEInternal.Weighted>
0.6575

> <Gold.Chemscore.Rot.Weighted>
6.9769

> <Gold.Chemscore.Internal.Correction.Weighted>
   9.000000E+99

> <Gold.Protein.RotatedTorsions>
[ 6907 6896 6895 6894 ] final -107.23 input  -60.11 | X-H torsion
[ 7974 7965 7964 7962 ] final   90.22 input  175.53 | X-H torsion
[ 8008 7997 7996 7995 ] final  -86.51 input   59.86 | X-H torsion
[ 10167 10162 10161 10158 ] final -100.10 input  -65.29 | X-H torsion
[ 10718 10713 10712 10709 ] final  -49.36 input   66.30 | X-H torsion
[ 10763 10752 10751 10750 ] final -130.90 input  -60.55 | X-H torsion
[ 11005 11000 10999 10996 ] final  -52.94 input  -57.11 | X-H torsion

> <Gold.Protein.ActiveResidues>
 VAL166  LYS551  ARG553  GLY616  TRP617  ASP618  TYR619  PRO620  LYS621  CYS622 
 ASP623  PHE694  ASN695  SER759  ASP760  ASP761  ALA762  ILE779  LEU786  VAL792 
 PHE793  MET794  SER795  GLU796  ALA797  LYS798  CYS799  TRP800  GLU811  SER814 

> <Gold.Protein.RotatedAtoms>
  150.7432  133.9858  159.3590 H   0  0  0  0  0  0  0  0  0  0  0  0  # atno 6907 bound_to 6896
  151.7802  135.0761  160.0382 H   0  0  0  0  0  0  0  0  0  0  0  0  # atno 6908 bound_to 6896
  152.3279  133.5889  159.5825 H   0  0  0  0  0  0  0  0  0  0  0  0  # atno 6909 bound_to 6896
  145.5219  139.2279  143.2667 H   0  0  0  0  0  0  0  0  0  0  0  0  # atno 7974 bound_to 7965
  154.6526  140.0577  156.9973 H   0  0  0  0  0  0  0  0  0  0  0  0  # atno 8008 bound_to 7997
  155.1348  140.3260  155.4447 H   0  0  0  0  0  0  0  0  0  0  0  0  # atno 8009 bound_to 7997
  156.2583  140.1974  156.6465 H   0  0  0  0  0  0  0  0  0  0  0  0  # atno 8010 bound_to 7997
  140.2554  143.3443  152.0675 H   0  0  0  0  0  0  0  0  0  0  0  0  # atno 10167 bound_to 10162
  156.1901  130.4152  149.9384 H   0  0  0  0  0  0  0  0  0  0  0  0  # atno 10718 bound_to 10713
  154.8753  135.3847  154.4159 H   0  0  0  0  0  0  0  0  0  0  0  0  # atno 10763 bound_to 10752
  153.4868  135.7030  153.5912 H   0  0  0  0  0  0  0  0  0  0  0  0  # atno 10764 bound_to 10752
  153.4303  135.3880  155.2134 H   0  0  0  0  0  0  0  0  0  0  0  0  # atno 10765 bound_to 10752
  141.0950  133.6626  156.4098 H   0  0  0  0  0  0  0  0  0  0  0  0  # atno 11005 bound_to 11000
  146.2100  140.6032  142.9064 LP  0  0  0  0  0  0  0  0  0  0  0  0  # atno 17320 bound_to 7965
  144.7671  140.5555  143.6695 LP  0  0  0  0  0  0  0  0  0  0  0  0  # atno 17321 bound_to 7965
  139.5033  144.6752  151.6145 LP  0  0  0  0  0  0  0  0  0  0  0  0  # atno 17342 bound_to 10162
  140.6008  143.9614  150.6384 LP  0  0  0  0  0  0  0  0  0  0  0  0  # atno 17343 bound_to 10162
  156.7127  130.8976  151.3611 LP  0  0  0  0  0  0  0  0  0  0  0  0  # atno 17370 bound_to 10713
  157.6923  130.9246  150.0548 LP  0  0  0  0  0  0  0  0  0  0  0  0  # atno 17371 bound_to 10713
  140.5161  134.6349  157.5302 LP  0  0  0  0  0  0  0  0  0  0  0  0  # atno 17394 bound_to 11000
  139.9785  134.7176  155.9904 LP  0  0  0  0  0  0  0  0  0  0  0  0  # atno 17395 bound_to 11000

$$$$
