AV-unprocessed.smi:281|AV-procd|sdf|2116|dock8
  -GOLD-   2262021413D 1   1.00000     0.00000
 Structure written by MMmdl.
 55 59  0  0  0  0  0  0  0  0  1 V2000
  148.4946  137.5416  158.7087 C   0  0  0  0  0  0  0  0  0  0  0  0
  149.5468  137.0329  157.7186 C   0  0  1  0  0  0  0  0  0  0  0  0
  149.1756  135.6602  157.1363 C   0  0  0  0  0  0  0  0  0  0  0  0
  150.1603  135.2777  156.1359 N   0  0  0  0  0  0  0  0  0  0  0  0
  150.0719  134.0076  155.6899 C   0  0  0  0  0  0  0  0  0  0  0  0
  149.3953  133.8106  154.5324 N   0  0  0  0  0  0  0  0  0  0  0  0
  149.2607  132.5755  154.0400 C   0  0  0  0  0  0  0  0  0  0  0  0
  149.7117  131.4232  154.5403 N   0  0  0  0  0  0  0  0  0  0  0  0
  150.3878  131.6190  155.7090 C   0  0  0  0  0  0  0  0  0  0  0  0
  150.6099  132.8685  156.3535 C   0  0  0  0  0  0  0  0  0  0  0  0
  151.3187  132.6732  157.5328 N   0  0  0  0  0  0  0  0  0  0  0  0
  151.5105  131.3833  157.5791 C   0  0  0  0  0  0  0  0  0  0  0  0
  150.9940  130.6734  156.5183 N   0  0  0  0  0  0  0  0  0  0  0  0
  151.0584  129.2339  156.3150 C   0  0  0  0  0  0  0  0  0  0  0  0
  151.7546  128.8186  154.9956 C   0  0  2  0  0  0  0  0  0  0  0  0
  150.9110  129.1432  153.9060 O   0  0  0  0  0  0  0  0  0  0  0  0
  152.0705  127.3221  154.9527 C   0  0  0  0  0  0  0  0  0  0  0  0
  153.5836  127.2705  155.1223 C   0  0  0  0  0  0  0  0  0  0  0  0
  154.0100  128.4262  154.4238 O   0  0  0  0  0  0  0  0  0  0  0  0
  153.1315  129.4816  154.7871 C   0  0  0  0  0  0  0  0  0  0  0  0
  150.2870  136.2555  155.0653 C   0  0  0  0  0  0  0  0  0  0  0  0
  150.6006  137.6594  155.6338 C   0  0  1  0  0  0  0  0  0  0  0  0
  152.0334  137.7953  156.1679 C   0  0  0  0  0  0  0  0  0  0  0  0
  152.7434  138.6556  155.1317 C   0  0  0  0  0  0  0  0  0  0  0  0
  151.7138  139.5246  154.6995 O   0  0  0  0  0  0  0  0  0  0  0  0
  150.5546  138.7261  154.5122 C   0  0  2  0  0  0  0  0  0  0  0  0
  149.2981  139.6080  154.4731 C   0  0  0  0  0  0  0  0  0  0  0  0
  149.6474  137.9821  156.6559 O   0  0  0  0  0  0  0  0  0  0  0  0
  148.3818  136.8562  159.5490 H   0  0  0  0  0  0  0  0  0  0  0  0
  147.5209  137.6478  158.2292 H   0  0  0  0  0  0  0  0  0  0  0  0
  148.7766  138.5153  159.1096 H   0  0  0  0  0  0  0  0  0  0  0  0
  150.5014  136.9587  158.2404 H   0  0  0  0  0  0  0  0  0  0  0  0
  149.1390  134.9103  157.9276 H   0  0  0  0  0  0  0  0  0  0  0  0
  148.1837  135.7093  156.6864 H   0  0  0  0  0  0  0  0  0  0  0  0
  148.7121  132.4996  153.1128 H   0  0  0  0  0  0  0  0  0  0  0  0
  152.0380  130.9127  158.3961 H   0  0  0  0  0  0  0  0  0  0  0  0
  151.5789  128.7941  157.1668 H   0  0  0  0  0  0  0  0  0  0  0  0
  150.0412  128.8404  156.3444 H   0  0  0  0  0  0  0  0  0  0  0  0
  150.9728  128.4531  153.2635 H   0  0  0  0  0  0  0  0  0  0  0  0
  151.5468  126.7438  155.7147 H   0  0  0  0  0  0  0  0  0  0  0  0
  151.8102  126.8940  153.9830 H   0  0  0  0  0  0  0  0  0  0  0  0
  153.8648  127.3485  156.1738 H   0  0  0  0  0  0  0  0  0  0  0  0
  154.0245  126.3625  154.7104 H   0  0  0  0  0  0  0  0  0  0  0  0
  153.1276  130.2721  154.0355 H   0  0  0  0  0  0  0  0  0  0  0  0
  153.5064  129.9124  155.7157 H   0  0  0  0  0  0  0  0  0  0  0  0
  151.0669  135.9471  154.3672 H   0  0  0  0  0  0  0  0  0  0  0  0
  149.3519  136.2863  154.5037 H   0  0  0  0  0  0  0  0  0  0  0  0
  152.0336  138.3320  157.1173 H   0  0  0  0  0  0  0  0  0  0  0  0
  152.5337  136.8398  156.3297 H   0  0  0  0  0  0  0  0  0  0  0  0
  153.5892  139.2042  155.5465 H   0  0  0  0  0  0  0  0  0  0  0  0
  153.0968  138.0527  154.2938 H   0  0  0  0  0  0  0  0  0  0  0  0
  150.6657  138.2386  153.5415 H   0  0  0  0  0  0  0  0  0  0  0  0
  148.3995  139.0032  154.3487 H   0  0  0  0  0  0  0  0  0  0  0  0
  149.3446  140.3100  153.6404 H   0  0  0  0  0  0  0  0  0  0  0  0
  149.1899  140.1907  155.3882 H   0  0  0  0  0  0  0  0  0  0  0  0
  1  2  1  0  0  0  0
  1 29  1  0  0  0  0
  1 30  1  0  0  0  0
  1 31  1  0  0  0  0
  2 28  1  0  0  0  0
  2  3  1  0  0  0  0
  2 32  1  0  0  0  0
  3  4  1  0  0  0  0
  3 33  1  0  0  0  0
  3 34  1  0  0  0  0
  4  5  1  0  0  0  0
  4 21  1  0  0  0  0
  5 10  1  0  0  0  0
  5  6  2  0  0  0  0
  6  7  1  0  0  0  0
  7  8  2  0  0  0  0
  7 35  1  0  0  0  0
  8  9  1  0  0  0  0
  9 13  1  0  0  0  0
  9 10  2  0  0  0  0
 10 11  1  0  0  0  0
 11 12  2  0  0  0  0
 12 13  1  0  0  0  0
 12 36  1  0  0  0  0
 13 14  1  0  0  0  0
 14 15  1  0  0  0  0
 14 37  1  0  0  0  0
 14 38  1  0  0  0  0
 15 20  1  0  0  0  0
 15 16  1  0  0  0  0
 15 17  1  0  0  0  0
 16 39  1  0  0  0  0
 17 18  1  0  0  0  0
 17 40  1  0  0  0  0
 17 41  1  0  0  0  0
 18 19  1  0  0  0  0
 18 42  1  0  0  0  0
 18 43  1  0  0  0  0
 19 20  1  0  0  0  0
 20 44  1  0  0  0  0
 20 45  1  0  0  0  0
 21 22  1  0  0  0  0
 21 46  1  0  0  0  0
 21 47  1  0  0  0  0
 22 26  1  0  0  0  0
 22 23  1  0  0  0  0
 22 28  1  0  0  0  0
 23 24  1  0  0  0  0
 23 48  1  0  0  0  0
 23 49  1  0  0  0  0
 24 25  1  0  0  0  0
 24 50  1  0  0  0  0
 24 51  1  0  0  0  0
 25 26  1  0  0  0  0
 26 27  1  0  0  0  0
 26 52  1  0  0  0  0
 27 53  1  0  0  0  0
 27 54  1  0  0  0  0
 27 55  1  0  0  0  0
M  END
> <s_m_source_file>
AV-unprocessed.smi

> <i_m_source_file_index>
281

> <i_lp_mmshare_version>
43012

> <i_f3d_flags>
0

> <s_epik_input>
W0NIM11bQ0BASF0xT1tDSDJdW0NIMl1bQ0BAXTEyW0NIMl1OKFtDSDJdW0NASF0oTzIpW0NIM10pYyhuW2NIXW4zKWMoYzM0KW5bY0hdbjRbQ0gyXVtDQEBdNShbT0hdKVtDSDJdW0NIMl1PW0NIMl01

> <s_epik_cmdline>
J2VwaWtfcHl0aG9uJywgJy1waCcsICc3LjAnLCAnLXRuJywgJzgnLCAnLW1hJywgJzIwMCcsICctbWV0YWxfYmluZGluZycsICctaW1hZScsICc8aW5maWxlLm1hZT4nLCAnLW9tYWUnLCAnPG91dGZpbGUubWFlPic=

> <r_lp_tautomer_probability>
1

> <r_epik_Ionization_Penalty>
0.00571331

> <r_epik_Ionization_Penalty_Charging>
0

> <r_epik_Ionization_Penalty_Neutral>
0.00571331

> <r_epik_State_Penalty>
0.00399586

> <r_epik_Charging_Adjusted_Penalty>
0.00399586

> <i_epik_Tot_Q>
0

> <i_epik_Tot_abs_Q>
0

> <r_epik_Metal_State_Penalty>
-0

> <b_epik_Metal_Only>
0

> <s_lp_Force_Field>
OPLS_2005

> <r_lp_Energy>
55.1206

> <b_lp_Chiralities_Consistent>
1

> <s_lp_Variant>
AV-unprocessed.smi:281-16

> <Gold.Version>
5.8.1

> <Gold.Id.Protein>
6NUR|6NUR_protein|mol2

> <Gold.PLP.Fitness>
44.2708

> <Gold.PLP.PLP>
-36.6400

> <Gold.PLP.part.hbond>
-3.0000

> <Gold.PLP.part.metal>
0.0000

> <Gold.PLP.part.buried>
-4.9069

> <Gold.PLP.part.nonpolar>
-29.4020

> <Gold.PLP.part.repulsive>
0.3014

> <Gold.PLP.ligand.clash>
0.0000

> <Gold.PLP.ligand.torsion>
0.7640

> <Gold.PLP.Chemscore.Hbond>
3.0000

> <Gold.PLP.Chemscore.CHOScore>
0.0000

> <Gold.PLP.Chemscore.Metal>
0.0000

> <Gold.Chemscore.Hbonds>
donor molecule, donor type, donor heavy atom, donor atom, acceptor molecule, acceptor atom, score
      L1  H    16    39       P1 10737  0.88
      P1  H  6896  6908       L1    11  0.99
      P1  H  7989  7998       L1    25  1.00

> <Gold.PLP.Chemscore.Internal.Correction>
0.1588

> <Gold.Rescore>
     Score         DG    S(hbond)    S(metal)    S(lipo)     H(rot)  DE(clash)    DE(int)     intcor
     16.12     -16.96       2.61        0.00      69.45       2.09       0.06       0.78       ----

> <Gold.Chemscore.Fitness>
16.1248

> <Gold.Chemscore.DG>
-16.9571

> <Gold.Chemscore.ZeroCoef>
-5.4800

> <Gold.Chemscore.Hbond>
2.6073

> <Gold.Chemscore.Metal>
0.0000

> <Gold.Chemscore.Lipo>
69.4542

> <Gold.Chemscore.Internal_Hbond>
0.0000

> <Gold.Chemscore.DEClash>
0.0550

> <Gold.Chemscore.DEInternal>
0.7773

> <Gold.Chemscore.Rot>
2.0927

> <Gold.Chemscore.Internal.Correction>
   9.000000E+99

> <Gold.Chemscore.Hbonds>
donor molecule, donor type, donor heavy atom, donor atom, acceptor molecule, acceptor atom, score
      L1  H    16    39       P1 10737  0.82
      P1  H  6896  6908       L1    11  0.57
      P1  H  7989  7998       L1    25  0.64

> <Gold.Chemscore.Hbond.Weighted>
-8.7083

> <Gold.Chemscore.Metal.Weighted>
-0.0000

> <Gold.Chemscore.Lipo.Weighted>
-8.1261

> <Gold.Chemscore.Internal_Hbond.Weighted>
0.0000

> <Gold.Chemscore.DEClash.Weighted>
0.0550

> <Gold.Chemscore.DEInternal.Weighted>
0.7773

> <Gold.Chemscore.Rot.Weighted>
5.3573

> <Gold.Chemscore.Internal.Correction.Weighted>
   9.000000E+99

> <Gold.Protein.RotatedTorsions>
[ 6907 6896 6895 6894 ] final   64.22 input  -60.11 | X-H torsion
[ 7974 7965 7964 7962 ] final   28.01 input  175.53 | X-H torsion
[ 8008 7997 7996 7995 ] final   81.81 input   59.86 | X-H torsion
[ 10167 10162 10161 10158 ] final  -92.61 input  -65.29 | X-H torsion
[ 10718 10713 10712 10709 ] final    1.29 input   66.30 | X-H torsion
[ 10763 10752 10751 10750 ] final  116.15 input  -60.55 | X-H torsion
[ 11005 11000 10999 10996 ] final -153.74 input  -57.11 | X-H torsion

> <Gold.Protein.ActiveResidues>
 VAL166  LYS551  ARG553  GLY616  TRP617  ASP618  TYR619  PRO620  LYS621  CYS622 
 ASP623  PHE694  ASN695  SER759  ASP760  ASP761  ALA762  ILE779  LEU786  VAL792 
 PHE793  MET794  SER795  GLU796  ALA797  LYS798  CYS799  TRP800  GLU811  SER814 

> <Gold.Protein.RotatedAtoms>
  152.4314  134.5769  159.9936 H   0  0  0  0  0  0  0  0  0  0  0  0  # atno 6907 bound_to 6896
  151.5891  133.3363  159.3032 H   0  0  0  0  0  0  0  0  0  0  0  0  # atno 6908 bound_to 6896
  150.8208  134.7450  159.6835 H   0  0  0  0  0  0  0  0  0  0  0  0  # atno 6909 bound_to 6896
  146.1753  139.7114  142.8939 H   0  0  0  0  0  0  0  0  0  0  0  0  # atno 7974 bound_to 7965
  155.9022  140.3432  155.6035 H   0  0  0  0  0  0  0  0  0  0  0  0  # atno 8008 bound_to 7997
  155.7486  140.0817  157.2231 H   0  0  0  0  0  0  0  0  0  0  0  0  # atno 8009 bound_to 7997
  154.4045  140.1557  156.2685 H   0  0  0  0  0  0  0  0  0  0  0  0  # atno 8010 bound_to 7997
  140.3330  143.2984  151.9920 H   0  0  0  0  0  0  0  0  0  0  0  0  # atno 10167 bound_to 10162
  156.8460  130.5537  149.5673 H   0  0  0  0  0  0  0  0  0  0  0  0  # atno 10718 bound_to 10713
  153.5328  135.3574  155.2683 H   0  0  0  0  0  0  0  0  0  0  0  0  # atno 10763 bound_to 10752
  154.8725  135.4072  154.3132 H   0  0  0  0  0  0  0  0  0  0  0  0  # atno 10764 bound_to 10752
  153.3824  135.7068  153.6623 H   0  0  0  0  0  0  0  0  0  0  0  0  # atno 10765 bound_to 10752
  140.7048  134.3897  157.5205 H   0  0  0  0  0  0  0  0  0  0  0  0  # atno 11005 bound_to 11000
  145.4229  141.0408  143.2954 LP  0  0  0  0  0  0  0  0  0  0  0  0  # atno 17320 bound_to 7965
  144.8226  139.5765  143.6980 LP  0  0  0  0  0  0  0  0  0  0  0  0  # atno 17321 bound_to 7965
  139.4853  144.6219  151.7239 LP  0  0  0  0  0  0  0  0  0  0  0  0  # atno 17342 bound_to 10162
  140.5379  144.0626  150.6077 LP  0  0  0  0  0  0  0  0  0  0  0  0  # atno 17343 bound_to 10162
  156.0854  130.5854  150.9639 LP  0  0  0  0  0  0  0  0  0  0  0  0  # atno 17370 bound_to 10713
  157.6330  131.0919  150.8405 LP  0  0  0  0  0  0  0  0  0  0  0  0  # atno 17371 bound_to 10713
  139.8887  134.8849  156.2460 LP  0  0  0  0  0  0  0  0  0  0  0  0  # atno 17394 bound_to 11000
  141.0133  133.7083  156.1148 LP  0  0  0  0  0  0  0  0  0  0  0  0  # atno 17395 bound_to 11000

$$$$
