AV-unprocessed.smi:189|AV-procd|sdf|1478|dock3
  -GOLD-   2262019293D 1   1.00000     0.00000
 Structure written by MMmdl.
 53 57  0  0  0  0  0  0  0  0  1 V2000
  153.7122  139.3801  159.2805 C   0  0  0  0  0  0  0  0  0  0  0  0
  152.5290  140.3499  159.4115 C   0  0  1  0  0  0  0  0  0  0  0  0
  152.5652  141.2072  160.7001 C   0  0  0  0  0  0  0  0  0  0  0  0
  152.5565  142.6436  160.1774 C   0  0  2  0  0  0  0  0  0  0  0  0
  151.8791  143.7353  161.0143 C   0  0  0  0  0  0  0  0  0  0  0  0
  151.9206  145.0665  160.2329 C   0  0  0  0  0  0  0  0  0  0  0  0
  151.3384  144.9346  158.8058 C   0  0  0  0  0  0  0  0  0  0  0  0
  151.9726  143.7716  158.0138 C   0  0  0  0  0  0  0  0  0  0  0  0
  151.8511  142.4838  158.8423 C   0  0  1  0  0  0  0  0  0  0  0  0
  152.4674  141.2913  158.2896 N   0  0  0  0  0  0  0  0  0  0  0  0
  151.9130  140.8161  157.1521 C   0  0  0  0  0  0  0  0  0  0  0  0
  152.6444  139.9180  156.4487 N   0  0  0  0  0  0  0  0  0  0  0  0
  152.1626  139.4081  155.3113 C   0  0  0  0  0  0  0  0  0  0  0  0
  150.9957  139.6562  154.7129 N   0  0  0  0  0  0  0  0  0  0  0  0
  150.2562  140.5575  155.4210 C   0  0  0  0  0  0  0  0  0  0  0  0
  150.6363  141.1862  156.6401 C   0  0  0  0  0  0  0  0  0  0  0  0
  149.6302  142.0483  157.0607 N   0  0  0  0  0  0  0  0  0  0  0  0
  148.7082  141.9335  156.1448 C   0  0  0  0  0  0  0  0  0  0  0  0
  148.9978  141.0528  155.1271 N   0  0  0  0  0  0  0  0  0  0  0  0
  148.1542  140.7291  153.9872 C   0  0  0  0  0  0  0  0  0  0  0  0
  147.9089  139.2116  153.8151 C   0  0  1  0  0  0  0  0  0  0  0  0
  149.1243  138.5841  153.4451 O   0  0  0  0  0  0  0  0  0  0  0  0
  147.3703  138.5207  155.0654 C   0  0  0  0  0  0  0  0  0  0  0  0
  146.4792  137.4269  154.4941 C   0  0  0  0  0  0  0  0  0  0  0  0
  145.8672  138.0750  153.3927 O   0  0  0  0  0  0  0  0  0  0  0  0
  146.8456  138.8836  152.7476 C   0  0  0  0  0  0  0  0  0  0  0  0
  153.7504  138.6954  160.1277 H   0  0  0  0  0  0  0  0  0  0  0  0
  154.6602  139.9173  159.2409 H   0  0  0  0  0  0  0  0  0  0  0  0
  153.6311  138.7789  158.3744 H   0  0  0  0  0  0  0  0  0  0  0  0
  151.6156  139.7548  159.4348 H   0  0  0  0  0  0  0  0  0  0  0  0
  151.6776  141.0084  161.3019 H   0  0  0  0  0  0  0  0  0  0  0  0
  153.4397  141.0111  161.3214 H   0  0  0  0  0  0  0  0  0  0  0  0
  153.5931  142.9363  159.9966 H   0  0  0  0  0  0  0  0  0  0  0  0
  150.8453  143.4600  161.2269 H   0  0  0  0  0  0  0  0  0  0  0  0
  152.3822  143.8451  161.9753 H   0  0  0  0  0  0  0  0  0  0  0  0
  151.3815  145.8375  160.7840 H   0  0  0  0  0  0  0  0  0  0  0  0
  152.9543  145.4076  160.1644 H   0  0  0  0  0  0  0  0  0  0  0  0
  150.2618  144.7734  158.8742 H   0  0  0  0  0  0  0  0  0  0  0  0
  151.4726  145.8702  158.2622 H   0  0  0  0  0  0  0  0  0  0  0  0
  151.4741  143.6587  157.0506 H   0  0  0  0  0  0  0  0  0  0  0  0
  153.0208  143.9887  157.8036 H   0  0  0  0  0  0  0  0  0  0  0  0
  150.7934  142.2844  159.0215 H   0  0  0  0  0  0  0  0  0  0  0  0
  152.8038  138.6992  154.8089 H   0  0  0  0  0  0  0  0  0  0  0  0
  147.7831  142.4894  156.1895 H   0  0  0  0  0  0  0  0  0  0  0  0
  147.2041  141.2501  154.1127 H   0  0  0  0  0  0  0  0  0  0  0  0
  148.6125  141.1431  153.0881 H   0  0  0  0  0  0  0  0  0  0  0  0
  148.9391  137.9393  152.7797 H   0  0  0  0  0  0  0  0  0  0  0  0
  148.1478  138.1408  155.7298 H   0  0  0  0  0  0  0  0  0  0  0  0
  146.7505  139.2098  155.6399 H   0  0  0  0  0  0  0  0  0  0  0  0
  147.0702  136.5790  154.1440 H   0  0  0  0  0  0  0  0  0  0  0  0
  145.7417  137.0649  155.2108 H   0  0  0  0  0  0  0  0  0  0  0  0
  146.3650  139.7776  152.3489 H   0  0  0  0  0  0  0  0  0  0  0  0
  147.2678  138.3375  151.9022 H   0  0  0  0  0  0  0  0  0  0  0  0
  1  2  1  0  0  0  0
  1 27  1  0  0  0  0
  1 28  1  0  0  0  0
  1 29  1  0  0  0  0
  2 10  1  0  0  0  0
  2  3  1  0  0  0  0
  2 30  1  0  0  0  0
  3  4  1  0  0  0  0
  3 31  1  0  0  0  0
  3 32  1  0  0  0  0
  4  9  1  0  0  0  0
  4  5  1  0  0  0  0
  4 33  1  0  0  0  0
  5  6  1  0  0  0  0
  5 34  1  0  0  0  0
  5 35  1  0  0  0  0
  6  7  1  0  0  0  0
  6 36  1  0  0  0  0
  6 37  1  0  0  0  0
  7  8  1  0  0  0  0
  7 38  1  0  0  0  0
  7 39  1  0  0  0  0
  8  9  1  0  0  0  0
  8 40  1  0  0  0  0
  8 41  1  0  0  0  0
  9 10  1  0  0  0  0
  9 42  1  0  0  0  0
 10 11  1  0  0  0  0
 11 16  1  0  0  0  0
 11 12  2  0  0  0  0
 12 13  1  0  0  0  0
 13 14  2  0  0  0  0
 13 43  1  0  0  0  0
 14 15  1  0  0  0  0
 15 19  1  0  0  0  0
 15 16  2  0  0  0  0
 16 17  1  0  0  0  0
 17 18  2  0  0  0  0
 18 19  1  0  0  0  0
 18 44  1  0  0  0  0
 19 20  1  0  0  0  0
 20 21  1  0  0  0  0
 20 45  1  0  0  0  0
 20 46  1  0  0  0  0
 21 26  1  0  0  0  0
 21 22  1  0  0  0  0
 21 23  1  0  0  0  0
 22 47  1  0  0  0  0
 23 24  1  0  0  0  0
 23 48  1  0  0  0  0
 23 49  1  0  0  0  0
 24 25  1  0  0  0  0
 24 50  1  0  0  0  0
 24 51  1  0  0  0  0
 25 26  1  0  0  0  0
 26 52  1  0  0  0  0
 26 53  1  0  0  0  0
M  END
> <s_m_source_file>
AV-unprocessed.smi

> <i_m_source_file_index>
189

> <i_lp_mmshare_version>
43012

> <i_f3d_flags>
0

> <s_epik_input>
W0NIMl0xW0NIMl1bQ0gyXVtDSDJdW0NASF0oW0NASF0xMilOKFtDQEhdKFtDSDNdKVtDSDJdMiljKG5bY0hdbjMpYyhjMzQpbltjSF1uNFtDSDJdW0NAQF01KFtPSF0pW0NIMl1bQ0gyXU9bQ0gyXTU=

> <s_epik_cmdline>
J2VwaWtfcHl0aG9uJywgJy1waCcsICc3LjAnLCAnLXRuJywgJzgnLCAnLW1hJywgJzIwMCcsICctbWV0YWxfYmluZGluZycsICctaW1hZScsICc8aW5maWxlLm1hZT4nLCAnLW9tYWUnLCAnPG91dGZpbGUubWFlPic=

> <r_lp_tautomer_probability>
1

> <r_epik_Ionization_Penalty>
0.00594261

> <r_epik_Ionization_Penalty_Charging>
0

> <r_epik_Ionization_Penalty_Neutral>
0.00594261

> <r_epik_State_Penalty>
0.00429776

> <r_epik_Charging_Adjusted_Penalty>
0.00429776

> <i_epik_Tot_Q>
0

> <i_epik_Tot_abs_Q>
0

> <r_epik_Metal_State_Penalty>
-0

> <b_epik_Metal_Only>
0

> <s_lp_Force_Field>
OPLS_2005

> <r_lp_Energy>
58.2794

> <b_lp_Chiralities_Consistent>
1

> <s_lp_Variant>
AV-unprocessed.smi:189-4

> <Gold.Version>
5.8.1

> <Gold.Id.Protein>
6NUR|6NUR_protein|mol2

> <Gold.PLP.Fitness>
56.3826

> <Gold.PLP.PLP>
-48.2008

> <Gold.PLP.part.hbond>
-4.0000

> <Gold.PLP.part.metal>
0.0000

> <Gold.PLP.part.buried>
-2.6878

> <Gold.PLP.part.nonpolar>
-42.0037

> <Gold.PLP.part.repulsive>
0.6123

> <Gold.PLP.ligand.clash>
0.0000

> <Gold.PLP.ligand.torsion>
0.4082

> <Gold.PLP.Chemscore.Hbond>
2.6800

> <Gold.PLP.Chemscore.CHOScore>
0.3105

> <Gold.PLP.Chemscore.Metal>
0.0000

> <Gold.Chemscore.Hbonds>
donor molecule, donor type, donor heavy atom, donor atom, acceptor molecule, acceptor atom, score
      L1  H    22    47       P1  7948  1.00
      P1  H  7989  7998       L1    14  0.68
      P1  H  7997  8008       L1    12  1.00
      L1  C    18    44       P1  8028  0.30

> <Gold.PLP.Chemscore.Internal.Correction>
0.0267

> <Gold.Rescore>
     Score         DG    S(hbond)    S(metal)    S(lipo)     H(rot)  DE(clash)    DE(int)     intcor
     16.89     -20.66       1.85        0.00     121.40       2.03       1.03       2.73       ----

> <Gold.Chemscore.Fitness>
16.8904

> <Gold.Chemscore.DG>
-20.6553

> <Gold.Chemscore.ZeroCoef>
-5.4800

> <Gold.Chemscore.Hbond>
1.8465

> <Gold.Chemscore.Metal>
0.0000

> <Gold.Chemscore.Lipo>
121.4029

> <Gold.Chemscore.Internal_Hbond>
0.0000

> <Gold.Chemscore.DEClash>
1.0340

> <Gold.Chemscore.DEInternal>
2.7309

> <Gold.Chemscore.Rot>
2.0297

> <Gold.Chemscore.Internal.Correction>
   9.000000E+99

> <Gold.Chemscore.Hbonds>
donor molecule, donor type, donor heavy atom, donor atom, acceptor molecule, acceptor atom, score
      L1  H    22    47       P1  7948  0.99
      P1  H  7989  7998       L1    14  0.02
      P1  H  7997  8008       L1    12  0.58

> <Gold.Chemscore.Hbond.Weighted>
-6.1672

> <Gold.Chemscore.Metal.Weighted>
-0.0000

> <Gold.Chemscore.Lipo.Weighted>
-14.2041

> <Gold.Chemscore.Internal_Hbond.Weighted>
0.0000

> <Gold.Chemscore.DEClash.Weighted>
1.0340

> <Gold.Chemscore.DEInternal.Weighted>
2.7309

> <Gold.Chemscore.Rot.Weighted>
5.1960

> <Gold.Chemscore.Internal.Correction.Weighted>
   9.000000E+99

> <Gold.Protein.RotatedTorsions>
[ 6907 6896 6895 6894 ] final   72.35 input  -60.11 | X-H torsion
[ 7974 7965 7964 7962 ] final   31.97 input  175.53 | X-H torsion
[ 8008 7997 7996 7995 ] final  -35.45 input   59.86 | X-H torsion
[ 10167 10162 10161 10158 ] final   52.07 input  -65.29 | X-H torsion
[ 10718 10713 10712 10709 ] final  -96.31 input   66.30 | X-H torsion
[ 10763 10752 10751 10750 ] final   88.28 input  -60.55 | X-H torsion
[ 11005 11000 10999 10996 ] final   36.95 input  -57.11 | X-H torsion

> <Gold.Protein.ActiveResidues>
 VAL166  LYS551  ARG553  GLY616  TRP617  ASP618  TYR619  PRO620  LYS621  CYS622 
 ASP623  PHE694  ASN695  SER759  ASP760  ASP761  ALA762  ILE779  LEU786  VAL792 
 PHE793  MET794  SER795  GLU796  ALA797  LYS798  CYS799  TRP800  GLU811  SER814 

> <Gold.Protein.RotatedAtoms>
  152.4863  134.4584  159.9596 H   0  0  0  0  0  0  0  0  0  0  0  0  # atno 6907 bound_to 6896
  151.4580  133.3594  159.2813 H   0  0  0  0  0  0  0  0  0  0  0  0  # atno 6908 bound_to 6896
  150.8976  134.8410  159.7398 H   0  0  0  0  0  0  0  0  0  0  0  0  # atno 6909 bound_to 6896
  146.1516  139.6587  142.9094 H   0  0  0  0  0  0  0  0  0  0  0  0  # atno 7974 bound_to 7965
  154.4095  140.1657  156.2214 H   0  0  0  0  0  0  0  0  0  0  0  0  # atno 8008 bound_to 7997
  155.9361  140.3411  155.6265 H   0  0  0  0  0  0  0  0  0  0  0  0  # atno 8009 bound_to 7997
  155.7047  140.0749  157.2386 H   0  0  0  0  0  0  0  0  0  0  0  0  # atno 8010 bound_to 7997
  140.2553  144.3434  150.6335 H   0  0  0  0  0  0  0  0  0  0  0  0  # atno 10167 bound_to 10162
  156.0060  130.5146  150.6207 H   0  0  0  0  0  0  0  0  0  0  0  0  # atno 10718 bound_to 10713
  153.1753  135.4512  154.9957 H   0  0  0  0  0  0  0  0  0  0  0  0  # atno 10763 bound_to 10752
  154.7994  135.3250  154.7590 H   0  0  0  0  0  0  0  0  0  0  0  0  # atno 10764 bound_to 10752
  153.8061  135.6958  153.4903 H   0  0  0  0  0  0  0  0  0  0  0  0  # atno 10765 bound_to 10752
  140.2274  134.3568  155.7978 H   0  0  0  0  0  0  0  0  0  0  0  0  # atno 11005 bound_to 11000
  145.4808  141.0438  143.2647 LP  0  0  0  0  0  0  0  0  0  0  0  0  # atno 17320 bound_to 7965
  144.7912  139.6325  143.7112 LP  0  0  0  0  0  0  0  0  0  0  0  0  # atno 17321 bound_to 7965
  140.6009  143.2167  151.7075 LP  0  0  0  0  0  0  0  0  0  0  0  0  # atno 17342 bound_to 10162
  139.5033  144.3795  152.0390 LP  0  0  0  0  0  0  0  0  0  0  0  0  # atno 17343 bound_to 10162
  157.4023  131.0812  151.1297 LP  0  0  0  0  0  0  0  0  0  0  0  0  # atno 17370 bound_to 10713
  157.1955  130.6371  149.5719 LP  0  0  0  0  0  0  0  0  0  0  0  0  # atno 17371 bound_to 10713
  141.2220  133.7227  156.8676 LP  0  0  0  0  0  0  0  0  0  0  0  0  # atno 17394 bound_to 11000
  140.1786  134.9049  157.2920 LP  0  0  0  0  0  0  0  0  0  0  0  0  # atno 17395 bound_to 11000

$$$$
