AV-unprocessed.smi:2061|AV-procd|sdf|8384|dock4
  -GOLD-   2272011 63D 1   1.00000     0.00000
 Structure written by MMmdl.
 45 46  0  0  0  0  0  0  0  0  3 V2000
  146.5523  136.2092  162.6216 C   0  0  0  0  0  0  0  0  0  0  0  0
  147.3497  136.2343  161.3622 C   0  0  0  0  0  0  0  0  0  0  0  0
  147.8328  135.2478  160.5500 C   0  0  0  0  0  0  0  0  0  0  0  0
  148.4964  135.9700  159.5208 C   0  0  0  0  0  0  0  0  0  0  0  0
  149.1522  135.4364  158.4784 N   0  5  0  0  0  0  0  0  0  0  0  0
  148.9540  135.9149  157.2295 C   0  0  0  0  0  0  0  0  0  0  0  0
  148.5532  137.0424  156.9309 O   0  0  0  0  0  0  0  0  0  0  0  0
  149.2316  135.0281  156.2633 N   0  0  0  0  0  0  0  0  0  0  0  0
  149.0879  135.2594  154.8294 C   0  0  0  0  0  0  0  0  0  0  0  0
  148.1582  134.2268  154.1394 C   0  0  2  0  0  0  0  0  0  0  0  0
  149.0014  133.1504  153.4132 C   0  0  0  0  0  0  0  0  0  0  0  0
  147.1850  134.9339  153.2453 N   0  3  1  0  0  0  0  0  0  0  0  0
  146.3543  134.0648  152.3691 C   0  0  0  0  0  0  0  0  0  0  0  0
  145.4656  134.9087  151.4358 C   0  0  1  0  0  0  0  0  0  0  0  0
  144.5247  134.0356  150.5983 C   0  0  0  0  0  0  0  0  0  0  0  0
  144.6628  135.7998  152.2023 O   0  0  0  0  0  0  0  0  0  0  0  0
  145.3977  136.6788  153.0504 C   0  0  2  0  0  0  0  0  0  0  0  0
  146.1520  137.7659  152.2634 C   0  0  0  0  0  0  0  0  0  0  0  0
  146.2994  135.8642  153.9962 C   0  0  0  0  0  0  0  0  0  0  0  0
  148.4363  137.2786  159.7020 N   0  0  0  0  0  0  0  0  0  0  0  0
  147.6964  137.4568  160.8770 O   0  0  0  0  0  0  0  0  0  0  0  0
  146.9843  135.5105  163.3380 H   0  0  0  0  0  0  0  0  0  0  0  0
  145.5270  135.8983  162.4215 H   0  0  0  0  0  0  0  0  0  0  0  0
  146.5221  137.1941  163.0883 H   0  0  0  0  0  0  0  0  0  0  0  0
  147.7263  134.1803  160.6702 H   0  0  0  0  0  0  0  0  0  0  0  0
  149.5630  134.1186  156.5508 H   0  0  0  0  0  0  0  0  0  0  0  0
  148.7444  136.2831  154.6851 H   0  0  0  0  0  0  0  0  0  0  0  0
  150.0820  135.2123  154.3839 H   0  0  0  0  0  0  0  0  0  0  0  0
  147.5796  133.7045  154.9031 H   0  0  0  0  0  0  0  0  0  0  0  0
  149.7167  132.6770  154.0853 H   0  0  0  0  0  0  0  0  0  0  0  0
  149.5677  133.5786  152.5855 H   0  0  0  0  0  0  0  0  0  0  0  0
  148.3835  132.3403  153.0253 H   0  0  0  0  0  0  0  0  0  0  0  0
  146.9821  133.4384  151.7363 H   0  0  0  0  0  0  0  0  0  0  0  0
  145.7438  133.4024  152.9851 H   0  0  0  0  0  0  0  0  0  0  0  0
  146.0935  135.4780  150.7501 H   0  0  0  0  0  0  0  0  0  0  0  0
  145.0855  133.3420  149.9714 H   0  0  0  0  0  0  0  0  0  0  0  0
  143.9052  134.6483  149.9428 H   0  0  0  0  0  0  0  0  0  0  0  0
  143.8590  133.4500  151.2331 H   0  0  0  0  0  0  0  0  0  0  0  0
  144.6557  137.1927  153.6624 H   0  0  0  0  0  0  0  0  0  0  0  0
  146.5939  138.4958  152.9421 H   0  0  0  0  0  0  0  0  0  0  0  0
  145.4762  138.3037  151.5980 H   0  0  0  0  0  0  0  0  0  0  0  0
  146.9616  137.3565  151.6597 H   0  0  0  0  0  0  0  0  0  0  0  0
  145.6754  135.2836  154.6778 H   0  0  0  0  0  0  0  0  0  0  0  0
  146.8724  136.5506  154.6171 H   0  0  0  0  0  0  0  0  0  0  0  0
  147.7436  135.4979  152.6209 H   0  0  0  0  0  0  0  0  0  0  0  0
  1  2  1  0  0  0  0
  1 22  1  0  0  0  0
  1 23  1  0  0  0  0
  1 24  1  0  0  0  0
  2 21  1  0  0  0  0
  2  3  2  0  0  0  0
  3  4  1  0  0  0  0
  3 25  1  0  0  0  0
  4  5  1  0  0  0  0
  4 20  2  0  0  0  0
  5  6  1  0  0  0  0
  6  7  2  0  0  0  0
  6  8  1  0  0  0  0
  8  9  1  0  0  0  0
  8 26  1  0  0  0  0
  9 10  1  0  0  0  0
  9 27  1  0  0  0  0
  9 28  1  0  0  0  0
 10 11  1  0  0  0  0
 10 12  1  0  0  0  0
 10 29  1  0  0  0  0
 11 30  1  0  0  0  0
 11 31  1  0  0  0  0
 11 32  1  0  0  0  0
 12 19  1  0  0  0  0
 12 13  1  0  0  0  0
 12 45  1  0  0  0  0
 13 14  1  0  0  0  0
 13 33  1  0  0  0  0
 13 34  1  0  0  0  0
 14 15  1  0  0  0  0
 14 16  1  0  0  0  0
 14 35  1  0  0  0  0
 15 36  1  0  0  0  0
 15 37  1  0  0  0  0
 15 38  1  0  0  0  0
 16 17  1  0  0  0  0
 17 18  1  0  0  0  0
 17 19  1  0  0  0  0
 17 39  1  0  0  0  0
 18 40  1  0  0  0  0
 18 41  1  0  0  0  0
 18 42  1  0  0  0  0
 19 43  1  0  0  0  0
 19 44  1  0  0  0  0
 20 21  1  0  0  0  0
M  CHG  1   5  -1
M  CHG  1  12   1
M  END
> <s_m_source_file>
AV-unprocessed.smi

> <i_m_source_file_index>
2061

> <i_lp_mmshare_version>
43012

> <i_f3d_flags>
0

> <s_epik_input>
W0NIM11jMVtjSF1jKG5vMSlbTkhdQyg9TylbTkhdW0NIMl1bQ0BIXShbQ0gzXSlOMltDSDJdW0NAQEhdKFtDSDNdKU9bQ0BASF0oW0NIM10pW0NIMl0y

> <s_epik_cmdline>
J2VwaWtfcHl0aG9uJywgJy1waCcsICc3LjAnLCAnLXRuJywgJzgnLCAnLW1hJywgJzIwMCcsICctbWV0YWxfYmluZGluZycsICctaW1hZScsICc8aW5maWxlLm1hZT4nLCAnLW9tYWUnLCAnPG91dGZpbGUubWFlPic=

> <r_epik_Ionization_Penalty>
6.73511

> <r_epik_Ionization_Penalty_Charging>
6.73502

> <r_epik_Ionization_Penalty_Neutral>
9.50841e-05

> <r_epik_State_Penalty>
6.93549

> <r_epik_Charging_Adjusted_Penalty>
13.6705

> <i_epik_Tot_Q>
0

> <i_epik_Tot_abs_Q>
2

> <r_epik_Metal_State_Penalty>
2.87211

> <b_epik_Metal_Only>
1

> <s_lp_Force_Field>
OPLS_2005

> <r_lp_Energy>
11.3742

> <b_lp_Chiralities_Consistent>
1

> <s_lp_Variant>
AV-unprocessed.smi:2061-25

> <Gold.Version>
5.8.1

> <Gold.Id.Protein>
6NUR|6NUR_protein|mol2

> <Gold.PLP.Fitness>
44.0897

> <Gold.PLP.PLP>
-29.1938

> <Gold.PLP.part.hbond>
-4.2650

> <Gold.PLP.part.metal>
0.0000

> <Gold.PLP.part.buried>
-1.9390

> <Gold.PLP.part.nonpolar>
-22.8846

> <Gold.PLP.part.repulsive>
0.1505

> <Gold.PLP.ligand.clash>
0.0000

> <Gold.PLP.ligand.torsion>
1.2143

> <Gold.PLP.Chemscore.Hbond>
5.7280

> <Gold.PLP.Chemscore.CHOScore>
0.0000

> <Gold.PLP.Chemscore.Metal>
0.0000

> <Gold.Chemscore.Hbonds>
donor molecule, donor type, donor heavy atom, donor atom, acceptor molecule, acceptor atom, score
      L1  H    12    45       P1  7948  2.00
      P1  H  6896  6908       L1     5  1.27
      P1  H  6931  6943       L1    21  0.65
      P1  H  6934  6947       L1    21  0.86

> <Gold.PLP.Chemscore.Internal.Correction>
0.1404

> <Gold.Rescore>
     Score         DG    S(hbond)    S(metal)    S(lipo)     H(rot)  DE(clash)    DE(int)     intcor
     14.82     -17.64       2.55        0.00      65.06       1.56       0.17       2.65       ----

> <Gold.Chemscore.Fitness>
14.8232

> <Gold.Chemscore.DG>
-17.6426

> <Gold.Chemscore.ZeroCoef>
-5.4800

> <Gold.Chemscore.Hbond>
2.5543

> <Gold.Chemscore.Metal>
0.0000

> <Gold.Chemscore.Lipo>
65.0611

> <Gold.Chemscore.Internal_Hbond>
0.0000

> <Gold.Chemscore.DEClash>
0.1736

> <Gold.Chemscore.DEInternal>
2.6457

> <Gold.Chemscore.Rot>
1.5550

> <Gold.Chemscore.Internal.Correction>
   9.000000E+99

> <Gold.Chemscore.Hbonds>
donor molecule, donor type, donor heavy atom, donor atom, acceptor molecule, acceptor atom, score
      L1  H    12    45       P1  7948  0.98
      P1  H  6896  6908       L1     5  0.28
      P1  H  6931  6943       L1    21  0.11
      P1  H  6934  6947       L1    21  0.55

> <Gold.Chemscore.Hbond.Weighted>
-8.5313

> <Gold.Chemscore.Metal.Weighted>
-0.0000

> <Gold.Chemscore.Lipo.Weighted>
-7.6122

> <Gold.Chemscore.Internal_Hbond.Weighted>
0.0000

> <Gold.Chemscore.DEClash.Weighted>
0.1736

> <Gold.Chemscore.DEInternal.Weighted>
2.6457

> <Gold.Chemscore.Rot.Weighted>
3.9809

> <Gold.Chemscore.Internal.Correction.Weighted>
   9.000000E+99

> <Gold.Protein.RotatedTorsions>
[ 6907 6896 6895 6894 ] final  142.25 input  -60.11 | X-H torsion
[ 7974 7965 7964 7962 ] final -108.05 input  175.53 | X-H torsion
[ 8008 7997 7996 7995 ] final  139.46 input   59.86 | X-H torsion
[ 10167 10162 10161 10158 ] final  116.62 input  -65.29 | X-H torsion
[ 10718 10713 10712 10709 ] final  170.79 input   66.30 | X-H torsion
[ 10763 10752 10751 10750 ] final  173.48 input  -60.55 | X-H torsion
[ 11005 11000 10999 10996 ] final -151.58 input  -57.11 | X-H torsion

> <Gold.Protein.ActiveResidues>
 VAL166  LYS551  ARG553  GLY616  TRP617  ASP618  TYR619  PRO620  LYS621  CYS622 
 ASP623  PHE694  ASN695  SER759  ASP760  ASP761  ALA762  ILE779  LEU786  VAL792 
 PHE793  MET794  SER795  GLU796  ALA797  LYS798  CYS799  TRP800  GLU811  SER814 

> <Gold.Protein.RotatedAtoms>
  152.2211  133.4984  159.5162 H   0  0  0  0  0  0  0  0  0  0  0  0  # atno 6907 bound_to 6896
  150.7013  134.1341  159.4090 H   0  0  0  0  0  0  0  0  0  0  0  0  # atno 6908 bound_to 6896
  151.9262  135.0276  160.0576 H   0  0  0  0  0  0  0  0  0  0  0  0  # atno 6909 bound_to 6896
  145.1977  140.9042  143.3388 H   0  0  0  0  0  0  0  0  0  0  0  0  # atno 7974 bound_to 7965
  156.2989  140.2367  156.4241 H   0  0  0  0  0  0  0  0  0  0  0  0  # atno 8008 bound_to 7997
  154.8329  140.0432  157.1509 H   0  0  0  0  0  0  0  0  0  0  0  0  # atno 8009 bound_to 7997
  154.9188  140.3000  155.5231 H   0  0  0  0  0  0  0  0  0  0  0  0  # atno 8010 bound_to 7997
  139.6235  144.7105  151.2584 H   0  0  0  0  0  0  0  0  0  0  0  0  # atno 10167 bound_to 10162
  157.0029  131.0181  151.2825 H   0  0  0  0  0  0  0  0  0  0  0  0  # atno 10718 bound_to 10713
  154.4407  135.2762  155.1850 H   0  0  0  0  0  0  0  0  0  0  0  0  # atno 10763 bound_to 10752
  154.3717  135.6107  153.5747 H   0  0  0  0  0  0  0  0  0  0  0  0  # atno 10764 bound_to 10752
  152.9841  135.5859  154.4734 H   0  0  0  0  0  0  0  0  0  0  0  0  # atno 10765 bound_to 10752
  140.7281  134.3652  157.5172 H   0  0  0  0  0  0  0  0  0  0  0  0  # atno 11005 bound_to 11000
  144.9979  139.3626  143.6182 LP  0  0  0  0  0  0  0  0  0  0  0  0  # atno 17320 bound_to 7965
  146.3424  139.9189  142.8769 LP  0  0  0  0  0  0  0  0  0  0  0  0  # atno 17321 bound_to 7965
  140.7396  143.6612  150.8162 LP  0  0  0  0  0  0  0  0  0  0  0  0  # atno 17342 bound_to 10162
  140.0226  143.5526  152.2794 LP  0  0  0  0  0  0  0  0  0  0  0  0  # atno 17343 bound_to 10162
  157.5377  130.8099  149.7991 LP  0  0  0  0  0  0  0  0  0  0  0  0  # atno 17370 bound_to 10713
  156.0164  130.3812  150.2097 LP  0  0  0  0  0  0  0  0  0  0  0  0  # atno 17371 bound_to 10713
  139.8832  134.9000  156.2778 LP  0  0  0  0  0  0  0  0  0  0  0  0  # atno 17394 bound_to 11000
  140.9945  133.7188  156.0865 LP  0  0  0  0  0  0  0  0  0  0  0  0  # atno 17395 bound_to 11000

$$$$
