AV-unprocessed.smi:2474|AV-procd|sdf|9753|dock7
  -GOLD-   2272013393D 1   1.00000     0.00000
 Structure written by MMmdl.
 40 41  0  0  0  0  0  0  0  0  1 V2000
  144.0072  145.0534  154.3440 C   0  0  0  0  0  0  0  0  0  0  0  0
  144.7326  143.7918  154.6681 C   0  0  0  0  0  0  0  0  0  0  0  0
  144.6127  143.0194  155.7968 C   0  0  0  0  0  0  0  0  0  0  0  0
  145.4397  141.8942  155.8013 N   0  0  0  0  0  0  0  0  0  0  0  0
  146.1771  141.7974  154.6913 C   0  0  0  0  0  0  0  0  0  0  0  0
  147.1666  140.7000  154.4400 C   0  0  2  0  0  0  0  0  0  0  0  0
  147.1729  139.6554  155.5651 C   0  0  0  0  0  0  0  0  0  0  0  0
  148.5802  141.2209  154.0936 C   0  0  0  0  0  0  0  0  0  0  0  0
  149.1096  142.1490  155.0895 N   0  0  0  0  0  0  0  0  0  0  0  0
  150.0780  141.8642  155.9703 C   0  0  0  0  0  0  0  0  0  0  0  0
  150.6173  140.7622  156.0706 O   0  0  0  0  0  0  0  0  0  0  0  0
  150.4029  142.9321  156.7118 N   0  0  0  0  0  0  0  0  0  0  0  0
  151.4575  142.9676  157.7206 C   0  0  1  0  0  0  0  0  0  0  0  0
  151.3639  144.2731  158.5379 C   0  0  0  0  0  0  0  0  0  0  0  0
  152.4815  144.3949  159.5864 C   0  0  0  0  0  0  0  0  0  0  0  0
  152.4470  143.2566  160.6157 C   0  0  0  0  0  0  0  0  0  0  0  0
  152.6976  141.6457  159.8222 S   0  0  0  0  0  0  0  0  0  0  0  0
  151.3431  141.7232  158.6180 C   0  0  0  0  0  0  0  0  0  0  0  0
  145.8977  143.1171  153.5599 S   0  0  0  0  0  0  0  0  0  0  0  0
  143.3133  145.3237  155.1402 H   0  0  0  0  0  0  0  0  0  0  0  0
  143.4356  144.9439  153.4223 H   0  0  0  0  0  0  0  0  0  0  0  0
  144.7072  145.8787  154.2127 H   0  0  0  0  0  0  0  0  0  0  0  0
  143.9677  143.1967  156.6446 H   0  0  0  0  0  0  0  0  0  0  0  0
  146.8066  140.1739  153.5550 H   0  0  0  0  0  0  0  0  0  0  0  0
  146.1805  139.2269  155.7079 H   0  0  0  0  0  0  0  0  0  0  0  0
  147.4858  140.0949  156.5127 H   0  0  0  0  0  0  0  0  0  0  0  0
  147.8564  138.8370  155.3371 H   0  0  0  0  0  0  0  0  0  0  0  0
  149.2734  140.3809  154.0409 H   0  0  0  0  0  0  0  0  0  0  0  0
  148.5869  141.6875  153.1073 H   0  0  0  0  0  0  0  0  0  0  0  0
  148.7309  143.0848  155.0839 H   0  0  0  0  0  0  0  0  0  0  0  0
  149.8996  143.7923  156.5515 H   0  0  0  0  0  0  0  0  0  0  0  0
  152.4261  142.9330  157.2176 H   0  0  0  0  0  0  0  0  0  0  0  0
  151.4187  145.1314  157.8670 H   0  0  0  0  0  0  0  0  0  0  0  0
  150.3922  144.3344  159.0299 H   0  0  0  0  0  0  0  0  0  0  0  0
  153.4527  144.4140  159.0901 H   0  0  0  0  0  0  0  0  0  0  0  0
  152.3845  145.3495  160.1044 H   0  0  0  0  0  0  0  0  0  0  0  0
  153.2255  143.4017  161.3649 H   0  0  0  0  0  0  0  0  0  0  0  0
  151.4925  143.2487  161.1434 H   0  0  0  0  0  0  0  0  0  0  0  0
  150.3936  141.7219  159.1546 H   0  0  0  0  0  0  0  0  0  0  0  0
  151.3714  140.8153  158.0148 H   0  0  0  0  0  0  0  0  0  0  0  0
  1  2  1  0  0  0  0
  1 20  1  0  0  0  0
  1 21  1  0  0  0  0
  1 22  1  0  0  0  0
  2 19  1  0  0  0  0
  2  3  2  0  0  0  0
  3  4  1  0  0  0  0
  3 23  1  0  0  0  0
  4  5  2  0  0  0  0
  5  6  1  0  0  0  0
  5 19  1  0  0  0  0
  6  7  1  0  0  0  0
  6  8  1  0  0  0  0
  6 24  1  0  0  0  0
  7 25  1  0  0  0  0
  7 26  1  0  0  0  0
  7 27  1  0  0  0  0
  8  9  1  0  0  0  0
  8 28  1  0  0  0  0
  8 29  1  0  0  0  0
  9 10  1  0  0  0  0
  9 30  1  0  0  0  0
 10 11  2  0  0  0  0
 10 12  1  0  0  0  0
 12 13  1  0  0  0  0
 12 31  1  0  0  0  0
 13 18  1  0  0  0  0
 13 14  1  0  0  0  0
 13 32  1  0  0  0  0
 14 15  1  0  0  0  0
 14 33  1  0  0  0  0
 14 34  1  0  0  0  0
 15 16  1  0  0  0  0
 15 35  1  0  0  0  0
 15 36  1  0  0  0  0
 16 17  1  0  0  0  0
 16 37  1  0  0  0  0
 16 38  1  0  0  0  0
 17 18  1  0  0  0  0
 18 39  1  0  0  0  0
 18 40  1  0  0  0  0
M  END
> <s_m_source_file>
AV-unprocessed.smi

> <i_m_source_file_index>
2474

> <i_lp_mmshare_version>
43012

> <i_f3d_flags>
0

> <s_epik_input>
W0NIM11jMVtjSF1uYyhzMSlbQ0BIXShbQ0gzXSlbQ0gyXVtOSF1DKD1PKVtOSF1bQ0BASF0yW0NIMl1bQ0gyXVtDSDJdU1tDSDJdMg==

> <s_epik_cmdline>
J2VwaWtfcHl0aG9uJywgJy1waCcsICc3LjAnLCAnLXRuJywgJzgnLCAnLW1hJywgJzIwMCcsICctbWV0YWxfYmluZGluZycsICctaW1hZScsICc8aW5maWxlLm1hZT4nLCAnLW9tYWUnLCAnPG91dGZpbGUubWFlPic=

> <r_epik_Ionization_Penalty>
0.000644338

> <r_epik_Ionization_Penalty_Charging>
0

> <r_epik_Ionization_Penalty_Neutral>
0.000644338

> <r_epik_State_Penalty>
0.000374131

> <r_epik_Charging_Adjusted_Penalty>
0.000374131

> <i_epik_Tot_Q>
0

> <i_epik_Tot_abs_Q>
0

> <r_epik_Metal_State_Penalty>
-0

> <b_epik_Metal_Only>
0

> <s_lp_Force_Field>
OPLS_2005

> <r_lp_Energy>
-6.48006

> <b_lp_Chiralities_Consistent>
1

> <s_lp_Variant>
AV-unprocessed.smi:2474-3

> <Gold.Version>
5.8.1

> <Gold.Id.Protein>
6NUR|6NUR_protein|mol2

> <Gold.PLP.Fitness>
46.8242

> <Gold.PLP.PLP>
-41.4082

> <Gold.PLP.part.hbond>
-2.0000

> <Gold.PLP.part.metal>
0.0000

> <Gold.PLP.part.buried>
-7.0921

> <Gold.PLP.part.nonpolar>
-33.1015

> <Gold.PLP.part.repulsive>
0.3934

> <Gold.PLP.ligand.clash>
0.0000

> <Gold.PLP.ligand.torsion>
0.3169

> <Gold.PLP.Chemscore.Hbond>
1.9760

> <Gold.PLP.Chemscore.CHOScore>
0.0000

> <Gold.PLP.Chemscore.Metal>
0.0000

> <Gold.Chemscore.Hbonds>
donor molecule, donor type, donor heavy atom, donor atom, acceptor molecule, acceptor atom, score
      L1  H     9    30       P1  8028  0.96
      L1  H    12    31       P1  8028  1.00

> <Gold.PLP.Chemscore.Internal.Correction>
0.1219

> <Gold.Rescore>
     Score         DG    S(hbond)    S(metal)    S(lipo)     H(rot)  DE(clash)    DE(int)     intcor
     18.99     -20.78       1.88        0.00     109.02       1.46       0.11       1.68       ----

> <Gold.Chemscore.Fitness>
18.9877

> <Gold.Chemscore.DG>
-20.7759

> <Gold.Chemscore.ZeroCoef>
-5.4800

> <Gold.Chemscore.Hbond>
1.8809

> <Gold.Chemscore.Metal>
0.0000

> <Gold.Chemscore.Lipo>
109.0212

> <Gold.Chemscore.Internal_Hbond>
0.0000

> <Gold.Chemscore.DEClash>
0.1111

> <Gold.Chemscore.DEInternal>
1.6771

> <Gold.Chemscore.Rot>
1.4616

> <Gold.Chemscore.Internal.Correction>
   9.000000E+99

> <Gold.Chemscore.Hbonds>
donor molecule, donor type, donor heavy atom, donor atom, acceptor molecule, acceptor atom, score
      L1  H     9    30       P1  8028  0.92
      L1  H    12    31       P1  8028  0.96

> <Gold.Chemscore.Hbond.Weighted>
-6.2821

> <Gold.Chemscore.Metal.Weighted>
-0.0000

> <Gold.Chemscore.Lipo.Weighted>
-12.7555

> <Gold.Chemscore.Internal_Hbond.Weighted>
0.0000

> <Gold.Chemscore.DEClash.Weighted>
0.1111

> <Gold.Chemscore.DEInternal.Weighted>
1.6771

> <Gold.Chemscore.Rot.Weighted>
3.7416

> <Gold.Chemscore.Internal.Correction.Weighted>
   9.000000E+99

> <Gold.Protein.RotatedTorsions>
[ 6907 6896 6895 6894 ] final  170.49 input  -60.11 | X-H torsion
[ 7974 7965 7964 7962 ] final  133.66 input  175.53 | X-H torsion
[ 8008 7997 7996 7995 ] final  -20.88 input   59.86 | X-H torsion
[ 10167 10162 10161 10158 ] final  -61.35 input  -65.29 | X-H torsion
[ 10718 10713 10712 10709 ] final  -16.06 input   66.30 | X-H torsion
[ 10763 10752 10751 10750 ] final  135.42 input  -60.55 | X-H torsion
[ 11005 11000 10999 10996 ] final -106.93 input  -57.11 | X-H torsion

> <Gold.Protein.ActiveResidues>
 VAL166  LYS551  ARG553  GLY616  TRP617  ASP618  TYR619  PRO620  LYS621  CYS622 
 ASP623  PHE694  ASN695  SER759  ASP760  ASP761  ALA762  ILE779  LEU786  VAL792 
 PHE793  MET794  SER795  GLU796  ALA797  LYS798  CYS799  TRP800  GLU811  SER814 

> <Gold.Protein.RotatedAtoms>
  151.8152  133.3387  159.3567 H   0  0  0  0  0  0  0  0  0  0  0  0  # atno 6907 bound_to 6896
  150.7313  134.5626  159.5859 H   0  0  0  0  0  0  0  0  0  0  0  0  # atno 6908 bound_to 6896
  152.3046  134.7572  160.0401 H   0  0  0  0  0  0  0  0  0  0  0  0  # atno 6909 bound_to 6896
  144.9843  139.4472  143.5371 H   0  0  0  0  0  0  0  0  0  0  0  0  # atno 7974 bound_to 7965
  154.4741  140.2050  155.9922 H   0  0  0  0  0  0  0  0  0  0  0  0  # atno 8008 bound_to 7997
  156.1060  140.3236  155.7976 H   0  0  0  0  0  0  0  0  0  0  0  0  # atno 8009 bound_to 7997
  155.4717  140.0532  157.2969 H   0  0  0  0  0  0  0  0  0  0  0  0  # atno 8010 bound_to 7997
  140.6011  143.2362  151.5926 H   0  0  0  0  0  0  0  0  0  0  0  0  # atno 10167 bound_to 10162
  156.5929  130.4803  149.6272 H   0  0  0  0  0  0  0  0  0  0  0  0  # atno 10718 bound_to 10713
  153.8398  135.3093  155.3425 H   0  0  0  0  0  0  0  0  0  0  0  0  # atno 10763 bound_to 10752
  154.7938  135.4767  154.0116 H   0  0  0  0  0  0  0  0  0  0  0  0  # atno 10764 bound_to 10752
  153.1583  135.6856  153.8872 H   0  0  0  0  0  0  0  0  0  0  0  0  # atno 10765 bound_to 10752
  141.0979  133.8937  157.1916 H   0  0  0  0  0  0  0  0  0  0  0  0  # atno 11005 bound_to 11000
  146.3416  139.9135  142.8777 LP  0  0  0  0  0  0  0  0  0  0  0  0  # atno 17320 bound_to 7965
  145.2376  140.9997  143.3954 LP  0  0  0  0  0  0  0  0  0  0  0  0  # atno 17321 bound_to 7965
  139.5292  144.2967  152.1107 LP  0  0  0  0  0  0  0  0  0  0  0  0  # atno 17342 bound_to 10162
  140.2148  144.4526  150.6369 LP  0  0  0  0  0  0  0  0  0  0  0  0  # atno 17343 bound_to 10162
  156.2534  130.6920  151.1666 LP  0  0  0  0  0  0  0  0  0  0  0  0  # atno 17370 bound_to 10713
  157.7299  131.0620  150.5752 LP  0  0  0  0  0  0  0  0  0  0  0  0  # atno 17371 bound_to 10713
  139.9822  135.0094  156.9776 LP  0  0  0  0  0  0  0  0  0  0  0  0  # atno 17394 bound_to 11000
  140.5094  134.1018  155.7267 LP  0  0  0  0  0  0  0  0  0  0  0  0  # atno 17395 bound_to 11000

$$$$
