AV-unprocessed.smi:2942|AV-procd|sdf|11266|dock10
  -GOLD-   2272016153D 1   1.00000     0.00000
 Structure written by MMmdl.
 45 48  0  0  0  0  0  0  0  0  1 V2000
  153.2989  138.1510  159.8166 O   0  0  0  0  0  0  0  0  0  0  0  0
  153.9079  138.5539  160.8086 C   0  0  0  0  0  0  0  0  0  0  0  0
  154.1297  139.8594  161.0319 N   0  0  0  0  0  0  0  0  0  0  0  0
  153.6481  140.9558  160.1981 C   0  0  0  0  0  0  0  0  0  0  0  0
  152.9409  142.0680  161.0013 C   0  0  0  0  0  0  0  0  0  0  0  0
  152.2973  143.1396  160.1352 C   0  0  0  0  0  0  0  0  0  0  0  0
  153.0287  143.7609  159.1007 C   0  0  0  0  0  0  0  0  0  0  0  0
  152.3993  144.7699  158.3462 C   0  0  0  0  0  0  0  0  0  0  0  0
  151.0697  145.1178  158.6527 C   0  0  0  0  0  0  0  0  0  0  0  0
  150.4251  144.4375  159.7049 C   0  0  0  0  0  0  0  0  0  0  0  0
  151.0201  143.4699  160.4347 N   0  0  0  0  0  0  0  0  0  0  0  0
  154.4216  137.5603  161.8766 C   0  0  0  0  0  0  0  0  0  0  0  0
  155.1321  136.3764  161.1678 C   0  0  0  0  0  0  0  0  0  0  0  0
  155.6678  135.3714  162.2101 C   0  0  1  0  0  0  0  0  0  0  0  0
  156.6833  136.0753  163.1336 C   0  0  0  0  0  0  0  0  0  0  0  0
  155.9841  137.2420  163.8621 C   0  0  2  0  0  0  0  0  0  0  0  0
  154.8145  136.7008  164.7092 C   0  0  0  0  0  0  0  0  0  0  0  0
  153.8030  135.9946  163.7839 C   0  0  2  0  0  0  0  0  0  0  0  0
  154.4956  134.8248  163.0526 C   0  0  0  0  0  0  0  0  0  0  0  0
  153.2585  136.9998  162.7469 C   0  0  0  0  0  0  0  0  0  0  0  0
  155.4473  138.2495  162.8233 C   0  0  0  0  0  0  0  0  0  0  0  0
  154.6357  140.1133  161.8680 H   0  0  0  0  0  0  0  0  0  0  0  0
  154.5180  141.3778  159.6943 H   0  0  0  0  0  0  0  0  0  0  0  0
  152.9933  140.5760  159.4126 H   0  0  0  0  0  0  0  0  0  0  0  0
  152.1779  141.6265  161.6432 H   0  0  0  0  0  0  0  0  0  0  0  0
  153.6567  142.5427  161.6743 H   0  0  0  0  0  0  0  0  0  0  0  0
  154.0500  143.4771  158.8943 H   0  0  0  0  0  0  0  0  0  0  0  0
  152.9282  145.2702  157.5485 H   0  0  0  0  0  0  0  0  0  0  0  0
  150.5562  145.8875  158.0959 H   0  0  0  0  0  0  0  0  0  0  0  0
  149.4063  144.6789  159.9698 H   0  0  0  0  0  0  0  0  0  0  0  0
  154.4413  135.8659  160.4951 H   0  0  0  0  0  0  0  0  0  0  0  0
  155.9525  136.7380  160.5454 H   0  0  0  0  0  0  0  0  0  0  0  0
  156.1590  134.5453  161.6949 H   0  0  0  0  0  0  0  0  0  0  0  0
  157.0904  135.3674  163.8566 H   0  0  0  0  0  0  0  0  0  0  0  0
  157.5294  136.4445  162.5527 H   0  0  0  0  0  0  0  0  0  0  0  0
  156.7009  137.7422  164.5139 H   0  0  0  0  0  0  0  0  0  0  0  0
  155.1841  136.0070  165.4654 H   0  0  0  0  0  0  0  0  0  0  0  0
  154.3292  137.5155  165.2481 H   0  0  0  0  0  0  0  0  0  0  0  0
  152.9762  135.6089  164.3809 H   0  0  0  0  0  0  0  0  0  0  0  0
  153.7826  134.3022  162.4138 H   0  0  0  0  0  0  0  0  0  0  0  0
  154.8588  134.0911  163.7732 H   0  0  0  0  0  0  0  0  0  0  0  0
  152.7377  137.8127  163.2554 H   0  0  0  0  0  0  0  0  0  0  0  0
  152.5129  136.4950  162.1310 H   0  0  0  0  0  0  0  0  0  0  0  0
  156.2865  138.6562  162.2565 H   0  0  0  0  0  0  0  0  0  0  0  0
  154.9847  139.0951  163.3350 H   0  0  0  0  0  0  0  0  0  0  0  0
  1  2  2  0  0  0  0
  2  3  1  0  0  0  0
  2 12  1  0  0  0  0
  3  4  1  0  0  0  0
  3 22  1  0  0  0  0
  4  5  1  0  0  0  0
  4 23  1  0  0  0  0
  4 24  1  0  0  0  0
  5  6  1  0  0  0  0
  5 25  1  0  0  0  0
  5 26  1  0  0  0  0
  6 11  1  0  0  0  0
  6  7  2  0  0  0  0
  7  8  1  0  0  0  0
  7 27  1  0  0  0  0
  8  9  2  0  0  0  0
  8 28  1  0  0  0  0
  9 10  1  0  0  0  0
  9 29  1  0  0  0  0
 10 11  2  0  0  0  0
 10 30  1  0  0  0  0
 12 20  1  0  0  0  0
 12 21  1  0  0  0  0
 12 13  1  0  0  0  0
 13 14  1  0  0  0  0
 13 31  1  0  0  0  0
 13 32  1  0  0  0  0
 14 19  1  0  0  0  0
 14 15  1  0  0  0  0
 14 33  1  0  0  0  0
 15 16  1  0  0  0  0
 15 34  1  0  0  0  0
 15 35  1  0  0  0  0
 16 17  1  0  0  0  0
 16 21  1  0  0  0  0
 16 36  1  0  0  0  0
 17 18  1  0  0  0  0
 17 37  1  0  0  0  0
 17 38  1  0  0  0  0
 18 19  1  0  0  0  0
 18 20  1  0  0  0  0
 18 39  1  0  0  0  0
 19 40  1  0  0  0  0
 19 41  1  0  0  0  0
 20 42  1  0  0  0  0
 20 43  1  0  0  0  0
 21 44  1  0  0  0  0
 21 45  1  0  0  0  0
M  END
> <s_m_source_file>
AV-unprocessed.smi

> <i_m_source_file_index>
2942

> <i_lp_mmshare_version>
43012

> <i_f3d_flags>
0

> <s_epik_input>
W0NIMl0xW0NASF0oW0NIMl0yKVtDSDJdW0NASF0oW0NIMl0zKVtDSDJdW0NAQEhdMVtDSDJdQzIzQyg9TylbTkhdW0NIMl1bQ0gyXWM0W2NIXVtjSF1bY0hdW2NIXW40

> <s_epik_cmdline>
J2VwaWtfcHl0aG9uJywgJy1waCcsICc3LjAnLCAnLXRuJywgJzgnLCAnLW1hJywgJzIwMCcsICctbWV0YWxfYmluZGluZycsICctaW1hZScsICc8aW5maWxlLm1hZT4nLCAnLW9tYWUnLCAnPG91dGZpbGUubWFlPic=

> <r_epik_Ionization_Penalty>
0.0283659

> <r_epik_Ionization_Penalty_Charging>
0

> <r_epik_Ionization_Penalty_Neutral>
0.0283659

> <r_epik_State_Penalty>
0.0232723

> <r_epik_Charging_Adjusted_Penalty>
0.0232723

> <i_epik_Tot_Q>
0

> <i_epik_Tot_abs_Q>
0

> <r_epik_Metal_State_Penalty>
0.0222054

> <b_epik_Metal_Only>
0

> <s_lp_Force_Field>
OPLS_2005

> <r_lp_Energy>
35.5919

> <b_lp_Chiralities_Consistent>
1

> <s_lp_Variant>
AV-unprocessed.smi:2942-1

> <Gold.Version>
5.8.1

> <Gold.Id.Protein>
6NUR|6NUR_protein|mol2

> <Gold.PLP.Fitness>
43.9161

> <Gold.PLP.PLP>
-45.4613

> <Gold.PLP.part.hbond>
-0.4329

> <Gold.PLP.part.metal>
0.0000

> <Gold.PLP.part.buried>
-5.2718

> <Gold.PLP.part.nonpolar>
-39.5131

> <Gold.PLP.part.repulsive>
0.1158

> <Gold.PLP.ligand.clash>
0.1689

> <Gold.PLP.ligand.torsion>
0.6947

> <Gold.PLP.Chemscore.Hbond>
0.0000

> <Gold.PLP.Chemscore.CHOScore>
0.0000

> <Gold.PLP.Chemscore.Metal>
0.0000

> <Gold.PLP.Chemscore.Internal.Correction>
0.0132

> <Gold.Rescore>
     Score         DG    S(hbond)    S(metal)    S(lipo)     H(rot)  DE(clash)    DE(int)     intcor
     18.68     -19.24       0.00        0.00     146.59       1.32       0.13       0.42       ----

> <Gold.Chemscore.Fitness>
18.6849

> <Gold.Chemscore.DG>
-19.2392

> <Gold.Chemscore.ZeroCoef>
-5.4800

> <Gold.Chemscore.Hbond>
0.0000

> <Gold.Chemscore.Metal>
0.0000

> <Gold.Chemscore.Lipo>
146.5916

> <Gold.Chemscore.Internal_Hbond>
0.0000

> <Gold.Chemscore.DEClash>
0.1307

> <Gold.Chemscore.DEInternal>
0.4236

> <Gold.Chemscore.Rot>
1.3250

> <Gold.Chemscore.Internal.Correction>
   9.000000E+99

> <Gold.Chemscore.Hbond.Weighted>
-0.0000

> <Gold.Chemscore.Metal.Weighted>
-0.0000

> <Gold.Chemscore.Lipo.Weighted>
-17.1512

> <Gold.Chemscore.Internal_Hbond.Weighted>
0.0000

> <Gold.Chemscore.DEClash.Weighted>
0.1307

> <Gold.Chemscore.DEInternal.Weighted>
0.4236

> <Gold.Chemscore.Rot.Weighted>
3.3920

> <Gold.Chemscore.Internal.Correction.Weighted>
   9.000000E+99

> <Gold.Protein.RotatedTorsions>
[ 6907 6896 6895 6894 ] final    7.32 input  -60.11 | X-H torsion
[ 7974 7965 7964 7962 ] final  -61.87 input  175.53 | X-H torsion
[ 8008 7997 7996 7995 ] final  -35.93 input   59.86 | X-H torsion
[ 10167 10162 10161 10158 ] final   22.65 input  -65.29 | X-H torsion
[ 10718 10713 10712 10709 ] final  -67.53 input   66.30 | X-H torsion
[ 10763 10752 10751 10750 ] final  -26.51 input  -60.55 | X-H torsion
[ 11005 11000 10999 10996 ] final  -73.17 input  -57.11 | X-H torsion

> <Gold.Protein.ActiveResidues>
 VAL166  LYS551  ARG553  GLY616  TRP617  ASP618  TYR619  PRO620  LYS621  CYS622 
 ASP623  PHE694  ASN695  SER759  ASP760  ASP761  ALA762  ILE779  LEU786  VAL792 
 PHE793  MET794  SER795  GLU796  ALA797  LYS798  CYS799  TRP800  GLU811  SER814 

> <Gold.Protein.RotatedAtoms>
  151.6880  135.0951  160.0228 H   0  0  0  0  0  0  0  0  0  0  0  0  # atno 6907 bound_to 6896
  152.3795  133.6523  159.6158 H   0  0  0  0  0  0  0  0  0  0  0  0  # atno 6908 bound_to 6896
  150.7736  133.9053  159.3395 H   0  0  0  0  0  0  0  0  0  0  0  0  # atno 6909 bound_to 6896
  145.7982  140.8670  143.0245 H   0  0  0  0  0  0  0  0  0  0  0  0  # atno 7974 bound_to 7965
  154.4084  140.1644  156.2292 H   0  0  0  0  0  0  0  0  0  0  0  0  # atno 8008 bound_to 7997
  155.9297  140.3415  155.6216 H   0  0  0  0  0  0  0  0  0  0  0  0  # atno 8009 bound_to 7997
  155.7121  140.0758  157.2357 H   0  0  0  0  0  0  0  0  0  0  0  0  # atno 8010 bound_to 7997
  140.5332  143.9806  150.6477 H   0  0  0  0  0  0  0  0  0  0  0  0  # atno 10167 bound_to 10162
  156.0553  130.4279  150.1868 H   0  0  0  0  0  0  0  0  0  0  0  0  # atno 10718 bound_to 10713
  153.7171  135.6947  153.5022 H   0  0  0  0  0  0  0  0  0  0  0  0  # atno 10763 bound_to 10752
  153.2231  135.4363  155.0510 H   0  0  0  0  0  0  0  0  0  0  0  0  # atno 10764 bound_to 10752
  154.8296  135.3465  154.6705 H   0  0  0  0  0  0  0  0  0  0  0  0  # atno 10765 bound_to 10752
  141.1619  133.6870  156.7171 H   0  0  0  0  0  0  0  0  0  0  0  0  # atno 11005 bound_to 11000
  144.6772  140.0221  143.7483 LP  0  0  0  0  0  0  0  0  0  0  0  0  # atno 17320 bound_to 7965
  145.9905  139.3011  143.0987 LP  0  0  0  0  0  0  0  0  0  0  0  0  # atno 17321 bound_to 7965
  140.3187  143.3151  152.0806 LP  0  0  0  0  0  0  0  0  0  0  0  0  # atno 17342 bound_to 10162
  139.4961  144.6588  151.6511 LP  0  0  0  0  0  0  0  0  0  0  0  0  # atno 17343 bound_to 10162
  156.9945  130.9903  151.3406 LP  0  0  0  0  0  0  0  0  0  0  0  0  # atno 17370 bound_to 10713
  157.5517  130.8186  149.8153 LP  0  0  0  0  0  0  0  0  0  0  0  0  # atno 17371 bound_to 10713
  140.2843  134.8291  157.3961 LP  0  0  0  0  0  0  0  0  0  0  0  0  # atno 17394 bound_to 11000
  140.1404  134.4979  155.8036 LP  0  0  0  0  0  0  0  0  0  0  0  0  # atno 17395 bound_to 11000

$$$$
