AV-unprocessed.smi:1485|AV-procd|sdf|6003|dock5
  -GOLD-   22720 6 93D 1   1.00000     0.00000
 Structure written by MMmdl.
 44 45  0  0  0  0  0  0  0  0  1 V2000
  147.5578  136.1863  161.9429 C   0  0  0  0  0  0  0  0  0  0  0  0
  147.7104  137.2670  161.0395 O   0  0  0  0  0  0  0  0  0  0  0  0
  147.5733  136.8667  159.6867 C   0  0  0  0  0  0  0  0  0  0  0  0
  148.7561  135.9601  159.3145 C   0  0  0  0  0  0  0  0  0  0  0  0
  149.3911  136.3923  158.0655 N   0  0  0  0  0  0  0  0  0  0  0  0
  150.2586  137.4612  158.2152 N   0  0  0  0  0  0  0  0  0  0  0  0
  150.8919  137.9333  157.1902 C   0  0  0  0  0  0  0  0  0  0  0  0
  151.8342  139.0802  157.3095 C   0  0  0  0  0  0  0  0  0  0  0  0
  152.7699  139.2383  156.5234 O   0  0  0  0  0  0  0  0  0  0  0  0
  151.5866  139.9231  158.3285 N   0  0  0  0  0  0  0  0  0  0  0  0
  152.3600  141.1186  158.6480 C   0  0  2  0  0  0  0  0  0  0  0  0
  152.8998  141.0112  160.0856 C   0  0  0  0  0  0  0  0  0  0  0  0
  153.6677  142.2783  160.4909 C   0  0  0  0  0  0  0  0  0  0  0  0
  152.7980  143.5341  160.3234 C   0  0  0  0  0  0  0  0  0  0  0  0
  152.2618  143.6597  158.8845 C   0  0  2  0  0  0  0  0  0  0  0  0
  151.3924  144.9136  158.7157 C   0  0  0  0  0  0  0  0  0  0  0  0
  151.4950  142.3851  158.4812 C   0  0  0  0  0  0  0  0  0  0  0  0
  150.7057  137.3555  155.8699 C   0  0  0  0  0  0  0  0  0  0  0  0
  149.8601  136.3097  155.7406 C   0  0  0  0  0  0  0  0  0  0  0  0
  149.1364  135.7527  156.8845 C   0  0  0  0  0  0  0  0  0  0  0  0
  148.3713  134.7930  156.7945 O   0  0  0  0  0  0  0  0  0  0  0  0
  147.6778  136.5434  162.9656 H   0  0  0  0  0  0  0  0  0  0  0  0
  148.3082  135.4146  161.7658 H   0  0  0  0  0  0  0  0  0  0  0  0
  146.5671  135.7379  161.8573 H   0  0  0  0  0  0  0  0  0  0  0  0
  146.6327  136.3303  159.5512 H   0  0  0  0  0  0  0  0  0  0  0  0
  147.5487  137.7450  159.0396 H   0  0  0  0  0  0  0  0  0  0  0  0
  149.4840  135.9409  160.1276 H   0  0  0  0  0  0  0  0  0  0  0  0
  148.4060  134.9309  159.2153 H   0  0  0  0  0  0  0  0  0  0  0  0
  150.7984  139.7187  158.9259 H   0  0  0  0  0  0  0  0  0  0  0  0
  153.2131  141.1808  157.9692 H   0  0  0  0  0  0  0  0  0  0  0  0
  152.0738  140.8531  160.7806 H   0  0  0  0  0  0  0  0  0  0  0  0
  153.5520  140.1419  160.1770 H   0  0  0  0  0  0  0  0  0  0  0  0
  154.0036  142.1941  161.5248 H   0  0  0  0  0  0  0  0  0  0  0  0
  154.5668  142.3723  159.8804 H   0  0  0  0  0  0  0  0  0  0  0  0
  151.9648  143.4955  161.0265 H   0  0  0  0  0  0  0  0  0  0  0  0
  153.3806  144.4184  160.5840 H   0  0  0  0  0  0  0  0  0  0  0  0
  153.1173  143.7616  158.2152 H   0  0  0  0  0  0  0  0  0  0  0  0
  150.5144  144.8772  159.3615 H   0  0  0  0  0  0  0  0  0  0  0  0
  151.0453  145.0141  157.6870 H   0  0  0  0  0  0  0  0  0  0  0  0
  151.9517  145.8161  158.9636 H   0  0  0  0  0  0  0  0  0  0  0  0
  151.1612  142.4724  157.4464 H   0  0  0  0  0  0  0  0  0  0  0  0
  150.5927  142.2947  159.0883 H   0  0  0  0  0  0  0  0  0  0  0  0
  151.2268  137.7463  155.0080 H   0  0  0  0  0  0  0  0  0  0  0  0
  149.7124  135.8702  154.7649 H   0  0  0  0  0  0  0  0  0  0  0  0
  1  2  1  0  0  0  0
  1 22  1  0  0  0  0
  1 23  1  0  0  0  0
  1 24  1  0  0  0  0
  2  3  1  0  0  0  0
  3  4  1  0  0  0  0
  3 25  1  0  0  0  0
  3 26  1  0  0  0  0
  4  5  1  0  0  0  0
  4 27  1  0  0  0  0
  4 28  1  0  0  0  0
  5 20  1  0  0  0  0
  5  6  1  0  0  0  0
  6  7  2  0  0  0  0
  7  8  1  0  0  0  0
  7 18  1  0  0  0  0
  8  9  2  0  0  0  0
  8 10  1  0  0  0  0
 10 11  1  0  0  0  0
 10 29  1  0  0  0  0
 11 17  1  0  0  0  0
 11 12  1  0  0  0  0
 11 30  1  0  0  0  0
 12 13  1  0  0  0  0
 12 31  1  0  0  0  0
 12 32  1  0  0  0  0
 13 14  1  0  0  0  0
 13 33  1  0  0  0  0
 13 34  1  0  0  0  0
 14 15  1  0  0  0  0
 14 35  1  0  0  0  0
 14 36  1  0  0  0  0
 15 16  1  0  0  0  0
 15 17  1  0  0  0  0
 15 37  1  0  0  0  0
 16 38  1  0  0  0  0
 16 39  1  0  0  0  0
 16 40  1  0  0  0  0
 17 41  1  0  0  0  0
 17 42  1  0  0  0  0
 18 19  2  0  0  0  0
 18 43  1  0  0  0  0
 19 20  1  0  0  0  0
 19 44  1  0  0  0  0
 20 21  2  0  0  0  0
M  END
> <s_m_source_file>
AV-unprocessed.smi

> <i_m_source_file_index>
1485

> <i_lp_mmshare_version>
43012

> <i_f3d_flags>
0

> <s_epik_input>
W0NIM11PW0NIMl1bQ0gyXW4xbmMoW2NIXVtjSF1jMT1PKUMoPU8pW05IXVtDQEBIXTJbQ0gyXVtDSDJdW0NIMl1bQ0BASF0oW0NIM10pW0NIMl0y

> <s_epik_cmdline>
J2VwaWtfcHl0aG9uJywgJy1waCcsICc3LjAnLCAnLXRuJywgJzgnLCAnLW1hJywgJzIwMCcsICctbWV0YWxfYmluZGluZycsICctaW1hZScsICc8aW5maWxlLm1hZT4nLCAnLW9tYWUnLCAnPG91dGZpbGUubWFlPic=

> <r_lp_tautomer_probability>
1

> <r_epik_Ionization_Penalty>
6.4688e-07

> <r_epik_Ionization_Penalty_Charging>
6.63567e-09

> <r_epik_Ionization_Penalty_Neutral>
6.40245e-07

> <r_epik_State_Penalty>
-0

> <r_epik_Charging_Adjusted_Penalty>
6.63567e-09

> <i_epik_Tot_Q>
0

> <i_epik_Tot_abs_Q>
0

> <r_epik_Metal_State_Penalty>
-0

> <b_epik_Metal_Only>
0

> <s_lp_Force_Field>
OPLS_2005

> <r_lp_Energy>
28.6474

> <b_lp_Chiralities_Consistent>
1

> <s_lp_Variant>
AV-unprocessed.smi:1485-3

> <Gold.Version>
5.8.1

> <Gold.Id.Protein>
6NUR|6NUR_protein|mol2

> <Gold.PLP.Fitness>
42.3408

> <Gold.PLP.PLP>
-35.9415

> <Gold.PLP.part.hbond>
-3.0000

> <Gold.PLP.part.metal>
0.0000

> <Gold.PLP.part.buried>
-5.2657

> <Gold.PLP.part.nonpolar>
-27.5124

> <Gold.PLP.part.repulsive>
0.1031

> <Gold.PLP.ligand.clash>
0.0000

> <Gold.PLP.ligand.torsion>
0.9470

> <Gold.PLP.Chemscore.Hbond>
2.7600

> <Gold.PLP.Chemscore.CHOScore>
0.0000

> <Gold.PLP.Chemscore.Metal>
0.0000

> <Gold.Chemscore.Hbonds>
donor molecule, donor type, donor heavy atom, donor atom, acceptor molecule, acceptor atom, score
      P1  H  6931  6943       L1     2  0.86
      P1  H  6934  6947       L1     2  0.86
      P1  H  7997  8010       L1     9  1.00

> <Gold.PLP.Chemscore.Internal.Correction>
0.0133

> <Gold.Rescore>
     Score         DG    S(hbond)    S(metal)    S(lipo)     H(rot)  DE(clash)    DE(int)     intcor
     19.30     -20.43       2.10        0.00     101.73       1.55       0.00       1.12       ----

> <Gold.Chemscore.Fitness>
19.3011

> <Gold.Chemscore.DG>
-20.4253

> <Gold.Chemscore.ZeroCoef>
-5.4800

> <Gold.Chemscore.Hbond>
2.0975

> <Gold.Chemscore.Metal>
0.0000

> <Gold.Chemscore.Lipo>
101.7264

> <Gold.Chemscore.Internal_Hbond>
0.0000

> <Gold.Chemscore.DEClash>
0.0000

> <Gold.Chemscore.DEInternal>
1.1242

> <Gold.Chemscore.Rot>
1.5478

> <Gold.Chemscore.Internal.Correction>
   9.000000E+99

> <Gold.Chemscore.Hbonds>
donor molecule, donor type, donor heavy atom, donor atom, acceptor molecule, acceptor atom, score
      P1  H  6931  6943       L1     2  0.25
      P1  H  6934  6947       L1     2  0.25
      P1  H  7997  8010       L1     9  1.00

> <Gold.Chemscore.Hbond.Weighted>
-7.0055

> <Gold.Chemscore.Metal.Weighted>
-0.0000

> <Gold.Chemscore.Lipo.Weighted>
-11.9020

> <Gold.Chemscore.Internal_Hbond.Weighted>
0.0000

> <Gold.Chemscore.DEClash.Weighted>
0.0000

> <Gold.Chemscore.DEInternal.Weighted>
1.1242

> <Gold.Chemscore.Rot.Weighted>
3.9623

> <Gold.Chemscore.Internal.Correction.Weighted>
   9.000000E+99

> <Gold.Protein.RotatedTorsions>
[ 6907 6896 6895 6894 ] final  115.76 input  -60.11 | X-H torsion
[ 7974 7965 7964 7962 ] final  133.51 input  175.53 | X-H torsion
[ 8008 7997 7996 7995 ] final   75.69 input   59.86 | X-H torsion
[ 10167 10162 10161 10158 ] final -102.37 input  -65.29 | X-H torsion
[ 10718 10713 10712 10709 ] final   55.30 input   66.30 | X-H torsion
[ 10763 10752 10751 10750 ] final   -2.94 input  -60.55 | X-H torsion
[ 11005 11000 10999 10996 ] final -179.51 input  -57.11 | X-H torsion

> <Gold.Protein.ActiveResidues>
 VAL166  LYS551  ARG553  GLY616  TRP617  ASP618  TYR619  PRO620  LYS621  CYS622 
 ASP623  PHE694  ASN695  SER759  ASP760  ASP761  ALA762  ILE779  LEU786  VAL792 
 PHE793  MET794  SER795  GLU796  ALA797  LYS798  CYS799  TRP800  GLU811  SER814 

> <Gold.Protein.RotatedAtoms>
  152.4721  133.8053  159.6974 H   0  0  0  0  0  0  0  0  0  0  0  0  # atno 6907 bound_to 6896
  150.8716  133.7488  159.2966 H   0  0  0  0  0  0  0  0  0  0  0  0  # atno 6908 bound_to 6896
  151.5021  135.1065  159.9883 H   0  0  0  0  0  0  0  0  0  0  0  0  # atno 6909 bound_to 6896
  144.9858  139.4457  143.5363 H   0  0  0  0  0  0  0  0  0  0  0  0  # atno 7974 bound_to 7965
  155.8166  140.3471  155.5489 H   0  0  0  0  0  0  0  0  0  0  0  0  # atno 8008 bound_to 7997
  155.8386  140.0938  157.1769 H   0  0  0  0  0  0  0  0  0  0  0  0  # atno 8009 bound_to 7997
  154.4005  140.1399  156.3688 H   0  0  0  0  0  0  0  0  0  0  0  0  # atno 8010 bound_to 7997
  140.2313  143.3604  152.0884 H   0  0  0  0  0  0  0  0  0  0  0  0  # atno 10167 bound_to 10162
  157.5333  130.8645  149.8717 H   0  0  0  0  0  0  0  0  0  0  0  0  # atno 10718 bound_to 10713
  153.3647  135.6992  153.6684 H   0  0  0  0  0  0  0  0  0  0  0  0  # atno 10763 bound_to 10752
  153.5358  135.3583  155.2697 H   0  0  0  0  0  0  0  0  0  0  0  0  # atno 10764 bound_to 10752
  154.8673  135.4192  154.2912 H   0  0  0  0  0  0  0  0  0  0  0  0  # atno 10765 bound_to 10752
  140.4178  134.6633  157.4648 H   0  0  0  0  0  0  0  0  0  0  0  0  # atno 11005 bound_to 11000
  146.3419  139.9160  142.8773 LP  0  0  0  0  0  0  0  0  0  0  0  0  # atno 17320 bound_to 7965
  145.2355  140.9989  143.3966 LP  0  0  0  0  0  0  0  0  0  0  0  0  # atno 17321 bound_to 7965
  139.5109  144.6891  151.5807 LP  0  0  0  0  0  0  0  0  0  0  0  0  # atno 17342 bound_to 10162
  140.6183  143.9307  150.6505 LP  0  0  0  0  0  0  0  0  0  0  0  0  # atno 17343 bound_to 10162
  156.0439  130.3732  150.1367 LP  0  0  0  0  0  0  0  0  0  0  0  0  # atno 17370 bound_to 10713
  156.9550  130.9787  151.3490 LP  0  0  0  0  0  0  0  0  0  0  0  0  # atno 17371 bound_to 10713
  140.0222  134.6531  155.9224 LP  0  0  0  0  0  0  0  0  0  0  0  0  # atno 17394 bound_to 11000
  141.1796  133.6544  156.4966 LP  0  0  0  0  0  0  0  0  0  0  0  0  # atno 17395 bound_to 11000

$$$$
