AV-unprocessed.smi:45|AV-procd|sdf|417|dock1
  -GOLD-   2262016293D 1   1.00000     0.00000
 Structure written by MMmdl.
 60 63  0  0  0  0  0  0  0  0  3 V2000
  151.0398  142.6581  157.2101 C   0  0  0  0  0  0  0  0  0  0  0  0
  151.3866  141.5132  156.4454 O   0  0  0  0  0  0  0  0  0  0  0  0
  150.3967  140.8976  155.7076 C   0  0  0  0  0  0  0  0  0  0  0  0
  149.0809  141.4086  155.5715 C   0  0  0  0  0  0  0  0  0  0  0  0
  148.1202  140.7173  154.8090 C   0  0  0  0  0  0  0  0  0  0  0  0
  148.4544  139.5051  154.1725 C   0  0  0  0  0  0  0  0  0  0  0  0
  147.4149  138.7415  153.3749 C   0  0  0  0  0  0  0  0  0  0  0  0
  146.3522  138.2075  154.2119 N   0  0  0  0  0  0  0  0  0  0  0  0
  146.3319  136.8233  154.4361 C   0  0  0  0  0  0  0  0  0  0  0  0
  145.9754  136.0067  153.4097 N   0  3  0  0  0  0  0  0  0  0  0  0
  145.9741  134.6719  153.5667 C   0  0  0  0  0  0  0  0  0  0  0  0
  145.5939  133.8764  152.4870 N   0  0  0  0  0  0  0  0  0  0  0  0
  145.5292  132.4232  152.5958 C   0  0  0  0  0  0  0  0  0  0  0  0
  145.8863  131.8827  151.2124 C   0  0  0  0  0  0  0  0  0  0  0  0
  145.4137  132.9917  150.2816 C   0  0  0  0  0  0  0  0  0  0  0  0
  145.6876  134.2744  151.0812 C   0  0  1  0  0  0  0  0  0  0  0  0
  144.7239  135.4207  150.7078 C   0  0  0  0  0  0  0  0  0  0  0  0
  145.0742  135.9604  149.4512 O   0  0  0  0  0  0  0  0  0  0  0  0
  146.3149  134.0901  154.7251 N   0  0  0  0  0  0  0  0  0  0  0  0
  146.6795  134.8587  155.7703 C   0  0  0  0  0  0  0  0  0  0  0  0
  146.7029  136.2623  155.6813 C   0  0  0  0  0  0  0  0  0  0  0  0
  147.1136  137.1103  156.8506 C   0  0  0  0  0  0  0  0  0  0  0  0
  147.0077  138.3373  156.7499 O   0  0  0  0  0  0  0  0  0  0  0  0
  147.6156  136.3514  157.8623 N   0  5  0  0  0  0  0  0  0  0  0  0
  148.3624  136.9075  158.9927 C   0  0  0  0  0  0  0  0  0  0  0  0
  147.9028  136.3286  160.3294 C   0  0  0  0  0  0  0  0  0  0  0  0
  147.4956  137.2018  161.2599 N   0  0  0  0  0  0  0  0  0  0  0  0
  147.0570  136.6917  162.4312 C   0  0  0  0  0  0  0  0  0  0  0  0
  147.0272  135.3034  162.6706 C   0  0  0  0  0  0  0  0  0  0  0  0
  147.4760  134.4799  161.6192 C   0  0  0  0  0  0  0  0  0  0  0  0
  147.9150  134.9950  160.4503 N   0  0  0  0  0  0  0  0  0  0  0  0
  149.7608  138.9947  154.2993 C   0  0  0  0  0  0  0  0  0  0  0  0
  150.7238  139.6848  155.0609 C   0  0  0  0  0  0  0  0  0  0  0  0
  152.3109  139.0201  155.2101 Cl  0  0  0  0  0  0  0  0  0  0  0  0
  146.7169  134.5887  150.9019 H   0  0  0  0  0  0  0  0  0  0  0  0
  151.9206  143.0131  157.7450 H   0  0  0  0  0  0  0  0  0  0  0  0
  150.2753  142.4244  157.9527 H   0  0  0  0  0  0  0  0  0  0  0  0
  150.6904  143.4723  156.5736 H   0  0  0  0  0  0  0  0  0  0  0  0
  148.7805  142.3301  156.0462 H   0  0  0  0  0  0  0  0  0  0  0  0
  147.1209  141.1181  154.7213 H   0  0  0  0  0  0  0  0  0  0  0  0
  146.9802  139.4099  152.6311 H   0  0  0  0  0  0  0  0  0  0  0  0
  147.9045  137.9315  152.8318 H   0  0  0  0  0  0  0  0  0  0  0  0
  146.1200  138.7741  155.0162 H   0  0  0  0  0  0  0  0  0  0  0  0
  146.2090  132.0323  153.3540 H   0  0  0  0  0  0  0  0  0  0  0  0
  144.5129  132.1391  152.8709 H   0  0  0  0  0  0  0  0  0  0  0  0
  146.9677  131.7657  151.1276 H   0  0  0  0  0  0  0  0  0  0  0  0
  145.4235  130.9185  151.0002 H   0  0  0  0  0  0  0  0  0  0  0  0
  145.9197  132.9798  149.3158 H   0  0  0  0  0  0  0  0  0  0  0  0
  144.3442  132.8760  150.0990 H   0  0  0  0  0  0  0  0  0  0  0  0
  143.6934  135.0654  150.6711 H   0  0  0  0  0  0  0  0  0  0  0  0
  144.7547  136.2297  151.4364 H   0  0  0  0  0  0  0  0  0  0  0  0
  144.5581  136.7381  149.3017 H   0  0  0  0  0  0  0  0  0  0  0  0
  146.9486  134.3455  156.6820 H   0  0  0  0  0  0  0  0  0  0  0  0
  149.4371  136.7499  158.8837 H   0  0  0  0  0  0  0  0  0  0  0  0
  148.2441  137.9907  159.0407 H   0  0  0  0  0  0  0  0  0  0  0  0
  146.7242  137.3944  163.1808 H   0  0  0  0  0  0  0  0  0  0  0  0
  146.6742  134.8938  163.6052 H   0  0  0  0  0  0  0  0  0  0  0  0
  147.4821  133.4045  161.7164 H   0  0  0  0  0  0  0  0  0  0  0  0
  150.0272  138.0634  153.8211 H   0  0  0  0  0  0  0  0  0  0  0  0
  145.7137  136.4219  152.5162 H   0  0  0  0  0  0  0  0  0  0  0  0
  1  2  1  0  0  0  0
  1 36  1  0  0  0  0
  1 37  1  0  0  0  0
  1 38  1  0  0  0  0
  2  3  1  0  0  0  0
  3 33  1  0  0  0  0
  3  4  2  0  0  0  0
  4  5  1  0  0  0  0
  4 39  1  0  0  0  0
  5  6  2  0  0  0  0
  5 40  1  0  0  0  0
  6  7  1  0  0  0  0
  6 32  1  0  0  0  0
  7  8  1  0  0  0  0
  7 41  1  0  0  0  0
  7 42  1  0  0  0  0
  8  9  1  0  0  0  0
  8 43  1  0  0  0  0
  9 21  1  0  0  0  0
  9 10  2  0  0  0  0
 10 11  1  0  0  0  0
 10 60  1  0  0  0  0
 11 12  1  0  0  0  0
 11 19  2  0  0  0  0
 12 16  1  0  0  0  0
 12 13  1  0  0  0  0
 13 14  1  0  0  0  0
 13 44  1  0  0  0  0
 13 45  1  0  0  0  0
 14 15  1  0  0  0  0
 14 46  1  0  0  0  0
 14 47  1  0  0  0  0
 15 16  1  0  0  0  0
 15 48  1  0  0  0  0
 15 49  1  0  0  0  0
 16 35  1  0  0  0  0
 16 17  1  0  0  0  0
 17 18  1  0  0  0  0
 17 50  1  0  0  0  0
 17 51  1  0  0  0  0
 18 52  1  0  0  0  0
 19 20  1  0  0  0  0
 20 21  2  0  0  0  0
 20 53  1  0  0  0  0
 21 22  1  0  0  0  0
 22 23  2  0  0  0  0
 22 24  1  0  0  0  0
 24 25  1  0  0  0  0
 25 26  1  0  0  0  0
 25 54  1  0  0  0  0
 25 55  1  0  0  0  0
 26 31  1  0  0  0  0
 26 27  2  0  0  0  0
 27 28  1  0  0  0  0
 28 29  2  0  0  0  0
 28 56  1  0  0  0  0
 29 30  1  0  0  0  0
 29 57  1  0  0  0  0
 30 31  2  0  0  0  0
 30 58  1  0  0  0  0
 32 33  2  0  0  0  0
 32 59  1  0  0  0  0
 33 34  1  0  0  0  0
M  CHG  1  10   1
M  CHG  1  24  -1
M  END
> <s_m_source_file>
AV-unprocessed.smi

> <i_m_source_file_index>
45

> <i_lp_mmshare_version>
43012

> <i_f3d_flags>
0

> <s_epik_input>
W0NIM11PYzFbY0hdW2NIXWMoW2NIXWMxQ2wpW0NIMl1bTkhdYzJuYyhOM1tDSDJdW0NIMl1bQ0gyXVtDQEhdM1tDSDJdW09IXSluW2NIXWMyQyg9TylbTkhdW0NIMl1jNG5bY0hdW2NIXVtjSF1uNA==

> <s_epik_cmdline>
J2VwaWtfcHl0aG9uJywgJy1waCcsICc3LjAnLCAnLXRuJywgJzgnLCAnLW1hJywgJzIwMCcsICctbWV0YWxfYmluZGluZycsICctaW1hZScsICc8aW5maWxlLm1hZT4nLCAnLW9tYWUnLCAnPG91dGZpbGUubWFlPic=

> <r_lp_tautomer_probability>
0.424989

> <r_epik_Ionization_Penalty>
7.51351

> <r_epik_Ionization_Penalty_Charging>
7.51312

> <r_epik_Ionization_Penalty_Neutral>
0.00038389

> <r_epik_State_Penalty>
8.64696

> <r_epik_Charging_Adjusted_Penalty>
16.1601

> <i_epik_Tot_Q>
0

> <i_epik_Tot_abs_Q>
2

> <r_epik_Metal_State_Penalty>
4.61083

> <b_epik_Metal_Only>
1

> <s_epik_Chemistry_Notes>
This compound contains an electron-poor aromatic ring that is susceptible to covalent hydrolysis at low pH, typically resulting in measured values for nitrogen ring protonation that are around two units higher than predicted values.

> <s_lp_Force_Field>
OPLS_2005

> <r_lp_Energy>
39.4565

> <b_lp_Chiralities_Consistent>
1

> <s_lp_Variant>
AV-unprocessed.smi:45-11

> <Gold.Version>
5.8.1

> <Gold.Id.Protein>
6NUR|6NUR_protein|mol2

> <Gold.PLP.Fitness>
61.5121

> <Gold.PLP.PLP>
-53.6375

> <Gold.PLP.part.hbond>
-3.6705

> <Gold.PLP.part.metal>
0.0000

> <Gold.PLP.part.buried>
-6.6747

> <Gold.PLP.part.nonpolar>
-44.1023

> <Gold.PLP.part.repulsive>
0.1053

> <Gold.PLP.ligand.clash>
0.5397

> <Gold.PLP.ligand.torsion>
0.9684

> <Gold.PLP.Chemscore.Hbond>
2.8720

> <Gold.PLP.Chemscore.CHOScore>
0.0000

> <Gold.PLP.Chemscore.Metal>
0.0000

> <Gold.Chemscore.Hbonds>
donor molecule, donor type, donor heavy atom, donor atom, acceptor molecule, acceptor atom, score
      L1  H    18    52       P1 10171  1.00
      P1  H  6931  6943       L1    27  0.90
      P1  H  6934  6947       L1    27  0.93

> <Gold.PLP.Chemscore.Internal.Correction>
1.7352

> <Gold.Rescore>
     Score         DG    S(hbond)    S(metal)    S(lipo)     H(rot)  DE(clash)    DE(int)     intcor
     15.35     -18.85       2.09        0.00     123.65       3.16       0.08       3.41       ----

> <Gold.Chemscore.Fitness>
15.3508

> <Gold.Chemscore.DG>
-18.8452

> <Gold.Chemscore.ZeroCoef>
-5.4800

> <Gold.Chemscore.Hbond>
2.0901

> <Gold.Chemscore.Metal>
0.0000

> <Gold.Chemscore.Lipo>
123.6455

> <Gold.Chemscore.Internal_Hbond>
0.0000

> <Gold.Chemscore.DEClash>
0.0814

> <Gold.Chemscore.DEInternal>
3.4131

> <Gold.Chemscore.Rot>
3.1571

> <Gold.Chemscore.Internal.Correction>
   9.000000E+99

> <Gold.Chemscore.Hbonds>
donor molecule, donor type, donor heavy atom, donor atom, acceptor molecule, acceptor atom, score
      L1  H    18    52       P1 10171  0.94
      P1  H  6931  6943       L1    27  0.16
      P1  H  6934  6947       L1    27  0.85

> <Gold.Chemscore.Hbond.Weighted>
-6.9809

> <Gold.Chemscore.Metal.Weighted>
-0.0000

> <Gold.Chemscore.Lipo.Weighted>
-14.4665

> <Gold.Chemscore.Internal_Hbond.Weighted>
0.0000

> <Gold.Chemscore.DEClash.Weighted>
0.0814

> <Gold.Chemscore.DEInternal.Weighted>
3.4131

> <Gold.Chemscore.Rot.Weighted>
8.0822

> <Gold.Chemscore.Internal.Correction.Weighted>
   9.000000E+99

> <Gold.Protein.RotatedTorsions>
[ 6907 6896 6895 6894 ] final -136.16 input  -60.11 | X-H torsion
[ 7974 7965 7964 7962 ] final -165.89 input  175.53 | X-H torsion
[ 8008 7997 7996 7995 ] final  147.17 input   59.86 | X-H torsion
[ 10167 10162 10161 10158 ] final  167.99 input  -65.29 | X-H torsion
[ 10718 10713 10712 10709 ] final -171.88 input   66.30 | X-H torsion
[ 10763 10752 10751 10750 ] final  -93.22 input  -60.55 | X-H torsion
[ 11005 11000 10999 10996 ] final    7.58 input  -57.11 | X-H torsion

> <Gold.Protein.ActiveResidues>
 VAL166  LYS551  ARG553  GLY616  TRP617  ASP618  TYR619  PRO620  LYS621  CYS622 
 ASP623  PHE694  ASN695  SER759  ASP760  ASP761  ALA762  ILE779  LEU786  VAL792 
 PHE793  MET794  SER795  GLU796  ALA797  LYS798  CYS799  TRP800  GLU811  SER814 

> <Gold.Protein.RotatedAtoms>
  151.0066  133.6005  159.2687 H   0  0  0  0  0  0  0  0  0  0  0  0  # atno 6907 bound_to 6896
  151.3172  135.0808  159.9303 H   0  0  0  0  0  0  0  0  0  0  0  0  # atno 6908 bound_to 6896
  152.5288  133.9720  159.7821 H   0  0  0  0  0  0  0  0  0  0  0  0  # atno 6909 bound_to 6896
  144.7258  140.2747  143.6245 H   0  0  0  0  0  0  0  0  0  0  0  0  # atno 7974 bound_to 7965
  156.2833  140.2163  156.5494 H   0  0  0  0  0  0  0  0  0  0  0  0  # atno 8008 bound_to 7997
  154.7304  140.0496  157.0743 H   0  0  0  0  0  0  0  0  0  0  0  0  # atno 8009 bound_to 7997
  155.0362  140.3140  155.4744 H   0  0  0  0  0  0  0  0  0  0  0  0  # atno 8010 bound_to 7997
  139.4957  144.3863  151.9567 H   0  0  0  0  0  0  0  0  0  0  0  0  # atno 10167 bound_to 10162
  156.7474  130.9365  151.3113 H   0  0  0  0  0  0  0  0  0  0  0  0  # atno 10718 bound_to 10713
  154.6938  135.5202  153.8429 H   0  0  0  0  0  0  0  0  0  0  0  0  # atno 10763 bound_to 10752
  153.0651  135.6582  154.0381 H   0  0  0  0  0  0  0  0  0  0  0  0  # atno 10764 bound_to 10752
  154.0251  135.2990  155.3355 H   0  0  0  0  0  0  0  0  0  0  0  0  # atno 10765 bound_to 10752
  140.5466  134.0323  155.7922 H   0  0  0  0  0  0  0  0  0  0  0  0  # atno 11005 bound_to 11000
  145.8009  139.1964  143.2049 LP  0  0  0  0  0  0  0  0  0  0  0  0  # atno 17320 bound_to 7965
  146.0678  140.7902  142.9703 LP  0  0  0  0  0  0  0  0  0  0  0  0  # atno 17321 bound_to 7965
  140.3300  144.3328  150.5989 LP  0  0  0  0  0  0  0  0  0  0  0  0  # atno 17342 bound_to 10162
  140.5653  143.2187  151.7694 LP  0  0  0  0  0  0  0  0  0  0  0  0  # atno 17343 bound_to 10162
  157.6792  130.9123  150.0225 LP  0  0  0  0  0  0  0  0  0  0  0  0  # atno 17370 bound_to 10713
  156.1424  130.3642  149.9562 LP  0  0  0  0  0  0  0  0  0  0  0  0  # atno 17371 bound_to 10713
  141.1196  133.9483  157.2756 LP  0  0  0  0  0  0  0  0  0  0  0  0  # atno 17394 bound_to 11000
  139.9476  135.0181  156.8899 LP  0  0  0  0  0  0  0  0  0  0  0  0  # atno 17395 bound_to 11000

$$$$
