AV-unprocessed.smi:171|AV-procd|sdf|1421|dock10
  -GOLD-   2262019193D 1   1.00000     0.00000
 Structure written by MMmdl.
 56 59  0  0  0  0  0  0  0  0  1 V2000
  152.1116  141.9626  159.1090 C   0  0  0  0  0  0  0  0  0  0  0  0
  151.7133  142.3007  157.6636 C   0  0  0  0  0  0  0  0  0  0  0  0
  151.6122  143.8235  157.4849 C   0  0  0  0  0  0  0  0  0  0  0  0
  150.4068  141.6130  157.2025 C   0  0  0  0  0  0  0  0  0  0  0  0
  150.5592  140.6327  155.9997 C   0  0  1  0  0  0  0  0  0  0  0  0
  151.7330  139.6271  156.1083 C   0  0  0  0  0  0  0  0  0  0  0  0
  152.7272  139.8880  156.7821 O   0  0  0  0  0  0  0  0  0  0  0  0
  151.6324  138.4636  155.4405 N   0  0  0  0  0  0  0  0  0  0  0  0
  150.4805  138.0233  154.6493 C   0  0  0  0  0  0  0  0  0  0  0  0
  149.4055  139.1144  154.4585 C   0  0  0  0  0  0  0  0  0  0  0  0
  149.2973  139.9563  155.6479 N   0  0  0  0  0  0  0  0  0  0  0  0
  148.5157  139.3973  156.6121 C   0  0  0  0  0  0  0  0  0  0  0  0
  147.2045  139.7392  156.7283 N   0  0  0  0  0  0  0  0  0  0  0  0
  146.4479  139.1982  157.6872 C   0  0  0  0  0  0  0  0  0  0  0  0
  146.7948  138.3135  158.6237 N   0  0  0  0  0  0  0  0  0  0  0  0
  148.1100  137.9696  158.5154 C   0  0  0  0  0  0  0  0  0  0  0  0
  149.0313  138.4575  157.5465 C   0  0  0  0  0  0  0  0  0  0  0  0
  150.2774  137.8739  157.7397 N   0  0  0  0  0  0  0  0  0  0  0  0
  150.1041  137.0894  158.7683 C   0  0  0  0  0  0  0  0  0  0  0  0
  148.8356  137.0940  159.3041 N   0  0  0  0  0  0  0  0  0  0  0  0
  148.3688  136.3287  160.4501 C   0  0  0  0  0  0  0  0  0  0  0  0
  147.3829  135.1921  160.0710 C   0  0  2  0  0  0  0  0  0  0  0  0
  148.0164  134.3584  159.1149 O   0  0  0  0  0  0  0  0  0  0  0  0
  146.0803  135.6988  159.4555 C   0  0  0  0  0  0  0  0  0  0  0  0
  145.0708  134.6357  159.8596 C   0  0  0  0  0  0  0  0  0  0  0  0
  145.4686  134.3287  161.1837 O   0  0  0  0  0  0  0  0  0  0  0  0
  146.8920  134.2862  161.2363 C   0  0  2  0  0  0  0  0  0  0  0  0
  147.3233  134.6849  162.6562 C   0  0  0  0  0  0  0  0  0  0  0  0
  151.3258  142.2385  159.8129 H   0  0  0  0  0  0  0  0  0  0  0  0
  153.0178  142.4945  159.3998 H   0  0  0  0  0  0  0  0  0  0  0  0
  152.3157  140.8991  159.2293 H   0  0  0  0  0  0  0  0  0  0  0  0
  152.5181  141.9575  157.0123 H   0  0  0  0  0  0  0  0  0  0  0  0
  150.8221  144.2437  158.1083 H   0  0  0  0  0  0  0  0  0  0  0  0
  151.3952  144.0871  156.4494 H   0  0  0  0  0  0  0  0  0  0  0  0
  152.5470  144.3147  157.7567 H   0  0  0  0  0  0  0  0  0  0  0  0
  149.9276  141.1170  158.0479 H   0  0  0  0  0  0  0  0  0  0  0  0
  149.7227  142.4153  156.9239 H   0  0  0  0  0  0  0  0  0  0  0  0
  150.7902  141.2438  155.1262 H   0  0  0  0  0  0  0  0  0  0  0  0
  152.4052  137.8177  155.5118 H   0  0  0  0  0  0  0  0  0  0  0  0
  150.8198  137.6478  153.6837 H   0  0  0  0  0  0  0  0  0  0  0  0
  150.0406  137.1753  155.1754 H   0  0  0  0  0  0  0  0  0  0  0  0
  149.6857  139.7550  153.6215 H   0  0  0  0  0  0  0  0  0  0  0  0
  148.4524  138.6644  154.1784 H   0  0  0  0  0  0  0  0  0  0  0  0
  145.4180  139.5221  157.7081 H   0  0  0  0  0  0  0  0  0  0  0  0
  150.9046  136.4855  159.1700 H   0  0  0  0  0  0  0  0  0  0  0  0
  149.2400  135.9222  160.9654 H   0  0  0  0  0  0  0  0  0  0  0  0
  147.8980  137.0276  161.1419 H   0  0  0  0  0  0  0  0  0  0  0  0
  147.5328  134.4100  158.3048 H   0  0  0  0  0  0  0  0  0  0  0  0
  145.7915  136.6451  159.9149 H   0  0  0  0  0  0  0  0  0  0  0  0
  146.1315  135.8559  158.3771 H   0  0  0  0  0  0  0  0  0  0  0  0
  144.0414  134.9922  159.8196 H   0  0  0  0  0  0  0  0  0  0  0  0
  145.1581  133.7489  159.2301 H   0  0  0  0  0  0  0  0  0  0  0  0
  147.1935  133.2510  161.0650 H   0  0  0  0  0  0  0  0  0  0  0  0
  148.4074  134.6550  162.7660 H   0  0  0  0  0  0  0  0  0  0  0  0
  146.9032  133.9979  163.3909 H   0  0  0  0  0  0  0  0  0  0  0  0
  146.9800  135.6868  162.9147 H   0  0  0  0  0  0  0  0  0  0  0  0
  1  2  1  0  0  0  0
  1 29  1  0  0  0  0
  1 30  1  0  0  0  0
  1 31  1  0  0  0  0
  2  3  1  0  0  0  0
  2  4  1  0  0  0  0
  2 32  1  0  0  0  0
  3 33  1  0  0  0  0
  3 34  1  0  0  0  0
  3 35  1  0  0  0  0
  4  5  1  0  0  0  0
  4 36  1  0  0  0  0
  4 37  1  0  0  0  0
  5 11  1  0  0  0  0
  5  6  1  0  0  0  0
  5 38  1  0  0  0  0
  6  7  2  0  0  0  0
  6  8  1  0  0  0  0
  8  9  1  0  0  0  0
  8 39  1  0  0  0  0
  9 10  1  0  0  0  0
  9 40  1  0  0  0  0
  9 41  1  0  0  0  0
 10 11  1  0  0  0  0
 10 42  1  0  0  0  0
 10 43  1  0  0  0  0
 11 12  1  0  0  0  0
 12 17  1  0  0  0  0
 12 13  2  0  0  0  0
 13 14  1  0  0  0  0
 14 15  2  0  0  0  0
 14 44  1  0  0  0  0
 15 16  1  0  0  0  0
 16 20  1  0  0  0  0
 16 17  2  0  0  0  0
 17 18  1  0  0  0  0
 18 19  2  0  0  0  0
 19 20  1  0  0  0  0
 19 45  1  0  0  0  0
 20 21  1  0  0  0  0
 21 22  1  0  0  0  0
 21 46  1  0  0  0  0
 21 47  1  0  0  0  0
 22 27  1  0  0  0  0
 22 23  1  0  0  0  0
 22 24  1  0  0  0  0
 23 48  1  0  0  0  0
 24 25  1  0  0  0  0
 24 49  1  0  0  0  0
 24 50  1  0  0  0  0
 25 26  1  0  0  0  0
 25 51  1  0  0  0  0
 25 52  1  0  0  0  0
 26 27  1  0  0  0  0
 27 28  1  0  0  0  0
 27 53  1  0  0  0  0
 28 54  1  0  0  0  0
 28 55  1  0  0  0  0
 28 56  1  0  0  0  0
M  END
> <s_m_source_file>
AV-unprocessed.smi

> <i_m_source_file_index>
171

> <i_lp_mmshare_version>
43012

> <i_f3d_flags>
0

> <s_epik_input>
W0NIM11bQ0hdKFtDSDNdKVtDSDJdW0NAQEhdMUMoPU8pW05IXVtDSDJdW0NIMl1OMWMobltjSF1uMiljKGMyMyluW2NIXW4zW0NIMl1bQ0BAXTQoW09IXSlbQ0gyXVtDSDJdT1tDQEhdNFtDSDNd

> <s_epik_cmdline>
J2VwaWtfcHl0aG9uJywgJy1waCcsICc3LjAnLCAnLXRuJywgJzgnLCAnLW1hJywgJzIwMCcsICctbWV0YWxfYmluZGluZycsICctaW1hZScsICc8aW5maWxlLm1hZT4nLCAnLW9tYWUnLCAnPG91dGZpbGUubWFlPic=

> <r_lp_tautomer_probability>
1

> <r_epik_Ionization_Penalty>
0.000670584

> <r_epik_Ionization_Penalty_Charging>
0

> <r_epik_Ionization_Penalty_Neutral>
0.000670584

> <r_epik_State_Penalty>
0.000304767

> <r_epik_Charging_Adjusted_Penalty>
0.000304767

> <i_epik_Tot_Q>
0

> <i_epik_Tot_abs_Q>
0

> <r_epik_Metal_State_Penalty>
-0

> <b_epik_Metal_Only>
0

> <s_lp_Force_Field>
OPLS_2005

> <r_lp_Energy>
45.2633

> <b_lp_Chiralities_Consistent>
1

> <s_lp_Variant>
AV-unprocessed.smi:171-8

> <Gold.Version>
5.8.1

> <Gold.Id.Protein>
6NUR|6NUR_protein|mol2

> <Gold.PLP.Fitness>
36.8883

> <Gold.PLP.PLP>
-35.9877

> <Gold.PLP.part.hbond>
-2.0000

> <Gold.PLP.part.metal>
0.0000

> <Gold.PLP.part.buried>
-4.5664

> <Gold.PLP.part.nonpolar>
-30.0144

> <Gold.PLP.part.repulsive>
0.1676

> <Gold.PLP.ligand.clash>
0.0000

> <Gold.PLP.ligand.torsion>
1.2653

> <Gold.PLP.Chemscore.Hbond>
1.0197

> <Gold.PLP.Chemscore.CHOScore>
0.0000

> <Gold.PLP.Chemscore.Metal>
0.0000

> <Gold.Chemscore.Hbonds>
donor molecule, donor type, donor heavy atom, donor atom, acceptor molecule, acceptor atom, score
      P1  H  6934  6947       L1    15  0.01
      P1  H  7997  8009       L1     7  1.00

> <Gold.PLP.Chemscore.Internal.Correction>
0.3721

> <Gold.Rescore>
     Score         DG    S(hbond)    S(metal)    S(lipo)     H(rot)  DE(clash)    DE(int)     intcor
      8.71     -15.27       1.83        0.00      88.46       2.61       0.02       6.53       ----

> <Gold.Chemscore.Fitness>
8.7148

> <Gold.Chemscore.DG>
-15.2716

> <Gold.Chemscore.ZeroCoef>
-5.4800

> <Gold.Chemscore.Hbond>
1.8315

> <Gold.Chemscore.Metal>
0.0000

> <Gold.Chemscore.Lipo>
88.4558

> <Gold.Chemscore.Internal_Hbond>
0.0000

> <Gold.Chemscore.DEClash>
0.0233

> <Gold.Chemscore.DEInternal>
6.5335

> <Gold.Chemscore.Rot>
2.6074

> <Gold.Chemscore.Internal.Correction>
   9.000000E+99

> <Gold.Chemscore.Hbonds>
donor molecule, donor type, donor heavy atom, donor atom, acceptor molecule, acceptor atom, score
      P1  H  7997  8009       L1     7  1.00

> <Gold.Chemscore.Hbond.Weighted>
-6.1171

> <Gold.Chemscore.Metal.Weighted>
-0.0000

> <Gold.Chemscore.Lipo.Weighted>
-10.3493

> <Gold.Chemscore.Internal_Hbond.Weighted>
0.0000

> <Gold.Chemscore.DEClash.Weighted>
0.0233

> <Gold.Chemscore.DEInternal.Weighted>
6.5335

> <Gold.Chemscore.Rot.Weighted>
6.6748

> <Gold.Chemscore.Internal.Correction.Weighted>
   9.000000E+99

> <Gold.Protein.RotatedTorsions>
[ 6907 6896 6895 6894 ] final -123.78 input  -60.11 | X-H torsion
[ 7974 7965 7964 7962 ] final   69.95 input  175.53 | X-H torsion
[ 8008 7997 7996 7995 ] final -172.76 input   59.86 | X-H torsion
[ 10167 10162 10161 10158 ] final -138.72 input  -65.29 | X-H torsion
[ 10718 10713 10712 10709 ] final   36.95 input   66.30 | X-H torsion
[ 10763 10752 10751 10750 ] final    7.78 input  -60.55 | X-H torsion
[ 11005 11000 10999 10996 ] final   51.64 input  -57.11 | X-H torsion

> <Gold.Protein.ActiveResidues>
 VAL166  LYS551  ARG553  GLY616  TRP617  ASP618  TYR619  PRO620  LYS621  CYS622 
 ASP623  PHE694  ASN695  SER759  ASP760  ASP761  ALA762  ILE779  LEU786  VAL792 
 PHE793  MET794  SER795  GLU796  ALA797  LYS798  CYS799  TRP800  GLU811  SER814 

> <Gold.Protein.RotatedAtoms>
  150.8704  133.7513  159.2962 H   0  0  0  0  0  0  0  0  0  0  0  0  # atno 6907 bound_to 6896
  151.5127  135.1064  159.9867 H   0  0  0  0  0  0  0  0  0  0  0  0  # atno 6908 bound_to 6896
  152.4691  133.7944  159.6975 H   0  0  0  0  0  0  0  0  0  0  0  0  # atno 6909 bound_to 6896
  145.7841  139.2902  143.1248 H   0  0  0  0  0  0  0  0  0  0  0  0  # atno 7974 bound_to 7965
  155.9488  140.1122  157.0994 H   0  0  0  0  0  0  0  0  0  0  0  0  # atno 8008 bound_to 7997
  154.4105  140.1204  156.5091 H   0  0  0  0  0  0  0  0  0  0  0  0  # atno 8009 bound_to 7997
  155.6869  140.3473  155.4880 H   0  0  0  0  0  0  0  0  0  0  0  0  # atno 8010 bound_to 7997
  139.8450  143.7272  152.2661 H   0  0  0  0  0  0  0  0  0  0  0  0  # atno 10167 bound_to 10162
  157.3411  130.7548  149.6912 H   0  0  0  0  0  0  0  0  0  0  0  0  # atno 10718 bound_to 10713
  153.2324  135.6894  153.7875 H   0  0  0  0  0  0  0  0  0  0  0  0  # atno 10763 bound_to 10752
  153.7035  135.3293  155.3231 H   0  0  0  0  0  0  0  0  0  0  0  0  # atno 10764 bound_to 10752
  154.8319  135.4573  154.1214 H   0  0  0  0  0  0  0  0  0  0  0  0  # atno 10765 bound_to 10752
  140.0916  134.5202  155.8847 H   0  0  0  0  0  0  0  0  0  0  0  0  # atno 11005 bound_to 11000
  146.0044  140.8492  143.0002 LP  0  0  0  0  0  0  0  0  0  0  0  0  # atno 17320 bound_to 7965
  144.6792  140.2398  143.7345 LP  0  0  0  0  0  0  0  0  0  0  0  0  # atno 17321 bound_to 7965
  139.7521  144.7531  151.0490 LP  0  0  0  0  0  0  0  0  0  0  0  0  # atno 17342 bound_to 10162
  140.7794  143.4848  150.9971 LP  0  0  0  0  0  0  0  0  0  0  0  0  # atno 17343 bound_to 10162
  155.9708  130.4167  150.4245 LP  0  0  0  0  0  0  0  0  0  0  0  0  # atno 17370 bound_to 10713
  157.2293  131.0500  151.2501 LP  0  0  0  0  0  0  0  0  0  0  0  0  # atno 17371 bound_to 10713
  141.2079  133.6669  156.6339 LP  0  0  0  0  0  0  0  0  0  0  0  0  # atno 17394 bound_to 11000
  140.3344  134.7901  157.4351 LP  0  0  0  0  0  0  0  0  0  0  0  0  # atno 17395 bound_to 11000

$$$$
