AV-unprocessed.smi:2184|AV-procd|sdf|8874|dock9
  -GOLD-   2272012 73D 1   1.00000     0.00000
 Structure written by MMmdl.
 47 48  0  0  0  0  0  0  0  0  1 V2000
  148.4349  132.5445  153.9729 C   0  0  0  0  0  0  0  0  0  0  0  0
  150.0641  133.2680  154.3049 S   0  0  0  0  0  0  0  0  0  0  0  0
  149.5946  134.8930  154.9729 C   0  0  1  0  0  0  0  0  0  0  0  0
  149.0365  134.7378  156.3961 C   0  0  0  0  0  0  0  0  0  0  0  0
  150.7634  135.8856  154.9499 C   0  0  0  0  0  0  0  0  0  0  0  0
  151.7160  135.7414  155.7170 O   0  0  0  0  0  0  0  0  0  0  0  0
  150.6849  136.8846  154.0565 N   0  0  0  0  0  0  0  0  0  0  0  0
  151.6978  137.9182  153.8706 C   0  0  0  0  0  0  0  0  0  0  0  0
  151.7012  138.9686  154.9696 C   0  0  0  0  0  0  0  0  0  0  0  0
  150.7306  139.9884  154.9933 C   0  0  0  0  0  0  0  0  0  0  0  0
  150.7637  140.9404  156.0303 C   0  0  0  0  0  0  0  0  0  0  0  0
  151.7716  140.8464  157.0234 C   0  0  0  0  0  0  0  0  0  0  0  0
  151.8644  141.7651  158.0916 N   0  0  0  0  0  0  0  0  0  0  0  0
  152.7899  141.4794  159.1821 C   0  0  0  0  0  0  0  0  0  0  0  0
  152.4761  142.3667  160.3995 C   0  0  1  0  0  0  0  0  0  0  0  0
  153.5114  142.1930  161.5156 C   0  0  0  0  0  0  0  0  0  0  0  0
  152.4762  143.7380  160.0061 O   0  0  0  0  0  0  0  0  0  0  0  0
  151.5486  144.0616  158.9681 C   0  0  2  0  0  0  0  0  0  0  0  0
  150.0899  144.0237  159.4575 C   0  0  0  0  0  0  0  0  0  0  0  0
  151.8019  143.1796  157.7296 C   0  0  0  0  0  0  0  0  0  0  0  0
  152.7076  139.8672  156.9889 N   0  0  0  0  0  0  0  0  0  0  0  0
  152.6729  138.9606  155.9907 C   0  0  0  0  0  0  0  0  0  0  0  0
  148.5460  131.5172  153.6263 H   0  0  0  0  0  0  0  0  0  0  0  0
  147.9145  133.1097  153.2007 H   0  0  0  0  0  0  0  0  0  0  0  0
  147.8254  132.5404  154.8766 H   0  0  0  0  0  0  0  0  0  0  0  0
  148.7919  135.2794  154.3430 H   0  0  0  0  0  0  0  0  0  0  0  0
  148.7501  135.7020  156.8181 H   0  0  0  0  0  0  0  0  0  0  0  0
  149.7670  134.2835  157.0669 H   0  0  0  0  0  0  0  0  0  0  0  0
  148.1494  134.1042  156.3979 H   0  0  0  0  0  0  0  0  0  0  0  0
  149.8688  136.9304  153.4637 H   0  0  0  0  0  0  0  0  0  0  0  0
  152.6763  137.4380  153.8532 H   0  0  0  0  0  0  0  0  0  0  0  0
  151.5696  138.3917  152.8956 H   0  0  0  0  0  0  0  0  0  0  0  0
  149.9650  140.0406  154.2332 H   0  0  0  0  0  0  0  0  0  0  0  0
  150.0087  141.7117  156.0489 H   0  0  0  0  0  0  0  0  0  0  0  0
  152.7128  140.4325  159.4779 H   0  0  0  0  0  0  0  0  0  0  0  0
  153.8112  141.6522  158.8402 H   0  0  0  0  0  0  0  0  0  0  0  0
  151.4995  142.0997  160.8037 H   0  0  0  0  0  0  0  0  0  0  0  0
  153.5488  141.1589  161.8587 H   0  0  0  0  0  0  0  0  0  0  0  0
  153.2671  142.8192  162.3739 H   0  0  0  0  0  0  0  0  0  0  0  0
  154.5097  142.4694  161.1748 H   0  0  0  0  0  0  0  0  0  0  0  0
  151.7583  145.0937  158.6864 H   0  0  0  0  0  0  0  0  0  0  0  0
  149.4168  144.4075  158.6907 H   0  0  0  0  0  0  0  0  0  0  0  0
  149.9613  144.6408  160.3470 H   0  0  0  0  0  0  0  0  0  0  0  0
  149.7598  143.0136  159.6985 H   0  0  0  0  0  0  0  0  0  0  0  0
  152.7543  143.4535  157.2739 H   0  0  0  0  0  0  0  0  0  0  0  0
  151.0312  143.3776  156.9846 H   0  0  0  0  0  0  0  0  0  0  0  0
  153.4455  138.2062  156.0109 H   0  0  0  0  0  0  0  0  0  0  0  0
  1  2  1  0  0  0  0
  1 23  1  0  0  0  0
  1 24  1  0  0  0  0
  1 25  1  0  0  0  0
  2  3  1  0  0  0  0
  3  4  1  0  0  0  0
  3  5  1  0  0  0  0
  3 26  1  0  0  0  0
  4 27  1  0  0  0  0
  4 28  1  0  0  0  0
  4 29  1  0  0  0  0
  5  6  2  0  0  0  0
  5  7  1  0  0  0  0
  7  8  1  0  0  0  0
  7 30  1  0  0  0  0
  8  9  1  0  0  0  0
  8 31  1  0  0  0  0
  8 32  1  0  0  0  0
  9 22  1  0  0  0  0
  9 10  2  0  0  0  0
 10 11  1  0  0  0  0
 10 33  1  0  0  0  0
 11 12  2  0  0  0  0
 11 34  1  0  0  0  0
 12 13  1  0  0  0  0
 12 21  1  0  0  0  0
 13 20  1  0  0  0  0
 13 14  1  0  0  0  0
 14 15  1  0  0  0  0
 14 35  1  0  0  0  0
 14 36  1  0  0  0  0
 15 16  1  0  0  0  0
 15 17  1  0  0  0  0
 15 37  1  0  0  0  0
 16 38  1  0  0  0  0
 16 39  1  0  0  0  0
 16 40  1  0  0  0  0
 17 18  1  0  0  0  0
 18 19  1  0  0  0  0
 18 20  1  0  0  0  0
 18 41  1  0  0  0  0
 19 42  1  0  0  0  0
 19 43  1  0  0  0  0
 19 44  1  0  0  0  0
 20 45  1  0  0  0  0
 20 46  1  0  0  0  0
 21 22  2  0  0  0  0
 22 47  1  0  0  0  0
M  END
> <s_m_source_file>
AV-unprocessed.smi

> <i_m_source_file_index>
2184

> <i_lp_mmshare_version>
43012

> <i_f3d_flags>
0

> <s_epik_input>
W0NIM11TW0NASF0oW0NIM10pQyg9TylbTkhdW0NIMl1jMVtjSF1bY0hdYyhuW2NIXTEpTjJbQ0gyXVtDQEBIXShbQ0gzXSlPW0NAQEhdKFtDSDNdKVtDSDJdMg==

> <s_epik_cmdline>
J2VwaWtfcHl0aG9uJywgJy1waCcsICc3LjAnLCAnLXRuJywgJzgnLCAnLW1hJywgJzIwMCcsICctbWV0YWxfYmluZGluZycsICctaW1hZScsICc8aW5maWxlLm1hZT4nLCAnLW9tYWUnLCAnPG91dGZpbGUubWFlPic=

> <r_lp_tautomer_probability>
1

> <r_epik_Ionization_Penalty>
0.00551702

> <r_epik_Ionization_Penalty_Charging>
0

> <r_epik_Ionization_Penalty_Neutral>
0.00551702

> <r_epik_State_Penalty>
0.00403758

> <r_epik_Charging_Adjusted_Penalty>
0.00403758

> <i_epik_Tot_Q>
0

> <i_epik_Tot_abs_Q>
0

> <r_epik_Metal_State_Penalty>
-0

> <b_epik_Metal_Only>
0

> <s_lp_Force_Field>
OPLS_2005

> <r_lp_Energy>
17.8704

> <b_lp_Chiralities_Consistent>
1

> <s_lp_Variant>
AV-unprocessed.smi:2184-6

> <Gold.Version>
5.8.1

> <Gold.Id.Protein>
6NUR|6NUR_protein|mol2

> <Gold.PLP.Fitness>
50.3883

> <Gold.PLP.PLP>
-43.8652

> <Gold.PLP.part.hbond>
-4.0000

> <Gold.PLP.part.metal>
0.0000

> <Gold.PLP.part.buried>
-3.2646

> <Gold.PLP.part.nonpolar>
-36.4039

> <Gold.PLP.part.repulsive>
0.1250

> <Gold.PLP.ligand.clash>
0.0000

> <Gold.PLP.ligand.torsion>
0.8084

> <Gold.PLP.Chemscore.Hbond>
2.5632

> <Gold.PLP.Chemscore.CHOScore>
0.0000

> <Gold.PLP.Chemscore.Metal>
0.0000

> <Gold.Chemscore.Hbonds>
donor molecule, donor type, donor heavy atom, donor atom, acceptor molecule, acceptor atom, score
      L1  H     7    30       P1  7948  0.91
      P1  H  7997  8009       L1    21  0.63
      P1  H 10752 10765       L1     6  1.00

> <Gold.PLP.Chemscore.Internal.Correction>
0.4503

> <Gold.Rescore>
     Score         DG    S(hbond)    S(metal)    S(lipo)     H(rot)  DE(clash)    DE(int)     intcor
     19.33     -21.03       1.87        0.00     114.45       1.59       0.57       1.13       ----

> <Gold.Chemscore.Fitness>
19.3263

> <Gold.Chemscore.DG>
-21.0297

> <Gold.Chemscore.ZeroCoef>
-5.4800

> <Gold.Chemscore.Hbond>
1.8687

> <Gold.Chemscore.Metal>
0.0000

> <Gold.Chemscore.Lipo>
114.4514

> <Gold.Chemscore.Internal_Hbond>
0.0000

> <Gold.Chemscore.DEClash>
0.5714

> <Gold.Chemscore.DEInternal>
1.1320

> <Gold.Chemscore.Rot>
1.5947

> <Gold.Chemscore.Internal.Correction>
   9.000000E+99

> <Gold.Chemscore.Hbonds>
donor molecule, donor type, donor heavy atom, donor atom, acceptor molecule, acceptor atom, score
      L1  H     7    30       P1  7948  0.35
      P1  H  7997  8009       L1    21  0.06
      P1  H 10752 10765       L1     6  0.59

> <Gold.Chemscore.Hbond.Weighted>
-6.2413

> <Gold.Chemscore.Metal.Weighted>
-0.0000

> <Gold.Chemscore.Lipo.Weighted>
-13.3908

> <Gold.Chemscore.Internal_Hbond.Weighted>
0.0000

> <Gold.Chemscore.DEClash.Weighted>
0.5714

> <Gold.Chemscore.DEInternal.Weighted>
1.1320

> <Gold.Chemscore.Rot.Weighted>
4.0824

> <Gold.Chemscore.Internal.Correction.Weighted>
   9.000000E+99

> <Gold.Protein.RotatedTorsions>
[ 6907 6896 6895 6894 ] final  171.40 input  -60.11 | X-H torsion
[ 7974 7965 7964 7962 ] final  148.59 input  175.53 | X-H torsion
[ 8008 7997 7996 7995 ] final  161.66 input   59.86 | X-H torsion
[ 10167 10162 10161 10158 ] final  142.15 input  -65.29 | X-H torsion
[ 10718 10713 10712 10709 ] final -116.40 input   66.30 | X-H torsion
[ 10763 10752 10751 10750 ] final -167.22 input  -60.55 | X-H torsion
[ 11005 11000 10999 10996 ] final -111.46 input  -57.11 | X-H torsion

> <Gold.Protein.ActiveResidues>
 VAL166  LYS551  ARG553  GLY616  TRP617  ASP618  TYR619  PRO620  LYS621  CYS622 
 ASP623  PHE694  ASN695  SER759  ASP760  ASP761  ALA762  ILE779  LEU786  VAL792 
 PHE793  MET794  SER795  GLU796  ALA797  LYS798  CYS799  TRP800  GLU811  SER814 

> <Gold.Protein.RotatedAtoms>
  151.8008  133.3370  159.3526 H   0  0  0  0  0  0  0  0  0  0  0  0  # atno 6907 bound_to 6896
  150.7359  134.5756  159.5922 H   0  0  0  0  0  0  0  0  0  0  0  0  # atno 6908 bound_to 6896
  152.3144  134.7458  160.0380 H   0  0  0  0  0  0  0  0  0  0  0  0  # atno 6909 bound_to 6896
  144.8502  139.6173  143.5977 H   0  0  0  0  0  0  0  0  0  0  0  0  # atno 7974 bound_to 7965
  156.2087  140.1771  156.7743 H   0  0  0  0  0  0  0  0  0  0  0  0  # atno 8008 bound_to 7997
  154.5691  140.0685  156.8968 H   0  0  0  0  0  0  0  0  0  0  0  0  # atno 8009 bound_to 7997
  155.2705  140.3342  155.4268 H   0  0  0  0  0  0  0  0  0  0  0  0  # atno 8010 bound_to 7997
  139.5002  144.6126  151.6238 H   0  0  0  0  0  0  0  0  0  0  0  0  # atno 10167 bound_to 10162
  156.0961  130.6133  150.9031 H   0  0  0  0  0  0  0  0  0  0  0  0  # atno 10718 bound_to 10713
  154.6754  135.2946  154.9686 H   0  0  0  0  0  0  0  0  0  0  0  0  # atno 10763 bound_to 10752
  154.0699  135.6619  153.4827 H   0  0  0  0  0  0  0  0  0  0  0  0  # atno 10764 bound_to 10752
  153.0513  135.5172  154.7770 H   0  0  0  0  0  0  0  0  0  0  0  0  # atno 10765 bound_to 10752
  141.0733  133.9344  157.2442 H   0  0  0  0  0  0  0  0  0  0  0  0  # atno 11005 bound_to 11000
  146.2779  139.6799  142.9250 LP  0  0  0  0  0  0  0  0  0  0  0  0  # atno 17320 bound_to 7965
  145.4514  141.0428  143.2802 LP  0  0  0  0  0  0  0  0  0  0  0  0  # atno 17321 bound_to 7965
  140.5804  143.9955  150.6265 LP  0  0  0  0  0  0  0  0  0  0  0  0  # atno 17342 bound_to 10162
  140.3102  143.3203  152.0886 LP  0  0  0  0  0  0  0  0  0  0  0  0  # atno 17343 bound_to 10162
  157.6122  131.0935  150.8774 LP  0  0  0  0  0  0  0  0  0  0  0  0  # atno 17370 bound_to 10713
  156.8912  130.5213  149.5286 LP  0  0  0  0  0  0  0  0  0  0  0  0  # atno 17371 bound_to 10713
  139.9545  135.0168  156.9090 LP  0  0  0  0  0  0  0  0  0  0  0  0  # atno 17394 bound_to 11000
  140.5628  134.0519  155.7404 LP  0  0  0  0  0  0  0  0  0  0  0  0  # atno 17395 bound_to 11000

$$$$
