AV-unprocessed.smi:1295|AV-procd|sdf|5406|dock6
  -GOLD-   22720 4563D 1   1.00000     0.00000
 Structure written by MMmdl.
 43 44  0  0  0  0  0  0  0  0  1 V2000
  146.9169  142.6117  153.2833 C   0  0  0  0  0  0  0  0  0  0  0  0
  147.7977  142.0156  154.3598 C   0  0  0  0  0  0  0  0  0  0  0  0
  147.2332  142.0520  155.6241 N   0  0  0  0  0  0  0  0  0  0  0  0
  147.9646  141.5276  156.6751 C   0  0  0  0  0  0  0  0  0  0  0  0
  147.2739  141.6050  158.0261 C   0  0  0  0  0  0  0  0  0  0  0  0
  149.1987  140.9984  156.4769 C   0  0  0  0  0  0  0  0  0  0  0  0
  150.0383  140.4160  157.6125 C   0  0  0  0  0  0  0  0  0  0  0  0
  151.4459  140.9993  157.7562 C   0  0  0  0  0  0  0  0  0  0  0  0
  152.3717  140.5545  157.0780 O   0  0  0  0  0  0  0  0  0  0  0  0
  151.5867  141.9984  158.6410 N   0  0  0  0  0  0  0  0  0  0  0  0
  152.8187  142.7383  158.9220 C   0  0  1  0  0  0  0  0  0  0  0  0
  152.5533  144.2518  158.7945 C   0  0  0  0  0  0  0  0  0  0  0  0
  151.6618  144.7833  159.9304 C   0  0  0  0  0  0  0  0  0  0  0  0
  152.2502  144.4392  161.3068 C   0  0  0  0  0  0  0  0  0  0  0  0
  152.4980  142.9289  161.4493 C   0  0  0  0  0  0  0  0  0  0  0  0
  153.3984  142.3914  160.3177 C   0  0  1  0  0  0  0  0  0  0  0  0
  153.6951  140.8924  160.4955 C   0  0  0  0  0  0  0  0  0  0  0  0
  149.7529  140.9938  155.1023 C   0  0  0  0  0  0  0  0  0  0  0  0
  150.8700  140.5395  154.8592 O   0  0  0  0  0  0  0  0  0  0  0  0
  148.9670  141.5315  154.0700 N   0  0  0  0  0  0  0  0  0  0  0  0
  146.3208  142.4402  155.8159 H   0  0  0  0  0  0  0  0  0  0  0  0
  147.3326  142.4260  152.2921 H   0  0  0  0  0  0  0  0  0  0  0  0
  146.8290  143.6897  153.4210 H   0  0  0  0  0  0  0  0  0  0  0  0
  145.9185  142.1746  153.3199 H   0  0  0  0  0  0  0  0  0  0  0  0
  147.1247  140.6062  158.4361 H   0  0  0  0  0  0  0  0  0  0  0  0
  146.2972  142.0845  157.9509 H   0  0  0  0  0  0  0  0  0  0  0  0
  147.8750  142.1812  158.7301 H   0  0  0  0  0  0  0  0  0  0  0  0
  150.1277  139.3338  157.5148 H   0  0  0  0  0  0  0  0  0  0  0  0
  149.4957  140.5643  158.5469 H   0  0  0  0  0  0  0  0  0  0  0  0
  150.7660  142.2868  159.1538 H   0  0  0  0  0  0  0  0  0  0  0  0
  153.5689  142.4817  158.1721 H   0  0  0  0  0  0  0  0  0  0  0  0
  153.5051  144.7843  158.8108 H   0  0  0  0  0  0  0  0  0  0  0  0
  152.0995  144.4748  157.8279 H   0  0  0  0  0  0  0  0  0  0  0  0
  151.5470  145.8635  159.8361 H   0  0  0  0  0  0  0  0  0  0  0  0
  150.6602  144.3603  159.8443 H   0  0  0  0  0  0  0  0  0  0  0  0
  153.1884  144.9777  161.4474 H   0  0  0  0  0  0  0  0  0  0  0  0
  151.5777  144.7810  162.0939 H   0  0  0  0  0  0  0  0  0  0  0  0
  152.9586  142.7279  162.4172 H   0  0  0  0  0  0  0  0  0  0  0  0
  151.5439  142.4002  161.4496 H   0  0  0  0  0  0  0  0  0  0  0  0
  154.3563  142.9075  160.3989 H   0  0  0  0  0  0  0  0  0  0  0  0
  152.7825  140.2960  160.4898 H   0  0  0  0  0  0  0  0  0  0  0  0
  154.2027  140.7046  161.4419 H   0  0  0  0  0  0  0  0  0  0  0  0
  154.3402  140.5235  159.6978 H   0  0  0  0  0  0  0  0  0  0  0  0
  1 22  1  0  0  0  0
  1 23  1  0  0  0  0
  1 24  1  0  0  0  0
  1  2  1  0  0  0  0
  2  3  1  0  0  0  0
  2 20  2  0  0  0  0
  3  4  1  0  0  0  0
  3 21  1  0  0  0  0
  4  6  2  0  0  0  0
  4  5  1  0  0  0  0
  5 25  1  0  0  0  0
  5 26  1  0  0  0  0
  5 27  1  0  0  0  0
  6 18  1  0  0  0  0
  6  7  1  0  0  0  0
  7  8  1  0  0  0  0
  7 28  1  0  0  0  0
  7 29  1  0  0  0  0
  8  9  2  0  0  0  0
  8 10  1  0  0  0  0
 10 11  1  0  0  0  0
 10 30  1  0  0  0  0
 11 16  1  0  0  0  0
 11 12  1  0  0  0  0
 11 31  1  0  0  0  0
 12 13  1  0  0  0  0
 12 32  1  0  0  0  0
 12 33  1  0  0  0  0
 13 14  1  0  0  0  0
 13 34  1  0  0  0  0
 13 35  1  0  0  0  0
 14 15  1  0  0  0  0
 14 36  1  0  0  0  0
 14 37  1  0  0  0  0
 15 16  1  0  0  0  0
 15 38  1  0  0  0  0
 15 39  1  0  0  0  0
 16 17  1  0  0  0  0
 16 40  1  0  0  0  0
 17 41  1  0  0  0  0
 17 42  1  0  0  0  0
 17 43  1  0  0  0  0
 18 19  2  0  0  0  0
 18 20  1  0  0  0  0
M  END
> <s_m_source_file>
AV-unprocessed.smi

> <i_m_source_file_index>
1295

> <i_lp_mmshare_version>
43012

> <i_f3d_flags>
0

> <s_epik_input>
W0NIM11jMW5jKFtDSDNdKWMoYyg9TylbbkhdMSlbQ0gyXUMoPU8pW05IXVtDQEBIXTJbQ0gyXVtDSDJdW0NIMl1bQ0gyXVtDQEhdMltDSDNd

> <s_epik_cmdline>
J2VwaWtfcHl0aG9uJywgJy1waCcsICc3LjAnLCAnLXRuJywgJzgnLCAnLW1hJywgJzIwMCcsICctbWV0YWxfYmluZGluZycsICctaW1hZScsICc8aW5maWxlLm1hZT4nLCAnLW9tYWUnLCAnPG91dGZpbGUubWFlPic=

> <r_lp_tautomer_probability>
0.156392

> <r_epik_Ionization_Penalty>
0.0136057

> <r_epik_Ionization_Penalty_Charging>
0.0134742

> <r_epik_Ionization_Penalty_Neutral>
0.000131572

> <r_epik_State_Penalty>
1.15342

> <r_epik_Charging_Adjusted_Penalty>
1.16689

> <i_epik_Tot_Q>
0

> <i_epik_Tot_abs_Q>
0

> <r_epik_Metal_State_Penalty>
1.31351

> <b_epik_Metal_Only>
0

> <s_lp_Force_Field>
OPLS_2005

> <r_lp_Energy>
15.3468

> <b_lp_Chiralities_Consistent>
1

> <s_lp_Variant>
AV-unprocessed.smi:1295-6

> <Gold.Version>
5.8.1

> <Gold.Id.Protein>
6NUR|6NUR_protein|mol2

> <Gold.PLP.Fitness>
47.7554

> <Gold.PLP.PLP>
-41.9706

> <Gold.PLP.part.hbond>
-4.0158

> <Gold.PLP.part.metal>
0.0000

> <Gold.PLP.part.buried>
-4.0693

> <Gold.PLP.part.nonpolar>
-32.3031

> <Gold.PLP.part.repulsive>
0.3750

> <Gold.PLP.ligand.clash>
0.0000

> <Gold.PLP.ligand.torsion>
0.4574

> <Gold.PLP.Chemscore.Hbond>
2.2303

> <Gold.PLP.Chemscore.CHOScore>
0.0000

> <Gold.PLP.Chemscore.Metal>
0.0000

> <Gold.Chemscore.Hbonds>
donor molecule, donor type, donor heavy atom, donor atom, acceptor molecule, acceptor atom, score
      P1  H  7989  7998       L1    19  1.00
      P1  H  7997  8008       L1     9  0.73
      P1  H  8011  8017       L1    20  0.52

> <Gold.PLP.Chemscore.Internal.Correction>
0.0086

> <Gold.Rescore>
     Score         DG    S(hbond)    S(metal)    S(lipo)     H(rot)  DE(clash)    DE(int)     intcor
     15.53     -20.58       2.08        0.00     101.98       1.48       1.65       3.40       ----

> <Gold.Chemscore.Fitness>
15.5285

> <Gold.Chemscore.DG>
-20.5763

> <Gold.Chemscore.ZeroCoef>
-5.4800

> <Gold.Chemscore.Hbond>
2.0821

> <Gold.Chemscore.Metal>
0.0000

> <Gold.Chemscore.Lipo>
101.9760

> <Gold.Chemscore.Internal_Hbond>
0.0000

> <Gold.Chemscore.DEClash>
1.6455

> <Gold.Chemscore.DEInternal>
3.4023

> <Gold.Chemscore.Rot>
1.4801

> <Gold.Chemscore.Internal.Correction>
   9.000000E+99

> <Gold.Chemscore.Hbonds>
donor molecule, donor type, donor heavy atom, donor atom, acceptor molecule, acceptor atom, score
      P1  H  7989  7998       L1    19  0.92
      P1  H  7997  8008       L1     9  0.70
      P1  H  8011  8017       L1    20  0.42

> <Gold.Chemscore.Hbond.Weighted>
-6.9543

> <Gold.Chemscore.Metal.Weighted>
-0.0000

> <Gold.Chemscore.Lipo.Weighted>
-11.9312

> <Gold.Chemscore.Internal_Hbond.Weighted>
0.0000

> <Gold.Chemscore.DEClash.Weighted>
1.6455

> <Gold.Chemscore.DEInternal.Weighted>
3.4023

> <Gold.Chemscore.Rot.Weighted>
3.7891

> <Gold.Chemscore.Internal.Correction.Weighted>
   9.000000E+99

> <Gold.Protein.RotatedTorsions>
[ 6907 6896 6895 6894 ] final -118.12 input  -60.11 | X-H torsion
[ 7974 7965 7964 7962 ] final   78.97 input  175.53 | X-H torsion
[ 8008 7997 7996 7995 ] final  -60.17 input   59.86 | X-H torsion
[ 10167 10162 10161 10158 ] final   -0.44 input  -65.29 | X-H torsion
[ 10718 10713 10712 10709 ] final   90.36 input   66.30 | X-H torsion
[ 10763 10752 10751 10750 ] final  -24.67 input  -60.55 | X-H torsion
[ 11005 11000 10999 10996 ] final -125.22 input  -57.11 | X-H torsion

> <Gold.Protein.ActiveResidues>
 VAL166  LYS551  ARG553  GLY616  TRP617  ASP618  TYR619  PRO620  LYS621  CYS622 
 ASP623  PHE694  ASN695  SER759  ASP760  ASP761  ALA762  ILE779  LEU786  VAL792 
 PHE793  MET794  SER795  GLU796  ALA797  LYS798  CYS799  TRP800  GLU811  SER814 

> <Gold.Protein.RotatedAtoms>
  150.8193  133.8281  159.3146 H   0  0  0  0  0  0  0  0  0  0  0  0  # atno 6907 bound_to 6896
  151.6044  135.1043  160.0077 H   0  0  0  0  0  0  0  0  0  0  0  0  # atno 6908 bound_to 6896
  152.4283  133.7192  159.6580 H   0  0  0  0  0  0  0  0  0  0  0  0  # atno 6909 bound_to 6896
  145.6702  139.2495  143.1873 H   0  0  0  0  0  0  0  0  0  0  0  0  # atno 7974 bound_to 7965
  154.4386  140.1045  156.6231 H   0  0  0  0  0  0  0  0  0  0  0  0  # atno 8008 bound_to 7997
  155.5686  140.3489  155.4491 H   0  0  0  0  0  0  0  0  0  0  0  0  # atno 8009 bound_to 7997
  156.0406  140.1281  157.0149 H   0  0  0  0  0  0  0  0  0  0  0  0  # atno 8010 bound_to 7997
  140.6767  143.6894  150.8040 H   0  0  0  0  0  0  0  0  0  0  0  0  # atno 10167 bound_to 10162
  157.6958  131.0367  150.3565 H   0  0  0  0  0  0  0  0  0  0  0  0  # atno 10718 bound_to 10713
  153.6874  135.6963  153.5100 H   0  0  0  0  0  0  0  0  0  0  0  0  # atno 10763 bound_to 10752
  153.2439  135.4297  155.0726 H   0  0  0  0  0  0  0  0  0  0  0  0  # atno 10764 bound_to 10752
  154.8382  135.3514  154.6417 H   0  0  0  0  0  0  0  0  0  0  0  0  # atno 10765 bound_to 10752
  140.9779  134.0714  157.3798 H   0  0  0  0  0  0  0  0  0  0  0  0  # atno 11005 bound_to 11000
  146.1052  140.7496  142.9530 LP  0  0  0  0  0  0  0  0  0  0  0  0  # atno 17320 bound_to 7965
  144.7059  140.3850  143.7118 LP  0  0  0  0  0  0  0  0  0  0  0  0  # atno 17321 bound_to 7965
  140.0588  143.5175  152.2638 LP  0  0  0  0  0  0  0  0  0  0  0  0  # atno 17342 bound_to 10162
  139.6064  144.7597  151.3051 LP  0  0  0  0  0  0  0  0  0  0  0  0  # atno 17343 bound_to 10162
  156.4007  130.3915  149.6962 LP  0  0  0  0  0  0  0  0  0  0  0  0  # atno 17370 bound_to 10713
  156.4280  130.7801  151.2820 LP  0  0  0  0  0  0  0  0  0  0  0  0  # atno 17371 bound_to 10713
  139.8938  135.0132  156.6918 LP  0  0  0  0  0  0  0  0  0  0  0  0  # atno 17394 bound_to 11000
  140.7231  133.9124  155.8160 LP  0  0  0  0  0  0  0  0  0  0  0  0  # atno 17395 bound_to 11000

$$$$
