AV-unprocessed.smi:1244|AV-procd|sdf|5232|dock6
  -GOLD-   22720 4333D 1   1.00000     0.00000
 Structure written by MMmdl.
 56 58  0  0  0  0  0  0  0  0  3 V2000
  144.9101  137.2718  153.1610 C   0  0  0  0  0  0  0  0  0  0  0  0
  146.3958  137.0744  153.4818 C   0  0  1  0  0  0  0  0  0  0  0  0
  147.1350  138.4144  153.6544 C   0  0  0  0  0  0  0  0  0  0  0  0
  148.5495  138.1848  154.0394 N   0  3  1  0  0  0  0  0  0  0  0  0
  149.3317  139.4382  154.1801 C   0  0  0  0  0  0  0  0  0  0  0  0
  150.7249  139.1914  154.7903 C   0  0  0  0  0  0  0  0  0  0  0  0
  150.9151  139.9409  156.0271 N   0  0  0  0  0  0  0  0  0  0  0  0
  151.9476  139.7756  156.8664 C   0  0  0  0  0  0  0  0  0  0  0  0
  152.8756  138.9948  156.6553 O   0  0  0  0  0  0  0  0  0  0  0  0
  151.8228  140.5473  157.9591 N   0  0  0  0  0  0  0  0  0  0  0  0
  152.6763  140.5795  159.0980 C   0  0  0  0  0  0  0  0  0  0  0  0
  153.4329  139.4408  159.4761 C   0  0  0  0  0  0  0  0  0  0  0  0
  154.2527  139.4891  160.6194 C   0  0  0  0  0  0  0  0  0  0  0  0
  154.3074  140.6781  161.3666 C   0  0  0  0  0  0  0  0  0  0  0  0
  153.5915  141.7505  160.9697 N   0  3  0  0  0  0  0  0  0  0  0  0
  152.7959  141.7712  159.8710 C   0  0  0  0  0  0  0  0  0  0  0  0
  152.1120  142.9719  159.5746 N   0  0  0  0  0  0  0  0  0  0  0  0
  151.9945  144.0232  160.5784 C   0  0  0  0  0  0  0  0  0  0  0  0
  151.5222  145.2535  159.8082 C   0  0  0  0  0  0  0  0  0  0  0  0
  152.2289  145.0918  158.4654 C   0  0  0  0  0  0  0  0  0  0  0  0
  152.2692  143.5743  158.2549 C   0  0  0  0  0  0  0  0  0  0  0  0
  148.6198  137.3332  155.2503 C   0  0  0  0  0  0  0  0  0  0  0  0
  147.8401  136.0214  155.0362 C   0  0  1  0  0  0  0  0  0  0  0  0
  147.8212  135.1473  156.2949 C   0  0  0  0  0  0  0  0  0  0  0  0
  146.4943  136.3309  154.6915 O   0  0  0  0  0  0  0  0  0  0  0  0
  144.7789  137.8385  152.2387 H   0  0  0  0  0  0  0  0  0  0  0  0
  144.4013  137.8113  153.9604 H   0  0  0  0  0  0  0  0  0  0  0  0
  144.4076  136.3125  153.0348 H   0  0  0  0  0  0  0  0  0  0  0  0
  146.8527  136.5042  152.6707 H   0  0  0  0  0  0  0  0  0  0  0  0
  147.0809  138.9765  152.7227 H   0  0  0  0  0  0  0  0  0  0  0  0
  146.6430  139.0177  154.4194 H   0  0  0  0  0  0  0  0  0  0  0  0
  149.4057  139.9320  153.2101 H   0  0  0  0  0  0  0  0  0  0  0  0
  148.7936  140.1258  154.8344 H   0  0  0  0  0  0  0  0  0  0  0  0
  150.8479  138.1314  155.0141 H   0  0  0  0  0  0  0  0  0  0  0  0
  151.5204  139.4531  154.0920 H   0  0  0  0  0  0  0  0  0  0  0  0
  150.1955  140.6044  156.2750 H   0  0  0  0  0  0  0  0  0  0  0  0
  150.9607  141.0656  158.0435 H   0  0  0  0  0  0  0  0  0  0  0  0
  153.3982  138.5278  158.9008 H   0  0  0  0  0  0  0  0  0  0  0  0
  154.8280  138.6254  160.9191 H   0  0  0  0  0  0  0  0  0  0  0  0
  154.9028  140.8067  162.2589 H   0  0  0  0  0  0  0  0  0  0  0  0
  151.2940  143.7450  161.3666 H   0  0  0  0  0  0  0  0  0  0  0  0
  152.9646  144.2266  161.0340 H   0  0  0  0  0  0  0  0  0  0  0  0
  150.4412  145.2143  159.6673 H   0  0  0  0  0  0  0  0  0  0  0  0
  151.7663  146.1897  160.3110 H   0  0  0  0  0  0  0  0  0  0  0  0
  151.7267  145.6185  157.6535 H   0  0  0  0  0  0  0  0  0  0  0  0
  153.2459  145.4796  158.5389 H   0  0  0  0  0  0  0  0  0  0  0  0
  153.1959  143.2657  157.7692 H   0  0  0  0  0  0  0  0  0  0  0  0
  151.4344  143.2642  157.6261 H   0  0  0  0  0  0  0  0  0  0  0  0
  149.6618  137.1063  155.4805 H   0  0  0  0  0  0  0  0  0  0  0  0
  148.2142  137.8797  156.1039 H   0  0  0  0  0  0  0  0  0  0  0  0
  148.2955  135.4507  154.2248 H   0  0  0  0  0  0  0  0  0  0  0  0
  148.8314  134.8653  156.5927 H   0  0  0  0  0  0  0  0  0  0  0  0
  147.2578  134.2297  156.1234 H   0  0  0  0  0  0  0  0  0  0  0  0
  147.3589  135.6697  157.1328 H   0  0  0  0  0  0  0  0  0  0  0  0
  148.9796  137.6540  153.2953 H   0  0  0  0  0  0  0  0  0  0  0  0
  153.6592  142.6015  161.5283 H   0  0  0  0  0  0  0  0  0  0  0  0
  1  2  1  0  0  0  0
  1 26  1  0  0  0  0
  1 27  1  0  0  0  0
  1 28  1  0  0  0  0
  2 25  1  0  0  0  0
  2  3  1  0  0  0  0
  2 29  1  0  0  0  0
  3  4  1  0  0  0  0
  3 30  1  0  0  0  0
  3 31  1  0  0  0  0
  4  5  1  0  0  0  0
  4 22  1  0  0  0  0
  4 55  1  0  0  0  0
  5  6  1  0  0  0  0
  5 32  1  0  0  0  0
  5 33  1  0  0  0  0
  6  7  1  0  0  0  0
  6 34  1  0  0  0  0
  6 35  1  0  0  0  0
  7  8  1  0  0  0  0
  7 36  1  0  0  0  0
  8  9  2  0  0  0  0
  8 10  1  0  0  0  0
 10 11  1  0  0  0  0
 10 37  1  0  0  0  0
 11 16  1  0  0  0  0
 11 12  2  0  0  0  0
 12 13  1  0  0  0  0
 12 38  1  0  0  0  0
 13 14  2  0  0  0  0
 13 39  1  0  0  0  0
 14 15  1  0  0  0  0
 14 40  1  0  0  0  0
 15 16  2  0  0  0  0
 15 56  1  0  0  0  0
 16 17  1  0  0  0  0
 17 21  1  0  0  0  0
 17 18  1  0  0  0  0
 18 19  1  0  0  0  0
 18 41  1  0  0  0  0
 18 42  1  0  0  0  0
 19 20  1  0  0  0  0
 19 43  1  0  0  0  0
 19 44  1  0  0  0  0
 20 21  1  0  0  0  0
 20 45  1  0  0  0  0
 20 46  1  0  0  0  0
 21 47  1  0  0  0  0
 21 48  1  0  0  0  0
 22 23  1  0  0  0  0
 22 49  1  0  0  0  0
 22 50  1  0  0  0  0
 23 24  1  0  0  0  0
 23 25  1  0  0  0  0
 23 51  1  0  0  0  0
 24 52  1  0  0  0  0
 24 53  1  0  0  0  0
 24 54  1  0  0  0  0
M  CHG  1   4   1
M  CHG  1  15   1
M  END
> <s_m_source_file>
AV-unprocessed.smi

> <i_m_source_file_index>
1244

> <i_lp_mmshare_version>
43012

> <i_f3d_flags>
0

> <s_epik_input>
W0NIM11bQ0BASF0xW0NIMl1OKFtDSDJdW0NASF0oTzEpW0NIM10pW0NIMl1bQ0gyXVtOSF1DKD1PKVtOSF1jMltjSF1bY0hdW2NIXW5jMk4zW0NIMl1bQ0gyXVtDSDJdW0NIMl0z

> <s_epik_cmdline>
J2VwaWtfcHl0aG9uJywgJy1waCcsICc3LjAnLCAnLXRuJywgJzgnLCAnLW1hJywgJzIwMCcsICctbWV0YWxfYmluZGluZycsICctaW1hZScsICc8aW5maWxlLm1hZT4nLCAnLW9tYWUnLCAnPG91dGZpbGUubWFlPic=

> <r_lp_tautomer_probability>
0.999994

> <r_epik_Ionization_Penalty>
1.81601

> <r_epik_Ionization_Penalty_Charging>
1.81599

> <r_epik_Ionization_Penalty_Neutral>
2.01972e-05

> <r_epik_State_Penalty>
1.85672

> <r_epik_Charging_Adjusted_Penalty>
3.6727

> <i_epik_Tot_Q>
2

> <i_epik_Tot_abs_Q>
2

> <r_epik_Metal_State_Penalty>
1.93796

> <b_epik_Metal_Only>
0

> <s_lp_Force_Field>
OPLS_2005

> <r_lp_Energy>
51.4993

> <b_lp_Chiralities_Consistent>
1

> <s_lp_Variant>
AV-unprocessed.smi:1244-12

> <Gold.Version>
5.8.1

> <Gold.Id.Protein>
6NUR|6NUR_protein|mol2

> <Gold.PLP.Fitness>
49.4155

> <Gold.PLP.PLP>
-41.8071

> <Gold.PLP.part.hbond>
-2.0000

> <Gold.PLP.part.metal>
0.0000

> <Gold.PLP.part.buried>
-5.9713

> <Gold.PLP.part.nonpolar>
-34.4572

> <Gold.PLP.part.repulsive>
0.2737

> <Gold.PLP.ligand.clash>
0.0000

> <Gold.PLP.ligand.torsion>
0.8783

> <Gold.PLP.Chemscore.Hbond>
2.9825

> <Gold.PLP.Chemscore.CHOScore>
0.0000

> <Gold.PLP.Chemscore.Metal>
0.0000

> <Gold.Chemscore.Hbonds>
donor molecule, donor type, donor heavy atom, donor atom, acceptor molecule, acceptor atom, score
      L1  H     4    55       P1  7948  2.00
      P1  H  7997  8010       L1     9  1.00

> <Gold.PLP.Chemscore.Internal.Correction>
0.4175

> <Gold.Rescore>
     Score         DG    S(hbond)    S(metal)    S(lipo)     H(rot)  DE(clash)    DE(int)     intcor
     17.17     -20.01       1.95        0.00     104.16       1.63       0.06       2.78       ----

> <Gold.Chemscore.Fitness>
17.1743

> <Gold.Chemscore.DG>
-20.0142

> <Gold.Chemscore.ZeroCoef>
-5.4800

> <Gold.Chemscore.Hbond>
1.9516

> <Gold.Chemscore.Metal>
0.0000

> <Gold.Chemscore.Lipo>
104.1600

> <Gold.Chemscore.Internal_Hbond>
0.0000

> <Gold.Chemscore.DEClash>
0.0554

> <Gold.Chemscore.DEInternal>
2.7845

> <Gold.Chemscore.Rot>
1.6293

> <Gold.Chemscore.Internal.Correction>
   9.000000E+99

> <Gold.Chemscore.Hbonds>
donor molecule, donor type, donor heavy atom, donor atom, acceptor molecule, acceptor atom, score
      L1  H     4    55       P1  7948  0.94
      P1  H  7997  8010       L1     9  0.45

> <Gold.Chemscore.Hbond.Weighted>
-6.5184

> <Gold.Chemscore.Metal.Weighted>
-0.0000

> <Gold.Chemscore.Lipo.Weighted>
-12.1867

> <Gold.Chemscore.Internal_Hbond.Weighted>
0.0000

> <Gold.Chemscore.DEClash.Weighted>
0.0554

> <Gold.Chemscore.DEInternal.Weighted>
2.7845

> <Gold.Chemscore.Rot.Weighted>
4.1709

> <Gold.Chemscore.Internal.Correction.Weighted>
   9.000000E+99

> <Gold.Protein.RotatedTorsions>
[ 6907 6896 6895 6894 ] final  150.83 input  -60.11 | X-H torsion
[ 7974 7965 7964 7962 ] final  -46.21 input  175.53 | X-H torsion
[ 8008 7997 7996 7995 ] final   62.64 input   59.86 | X-H torsion
[ 10167 10162 10161 10158 ] final   99.21 input  -65.29 | X-H torsion
[ 10718 10713 10712 10709 ] final  113.89 input   66.30 | X-H torsion
[ 10763 10752 10751 10750 ] final   43.22 input  -60.55 | X-H torsion
[ 11005 11000 10999 10996 ] final  -55.10 input  -57.11 | X-H torsion

> <Gold.Protein.ActiveResidues>
 VAL166  LYS551  ARG553  GLY616  TRP617  ASP618  TYR619  PRO620  LYS621  CYS622 
 ASP623  PHE694  ASN695  SER759  ASP760  ASP761  ALA762  ILE779  LEU786  VAL792 
 PHE793  MET794  SER795  GLU796  ALA797  LYS798  CYS799  TRP800  GLU811  SER814 

> <Gold.Protein.RotatedAtoms>
  152.1091  133.4291  159.4622 H   0  0  0  0  0  0  0  0  0  0  0  0  # atno 6907 bound_to 6896
  150.6866  134.2670  159.4581 H   0  0  0  0  0  0  0  0  0  0  0  0  # atno 6908 bound_to 6896
  152.0537  134.9637  160.0625 H   0  0  0  0  0  0  0  0  0  0  0  0  # atno 6909 bound_to 6896
  145.9742  140.7351  142.9395 H   0  0  0  0  0  0  0  0  0  0  0  0  # atno 7974 bound_to 7965
  155.6175  140.3495  155.4641 H   0  0  0  0  0  0  0  0  0  0  0  0  # atno 8008 bound_to 7997
  156.0106  140.1232  157.0482 H   0  0  0  0  0  0  0  0  0  0  0  0  # atno 8009 bound_to 7997
  154.4279  140.1082  156.5810 H   0  0  0  0  0  0  0  0  0  0  0  0  # atno 8010 bound_to 7997
  139.7638  144.6945  151.0254 H   0  0  0  0  0  0  0  0  0  0  0  0  # atno 10167 bound_to 10162
  157.6312  131.0990  150.7107 H   0  0  0  0  0  0  0  0  0  0  0  0  # atno 10718 bound_to 10713
  152.9865  135.6108  154.3077 H   0  0  0  0  0  0  0  0  0  0  0  0  # atno 10763 bound_to 10752
  154.2794  135.2777  155.2705 H   0  0  0  0  0  0  0  0  0  0  0  0  # atno 10764 bound_to 10752
  154.5051  135.5856  153.6618 H   0  0  0  0  0  0  0  0  0  0  0  0  # atno 10765 bound_to 10752
  141.1058  133.6613  156.4419 H   0  0  0  0  0  0  0  0  0  0  0  0  # atno 11005 bound_to 11000
  144.6844  140.2800  143.7293 LP  0  0  0  0  0  0  0  0  0  0  0  0  # atno 17320 bound_to 7965
  145.7862  139.1910  143.2129 LP  0  0  0  0  0  0  0  0  0  0  0  0  # atno 17321 bound_to 7965
  140.7809  143.4667  151.0203 LP  0  0  0  0  0  0  0  0  0  0  0  0  # atno 17342 bound_to 10162
  139.8352  143.7637  152.3180 LP  0  0  0  0  0  0  0  0  0  0  0  0  # atno 17343 bound_to 10162
  156.7446  130.4749  149.5470 LP  0  0  0  0  0  0  0  0  0  0  0  0  # atno 17370 bound_to 10713
  156.1517  130.6315  151.0605 LP  0  0  0  0  0  0  0  0  0  0  0  0  # atno 17371 bound_to 10713
  140.4906  134.6579  157.5209 LP  0  0  0  0  0  0  0  0  0  0  0  0  # atno 17394 bound_to 11000
  139.9927  134.6959  155.9662 LP  0  0  0  0  0  0  0  0  0  0  0  0  # atno 17395 bound_to 11000

$$$$
