AV-unprocessed.smi:475|AV-procd|sdf|2668|dock5
  -GOLD-   2262023 83D 1   1.00000     0.00000
 Structure written by MMmdl.
 40 42  0  0  0  0  0  0  0  0  2 V2000
  153.2328  138.5597  154.6940 C   0  0  0  0  0  0  0  0  0  0  0  0
  153.1210  139.1036  155.9970 O   0  0  0  0  0  0  0  0  0  0  0  0
  151.7952  139.4975  156.3105 C   0  0  0  0  0  0  0  0  0  0  0  0
  151.7427  140.0726  157.7332 C   0  0  0  0  0  0  0  0  0  0  0  0
  151.3343  141.4851  157.7484 N   0  0  0  0  0  0  0  0  0  0  0  0
  150.5528  142.1827  156.8780 C   0  0  0  0  0  0  0  0  0  0  0  0
  149.7872  141.5430  155.4241 S   0  0  0  0  0  0  0  0  0  0  0  0
  148.4309  140.4855  156.0139 C   0  0  0  0  0  0  0  0  0  0  0  0
  147.1862  141.2814  156.4205 C   0  0  0  0  0  0  0  0  0  0  0  0
  146.7252  141.1997  157.5598 O   0  0  0  0  0  0  0  0  0  0  0  0
  146.5764  142.1275  155.3998 C   0  0  0  0  0  0  0  0  0  0  0  0
  146.8690  142.3413  154.0794 C   0  0  0  0  0  0  0  0  0  0  0  0
  145.9253  143.2840  153.5715 C   0  0  0  0  0  0  0  0  0  0  0  0
  145.0790  143.6245  154.5908 C   0  0  0  0  0  0  0  0  0  0  0  0
  145.4839  142.9151  155.7011 N   0  0  0  0  0  0  0  0  0  0  0  0
  150.4682  143.4636  157.3324 N   0  3  0  0  0  0  0  0  0  0  0  0
  151.2026  143.5882  158.5130 C   0  0  0  0  0  0  0  0  0  0  0  0
  151.4148  144.6863  159.3409 C   0  0  0  0  0  0  0  0  0  0  0  0
  152.2177  144.4736  160.4808 C   0  0  0  0  0  0  0  0  0  0  0  0
  152.7726  143.2084  160.7626 C   0  0  0  0  0  0  0  0  0  0  0  0
  152.5519  142.1027  159.9152 C   0  0  0  0  0  0  0  0  0  0  0  0
  151.7596  142.3211  158.7882 C   0  0  0  0  0  0  0  0  0  0  0  0
  145.0444  142.9625  156.6097 H   0  0  0  0  0  0  0  0  0  0  0  0
  154.2678  138.2758  154.5036 H   0  0  0  0  0  0  0  0  0  0  0  0
  152.9382  139.2869  153.9362 H   0  0  0  0  0  0  0  0  0  0  0  0
  152.6137  137.6684  154.5841 H   0  0  0  0  0  0  0  0  0  0  0  0
  151.4504  140.2478  155.5975 H   0  0  0  0  0  0  0  0  0  0  0  0
  151.1240  138.6407  156.2323 H   0  0  0  0  0  0  0  0  0  0  0  0
  151.0683  139.4949  158.3652 H   0  0  0  0  0  0  0  0  0  0  0  0
  152.7269  140.0073  158.1979 H   0  0  0  0  0  0  0  0  0  0  0  0
  148.1640  139.7778  155.2289 H   0  0  0  0  0  0  0  0  0  0  0  0
  148.7775  139.9095  156.8721 H   0  0  0  0  0  0  0  0  0  0  0  0
  147.6739  141.8734  153.5320 H   0  0  0  0  0  0  0  0  0  0  0  0
  145.8726  143.6716  152.5647 H   0  0  0  0  0  0  0  0  0  0  0  0
  144.2352  144.2976  154.6312 H   0  0  0  0  0  0  0  0  0  0  0  0
  150.9887  145.6559  159.1289 H   0  0  0  0  0  0  0  0  0  0  0  0
  152.4098  145.2967  161.1539 H   0  0  0  0  0  0  0  0  0  0  0  0
  153.3798  143.0822  161.6474 H   0  0  0  0  0  0  0  0  0  0  0  0
  152.9777  141.1371  160.1442 H   0  0  0  0  0  0  0  0  0  0  0  0
  149.9456  144.1957  156.8695 H   0  0  0  0  0  0  0  0  0  0  0  0
  1  2  1  0  0  0  0
  1 24  1  0  0  0  0
  1 25  1  0  0  0  0
  1 26  1  0  0  0  0
  2  3  1  0  0  0  0
  3  4  1  0  0  0  0
  3 27  1  0  0  0  0
  3 28  1  0  0  0  0
  4  5  1  0  0  0  0
  4 29  1  0  0  0  0
  4 30  1  0  0  0  0
  5 22  1  0  0  0  0
  5  6  1  0  0  0  0
  6  7  1  0  0  0  0
  6 16  2  0  0  0  0
  7  8  1  0  0  0  0
  8  9  1  0  0  0  0
  8 31  1  0  0  0  0
  8 32  1  0  0  0  0
  9 10  2  0  0  0  0
  9 11  1  0  0  0  0
 11 15  1  0  0  0  0
 11 12  2  0  0  0  0
 12 13  1  0  0  0  0
 12 33  1  0  0  0  0
 13 14  2  0  0  0  0
 13 34  1  0  0  0  0
 14 15  1  0  0  0  0
 14 35  1  0  0  0  0
 15 23  1  0  0  0  0
 16 17  1  0  0  0  0
 16 40  1  0  0  0  0
 17 22  2  0  0  0  0
 17 18  1  0  0  0  0
 18 19  2  0  0  0  0
 18 36  1  0  0  0  0
 19 20  1  0  0  0  0
 19 37  1  0  0  0  0
 20 21  2  0  0  0  0
 20 38  1  0  0  0  0
 21 22  1  0  0  0  0
 21 39  1  0  0  0  0
M  CHG  1  16   1
M  END
> <s_m_source_file>
AV-unprocessed.smi

> <i_m_source_file_index>
475

> <i_lp_mmshare_version>
43012

> <i_f3d_flags>
0

> <s_epik_input>
W2NIXTFbY0hdW2NIXVtjSF1jKGMxMiluKFtDSDJdW0NIMl1PW0NIM10pYyhuMilTW0NIMl1DKD1PKWMzW2NIXVtjSF1bY0hdW25IXTM=

> <s_epik_cmdline>
J2VwaWtfcHl0aG9uJywgJy1waCcsICc3LjAnLCAnLXRuJywgJzgnLCAnLW1hJywgJzIwMCcsICctbWV0YWxfYmluZGluZycsICctaW1hZScsICc8aW5maWxlLm1hZT4nLCAnLW9tYWUnLCAnPG91dGZpbGUubWFlPic=

> <r_lp_tautomer_probability>
0.9999

> <r_epik_Ionization_Penalty>
2.12955

> <r_epik_Ionization_Penalty_Charging>
2.12955

> <r_epik_Ionization_Penalty_Neutral>
1.90655e-06

> <r_epik_State_Penalty>
2.26782

> <r_epik_Charging_Adjusted_Penalty>
4.39737

> <i_epik_Tot_Q>
1

> <i_epik_Tot_abs_Q>
1

> <r_epik_Metal_State_Penalty>
2.28582

> <b_epik_Metal_Only>
0

> <s_lp_Force_Field>
OPLS_2005

> <r_lp_Energy>
16.0961

> <b_lp_Chiralities_Consistent>
1

> <s_lp_Variant>
AV-unprocessed.smi:475-2

> <Gold.Version>
5.8.1

> <Gold.Id.Protein>
6NUR|6NUR_protein|mol2

> <Gold.PLP.Fitness>
56.6049

> <Gold.PLP.PLP>
-49.4333

> <Gold.PLP.part.hbond>
-2.0000

> <Gold.PLP.part.metal>
0.0000

> <Gold.PLP.part.buried>
-7.2136

> <Gold.PLP.part.nonpolar>
-40.3484

> <Gold.PLP.part.repulsive>
0.0419

> <Gold.PLP.ligand.clash>
0.0000

> <Gold.PLP.ligand.torsion>
0.9767

> <Gold.PLP.Chemscore.Hbond>
3.0000

> <Gold.PLP.Chemscore.CHOScore>
0.0000

> <Gold.PLP.Chemscore.Metal>
0.0000

> <Gold.Chemscore.Hbonds>
donor molecule, donor type, donor heavy atom, donor atom, acceptor molecule, acceptor atom, score
      L1  H    16    40       P1  8028  2.00
      P1  H  7997  8010       L1     2  1.00

> <Gold.PLP.Chemscore.Internal.Correction>
0.1249

> <Gold.Rescore>
     Score         DG    S(hbond)    S(metal)    S(lipo)     H(rot)  DE(clash)    DE(int)     intcor
     18.87     -20.89       1.81        0.00     126.18       2.10       0.06       1.96       ----

> <Gold.Chemscore.Fitness>
18.8695

> <Gold.Chemscore.DG>
-20.8882

> <Gold.Chemscore.ZeroCoef>
-5.4800

> <Gold.Chemscore.Hbond>
1.8064

> <Gold.Chemscore.Metal>
0.0000

> <Gold.Chemscore.Lipo>
126.1764

> <Gold.Chemscore.Internal_Hbond>
0.0000

> <Gold.Chemscore.DEClash>
0.0575

> <Gold.Chemscore.DEInternal>
1.9613

> <Gold.Chemscore.Rot>
2.1046

> <Gold.Chemscore.Internal.Correction>
   9.000000E+99

> <Gold.Chemscore.Hbonds>
donor molecule, donor type, donor heavy atom, donor atom, acceptor molecule, acceptor atom, score
      L1  H    16    40       P1  8028  0.88
      P1  H  7997  8010       L1     2  0.54

> <Gold.Chemscore.Hbond.Weighted>
-6.0334

> <Gold.Chemscore.Metal.Weighted>
-0.0000

> <Gold.Chemscore.Lipo.Weighted>
-14.7626

> <Gold.Chemscore.Internal_Hbond.Weighted>
0.0000

> <Gold.Chemscore.DEClash.Weighted>
0.0575

> <Gold.Chemscore.DEInternal.Weighted>
1.9613

> <Gold.Chemscore.Rot.Weighted>
5.3878

> <Gold.Chemscore.Internal.Correction.Weighted>
   9.000000E+99

> <Gold.Protein.RotatedTorsions>
[ 6907 6896 6895 6894 ] final -129.53 input  -60.11 | X-H torsion
[ 7974 7965 7964 7962 ] final  -83.13 input  175.53 | X-H torsion
[ 8008 7997 7996 7995 ] final   88.39 input   59.86 | X-H torsion
[ 10167 10162 10161 10158 ] final  -45.58 input  -65.29 | X-H torsion
[ 10718 10713 10712 10709 ] final  166.14 input   66.30 | X-H torsion
[ 10763 10752 10751 10750 ] final  119.19 input  -60.55 | X-H torsion
[ 11005 11000 10999 10996 ] final    3.61 input  -57.11 | X-H torsion

> <Gold.Protein.ActiveResidues>
 VAL166  LYS551  ARG553  GLY616  TRP617  ASP618  TYR619  PRO620  LYS621  CYS622 
 ASP623  PHE694  ASN695  SER759  ASP760  ASP761  ALA762  ILE779  LEU786  VAL792 
 PHE793  MET794  SER795  GLU796  ALA797  LYS798  CYS799  TRP800  GLU811  SER814 

> <Gold.Protein.RotatedAtoms>
  150.9297  133.6781  159.2813 H   0  0  0  0  0  0  0  0  0  0  0  0  # atno 6907 bound_to 6896
  151.4207  135.0996  159.9623 H   0  0  0  0  0  0  0  0  0  0  0  0  # atno 6908 bound_to 6896
  152.5020  133.8749  159.7372 H   0  0  0  0  0  0  0  0  0  0  0  0  # atno 6909 bound_to 6896
  145.5241  140.9528  143.1639 H   0  0  0  0  0  0  0  0  0  0  0  0  # atno 7974 bound_to 7965
  155.9872  140.3372  155.6718 H   0  0  0  0  0  0  0  0  0  0  0  0  # atno 8008 bound_to 7997
  155.6470  140.0701  157.2618 H   0  0  0  0  0  0  0  0  0  0  0  0  # atno 8009 bound_to 7997
  154.4208  140.1732  156.1621 H   0  0  0  0  0  0  0  0  0  0  0  0  # atno 8010 bound_to 7997
  140.6852  143.2872  151.3660 H   0  0  0  0  0  0  0  0  0  0  0  0  # atno 10167 bound_to 10162
  157.0702  131.0364  151.2614 H   0  0  0  0  0  0  0  0  0  0  0  0  # atno 10718 bound_to 10713
  153.5792  135.3487  155.2868 H   0  0  0  0  0  0  0  0  0  0  0  0  # atno 10763 bound_to 10752
  154.8670  135.4178  154.2639 H   0  0  0  0  0  0  0  0  0  0  0  0  # atno 10764 bound_to 10752
  153.3422  135.7050  153.6928 H   0  0  0  0  0  0  0  0  0  0  0  0  # atno 10765 bound_to 10752
  140.5912  133.9922  155.8089 H   0  0  0  0  0  0  0  0  0  0  0  0  # atno 11005 bound_to 11000
  144.7660  139.6844  143.7214 LP  0  0  0  0  0  0  0  0  0  0  0  0  # atno 17320 bound_to 7965
  146.2087  139.5428  142.9695 LP  0  0  0  0  0  0  0  0  0  0  0  0  # atno 17321 bound_to 7965
  139.6205  144.0916  152.2386 LP  0  0  0  0  0  0  0  0  0  0  0  0  # atno 17342 bound_to 10162
  140.0359  144.6045  150.7450 LP  0  0  0  0  0  0  0  0  0  0  0  0  # atno 17343 bound_to 10162
  157.4884  130.7807  149.7483 LP  0  0  0  0  0  0  0  0  0  0  0  0  # atno 17370 bound_to 10713
  155.9953  130.3913  150.2826 LP  0  0  0  0  0  0  0  0  0  0  0  0  # atno 17371 bound_to 10713
  141.0934  133.9882  157.3200 LP  0  0  0  0  0  0  0  0  0  0  0  0  # atno 17394 bound_to 11000
  139.9273  135.0201  156.8280 LP  0  0  0  0  0  0  0  0  0  0  0  0  # atno 17395 bound_to 11000

$$$$
