AV-unprocessed.smi:977|AV-procd|sdf|4307|dock3
  -GOLD-   22720 2213D 1   1.00000     0.00000
 Structure written by MMmdl.
 37 38  0  0  0  0  0  0  0  0  1 V2000
  151.1654  138.0414  154.6463 C   0  0  0  0  0  0  0  0  0  0  0  0
  150.1632  139.1527  154.5005 C   0  0  0  0  0  0  0  0  0  0  0  0
  150.4806  140.3655  154.9292 N   0  0  0  0  0  0  0  0  0  0  0  0
  149.4020  141.2033  154.6061 O   0  0  0  0  0  0  0  0  0  0  0  0
  148.4452  140.4675  153.9826 C   0  0  0  0  0  0  0  0  0  0  0  0
  147.2162  141.1873  153.5404 C   0  0  0  0  0  0  0  0  0  0  0  0
  148.8616  139.1707  153.9176 C   0  0  0  0  0  0  0  0  0  0  0  0
  148.1323  138.1198  153.3075 N   0  0  0  0  0  0  0  0  0  0  0  0
  146.8545  137.7863  153.5420 C   0  0  0  0  0  0  0  0  0  0  0  0
  146.0995  138.3898  154.3036 O   0  0  0  0  0  0  0  0  0  0  0  0
  146.4911  136.7140  152.8240 N   0  0  0  0  0  0  0  0  0  0  0  0
  145.1706  136.0860  152.8312 C   0  0  1  0  0  0  0  0  0  0  0  0
  144.1027  137.1861  152.7456 C   0  0  0  0  0  0  0  0  0  0  0  0
  145.0445  135.0733  151.6732 C   0  0  1  0  0  0  0  0  0  0  0  0
  146.0898  133.9559  151.6681 C   0  0  0  0  0  0  0  0  0  0  0  0
  145.3985  132.8958  150.8429 C   0  0  0  0  0  0  0  0  0  0  0  0
  143.9488  133.0360  151.2994 C   0  0  0  0  0  0  0  0  0  0  0  0
  143.7993  134.3831  151.7432 O   0  0  0  0  0  0  0  0  0  0  0  0
  151.1042  137.3423  153.8122 H   0  0  0  0  0  0  0  0  0  0  0  0
  150.9993  137.4826  155.5673 H   0  0  0  0  0  0  0  0  0  0  0  0
  152.1858  138.4249  154.6734 H   0  0  0  0  0  0  0  0  0  0  0  0
  146.6149  140.5659  152.8768 H   0  0  0  0  0  0  0  0  0  0  0  0
  147.4748  142.1004  153.0039 H   0  0  0  0  0  0  0  0  0  0  0  0
  146.6008  141.4607  154.3975 H   0  0  0  0  0  0  0  0  0  0  0  0
  148.6038  137.6255  152.5643 H   0  0  0  0  0  0  0  0  0  0  0  0
  147.1848  136.2926  152.2237 H   0  0  0  0  0  0  0  0  0  0  0  0
  145.0200  135.5557  153.7734 H   0  0  0  0  0  0  0  0  0  0  0  0
  143.0980  136.7650  152.7895 H   0  0  0  0  0  0  0  0  0  0  0  0
  144.1859  137.7501  151.8158 H   0  0  0  0  0  0  0  0  0  0  0  0
  144.1972  137.8905  153.5727 H   0  0  0  0  0  0  0  0  0  0  0  0
  145.0807  135.5944  150.7147 H   0  0  0  0  0  0  0  0  0  0  0  0
  147.0468  134.2666  151.2477 H   0  0  0  0  0  0  0  0  0  0  0  0
  146.2629  133.5857  152.6797 H   0  0  0  0  0  0  0  0  0  0  0  0
  145.4841  133.1351  149.7820 H   0  0  0  0  0  0  0  0  0  0  0  0
  145.8016  131.8953  151.0019 H   0  0  0  0  0  0  0  0  0  0  0  0
  143.2427  132.8000  150.5027 H   0  0  0  0  0  0  0  0  0  0  0  0
  143.7452  132.3716  152.1399 H   0  0  0  0  0  0  0  0  0  0  0  0
  1  2  1  0  0  0  0
  1 19  1  0  0  0  0
  1 20  1  0  0  0  0
  1 21  1  0  0  0  0
  2  7  1  0  0  0  0
  2  3  2  0  0  0  0
  3  4  1  0  0  0  0
  4  5  1  0  0  0  0
  5  6  1  0  0  0  0
  5  7  2  0  0  0  0
  6 22  1  0  0  0  0
  6 23  1  0  0  0  0
  6 24  1  0  0  0  0
  7  8  1  0  0  0  0
  8  9  1  0  0  0  0
  8 25  1  0  0  0  0
  9 10  2  0  0  0  0
  9 11  1  0  0  0  0
 11 12  1  0  0  0  0
 11 26  1  0  0  0  0
 12 13  1  0  0  0  0
 12 14  1  0  0  0  0
 12 27  1  0  0  0  0
 13 28  1  0  0  0  0
 13 29  1  0  0  0  0
 13 30  1  0  0  0  0
 14 18  1  0  0  0  0
 14 15  1  0  0  0  0
 14 31  1  0  0  0  0
 15 16  1  0  0  0  0
 15 32  1  0  0  0  0
 15 33  1  0  0  0  0
 16 17  1  0  0  0  0
 16 34  1  0  0  0  0
 16 35  1  0  0  0  0
 17 18  1  0  0  0  0
 17 36  1  0  0  0  0
 17 37  1  0  0  0  0
M  END
> <s_m_source_file>
AV-unprocessed.smi

> <i_m_source_file_index>
977

> <i_lp_mmshare_version>
43012

> <i_f3d_flags>
0

> <s_epik_input>
W0NIM11jMW5vYyhbQ0gzXSljMVtOSF1DKD1PKVtOSF1bQ0BIXShbQ0gzXSlbQ0BASF0yW0NIMl1bQ0gyXVtDSDJdTzI=

> <s_epik_cmdline>
J2VwaWtfcHl0aG9uJywgJy1waCcsICc3LjAnLCAnLXRuJywgJzgnLCAnLW1hJywgJzIwMCcsICctbWV0YWxfYmluZGluZycsICctaW1hZScsICc8aW5maWxlLm1hZT4nLCAnLW9tYWUnLCAnPG91dGZpbGUubWFlPic=

> <r_lp_tautomer_probability>
1

> <r_epik_Ionization_Penalty>
3.41601e-05

> <r_epik_Ionization_Penalty_Charging>
0

> <r_epik_Ionization_Penalty_Neutral>
3.41601e-05

> <r_epik_State_Penalty>
-0

> <r_epik_Charging_Adjusted_Penalty>
0

> <i_epik_Tot_Q>
0

> <i_epik_Tot_abs_Q>
0

> <r_epik_Metal_State_Penalty>
-0

> <b_epik_Metal_Only>
0

> <s_lp_Force_Field>
OPLS_2005

> <r_lp_Energy>
19.4669

> <b_lp_Chiralities_Consistent>
1

> <s_lp_Variant>
AV-unprocessed.smi:977-4

> <Gold.Version>
5.8.1

> <Gold.Id.Protein>
6NUR|6NUR_protein|mol2

> <Gold.PLP.Fitness>
36.4855

> <Gold.PLP.PLP>
-29.5500

> <Gold.PLP.part.hbond>
-3.8420

> <Gold.PLP.part.metal>
0.0000

> <Gold.PLP.part.buried>
-3.0093

> <Gold.PLP.part.nonpolar>
-24.0482

> <Gold.PLP.part.repulsive>
0.5483

> <Gold.PLP.ligand.clash>
0.0000

> <Gold.PLP.ligand.torsion>
0.6077

> <Gold.PLP.Chemscore.Hbond>
2.6280

> <Gold.PLP.Chemscore.CHOScore>
0.0000

> <Gold.PLP.Chemscore.Metal>
0.0000

> <Gold.Chemscore.Hbonds>
donor molecule, donor type, donor heavy atom, donor atom, acceptor molecule, acceptor atom, score
      L1  H     8    25       P1  7948  1.00
      L1  H    11    26       P1  7948  0.90
      P1  H  7989  7998       L1     3  0.81

> <Gold.PLP.Chemscore.Internal.Correction>
0.2668

> <Gold.Rescore>
     Score         DG    S(hbond)    S(metal)    S(lipo)     H(rot)  DE(clash)    DE(int)     intcor
     14.28     -16.10       1.88        0.00      63.83       1.22       0.02       1.81       ----

> <Gold.Chemscore.Fitness>
14.2753

> <Gold.Chemscore.DG>
-16.1009

> <Gold.Chemscore.ZeroCoef>
-5.4800

> <Gold.Chemscore.Hbond>
1.8792

> <Gold.Chemscore.Metal>
0.0000

> <Gold.Chemscore.Lipo>
63.8255

> <Gold.Chemscore.Internal_Hbond>
0.0000

> <Gold.Chemscore.DEClash>
0.0158

> <Gold.Chemscore.DEInternal>
1.8099

> <Gold.Chemscore.Rot>
1.2200

> <Gold.Chemscore.Internal.Correction>
   9.000000E+99

> <Gold.Chemscore.Hbonds>
donor molecule, donor type, donor heavy atom, donor atom, acceptor molecule, acceptor atom, score
      L1  H     8    25       P1  7948  0.92
      L1  H    11    26       P1  7948  0.88
      P1  H  7989  7998       L1     3  0.03

> <Gold.Chemscore.Hbond.Weighted>
-6.2765

> <Gold.Chemscore.Metal.Weighted>
-0.0000

> <Gold.Chemscore.Lipo.Weighted>
-7.4676

> <Gold.Chemscore.Internal_Hbond.Weighted>
0.0000

> <Gold.Chemscore.DEClash.Weighted>
0.0158

> <Gold.Chemscore.DEInternal.Weighted>
1.8099

> <Gold.Chemscore.Rot.Weighted>
3.1232

> <Gold.Chemscore.Internal.Correction.Weighted>
   9.000000E+99

> <Gold.Protein.RotatedTorsions>
[ 6907 6896 6895 6894 ] final  -51.98 input  -60.11 | X-H torsion
[ 7974 7965 7964 7962 ] final  130.46 input  175.53 | X-H torsion
[ 8008 7997 7996 7995 ] final -159.57 input   59.86 | X-H torsion
[ 10167 10162 10161 10158 ] final   68.62 input  -65.29 | X-H torsion
[ 10718 10713 10712 10709 ] final  171.76 input   66.30 | X-H torsion
[ 10763 10752 10751 10750 ] final   89.42 input  -60.55 | X-H torsion
[ 11005 11000 10999 10996 ] final  -27.81 input  -57.11 | X-H torsion

> <Gold.Protein.ActiveResidues>
 VAL166  LYS551  ARG553  GLY616  TRP617  ASP618  TYR619  PRO620  LYS621  CYS622 
 ASP623  PHE694  ASN695  SER759  ASP760  ASP761  ALA762  ILE779  LEU786  VAL792 
 PHE793  MET794  SER795  GLU796  ALA797  LYS798  CYS799  TRP800  GLU811  SER814 

> <Gold.Protein.RotatedAtoms>
  150.8561  134.7900  159.7046 H   0  0  0  0  0  0  0  0  0  0  0  0  # atno 6907 bound_to 6896
  152.4612  134.5177  159.9783 H   0  0  0  0  0  0  0  0  0  0  0  0  # atno 6908 bound_to 6896
  151.5289  133.3414  159.2950 H   0  0  0  0  0  0  0  0  0  0  0  0  # atno 6909 bound_to 6896
  145.0177  139.4161  143.5213 H   0  0  0  0  0  0  0  0  0  0  0  0  # atno 7974 bound_to 7965
  155.7645  140.0843  157.2139 H   0  0  0  0  0  0  0  0  0  0  0  0  # atno 8008 bound_to 7997
  154.4001  140.1537  156.2927 H   0  0  0  0  0  0  0  0  0  0  0  0  # atno 8009 bound_to 7997
  155.8807  140.3420  155.5888 H   0  0  0  0  0  0  0  0  0  0  0  0  # atno 8010 bound_to 7997
  140.0766  144.5107  150.7190 H   0  0  0  0  0  0  0  0  0  0  0  0  # atno 10167 bound_to 10162
  156.9888  131.0141  151.2862 H   0  0  0  0  0  0  0  0  0  0  0  0  # atno 10718 bound_to 10713
  153.1870  135.4471  155.0101 H   0  0  0  0  0  0  0  0  0  0  0  0  # atno 10763 bound_to 10752
  154.8066  135.3277  154.7417 H   0  0  0  0  0  0  0  0  0  0  0  0  # atno 10764 bound_to 10752
  153.7875  135.6973  153.4932 H   0  0  0  0  0  0  0  0  0  0  0  0  # atno 10765 bound_to 10752
  140.9153  133.7434  156.0726 H   0  0  0  0  0  0  0  0  0  0  0  0  # atno 11005 bound_to 11000
  146.3480  139.9657  142.8712 LP  0  0  0  0  0  0  0  0  0  0  0  0  # atno 17320 bound_to 7965
  145.1937  140.9823  143.4196 LP  0  0  0  0  0  0  0  0  0  0  0  0  # atno 17321 bound_to 7965
  140.7099  143.2496  151.4614 LP  0  0  0  0  0  0  0  0  0  0  0  0  # atno 17342 bound_to 10162
  139.5804  144.1723  152.1960 LP  0  0  0  0  0  0  0  0  0  0  0  0  # atno 17343 bound_to 10162
  157.5473  130.8159  149.8102 LP  0  0  0  0  0  0  0  0  0  0  0  0  # atno 17370 bound_to 10713
  156.0215  130.3794  150.1948 LP  0  0  0  0  0  0  0  0  0  0  0  0  # atno 17371 bound_to 10713
  140.8058  134.3456  157.5426 LP  0  0  0  0  0  0  0  0  0  0  0  0  # atno 17394 bound_to 11000
  139.8765  134.9225  156.3301 LP  0  0  0  0  0  0  0  0  0  0  0  0  # atno 17395 bound_to 11000

$$$$
