AV-unprocessed.smi:3029|AV-procd|sdf|11531|dock2
  -GOLD-   2272016473D 1   1.00000     0.00000
 Structure written by MMmdl.
 41 42  0  0  0  0  0  0  0  0  3 V2000
  150.5010  144.4767  159.0348 O   0  0  0  0  0  0  0  0  0  0  0  0
  151.3961  143.6467  159.1942 C   0  0  0  0  0  0  0  0  0  0  0  0
  152.4432  143.8177  160.2064 C   0  0  0  0  0  0  0  0  0  0  0  0
  153.4079  142.8949  160.3906 C   0  0  0  0  0  0  0  0  0  0  0  0
  153.4371  141.6901  159.5839 C   0  0  0  0  0  0  0  0  0  0  0  0
  154.4563  140.6840  159.7874 N   0  3  0  0  0  0  0  0  0  0  0  0
  154.4895  139.7102  159.0410 O   0  0  0  0  0  0  0  0  0  0  0  0
  155.2583  140.8359  160.7033 O   0  5  0  0  0  0  0  0  0  0  0  0
  152.4803  141.5404  158.6469 C   0  0  0  0  0  0  0  0  0  0  0  0
  151.4769  142.5071  158.4421 N   0  0  0  0  0  0  0  0  0  0  0  0
  150.4860  142.2286  157.3949 C   0  0  0  0  0  0  0  0  0  0  0  0
  149.8960  140.8191  157.5545 C   0  0  0  0  0  0  0  0  0  0  0  0
  148.9033  140.5854  156.5173 N   0  0  0  0  0  0  0  0  0  0  0  0
  149.4312  140.8670  155.1847 C   0  0  2  0  0  0  0  0  0  0  0  0
  148.3781  141.6801  154.4021 C   0  0  0  0  0  0  0  0  0  0  0  0
  147.1730  140.8294  153.9634 C   0  0  0  0  0  0  0  0  0  0  0  0
  147.6157  139.5823  153.1869 C   0  0  0  0  0  0  0  0  0  0  0  0
  148.6152  138.7465  154.0002 C   0  0  0  0  0  0  0  0  0  0  0  0
  149.8467  139.5789  154.4184 C   0  0  2  0  0  0  0  0  0  0  0  0
  150.9345  138.7270  155.1128 C   0  0  0  0  0  0  0  0  0  0  0  0
  151.9959  139.4588  155.4530 F   0  0  0  0  0  0  0  0  0  0  0  0
  150.4314  138.1789  156.2192 F   0  0  0  0  0  0  0  0  0  0  0  0
  151.3246  137.7385  154.3077 F   0  0  0  0  0  0  0  0  0  0  0  0
  152.4405  144.7078  160.8186 H   0  0  0  0  0  0  0  0  0  0  0  0
  154.1589  143.0663  161.1477 H   0  0  0  0  0  0  0  0  0  0  0  0
  152.4099  140.6777  157.9996 H   0  0  0  0  0  0  0  0  0  0  0  0
  149.6897  142.9753  157.4169 H   0  0  0  0  0  0  0  0  0  0  0  0
  150.9418  142.3301  156.4085 H   0  0  0  0  0  0  0  0  0  0  0  0
  150.6852  140.0699  157.4799 H   0  0  0  0  0  0  0  0  0  0  0  0
  149.4392  140.7147  158.5381 H   0  0  0  0  0  0  0  0  0  0  0  0
  148.0989  141.1709  156.6919 H   0  0  0  0  0  0  0  0  0  0  0  0
  150.3113  141.5049  155.2830 H   0  0  0  0  0  0  0  0  0  0  0  0
  148.0402  142.5349  154.9897 H   0  0  0  0  0  0  0  0  0  0  0  0
  148.8504  142.0987  153.5125 H   0  0  0  0  0  0  0  0  0  0  0  0
  146.5976  140.5271  154.8392 H   0  0  0  0  0  0  0  0  0  0  0  0
  146.5013  141.4292  153.3489 H   0  0  0  0  0  0  0  0  0  0  0  0
  146.7459  138.9758  152.9331 H   0  0  0  0  0  0  0  0  0  0  0  0
  148.0708  139.8812  152.2416 H   0  0  0  0  0  0  0  0  0  0  0  0
  148.1222  138.3428  154.8854 H   0  0  0  0  0  0  0  0  0  0  0  0
  148.9280  137.8872  153.4067 H   0  0  0  0  0  0  0  0  0  0  0  0
  150.3029  139.9274  153.4901 H   0  0  0  0  0  0  0  0  0  0  0  0
  1  2  2  0  0  0  0
  2 10  1  0  0  0  0
  2  3  1  0  0  0  0
  3  4  2  0  0  0  0
  3 24  1  0  0  0  0
  4  5  1  0  0  0  0
  4 25  1  0  0  0  0
  5  6  1  0  0  0  0
  5  9  2  0  0  0  0
  6  7  2  0  0  0  0
  6  8  1  0  0  0  0
  9 10  1  0  0  0  0
  9 26  1  0  0  0  0
 10 11  1  0  0  0  0
 11 12  1  0  0  0  0
 11 27  1  0  0  0  0
 11 28  1  0  0  0  0
 12 13  1  0  0  0  0
 12 29  1  0  0  0  0
 12 30  1  0  0  0  0
 13 14  1  0  0  0  0
 13 31  1  0  0  0  0
 14 19  1  0  0  0  0
 14 15  1  0  0  0  0
 14 32  1  0  0  0  0
 15 16  1  0  0  0  0
 15 33  1  0  0  0  0
 15 34  1  0  0  0  0
 16 17  1  0  0  0  0
 16 35  1  0  0  0  0
 16 36  1  0  0  0  0
 17 18  1  0  0  0  0
 17 37  1  0  0  0  0
 17 38  1  0  0  0  0
 18 19  1  0  0  0  0
 18 39  1  0  0  0  0
 18 40  1  0  0  0  0
 19 20  1  0  0  0  0
 19 41  1  0  0  0  0
 20 21  1  0  0  0  0
 20 22  1  0  0  0  0
 20 23  1  0  0  0  0
M  CHG  1   6   1
M  CHG  1   8  -1
M  END
> <s_m_source_file>
AV-unprocessed.smi

> <i_m_source_file_index>
3029

> <i_lp_mmshare_version>
43012

> <i_f3d_flags>
0

> <s_epik_input>
Tz1jMVtjSF1bY0hdYyhbTitdKD1PKVtPLV0pW2NIXW4xW0NIMl1bQ0gyXVtOSF1bQ0BASF0yW0NIMl1bQ0gyXVtDSDJdW0NIMl1bQ0BIXTJDKEYpKEYpRg==

> <s_epik_cmdline>
J2VwaWtfcHl0aG9uJywgJy1waCcsICc3LjAnLCAnLXRuJywgJzgnLCAnLW1hJywgJzIwMCcsICctbWV0YWxfYmluZGluZycsICctaW1hZScsICc8aW5maWxlLm1hZT4nLCAnLW9tYWUnLCAnPG91dGZpbGUubWFlPic=

> <r_lp_tautomer_probability>
1

> <r_epik_Ionization_Penalty>
1.65565

> <r_epik_Ionization_Penalty_Charging>
3.32684e-10

> <r_epik_Ionization_Penalty_Neutral>
1.65565

> <r_epik_State_Penalty>
1.75811

> <r_epik_Charging_Adjusted_Penalty>
1.75811

> <i_epik_Tot_Q>
0

> <i_epik_Tot_abs_Q>
2

> <r_epik_Metal_State_Penalty>
1.75811

> <b_epik_Metal_Only>
0

> <s_lp_Force_Field>
OPLS_2005

> <r_lp_Energy>
35.9342

> <b_lp_Chiralities_Consistent>
1

> <s_lp_Variant>
AV-unprocessed.smi:3029-7

> <Gold.Version>
5.8.1

> <Gold.Id.Protein>
6NUR|6NUR_protein|mol2

> <Gold.PLP.Fitness>
47.6946

> <Gold.PLP.PLP>
-46.0296

> <Gold.PLP.part.hbond>
-1.9634

> <Gold.PLP.part.metal>
0.0000

> <Gold.PLP.part.buried>
-4.1092

> <Gold.PLP.part.nonpolar>
-41.3639

> <Gold.PLP.part.repulsive>
0.1614

> <Gold.PLP.ligand.clash>
0.0000

> <Gold.PLP.ligand.torsion>
0.7601

> <Gold.PLP.Chemscore.Hbond>
1.0000

> <Gold.PLP.Chemscore.CHOScore>
0.0000

> <Gold.PLP.Chemscore.Metal>
0.0000

> <Gold.Chemscore.Hbonds>
donor molecule, donor type, donor heavy atom, donor atom, acceptor molecule, acceptor atom, score
      P1  H  7997  8010       L1     7  1.00

> <Gold.PLP.Chemscore.Internal.Correction>
0.1851

> <Gold.Rescore>
     Score         DG    S(hbond)    S(metal)    S(lipo)     H(rot)  DE(clash)    DE(int)     intcor
     13.46     -15.67       0.97        0.00     100.14       1.86       0.12       2.09       ----

> <Gold.Chemscore.Fitness>
13.4582

> <Gold.Chemscore.DG>
-15.6736

> <Gold.Chemscore.ZeroCoef>
-5.4800

> <Gold.Chemscore.Hbond>
0.9686

> <Gold.Chemscore.Metal>
0.0000

> <Gold.Chemscore.Lipo>
100.1366

> <Gold.Chemscore.Internal_Hbond>
0.0000

> <Gold.Chemscore.DEClash>
0.1242

> <Gold.Chemscore.DEInternal>
2.0912

> <Gold.Chemscore.Rot>
1.8584

> <Gold.Chemscore.Internal.Correction>
   9.000000E+99

> <Gold.Chemscore.Hbonds>
donor molecule, donor type, donor heavy atom, donor atom, acceptor molecule, acceptor atom, score
      P1  H  7997  8010       L1     7  0.90

> <Gold.Chemscore.Hbond.Weighted>
-3.2352

> <Gold.Chemscore.Metal.Weighted>
-0.0000

> <Gold.Chemscore.Lipo.Weighted>
-11.7160

> <Gold.Chemscore.Internal_Hbond.Weighted>
0.0000

> <Gold.Chemscore.DEClash.Weighted>
0.1242

> <Gold.Chemscore.DEInternal.Weighted>
2.0912

> <Gold.Chemscore.Rot.Weighted>
4.7576

> <Gold.Chemscore.Internal.Correction.Weighted>
   9.000000E+99

> <Gold.Protein.RotatedTorsions>
[ 6907 6896 6895 6894 ] final   53.80 input  -60.11 | X-H torsion
[ 7974 7965 7964 7962 ] final -142.12 input  175.53 | X-H torsion
[ 8008 7997 7996 7995 ] final   -4.79 input   59.86 | X-H torsion
[ 10167 10162 10161 10158 ] final   26.27 input  -65.29 | X-H torsion
[ 10718 10713 10712 10709 ] final  177.91 input   66.30 | X-H torsion
[ 10763 10752 10751 10750 ] final   78.54 input  -60.55 | X-H torsion
[ 11005 11000 10999 10996 ] final  -97.10 input  -57.11 | X-H torsion

> <Gold.Protein.ActiveResidues>
 VAL166  LYS551  ARG553  GLY616  TRP617  ASP618  TYR619  PRO620  LYS621  CYS622 
 ASP623  PHE694  ASN695  SER759  ASP760  ASP761  ALA762  ILE779  LEU786  VAL792 
 PHE793  MET794  SER795  GLU796  ALA797  LYS798  CYS799  TRP800  GLU811  SER814 

> <Gold.Protein.RotatedAtoms>
  152.3374  134.7179  160.0272 H   0  0  0  0  0  0  0  0  0  0  0  0  # atno 6907 bound_to 6896
  151.7576  133.3326  159.3417 H   0  0  0  0  0  0  0  0  0  0  0  0  # atno 6908 bound_to 6896
  150.7459  134.6068  159.6109 H   0  0  0  0  0  0  0  0  0  0  0  0  # atno 6909 bound_to 6896
  144.8468  140.5997  143.5416 H   0  0  0  0  0  0  0  0  0  0  0  0  # atno 7974 bound_to 7965
  154.6106  140.2475  155.7674 H   0  0  0  0  0  0  0  0  0  0  0  0  # atno 8008 bound_to 7997
  156.2368  140.2947  156.0285 H   0  0  0  0  0  0  0  0  0  0  0  0  # atno 8009 bound_to 7997
  155.2058  140.0395  157.2915 H   0  0  0  0  0  0  0  0  0  0  0  0  # atno 8010 bound_to 7997
  140.5037  144.0273  150.6343 H   0  0  0  0  0  0  0  0  0  0  0  0  # atno 10167 bound_to 10162
  156.8984  130.9871  151.3039 H   0  0  0  0  0  0  0  0  0  0  0  0  # atno 10718 bound_to 10713
  153.0882  135.4873  154.8639 H   0  0  0  0  0  0  0  0  0  0  0  0  # atno 10763 bound_to 10752
  154.7237  135.3045  154.9008 H   0  0  0  0  0  0  0  0  0  0  0  0  # atno 10764 bound_to 10752
  153.9664  135.6806  153.4799 H   0  0  0  0  0  0  0  0  0  0  0  0  # atno 10765 bound_to 10752
  141.1390  133.8146  157.0661 H   0  0  0  0  0  0  0  0  0  0  0  0  # atno 11005 bound_to 11000
  145.4581  139.1516  143.3881 LP  0  0  0  0  0  0  0  0  0  0  0  0  # atno 17320 bound_to 7965
  146.2751  140.4710  142.8799 LP  0  0  0  0  0  0  0  0  0  0  0  0  # atno 17321 bound_to 7965
  140.3577  143.2926  152.0418 LP  0  0  0  0  0  0  0  0  0  0  0  0  # atno 17342 bound_to 10162
  139.4878  144.6327  151.7038 LP  0  0  0  0  0  0  0  0  0  0  0  0  # atno 17343 bound_to 10162
  157.6041  130.8534  149.8847 LP  0  0  0  0  0  0  0  0  0  0  0  0  # atno 17370 bound_to 10713
  156.0594  130.3702  150.1017 LP  0  0  0  0  0  0  0  0  0  0  0  0  # atno 17371 bound_to 10713
  140.0541  134.9790  157.1189 LP  0  0  0  0  0  0  0  0  0  0  0  0  # atno 17394 bound_to 11000
  140.3946  134.2148  155.7165 LP  0  0  0  0  0  0  0  0  0  0  0  0  # atno 17395 bound_to 11000

$$$$
