AV-unprocessed.smi:1401|AV-procd|sdf|5691|dock8
  -GOLD-   22720 5323D 1   1.00000     0.00000
 Structure written by MMmdl.
 48 50  0  0  0  0  0  0  0  0  1 V2000
  154.6867  140.7455  162.3203 C   0  0  0  0  0  0  0  0  0  0  0  0
  154.4813  139.3742  161.7354 C   0  0  0  0  0  0  0  0  0  0  0  0
  153.5797  139.2636  160.8159 N   0  0  0  0  0  0  0  0  0  0  0  0
  153.3083  138.0483  160.2175 N   0  0  0  0  0  0  0  0  0  0  0  0
  152.2392  138.0985  159.2098 C   0  0  0  0  0  0  0  0  0  0  0  0
  152.3161  139.3482  158.3220 C   0  0  0  0  0  0  0  0  0  0  0  0
  153.2269  139.4783  157.5032 O   0  0  0  0  0  0  0  0  0  0  0  0
  151.3379  140.2509  158.4900 N   0  0  0  0  0  0  0  0  0  0  0  0
  151.2244  141.5274  157.7867 C   0  0  1  0  0  0  0  0  0  0  0  0
  150.0626  141.4359  156.7821 C   0  0  0  0  0  0  0  0  0  0  0  0
  151.0434  142.6684  158.8182 C   0  0  1  0  0  0  0  0  0  0  0  0
  152.2249  142.8033  159.8131 C   0  0  0  0  0  0  0  0  0  0  0  0
  152.6241  144.2842  159.6936 C   0  0  2  0  0  0  0  0  0  0  0  0
  151.5179  145.1681  160.2977 C   0  0  0  0  0  0  0  0  0  0  0  0
  150.3909  145.0586  159.2539 C   0  0  0  0  0  0  0  0  0  0  0  0
  150.9856  144.0931  158.2103 C   0  0  1  0  0  0  0  0  0  0  0  0
  152.4486  144.5257  158.2008 C   0  0  0  0  0  0  0  0  0  0  0  0
  153.9471  136.8784  160.5098 C   0  0  0  0  0  0  0  0  0  0  0  0
  153.6789  135.8175  159.9432 O   0  0  0  0  0  0  0  0  0  0  0  0
  154.9669  137.0116  161.5522 C   0  0  0  0  0  0  0  0  0  0  0  0
  155.6547  135.8084  161.8935 C   0  0  0  0  0  0  0  0  0  0  0  0
  156.1978  134.8213  162.1603 N   0  0  0  0  0  0  0  0  0  0  0  0
  155.2373  138.1974  162.1528 C   0  0  0  0  0  0  0  0  0  0  0  0
  156.2854  138.3883  163.2404 C   0  0  0  0  0  0  0  0  0  0  0  0
  155.7130  141.0803  162.1706 H   0  0  0  0  0  0  0  0  0  0  0  0
  154.4838  140.7425  163.3913 H   0  0  0  0  0  0  0  0  0  0  0  0
  154.0293  141.4864  161.8633 H   0  0  0  0  0  0  0  0  0  0  0  0
  152.2842  137.2214  158.5615 H   0  0  0  0  0  0  0  0  0  0  0  0
  151.2656  138.0489  159.7016 H   0  0  0  0  0  0  0  0  0  0  0  0
  150.6292  140.0524  159.1812 H   0  0  0  0  0  0  0  0  0  0  0  0
  152.1435  141.7148  157.2290 H   0  0  0  0  0  0  0  0  0  0  0  0
  149.9838  142.3329  156.1693 H   0  0  0  0  0  0  0  0  0  0  0  0
  149.1084  141.2945  157.2904 H   0  0  0  0  0  0  0  0  0  0  0  0
  150.2012  140.5966  156.0994 H   0  0  0  0  0  0  0  0  0  0  0  0
  150.1245  142.4739  159.3740 H   0  0  0  0  0  0  0  0  0  0  0  0
  151.9436  142.5292  160.8303 H   0  0  0  0  0  0  0  0  0  0  0  0
  153.0683  142.1736  159.5252 H   0  0  0  0  0  0  0  0  0  0  0  0
  153.6199  144.5004  160.0817 H   0  0  0  0  0  0  0  0  0  0  0  0
  151.2071  144.8228  161.2844 H   0  0  0  0  0  0  0  0  0  0  0  0
  151.8525  146.2019  160.3936 H   0  0  0  0  0  0  0  0  0  0  0  0
  149.4579  144.6904  159.6821 H   0  0  0  0  0  0  0  0  0  0  0  0
  150.1893  146.0330  158.8071 H   0  0  0  0  0  0  0  0  0  0  0  0
  150.4869  144.1589  157.2443 H   0  0  0  0  0  0  0  0  0  0  0  0
  152.5900  145.5688  157.9123 H   0  0  0  0  0  0  0  0  0  0  0  0
  153.0883  143.8951  157.5813 H   0  0  0  0  0  0  0  0  0  0  0  0
  156.7950  137.4585  163.4915 H   0  0  0  0  0  0  0  0  0  0  0  0
  155.8245  138.7653  164.1540 H   0  0  0  0  0  0  0  0  0  0  0  0
  157.0452  139.1011  162.9185 H   0  0  0  0  0  0  0  0  0  0  0  0
  1  2  1  0  0  0  0
  1 25  1  0  0  0  0
  1 26  1  0  0  0  0
  1 27  1  0  0  0  0
  2 23  1  0  0  0  0
  2  3  2  0  0  0  0
  3  4  1  0  0  0  0
  4  5  1  0  0  0  0
  4 18  1  0  0  0  0
  5  6  1  0  0  0  0
  5 28  1  0  0  0  0
  5 29  1  0  0  0  0
  6  7  2  0  0  0  0
  6  8  1  0  0  0  0
  8  9  1  0  0  0  0
  8 30  1  0  0  0  0
  9 10  1  0  0  0  0
  9 11  1  0  0  0  0
  9 31  1  0  0  0  0
 10 32  1  0  0  0  0
 10 33  1  0  0  0  0
 10 34  1  0  0  0  0
 11 16  1  0  0  0  0
 11 12  1  0  0  0  0
 11 35  1  0  0  0  0
 12 13  1  0  0  0  0
 12 36  1  0  0  0  0
 12 37  1  0  0  0  0
 13 17  1  0  0  0  0
 13 14  1  0  0  0  0
 13 38  1  0  0  0  0
 14 15  1  0  0  0  0
 14 39  1  0  0  0  0
 14 40  1  0  0  0  0
 15 16  1  0  0  0  0
 15 41  1  0  0  0  0
 15 42  1  0  0  0  0
 16 17  1  0  0  0  0
 16 43  1  0  0  0  0
 17 44  1  0  0  0  0
 17 45  1  0  0  0  0
 18 19  2  0  0  0  0
 18 20  1  0  0  0  0
 20 21  1  0  0  0  0
 20 23  2  0  0  0  0
 21 22  3  0  0  0  0
 23 24  1  0  0  0  0
 24 46  1  0  0  0  0
 24 47  1  0  0  0  0
 24 48  1  0  0  0  0
M  END
> <s_m_source_file>
AV-unprocessed.smi

> <i_m_source_file_index>
1401

> <i_lp_mmshare_version>
43012

> <i_f3d_flags>
0

> <s_epik_input>
TiNDYyhjMVtDSDNdKWMoPU8pbihuYzFbQ0gzXSlbQ0gyXUMoPU8pW05IXVtDQEhdKFtDSDNdKVtDQEhdKFtDSDJdW0NASF0yMylbQ0BIXShbQ0gyXTMpW0NIMl1bQ0gyXTI=

> <s_epik_cmdline>
J2VwaWtfcHl0aG9uJywgJy1waCcsICc3LjAnLCAnLXRuJywgJzgnLCAnLW1hJywgJzIwMCcsICctbWV0YWxfYmluZGluZycsICctaW1hZScsICc8aW5maWxlLm1hZT4nLCAnLW9tYWUnLCAnPG91dGZpbGUubWFlPic=

> <r_lp_tautomer_probability>
1

> <r_epik_Ionization_Penalty>
2.16501e-08

> <r_epik_Ionization_Penalty_Charging>
2.29436e-11

> <r_epik_Ionization_Penalty_Neutral>
2.16271e-08

> <r_epik_State_Penalty>
-0

> <r_epik_Charging_Adjusted_Penalty>
2.29436e-11

> <i_epik_Tot_Q>
0

> <i_epik_Tot_abs_Q>
0

> <r_epik_Metal_State_Penalty>
-0

> <b_epik_Metal_Only>
0

> <s_lp_Force_Field>
OPLS_2005

> <r_lp_Energy>
65.5995

> <b_lp_Chiralities_Consistent>
1

> <s_lp_Variant>
AV-unprocessed.smi:1401-4

> <Gold.Version>
5.8.1

> <Gold.Id.Protein>
6NUR|6NUR_protein|mol2

> <Gold.PLP.Fitness>
47.5129

> <Gold.PLP.PLP>
-42.3839

> <Gold.PLP.part.hbond>
-1.9407

> <Gold.PLP.part.metal>
0.0000

> <Gold.PLP.part.buried>
-5.2124

> <Gold.PLP.part.nonpolar>
-35.4035

> <Gold.PLP.part.repulsive>
0.1338

> <Gold.PLP.ligand.clash>
0.0000

> <Gold.PLP.ligand.torsion>
0.4467

> <Gold.PLP.Chemscore.Hbond>
2.0000

> <Gold.PLP.Chemscore.CHOScore>
0.0000

> <Gold.PLP.Chemscore.Metal>
0.0000

> <Gold.Chemscore.Hbonds>
donor molecule, donor type, donor heavy atom, donor atom, acceptor molecule, acceptor atom, score
      P1  H  6896  6907       L1    19  1.00
      P1  H  7997  8008       L1     7  1.00

> <Gold.PLP.Chemscore.Internal.Correction>
0.0224

> <Gold.Rescore>
     Score         DG    S(hbond)    S(metal)    S(lipo)     H(rot)  DE(clash)    DE(int)     intcor
     22.27     -22.91       1.99        0.00     127.74       1.63       0.07       0.57       ----

> <Gold.Chemscore.Fitness>
22.2680

> <Gold.Chemscore.DG>
-22.9071

> <Gold.Chemscore.ZeroCoef>
-5.4800

> <Gold.Chemscore.Hbond>
1.9908

> <Gold.Chemscore.Metal>
0.0000

> <Gold.Chemscore.Lipo>
127.7413

> <Gold.Chemscore.Internal_Hbond>
0.0000

> <Gold.Chemscore.DEClash>
0.0682

> <Gold.Chemscore.DEInternal>
0.5708

> <Gold.Chemscore.Rot>
1.6281

> <Gold.Chemscore.Internal.Correction>
   9.000000E+99

> <Gold.Chemscore.Hbonds>
donor molecule, donor type, donor heavy atom, donor atom, acceptor molecule, acceptor atom, score
      P1  H  6896  6907       L1    19  1.00
      P1  H  7997  8008       L1     7  0.94

> <Gold.Chemscore.Hbond.Weighted>
-6.6492

> <Gold.Chemscore.Metal.Weighted>
-0.0000

> <Gold.Chemscore.Lipo.Weighted>
-14.9457

> <Gold.Chemscore.Internal_Hbond.Weighted>
0.0000

> <Gold.Chemscore.DEClash.Weighted>
0.0682

> <Gold.Chemscore.DEInternal.Weighted>
0.5708

> <Gold.Chemscore.Rot.Weighted>
4.1678

> <Gold.Chemscore.Internal.Correction.Weighted>
   9.000000E+99

> <Gold.Protein.RotatedTorsions>
[ 6907 6896 6895 6894 ] final   60.55 input  -60.11 | X-H torsion
[ 7974 7965 7964 7962 ] final -178.78 input  175.53 | X-H torsion
[ 8008 7997 7996 7995 ] final  -85.03 input   59.86 | X-H torsion
[ 10167 10162 10161 10158 ] final  103.11 input  -65.29 | X-H torsion
[ 10718 10713 10712 10709 ] final -137.75 input   66.30 | X-H torsion
[ 10763 10752 10751 10750 ] final -121.58 input  -60.55 | X-H torsion
[ 11005 11000 10999 10996 ] final -134.56 input  -57.11 | X-H torsion

> <Gold.Protein.ActiveResidues>
 VAL166  LYS551  ARG553  GLY616  TRP617  ASP618  TYR619  PRO620  LYS621  CYS622 
 ASP623  PHE694  ASN695  SER759  ASP760  ASP761  ALA762  ILE779  LEU786  VAL792 
 PHE793  MET794  SER795  GLU796  ALA797  LYS798  CYS799  TRP800  GLU811  SER814 

> <Gold.Protein.RotatedAtoms>
  152.4013  134.6281  160.0068 H   0  0  0  0  0  0  0  0  0  0  0  0  # atno 6907 bound_to 6896
  151.6486  133.3316  159.3154 H   0  0  0  0  0  0  0  0  0  0  0  0  # atno 6908 bound_to 6896
  150.7913  134.6981  159.6579 H   0  0  0  0  0  0  0  0  0  0  0  0  # atno 6909 bound_to 6896
  144.7132  140.0817  143.6425 H   0  0  0  0  0  0  0  0  0  0  0  0  # atno 7974 bound_to 7965
  154.6363  140.0597  156.9792 H   0  0  0  0  0  0  0  0  0  0  0  0  # atno 8008 bound_to 7997
  155.1587  140.3280  155.4397 H   0  0  0  0  0  0  0  0  0  0  0  0  # atno 8009 bound_to 7997
  156.2508  140.1934  156.6695 H   0  0  0  0  0  0  0  0  0  0  0  0  # atno 8010 bound_to 7997
  139.7291  144.7040  151.0750 H   0  0  0  0  0  0  0  0  0  0  0  0  # atno 10167 bound_to 10162
  156.2916  130.7378  151.1405 H   0  0  0  0  0  0  0  0  0  0  0  0  # atno 10718 bound_to 10713
  154.8671  135.4163  154.2643 H   0  0  0  0  0  0  0  0  0  0  0  0  # atno 10763 bound_to 10752
  153.3565  135.7001  153.6752 H   0  0  0  0  0  0  0  0  0  0  0  0  # atno 10764 bound_to 10752
  153.5671  135.3598  155.2795 H   0  0  0  0  0  0  0  0  0  0  0  0  # atno 10765 bound_to 10752
  140.8979  134.1728  157.4482 H   0  0  0  0  0  0  0  0  0  0  0  0  # atno 11005 bound_to 11000
  145.9696  139.2860  143.1106 LP  0  0  0  0  0  0  0  0  0  0  0  0  # atno 17320 bound_to 7965
  145.9131  140.9167  143.0444 LP  0  0  0  0  0  0  0  0  0  0  0  0  # atno 17321 bound_to 7965
  140.7768  143.5066  150.9704 LP  0  0  0  0  0  0  0  0  0  0  0  0  # atno 17342 bound_to 10162
  139.8754  143.7139  152.3162 LP  0  0  0  0  0  0  0  0  0  0  0  0  # atno 17343 bound_to 10162
  157.7344  131.0582  150.5526 LP  0  0  0  0  0  0  0  0  0  0  0  0  # atno 17370 bound_to 10713
  156.5643  130.4263  149.6048 LP  0  0  0  0  0  0  0  0  0  0  0  0  # atno 17371 bound_to 10713
  139.8738  134.9886  156.5418 LP  0  0  0  0  0  0  0  0  0  0  0  0  # atno 17394 bound_to 11000
  140.8267  133.8311  155.8945 LP  0  0  0  0  0  0  0  0  0  0  0  0  # atno 17395 bound_to 11000

$$$$
