AV-unprocessed.smi:948|AV-procd|sdf|4241|dock4
  -GOLD-   22720 2153D 1   1.00000     0.00000
 Structure written by MMmdl.
 19 19  0  0  0  0  0  0  0  0  3 V2000
  145.3993  138.4103  151.8581 N   0  3  0  0  0  0  0  0  0  0  0  0
  146.8150  138.8140  151.7998 C   0  0  0  0  0  0  0  0  0  0  0  0
  147.3814  139.0827  153.2023 C   0  0  0  0  0  0  0  0  0  0  0  0
  147.3480  140.5366  153.5450 C   0  0  0  0  0  0  0  0  0  0  0  0
  148.3458  141.4091  153.9055 C   0  0  0  0  0  0  0  0  0  0  0  0
  147.7567  142.6283  154.1082 N   0  0  0  0  0  0  0  0  0  0  0  0
  146.4423  142.5438  153.8884 C   0  0  0  0  0  0  0  0  0  0  0  0
  146.1914  141.2762  153.5458 N   0  3  0  0  0  0  0  0  0  0  0  0
  148.2424  143.4723  154.3864 H   0  0  0  0  0  0  0  0  0  0  0  0
  145.0718  138.1939  150.9270 H   0  0  0  0  0  0  0  0  0  0  0  0
  144.8447  139.1632  152.2401 H   0  0  0  0  0  0  0  0  0  0  0  0
  147.3822  138.0234  151.3073 H   0  0  0  0  0  0  0  0  0  0  0  0
  146.8978  139.7058  151.1774 H   0  0  0  0  0  0  0  0  0  0  0  0
  146.8146  138.5302  153.9531 H   0  0  0  0  0  0  0  0  0  0  0  0
  148.4124  138.7323  153.2657 H   0  0  0  0  0  0  0  0  0  0  0  0
  149.4082  141.2559  154.0320 H   0  0  0  0  0  0  0  0  0  0  0  0
  145.7249  143.3407  153.9727 H   0  0  0  0  0  0  0  0  0  0  0  0
  145.3027  137.5924  152.4432 H   0  0  0  0  0  0  0  0  0  0  0  0
  145.2712  140.9165  153.3246 H   0  0  0  0  0  0  0  0  0  0  0  0
  1  2  1  0  0  0  0
  1 10  1  0  0  0  0
  1 11  1  0  0  0  0
  1 18  1  0  0  0  0
  2  3  1  0  0  0  0
  2 12  1  0  0  0  0
  2 13  1  0  0  0  0
  3  4  1  0  0  0  0
  3 14  1  0  0  0  0
  3 15  1  0  0  0  0
  4  8  1  0  0  0  0
  4  5  2  0  0  0  0
  5  6  1  0  0  0  0
  5 16  1  0  0  0  0
  6  9  1  0  0  0  0
  6  7  1  0  0  0  0
  7  8  2  0  0  0  0
  7 17  1  0  0  0  0
  8 19  1  0  0  0  0
M  CHG  1   1   1
M  CHG  1   8   1
M  END
> <s_m_source_file>
AV-unprocessed.smi

> <i_m_source_file_index>
948

> <i_lp_mmshare_version>
43012

> <i_f3d_flags>
0

> <s_epik_input>
W05IMl1bQ0gyXVtDSDJdYzFbY0hdW25IXVtjSF1uMQ==

> <s_epik_cmdline>
J2VwaWtfcHl0aG9uJywgJy1waCcsICc3LjAnLCAnLXRuJywgJzgnLCAnLW1hJywgJzIwMCcsICctbWV0YWxfYmluZGluZycsICctaW1hZScsICc8aW5maWxlLm1hZT4nLCAnLW9tYWUnLCAnPG91dGZpbGUubWFlPic=

> <r_lp_tautomer_probability>
1

> <r_epik_Ionization_Penalty>
2.37896

> <r_epik_Ionization_Penalty_Charging>
0.0086666

> <r_epik_Ionization_Penalty_Neutral>
2.3703

> <r_epik_State_Penalty>
1.3316

> <r_epik_Charging_Adjusted_Penalty>
1.34027

> <i_epik_Tot_Q>
2

> <i_epik_Tot_abs_Q>
2

> <r_epik_Metal_State_Penalty>
5.35027

> <b_epik_Metal_Only>
0

> <s_lp_Force_Field>
OPLS_2005

> <r_lp_Energy>
12.2927

> <b_lp_Chiralities_Consistent>
1

> <s_lp_Variant>
AV-unprocessed.smi:948-3

> <Gold.Version>
5.8.1

> <Gold.Id.Protein>
6NUR|6NUR_protein|mol2

> <Gold.PLP.Fitness>
40.7737

> <Gold.PLP.PLP>
-20.2876

> <Gold.PLP.part.hbond>
-4.0000

> <Gold.PLP.part.metal>
0.0000

> <Gold.PLP.part.buried>
-0.6696

> <Gold.PLP.part.nonpolar>
-15.6161

> <Gold.PLP.part.repulsive>
0.2534

> <Gold.PLP.ligand.clash>
0.0000

> <Gold.PLP.ligand.torsion>
0.2570

> <Gold.PLP.Chemscore.Hbond>
7.0000

> <Gold.PLP.Chemscore.CHOScore>
0.0000

> <Gold.PLP.Chemscore.Metal>
0.0000

> <Gold.Chemscore.Hbonds>
donor molecule, donor type, donor heavy atom, donor atom, acceptor molecule, acceptor atom, score
      L1  H     1    10       P1 10171  0.85
      L1  H     1    11       P1 10175  2.00
      L1  H     6     9       P1  8028  2.00
      L1  H     8    19       P1 10175  2.00

> <Gold.PLP.Chemscore.Internal.Correction>
0.0001

> <Gold.Rescore>
     Score         DG    S(hbond)    S(metal)    S(lipo)     H(rot)  DE(clash)    DE(int)     intcor
     17.49     -17.79       3.76        0.00      31.33       1.53       0.00       0.30       ----

> <Gold.Chemscore.Fitness>
17.4942

> <Gold.Chemscore.DG>
-17.7922

> <Gold.Chemscore.ZeroCoef>
-5.4800

> <Gold.Chemscore.Hbond>
3.7650

> <Gold.Chemscore.Metal>
0.0000

> <Gold.Chemscore.Lipo>
31.3298

> <Gold.Chemscore.Internal_Hbond>
0.0000

> <Gold.Chemscore.DEClash>
0.0004

> <Gold.Chemscore.DEInternal>
0.2976

> <Gold.Chemscore.Rot>
1.5345

> <Gold.Chemscore.Internal.Correction>
   9.000000E+99

> <Gold.Chemscore.Hbonds>
donor molecule, donor type, donor heavy atom, donor atom, acceptor molecule, acceptor atom, score
      L1  H     1    10       P1 10171  0.83
      L1  H     1    11       P1 10175  1.00
      L1  H     6     9       P1  8028  0.94
      L1  H     8    19       P1 10175  0.65

> <Gold.Chemscore.Hbond.Weighted>
-12.5750

> <Gold.Chemscore.Metal.Weighted>
-0.0000

> <Gold.Chemscore.Lipo.Weighted>
-3.6656

> <Gold.Chemscore.Internal_Hbond.Weighted>
0.0000

> <Gold.Chemscore.DEClash.Weighted>
0.0004

> <Gold.Chemscore.DEInternal.Weighted>
0.2976

> <Gold.Chemscore.Rot.Weighted>
3.9284

> <Gold.Chemscore.Internal.Correction.Weighted>
   9.000000E+99

> <Gold.Protein.RotatedTorsions>
[ 6907 6896 6895 6894 ] final   83.73 input  -60.11 | X-H torsion
[ 7974 7965 7964 7962 ] final -100.18 input  175.53 | X-H torsion
[ 8008 7997 7996 7995 ] final   44.21 input   59.86 | X-H torsion
[ 10167 10162 10161 10158 ] final   88.51 input  -65.29 | X-H torsion
[ 10718 10713 10712 10709 ] final   94.59 input   66.30 | X-H torsion
[ 10763 10752 10751 10750 ] final  125.10 input  -60.55 | X-H torsion
[ 11005 11000 10999 10996 ] final -142.34 input  -57.11 | X-H torsion

> <Gold.Protein.ActiveResidues>
 VAL166  LYS551  ARG553  GLY616  TRP617  ASP618  TYR619  PRO620  LYS621  CYS622 
 ASP623  PHE694  ASN695  SER759  ASP760  ASP761  ALA762  ILE779  LEU786  VAL792 
 PHE793  MET794  SER795  GLU796  ALA797  LYS798  CYS799  TRP800  GLU811  SER814 

> <Gold.Protein.RotatedAtoms>
  152.5334  134.2851  159.9021 H   0  0  0  0  0  0  0  0  0  0  0  0  # atno 6907 bound_to 6896
  151.2804  133.4206  159.2634 H   0  0  0  0  0  0  0  0  0  0  0  0  # atno 6908 bound_to 6896
  151.0288  134.9539  159.8157 H   0  0  0  0  0  0  0  0  0  0  0  0  # atno 6909 bound_to 6896
  145.2979  140.9370  143.2840 H   0  0  0  0  0  0  0  0  0  0  0  0  # atno 7974 bound_to 7965
  155.3155  140.3393  155.4242 H   0  0  0  0  0  0  0  0  0  0  0  0  # atno 8008 bound_to 7997
  156.1935  140.1706  156.8083 H   0  0  0  0  0  0  0  0  0  0  0  0  # atno 8009 bound_to 7997
  154.5470  140.0713  156.8589 H   0  0  0  0  0  0  0  0  0  0  0  0  # atno 8010 bound_to 7997
  139.8665  144.6516  150.8998 H   0  0  0  0  0  0  0  0  0  0  0  0  # atno 10167 bound_to 10162
  157.6946  131.0517  150.4209 H   0  0  0  0  0  0  0  0  0  0  0  0  # atno 10718 bound_to 10713
  153.6720  135.3329  155.3155 H   0  0  0  0  0  0  0  0  0  0  0  0  # atno 10763 bound_to 10752
  154.8488  135.4388  154.1696 H   0  0  0  0  0  0  0  0  0  0  0  0  # atno 10764 bound_to 10752
  153.2689  135.6998  153.7577 H   0  0  0  0  0  0  0  0  0  0  0  0  # atno 10765 bound_to 10752
  140.8235  134.2603  157.4890 H   0  0  0  0  0  0  0  0  0  0  0  0  # atno 11005 bound_to 11000
  144.9118  139.4519  143.6583 LP  0  0  0  0  0  0  0  0  0  0  0  0  # atno 17320 bound_to 7965
  146.3162  139.7930  142.8981 LP  0  0  0  0  0  0  0  0  0  0  0  0  # atno 17321 bound_to 7965
  140.7767  143.3700  151.1668 LP  0  0  0  0  0  0  0  0  0  0  0  0  # atno 17342 bound_to 10162
  139.7324  143.9052  152.3024 LP  0  0  0  0  0  0  0  0  0  0  0  0  # atno 17343 bound_to 10162
  156.4584  130.4026  149.6591 LP  0  0  0  0  0  0  0  0  0  0  0  0  # atno 17370 bound_to 10713
  156.3715  130.7533  151.2517 LP  0  0  0  0  0  0  0  0  0  0  0  0  # atno 17371 bound_to 10713
  139.8707  134.9548  156.4186 LP  0  0  0  0  0  0  0  0  0  0  0  0  # atno 17394 bound_to 11000
  140.9074  133.7736  155.9751 LP  0  0  0  0  0  0  0  0  0  0  0  0  # atno 17395 bound_to 11000

$$$$
