AV-unprocessed.smi:195|AV-procd|sdf|1527|dock6
  -GOLD-   2262019373D 1   1.00000     0.00000
 Structure written by MMmdl.
 45 48  0  0  0  0  0  0  0  0  1 V2000
  150.8888  136.6461  158.5873 N   0  0  0  0  0  0  0  0  0  0  0  0
  150.7123  137.6903  158.1210 C   0  0  0  0  0  0  0  0  0  0  0  0
  150.4876  139.0186  157.5291 C   0  0  0  0  0  0  0  0  0  0  0  0
  151.6240  139.4753  156.6097 C   0  0  0  0  0  0  0  0  0  0  0  0
  152.7948  139.3381  157.3873 O   0  0  0  0  0  0  0  0  0  0  0  0
  151.6953  138.8502  155.2133 C   0  0  0  0  0  0  0  0  0  0  0  0
  151.1013  140.0781  154.6914 N   0  0  0  0  0  0  0  0  0  0  0  0
  149.7083  139.9599  154.3890 C   0  0  0  0  0  0  0  0  0  0  0  0
  148.9771  141.0477  154.0233 N   0  0  0  0  0  0  0  0  0  0  0  0
  147.6776  140.9430  153.7299 C   0  0  0  0  0  0  0  0  0  0  0  0
  146.9105  139.8529  153.7243 N   0  0  0  0  0  0  0  0  0  0  0  0
  147.6315  138.7496  154.0689 C   0  0  0  0  0  0  0  0  0  0  0  0
  149.0142  138.7156  154.4081 C   0  0  0  0  0  0  0  0  0  0  0  0
  149.3959  137.4095  154.6933 N   0  0  0  0  0  0  0  0  0  0  0  0
  148.3030  136.7136  154.5359 C   0  0  0  0  0  0  0  0  0  0  0  0
  147.1964  137.4403  154.1607 N   0  0  0  0  0  0  0  0  0  0  0  0
  145.8606  136.9293  153.9120 C   0  0  0  0  0  0  0  0  0  0  0  0
  145.3542  137.2781  152.4991 C   0  0  1  0  0  0  0  0  0  0  0  0
  146.4357  137.3739  151.5917 O   0  0  0  0  0  0  0  0  0  0  0  0
  144.2995  136.2804  151.9803 C   0  0  1  0  0  0  0  0  0  0  0  0
  144.8123  134.8984  151.5669 C   0  0  0  0  0  0  0  0  0  0  0  0
  143.5523  134.0708  151.6866 C   0  0  0  0  0  0  0  0  0  0  0  0
  142.8987  134.6739  152.9277 C   0  0  0  0  0  0  0  0  0  0  0  0
  143.2674  136.0507  152.9364 O   0  0  0  0  0  0  0  0  0  0  0  0
  151.4760  140.8221  155.8942 C   0  0  0  0  0  0  0  0  0  0  0  0
  149.5360  138.9937  156.9968 H   0  0  0  0  0  0  0  0  0  0  0  0
  150.3551  139.7131  158.3585 H   0  0  0  0  0  0  0  0  0  0  0  0
  152.6089  138.6962  158.0555 H   0  0  0  0  0  0  0  0  0  0  0  0
  152.7144  138.7076  154.8516 H   0  0  0  0  0  0  0  0  0  0  0  0
  151.0943  137.9472  155.0996 H   0  0  0  0  0  0  0  0  0  0  0  0
  147.1838  141.8648  153.4593 H   0  0  0  0  0  0  0  0  0  0  0  0
  148.2748  135.6439  154.6853 H   0  0  0  0  0  0  0  0  0  0  0  0
  145.8678  135.8492  154.0630 H   0  0  0  0  0  0  0  0  0  0  0  0
  145.1916  137.3454  154.6663 H   0  0  0  0  0  0  0  0  0  0  0  0
  144.8903  138.2647  152.5321 H   0  0  0  0  0  0  0  0  0  0  0  0
  147.1693  136.9003  151.9529 H   0  0  0  0  0  0  0  0  0  0  0  0
  143.8078  136.7236  151.1128 H   0  0  0  0  0  0  0  0  0  0  0  0
  145.2395  134.8864  150.5638 H   0  0  0  0  0  0  0  0  0  0  0  0
  145.5635  134.5216  152.2618 H   0  0  0  0  0  0  0  0  0  0  0  0
  142.9173  134.2264  150.8134 H   0  0  0  0  0  0  0  0  0  0  0  0
  143.7468  133.0024  151.7829 H   0  0  0  0  0  0  0  0  0  0  0  0
  141.8157  134.5507  152.9298 H   0  0  0  0  0  0  0  0  0  0  0  0
  143.2941  134.2056  153.8297 H   0  0  0  0  0  0  0  0  0  0  0  0
  150.7276  141.4895  156.3207 H   0  0  0  0  0  0  0  0  0  0  0  0
  152.4274  141.3384  155.7588 H   0  0  0  0  0  0  0  0  0  0  0  0
  1  2  3  0  0  0  0
  2  3  1  0  0  0  0
  3  4  1  0  0  0  0
  3 26  1  0  0  0  0
  3 27  1  0  0  0  0
  4 25  1  0  0  0  0
  4  5  1  0  0  0  0
  4  6  1  0  0  0  0
  5 28  1  0  0  0  0
  6  7  1  0  0  0  0
  6 29  1  0  0  0  0
  6 30  1  0  0  0  0
  7  8  1  0  0  0  0
  7 25  1  0  0  0  0
  8 13  1  0  0  0  0
  8  9  2  0  0  0  0
  9 10  1  0  0  0  0
 10 11  2  0  0  0  0
 10 31  1  0  0  0  0
 11 12  1  0  0  0  0
 12 16  1  0  0  0  0
 12 13  2  0  0  0  0
 13 14  1  0  0  0  0
 14 15  2  0  0  0  0
 15 16  1  0  0  0  0
 15 32  1  0  0  0  0
 16 17  1  0  0  0  0
 17 18  1  0  0  0  0
 17 33  1  0  0  0  0
 17 34  1  0  0  0  0
 18 19  1  0  0  0  0
 18 20  1  0  0  0  0
 18 35  1  0  0  0  0
 19 36  1  0  0  0  0
 20 24  1  0  0  0  0
 20 21  1  0  0  0  0
 20 37  1  0  0  0  0
 21 22  1  0  0  0  0
 21 38  1  0  0  0  0
 21 39  1  0  0  0  0
 22 23  1  0  0  0  0
 22 40  1  0  0  0  0
 22 41  1  0  0  0  0
 23 24  1  0  0  0  0
 23 42  1  0  0  0  0
 23 43  1  0  0  0  0
 25 44  1  0  0  0  0
 25 45  1  0  0  0  0
M  END
> <s_m_source_file>
AV-unprocessed.smi

> <i_m_source_file_index>
195

> <i_lp_mmshare_version>
43012

> <i_f3d_flags>
0

> <s_epik_input>
TiNDW0NIMl1DMShbT0hdKVtDSDJdTihbQ0gyXTEpYyhuW2NIXW4yKWMoYzIzKW5bY0hdbjNbQ0gyXVtDQEhdKFtPSF0pW0NAQEhdNFtDSDJdW0NIMl1bQ0gyXU80

> <s_epik_cmdline>
J2VwaWtfcHl0aG9uJywgJy1waCcsICc3LjAnLCAnLXRuJywgJzgnLCAnLW1hJywgJzIwMCcsICctbWV0YWxfYmluZGluZycsICctaW1hZScsICc8aW5maWxlLm1hZT4nLCAnLW9tYWUnLCAnPG91dGZpbGUubWFlPic=

> <r_lp_tautomer_probability>
1

> <r_epik_Ionization_Penalty>
0.00307146

> <r_epik_Ionization_Penalty_Charging>
0

> <r_epik_Ionization_Penalty_Neutral>
0.00307146

> <r_epik_State_Penalty>
0.0020279

> <r_epik_Charging_Adjusted_Penalty>
0.0020279

> <i_epik_Tot_Q>
0

> <i_epik_Tot_abs_Q>
0

> <r_epik_Metal_State_Penalty>
-0

> <b_epik_Metal_Only>
0

> <s_lp_Force_Field>
OPLS_2005

> <r_lp_Energy>
44.2023

> <b_lp_Chiralities_Consistent>
1

> <s_lp_Variant>
AV-unprocessed.smi:195-4

> <Gold.Version>
5.8.1

> <Gold.Id.Protein>
6NUR|6NUR_protein|mol2

> <Gold.PLP.Fitness>
44.0831

> <Gold.PLP.PLP>
-32.1030

> <Gold.PLP.part.hbond>
-4.9617

> <Gold.PLP.part.metal>
0.0000

> <Gold.PLP.part.buried>
-2.3482

> <Gold.PLP.part.nonpolar>
-24.6365

> <Gold.PLP.part.repulsive>
0.9802

> <Gold.PLP.ligand.clash>
0.0000

> <Gold.PLP.ligand.torsion>
0.6348

> <Gold.PLP.Chemscore.Hbond>
4.2963

> <Gold.PLP.Chemscore.CHOScore>
0.0000

> <Gold.PLP.Chemscore.Metal>
0.0000

> <Gold.Chemscore.Hbonds>
donor molecule, donor type, donor heavy atom, donor atom, acceptor molecule, acceptor atom, score
      L1  H    19    36       P1  7948  1.00
      P1  H  6896  6908       L1     1  0.91
      P1  H  7989  7998       L1     7  0.99
      P1  H  7997  8008       L1     5  1.00
      P1  H  8011  8017       L1     9  0.24

> <Gold.PLP.Chemscore.Internal.Correction>
0.3608

> <Gold.Rescore>
     Score         DG    S(hbond)    S(metal)    S(lipo)     H(rot)  DE(clash)    DE(int)     intcor
     10.10     -12.26       3.07        0.00      51.89       3.72       0.27       1.90       ----

> <Gold.Chemscore.Fitness>
10.0975

> <Gold.Chemscore.DG>
-12.2648

> <Gold.Chemscore.ZeroCoef>
-5.4800

> <Gold.Chemscore.Hbond>
3.0658

> <Gold.Chemscore.Metal>
0.0000

> <Gold.Chemscore.Lipo>
51.8861

> <Gold.Chemscore.Internal_Hbond>
0.0000

> <Gold.Chemscore.DEClash>
0.2709

> <Gold.Chemscore.DEInternal>
1.8964

> <Gold.Chemscore.Rot>
3.7210

> <Gold.Chemscore.Internal.Correction>
   9.000000E+99

> <Gold.Chemscore.Hbonds>
donor molecule, donor type, donor heavy atom, donor atom, acceptor molecule, acceptor atom, score
      L1  H    19    36       P1  7948  0.95
      P1  H  6896  6908       L1     1  0.83
      P1  H  7989  7998       L1     7  0.22
      P1  H  7997  8008       L1     5  0.99
      P1  H  8011  8017       L1     9  0.09

> <Gold.Chemscore.Hbond.Weighted>
-10.2398

> <Gold.Chemscore.Metal.Weighted>
-0.0000

> <Gold.Chemscore.Lipo.Weighted>
-6.0707

> <Gold.Chemscore.Internal_Hbond.Weighted>
0.0000

> <Gold.Chemscore.DEClash.Weighted>
0.2709

> <Gold.Chemscore.DEInternal.Weighted>
1.8964

> <Gold.Chemscore.Rot.Weighted>
9.5256

> <Gold.Chemscore.Internal.Correction.Weighted>
   9.000000E+99

> <Gold.Protein.RotatedTorsions>
[ 6907 6896 6895 6894 ] final -149.49 input  -60.11 | X-H torsion
[ 7974 7965 7964 7962 ] final  -92.18 input  175.53 | X-H torsion
[ 8008 7997 7996 7995 ] final  -72.37 input   59.86 | X-H torsion
[ 10167 10162 10161 10158 ] final  -77.70 input  -65.29 | X-H torsion
[ 10718 10713 10712 10709 ] final -123.20 input   66.30 | X-H torsion
[ 10763 10752 10751 10750 ] final -128.41 input  -60.55 | X-H torsion
[ 11005 11000 10999 10996 ] final   -1.57 input  -57.11 | X-H torsion

> <Gold.Protein.ActiveResidues>
 VAL166  LYS551  ARG553  GLY616  TRP617  ASP618  TYR619  PRO620  LYS621  CYS622 
 ASP623  PHE694  ASN695  SER759  ASP760  ASP761  ALA762  ILE779  LEU786  VAL792 
 PHE793  MET794  SER795  GLU796  ALA797  LYS798  CYS799  TRP800  GLU811  SER814 

> <Gold.Protein.RotatedAtoms>
  151.1848  133.4703  159.2594 H   0  0  0  0  0  0  0  0  0  0  0  0  # atno 6907 bound_to 6896
  151.1222  135.0085  159.8554 H   0  0  0  0  0  0  0  0  0  0  0  0  # atno 6908 bound_to 6896
  152.5456  134.1758  159.8668 H   0  0  0  0  0  0  0  0  0  0  0  0  # atno 6909 bound_to 6896
  145.4032  140.9539  143.2275 H   0  0  0  0  0  0  0  0  0  0  0  0  # atno 7974 bound_to 7965
  154.5161  140.0798  156.8083 H   0  0  0  0  0  0  0  0  0  0  0  0  # atno 8008 bound_to 7997
  155.3678  140.3421  155.4224 H   0  0  0  0  0  0  0  0  0  0  0  0  # atno 8009 bound_to 7997
  156.1629  140.1594  156.8569 H   0  0  0  0  0  0  0  0  0  0  0  0  # atno 8010 bound_to 7997
  140.4747  143.2417  151.8150 H   0  0  0  0  0  0  0  0  0  0  0  0  # atno 10167 bound_to 10162
  156.1482  130.6515  150.9873 H   0  0  0  0  0  0  0  0  0  0  0  0  # atno 10718 bound_to 10713
  154.8756  135.3929  154.3752 H   0  0  0  0  0  0  0  0  0  0  0  0  # atno 10763 bound_to 10752
  153.4507  135.7028  153.6116 H   0  0  0  0  0  0  0  0  0  0  0  0  # atno 10764 bound_to 10752
  153.4657  135.3802  155.2332 H   0  0  0  0  0  0  0  0  0  0  0  0  # atno 10765 bound_to 10752
  140.6488  133.9423  155.8368 H   0  0  0  0  0  0  0  0  0  0  0  0  # atno 11005 bound_to 11000
  144.8359  139.5550  143.6922 LP  0  0  0  0  0  0  0  0  0  0  0  0  # atno 17320 bound_to 7965
  146.2741  139.6709  142.9275 LP  0  0  0  0  0  0  0  0  0  0  0  0  # atno 17321 bound_to 7965
  139.4824  144.4847  151.9261 LP  0  0  0  0  0  0  0  0  0  0  0  0  # atno 17342 bound_to 10162
  140.3933  144.2588  150.5898 LP  0  0  0  0  0  0  0  0  0  0  0  0  # atno 17343 bound_to 10162
  157.6634  131.0876  150.7785 LP  0  0  0  0  0  0  0  0  0  0  0  0  # atno 17370 bound_to 10713
  156.7855  130.4873  149.5393 LP  0  0  0  0  0  0  0  0  0  0  0  0  # atno 17371 bound_to 10713
  141.0552  134.0426  157.3731 LP  0  0  0  0  0  0  0  0  0  0  0  0  # atno 17394 bound_to 11000
  139.9053  135.0177  156.7458 LP  0  0  0  0  0  0  0  0  0  0  0  0  # atno 17395 bound_to 11000

$$$$
