AV-unprocessed.smi:2822|AV-procd|sdf|10874|dock3
  -GOLD-   2272015313D 1   1.00000     0.00000
 Structure written by MMmdl.
 40 42  0  0  0  0  0  0  0  0  2 V2000
  153.8944  141.7353  160.4811 Cl  0  0  0  0  0  0  0  0  0  0  0  0
  152.7270  142.7191  159.6688 C   0  0  0  0  0  0  0  0  0  0  0  0
  152.6266  144.0897  159.9843 C   0  0  0  0  0  0  0  0  0  0  0  0
  151.7413  144.9242  159.4002 N   0  0  0  0  0  0  0  0  0  0  0  0
  150.9155  144.4100  158.4655 C   0  0  0  0  0  0  0  0  0  0  0  0
  150.9323  143.0559  158.0751 C   0  0  0  0  0  0  0  0  0  0  0  0
  151.8593  142.1819  158.6903 C   0  0  0  0  0  0  0  0  0  0  0  0
  151.9430  140.8198  158.3648 N   0  0  0  0  0  0  0  0  0  0  0  0
  151.0690  140.2317  157.3619 C   0  0  0  0  0  0  0  0  0  0  0  0
  151.3099  140.8543  155.9724 C   0  0  2  0  0  0  0  0  0  0  0  0
  150.1306  141.7143  155.4806 C   0  0  0  0  0  0  0  0  0  0  0  0
  148.9688  140.8751  155.1042 N   0  3  1  0  0  0  0  0  0  0  0  0
  147.8095  141.6916  154.6625 C   0  0  0  0  0  0  0  0  0  0  0  0
  146.5894  140.8081  154.3591 C   0  0  0  0  0  0  0  0  0  0  0  0
  146.9370  139.7392  153.3161 C   0  0  0  0  0  0  0  0  0  0  0  0
  148.1501  138.9251  153.7846 C   0  0  0  0  0  0  0  0  0  0  0  0
  149.3507  139.8381  154.1074 C   0  0  2  0  0  0  0  0  0  0  0  0
  150.5441  139.0169  154.6313 C   0  0  0  0  0  0  0  0  0  0  0  0
  151.6245  139.8754  154.9815 O   0  0  0  0  0  0  0  0  0  0  0  0
  153.2749  144.5285  160.7285 H   0  0  0  0  0  0  0  0  0  0  0  0
  150.2182  145.0994  158.0125 H   0  0  0  0  0  0  0  0  0  0  0  0
  150.2432  142.7170  157.3164 H   0  0  0  0  0  0  0  0  0  0  0  0
  152.4722  140.2038  158.9665 H   0  0  0  0  0  0  0  0  0  0  0  0
  151.2030  139.1506  157.3366 H   0  0  0  0  0  0  0  0  0  0  0  0
  150.0364  140.4116  157.6633 H   0  0  0  0  0  0  0  0  0  0  0  0
  152.1800  141.5072  156.0536 H   0  0  0  0  0  0  0  0  0  0  0  0
  149.8397  142.4287  156.2519 H   0  0  0  0  0  0  0  0  0  0  0  0
  150.4438  142.2977  154.6131 H   0  0  0  0  0  0  0  0  0  0  0  0
  147.5533  142.4117  155.4404 H   0  0  0  0  0  0  0  0  0  0  0  0
  148.0837  142.2665  153.7763 H   0  0  0  0  0  0  0  0  0  0  0  0
  146.2438  140.3294  155.2763 H   0  0  0  0  0  0  0  0  0  0  0  0
  145.7638  141.4236  154.0005 H   0  0  0  0  0  0  0  0  0  0  0  0
  146.0827  139.0820  153.1506 H   0  0  0  0  0  0  0  0  0  0  0  0
  147.1574  140.2137  152.3590 H   0  0  0  0  0  0  0  0  0  0  0  0
  147.8763  138.3468  154.6684 H   0  0  0  0  0  0  0  0  0  0  0  0
  148.4254  138.2014  153.0163 H   0  0  0  0  0  0  0  0  0  0  0  0
  149.6587  140.3473  153.1920 H   0  0  0  0  0  0  0  0  0  0  0  0
  150.2552  138.3967  155.4801 H   0  0  0  0  0  0  0  0  0  0  0  0
  150.8912  138.3314  153.8577 H   0  0  0  0  0  0  0  0  0  0  0  0
  148.6795  140.3844  155.9383 H   0  0  0  0  0  0  0  0  0  0  0  0
  1  2  1  0  0  0  0
  2  7  1  0  0  0  0
  2  3  2  0  0  0  0
  3  4  1  0  0  0  0
  3 20  1  0  0  0  0
  4  5  2  0  0  0  0
  5  6  1  0  0  0  0
  5 21  1  0  0  0  0
  6  7  2  0  0  0  0
  6 22  1  0  0  0  0
  7  8  1  0  0  0  0
  8  9  1  0  0  0  0
  8 23  1  0  0  0  0
  9 10  1  0  0  0  0
  9 24  1  0  0  0  0
  9 25  1  0  0  0  0
 10 19  1  0  0  0  0
 10 11  1  0  0  0  0
 10 26  1  0  0  0  0
 11 12  1  0  0  0  0
 11 27  1  0  0  0  0
 11 28  1  0  0  0  0
 12 17  1  0  0  0  0
 12 13  1  0  0  0  0
 12 40  1  0  0  0  0
 13 14  1  0  0  0  0
 13 29  1  0  0  0  0
 13 30  1  0  0  0  0
 14 15  1  0  0  0  0
 14 31  1  0  0  0  0
 14 32  1  0  0  0  0
 15 16  1  0  0  0  0
 15 33  1  0  0  0  0
 15 34  1  0  0  0  0
 16 17  1  0  0  0  0
 16 35  1  0  0  0  0
 16 36  1  0  0  0  0
 17 18  1  0  0  0  0
 17 37  1  0  0  0  0
 18 19  1  0  0  0  0
 18 38  1  0  0  0  0
 18 39  1  0  0  0  0
M  CHG  1  12   1
M  END
> <s_m_source_file>
AV-unprocessed.smi

> <i_m_source_file_index>
2822

> <i_lp_mmshare_version>
43012

> <i_f3d_flags>
0

> <s_epik_input>
Q2xjMVtjSF1uW2NIXVtjSF1jMVtOSF1bQ0gyXVtDQEhdKFtDSDJdMilPW0NIMl1bQ0BASF0oTjIzKVtDSDJdW0NIMl1bQ0gyXVtDSDJdMw==

> <s_epik_cmdline>
J2VwaWtfcHl0aG9uJywgJy1waCcsICc3LjAnLCAnLXRuJywgJzgnLCAnLW1hJywgJzIwMCcsICctbWV0YWxfYmluZGluZycsICctaW1hZScsICc8aW5maWxlLm1hZT4nLCAnLW9tYWUnLCAnPG91dGZpbGUubWFlPic=

> <r_lp_tautomer_probability>
0.999999

> <r_epik_Ionization_Penalty>
0.88937

> <r_epik_Ionization_Penalty_Charging>
0.0803403

> <r_epik_Ionization_Penalty_Neutral>
0.80903

> <r_epik_State_Penalty>
0.931884

> <r_epik_Charging_Adjusted_Penalty>
1.01222

> <i_epik_Tot_Q>
1

> <i_epik_Tot_abs_Q>
1

> <r_epik_Metal_State_Penalty>
0.0782275

> <b_epik_Metal_Only>
0

> <s_lp_Force_Field>
OPLS_2005

> <r_lp_Energy>
31.959

> <b_lp_Chiralities_Consistent>
1

> <s_lp_Variant>
AV-unprocessed.smi:2822-15

> <Gold.Version>
5.8.1

> <Gold.Id.Protein>
6NUR|6NUR_protein|mol2

> <Gold.PLP.Fitness>
44.2561

> <Gold.PLP.PLP>
-40.1351

> <Gold.PLP.part.hbond>
-1.0000

> <Gold.PLP.part.metal>
0.0000

> <Gold.PLP.part.buried>
-5.0292

> <Gold.PLP.part.nonpolar>
-35.2194

> <Gold.PLP.part.repulsive>
0.3368

> <Gold.PLP.ligand.clash>
0.0000

> <Gold.PLP.ligand.torsion>
0.7307

> <Gold.PLP.Chemscore.Hbond>
0.9000

> <Gold.PLP.Chemscore.CHOScore>
0.9586

> <Gold.PLP.Chemscore.Metal>
0.0000

> <Gold.Chemscore.Hbonds>
donor molecule, donor type, donor heavy atom, donor atom, acceptor molecule, acceptor atom, score
      P1  H  7989  7998       L1    19  0.90
      L1  C     5    21       P1  8028  0.25
      L1  C     5    21       P1  8029  0.64

> <Gold.PLP.Chemscore.Internal.Correction>
0.0068

> <Gold.Rescore>
     Score         DG    S(hbond)    S(metal)    S(lipo)     H(rot)  DE(clash)    DE(int)     intcor
     16.10     -17.02       0.14        0.00     120.22       1.17       0.16       0.76       ----

> <Gold.Chemscore.Fitness>
16.1036

> <Gold.Chemscore.DG>
-17.0217

> <Gold.Chemscore.ZeroCoef>
-5.4800

> <Gold.Chemscore.Hbond>
0.1404

> <Gold.Chemscore.Metal>
0.0000

> <Gold.Chemscore.Lipo>
120.2236

> <Gold.Chemscore.Internal_Hbond>
0.0000

> <Gold.Chemscore.DEClash>
0.1596

> <Gold.Chemscore.DEInternal>
0.7585

> <Gold.Chemscore.Rot>
1.1693

> <Gold.Chemscore.Internal.Correction>
   9.000000E+99

> <Gold.Chemscore.Hbonds>
donor molecule, donor type, donor heavy atom, donor atom, acceptor molecule, acceptor atom, score
      P1  H  7989  7998       L1    19  0.06

> <Gold.Chemscore.Hbond.Weighted>
-0.4689

> <Gold.Chemscore.Metal.Weighted>
-0.0000

> <Gold.Chemscore.Lipo.Weighted>
-14.0662

> <Gold.Chemscore.Internal_Hbond.Weighted>
0.0000

> <Gold.Chemscore.DEClash.Weighted>
0.1596

> <Gold.Chemscore.DEInternal.Weighted>
0.7585

> <Gold.Chemscore.Rot.Weighted>
2.9934

> <Gold.Chemscore.Internal.Correction.Weighted>
   9.000000E+99

> <Gold.Protein.RotatedTorsions>
[ 6907 6896 6895 6894 ] final -150.67 input  -60.11 | X-H torsion
[ 7974 7965 7964 7962 ] final  -47.54 input  175.53 | X-H torsion
[ 8008 7997 7996 7995 ] final  -26.00 input   59.86 | X-H torsion
[ 10167 10162 10161 10158 ] final  146.20 input  -65.29 | X-H torsion
[ 10718 10713 10712 10709 ] final  160.12 input   66.30 | X-H torsion
[ 10763 10752 10751 10750 ] final  161.41 input  -60.55 | X-H torsion
[ 11005 11000 10999 10996 ] final   36.84 input  -57.11 | X-H torsion

> <Gold.Protein.ActiveResidues>
 VAL166  LYS551  ARG553  GLY616  TRP617  ASP618  TYR619  PRO620  LYS621  CYS622 
 ASP623  PHE694  ASN695  SER759  ASP760  ASP761  ALA762  ILE779  LEU786  VAL792 
 PHE793  MET794  SER795  GLU796  ALA797  LYS798  CYS799  TRP800  GLU811  SER814 

> <Gold.Protein.RotatedAtoms>
  151.2019  133.4606  159.2596 H   0  0  0  0  0  0  0  0  0  0  0  0  # atno 6907 bound_to 6896
  151.1061  135.0000  159.8482 H   0  0  0  0  0  0  0  0  0  0  0  0  # atno 6908 bound_to 6896
  152.5447  134.1942  159.8739 H   0  0  0  0  0  0  0  0  0  0  0  0  # atno 6909 bound_to 6896
  145.9605  140.7484  142.9460 H   0  0  0  0  0  0  0  0  0  0  0  0  # atno 7974 bound_to 7965
  154.4447  140.1911  156.0708 H   0  0  0  0  0  0  0  0  0  0  0  0  # atno 8008 bound_to 7997
  156.0513  140.3308  155.7327 H   0  0  0  0  0  0  0  0  0  0  0  0  # atno 8009 bound_to 7997
  155.5553  140.0598  157.2832 H   0  0  0  0  0  0  0  0  0  0  0  0  # atno 8010 bound_to 7997
  139.4911  144.5846  151.6803 H   0  0  0  0  0  0  0  0  0  0  0  0  # atno 10167 bound_to 10162
  157.1548  131.0573  151.2262 H   0  0  0  0  0  0  0  0  0  0  0  0  # atno 10718 bound_to 10713
  154.2625  135.2768  155.2772 H   0  0  0  0  0  0  0  0  0  0  0  0  # atno 10763 bound_to 10752
  154.5371  135.5713  153.6811 H   0  0  0  0  0  0  0  0  0  0  0  0  # atno 10764 bound_to 10752
  152.9959  135.6242  154.2776 H   0  0  0  0  0  0  0  0  0  0  0  0  # atno 10765 bound_to 10752
  140.2285  134.3556  155.7974 H   0  0  0  0  0  0  0  0  0  0  0  0  # atno 11005 bound_to 11000
  144.6814  140.2583  143.7322 LP  0  0  0  0  0  0  0  0  0  0  0  0  # atno 17320 bound_to 7965
  145.8046  139.1978  143.2028 LP  0  0  0  0  0  0  0  0  0  0  0  0  # atno 17321 bound_to 7965
  140.5460  144.0503  150.6107 LP  0  0  0  0  0  0  0  0  0  0  0  0  # atno 17342 bound_to 10162
  140.3541  143.2946  152.0455 LP  0  0  0  0  0  0  0  0  0  0  0  0  # atno 17343 bound_to 10162
  157.4187  130.7425  149.6896 LP  0  0  0  0  0  0  0  0  0  0  0  0  # atno 17370 bound_to 10713
  155.9764  130.4076  150.3782 LP  0  0  0  0  0  0  0  0  0  0  0  0  # atno 17371 bound_to 10713
  141.2219  133.7232  156.8692 LP  0  0  0  0  0  0  0  0  0  0  0  0  # atno 17394 bound_to 11000
  140.1775  134.9056  157.2909 LP  0  0  0  0  0  0  0  0  0  0  0  0  # atno 17395 bound_to 11000

$$$$
