AV-unprocessed.smi:1813|AV-procd|sdf|7346|dock10
  -GOLD-   22720 9 13D 1   1.00000     0.00000
 Structure written by MMmdl.
 39 40  0  0  0  0  0  0  0  0  3 V2000
  146.3360  135.1735  153.8903 C   0  0  0  0  0  0  0  0  0  0  0  0
  146.8871  136.2645  153.1007 N   0  0  0  0  0  0  0  0  0  0  0  0
  146.4484  137.5296  153.1542 C   0  0  0  0  0  0  0  0  0  0  0  0
  145.5313  137.8950  153.8906 O   0  0  0  0  0  0  0  0  0  0  0  0
  147.1696  138.5350  152.2506 C   0  0  0  0  0  0  0  0  0  0  0  0
  147.8947  139.5852  153.0107 N   0  3  2  0  0  0  0  0  0  0  0  0
  148.7709  139.0337  154.0786 C   0  0  0  0  0  0  0  0  0  0  0  0
  149.6042  140.1440  154.7383 C   0  0  0  0  0  0  0  0  0  0  0  0
  148.7020  141.2532  155.3013 C   0  0  1  0  0  0  0  0  0  0  0  0
  149.5241  142.3310  155.8424 N   0  0  0  0  0  0  0  0  0  0  0  0
  150.4154  142.2165  156.8373 C   0  0  0  0  0  0  0  0  0  0  0  0
  150.5960  141.1234  157.3786 O   0  0  0  0  0  0  0  0  0  0  0  0
  151.0374  143.3769  157.1445 N   0  5  0  0  0  0  0  0  0  0  0  0
  151.2880  143.6847  158.4274 C   0  0  0  0  0  0  0  0  0  0  0  0
  151.8786  142.8382  159.2786 N   0  0  0  0  0  0  0  0  0  0  0  0
  152.0451  143.3660  160.5602 C   0  0  0  0  0  0  0  0  0  0  0  0
  151.5790  144.6477  160.6854 C   0  0  0  0  0  0  0  0  0  0  0  0
  150.9133  145.2339  159.1879 S   0  0  0  0  0  0  0  0  0  0  0  0
  147.7735  141.7770  154.1902 C   0  0  0  0  0  0  0  0  0  0  0  0
  146.9829  140.6303  153.5409 C   0  0  0  0  0  0  0  0  0  0  0  0
  146.8676  134.2482  153.6678 H   0  0  0  0  0  0  0  0  0  0  0  0
  145.2801  135.0228  153.6621 H   0  0  0  0  0  0  0  0  0  0  0  0
  146.4370  135.3757  154.9574 H   0  0  0  0  0  0  0  0  0  0  0  0
  147.6504  136.0423  152.4780 H   0  0  0  0  0  0  0  0  0  0  0  0
  147.8777  137.9609  151.6517 H   0  0  0  0  0  0  0  0  0  0  0  0
  146.4693  138.9956  151.5515 H   0  0  0  0  0  0  0  0  0  0  0  0
  148.1595  138.5290  154.8283 H   0  0  0  0  0  0  0  0  0  0  0  0
  149.4438  138.2827  153.6641 H   0  0  0  0  0  0  0  0  0  0  0  0
  150.2172  139.7210  155.5353 H   0  0  0  0  0  0  0  0  0  0  0  0
  150.2957  140.5620  154.0051 H   0  0  0  0  0  0  0  0  0  0  0  0
  148.0970  140.8275  156.1042 H   0  0  0  0  0  0  0  0  0  0  0  0
  149.4117  143.2454  155.4294 H   0  0  0  0  0  0  0  0  0  0  0  0
  152.5082  142.7583  161.3231 H   0  0  0  0  0  0  0  0  0  0  0  0
  151.5871  145.2799  161.5600 H   0  0  0  0  0  0  0  0  0  0  0  0
  147.0800  142.5157  154.5934 H   0  0  0  0  0  0  0  0  0  0  0  0
  148.3610  142.2904  153.4274 H   0  0  0  0  0  0  0  0  0  0  0  0
  146.3718  141.0327  152.7323 H   0  0  0  0  0  0  0  0  0  0  0  0
  146.2992  140.1855  154.2658 H   0  0  0  0  0  0  0  0  0  0  0  0
  148.4982  140.0477  152.3451 H   0  0  0  0  0  0  0  0  0  0  0  0
  1  2  1  0  0  0  0
  1 21  1  0  0  0  0
  1 22  1  0  0  0  0
  1 23  1  0  0  0  0
  2  3  1  0  0  0  0
  2 24  1  0  0  0  0
  3  4  2  0  0  0  0
  3  5  1  0  0  0  0
  5  6  1  0  0  0  0
  5 25  1  0  0  0  0
  5 26  1  0  0  0  0
  6 20  1  0  0  0  0
  6  7  1  0  0  0  0
  6 39  1  0  0  0  0
  7  8  1  0  0  0  0
  7 27  1  0  0  0  0
  7 28  1  0  0  0  0
  8  9  1  0  0  0  0
  8 29  1  0  0  0  0
  8 30  1  0  0  0  0
  9 10  1  0  0  0  0
  9 19  1  0  0  0  0
  9 31  1  0  0  0  0
 10 11  1  0  0  0  0
 10 32  1  0  0  0  0
 11 12  2  0  0  0  0
 11 13  1  0  0  0  0
 13 14  1  0  0  0  0
 14 18  1  0  0  0  0
 14 15  2  0  0  0  0
 15 16  1  0  0  0  0
 16 17  2  0  0  0  0
 16 33  1  0  0  0  0
 17 18  1  0  0  0  0
 17 34  1  0  0  0  0
 19 20  1  0  0  0  0
 19 35  1  0  0  0  0
 19 36  1  0  0  0  0
 20 37  1  0  0  0  0
 20 38  1  0  0  0  0
M  CHG  1   6   1
M  CHG  1  13  -1
M  END
> <s_m_source_file>
AV-unprocessed.smi

> <i_m_source_file_index>
1813

> <i_lp_mmshare_version>
43012

> <i_f3d_flags>
0

> <s_epik_input>
W0NIM11bTkhdQyg9TylbQ0gyXU4xW0NIMl1bQ0gyXVtDSF0oW0NIMl1bQ0gyXTEpW05IXUMoPU8pW05IXWMybltjSF1bY0hdczI=

> <s_epik_cmdline>
J2VwaWtfcHl0aG9uJywgJy1waCcsICc3LjAnLCAnLXRuJywgJzgnLCAnLW1hJywgJzIwMCcsICctbWV0YWxfYmluZGluZycsICctaW1hZScsICc8aW5maWxlLm1hZT4nLCAnLW9tYWUnLCAnPG91dGZpbGUubWFlPic=

> <r_lp_tautomer_probability>
0.999

> <r_epik_Ionization_Penalty>
7.12128

> <r_epik_Ionization_Penalty_Charging>
6.25357

> <r_epik_Ionization_Penalty_Neutral>
0.867707

> <r_epik_State_Penalty>
6.33838

> <r_epik_Charging_Adjusted_Penalty>
12.592

> <i_epik_Tot_Q>
0

> <i_epik_Tot_abs_Q>
2

> <r_epik_Metal_State_Penalty>
2.34161

> <b_epik_Metal_Only>
1

> <s_lp_Force_Field>
OPLS_2005

> <r_lp_Energy>
3.88073

> <b_lp_Chiralities_Consistent>
1

> <s_lp_Variant>
AV-unprocessed.smi:1813-7

> <Gold.Version>
5.8.1

> <Gold.Id.Protein>
6NUR|6NUR_protein|mol2

> <Gold.PLP.Fitness>
45.4784

> <Gold.PLP.PLP>
-38.4950

> <Gold.PLP.part.hbond>
-3.0000

> <Gold.PLP.part.metal>
0.0000

> <Gold.PLP.part.buried>
-5.7987

> <Gold.PLP.part.nonpolar>
-31.6511

> <Gold.PLP.part.repulsive>
0.5014

> <Gold.PLP.ligand.clash>
0.0000

> <Gold.PLP.ligand.torsion>
0.8478

> <Gold.PLP.Chemscore.Hbond>
2.8800

> <Gold.PLP.Chemscore.CHOScore>
0.0000

> <Gold.PLP.Chemscore.Metal>
0.0000

> <Gold.Chemscore.Hbonds>
donor molecule, donor type, donor heavy atom, donor atom, acceptor molecule, acceptor atom, score
      L1  H     2    24       P1  7948  0.78
      L1  H     6    39       P1  7957  1.00
      L1  H    10    32       P1  8028  0.93

> <Gold.PLP.Chemscore.Internal.Correction>
0.0390

> <Gold.Rescore>
     Score         DG    S(hbond)    S(metal)    S(lipo)     H(rot)  DE(clash)    DE(int)     intcor
     17.04     -19.38       2.85        0.00      75.95       1.76       0.08       2.26       ----

> <Gold.Chemscore.Fitness>
17.0375

> <Gold.Chemscore.DG>
-19.3828

> <Gold.Chemscore.ZeroCoef>
-5.4800

> <Gold.Chemscore.Hbond>
2.8511

> <Gold.Chemscore.Metal>
0.0000

> <Gold.Chemscore.Lipo>
75.9522

> <Gold.Chemscore.Internal_Hbond>
0.0000

> <Gold.Chemscore.DEClash>
0.0811

> <Gold.Chemscore.DEInternal>
2.2642

> <Gold.Chemscore.Rot>
1.7603

> <Gold.Chemscore.Internal.Correction>
   9.000000E+99

> <Gold.Chemscore.Hbonds>
donor molecule, donor type, donor heavy atom, donor atom, acceptor molecule, acceptor atom, score
      L1  H     2    24       P1  7948  0.76
      L1  H     6    39       P1  7957  0.96
      L1  H    10    32       P1  8028  0.87

> <Gold.Chemscore.Hbond.Weighted>
-9.5228

> <Gold.Chemscore.Metal.Weighted>
-0.0000

> <Gold.Chemscore.Lipo.Weighted>
-8.8864

> <Gold.Chemscore.Internal_Hbond.Weighted>
0.0000

> <Gold.Chemscore.DEClash.Weighted>
0.0811

> <Gold.Chemscore.DEInternal.Weighted>
2.2642

> <Gold.Chemscore.Rot.Weighted>
4.5064

> <Gold.Chemscore.Internal.Correction.Weighted>
   9.000000E+99

> <Gold.Protein.RotatedTorsions>
[ 6907 6896 6895 6894 ] final   59.40 input  -60.11 | X-H torsion
[ 7974 7965 7964 7962 ] final   86.68 input  175.53 | X-H torsion
[ 8008 7997 7996 7995 ] final  -13.31 input   59.86 | X-H torsion
[ 10167 10162 10161 10158 ] final   80.02 input  -65.29 | X-H torsion
[ 10718 10713 10712 10709 ] final -150.68 input   66.30 | X-H torsion
[ 10763 10752 10751 10750 ] final -178.75 input  -60.55 | X-H torsion
[ 11005 11000 10999 10996 ] final  124.51 input  -57.11 | X-H torsion

> <Gold.Protein.ActiveResidues>
 VAL166  LYS551  ARG553  GLY616  TRP617  ASP618  TYR619  PRO620  LYS621  CYS622 
 ASP623  PHE694  ASN695  SER759  ASP760  ASP761  ALA762  ILE779  LEU786  VAL792 
 PHE793  MET794  SER795  GLU796  ALA797  LYS798  CYS799  TRP800  GLU811  SER814 

> <Gold.Protein.RotatedAtoms>
  152.3911  134.6440  160.0106 H   0  0  0  0  0  0  0  0  0  0  0  0  # atno 6907 bound_to 6896
  151.6673  133.3309  159.3196 H   0  0  0  0  0  0  0  0  0  0  0  0  # atno 6908 bound_to 6896
  150.7827  134.6829  159.6498 H   0  0  0  0  0  0  0  0  0  0  0  0  # atno 6909 bound_to 6896
  145.5690  139.2312  143.2416 H   0  0  0  0  0  0  0  0  0  0  0  0  # atno 7974 bound_to 7965
  154.5303  140.2253  155.8816 H   0  0  0  0  0  0  0  0  0  0  0  0  # atno 8008 bound_to 7997
  156.1757  140.3112  155.9018 H   0  0  0  0  0  0  0  0  0  0  0  0  # atno 8009 bound_to 7997
  155.3465  140.0453  157.3036 H   0  0  0  0  0  0  0  0  0  0  0  0  # atno 8010 bound_to 7997
  139.9542  144.6005  150.8132 H   0  0  0  0  0  0  0  0  0  0  0  0  # atno 10167 bound_to 10162
  156.4492  130.8160  151.2390 H   0  0  0  0  0  0  0  0  0  0  0  0  # atno 10718 bound_to 10713
  154.5438  135.2808  155.1071 H   0  0  0  0  0  0  0  0  0  0  0  0  # atno 10763 bound_to 10752
  154.2544  135.6333  153.5255 H   0  0  0  0  0  0  0  0  0  0  0  0  # atno 10764 bound_to 10752
  152.9985  135.5590  154.5985 H   0  0  0  0  0  0  0  0  0  0  0  0  # atno 10765 bound_to 10752
  139.9362  134.9639  156.8419 H   0  0  0  0  0  0  0  0  0  0  0  0  # atno 11005 bound_to 11000
  146.1797  140.6516  142.9195 LP  0  0  0  0  0  0  0  0  0  0  0  0  # atno 17320 bound_to 7965
  144.7446  140.5035  143.6844 LP  0  0  0  0  0  0  0  0  0  0  0  0  # atno 17321 bound_to 7965
  140.7573  143.3084  151.2904 LP  0  0  0  0  0  0  0  0  0  0  0  0  # atno 17342 bound_to 10162
  139.6604  144.0199  152.2689 LP  0  0  0  0  0  0  0  0  0  0  0  0  # atno 17343 bound_to 10162
  157.7503  131.0143  150.3459 LP  0  0  0  0  0  0  0  0  0  0  0  0  # atno 17370 bound_to 10713
  156.3834  130.3884  149.7084 LP  0  0  0  0  0  0  0  0  0  0  0  0  # atno 17371 bound_to 10713
  140.6070  134.0118  155.7561 LP  0  0  0  0  0  0  0  0  0  0  0  0  # atno 17394 bound_to 11000
  141.0976  133.9818  157.3133 LP  0  0  0  0  0  0  0  0  0  0  0  0  # atno 17395 bound_to 11000

$$$$
