AV-unprocessed.smi:36|AV-procd|sdf|288|dock8
  -GOLD-   2262016 73D 1   1.00000     0.00000
 Structure written by MMmdl.
 64 67  0  0  0  0  0  0  0  0  1 V2000
  149.2546  137.2240  158.9489 C   0  0  0  0  0  0  0  0  0  0  0  0
  148.2069  136.1071  158.8108 C   0  0  0  0  0  0  0  0  0  0  0  0
  148.6155  134.8970  159.6672 C   0  0  0  0  0  0  0  0  0  0  0  0
  146.8303  136.6212  159.2652 C   0  0  0  0  0  0  0  0  0  0  0  0
  148.0928  135.5675  156.9819 Si  0  0  0  0  0  0  0  0  0  0  0  0
  149.8046  135.0958  156.3024 C   0  0  0  0  0  0  0  0  0  0  0  0
  146.8947  134.1090  156.7667 C   0  0  0  0  0  0  0  0  0  0  0  0
  147.4955  136.8764  156.0920 O   0  0  0  0  0  0  0  0  0  0  0  0
  147.4976  136.9218  154.6813 C   0  0  0  0  0  0  0  0  0  0  0  0
  146.2370  137.6682  154.2008 C   0  0  1  0  0  0  0  0  0  0  0  0
  146.2119  138.9722  154.7788 O   0  0  0  0  0  0  0  0  0  0  0  0
  146.8033  139.9114  153.9248 C   0  0  1  0  0  0  0  0  0  0  0  0
  148.0701  140.4049  154.5534 N   0  0  0  0  0  0  0  0  0  0  0  0
  149.3365  140.1702  154.1559 C   0  0  0  0  0  0  0  0  0  0  0  0
  150.2844  140.7167  154.9128 N   0  0  0  0  0  0  0  0  0  0  0  0
  149.5490  141.3517  155.9074 C   0  0  0  0  0  0  0  0  0  0  0  0
  150.0000  142.1401  157.0744 C   0  0  0  0  0  0  0  0  0  0  0  0
  151.2785  142.3014  157.2358 N   0  0  0  0  0  0  0  0  0  0  0  0
  151.7588  143.0270  158.3182 C   0  0  0  0  0  0  0  0  0  0  0  0
  151.5894  144.2194  158.5873 O   0  0  0  0  0  0  0  0  0  0  0  0
  152.6070  142.2152  159.2418 C   0  0  0  0  0  0  0  0  0  0  0  0
  152.9777  142.7323  160.5012 C   0  0  0  0  0  0  0  0  0  0  0  0
  153.7706  141.9628  161.3751 C   0  0  0  0  0  0  0  0  0  0  0  0
  154.1931  140.6746  160.9936 C   0  0  0  0  0  0  0  0  0  0  0  0
  153.8227  140.1551  159.7380 C   0  0  0  0  0  0  0  0  0  0  0  0
  153.0297  140.9232  158.8630 C   0  0  0  0  0  0  0  0  0  0  0  0
  148.8907  142.5756  157.8108 N   0  0  0  0  0  0  0  0  0  0  0  0
  147.5460  142.3119  157.5077 C   0  0  0  0  0  0  0  0  0  0  0  0
  147.1339  141.6162  156.4819 N   0  0  0  0  0  0  0  0  0  0  0  0
  148.1973  141.1641  155.7132 C   0  0  0  0  0  0  0  0  0  0  0  0
  147.0996  139.1954  152.6002 C   0  0  0  0  0  0  0  0  0  0  0  0
  146.2001  137.9807  152.7006 C   0  0  1  0  0  0  0  0  0  0  0  0
  146.6414  136.9204  151.8770 O   0  0  0  0  0  0  0  0  0  0  0  0
  149.3460  137.5552  159.9839 H   0  0  0  0  0  0  0  0  0  0  0  0
  148.9888  138.0944  158.3487 H   0  0  0  0  0  0  0  0  0  0  0  0
  150.2393  136.8875  158.6236 H   0  0  0  0  0  0  0  0  0  0  0  0
  149.5932  134.5138  159.3741 H   0  0  0  0  0  0  0  0  0  0  0  0
  147.8988  134.0812  159.5669 H   0  0  0  0  0  0  0  0  0  0  0  0
  148.6697  135.1597  160.7241 H   0  0  0  0  0  0  0  0  0  0  0  0
  146.8483  136.9343  160.3096 H   0  0  0  0  0  0  0  0  0  0  0  0
  146.0674  135.8483  159.1671 H   0  0  0  0  0  0  0  0  0  0  0  0
  146.5084  137.4774  158.6717 H   0  0  0  0  0  0  0  0  0  0  0  0
  150.2341  134.2565  156.8485 H   0  0  0  0  0  0  0  0  0  0  0  0
  150.5091  135.9232  156.3758 H   0  0  0  0  0  0  0  0  0  0  0  0
  149.7539  134.8057  155.2534 H   0  0  0  0  0  0  0  0  0  0  0  0
  147.2174  133.2377  157.3359 H   0  0  0  0  0  0  0  0  0  0  0  0
  146.8208  133.8050  155.7228 H   0  0  0  0  0  0  0  0  0  0  0  0
  145.8893  134.3629  157.1018 H   0  0  0  0  0  0  0  0  0  0  0  0
  148.4096  137.4024  154.3291 H   0  0  0  0  0  0  0  0  0  0  0  0
  147.5051  135.8992  154.3037 H   0  0  0  0  0  0  0  0  0  0  0  0
  145.3498  137.1099  154.5012 H   0  0  0  0  0  0  0  0  0  0  0  0
  146.1745  140.7966  153.8235 H   0  0  0  0  0  0  0  0  0  0  0  0
  149.5770  139.5835  153.2820 H   0  0  0  0  0  0  0  0  0  0  0  0
  152.6556  143.7191  160.8012 H   0  0  0  0  0  0  0  0  0  0  0  0
  154.0542  142.3608  162.3381 H   0  0  0  0  0  0  0  0  0  0  0  0
  154.8007  140.0850  161.6641 H   0  0  0  0  0  0  0  0  0  0  0  0
  154.1462  139.1669  159.4458 H   0  0  0  0  0  0  0  0  0  0  0  0
  152.7482  140.5173  157.9019 H   0  0  0  0  0  0  0  0  0  0  0  0
  146.8388  142.7453  158.2163 H   0  0  0  0  0  0  0  0  0  0  0  0
  146.8754  139.8356  151.7466 H   0  0  0  0  0  0  0  0  0  0  0  0
  148.1507  138.9040  152.5570 H   0  0  0  0  0  0  0  0  0  0  0  0
  145.1849  138.2567  152.4121 H   0  0  0  0  0  0  0  0  0  0  0  0
  147.5864  136.9199  151.8695 H   0  0  0  0  0  0  0  0  0  0  0  0
  149.0772  143.1288  158.6346 H   0  0  0  0  0  0  0  0  0  0  0  0
  1  2  1  0  0  0  0
  1 34  1  0  0  0  0
  1 35  1  0  0  0  0
  1 36  1  0  0  0  0
  2  3  1  0  0  0  0
  2  4  1  0  0  0  0
  2  5  1  0  0  0  0
  3 37  1  0  0  0  0
  3 38  1  0  0  0  0
  3 39  1  0  0  0  0
  4 40  1  0  0  0  0
  4 41  1  0  0  0  0
  4 42  1  0  0  0  0
  5  6  1  0  0  0  0
  5  7  1  0  0  0  0
  5  8  1  0  0  0  0
  6 43  1  0  0  0  0
  6 44  1  0  0  0  0
  6 45  1  0  0  0  0
  7 46  1  0  0  0  0
  7 47  1  0  0  0  0
  7 48  1  0  0  0  0
  8  9  1  0  0  0  0
  9 10  1  0  0  0  0
  9 49  1  0  0  0  0
  9 50  1  0  0  0  0
 10 32  1  0  0  0  0
 10 11  1  0  0  0  0
 10 51  1  0  0  0  0
 11 12  1  0  0  0  0
 12 13  1  0  0  0  0
 12 31  1  0  0  0  0
 12 52  1  0  0  0  0
 13 30  1  0  0  0  0
 13 14  1  0  0  0  0
 14 15  2  0  0  0  0
 14 53  1  0  0  0  0
 15 16  1  0  0  0  0
 16 30  2  0  0  0  0
 16 17  1  0  0  0  0
 17 18  2  0  0  0  0
 17 27  1  0  0  0  0
 18 19  1  0  0  0  0
 19 20  2  0  0  0  0
 19 21  1  0  0  0  0
 21 26  1  0  0  0  0
 21 22  2  0  0  0  0
 22 23  1  0  0  0  0
 22 54  1  0  0  0  0
 23 24  2  0  0  0  0
 23 55  1  0  0  0  0
 24 25  1  0  0  0  0
 24 56  1  0  0  0  0
 25 26  2  0  0  0  0
 25 57  1  0  0  0  0
 26 58  1  0  0  0  0
 27 28  1  0  0  0  0
 27 64  1  0  0  0  0
 28 29  2  0  0  0  0
 28 59  1  0  0  0  0
 29 30  1  0  0  0  0
 31 32  1  0  0  0  0
 31 60  1  0  0  0  0
 31 61  1  0  0  0  0
 32 33  1  0  0  0  0
 32 62  1  0  0  0  0
 33 63  1  0  0  0  0
M  END
> <s_m_source_file>
AV-unprocessed.smi

> <i_m_source_file_index>
36

> <i_lp_mmshare_version>
43012

> <i_f3d_flags>
0

> <s_epik_input>
W0NIM11DKFtDSDNdKShbQ0gzXSlbU2ldKFtDSDNdKShbQ0gzXSlPW0NIMl1bQ0BASF0xT1tDQEhdKFtDSDJdW0NASF0xW09IXSluKFtjSF1uMiljKGMyMyluW2NIXW5jM1tOSF1DKD1PKWM0W2NIXVtjSF1bY0hdW2NIXVtjSF00

> <s_epik_cmdline>
J2VwaWtfcHl0aG9uJywgJy1waCcsICc3LjAnLCAnLXRuJywgJzgnLCAnLW1hJywgJzIwMCcsICctbWV0YWxfYmluZGluZycsICctaW1hZScsICc8aW5maWxlLm1hZT4nLCAnLW9tYWUnLCAnPG91dGZpbGUubWFlPic=

> <r_epik_Ionization_Penalty>
0.0850405

> <r_epik_Ionization_Penalty_Charging>
0.0850403

> <r_epik_Ionization_Penalty_Neutral>
1.47497e-07

> <r_epik_State_Penalty>
2.6133

> <r_epik_Charging_Adjusted_Penalty>
2.69834

> <i_epik_Tot_Q>
0

> <i_epik_Tot_abs_Q>
0

> <r_epik_Metal_State_Penalty>
2.92945

> <b_epik_Metal_Only>
0

> <s_epik_Chemistry_Notes>
This compound contains an acetal/aminal-like group ( X-CH(R)-Y where X, Y are N, S, or O) that may be acid/base labile, releasing an aldehyde.

> <s_lp_Force_Field>
OPLS_2005

> <r_lp_Energy>
49.0467

> <b_lp_Chiralities_Consistent>
1

> <s_lp_Variant>
AV-unprocessed.smi:36-10

> <Gold.Version>
5.8.1

> <Gold.Id.Protein>
6NUR|6NUR_protein|mol2

> <Gold.PLP.Fitness>
50.3963

> <Gold.PLP.PLP>
-43.9897

> <Gold.PLP.part.hbond>
-2.6872

> <Gold.PLP.part.metal>
0.0000

> <Gold.PLP.part.buried>
-3.3298

> <Gold.PLP.part.nonpolar>
-38.3751

> <Gold.PLP.part.repulsive>
0.5139

> <Gold.PLP.ligand.clash>
0.0000

> <Gold.PLP.ligand.torsion>
1.1576

> <Gold.PLP.Chemscore.Hbond>
1.7752

> <Gold.PLP.Chemscore.CHOScore>
0.9771

> <Gold.PLP.Chemscore.Metal>
0.0000

> <Gold.Chemscore.Hbonds>
donor molecule, donor type, donor heavy atom, donor atom, acceptor molecule, acceptor atom, score
      L1  H    33    63       P1  7948  0.94
      P1  H  7989  7998       L1    15  0.69
      L1  C    14    53       P1  7957  1.00

> <Gold.PLP.Chemscore.Internal.Correction>
0.4648

> <Gold.Rescore>
     Score         DG    S(hbond)    S(metal)    S(lipo)     H(rot)  DE(clash)    DE(int)     intcor
     12.28     -13.63       1.04        0.00      99.05       2.70       0.07       1.28       ----

> <Gold.Chemscore.Fitness>
12.2844

> <Gold.Chemscore.DG>
-13.6348

> <Gold.Chemscore.ZeroCoef>
-5.4800

> <Gold.Chemscore.Hbond>
1.0445

> <Gold.Chemscore.Metal>
0.0000

> <Gold.Chemscore.Lipo>
99.0488

> <Gold.Chemscore.Internal_Hbond>
0.0000

> <Gold.Chemscore.DEClash>
0.0735

> <Gold.Chemscore.DEInternal>
1.2769

> <Gold.Chemscore.Rot>
2.7041

> <Gold.Chemscore.Internal.Correction>
   9.000000E+99

> <Gold.Chemscore.Hbonds>
donor molecule, donor type, donor heavy atom, donor atom, acceptor molecule, acceptor atom, score
      L1  H    33    63       P1  7948  0.87
      P1  H  7989  7998       L1    15  0.10

> <Gold.Chemscore.Hbond.Weighted>
-3.4886

> <Gold.Chemscore.Metal.Weighted>
-0.0000

> <Gold.Chemscore.Lipo.Weighted>
-11.5887

> <Gold.Chemscore.Internal_Hbond.Weighted>
0.0000

> <Gold.Chemscore.DEClash.Weighted>
0.0735

> <Gold.Chemscore.DEInternal.Weighted>
1.2769

> <Gold.Chemscore.Rot.Weighted>
6.9225

> <Gold.Chemscore.Internal.Correction.Weighted>
   9.000000E+99

> <Gold.Protein.RotatedTorsions>
[ 6907 6896 6895 6894 ] final   82.86 input  -60.11 | X-H torsion
[ 7974 7965 7964 7962 ] final  -77.42 input  175.53 | X-H torsion
[ 8008 7997 7996 7995 ] final  -76.41 input   59.86 | X-H torsion
[ 10167 10162 10161 10158 ] final   21.13 input  -65.29 | X-H torsion
[ 10718 10713 10712 10709 ] final   -5.85 input   66.30 | X-H torsion
[ 10763 10752 10751 10750 ] final   86.10 input  -60.55 | X-H torsion
[ 11005 11000 10999 10996 ] final -163.56 input  -57.11 | X-H torsion

> <Gold.Protein.ActiveResidues>
 VAL166  LYS551  ARG553  GLY616  TRP617  ASP618  TYR619  PRO620  LYS621  CYS622 
 ASP623  PHE694  ASN695  SER759  ASP760  ASP761  ALA762  ILE779  LEU786  VAL792 
 PHE793  MET794  SER795  GLU796  ALA797  LYS798  CYS799  TRP800  GLU811  SER814 

> <Gold.Protein.RotatedAtoms>
  152.5311  134.2985  159.9069 H   0  0  0  0  0  0  0  0  0  0  0  0  # atno 6907 bound_to 6896
  151.2936  133.4147  159.2642 H   0  0  0  0  0  0  0  0  0  0  0  0  # atno 6908 bound_to 6896
  151.0179  134.9463  159.8100 H   0  0  0  0  0  0  0  0  0  0  0  0  # atno 6909 bound_to 6896
  145.6000  140.9411  143.1246 H   0  0  0  0  0  0  0  0  0  0  0  0  # atno 7974 bound_to 7965
  154.5502  140.0727  156.8656 H   0  0  0  0  0  0  0  0  0  0  0  0  # atno 8008 bound_to 7997
  155.3007  140.3384  155.4229 H   0  0  0  0  0  0  0  0  0  0  0  0  # atno 8009 bound_to 7997
  156.1955  140.1702  156.7993 H   0  0  0  0  0  0  0  0  0  0  0  0  # atno 8010 bound_to 7997
  140.5450  143.9610  150.6542 H   0  0  0  0  0  0  0  0  0  0  0  0  # atno 10167 bound_to 10162
  156.7406  130.5208  149.5825 H   0  0  0  0  0  0  0  0  0  0  0  0  # atno 10718 bound_to 10713
  153.1538  135.4592  154.9675 H   0  0  0  0  0  0  0  0  0  0  0  0  # atno 10763 bound_to 10752
  154.7846  135.3199  154.7918 H   0  0  0  0  0  0  0  0  0  0  0  0  # atno 10764 bound_to 10752
  153.8418  135.6929  153.4856 H   0  0  0  0  0  0  0  0  0  0  0  0  # atno 10765 bound_to 10752
  140.5967  134.4989  157.5200 H   0  0  0  0  0  0  0  0  0  0  0  0  # atno 11005 bound_to 11000
  144.7314  139.7714  143.7345 LP  0  0  0  0  0  0  0  0  0  0  0  0  # atno 17320 bound_to 7965
  146.1583  139.4689  143.0004 LP  0  0  0  0  0  0  0  0  0  0  0  0  # atno 17321 bound_to 7965
  140.3021  143.3254  152.0962 LP  0  0  0  0  0  0  0  0  0  0  0  0  # atno 17342 bound_to 10162
  139.5004  144.6690  151.6287 LP  0  0  0  0  0  0  0  0  0  0  0  0  # atno 17343 bound_to 10162
  156.1467  130.6282  151.0541 LP  0  0  0  0  0  0  0  0  0  0  0  0  # atno 17370 bound_to 10713
  157.6820  131.0835  150.7344 LP  0  0  0  0  0  0  0  0  0  0  0  0  # atno 17371 bound_to 10713
  139.9250  134.8074  156.1096 LP  0  0  0  0  0  0  0  0  0  0  0  0  # atno 17394 bound_to 11000
  141.0899  133.6718  156.2518 LP  0  0  0  0  0  0  0  0  0  0  0  0  # atno 17395 bound_to 11000

$$$$
