AV-unprocessed.smi:3303|AV-procd|sdf|12691|dock4
  -GOLD-   2272019 23D 1   1.00000     0.00000
 Structure written by MMmdl.
 44 45  0  0  0  0  0  0  0  0  2 V2000
  150.8504  137.7370  154.4232 C   0  0  0  0  0  0  0  0  0  0  0  0
  149.7794  138.3244  155.3663 C   0  0  2  0  0  0  0  0  0  0  0  0
  148.4776  137.4986  155.3115 C   0  0  0  0  0  0  0  0  0  0  0  0
  147.7486  137.7093  154.0337 N   0  3  1  0  0  0  0  0  0  0  0  0
  146.6186  136.7698  153.8558 C   0  0  0  0  0  0  0  0  0  0  0  0
  147.4043  139.1364  153.7705 C   0  0  1  0  0  0  0  0  0  0  0  0
  146.2940  139.6858  154.6922 C   0  0  0  0  0  0  0  0  0  0  0  0
  148.6782  140.0047  153.8070 C   0  0  0  0  0  0  0  0  0  0  0  0
  149.4643  139.8237  155.1193 C   0  0  2  0  0  0  0  0  0  0  0  0
  150.6591  140.6599  155.0675 N   0  0  0  0  0  0  0  0  0  0  0  0
  151.6610  140.2485  156.0406 C   0  0  0  0  0  0  0  0  0  0  0  0
  151.1297  140.4913  157.4596 C   0  0  0  0  0  0  0  0  0  0  0  0
  151.5204  141.8590  157.9863 C   0  0  0  0  0  0  0  0  0  0  0  0
  152.3563  141.9833  159.1169 C   0  0  0  0  0  0  0  0  0  0  0  0
  152.6811  143.2756  159.5722 C   0  0  0  0  0  0  0  0  0  0  0  0
  152.1593  144.3881  158.8845 C   0  0  0  0  0  0  0  0  0  0  0  0
  151.3325  144.1577  157.7668 C   0  0  0  0  0  0  0  0  0  0  0  0
  151.0143  142.9227  157.3219 N   0  0  0  0  0  0  0  0  0  0  0  0
  150.5471  137.7852  153.3778 H   0  0  0  0  0  0  0  0  0  0  0  0
  151.0434  136.6904  154.6593 H   0  0  0  0  0  0  0  0  0  0  0  0
  151.8001  138.2641  154.5173 H   0  0  0  0  0  0  0  0  0  0  0  0
  150.1663  138.2195  156.3799 H   0  0  0  0  0  0  0  0  0  0  0  0
  148.7115  136.4394  155.4270 H   0  0  0  0  0  0  0  0  0  0  0  0
  147.8321  137.7580  156.1510 H   0  0  0  0  0  0  0  0  0  0  0  0
  145.8853  136.8691  154.6567 H   0  0  0  0  0  0  0  0  0  0  0  0
  146.9791  135.7408  153.8583 H   0  0  0  0  0  0  0  0  0  0  0  0
  146.1168  136.9418  152.9031 H   0  0  0  0  0  0  0  0  0  0  0  0
  147.0195  139.1852  152.7509 H   0  0  0  0  0  0  0  0  0  0  0  0
  146.0863  140.7310  154.4611 H   0  0  0  0  0  0  0  0  0  0  0  0
  146.5649  139.6369  155.7463 H   0  0  0  0  0  0  0  0  0  0  0  0
  145.3567  139.1445  154.5640 H   0  0  0  0  0  0  0  0  0  0  0  0
  149.3115  139.7455  152.9576 H   0  0  0  0  0  0  0  0  0  0  0  0
  148.4133  141.0540  153.6691 H   0  0  0  0  0  0  0  0  0  0  0  0
  148.8380  140.1897  155.9341 H   0  0  0  0  0  0  0  0  0  0  0  0
  150.4027  141.6192  155.2540 H   0  0  0  0  0  0  0  0  0  0  0  0
  151.8941  139.1914  155.9056 H   0  0  0  0  0  0  0  0  0  0  0  0
  152.5832  140.8110  155.8970 H   0  0  0  0  0  0  0  0  0  0  0  0
  150.0424  140.4012  157.4728 H   0  0  0  0  0  0  0  0  0  0  0  0
  151.5097  139.7285  158.1411 H   0  0  0  0  0  0  0  0  0  0  0  0
  152.7386  141.1106  159.6258 H   0  0  0  0  0  0  0  0  0  0  0  0
  153.3177  143.4106  160.4341 H   0  0  0  0  0  0  0  0  0  0  0  0
  152.3867  145.3937  159.2057 H   0  0  0  0  0  0  0  0  0  0  0  0
  150.9143  144.9873  157.2161 H   0  0  0  0  0  0  0  0  0  0  0  0
  148.4100  137.4644  153.3105 H   0  0  0  0  0  0  0  0  0  0  0  0
  1  2  1  0  0  0  0
  1 19  1  0  0  0  0
  1 20  1  0  0  0  0
  1 21  1  0  0  0  0
  2  9  1  0  0  0  0
  2  3  1  0  0  0  0
  2 22  1  0  0  0  0
  3  4  1  0  0  0  0
  3 23  1  0  0  0  0
  3 24  1  0  0  0  0
  4  5  1  0  0  0  0
  4  6  1  0  0  0  0
  4 44  1  0  0  0  0
  5 25  1  0  0  0  0
  5 26  1  0  0  0  0
  5 27  1  0  0  0  0
  6  7  1  0  0  0  0
  6  8  1  0  0  0  0
  6 28  1  0  0  0  0
  7 29  1  0  0  0  0
  7 30  1  0  0  0  0
  7 31  1  0  0  0  0
  8  9  1  0  0  0  0
  8 32  1  0  0  0  0
  8 33  1  0  0  0  0
  9 10  1  0  0  0  0
  9 34  1  0  0  0  0
 10 11  1  0  0  0  0
 10 35  1  0  0  0  0
 11 12  1  0  0  0  0
 11 36  1  0  0  0  0
 11 37  1  0  0  0  0
 12 13  1  0  0  0  0
 12 38  1  0  0  0  0
 12 39  1  0  0  0  0
 13 18  1  0  0  0  0
 13 14  2  0  0  0  0
 14 15  1  0  0  0  0
 14 40  1  0  0  0  0
 15 16  2  0  0  0  0
 15 41  1  0  0  0  0
 16 17  1  0  0  0  0
 16 42  1  0  0  0  0
 17 18  2  0  0  0  0
 17 43  1  0  0  0  0
M  CHG  1   4   1
M  END
> <s_m_source_file>
AV-unprocessed.smi

> <i_m_source_file_index>
3303

> <i_lp_mmshare_version>
43012

> <i_f3d_flags>
0

> <s_epik_input>
W0NIM11bQ0BASF0xW0NIMl1OKFtDSDNdKVtDQEBIXShbQ0gzXSlbQ0gyXVtDQEhdMVtOSF1bQ0gyXVtDSDJdYzJbY0hdW2NIXVtjSF1bY0hdbjI=

> <s_epik_cmdline>
J2VwaWtfcHl0aG9uJywgJy1waCcsICc3LjAnLCAnLXRuJywgJzgnLCAnLW1hJywgJzIwMCcsICctbWV0YWxfYmluZGluZycsICctaW1hZScsICc8aW5maWxlLm1hZT4nLCAnLW9tYWUnLCAnPG91dGZpbGUubWFlPic=

> <r_epik_Ionization_Penalty>
2.31085

> <r_epik_Ionization_Penalty_Charging>
0.000313057

> <r_epik_Ionization_Penalty_Neutral>
2.31054

> <r_epik_State_Penalty>
2.4087

> <r_epik_Charging_Adjusted_Penalty>
2.40902

> <i_epik_Tot_Q>
1

> <i_epik_Tot_abs_Q>
1

> <r_epik_Metal_State_Penalty>
2.30979

> <b_epik_Metal_Only>
0

> <s_lp_Force_Field>
OPLS_2005

> <r_lp_Energy>
26.3276

> <b_lp_Chiralities_Consistent>
1

> <s_lp_Variant>
AV-unprocessed.smi:3303-35

> <Gold.Version>
5.8.1

> <Gold.Id.Protein>
6NUR|6NUR_protein|mol2

> <Gold.PLP.Fitness>
42.6898

> <Gold.PLP.PLP>
-32.2289

> <Gold.PLP.part.hbond>
-2.0000

> <Gold.PLP.part.metal>
0.0000

> <Gold.PLP.part.buried>
-0.0106

> <Gold.PLP.part.nonpolar>
-31.0974

> <Gold.PLP.part.repulsive>
0.1275

> <Gold.PLP.ligand.clash>
0.0000

> <Gold.PLP.ligand.torsion>
0.4161

> <Gold.PLP.Chemscore.Hbond>
2.9120

> <Gold.PLP.Chemscore.CHOScore>
0.8474

> <Gold.PLP.Chemscore.Metal>
0.0000

> <Gold.Chemscore.Hbonds>
donor molecule, donor type, donor heavy atom, donor atom, acceptor molecule, acceptor atom, score
      L1  H     4    44       P1  7948  1.98
      P1  H  7989  7998       L1    10  0.93
      L1  C    17    43       P1  8028  0.87

> <Gold.PLP.Chemscore.Internal.Correction>
0.0150

> <Gold.Rescore>
     Score         DG    S(hbond)    S(metal)    S(lipo)     H(rot)  DE(clash)    DE(int)     intcor
     16.46     -17.46       0.98        0.00     103.35       1.33       0.61       0.40       ----

> <Gold.Chemscore.Fitness>
16.4562

> <Gold.Chemscore.DG>
-17.4608

> <Gold.Chemscore.ZeroCoef>
-5.4800

> <Gold.Chemscore.Hbond>
0.9840

> <Gold.Chemscore.Metal>
0.0000

> <Gold.Chemscore.Lipo>
103.3500

> <Gold.Chemscore.Internal_Hbond>
0.0000

> <Gold.Chemscore.DEClash>
0.6070

> <Gold.Chemscore.DEInternal>
0.3976

> <Gold.Chemscore.Rot>
1.3272

> <Gold.Chemscore.Internal.Correction>
   9.000000E+99

> <Gold.Chemscore.Hbonds>
donor molecule, donor type, donor heavy atom, donor atom, acceptor molecule, acceptor atom, score
      L1  H     4    44       P1  7948  0.93
      P1  H  7989  7998       L1    10  0.10

> <Gold.Chemscore.Hbond.Weighted>
-3.2865

> <Gold.Chemscore.Metal.Weighted>
-0.0000

> <Gold.Chemscore.Lipo.Weighted>
-12.0920

> <Gold.Chemscore.Internal_Hbond.Weighted>
0.0000

> <Gold.Chemscore.DEClash.Weighted>
0.6070

> <Gold.Chemscore.DEInternal.Weighted>
0.3976

> <Gold.Chemscore.Rot.Weighted>
3.3976

> <Gold.Chemscore.Internal.Correction.Weighted>
   9.000000E+99

> <Gold.Protein.RotatedTorsions>
[ 6907 6896 6895 6894 ] final -143.56 input  -60.11 | X-H torsion
[ 7974 7965 7964 7962 ] final   56.75 input  175.53 | X-H torsion
[ 8008 7997 7996 7995 ] final   13.30 input   59.86 | X-H torsion
[ 10167 10162 10161 10158 ] final  166.90 input  -65.29 | X-H torsion
[ 10718 10713 10712 10709 ] final  -19.45 input   66.30 | X-H torsion
[ 10763 10752 10751 10750 ] final -173.33 input  -60.55 | X-H torsion
[ 11005 11000 10999 10996 ] final  146.89 input  -57.11 | X-H torsion

> <Gold.Protein.ActiveResidues>
 VAL166  LYS551  ARG553  GLY616  TRP617  ASP618  TYR619  PRO620  LYS621  CYS622 
 ASP623  PHE694  ASN695  SER759  ASP760  ASP761  ALA762  ILE779  LEU786  VAL792 
 PHE793  MET794  SER795  GLU796  ALA797  LYS798  CYS799  TRP800  GLU811  SER814 

> <Gold.Protein.RotatedAtoms>
  151.1021  133.5236  159.2609 H   0  0  0  0  0  0  0  0  0  0  0  0  # atno 6907 bound_to 6896
  151.2063  135.0462  159.8902 H   0  0  0  0  0  0  0  0  0  0  0  0  # atno 6908 bound_to 6896
  152.5444  134.0842  159.8302 H   0  0  0  0  0  0  0  0  0  0  0  0  # atno 6909 bound_to 6896
  145.9365  139.3851  143.0390 H   0  0  0  0  0  0  0  0  0  0  0  0  # atno 7974 bound_to 7965
  154.8326  140.2902  155.5712 H   0  0  0  0  0  0  0  0  0  0  0  0  # atno 8008 bound_to 7997
  156.3006  140.2529  156.3185 H   0  0  0  0  0  0  0  0  0  0  0  0  # atno 8009 bound_to 7997
  154.9214  140.0386  157.1989 H   0  0  0  0  0  0  0  0  0  0  0  0  # atno 8010 bound_to 7997
  139.4934  144.3978  151.9444 H   0  0  0  0  0  0  0  0  0  0  0  0  # atno 10167 bound_to 10162
  156.5455  130.4688  149.6478 H   0  0  0  0  0  0  0  0  0  0  0  0  # atno 10718 bound_to 10713
  154.6091  135.2862  155.0452 H   0  0  0  0  0  0  0  0  0  0  0  0  # atno 10763 bound_to 10752
  154.1689  135.6476  153.5008 H   0  0  0  0  0  0  0  0  0  0  0  0  # atno 10764 bound_to 10752
  153.0187  135.5396  154.6838 H   0  0  0  0  0  0  0  0  0  0  0  0  # atno 10765 bound_to 10752
  140.0830  134.9086  157.1531 H   0  0  0  0  0  0  0  0  0  0  0  0  # atno 11005 bound_to 11000
  145.8357  140.9607  143.0825 LP  0  0  0  0  0  0  0  0  0  0  0  0  # atno 17320 bound_to 7965
  144.6772  140.0220  143.7483 LP  0  0  0  0  0  0  0  0  0  0  0  0  # atno 17321 bound_to 7965
  140.3417  144.3196  150.5966 LP  0  0  0  0  0  0  0  0  0  0  0  0  # atno 17342 bound_to 10162
  140.5560  143.2199  151.7846 LP  0  0  0  0  0  0  0  0  0  0  0  0  # atno 17343 bound_to 10162
  156.2933  130.7136  151.1990 LP  0  0  0  0  0  0  0  0  0  0  0  0  # atno 17370 bound_to 10713
  157.7397  131.0525  150.5212 LP  0  0  0  0  0  0  0  0  0  0  0  0  # atno 17371 bound_to 10713
  140.3460  134.2651  155.7205 LP  0  0  0  0  0  0  0  0  0  0  0  0  # atno 17394 bound_to 11000
  141.2053  133.7863  157.0239 LP  0  0  0  0  0  0  0  0  0  0  0  0  # atno 17395 bound_to 11000

$$$$
