AV-unprocessed.smi:844|AV-procd|sdf|3924|dock9
  -GOLD-   22720 1383D 1   1.00000     0.00000
 Structure written by MMmdl.
 32 34  0  0  0  0  0  0  0  0  1 V2000
  152.1448  143.6910  158.1789 O   0  0  0  0  0  0  0  0  0  0  0  0
  151.8473  142.5510  158.9597 C   0  0  1  0  0  0  0  0  0  0  0  0
  152.2324  141.2992  158.1463 C   0  0  0  0  0  0  0  0  0  0  0  0
  151.2937  141.0323  157.0710 N   0  0  0  0  0  0  0  0  0  0  0  0
  150.1135  141.6444  156.8559 C   0  0  0  0  0  0  0  0  0  0  0  0
  149.3955  141.2358  155.8135 N   0  0  0  0  0  0  0  0  0  0  0  0
  150.2041  140.2412  155.2904 C   0  0  0  0  0  0  0  0  0  0  0  0
  150.0151  139.3998  154.1708 C   0  0  0  0  0  0  0  0  0  0  0  0
  150.9896  138.4401  153.8257 C   0  0  0  0  0  0  0  0  0  0  0  0
  152.1662  138.3080  154.5914 C   0  0  0  0  0  0  0  0  0  0  0  0
  152.3776  139.1364  155.7100 C   0  0  0  0  0  0  0  0  0  0  0  0
  151.4020  140.0913  156.0525 C   0  0  0  0  0  0  0  0  0  0  0  0
  152.5306  142.5898  160.3227 C   0  0  0  0  0  0  0  0  0  0  0  0
  153.4512  141.5815  160.6869 C   0  0  0  0  0  0  0  0  0  0  0  0
  154.0645  141.6004  161.9542 C   0  0  0  0  0  0  0  0  0  0  0  0
  153.7613  142.6269  162.8679 C   0  0  0  0  0  0  0  0  0  0  0  0
  154.3500  142.6442  164.0873 F   0  0  0  0  0  0  0  0  0  0  0  0
  152.8440  143.6342  162.5135 C   0  0  0  0  0  0  0  0  0  0  0  0
  152.2287  143.6171  161.2466 C   0  0  0  0  0  0  0  0  0  0  0  0
  151.3379  144.5871  160.9283 F   0  0  0  0  0  0  0  0  0  0  0  0
  151.6401  143.6474  157.3811 H   0  0  0  0  0  0  0  0  0  0  0  0
  150.7662  142.5596  159.1027 H   0  0  0  0  0  0  0  0  0  0  0  0
  153.2200  141.4302  157.7012 H   0  0  0  0  0  0  0  0  0  0  0  0
  152.2955  140.4200  158.7888 H   0  0  0  0  0  0  0  0  0  0  0  0
  149.7588  142.4320  157.5047 H   0  0  0  0  0  0  0  0  0  0  0  0
  149.1173  139.4916  153.5776 H   0  0  0  0  0  0  0  0  0  0  0  0
  150.8331  137.8014  152.9688 H   0  0  0  0  0  0  0  0  0  0  0  0
  152.9063  137.5696  154.3197 H   0  0  0  0  0  0  0  0  0  0  0  0
  153.2760  139.0356  156.3004 H   0  0  0  0  0  0  0  0  0  0  0  0
  153.6846  140.7831  159.9978 H   0  0  0  0  0  0  0  0  0  0  0  0
  154.7657  140.8252  162.2261 H   0  0  0  0  0  0  0  0  0  0  0  0
  152.6088  144.4198  163.2161 H   0  0  0  0  0  0  0  0  0  0  0  0
  1  2  1  0  0  0  0
  1 21  1  0  0  0  0
  2  3  1  0  0  0  0
  2 13  1  0  0  0  0
  2 22  1  0  0  0  0
  3  4  1  0  0  0  0
  3 23  1  0  0  0  0
  3 24  1  0  0  0  0
  4 12  1  0  0  0  0
  4  5  1  0  0  0  0
  5  6  2  0  0  0  0
  5 25  1  0  0  0  0
  6  7  1  0  0  0  0
  7 12  2  0  0  0  0
  7  8  1  0  0  0  0
  8  9  2  0  0  0  0
  8 26  1  0  0  0  0
  9 10  1  0  0  0  0
  9 27  1  0  0  0  0
 10 11  2  0  0  0  0
 10 28  1  0  0  0  0
 11 12  1  0  0  0  0
 11 29  1  0  0  0  0
 13 19  1  0  0  0  0
 13 14  2  0  0  0  0
 14 15  1  0  0  0  0
 14 30  1  0  0  0  0
 15 16  2  0  0  0  0
 15 31  1  0  0  0  0
 16 17  1  0  0  0  0
 16 18  1  0  0  0  0
 18 19  2  0  0  0  0
 18 32  1  0  0  0  0
 19 20  1  0  0  0  0
M  END
> <s_m_source_file>
AV-unprocessed.smi

> <i_m_source_file_index>
844

> <i_lp_mmshare_version>
43012

> <i_f3d_flags>
0

> <s_epik_input>
RmMxW2NIXWMoRilbY0hdW2NIXWMxW0NASF0oW09IXSlbQ0gyXW4oW2NIXW4yKWMoYzIzKVtjSF1bY0hdW2NIXVtjSF0z

> <s_epik_cmdline>
J2VwaWtfcHl0aG9uJywgJy1waCcsICc3LjAnLCAnLXRuJywgJzgnLCAnLW1hJywgJzIwMCcsICctbWV0YWxfYmluZGluZycsICctaW1hZScsICc8aW5maWxlLm1hZT4nLCAnLW9tYWUnLCAnPG91dGZpbGUubWFlPic=

> <r_epik_Ionization_Penalty>
0.0696514

> <r_epik_Ionization_Penalty_Charging>
0

> <r_epik_Ionization_Penalty_Neutral>
0.0696514

> <r_epik_State_Penalty>
0.0610247

> <r_epik_Charging_Adjusted_Penalty>
0.0610247

> <i_epik_Tot_Q>
0

> <i_epik_Tot_abs_Q>
0

> <r_epik_Metal_State_Penalty>
6.42746e-05

> <b_epik_Metal_Only>
0

> <s_lp_Force_Field>
OPLS_2005

> <r_lp_Energy>
12.0275

> <b_lp_Chiralities_Consistent>
1

> <s_lp_Variant>
AV-unprocessed.smi:844-2

> <Gold.Version>
5.8.1

> <Gold.Id.Protein>
6NUR|6NUR_protein|mol2

> <Gold.PLP.Fitness>
51.3650

> <Gold.PLP.PLP>
-51.7776

> <Gold.PLP.part.hbond>
0.0000

> <Gold.PLP.part.metal>
0.0000

> <Gold.PLP.part.buried>
-2.0427

> <Gold.PLP.part.nonpolar>
-48.1635

> <Gold.PLP.part.repulsive>
0.0888

> <Gold.PLP.ligand.clash>
0.0000

> <Gold.PLP.ligand.torsion>
0.2130

> <Gold.PLP.Chemscore.Hbond>
0.0000

> <Gold.PLP.Chemscore.CHOScore>
0.0000

> <Gold.PLP.Chemscore.Metal>
0.0000

> <Gold.PLP.Chemscore.Internal.Correction>
0.0135

> <Gold.Rescore>
     Score         DG    S(hbond)    S(metal)    S(lipo)     H(rot)  DE(clash)    DE(int)     intcor
     15.03     -15.40       0.00        0.00     128.62       2.00       0.05       0.32       ----

> <Gold.Chemscore.Fitness>
15.0296

> <Gold.Chemscore.DG>
-15.3981

> <Gold.Chemscore.ZeroCoef>
-5.4800

> <Gold.Chemscore.Hbond>
0.0000

> <Gold.Chemscore.Metal>
0.0000

> <Gold.Chemscore.Lipo>
128.6192

> <Gold.Chemscore.Internal_Hbond>
0.0000

> <Gold.Chemscore.DEClash>
0.0513

> <Gold.Chemscore.DEInternal>
0.3172

> <Gold.Chemscore.Rot>
2.0040

> <Gold.Chemscore.Internal.Correction>
   9.000000E+99

> <Gold.Chemscore.Hbond.Weighted>
-0.0000

> <Gold.Chemscore.Metal.Weighted>
-0.0000

> <Gold.Chemscore.Lipo.Weighted>
-15.0485

> <Gold.Chemscore.Internal_Hbond.Weighted>
0.0000

> <Gold.Chemscore.DEClash.Weighted>
0.0513

> <Gold.Chemscore.DEInternal.Weighted>
0.3172

> <Gold.Chemscore.Rot.Weighted>
5.1303

> <Gold.Chemscore.Internal.Correction.Weighted>
   9.000000E+99

> <Gold.Protein.RotatedTorsions>
[ 6907 6896 6895 6894 ] final -117.16 input  -60.11 | X-H torsion
[ 7974 7965 7964 7962 ] final  145.18 input  175.53 | X-H torsion
[ 8008 7997 7996 7995 ] final   38.53 input   59.86 | X-H torsion
[ 10167 10162 10161 10158 ] final -102.71 input  -65.29 | X-H torsion
[ 10718 10713 10712 10709 ] final  -60.04 input   66.30 | X-H torsion
[ 10763 10752 10751 10750 ] final   16.76 input  -60.55 | X-H torsion
[ 11005 11000 10999 10996 ] final  -82.83 input  -57.11 | X-H torsion

> <Gold.Protein.ActiveResidues>
 VAL166  LYS551  ARG553  GLY616  TRP617  ASP618  TYR619  PRO620  LYS621  CYS622 
 ASP623  PHE694  ASN695  SER759  ASP760  ASP761  ALA762  ILE779  LEU786  VAL792 
 PHE793  MET794  SER795  GLU796  ALA797  LYS798  CYS799  TRP800  GLU811  SER814 

> <Gold.Protein.RotatedAtoms>
  150.8114  133.8416  159.3180 H   0  0  0  0  0  0  0  0  0  0  0  0  # atno 6907 bound_to 6896
  151.6200  135.1031  160.0109 H   0  0  0  0  0  0  0  0  0  0  0  0  # atno 6908 bound_to 6896
  152.4205  133.7069  159.6513 H   0  0  0  0  0  0  0  0  0  0  0  0  # atno 6909 bound_to 6896
  144.8774  139.5752  143.5859 H   0  0  0  0  0  0  0  0  0  0  0  0  # atno 7974 bound_to 7965
  155.2217  140.3331  155.4315 H   0  0  0  0  0  0  0  0  0  0  0  0  # atno 8008 bound_to 7997
  156.2330  140.1859  156.7239 H   0  0  0  0  0  0  0  0  0  0  0  0  # atno 8009 bound_to 7997
  154.6011  140.0623  156.9355 H   0  0  0  0  0  0  0  0  0  0  0  0  # atno 8010 bound_to 7997
  140.2278  143.3629  152.0914 H   0  0  0  0  0  0  0  0  0  0  0  0  # atno 10167 bound_to 10162
  156.1019  130.4185  150.0799 H   0  0  0  0  0  0  0  0  0  0  0  0  # atno 10718 bound_to 10713
  153.1401  135.6758  153.9040 H   0  0  0  0  0  0  0  0  0  0  0  0  # atno 10763 bound_to 10752
  153.8500  135.3094  155.3433 H   0  0  0  0  0  0  0  0  0  0  0  0  # atno 10764 bound_to 10752
  154.7780  135.4904  153.9869 H   0  0  0  0  0  0  0  0  0  0  0  0  # atno 10765 bound_to 10752
  141.1661  133.7264  156.8630 H   0  0  0  0  0  0  0  0  0  0  0  0  # atno 11005 bound_to 11000
  146.2972  139.7313  142.9118 LP  0  0  0  0  0  0  0  0  0  0  0  0  # atno 17320 bound_to 7965
  145.4018  141.0386  143.3066 LP  0  0  0  0  0  0  0  0  0  0  0  0  # atno 17321 bound_to 7965
  139.5121  144.6911  151.5757 LP  0  0  0  0  0  0  0  0  0  0  0  0  # atno 17342 bound_to 10162
  140.6208  143.9262  150.6524 LP  0  0  0  0  0  0  0  0  0  0  0  0  # atno 17343 bound_to 10162
  156.8784  130.9548  151.3602 LP  0  0  0  0  0  0  0  0  0  0  0  0  # atno 17370 bound_to 10713
  157.6190  130.8640  149.9076 LP  0  0  0  0  0  0  0  0  0  0  0  0  # atno 17371 bound_to 10713
  140.1835  134.9016  157.2976 LP  0  0  0  0  0  0  0  0  0  0  0  0  # atno 17394 bound_to 11000
  140.2369  134.3842  155.7497 LP  0  0  0  0  0  0  0  0  0  0  0  0  # atno 17395 bound_to 11000

$$$$
