AV-unprocessed.smi:160|AV-procd|sdf|1364|dock3
  -GOLD-   2262019 73D 1   1.00000     0.00000
 Structure written by MMmdl.
 28 29  0  0  0  0  0  0  0  0  2 V2000
  154.1457  138.4093  157.8317 N   0  5  0  0  0  0  0  0  0  0  0  0
  153.6900  137.4313  157.0190 C   0  0  0  0  0  0  0  0  0  0  0  0
  154.0653  136.2592  157.0129 O   0  0  0  0  0  0  0  0  0  0  0  0
  152.6233  137.8685  156.0429 C   0  0  0  0  0  0  0  0  0  0  0  0
  151.9685  136.9490  155.2702 N   0  0  0  0  0  0  0  0  0  0  0  0
  151.1673  137.7664  154.6005 C   0  0  0  0  0  0  0  0  0  0  0  0
  151.3109  139.0565  154.9157 N   0  0  0  0  0  0  0  0  0  0  0  0
  150.5925  140.2585  154.3760 C   0  0  1  0  0  0  0  0  0  0  0  0
  149.6141  139.8254  153.4790 O   0  0  0  0  0  0  0  0  0  0  0  0
  148.3353  139.8734  154.1024 C   0  0  2  0  0  0  0  0  0  0  0  0
  147.2053  139.8858  153.0576 C   0  0  0  0  0  0  0  0  0  0  0  0
  147.3575  138.8061  152.1613 O   0  0  0  0  0  0  0  0  0  0  0  0
  148.4393  141.1296  154.9801 C   0  0  2  0  0  0  0  0  0  0  0  0
  148.1990  142.3026  154.2227 O   0  0  0  0  0  0  0  0  0  0  0  0
  149.8851  141.1016  155.4662 C   0  0  1  0  0  0  0  0  0  0  0  0
  149.9506  140.5545  156.7717 O   0  0  0  0  0  0  0  0  0  0  0  0
  152.2658  139.1454  155.8753 N   0  0  0  0  0  0  0  0  0  0  0  0
  151.3627  140.8128  153.8387 H   0  0  0  0  0  0  0  0  0  0  0  0
  148.2225  139.0087  154.7588 H   0  0  0  0  0  0  0  0  0  0  0  0
  147.7201  141.1088  155.8002 H   0  0  0  0  0  0  0  0  0  0  0  0
  150.3267  142.0988  155.4940 H   0  0  0  0  0  0  0  0  0  0  0  0
  154.0652  138.2813  158.8472 H   0  0  0  0  0  0  0  0  0  0  0  0
  150.4629  137.4166  153.8602 H   0  0  0  0  0  0  0  0  0  0  0  0
  146.2399  139.7648  153.5494 H   0  0  0  0  0  0  0  0  0  0  0  0
  147.1781  140.8286  152.5103 H   0  0  0  0  0  0  0  0  0  0  0  0
  148.1036  138.9762  151.6074 H   0  0  0  0  0  0  0  0  0  0  0  0
  148.6549  143.0217  154.6320 H   0  0  0  0  0  0  0  0  0  0  0  0
  150.7106  139.9959  156.8276 H   0  0  0  0  0  0  0  0  0  0  0  0
  1  2  1  0  0  0  0
  1 22  1  0  0  0  0
  2  3  2  0  0  0  0
  2  4  1  0  0  0  0
  4 17  2  0  0  0  0
  4  5  1  0  0  0  0
  5  6  2  0  0  0  0
  6  7  1  0  0  0  0
  6 23  1  0  0  0  0
  7  8  1  0  0  0  0
  7 17  1  0  0  0  0
  8 18  1  0  0  0  0
  8 15  1  0  0  0  0
  8  9  1  0  0  0  0
  9 10  1  0  0  0  0
 10 19  1  0  0  0  0
 10 11  1  0  0  0  0
 10 13  1  0  0  0  0
 11 12  1  0  0  0  0
 11 24  1  0  0  0  0
 11 25  1  0  0  0  0
 12 26  1  0  0  0  0
 13 20  1  0  0  0  0
 13 14  1  0  0  0  0
 13 15  1  0  0  0  0
 14 27  1  0  0  0  0
 15 21  1  0  0  0  0
 15 16  1  0  0  0  0
 16 28  1  0  0  0  0
M  CHG  1   1  -1
M  END
> <s_m_source_file>
AV-unprocessed.smi

> <i_m_source_file_index>
160

> <i_lp_mmshare_version>
43012

> <i_f3d_flags>
0

> <s_epik_input>
W05IMl1DKD1PKWMxbltjSF1uKG4xKVtDQEBIXTJPW0NASF0oW0NIMl1bT0hdKVtDQEBIXShbT0hdKVtDQEhdMltPSF0=

> <s_epik_cmdline>
J2VwaWtfcHl0aG9uJywgJy1waCcsICc3LjAnLCAnLXRuJywgJzgnLCAnLW1hJywgJzIwMCcsICctbWV0YWxfYmluZGluZycsICctaW1hZScsICc8aW5maWxlLm1hZT4nLCAnLW9tYWUnLCAnPG91dGZpbGUubWFlPic=

> <r_lp_tautomer_probability>
1

> <r_epik_Ionization_Penalty>
6.6993

> <r_epik_Ionization_Penalty_Charging>
6.6993

> <r_epik_Ionization_Penalty_Neutral>
6.01698e-06

> <r_epik_State_Penalty>
6.69929

> <r_epik_Charging_Adjusted_Penalty>
13.3986

> <i_epik_Tot_Q>
-1

> <i_epik_Tot_abs_Q>
1

> <r_epik_Metal_State_Penalty>
2.62798

> <b_epik_Metal_Only>
1

> <s_epik_Chemistry_Notes>
This compound contains an acetal/aminal-like group ( X-CH(R)-Y where X, Y are N, S, or O) that may be acid/base labile, releasing an aldehyde.

> <s_lp_Force_Field>
OPLS_2005

> <r_lp_Energy>
46.6633

> <b_lp_Chiralities_Consistent>
1

> <s_lp_Variant>
AV-unprocessed.smi:160-22

> <Gold.Version>
5.8.1

> <Gold.Id.Protein>
6NUR|6NUR_protein|mol2

> <Gold.PLP.Fitness>
40.4489

> <Gold.PLP.PLP>
-22.2021

> <Gold.PLP.part.hbond>
-8.0000

> <Gold.PLP.part.metal>
0.0000

> <Gold.PLP.part.buried>
-0.3795

> <Gold.PLP.part.nonpolar>
-19.0434

> <Gold.PLP.part.repulsive>
5.1305

> <Gold.PLP.ligand.clash>
0.0000

> <Gold.PLP.ligand.torsion>
0.0970

> <Gold.PLP.Chemscore.Hbond>
5.6640

> <Gold.PLP.Chemscore.CHOScore>
0.4815

> <Gold.PLP.Chemscore.Metal>
0.0000

> <Gold.Chemscore.Hbonds>
donor molecule, donor type, donor heavy atom, donor atom, acceptor molecule, acceptor atom, score
      L1  H    12    26       P1  7957  1.00
      L1  H    14    27       P1  8028  1.00
      P1  H  7997  8008       L1     1  1.92
      P1  H 10752 10763       L1     3  0.99
      P1  H 10752 10765       L1     5  0.67
      L1  C     6    23       P1  7948  0.45
      L1  C     6    23       P1  7949  0.10

> <Gold.PLP.Chemscore.Internal.Correction>
0.0044

> <Gold.Rescore>
     Score         DG    S(hbond)    S(metal)    S(lipo)     H(rot)  DE(clash)    DE(int)     intcor
      8.42     -13.07       4.49        0.00      25.24       4.04       3.26       1.40       ----

> <Gold.Chemscore.Fitness>
8.4162

> <Gold.Chemscore.DG>
-13.0705

> <Gold.Chemscore.ZeroCoef>
-5.4800

> <Gold.Chemscore.Hbond>
4.4850

> <Gold.Chemscore.Metal>
0.0000

> <Gold.Chemscore.Lipo>
25.2441

> <Gold.Chemscore.Internal_Hbond>
0.0000

> <Gold.Chemscore.DEClash>
3.2564

> <Gold.Chemscore.DEInternal>
1.3979

> <Gold.Chemscore.Rot>
4.0403

> <Gold.Chemscore.Internal.Correction>
   9.000000E+99

> <Gold.Chemscore.Hbonds>
donor molecule, donor type, donor heavy atom, donor atom, acceptor molecule, acceptor atom, score
      L1  H    12    26       P1  7957  0.82
      L1  H    14    27       P1  8028  0.97
      P1  H  7997  8008       L1     1  0.89
      P1  H 10752 10763       L1     3  0.91
      P1  H 10752 10765       L1     5  0.62

> <Gold.Chemscore.Hbond.Weighted>
-14.9800

> <Gold.Chemscore.Metal.Weighted>
-0.0000

> <Gold.Chemscore.Lipo.Weighted>
-2.9536

> <Gold.Chemscore.Internal_Hbond.Weighted>
0.0000

> <Gold.Chemscore.DEClash.Weighted>
3.2564

> <Gold.Chemscore.DEInternal.Weighted>
1.3979

> <Gold.Chemscore.Rot.Weighted>
10.3431

> <Gold.Chemscore.Internal.Correction.Weighted>
   9.000000E+99

> <Gold.Protein.RotatedTorsions>
[ 6907 6896 6895 6894 ] final -169.49 input  -60.11 | X-H torsion
[ 7974 7965 7964 7962 ] final  114.69 input  175.53 | X-H torsion
[ 8008 7997 7996 7995 ] final -100.42 input   59.86 | X-H torsion
[ 10167 10162 10161 10158 ] final -133.48 input  -65.29 | X-H torsion
[ 10718 10713 10712 10709 ] final   34.68 input   66.30 | X-H torsion
[ 10763 10752 10751 10750 ] final  156.81 input  -60.55 | X-H torsion
[ 11005 11000 10999 10996 ] final  107.97 input  -57.11 | X-H torsion

> <Gold.Protein.ActiveResidues>
 VAL166  LYS551  ARG553  GLY616  TRP617  ASP618  TYR619  PRO620  LYS621  CYS622 
 ASP623  PHE694  ASN695  SER759  ASP760  ASP761  ALA762  ILE779  LEU786  VAL792 
 PHE793  MET794  SER795  GLU796  ALA797  LYS798  CYS799  TRP800  GLU811  SER814 

> <Gold.Protein.RotatedAtoms>
  151.4925  133.3522  159.2855 H   0  0  0  0  0  0  0  0  0  0  0  0  # atno 6907 bound_to 6896
  150.8826  134.8221  159.7246 H   0  0  0  0  0  0  0  0  0  0  0  0  # atno 6908 bound_to 6896
  152.4772  134.4824  159.9721 H   0  0  0  0  0  0  0  0  0  0  0  0  # atno 6909 bound_to 6896
  145.2013  139.2951  143.4317 H   0  0  0  0  0  0  0  0  0  0  0  0  # atno 7974 bound_to 7965
  154.8283  140.0441  157.1459 H   0  0  0  0  0  0  0  0  0  0  0  0  # atno 8008 bound_to 7997
  154.9181  140.3023  155.5210 H   0  0  0  0  0  0  0  0  0  0  0  0  # atno 8009 bound_to 7997
  156.2985  140.2346  156.4228 H   0  0  0  0  0  0  0  0  0  0  0  0  # atno 8010 bound_to 7997
  139.8978  143.6644  152.2600 H   0  0  0  0  0  0  0  0  0  0  0  0  # atno 10167 bound_to 10162
  157.3133  130.7410  149.6739 H   0  0  0  0  0  0  0  0  0  0  0  0  # atno 10718 bound_to 10713
  154.1903  135.2795  155.3024 H   0  0  0  0  0  0  0  0  0  0  0  0  # atno 10763 bound_to 10752
  154.5934  135.5552  153.7305 H   0  0  0  0  0  0  0  0  0  0  0  0  # atno 10764 bound_to 10752
  153.0114  135.6374  154.2041 H   0  0  0  0  0  0  0  0  0  0  0  0  # atno 10765 bound_to 10752
  139.8836  134.9417  156.5901 H   0  0  0  0  0  0  0  0  0  0  0  0  # atno 11005 bound_to 11000
  146.3417  140.2259  142.8592 LP  0  0  0  0  0  0  0  0  0  0  0  0  # atno 17320 bound_to 7965
  144.9945  140.8577  143.5319 LP  0  0  0  0  0  0  0  0  0  0  0  0  # atno 17321 bound_to 7965
  139.7052  144.7629  151.1205 LP  0  0  0  0  0  0  0  0  0  0  0  0  # atno 17342 bound_to 10162
  140.7713  143.5404  150.9319 LP  0  0  0  0  0  0  0  0  0  0  0  0  # atno 17343 bound_to 10162
  155.9679  130.4245  150.4610 LP  0  0  0  0  0  0  0  0  0  0  0  0  # atno 17370 bound_to 10713
  157.2612  131.0567  151.2319 LP  0  0  0  0  0  0  0  0  0  0  0  0  # atno 17371 bound_to 10713
  140.7962  133.8542  155.8688 LP  0  0  0  0  0  0  0  0  0  0  0  0  # atno 17394 bound_to 11000
  140.9633  134.1627  157.4636 LP  0  0  0  0  0  0  0  0  0  0  0  0  # atno 17395 bound_to 11000

$$$$
