AV-unprocessed.smi:2188|AV-procd|sdf|8882|dock2
  -GOLD-   2272012 83D 1   1.00000     0.00000
 Structure written by MMmdl.
 38 40  0  0  0  0  0  0  0  0  2 V2000
  155.5148  141.6739  164.3140 O   0  0  0  0  0  0  0  0  0  0  0  0
  154.6373  142.5412  164.2090 C   0  0  0  0  0  0  0  0  0  0  0  0
  154.3220  143.4579  165.1761 N   0  5  0  0  0  0  0  0  0  0  0  0
  155.1850  144.5483  165.6326 C   0  0  0  0  0  0  0  0  0  0  0  0
  154.8814  144.8625  167.1114 C   0  0  0  0  0  0  0  0  0  0  0  0
  155.3942  143.8063  168.0813 C   0  0  0  0  0  0  0  0  0  0  0  0
  154.9128  142.4796  168.0318 C   0  0  0  0  0  0  0  0  0  0  0  0
  155.4082  141.5405  168.9565 C   0  0  0  0  0  0  0  0  0  0  0  0
  156.3638  141.9684  169.8992 C   0  0  0  0  0  0  0  0  0  0  0  0
  156.8285  143.2345  169.9627 N   0  0  0  0  0  0  0  0  0  0  0  0
  156.3493  144.1291  169.0712 C   0  0  0  0  0  0  0  0  0  0  0  0
  153.8333  142.5999  162.9704 C   0  0  0  0  0  0  0  0  0  0  0  0
  153.0251  143.6751  162.7711 C   0  0  0  0  0  0  0  0  0  0  0  0
  152.2211  143.8160  161.5830 C   0  0  0  0  0  0  0  0  0  0  0  0
  152.2610  142.8332  160.6779 C   0  0  0  0  0  0  0  0  0  0  0  0
  153.0392  141.6870  160.8293 N   0  0  0  0  0  0  0  0  0  0  0  0
  152.9003  140.6553  159.8069 C   0  0  0  0  0  0  0  0  0  0  0  0
  154.2559  140.0670  159.4616 C   0  0  0  0  0  0  0  0  0  0  0  0
  154.8515  139.2623  160.9912 S   0  0  0  0  0  0  0  0  0  0  0  0
  153.8787  138.2250  161.3688 O   0  0  0  0  0  0  0  0  0  0  0  0
  156.2608  138.8913  160.7928 O   0  0  0  0  0  0  0  0  0  0  0  0
  154.7432  140.5401  162.0680 N   0  0  0  0  0  0  0  0  0  0  0  0
  153.9059  141.5321  161.9486 C   0  0  0  0  0  0  0  0  0  0  0  0
  156.2446  144.3054  165.5413 H   0  0  0  0  0  0  0  0  0  0  0  0
  155.0340  145.4498  165.0380 H   0  0  0  0  0  0  0  0  0  0  0  0
  155.3167  145.8255  167.3827 H   0  0  0  0  0  0  0  0  0  0  0  0
  153.8046  144.9661  167.2541 H   0  0  0  0  0  0  0  0  0  0  0  0
  154.1797  142.1856  167.2949 H   0  0  0  0  0  0  0  0  0  0  0  0
  155.0640  140.5168  168.9428 H   0  0  0  0  0  0  0  0  0  0  0  0
  156.7642  141.2743  170.6232 H   0  0  0  0  0  0  0  0  0  0  0  0
  156.7406  145.1329  169.1503 H   0  0  0  0  0  0  0  0  0  0  0  0
  152.9514  144.4617  163.5087 H   0  0  0  0  0  0  0  0  0  0  0  0
  151.6050  144.6897  161.4303 H   0  0  0  0  0  0  0  0  0  0  0  0
  151.6794  142.8806  159.7687 H   0  0  0  0  0  0  0  0  0  0  0  0
  152.2200  139.8818  160.1647 H   0  0  0  0  0  0  0  0  0  0  0  0
  152.4551  141.0666  158.9005 H   0  0  0  0  0  0  0  0  0  0  0  0
  154.1845  139.3160  158.6754 H   0  0  0  0  0  0  0  0  0  0  0  0
  154.9698  140.8309  159.1515 H   0  0  0  0  0  0  0  0  0  0  0  0
  1  2  2  0  0  0  0
  2  3  1  0  0  0  0
  2 12  1  0  0  0  0
  3  4  1  0  0  0  0
  4  5  1  0  0  0  0
  4 24  1  0  0  0  0
  4 25  1  0  0  0  0
  5  6  1  0  0  0  0
  5 26  1  0  0  0  0
  5 27  1  0  0  0  0
  6 11  1  0  0  0  0
  6  7  2  0  0  0  0
  7  8  1  0  0  0  0
  7 28  1  0  0  0  0
  8  9  2  0  0  0  0
  8 29  1  0  0  0  0
  9 10  1  0  0  0  0
  9 30  1  0  0  0  0
 10 11  2  0  0  0  0
 11 31  1  0  0  0  0
 12 23  1  0  0  0  0
 12 13  2  0  0  0  0
 13 14  1  0  0  0  0
 13 32  1  0  0  0  0
 14 15  2  0  0  0  0
 14 33  1  0  0  0  0
 15 16  1  0  0  0  0
 15 34  1  0  0  0  0
 16 23  1  0  0  0  0
 16 17  1  0  0  0  0
 17 18  1  0  0  0  0
 17 35  1  0  0  0  0
 17 36  1  0  0  0  0
 18 19  1  0  0  0  0
 18 37  1  0  0  0  0
 18 38  1  0  0  0  0
 19 20  2  0  0  0  0
 19 21  2  0  0  0  0
 19 22  1  0  0  0  0
 22 23  2  0  0  0  0
M  CHG  1   3  -1
M  END
> <s_m_source_file>
AV-unprocessed.smi

> <i_m_source_file_index>
2188

> <i_lp_mmshare_version>
43012

> <i_f3d_flags>
0

> <s_epik_input>
W0NIMl0xW0NIMl1TKD1PKSg9TylOPUMoTjEyKUMoPVtDSF1bQ0hdPVtDSF0yKUMoPU8pW05IXVtDSDJdW0NIMl1jM1tjSF1bY0hdW2NIXW5bY0hdMw==

> <s_epik_cmdline>
J2VwaWtfcHl0aG9uJywgJy1waCcsICc3LjAnLCAnLXRuJywgJzgnLCAnLW1hJywgJzIwMCcsICctbWV0YWxfYmluZGluZycsICctaW1hZScsICc8aW5maWxlLm1hZT4nLCAnLW9tYWUnLCAnPG91dGZpbGUubWFlPic=

> <r_epik_Ionization_Penalty>
5.61471

> <r_epik_Ionization_Penalty_Charging>
5.5942

> <r_epik_Ionization_Penalty_Neutral>
0.0205175

> <r_epik_State_Penalty>
5.60129

> <r_epik_Charging_Adjusted_Penalty>
11.1955

> <i_epik_Tot_Q>
-1

> <i_epik_Tot_abs_Q>
1

> <r_epik_Metal_State_Penalty>
1.60393

> <b_epik_Metal_Only>
1

> <s_lp_Force_Field>
OPLS_2005

> <r_lp_Energy>
34.9518

> <b_lp_Chiralities_Consistent>
1

> <s_lp_Variant>
AV-unprocessed.smi:2188-3

> <Gold.Version>
5.8.1

> <Gold.Id.Protein>
6NUR|6NUR_protein|mol2

> <Gold.PLP.Fitness>
46.4214

> <Gold.PLP.PLP>
-48.2517

> <Gold.PLP.part.hbond>
-2.2557

> <Gold.PLP.part.metal>
0.0000

> <Gold.PLP.part.buried>
-2.2636

> <Gold.PLP.part.nonpolar>
-41.6171

> <Gold.PLP.part.repulsive>
0.1985

> <Gold.PLP.ligand.clash>
0.3246

> <Gold.PLP.ligand.torsion>
0.9144

> <Gold.PLP.Chemscore.Hbond>
0.0000

> <Gold.PLP.Chemscore.CHOScore>
0.0000

> <Gold.PLP.Chemscore.Metal>
0.0000

> <Gold.PLP.Chemscore.Internal.Correction>
0.3231

> <Gold.Rescore>
     Score         DG    S(hbond)    S(metal)    S(lipo)     H(rot)  DE(clash)    DE(int)     intcor
     11.05     -14.48       0.00        0.00     108.47       1.44       0.93       2.50       ----

> <Gold.Chemscore.Fitness>
11.0498

> <Gold.Chemscore.DG>
-14.4766

> <Gold.Chemscore.ZeroCoef>
-5.4800

> <Gold.Chemscore.Hbond>
0.0000

> <Gold.Chemscore.Metal>
0.0000

> <Gold.Chemscore.Lipo>
108.4741

> <Gold.Chemscore.Internal_Hbond>
0.0000

> <Gold.Chemscore.DEClash>
0.9285

> <Gold.Chemscore.DEInternal>
2.4983

> <Gold.Chemscore.Rot>
1.4433

> <Gold.Chemscore.Internal.Correction>
   9.000000E+99

> <Gold.Chemscore.Hbond.Weighted>
-0.0000

> <Gold.Chemscore.Metal.Weighted>
-0.0000

> <Gold.Chemscore.Lipo.Weighted>
-12.6915

> <Gold.Chemscore.Internal_Hbond.Weighted>
0.0000

> <Gold.Chemscore.DEClash.Weighted>
0.9285

> <Gold.Chemscore.DEInternal.Weighted>
2.4983

> <Gold.Chemscore.Rot.Weighted>
3.6949

> <Gold.Chemscore.Internal.Correction.Weighted>
   9.000000E+99

> <Gold.Protein.RotatedTorsions>
[ 6907 6896 6895 6894 ] final -131.70 input  -60.11 | X-H torsion
[ 7974 7965 7964 7962 ] final   77.73 input  175.53 | X-H torsion
[ 8008 7997 7996 7995 ] final -124.57 input   59.86 | X-H torsion
[ 10167 10162 10161 10158 ] final   55.88 input  -65.29 | X-H torsion
[ 10718 10713 10712 10709 ] final   64.07 input   66.30 | X-H torsion
[ 10763 10752 10751 10750 ] final -164.45 input  -60.55 | X-H torsion
[ 11005 11000 10999 10996 ] final -153.79 input  -57.11 | X-H torsion

> <Gold.Protein.ActiveResidues>
 VAL166  LYS551  ARG553  GLY616  TRP617  ASP618  TYR619  PRO620  LYS621  CYS622 
 ASP623  PHE694  ASN695  SER759  ASP760  ASP761  ALA762  ILE779  LEU786  VAL792 
 PHE793  MET794  SER795  GLU796  ALA797  LYS798  CYS799  TRP800  GLU811  SER814 

> <Gold.Protein.RotatedAtoms>
  150.9539  133.6519  159.2766 H   0  0  0  0  0  0  0  0  0  0  0  0  # atno 6907 bound_to 6896
  151.3865  135.0947  159.9522 H   0  0  0  0  0  0  0  0  0  0  0  0  # atno 6908 bound_to 6896
  152.5121  133.9063  159.7520 H   0  0  0  0  0  0  0  0  0  0  0  0  # atno 6909 bound_to 6896
  145.6862  139.2538  143.1786 H   0  0  0  0  0  0  0  0  0  0  0  0  # atno 7974 bound_to 7965
  155.1991  140.0415  157.2914 H   0  0  0  0  0  0  0  0  0  0  0  0  # atno 8008 bound_to 7997
  154.6087  140.2471  155.7669 H   0  0  0  0  0  0  0  0  0  0  0  0  # atno 8009 bound_to 7997
  156.2366  140.2919  156.0338 H   0  0  0  0  0  0  0  0  0  0  0  0  # atno 8010 bound_to 7997
  140.2147  144.3852  150.6474 H   0  0  0  0  0  0  0  0  0  0  0  0  # atno 10167 bound_to 10162
  157.6015  130.9140  149.9798 H   0  0  0  0  0  0  0  0  0  0  0  0  # atno 10718 bound_to 10713
  154.7027  135.2991  154.9317 H   0  0  0  0  0  0  0  0  0  0  0  0  # atno 10763 bound_to 10752
  154.0244  135.6678  153.4779 H   0  0  0  0  0  0  0  0  0  0  0  0  # atno 10764 bound_to 10752
  153.0693  135.5070  154.8180 H   0  0  0  0  0  0  0  0  0  0  0  0  # atno 10765 bound_to 10752
  140.7043  134.3903  157.5206 H   0  0  0  0  0  0  0  0  0  0  0  0  # atno 11005 bound_to 11000
  146.0921  140.7643  142.9590 LP  0  0  0  0  0  0  0  0  0  0  0  0  # atno 17320 bound_to 7965
  144.7010  140.3654  143.7156 LP  0  0  0  0  0  0  0  0  0  0  0  0  # atno 17321 bound_to 7965
  140.6298  143.2186  151.6519 LP  0  0  0  0  0  0  0  0  0  0  0  0  # atno 17342 bound_to 10162
  139.5166  144.3340  152.0801 LP  0  0  0  0  0  0  0  0  0  0  0  0  # atno 17343 bound_to 10162
  156.1089  130.3651  150.0084 LP  0  0  0  0  0  0  0  0  0  0  0  0  # atno 17370 bound_to 10713
  156.8186  130.9350  151.3642 LP  0  0  0  0  0  0  0  0  0  0  0  0  # atno 17371 bound_to 10713
  139.8888  134.8846  156.2453 LP  0  0  0  0  0  0  0  0  0  0  0  0  # atno 17394 bound_to 11000
  141.0138  133.7080  156.1154 LP  0  0  0  0  0  0  0  0  0  0  0  0  # atno 17395 bound_to 11000

$$$$
