AV-unprocessed.smi:2855|AV-procd|sdf|10987|dock5
  -GOLD-   2272015443D 1   1.00000     0.00000
 Structure written by MMmdl.
 46 47  0  0  0  0  0  0  0  0  2 V2000
  153.0635  144.0800  158.7202 C   0  0  0  0  0  0  0  0  0  0  0  0
  151.9609  143.2530  159.4054 C   0  0  2  0  0  0  0  0  0  0  0  0
  152.5161  142.2886  160.4698 C   0  0  0  0  0  0  0  0  0  0  0  0
  153.2407  141.0813  159.8512 C   0  0  0  0  0  0  0  0  0  0  0  0
  152.3375  140.3094  158.8603 C   0  0  2  0  0  0  0  0  0  0  0  0
  153.0068  139.0244  158.2851 C   0  0  0  0  0  0  0  0  0  0  0  0
  151.9773  137.9642  157.8579 C   0  0  0  0  0  0  0  0  0  0  0  0
  154.0765  138.4055  159.2039 C   0  0  0  0  0  0  0  0  0  0  0  0
  151.7980  141.2776  157.7719 C   0  0  1  0  0  0  0  0  0  0  0  0
  150.8734  140.5853  156.8768 N   0  0  0  0  0  0  0  0  0  0  0  0
  151.1721  140.1032  155.6610 C   0  0  0  0  0  0  0  0  0  0  0  0
  152.2668  140.2544  155.1177 O   0  0  0  0  0  0  0  0  0  0  0  0
  150.0505  139.3449  154.9415 C   0  0  0  0  0  0  0  0  0  0  0  0
  150.1516  137.8905  155.1375 N   0  0  0  0  0  0  0  0  0  0  0  0
  149.0230  137.2150  155.6339 C   0  0  0  0  0  0  0  0  0  0  0  0
  149.0246  135.8838  155.8374 C   0  0  0  0  0  0  0  0  0  0  0  0
  150.2392  135.1395  155.5282 C   0  0  0  0  0  0  0  0  0  0  0  0
  150.2602  133.9241  155.7119 O   0  0  0  0  0  0  0  0  0  0  0  0
  151.3065  135.8395  155.0439 N   0  5  0  0  0  0  0  0  0  0  0  0
  151.2902  137.1933  154.8407 C   0  0  0  0  0  0  0  0  0  0  0  0
  152.2649  137.8055  154.4018 O   0  0  0  0  0  0  0  0  0  0  0  0
  151.0790  142.4896  158.3989 C   0  0  0  0  0  0  0  0  0  0  0  0
  153.7689  143.4545  158.1738 H   0  0  0  0  0  0  0  0  0  0  0  0
  153.6321  144.6540  159.4523 H   0  0  0  0  0  0  0  0  0  0  0  0
  152.6353  144.7887  158.0111 H   0  0  0  0  0  0  0  0  0  0  0  0
  151.3191  143.9693  159.9199 H   0  0  0  0  0  0  0  0  0  0  0  0
  153.1871  142.8199  161.1456 H   0  0  0  0  0  0  0  0  0  0  0  0
  151.6927  141.9265  161.0867 H   0  0  0  0  0  0  0  0  0  0  0  0
  154.1471  141.4209  159.3505 H   0  0  0  0  0  0  0  0  0  0  0  0
  153.5672  140.4273  160.6588 H   0  0  0  0  0  0  0  0  0  0  0  0
  151.4697  139.9711  159.4295 H   0  0  0  0  0  0  0  0  0  0  0  0
  153.5185  139.3059  157.3646 H   0  0  0  0  0  0  0  0  0  0  0  0
  151.4715  137.5185  158.7141 H   0  0  0  0  0  0  0  0  0  0  0  0
  152.4608  137.1545  157.3105 H   0  0  0  0  0  0  0  0  0  0  0  0
  151.2180  138.3914  157.2026 H   0  0  0  0  0  0  0  0  0  0  0  0
  153.6531  138.0633  160.1479 H   0  0  0  0  0  0  0  0  0  0  0  0
  154.8756  139.1115  159.4277 H   0  0  0  0  0  0  0  0  0  0  0  0
  154.5426  137.5435  158.7258 H   0  0  0  0  0  0  0  0  0  0  0  0
  152.6472  141.6528  157.2005 H   0  0  0  0  0  0  0  0  0  0  0  0
  149.9449  140.4112  157.2327 H   0  0  0  0  0  0  0  0  0  0  0  0
  149.0747  139.7009  155.2776 H   0  0  0  0  0  0  0  0  0  0  0  0
  150.0973  139.5950  153.8810 H   0  0  0  0  0  0  0  0  0  0  0  0
  148.1629  137.8379  155.8307 H   0  0  0  0  0  0  0  0  0  0  0  0
  148.1482  135.3795  156.2167 H   0  0  0  0  0  0  0  0  0  0  0  0
  150.1794  142.1452  158.9115 H   0  0  0  0  0  0  0  0  0  0  0  0
  150.7370  143.1689  157.6169 H   0  0  0  0  0  0  0  0  0  0  0  0
  1  2  1  0  0  0  0
  1 23  1  0  0  0  0
  1 24  1  0  0  0  0
  1 25  1  0  0  0  0
  2 22  1  0  0  0  0
  2  3  1  0  0  0  0
  2 26  1  0  0  0  0
  3  4  1  0  0  0  0
  3 27  1  0  0  0  0
  3 28  1  0  0  0  0
  4  5  1  0  0  0  0
  4 29  1  0  0  0  0
  4 30  1  0  0  0  0
  5  6  1  0  0  0  0
  5  9  1  0  0  0  0
  5 31  1  0  0  0  0
  6  7  1  0  0  0  0
  6  8  1  0  0  0  0
  6 32  1  0  0  0  0
  7 33  1  0  0  0  0
  7 34  1  0  0  0  0
  7 35  1  0  0  0  0
  8 36  1  0  0  0  0
  8 37  1  0  0  0  0
  8 38  1  0  0  0  0
  9 10  1  0  0  0  0
  9 22  1  0  0  0  0
  9 39  1  0  0  0  0
 10 11  1  0  0  0  0
 10 40  1  0  0  0  0
 11 12  2  0  0  0  0
 11 13  1  0  0  0  0
 13 14  1  0  0  0  0
 13 41  1  0  0  0  0
 13 42  1  0  0  0  0
 14 20  1  0  0  0  0
 14 15  1  0  0  0  0
 15 16  2  0  0  0  0
 15 43  1  0  0  0  0
 16 17  1  0  0  0  0
 16 44  1  0  0  0  0
 17 18  2  0  0  0  0
 17 19  1  0  0  0  0
 19 20  1  0  0  0  0
 20 21  2  0  0  0  0
 22 45  1  0  0  0  0
 22 46  1  0  0  0  0
M  CHG  1  19  -1
M  END
> <s_m_source_file>
AV-unprocessed.smi

> <i_m_source_file_index>
2855

> <i_lp_mmshare_version>
43012

> <i_f3d_flags>
0

> <s_epik_input>
W0NIM11bQ0BASF0xW0NIMl1bQ0gyXVtDQEBIXShbQ0hdKFtDSDNdKVtDSDNdKVtDQEhdKFtDSDJdMSlbTkhdQyg9TylbQ0gyXW4yW2NIXVtjSF1jKD1PKVtuSF1jMj1P

> <s_epik_cmdline>
J2VwaWtfcHl0aG9uJywgJy1waCcsICc3LjAnLCAnLXRuJywgJzgnLCAnLW1hJywgJzIwMCcsICctbWV0YWxfYmluZGluZycsICctaW1hZScsICc8aW5maWxlLm1hZT4nLCAnLW9tYWUnLCAnPG91dGZpbGUubWFlPic=

> <r_lp_tautomer_probability>
0.999537

> <r_epik_Ionization_Penalty>
3.12102

> <r_epik_Ionization_Penalty_Charging>
2.9581e-08

> <r_epik_Ionization_Penalty_Neutral>
3.12102

> <r_epik_State_Penalty>
3.12011

> <r_epik_Charging_Adjusted_Penalty>
3.12011

> <i_epik_Tot_Q>
-1

> <i_epik_Tot_abs_Q>
1

> <r_epik_Metal_State_Penalty>
0.463583

> <b_epik_Metal_Only>
1

> <s_lp_Force_Field>
OPLS_2005

> <r_lp_Energy>
25.3875

> <b_lp_Chiralities_Consistent>
1

> <s_lp_Variant>
AV-unprocessed.smi:2855-11

> <Gold.Version>
5.8.1

> <Gold.Id.Protein>
6NUR|6NUR_protein|mol2

> <Gold.PLP.Fitness>
43.2126

> <Gold.PLP.PLP>
-36.9562

> <Gold.PLP.part.hbond>
-3.1904

> <Gold.PLP.part.metal>
0.0000

> <Gold.PLP.part.buried>
-3.6211

> <Gold.PLP.part.nonpolar>
-29.7459

> <Gold.PLP.part.repulsive>
0.3663

> <Gold.PLP.ligand.clash>
0.0000

> <Gold.PLP.ligand.torsion>
1.2599

> <Gold.PLP.Chemscore.Hbond>
2.9016

> <Gold.PLP.Chemscore.CHOScore>
0.0000

> <Gold.PLP.Chemscore.Metal>
0.0000

> <Gold.Chemscore.Hbonds>
donor molecule, donor type, donor heavy atom, donor atom, acceptor molecule, acceptor atom, score
      P1  H  7989  7998       L1    12  0.59
      P1  H  7997  8010       L1    12  0.31
      P1  H 10752 10764       L1    19  2.00

> <Gold.PLP.Chemscore.Internal.Correction>
0.0716

> <Gold.Rescore>
     Score         DG    S(hbond)    S(metal)    S(lipo)     H(rot)  DE(clash)    DE(int)     intcor
     11.49     -16.75       1.59        0.00      90.56       1.81       0.01       5.25       ----

> <Gold.Chemscore.Fitness>
11.4875

> <Gold.Chemscore.DG>
-16.7525

> <Gold.Chemscore.ZeroCoef>
-5.4800

> <Gold.Chemscore.Hbond>
1.5901

> <Gold.Chemscore.Metal>
0.0000

> <Gold.Chemscore.Lipo>
90.5576

> <Gold.Chemscore.Internal_Hbond>
0.0000

> <Gold.Chemscore.DEClash>
0.0108

> <Gold.Chemscore.DEInternal>
5.2543

> <Gold.Chemscore.Rot>
1.8100

> <Gold.Chemscore.Internal.Correction>
   9.000000E+99

> <Gold.Chemscore.Hbonds>
donor molecule, donor type, donor heavy atom, donor atom, acceptor molecule, acceptor atom, score
      P1  H  7989  7998       L1    12  0.13
      P1  H  7997  8010       L1    12  0.31
      P1  H 10752 10764       L1    19  0.26

> <Gold.Chemscore.Hbond.Weighted>
-5.3108

> <Gold.Chemscore.Metal.Weighted>
-0.0000

> <Gold.Chemscore.Lipo.Weighted>
-10.5952

> <Gold.Chemscore.Internal_Hbond.Weighted>
0.0000

> <Gold.Chemscore.DEClash.Weighted>
0.0108

> <Gold.Chemscore.DEInternal.Weighted>
5.2543

> <Gold.Chemscore.Rot.Weighted>
4.6335

> <Gold.Chemscore.Internal.Correction.Weighted>
   9.000000E+99

> <Gold.Protein.RotatedTorsions>
[ 6907 6896 6895 6894 ] final   66.35 input  -60.11 | X-H torsion
[ 7974 7965 7964 7962 ] final   10.31 input  175.53 | X-H torsion
[ 8008 7997 7996 7995 ] final   95.08 input   59.86 | X-H torsion
[ 10167 10162 10161 10158 ] final   95.30 input  -65.29 | X-H torsion
[ 10718 10713 10712 10709 ] final -117.92 input   66.30 | X-H torsion
[ 10763 10752 10751 10750 ] final  -48.11 input  -60.55 | X-H torsion
[ 11005 11000 10999 10996 ] final   75.34 input  -57.11 | X-H torsion

> <Gold.Protein.ActiveResidues>
 VAL166  LYS551  ARG553  GLY616  TRP617  ASP618  TYR619  PRO620  LYS621  CYS622 
 ASP623  PHE694  ASN695  SER759  ASP760  ASP761  ALA762  ILE779  LEU786  VAL792 
 PHE793  MET794  SER795  GLU796  ALA797  LYS798  CYS799  TRP800  GLU811  SER814 

> <Gold.Protein.RotatedAtoms>
  152.4475  134.5465  159.9853 H   0  0  0  0  0  0  0  0  0  0  0  0  # atno 6907 bound_to 6896
  151.5546  133.3406  159.2967 H   0  0  0  0  0  0  0  0  0  0  0  0  # atno 6908 bound_to 6896
  150.8394  134.7713  159.6983 H   0  0  0  0  0  0  0  0  0  0  0  0  # atno 6909 bound_to 6896
  146.2390  139.9653  142.8453 H   0  0  0  0  0  0  0  0  0  0  0  0  # atno 7974 bound_to 7965
  156.0650  140.3291  155.7506 H   0  0  0  0  0  0  0  0  0  0  0  0  # atno 8008 bound_to 7997
  155.5396  140.0600  157.2890 H   0  0  0  0  0  0  0  0  0  0  0  0  # atno 8009 bound_to 7997
  154.4500  140.1913  156.0566 H   0  0  0  0  0  0  0  0  0  0  0  0  # atno 8010 bound_to 7997
  139.8002  144.6817  150.9775 H   0  0  0  0  0  0  0  0  0  0  0  0  # atno 10167 bound_to 10162
  156.1068  130.6217  150.9225 H   0  0  0  0  0  0  0  0  0  0  0  0  # atno 10718 bound_to 10713
  154.0724  135.6603  153.4826 H   0  0  0  0  0  0  0  0  0  0  0  0  # atno 10763 bound_to 10752
  153.0386  135.5160  154.7554 H   0  0  0  0  0  0  0  0  0  0  0  0  # atno 10764 bound_to 10752
  154.6624  135.3017  154.9817 H   0  0  0  0  0  0  0  0  0  0  0  0  # atno 10765 bound_to 10752
  139.9348  134.7510  156.1259 H   0  0  0  0  0  0  0  0  0  0  0  0  # atno 11005 bound_to 11000
  145.1732  140.9731  143.4309 LP  0  0  0  0  0  0  0  0  0  0  0  0  # atno 17320 bound_to 7965
  145.0009  139.3599  143.6168 LP  0  0  0  0  0  0  0  0  0  0  0  0  # atno 17321 bound_to 7965
  140.7820  143.4290  151.0724 LP  0  0  0  0  0  0  0  0  0  0  0  0  # atno 17342 bound_to 10162
  139.7962  143.8148  152.3158 LP  0  0  0  0  0  0  0  0  0  0  0  0  # atno 17343 bound_to 10162
  157.6246  131.0927  150.8559 LP  0  0  0  0  0  0  0  0  0  0  0  0  # atno 17370 bound_to 10713
  156.8676  130.5135  149.5299 LP  0  0  0  0  0  0  0  0  0  0  0  0  # atno 17371 bound_to 10713
  141.0956  133.6697  156.2638 LP  0  0  0  0  0  0  0  0  0  0  0  0  # atno 17394 bound_to 11000
  140.6105  134.5463  157.5532 LP  0  0  0  0  0  0  0  0  0  0  0  0  # atno 17395 bound_to 11000

$$$$
