AV-unprocessed.smi:1041|AV-procd|sdf|4534|dock3
  -GOLD-   22720 2563D 1   1.00000     0.00000
 Structure written by MMmdl.
 52 53  0  0  0  0  0  0  0  0  3 V2000
  152.3251  144.5407  158.1508 C   0  0  0  0  0  0  0  0  0  0  0  0
  151.9033  143.3323  158.7586 O   0  0  0  0  0  0  0  0  0  0  0  0
  150.5924  142.9577  158.3694 C   0  0  0  0  0  0  0  0  0  0  0  0
  150.6671  142.1903  157.0398 C   0  0  0  0  0  0  0  0  0  0  0  0
  149.3926  142.2418  156.2790 N   0  3  2  0  0  0  0  0  0  0  0  0
  148.2188  141.7583  157.0544 C   0  0  0  0  0  0  0  0  0  0  0  0
  146.9103  141.9465  156.2644 C   0  0  0  0  0  0  0  0  0  0  0  0
  146.9605  141.2732  154.8810 C   0  0  2  0  0  0  0  0  0  0  0  0
  146.8406  139.7329  154.9752 C   0  0  0  0  0  0  0  0  0  0  0  0
  146.2684  139.1499  153.7688 N   0  0  0  0  0  0  0  0  0  0  0  0
  146.1868  137.8379  153.4957 C   0  0  0  0  0  0  0  0  0  0  0  0
  146.6761  136.9704  154.2182 O   0  0  0  0  0  0  0  0  0  0  0  0
  145.4144  137.4275  152.2363 C   0  0  0  0  0  0  0  0  0  0  0  0
  144.3342  136.3563  152.4051 C   0  0  0  0  0  0  0  0  0  0  0  0
  144.3831  135.1389  151.7932 C   0  0  0  0  0  0  0  0  0  0  0  0
  145.5270  134.7150  150.8891 C   0  0  0  0  0  0  0  0  0  0  0  0
  143.3541  134.1979  151.9652 N   0  0  0  0  0  0  0  0  0  0  0  0
  142.3488  134.4910  152.6989 C   0  0  0  0  0  0  0  0  0  0  0  0
  141.2454  133.4705  152.8796 C   0  0  0  0  0  0  0  0  0  0  0  0
  142.1946  135.6977  153.3444 N   0  5  0  0  0  0  0  0  0  0  0  0
  143.1551  136.6587  153.2361 C   0  0  0  0  0  0  0  0  0  0  0  0
  143.0514  137.7529  153.7892 O   0  0  0  0  0  0  0  0  0  0  0  0
  148.2188  141.7633  154.1337 C   0  0  0  0  0  0  0  0  0  0  0  0
  149.4979  141.5617  154.9626 C   0  0  0  0  0  0  0  0  0  0  0  0
  153.3316  144.7893  158.4869 H   0  0  0  0  0  0  0  0  0  0  0  0
  151.6668  145.3681  158.4182 H   0  0  0  0  0  0  0  0  0  0  0  0
  152.3468  144.4469  157.0642 H   0  0  0  0  0  0  0  0  0  0  0  0
  150.1595  142.3118  159.1348 H   0  0  0  0  0  0  0  0  0  0  0  0
  149.9469  143.8327  158.2927 H   0  0  0  0  0  0  0  0  0  0  0  0
  151.4686  142.6289  156.4437 H   0  0  0  0  0  0  0  0  0  0  0  0
  150.9483  141.1506  157.2136 H   0  0  0  0  0  0  0  0  0  0  0  0
  148.3601  140.7096  157.3182 H   0  0  0  0  0  0  0  0  0  0  0  0
  148.1345  142.3042  157.9927 H   0  0  0  0  0  0  0  0  0  0  0  0
  146.0663  141.5646  156.8398 H   0  0  0  0  0  0  0  0  0  0  0  0
  146.7274  143.0141  156.1346 H   0  0  0  0  0  0  0  0  0  0  0  0
  146.0930  141.6242  154.3207 H   0  0  0  0  0  0  0  0  0  0  0  0
  147.8181  139.2760  155.1250 H   0  0  0  0  0  0  0  0  0  0  0  0
  146.2376  139.4505  155.8397 H   0  0  0  0  0  0  0  0  0  0  0  0
  145.8432  139.7895  153.1123 H   0  0  0  0  0  0  0  0  0  0  0  0
  144.9620  138.3278  151.8212 H   0  0  0  0  0  0  0  0  0  0  0  0
  146.1339  137.1091  151.4813 H   0  0  0  0  0  0  0  0  0  0  0  0
  146.4498  134.6202  151.4620 H   0  0  0  0  0  0  0  0  0  0  0  0
  145.6825  135.4474  150.0968 H   0  0  0  0  0  0  0  0  0  0  0  0
  145.3228  133.7521  150.4190 H   0  0  0  0  0  0  0  0  0  0  0  0
  140.8939  133.4623  153.9120 H   0  0  0  0  0  0  0  0  0  0  0  0
  141.5974  132.4674  152.6347 H   0  0  0  0  0  0  0  0  0  0  0  0
  140.4037  133.7086  152.2287 H   0  0  0  0  0  0  0  0  0  0  0  0
  148.3189  141.2718  153.1657 H   0  0  0  0  0  0  0  0  0  0  0  0
  148.1078  142.8257  153.9120 H   0  0  0  0  0  0  0  0  0  0  0  0
  150.3443  141.9674  154.4070 H   0  0  0  0  0  0  0  0  0  0  0  0
  149.6985  140.4993  155.1083 H   0  0  0  0  0  0  0  0  0  0  0  0
  149.2274  143.2169  156.0735 H   0  0  0  0  0  0  0  0  0  0  0  0
  1  2  1  0  0  0  0
  1 25  1  0  0  0  0
  1 26  1  0  0  0  0
  1 27  1  0  0  0  0
  2  3  1  0  0  0  0
  3  4  1  0  0  0  0
  3 28  1  0  0  0  0
  3 29  1  0  0  0  0
  4  5  1  0  0  0  0
  4 30  1  0  0  0  0
  4 31  1  0  0  0  0
  5 24  1  0  0  0  0
  5  6  1  0  0  0  0
  5 52  1  0  0  0  0
  6  7  1  0  0  0  0
  6 32  1  0  0  0  0
  6 33  1  0  0  0  0
  7  8  1  0  0  0  0
  7 34  1  0  0  0  0
  7 35  1  0  0  0  0
  8  9  1  0  0  0  0
  8 23  1  0  0  0  0
  8 36  1  0  0  0  0
  9 10  1  0  0  0  0
  9 37  1  0  0  0  0
  9 38  1  0  0  0  0
 10 11  1  0  0  0  0
 10 39  1  0  0  0  0
 11 12  2  0  0  0  0
 11 13  1  0  0  0  0
 13 14  1  0  0  0  0
 13 40  1  0  0  0  0
 13 41  1  0  0  0  0
 14 21  1  0  0  0  0
 14 15  2  0  0  0  0
 15 16  1  0  0  0  0
 15 17  1  0  0  0  0
 16 42  1  0  0  0  0
 16 43  1  0  0  0  0
 16 44  1  0  0  0  0
 17 18  2  0  0  0  0
 18 19  1  0  0  0  0
 18 20  1  0  0  0  0
 19 45  1  0  0  0  0
 19 46  1  0  0  0  0
 19 47  1  0  0  0  0
 20 21  1  0  0  0  0
 21 22  2  0  0  0  0
 23 24  1  0  0  0  0
 23 48  1  0  0  0  0
 23 49  1  0  0  0  0
 24 50  1  0  0  0  0
 24 51  1  0  0  0  0
M  CHG  1   5   1
M  CHG  1  20  -1
M  END
> <s_m_source_file>
AV-unprocessed.smi

> <i_m_source_file_index>
1041

> <i_lp_mmshare_version>
43012

> <i_f3d_flags>
0

> <s_epik_input>
W0NIM11PW0NIMl1bQ0gyXU4xW0NIMl1bQ0gyXVtDSF0oW0NIMl1bQ0gyXTEpW0NIMl1bTkhdQyg9TylbQ0gyXWMyYyhbQ0gzXSluYyhbQ0gzXSlbbkhdYzI9Tw==

> <s_epik_cmdline>
J2VwaWtfcHl0aG9uJywgJy1waCcsICc3LjAnLCAnLXRuJywgJzgnLCAnLW1hJywgJzIwMCcsICctbWV0YWxfYmluZGluZycsICctaW1hZScsICc8aW5maWxlLm1hZT4nLCAnLW9tYWUnLCAnPG91dGZpbGUubWFlPic=

> <r_lp_tautomer_probability>
0.839158

> <r_epik_Ionization_Penalty>
6.54961

> <r_epik_Ionization_Penalty_Charging>
0.00968647

> <r_epik_Ionization_Penalty_Neutral>
6.53992

> <r_epik_State_Penalty>
4.43892

> <r_epik_Charging_Adjusted_Penalty>
4.44861

> <i_epik_Tot_Q>
0

> <i_epik_Tot_abs_Q>
2

> <r_epik_Metal_State_Penalty>
0.818645

> <b_epik_Metal_Only>
1

> <s_lp_Force_Field>
OPLS_2005

> <r_lp_Energy>
22.1122

> <b_lp_Chiralities_Consistent>
1

> <s_lp_Variant>
AV-unprocessed.smi:1041-7

> <Gold.Version>
5.8.1

> <Gold.Id.Protein>
6NUR|6NUR_protein|mol2

> <Gold.PLP.Fitness>
40.8608

> <Gold.PLP.PLP>
-35.1657

> <Gold.PLP.part.hbond>
-1.7560

> <Gold.PLP.part.metal>
0.0000

> <Gold.PLP.part.buried>
-1.6539

> <Gold.PLP.part.nonpolar>
-33.9331

> <Gold.PLP.part.repulsive>
1.4565

> <Gold.PLP.ligand.clash>
0.0000

> <Gold.PLP.ligand.torsion>
0.6784

> <Gold.PLP.Chemscore.Hbond>
2.3185

> <Gold.PLP.Chemscore.CHOScore>
0.0000

> <Gold.PLP.Chemscore.Metal>
0.0000

> <Gold.Chemscore.Hbonds>
donor molecule, donor type, donor heavy atom, donor atom, acceptor molecule, acceptor atom, score
      L1  H     5    52       P1  8028  2.00
      L1  H    10    39       P1 10175  0.15

> <Gold.PLP.Chemscore.Internal.Correction>
0.0964

> <Gold.Rescore>
     Score         DG    S(hbond)    S(metal)    S(lipo)     H(rot)  DE(clash)    DE(int)     intcor
     12.37     -13.95       1.26        0.00      87.95       2.35       0.83       0.76       ----

> <Gold.Chemscore.Fitness>
12.3667

> <Gold.Chemscore.DG>
-13.9541

> <Gold.Chemscore.ZeroCoef>
-5.4800

> <Gold.Chemscore.Hbond>
1.2589

> <Gold.Chemscore.Metal>
0.0000

> <Gold.Chemscore.Lipo>
87.9537

> <Gold.Chemscore.Internal_Hbond>
0.0000

> <Gold.Chemscore.DEClash>
0.8302

> <Gold.Chemscore.DEInternal>
0.7572

> <Gold.Chemscore.Rot>
2.3520

> <Gold.Chemscore.Internal.Correction>
   9.000000E+99

> <Gold.Chemscore.Hbonds>
donor molecule, donor type, donor heavy atom, donor atom, acceptor molecule, acceptor atom, score
      L1  H     5    52       P1  8028  0.98
      L1  H    10    39       P1 10175  0.15

> <Gold.Chemscore.Hbond.Weighted>
-4.2046

> <Gold.Chemscore.Metal.Weighted>
-0.0000

> <Gold.Chemscore.Lipo.Weighted>
-10.2906

> <Gold.Chemscore.Internal_Hbond.Weighted>
0.0000

> <Gold.Chemscore.DEClash.Weighted>
0.8302

> <Gold.Chemscore.DEInternal.Weighted>
0.7572

> <Gold.Chemscore.Rot.Weighted>
6.0211

> <Gold.Chemscore.Internal.Correction.Weighted>
   9.000000E+99

> <Gold.Protein.RotatedTorsions>
[ 6907 6896 6895 6894 ] final   14.02 input  -60.11 | X-H torsion
[ 7974 7965 7964 7962 ] final -178.74 input  175.53 | X-H torsion
[ 8008 7997 7996 7995 ] final -103.98 input   59.86 | X-H torsion
[ 10167 10162 10161 10158 ] final  -15.82 input  -65.29 | X-H torsion
[ 10718 10713 10712 10709 ] final  162.26 input   66.30 | X-H torsion
[ 10763 10752 10751 10750 ] final -141.40 input  -60.55 | X-H torsion
[ 11005 11000 10999 10996 ] final  -77.31 input  -57.11 | X-H torsion

> <Gold.Protein.ActiveResidues>
 VAL166  LYS551  ARG553  GLY616  TRP617  ASP618  TYR619  PRO620  LYS621  CYS622 
 ASP623  PHE694  ASN695  SER759  ASP760  ASP761  ALA762  ILE779  LEU786  VAL792 
 PHE793  MET794  SER795  GLU796  ALA797  LYS798  CYS799  TRP800  GLU811  SER814 

> <Gold.Protein.RotatedAtoms>
  151.7956  135.0723  160.0392 H   0  0  0  0  0  0  0  0  0  0  0  0  # atno 6907 bound_to 6896
  152.3125  133.5764  159.5699 H   0  0  0  0  0  0  0  0  0  0  0  0  # atno 6908 bound_to 6896
  150.7327  134.0047  159.3691 H   0  0  0  0  0  0  0  0  0  0  0  0  # atno 6909 bound_to 6896
  144.7132  140.0823  143.6425 H   0  0  0  0  0  0  0  0  0  0  0  0  # atno 7974 bound_to 7965
  154.8786  140.0420  157.1769 H   0  0  0  0  0  0  0  0  0  0  0  0  # atno 8008 bound_to 7997
  154.8662  140.2951  155.5488 H   0  0  0  0  0  0  0  0  0  0  0  0  # atno 8009 bound_to 7997
  156.2999  140.2437  156.3644 H   0  0  0  0  0  0  0  0  0  0  0  0  # atno 8010 bound_to 7997
  140.7224  143.5179  150.9669 H   0  0  0  0  0  0  0  0  0  0  0  0  # atno 10167 bound_to 10162
  157.1250  131.0502  151.2398 H   0  0  0  0  0  0  0  0  0  0  0  0  # atno 10718 bound_to 10713
  154.8546  135.3525  154.5861 H   0  0  0  0  0  0  0  0  0  0  0  0  # atno 10763 bound_to 10752
  153.6472  135.6995  153.5226 H   0  0  0  0  0  0  0  0  0  0  0  0  # atno 10764 bound_to 10752
  153.2923  135.4231  155.1137 H   0  0  0  0  0  0  0  0  0  0  0  0  # atno 10765 bound_to 10752
  141.1659  133.7017  156.7801 H   0  0  0  0  0  0  0  0  0  0  0  0  # atno 11005 bound_to 11000
  145.9691  139.2856  143.1109 LP  0  0  0  0  0  0  0  0  0  0  0  0  # atno 17320 bound_to 7965
  145.9136  140.9163  143.0441 LP  0  0  0  0  0  0  0  0  0  0  0  0  # atno 17321 bound_to 7965
  139.8896  143.6970  152.3147 LP  0  0  0  0  0  0  0  0  0  0  0  0  # atno 17342 bound_to 10162
  139.7281  144.7588  151.0846 LP  0  0  0  0  0  0  0  0  0  0  0  0  # atno 17343 bound_to 10162
  157.4443  130.7562  149.7096 LP  0  0  0  0  0  0  0  0  0  0  0  0  # atno 17370 bound_to 10713
  155.9820  130.4014  150.3440 LP  0  0  0  0  0  0  0  0  0  0  0  0  # atno 17371 bound_to 10713
  140.2401  134.8620  157.3564 LP  0  0  0  0  0  0  0  0  0  0  0  0  # atno 17394 bound_to 11000
  140.1805  134.4496  155.7775 LP  0  0  0  0  0  0  0  0  0  0  0  0  # atno 17395 bound_to 11000

$$$$
