AV-unprocessed.smi:2740|AV-procd|sdf|10556|dock8
  -GOLD-   2272015 03D 1   1.00000     0.00000
 Structure written by MMmdl.
 30 31  0  0  0  0  0  0  0  0  2 V2000
  149.1686  139.2435  153.5648 C   0  0  0  0  0  0  0  0  0  0  0  0
  150.3681  139.1214  154.4424 C   0  0  0  0  0  0  0  0  0  0  0  0
  151.4731  138.3353  154.2422 C   0  0  0  0  0  0  0  0  0  0  0  0
  152.4317  138.4464  155.2505 N   0  0  0  0  0  0  0  0  0  0  0  0
  152.0908  139.3079  156.2148 C   0  0  0  0  0  0  0  0  0  0  0  0
  152.8704  139.5638  157.2781 N   0  5  0  0  0  0  0  0  0  0  0  0
  152.3743  140.2589  158.3272 C   0  0  0  0  0  0  0  0  0  0  0  0
  151.1833  140.3852  158.6219 O   0  0  0  0  0  0  0  0  0  0  0  0
  153.3151  140.8435  159.0828 N   0  0  0  0  0  0  0  0  0  0  0  0
  153.0707  141.6536  160.2714 C   0  0  0  0  0  0  0  0  0  0  0  0
  152.1758  142.8645  159.9593 C   0  0  2  0  0  0  0  0  0  0  0  0
  152.6886  143.7294  158.8085 C   0  0  0  0  0  0  0  0  0  0  0  0
  152.1437  145.1156  159.1224 C   0  0  0  0  0  0  0  0  0  0  0  0
  151.6166  144.9961  160.5548 C   0  0  0  0  0  0  0  0  0  0  0  0
  152.1637  143.7806  161.0432 O   0  0  0  0  0  0  0  0  0  0  0  0
  150.5065  140.0298  155.9238 S   0  0  0  0  0  0  0  0  0  0  0  0
  149.4436  139.6515  152.5921 H   0  0  0  0  0  0  0  0  0  0  0  0
  148.4209  139.9024  154.0068 H   0  0  0  0  0  0  0  0  0  0  0  0
  148.7062  138.2696  153.4044 H   0  0  0  0  0  0  0  0  0  0  0  0
  151.6607  137.6687  153.4137 H   0  0  0  0  0  0  0  0  0  0  0  0
  154.2779  140.7118  158.8099 H   0  0  0  0  0  0  0  0  0  0  0  0
  152.6024  141.0246  161.0288 H   0  0  0  0  0  0  0  0  0  0  0  0
  154.0215  141.9855  160.6917 H   0  0  0  0  0  0  0  0  0  0  0  0
  151.1526  142.5473  159.7487 H   0  0  0  0  0  0  0  0  0  0  0  0
  153.7791  143.7578  158.8124 H   0  0  0  0  0  0  0  0  0  0  0  0
  152.3666  143.3573  157.8355 H   0  0  0  0  0  0  0  0  0  0  0  0
  152.9347  145.8628  159.0500 H   0  0  0  0  0  0  0  0  0  0  0  0
  151.3457  145.4034  158.4373 H   0  0  0  0  0  0  0  0  0  0  0  0
  151.9048  145.8410  161.1807 H   0  0  0  0  0  0  0  0  0  0  0  0
  150.5279  144.9250  160.5585 H   0  0  0  0  0  0  0  0  0  0  0  0
  1  2  1  0  0  0  0
  1 17  1  0  0  0  0
  1 18  1  0  0  0  0
  1 19  1  0  0  0  0
  2 16  1  0  0  0  0
  2  3  2  0  0  0  0
  3  4  1  0  0  0  0
  3 20  1  0  0  0  0
  4  5  2  0  0  0  0
  5  6  1  0  0  0  0
  5 16  1  0  0  0  0
  6  7  1  0  0  0  0
  7  8  2  0  0  0  0
  7  9  1  0  0  0  0
  9 10  1  0  0  0  0
  9 21  1  0  0  0  0
 10 11  1  0  0  0  0
 10 22  1  0  0  0  0
 10 23  1  0  0  0  0
 11 15  1  0  0  0  0
 11 12  1  0  0  0  0
 11 24  1  0  0  0  0
 12 13  1  0  0  0  0
 12 25  1  0  0  0  0
 12 26  1  0  0  0  0
 13 14  1  0  0  0  0
 13 27  1  0  0  0  0
 13 28  1  0  0  0  0
 14 15  1  0  0  0  0
 14 29  1  0  0  0  0
 14 30  1  0  0  0  0
M  CHG  1   6  -1
M  END
> <s_m_source_file>
AV-unprocessed.smi

> <i_m_source_file_index>
2740

> <i_lp_mmshare_version>
43012

> <i_f3d_flags>
0

> <s_epik_input>
W0NIM11jMVtjSF1uYyhzMSlbTkhdQyg9TylbTkhdW0NIMl1bQ0BASF0yW0NIMl1bQ0gyXVtDSDJdTzI=

> <s_epik_cmdline>
J2VwaWtfcHl0aG9uJywgJy1waCcsICc3LjAnLCAnLXRuJywgJzgnLCAnLW1hJywgJzIwMCcsICctbWV0YWxfYmluZGluZycsICctaW1hZScsICc8aW5maWxlLm1hZT4nLCAnLW9tYWUnLCAnPG91dGZpbGUubWFlPic=

> <r_lp_tautomer_probability>
0.999

> <r_epik_Ionization_Penalty>
8.54039

> <r_epik_Ionization_Penalty_Charging>
6.77868

> <r_epik_Ionization_Penalty_Neutral>
1.76171

> <r_epik_State_Penalty>
6.77885

> <r_epik_Charging_Adjusted_Penalty>
13.5575

> <i_epik_Tot_Q>
-1

> <i_epik_Tot_abs_Q>
1

> <r_epik_Metal_State_Penalty>
2.69888

> <b_epik_Metal_Only>
1

> <s_lp_Force_Field>
OPLS_2005

> <r_lp_Energy>
13.1736

> <b_lp_Chiralities_Consistent>
1

> <s_lp_Variant>
AV-unprocessed.smi:2740-3

> <Gold.Version>
5.8.1

> <Gold.Id.Protein>
6NUR|6NUR_protein|mol2

> <Gold.PLP.Fitness>
44.0629

> <Gold.PLP.PLP>
-35.4018

> <Gold.PLP.part.hbond>
-1.0000

> <Gold.PLP.part.metal>
0.0000

> <Gold.PLP.part.buried>
-2.8126

> <Gold.PLP.part.nonpolar>
-31.8068

> <Gold.PLP.part.repulsive>
0.2446

> <Gold.PLP.ligand.clash>
0.0000

> <Gold.PLP.ligand.torsion>
0.1789

> <Gold.PLP.Chemscore.Hbond>
2.0000

> <Gold.PLP.Chemscore.CHOScore>
0.9991

> <Gold.PLP.Chemscore.Metal>
0.0000

> <Gold.Chemscore.Hbonds>
donor molecule, donor type, donor heavy atom, donor atom, acceptor molecule, acceptor atom, score
      P1  H  7997  8010       L1     6  2.00
      L1  C     3    20       P1  7949  0.83

> <Gold.PLP.Chemscore.Internal.Correction>
0.0215

> <Gold.Rescore>
     Score         DG    S(hbond)    S(metal)    S(lipo)     H(rot)  DE(clash)    DE(int)     intcor
     12.92     -15.13       0.82        0.00      86.50       1.25       0.02       2.19       ----

> <Gold.Chemscore.Fitness>
12.9168

> <Gold.Chemscore.DG>
-15.1275

> <Gold.Chemscore.ZeroCoef>
-5.4800

> <Gold.Chemscore.Hbond>
0.8174

> <Gold.Chemscore.Metal>
0.0000

> <Gold.Chemscore.Lipo>
86.5043

> <Gold.Chemscore.Internal_Hbond>
0.0000

> <Gold.Chemscore.DEClash>
0.0186

> <Gold.Chemscore.DEInternal>
2.1920

> <Gold.Chemscore.Rot>
1.2514

> <Gold.Chemscore.Internal.Correction>
   9.000000E+99

> <Gold.Chemscore.Hbonds>
donor molecule, donor type, donor heavy atom, donor atom, acceptor molecule, acceptor atom, score
      P1  H  7997  8010       L1     6  0.56

> <Gold.Chemscore.Hbond.Weighted>
-2.7301

> <Gold.Chemscore.Metal.Weighted>
-0.0000

> <Gold.Chemscore.Lipo.Weighted>
-10.1210

> <Gold.Chemscore.Internal_Hbond.Weighted>
0.0000

> <Gold.Chemscore.DEClash.Weighted>
0.0186

> <Gold.Chemscore.DEInternal.Weighted>
2.1920

> <Gold.Chemscore.Rot.Weighted>
3.2036

> <Gold.Chemscore.Internal.Correction.Weighted>
   9.000000E+99

> <Gold.Protein.RotatedTorsions>
[ 6907 6896 6895 6894 ] final  -38.81 input  -60.11 | X-H torsion
[ 7974 7965 7964 7962 ] final  -11.22 input  175.53 | X-H torsion
[ 8008 7997 7996 7995 ] final   57.42 input   59.86 | X-H torsion
[ 10167 10162 10161 10158 ] final -107.35 input  -65.29 | X-H torsion
[ 10718 10713 10712 10709 ] final  -18.35 input   66.30 | X-H torsion
[ 10763 10752 10751 10750 ] final   89.89 input  -60.55 | X-H torsion
[ 11005 11000 10999 10996 ] final  112.13 input  -57.11 | X-H torsion

> <Gold.Protein.ActiveResidues>
 VAL166  LYS551  ARG553  GLY616  TRP617  ASP618  TYR619  PRO620  LYS621  CYS622 
 ASP623  PHE694  ASN695  SER759  ASP760  ASP761  ALA762  ILE779  LEU786  VAL792 
 PHE793  MET794  SER795  GLU796  ALA797  LYS798  CYS799  TRP800  GLU811  SER814 

> <Gold.Protein.RotatedAtoms>
  150.9979  134.9298  159.7936 H   0  0  0  0  0  0  0  0  0  0  0  0  # atno 6907 bound_to 6896
  152.5269  134.3194  159.9153 H   0  0  0  0  0  0  0  0  0  0  0  0  # atno 6908 bound_to 6896
  151.3200  133.4003  159.2688 H   0  0  0  0  0  0  0  0  0  0  0  0  # atno 6909 bound_to 6896
  146.2195  140.2879  142.8366 H   0  0  0  0  0  0  0  0  0  0  0  0  # atno 7974 bound_to 7965
  155.5334  140.3482  155.4431 H   0  0  0  0  0  0  0  0  0  0  0  0  # atno 8008 bound_to 7997
  156.0702  140.1361  156.9864 H   0  0  0  0  0  0  0  0  0  0  0  0  # atno 8009 bound_to 7997
  154.4524  140.0967  156.6632 H   0  0  0  0  0  0  0  0  0  0  0  0  # atno 8010 bound_to 7997
  140.1779  143.3990  152.1304 H   0  0  0  0  0  0  0  0  0  0  0  0  # atno 10167 bound_to 10162
  156.5607  130.4725  149.6408 H   0  0  0  0  0  0  0  0  0  0  0  0  # atno 10718 bound_to 10713
  153.1918  135.4454  155.0159 H   0  0  0  0  0  0  0  0  0  0  0  0  # atno 10763 bound_to 10752
  154.8095  135.3288  154.7346 H   0  0  0  0  0  0  0  0  0  0  0  0  # atno 10764 bound_to 10752
  153.7799  135.6978  153.4945 H   0  0  0  0  0  0  0  0  0  0  0  0  # atno 10765 bound_to 10752
  139.8920  134.9523  156.6539 H   0  0  0  0  0  0  0  0  0  0  0  0  # atno 11005 bound_to 11000
  144.9149  140.7800  143.5784 LP  0  0  0  0  0  0  0  0  0  0  0  0  # atno 17320 bound_to 7965
  145.2812  139.1918  143.4790 LP  0  0  0  0  0  0  0  0  0  0  0  0  # atno 17321 bound_to 7965
  139.5309  144.7158  151.5060 LP  0  0  0  0  0  0  0  0  0  0  0  0  # atno 17342 bound_to 10162
  140.6539  143.8639  150.6814 LP  0  0  0  0  0  0  0  0  0  0  0  0  # atno 17343 bound_to 10162
  156.2801  130.7066  151.1888 LP  0  0  0  0  0  0  0  0  0  0  0  0  # atno 17370 bound_to 10713
  157.7369  131.0557  150.5387 LP  0  0  0  0  0  0  0  0  0  0  0  0  # atno 17371 bound_to 10713
  140.7499  133.8906  155.8339 LP  0  0  0  0  0  0  0  0  0  0  0  0  # atno 17394 bound_to 11000
  141.0009  134.1152  157.4318 LP  0  0  0  0  0  0  0  0  0  0  0  0  # atno 17395 bound_to 11000

$$$$
