AV-unprocessed.smi:2439|AV-procd|sdf|9613|dock10
  -GOLD-   2272013243D 1   1.00000     0.00000
 Structure written by MMmdl.
 40 42  0  0  0  0  0  0  0  0  1 V2000
  154.1427  139.8081  158.8761 N   0  0  0  0  0  0  0  0  0  0  0  0
  153.5811  140.7386  159.2726 C   0  0  0  0  0  0  0  0  0  0  0  0
  152.8731  141.9111  159.7723 C   0  0  0  0  0  0  0  0  0  0  0  0
  153.1600  142.3791  161.0717 C   0  0  0  0  0  0  0  0  0  0  0  0
  152.4810  143.5107  161.5592 C   0  0  0  0  0  0  0  0  0  0  0  0
  151.5369  144.1325  160.7220 C   0  0  0  0  0  0  0  0  0  0  0  0
  151.2526  143.6958  159.4774 N   0  0  0  0  0  0  0  0  0  0  0  0
  151.9013  142.6045  159.0014 C   0  0  0  0  0  0  0  0  0  0  0  0
  151.5822  142.1735  157.7015 N   0  0  0  0  0  0  0  0  0  0  0  0
  150.7559  140.9948  157.4812 C   0  0  0  0  0  0  0  0  0  0  0  0
  150.3105  140.8858  156.0108 C   0  0  2  0  0  0  0  0  0  0  0  0
  149.1643  139.8770  155.8042 C   0  0  0  0  0  0  0  0  0  0  0  0
  149.5975  138.4924  155.9511 N   0  0  0  0  0  0  0  0  0  0  0  0
  148.4878  137.5674  155.7250 C   0  0  0  0  0  0  0  0  0  0  0  0
  148.9000  136.0987  155.9095 C   0  0  0  0  0  0  0  0  0  0  0  0
  150.0727  135.7552  154.9804 C   0  0  0  0  0  0  0  0  0  0  0  0
  151.2158  136.7618  155.1806 C   0  0  0  0  0  0  0  0  0  0  0  0
  150.7099  138.2129  155.0386 C   0  0  2  0  0  0  0  0  0  0  0  0
  151.8664  139.2087  155.2558 C   0  0  0  0  0  0  0  0  0  0  0  0
  151.3969  140.5502  155.1450 O   0  0  0  0  0  0  0  0  0  0  0  0
  153.8912  141.8804  161.6920 H   0  0  0  0  0  0  0  0  0  0  0  0
  152.6795  143.8926  162.5496 H   0  0  0  0  0  0  0  0  0  0  0  0
  150.9955  145.0038  161.0597 H   0  0  0  0  0  0  0  0  0  0  0  0
  152.0555  142.5840  156.9092 H   0  0  0  0  0  0  0  0  0  0  0  0
  151.2930  140.0994  157.7938 H   0  0  0  0  0  0  0  0  0  0  0  0
  149.8757  141.0704  158.1204 H   0  0  0  0  0  0  0  0  0  0  0  0
  149.9480  141.8667  155.7004 H   0  0  0  0  0  0  0  0  0  0  0  0
  148.3576  140.0911  156.5066 H   0  0  0  0  0  0  0  0  0  0  0  0
  148.7475  140.0212  154.8061 H   0  0  0  0  0  0  0  0  0  0  0  0
  147.6737  137.7972  156.4135 H   0  0  0  0  0  0  0  0  0  0  0  0
  148.0889  137.7068  154.7189 H   0  0  0  0  0  0  0  0  0  0  0  0
  149.1878  135.9264  156.9475 H   0  0  0  0  0  0  0  0  0  0  0  0
  148.0539  135.4419  155.7062 H   0  0  0  0  0  0  0  0  0  0  0  0
  150.4226  134.7403  155.1703 H   0  0  0  0  0  0  0  0  0  0  0  0
  149.7378  135.7832  153.9427 H   0  0  0  0  0  0  0  0  0  0  0  0
  151.6551  136.6196  156.1693 H   0  0  0  0  0  0  0  0  0  0  0  0
  152.0088  136.5662  154.4580 H   0  0  0  0  0  0  0  0  0  0  0  0
  150.3554  138.3421  154.0145 H   0  0  0  0  0  0  0  0  0  0  0  0
  152.3392  139.0545  156.2262 H   0  0  0  0  0  0  0  0  0  0  0  0
  152.6425  139.0540  154.5060 H   0  0  0  0  0  0  0  0  0  0  0  0
  1  2  3  0  0  0  0
  2  3  1  0  0  0  0
  3  8  1  0  0  0  0
  3  4  2  0  0  0  0
  4  5  1  0  0  0  0
  4 21  1  0  0  0  0
  5  6  2  0  0  0  0
  5 22  1  0  0  0  0
  6  7  1  0  0  0  0
  6 23  1  0  0  0  0
  7  8  2  0  0  0  0
  8  9  1  0  0  0  0
  9 10  1  0  0  0  0
  9 24  1  0  0  0  0
 10 11  1  0  0  0  0
 10 25  1  0  0  0  0
 10 26  1  0  0  0  0
 11 20  1  0  0  0  0
 11 12  1  0  0  0  0
 11 27  1  0  0  0  0
 12 13  1  0  0  0  0
 12 28  1  0  0  0  0
 12 29  1  0  0  0  0
 13 18  1  0  0  0  0
 13 14  1  0  0  0  0
 14 15  1  0  0  0  0
 14 30  1  0  0  0  0
 14 31  1  0  0  0  0
 15 16  1  0  0  0  0
 15 32  1  0  0  0  0
 15 33  1  0  0  0  0
 16 17  1  0  0  0  0
 16 34  1  0  0  0  0
 16 35  1  0  0  0  0
 17 18  1  0  0  0  0
 17 36  1  0  0  0  0
 17 37  1  0  0  0  0
 18 19  1  0  0  0  0
 18 38  1  0  0  0  0
 19 20  1  0  0  0  0
 19 39  1  0  0  0  0
 19 40  1  0  0  0  0
M  END
> <s_m_source_file>
AV-unprocessed.smi

> <i_m_source_file_index>
2439

> <i_lp_mmshare_version>
43012

> <i_f3d_flags>
0

> <s_epik_input>
TiNDYzFbY0hdW2NIXVtjSF1uYzFbTkhdW0NIMl1bQ0BIXShbQ0gyXTIpT1tDSDJdW0NAQEhdKE4yMylbQ0gyXVtDSDJdW0NIMl1bQ0gyXTM=

> <s_epik_cmdline>
J2VwaWtfcHl0aG9uJywgJy1waCcsICc3LjAnLCAnLXRuJywgJzgnLCAnLW1hJywgJzIwMCcsICctbWV0YWxfYmluZGluZycsICctaW1hZScsICc8aW5maWxlLm1hZT4nLCAnLW9tYWUnLCAnPG91dGZpbGUubWFlPic=

> <r_epik_Ionization_Penalty>
1.22355

> <r_epik_Ionization_Penalty_Charging>
0

> <r_epik_Ionization_Penalty_Neutral>
1.22355

> <r_epik_State_Penalty>
1.29103

> <r_epik_Charging_Adjusted_Penalty>
1.29103

> <i_epik_Tot_Q>
0

> <i_epik_Tot_abs_Q>
0

> <r_epik_Metal_State_Penalty>
1.29103

> <b_epik_Metal_Only>
0

> <s_lp_Force_Field>
OPLS_2005

> <r_lp_Energy>
40.6055

> <b_lp_Chiralities_Consistent>
1

> <s_lp_Variant>
AV-unprocessed.smi:2439-11

> <Gold.Version>
5.8.1

> <Gold.Id.Protein>
6NUR|6NUR_protein|mol2

> <Gold.PLP.Fitness>
39.3909

> <Gold.PLP.PLP>
-35.3315

> <Gold.PLP.part.hbond>
-2.0000

> <Gold.PLP.part.metal>
0.0000

> <Gold.PLP.part.buried>
-4.5021

> <Gold.PLP.part.nonpolar>
-28.8623

> <Gold.PLP.part.repulsive>
0.1458

> <Gold.PLP.ligand.clash>
0.0000

> <Gold.PLP.ligand.torsion>
0.8411

> <Gold.PLP.Chemscore.Hbond>
1.9120

> <Gold.PLP.Chemscore.CHOScore>
0.0000

> <Gold.PLP.Chemscore.Metal>
0.0000

> <Gold.Chemscore.Hbonds>
donor molecule, donor type, donor heavy atom, donor atom, acceptor molecule, acceptor atom, score
      P1  H  7989  7998       L1    20  0.88
      P1  H  7997  8009       L1     1  1.00

> <Gold.PLP.Chemscore.Internal.Correction>
0.0057

> <Gold.Rescore>
     Score         DG    S(hbond)    S(metal)    S(lipo)     H(rot)  DE(clash)    DE(int)     intcor
     17.27     -18.18       1.77        0.00      85.30       1.25       0.04       0.87       ----

> <Gold.Chemscore.Fitness>
17.2690

> <Gold.Chemscore.DG>
-18.1800

> <Gold.Chemscore.ZeroCoef>
-5.4800

> <Gold.Chemscore.Hbond>
1.7712

> <Gold.Chemscore.Metal>
0.0000

> <Gold.Chemscore.Lipo>
85.3003

> <Gold.Chemscore.Internal_Hbond>
0.0000

> <Gold.Chemscore.DEClash>
0.0436

> <Gold.Chemscore.DEInternal>
0.8674

> <Gold.Chemscore.Rot>
1.2485

> <Gold.Chemscore.Internal.Correction>
   9.000000E+99

> <Gold.Chemscore.Hbonds>
donor molecule, donor type, donor heavy atom, donor atom, acceptor molecule, acceptor atom, score
      P1  H  7989  7998       L1    20  0.30
      P1  H  7997  8009       L1     1  0.90

> <Gold.Chemscore.Hbond.Weighted>
-5.9160

> <Gold.Chemscore.Metal.Weighted>
-0.0000

> <Gold.Chemscore.Lipo.Weighted>
-9.9801

> <Gold.Chemscore.Internal_Hbond.Weighted>
0.0000

> <Gold.Chemscore.DEClash.Weighted>
0.0436

> <Gold.Chemscore.DEInternal.Weighted>
0.8674

> <Gold.Chemscore.Rot.Weighted>
3.1961

> <Gold.Chemscore.Internal.Correction.Weighted>
   9.000000E+99

> <Gold.Protein.RotatedTorsions>
[ 6907 6896 6895 6894 ] final  139.70 input  -60.11 | X-H torsion
[ 7974 7965 7964 7962 ] final   32.59 input  175.53 | X-H torsion
[ 8008 7997 7996 7995 ] final  118.86 input   59.86 | X-H torsion
[ 10167 10162 10161 10158 ] final  125.69 input  -65.29 | X-H torsion
[ 10718 10713 10712 10709 ] final   35.48 input   66.30 | X-H torsion
[ 10763 10752 10751 10750 ] final  174.74 input  -60.55 | X-H torsion
[ 11005 11000 10999 10996 ] final -166.68 input  -57.11 | X-H torsion

> <Gold.Protein.ActiveResidues>
 VAL166  LYS551  ARG553  GLY616  TRP617  ASP618  TYR619  PRO620  LYS621  CYS622 
 ASP623  PHE694  ASN695  SER759  ASP760  ASP761  ALA762  ILE779  LEU786  VAL792 
 PHE793  MET794  SER795  GLU796  ALA797  LYS798  CYS799  TRP800  GLU811  SER814 

> <Gold.Protein.RotatedAtoms>
  152.2518  133.5221  159.5329 H   0  0  0  0  0  0  0  0  0  0  0  0  # atno 6907 bound_to 6896
  150.7096  134.0950  159.3954 H   0  0  0  0  0  0  0  0  0  0  0  0  # atno 6908 bound_to 6896
  151.8869  135.0431  160.0545 H   0  0  0  0  0  0  0  0  0  0  0  0  # atno 6909 bound_to 6896
  146.1476  139.6506  142.9120 H   0  0  0  0  0  0  0  0  0  0  0  0  # atno 7974 bound_to 7965
  156.2567  140.2865  156.0901 H   0  0  0  0  0  0  0  0  0  0  0  0  # atno 8008 bound_to 7997
  155.1473  140.0396  157.2830 H   0  0  0  0  0  0  0  0  0  0  0  0  # atno 8009 bound_to 7997
  154.6486  140.2539  155.7245 H   0  0  0  0  0  0  0  0  0  0  0  0  # atno 8010 bound_to 7997
  139.5672  144.6918  151.3879 H   0  0  0  0  0  0  0  0  0  0  0  0  # atno 10167 bound_to 10162
  157.3232  130.7459  149.6798 H   0  0  0  0  0  0  0  0  0  0  0  0  # atno 10718 bound_to 10713
  154.4581  135.2767  155.1733 H   0  0  0  0  0  0  0  0  0  0  0  0  # atno 10763 bound_to 10752
  154.3532  135.6145  153.5656 H   0  0  0  0  0  0  0  0  0  0  0  0  # atno 10764 bound_to 10752
  152.9852  135.5816  154.4938 H   0  0  0  0  0  0  0  0  0  0  0  0  # atno 10765 bound_to 10752
  140.5618  134.5326  157.5144 H   0  0  0  0  0  0  0  0  0  0  0  0  # atno 11005 bound_to 11000
  145.4900  141.0438  143.2598 LP  0  0  0  0  0  0  0  0  0  0  0  0  # atno 17320 bound_to 7965
  144.7865  139.6416  143.7132 LP  0  0  0  0  0  0  0  0  0  0  0  0  # atno 17321 bound_to 7965
  140.6955  143.7758  150.7320 LP  0  0  0  0  0  0  0  0  0  0  0  0  # atno 17342 bound_to 10162
  140.1254  143.4574  152.2288 LP  0  0  0  0  0  0  0  0  0  0  0  0  # atno 17343 bound_to 10162
  155.9688  130.4217  150.4482 LP  0  0  0  0  0  0  0  0  0  0  0  0  # atno 17370 bound_to 10713
  157.2501  131.0544  151.2384 LP  0  0  0  0  0  0  0  0  0  0  0  0  # atno 17371 bound_to 10713
  139.9404  134.7797  156.0693 LP  0  0  0  0  0  0  0  0  0  0  0  0  # atno 17394 bound_to 11000
  141.1110  133.6643  156.2978 LP  0  0  0  0  0  0  0  0  0  0  0  0  # atno 17395 bound_to 11000

$$$$
