AV-unprocessed.smi:1631|AV-procd|sdf|6527|dock4
  -GOLD-   22720 7203D 1   1.00000     0.00000
 Structure written by MMmdl.
 38 39  0  0  0  0  0  0  0  0  1 V2000
  147.4150  140.8932  153.7508 C   0  0  0  0  0  0  0  0  0  0  0  0
  148.7379  140.5154  154.3603 C   0  0  0  0  0  0  0  0  0  0  0  0
  149.3387  141.4266  155.0518 N   0  0  0  0  0  0  0  0  0  0  0  0
  150.5498  141.1810  155.6690 N   0  0  0  0  0  0  0  0  0  0  0  0
  151.0614  142.3064  156.4633 C   0  0  0  0  0  0  0  0  0  0  0  0
  150.5237  142.3067  157.9156 C   0  0  1  0  0  0  0  0  0  0  0  0
  149.4841  141.3537  157.9950 O   0  0  0  0  0  0  0  0  0  0  0  0
  151.6098  142.0432  158.9625 C   0  0  0  0  0  0  0  0  0  0  0  0
  152.0808  140.7171  159.1040 C   0  0  0  0  0  0  0  0  0  0  0  0
  153.0973  140.4024  160.0220 C   0  0  0  0  0  0  0  0  0  0  0  0
  153.6535  141.4152  160.8189 C   0  0  0  0  0  0  0  0  0  0  0  0
  153.1854  142.7359  160.7014 C   0  0  0  0  0  0  0  0  0  0  0  0
  152.1604  143.0695  159.7840 C   0  0  0  0  0  0  0  0  0  0  0  0
  151.6727  144.5176  159.7168 C   0  0  0  0  0  0  0  0  0  0  0  0
  152.2317  145.2740  160.6623 F   0  0  0  0  0  0  0  0  0  0  0  0
  151.9809  145.0570  158.5391 F   0  0  0  0  0  0  0  0  0  0  0  0
  150.3522  144.5657  159.8946 F   0  0  0  0  0  0  0  0  0  0  0  0
  151.2405  140.0090  155.5831 C   0  0  0  0  0  0  0  0  0  0  0  0
  152.3305  139.8404  156.1319 O   0  0  0  0  0  0  0  0  0  0  0  0
  150.5550  138.9804  154.7976 C   0  0  0  0  0  0  0  0  0  0  0  0
  151.2344  137.7290  154.6997 C   0  0  0  0  0  0  0  0  0  0  0  0
  151.7738  136.7066  154.6365 N   0  0  0  0  0  0  0  0  0  0  0  0
  149.3526  139.2006  154.2094 C   0  0  0  0  0  0  0  0  0  0  0  0
  148.5975  138.1649  153.3879 C   0  0  0  0  0  0  0  0  0  0  0  0
  147.4262  140.7393  152.6716 H   0  0  0  0  0  0  0  0  0  0  0  0
  147.1692  141.9411  153.9305 H   0  0  0  0  0  0  0  0  0  0  0  0
  146.6102  140.2901  154.1715 H   0  0  0  0  0  0  0  0  0  0  0  0
  152.1530  142.2904  156.4715 H   0  0  0  0  0  0  0  0  0  0  0  0
  150.8022  143.2449  155.9697 H   0  0  0  0  0  0  0  0  0  0  0  0
  150.0506  143.2697  158.0862 H   0  0  0  0  0  0  0  0  0  0  0  0
  149.4096  141.0660  158.8922 H   0  0  0  0  0  0  0  0  0  0  0  0
  151.6652  139.9280  158.4947 H   0  0  0  0  0  0  0  0  0  0  0  0
  153.4497  139.3855  160.1127 H   0  0  0  0  0  0  0  0  0  0  0  0
  154.4353  141.1792  161.5258 H   0  0  0  0  0  0  0  0  0  0  0  0
  153.6267  143.4914  161.3336 H   0  0  0  0  0  0  0  0  0  0  0  0
  149.0891  137.1926  153.3975 H   0  0  0  0  0  0  0  0  0  0  0  0
  148.5209  138.4860  152.3487 H   0  0  0  0  0  0  0  0  0  0  0  0
  147.5898  138.0220  153.7790 H   0  0  0  0  0  0  0  0  0  0  0  0
  1  2  1  0  0  0  0
  1 25  1  0  0  0  0
  1 26  1  0  0  0  0
  1 27  1  0  0  0  0
  2 23  1  0  0  0  0
  2  3  2  0  0  0  0
  3  4  1  0  0  0  0
  4  5  1  0  0  0  0
  4 18  1  0  0  0  0
  5  6  1  0  0  0  0
  5 28  1  0  0  0  0
  5 29  1  0  0  0  0
  6  7  1  0  0  0  0
  6  8  1  0  0  0  0
  6 30  1  0  0  0  0
  7 31  1  0  0  0  0
  8 13  1  0  0  0  0
  8  9  2  0  0  0  0
  9 10  1  0  0  0  0
  9 32  1  0  0  0  0
 10 11  2  0  0  0  0
 10 33  1  0  0  0  0
 11 12  1  0  0  0  0
 11 34  1  0  0  0  0
 12 13  2  0  0  0  0
 12 35  1  0  0  0  0
 13 14  1  0  0  0  0
 14 15  1  0  0  0  0
 14 16  1  0  0  0  0
 14 17  1  0  0  0  0
 18 19  2  0  0  0  0
 18 20  1  0  0  0  0
 20 21  1  0  0  0  0
 20 23  2  0  0  0  0
 21 22  3  0  0  0  0
 23 24  1  0  0  0  0
 24 36  1  0  0  0  0
 24 37  1  0  0  0  0
 24 38  1  0  0  0  0
M  END
> <s_m_source_file>
AV-unprocessed.smi

> <i_m_source_file_index>
1631

> <i_lp_mmshare_version>
43012

> <i_f3d_flags>
0

> <s_epik_input>
TiNDYyhjMVtDSDNdKWMoPU8pbihuYzFbQ0gzXSlbQ0gyXVtDQEhdKFtPSF0pYzJbY0hdW2NIXVtjSF1bY0hdYzJDKEYpKEYpRg==

> <s_epik_cmdline>
J2VwaWtfcHl0aG9uJywgJy1waCcsICc3LjAnLCAnLXRuJywgJzgnLCAnLW1hJywgJzIwMCcsICctbWV0YWxfYmluZGluZycsICctaW1hZScsICc8aW5maWxlLm1hZT4nLCAnLW9tYWUnLCAnPG91dGZpbGUubWFlPic=

> <r_lp_tautomer_probability>
1

> <r_epik_Ionization_Penalty>
7.1854e-08

> <r_epik_Ionization_Penalty_Charging>
1.40848e-10

> <r_epik_Ionization_Penalty_Neutral>
7.17131e-08

> <r_epik_State_Penalty>
-0

> <r_epik_Charging_Adjusted_Penalty>
1.40848e-10

> <i_epik_Tot_Q>
0

> <i_epik_Tot_abs_Q>
0

> <r_epik_Metal_State_Penalty>
-0

> <b_epik_Metal_Only>
0

> <s_lp_Force_Field>
OPLS_2005

> <r_lp_Energy>
27.8833

> <b_lp_Chiralities_Consistent>
1

> <s_lp_Variant>
AV-unprocessed.smi:1631-2

> <Gold.Version>
5.8.1

> <Gold.Id.Protein>
6NUR|6NUR_protein|mol2

> <Gold.PLP.Fitness>
55.7742

> <Gold.PLP.PLP>
-52.7267

> <Gold.PLP.part.hbond>
-2.0000

> <Gold.PLP.part.metal>
0.0000

> <Gold.PLP.part.buried>
-1.5838

> <Gold.PLP.part.nonpolar>
-49.7009

> <Gold.PLP.part.repulsive>
0.2712

> <Gold.PLP.ligand.clash>
1.3873

> <Gold.PLP.ligand.torsion>
1.5334

> <Gold.PLP.Chemscore.Hbond>
2.0000

> <Gold.PLP.Chemscore.CHOScore>
0.0000

> <Gold.PLP.Chemscore.Metal>
0.0000

> <Gold.Chemscore.Hbonds>
donor molecule, donor type, donor heavy atom, donor atom, acceptor molecule, acceptor atom, score
      P1  H  7997  8008       L1    19  0.99
      P1  H 10752 10763       L1    22  1.00

> <Gold.PLP.Chemscore.Internal.Correction>
1.5017

> <Gold.Rescore>
     Score         DG    S(hbond)    S(metal)    S(lipo)     H(rot)  DE(clash)    DE(int)     intcor
     16.34     -20.42       1.91        0.00     119.39       2.11       1.97       2.10       ----

> <Gold.Chemscore.Fitness>
16.3384

> <Gold.Chemscore.DG>
-20.4172

> <Gold.Chemscore.ZeroCoef>
-5.4800

> <Gold.Chemscore.Hbond>
1.9090

> <Gold.Chemscore.Metal>
0.0000

> <Gold.Chemscore.Lipo>
119.3917

> <Gold.Chemscore.Internal_Hbond>
0.0000

> <Gold.Chemscore.DEClash>
1.9739

> <Gold.Chemscore.DEInternal>
2.1049

> <Gold.Chemscore.Rot>
2.1124

> <Gold.Chemscore.Internal.Correction>
   9.000000E+99

> <Gold.Chemscore.Hbonds>
donor molecule, donor type, donor heavy atom, donor atom, acceptor molecule, acceptor atom, score
      P1  H  7997  8008       L1    19  0.92
      P1  H 10752 10763       L1    22  0.98

> <Gold.Chemscore.Hbond.Weighted>
-6.3762

> <Gold.Chemscore.Metal.Weighted>
-0.0000

> <Gold.Chemscore.Lipo.Weighted>
-13.9688

> <Gold.Chemscore.Internal_Hbond.Weighted>
0.0000

> <Gold.Chemscore.DEClash.Weighted>
1.9739

> <Gold.Chemscore.DEInternal.Weighted>
2.1049

> <Gold.Chemscore.Rot.Weighted>
5.4078

> <Gold.Chemscore.Internal.Correction.Weighted>
   9.000000E+99

> <Gold.Protein.RotatedTorsions>
[ 6907 6896 6895 6894 ] final -107.66 input  -60.11 | X-H torsion
[ 7974 7965 7964 7962 ] final   29.63 input  175.53 | X-H torsion
[ 8008 7997 7996 7995 ] final  -39.49 input   59.86 | X-H torsion
[ 10167 10162 10161 10158 ] final   61.84 input  -65.29 | X-H torsion
[ 10718 10713 10712 10709 ] final  -40.98 input   66.30 | X-H torsion
[ 10763 10752 10751 10750 ] final   59.11 input  -60.55 | X-H torsion
[ 11005 11000 10999 10996 ] final  112.47 input  -57.11 | X-H torsion

> <Gold.Protein.ActiveResidues>
 VAL166  LYS551  ARG553  GLY616  TRP617  ASP618  TYR619  PRO620  LYS621  CYS622 
 ASP623  PHE694  ASN695  SER759  ASP760  ASP761  ALA762  ILE779  LEU786  VAL792 
 PHE793  MET794  SER795  GLU796  ALA797  LYS798  CYS799  TRP800  GLU811  SER814 

> <Gold.Protein.RotatedAtoms>
  150.7457  133.9794  159.3570 H   0  0  0  0  0  0  0  0  0  0  0  0  # atno 6907 bound_to 6896
  151.7733  135.0778  160.0372 H   0  0  0  0  0  0  0  0  0  0  0  0  # atno 6908 bound_to 6896
  152.3324  133.5936  159.5855 H   0  0  0  0  0  0  0  0  0  0  0  0  # atno 6909 bound_to 6896
  146.1660  139.6896  142.9001 H   0  0  0  0  0  0  0  0  0  0  0  0  # atno 7974 bound_to 7965
  154.4022  140.1550  156.2872 H   0  0  0  0  0  0  0  0  0  0  0  0  # atno 8008 bound_to 7997
  155.8817  140.3443  155.5871 H   0  0  0  0  0  0  0  0  0  0  0  0  # atno 8009 bound_to 7997
  155.7659  140.0824  157.2123 H   0  0  0  0  0  0  0  0  0  0  0  0  # atno 8010 bound_to 7997
  140.1504  144.4468  150.6762 H   0  0  0  0  0  0  0  0  0  0  0  0  # atno 10167 bound_to 10162
  156.2753  130.4211  149.8394 H   0  0  0  0  0  0  0  0  0  0  0  0  # atno 10718 bound_to 10713
  152.9886  135.5583  154.5660 H   0  0  0  0  0  0  0  0  0  0  0  0  # atno 10763 bound_to 10752
  154.5070  135.2800  155.1376 H   0  0  0  0  0  0  0  0  0  0  0  0  # atno 10764 bound_to 10752
  154.2784  135.6349  153.5390 H   0  0  0  0  0  0  0  0  0  0  0  0  # atno 10765 bound_to 10752
  139.8928  134.9530  156.6591 H   0  0  0  0  0  0  0  0  0  0  0  0  # atno 11005 bound_to 11000
  145.4466  141.0426  143.2828 LP  0  0  0  0  0  0  0  0  0  0  0  0  # atno 17320 bound_to 7965
  144.8093  139.5992  143.7036 LP  0  0  0  0  0  0  0  0  0  0  0  0  # atno 17321 bound_to 7965
  140.6706  143.2284  151.5635 LP  0  0  0  0  0  0  0  0  0  0  0  0  # atno 17342 bound_to 10162
  139.5429  144.2600  152.1385 LP  0  0  0  0  0  0  0  0  0  0  0  0  # atno 17343 bound_to 10162
  156.5860  130.8486  151.3395 LP  0  0  0  0  0  0  0  0  0  0  0  0  # atno 17370 bound_to 10713
  157.7297  130.9675  150.1800 LP  0  0  0  0  0  0  0  0  0  0  0  0  # atno 17371 bound_to 10713
  140.7461  133.8936  155.8313 LP  0  0  0  0  0  0  0  0  0  0  0  0  # atno 17394 bound_to 11000
  141.0038  134.1113  157.4290 LP  0  0  0  0  0  0  0  0  0  0  0  0  # atno 17395 bound_to 11000

$$$$
