AV-unprocessed.smi:1194|AV-procd|sdf|4990|dock7
  -GOLD-   22720 3593D 1   1.00000     0.00000
 Structure written by MMmdl.
 47 48  0  0  0  0  0  0  0  0  1 V2000
  152.2078  139.1144  155.1397 C   0  0  0  0  0  0  0  0  0  0  0  0
  151.4011  138.8384  153.8665 C   0  0  0  0  0  0  0  0  0  0  0  0
  150.0758  138.1088  154.1585 C   0  0  0  0  0  0  0  0  0  0  0  0
  150.2490  136.7614  154.8840 C   0  0  0  0  0  0  0  0  0  0  0  0
  151.3916  136.3344  155.0589 O   0  0  0  0  0  0  0  0  0  0  0  0
  149.1487  136.0738  155.2914 N   0  0  0  0  0  0  0  0  0  0  0  0
  147.7614  136.5641  155.1326 C   0  0  0  0  0  0  0  0  0  0  0  0
  147.0601  136.6467  156.4987 C   0  0  0  0  0  0  0  0  0  0  0  0
  147.1218  135.3026  157.2368 C   0  0  0  0  0  0  0  0  0  0  0  0
  148.5755  134.8151  157.3309 C   0  0  0  0  0  0  0  0  0  0  0  0
  149.2673  134.7451  155.9467 C   0  0  1  0  0  0  0  0  0  0  0  0
  148.7659  133.5797  155.0633 C   0  0  0  0  0  0  0  0  0  0  0  0
  149.5588  132.7618  154.5971 O   0  0  0  0  0  0  0  0  0  0  0  0
  147.4470  133.5274  154.8258 N   0  0  0  0  0  0  0  0  0  0  0  0
  146.7554  132.5363  154.0130 C   0  0  0  0  0  0  0  0  0  0  0  0
  146.9909  132.7934  152.5136 C   0  0  0  0  0  0  0  0  0  0  0  0
  145.7286  132.6766  151.6739 C   0  0  0  0  0  0  0  0  0  0  0  0
  144.6216  133.5175  151.9098 C   0  0  0  0  0  0  0  0  0  0  0  0
  143.4651  133.3534  151.1230 C   0  0  0  0  0  0  0  0  0  0  0  0
  143.4665  132.3554  150.1283 C   0  0  0  0  0  0  0  0  0  0  0  0
  144.5224  131.5486  149.8897 N   0  0  0  0  0  0  0  0  0  0  0  0
  145.6260  131.7101  150.6501 C   0  0  0  0  0  0  0  0  0  0  0  0
  153.1405  139.6277  154.9051 H   0  0  0  0  0  0  0  0  0  0  0  0
  152.4578  138.1873  155.6564 H   0  0  0  0  0  0  0  0  0  0  0  0
  151.6468  139.7441  155.8313 H   0  0  0  0  0  0  0  0  0  0  0  0
  151.2011  139.7868  153.3657 H   0  0  0  0  0  0  0  0  0  0  0  0
  152.0085  138.2460  153.1810 H   0  0  0  0  0  0  0  0  0  0  0  0
  149.4311  138.7518  154.7589 H   0  0  0  0  0  0  0  0  0  0  0  0
  149.5690  137.9341  153.2099 H   0  0  0  0  0  0  0  0  0  0  0  0
  147.6821  137.5408  154.6606 H   0  0  0  0  0  0  0  0  0  0  0  0
  147.2110  135.8878  154.4780 H   0  0  0  0  0  0  0  0  0  0  0  0
  147.5363  137.4188  157.1048 H   0  0  0  0  0  0  0  0  0  0  0  0
  146.0215  136.9520  156.3681 H   0  0  0  0  0  0  0  0  0  0  0  0
  146.6945  135.4027  158.2349 H   0  0  0  0  0  0  0  0  0  0  0  0
  146.5129  134.5652  156.7123 H   0  0  0  0  0  0  0  0  0  0  0  0
  149.1366  135.4981  157.9703 H   0  0  0  0  0  0  0  0  0  0  0  0
  148.6117  133.8481  157.8340 H   0  0  0  0  0  0  0  0  0  0  0  0
  150.3088  134.4945  156.1516 H   0  0  0  0  0  0  0  0  0  0  0  0
  146.8710  134.2470  155.2384 H   0  0  0  0  0  0  0  0  0  0  0  0
  147.1449  131.5546  154.2845 H   0  0  0  0  0  0  0  0  0  0  0  0
  145.6850  132.5242  154.2248 H   0  0  0  0  0  0  0  0  0  0  0  0
  147.4243  133.7837  152.3700 H   0  0  0  0  0  0  0  0  0  0  0  0
  147.7285  132.0824  152.1387 H   0  0  0  0  0  0  0  0  0  0  0  0
  144.6539  134.2688  152.6851 H   0  0  0  0  0  0  0  0  0  0  0  0
  142.5966  133.9757  151.2797 H   0  0  0  0  0  0  0  0  0  0  0  0
  142.5962  132.1994  149.5085 H   0  0  0  0  0  0  0  0  0  0  0  0
  146.4461  131.0388  150.4413 H   0  0  0  0  0  0  0  0  0  0  0  0
  1  2  1  0  0  0  0
  1 23  1  0  0  0  0
  1 24  1  0  0  0  0
  1 25  1  0  0  0  0
  2  3  1  0  0  0  0
  2 26  1  0  0  0  0
  2 27  1  0  0  0  0
  3  4  1  0  0  0  0
  3 28  1  0  0  0  0
  3 29  1  0  0  0  0
  4  5  2  0  0  0  0
  4  6  1  0  0  0  0
  6 11  1  0  0  0  0
  6  7  1  0  0  0  0
  7  8  1  0  0  0  0
  7 30  1  0  0  0  0
  7 31  1  0  0  0  0
  8  9  1  0  0  0  0
  8 32  1  0  0  0  0
  8 33  1  0  0  0  0
  9 10  1  0  0  0  0
  9 34  1  0  0  0  0
  9 35  1  0  0  0  0
 10 11  1  0  0  0  0
 10 36  1  0  0  0  0
 10 37  1  0  0  0  0
 11 12  1  0  0  0  0
 11 38  1  0  0  0  0
 12 13  2  0  0  0  0
 12 14  1  0  0  0  0
 14 15  1  0  0  0  0
 14 39  1  0  0  0  0
 15 16  1  0  0  0  0
 15 40  1  0  0  0  0
 15 41  1  0  0  0  0
 16 17  1  0  0  0  0
 16 42  1  0  0  0  0
 16 43  1  0  0  0  0
 17 22  1  0  0  0  0
 17 18  2  0  0  0  0
 18 19  1  0  0  0  0
 18 44  1  0  0  0  0
 19 20  2  0  0  0  0
 19 45  1  0  0  0  0
 20 21  1  0  0  0  0
 20 46  1  0  0  0  0
 21 22  2  0  0  0  0
 22 47  1  0  0  0  0
M  END
> <s_m_source_file>
AV-unprocessed.smi

> <i_m_source_file_index>
1194

> <i_lp_mmshare_version>
43012

> <i_f3d_flags>
0

> <s_epik_input>
W0NIM11bQ0gyXVtDSDJdQyg9TylOMVtDSDJdW0NIMl1bQ0gyXVtDSDJdW0NASF0xQyg9TylbTkhdW0NIMl1bQ0gyXWMyW2NIXVtjSF1bY0hdbltjSF0y

> <s_epik_cmdline>
J2VwaWtfcHl0aG9uJywgJy1waCcsICc3LjAnLCAnLXRuJywgJzgnLCAnLW1hJywgJzIwMCcsICctbWV0YWxfYmluZGluZycsICctaW1hZScsICc8aW5maWxlLm1hZT4nLCAnLW9tYWUnLCAnPG91dGZpbGUubWFlPic=

> <r_epik_Ionization_Penalty>
0.0130932

> <r_epik_Ionization_Penalty_Charging>
0

> <r_epik_Ionization_Penalty_Neutral>
0.0130932

> <r_epik_State_Penalty>
0.0101714

> <r_epik_Charging_Adjusted_Penalty>
0.0101714

> <i_epik_Tot_Q>
0

> <i_epik_Tot_abs_Q>
0

> <r_epik_Metal_State_Penalty>
0.00995056

> <b_epik_Metal_Only>
0

> <s_lp_Force_Field>
OPLS_2005

> <r_lp_Energy>
24.5515

> <b_lp_Chiralities_Consistent>
1

> <s_lp_Variant>
AV-unprocessed.smi:1194-1

> <Gold.Version>
5.8.1

> <Gold.Id.Protein>
6NUR|6NUR_protein|mol2

> <Gold.PLP.Fitness>
40.9354

> <Gold.PLP.PLP>
-31.0962

> <Gold.PLP.part.hbond>
-1.9749

> <Gold.PLP.part.metal>
0.0000

> <Gold.PLP.part.buried>
-3.0236

> <Gold.PLP.part.nonpolar>
-26.7931

> <Gold.PLP.part.repulsive>
0.3774

> <Gold.PLP.ligand.clash>
0.0000

> <Gold.PLP.ligand.torsion>
0.5460

> <Gold.PLP.Chemscore.Hbond>
1.0892

> <Gold.PLP.Chemscore.CHOScore>
2.5217

> <Gold.PLP.Chemscore.Metal>
0.0000

> <Gold.Chemscore.Hbonds>
donor molecule, donor type, donor heavy atom, donor atom, acceptor molecule, acceptor atom, score
      P1  H 10752 10764       L1     5  1.00
      P1  H 10785 10796       L1    21  0.12
      L1  C    20    46       P1 10186  0.32
      L1  C    20    46       P1 10952  0.93
      L1  C    22    47       P1 10747  0.99

> <Gold.PLP.Chemscore.Internal.Correction>
0.0984

> <Gold.Rescore>
     Score         DG    S(hbond)    S(metal)    S(lipo)     H(rot)  DE(clash)    DE(int)     intcor
     11.47     -14.44       0.99        0.00      85.09       1.68       0.13       2.84       ----

> <Gold.Chemscore.Fitness>
11.4729

> <Gold.Chemscore.DG>
-14.4409

> <Gold.Chemscore.ZeroCoef>
-5.4800

> <Gold.Chemscore.Hbond>
0.9918

> <Gold.Chemscore.Metal>
0.0000

> <Gold.Chemscore.Lipo>
85.0873

> <Gold.Chemscore.Internal_Hbond>
0.0000

> <Gold.Chemscore.DEClash>
0.1262

> <Gold.Chemscore.DEInternal>
2.8419

> <Gold.Chemscore.Rot>
1.6823

> <Gold.Chemscore.Internal.Correction>
   9.000000E+99

> <Gold.Chemscore.Hbonds>
donor molecule, donor type, donor heavy atom, donor atom, acceptor molecule, acceptor atom, score
      P1  H 10752 10764       L1     5  1.00
      P1  H 10785 10796       L1    21  0.01

> <Gold.Chemscore.Hbond.Weighted>
-3.3125

> <Gold.Chemscore.Metal.Weighted>
-0.0000

> <Gold.Chemscore.Lipo.Weighted>
-9.9552

> <Gold.Chemscore.Internal_Hbond.Weighted>
0.0000

> <Gold.Chemscore.DEClash.Weighted>
0.1262

> <Gold.Chemscore.DEInternal.Weighted>
2.8419

> <Gold.Chemscore.Rot.Weighted>
4.3068

> <Gold.Chemscore.Internal.Correction.Weighted>
   9.000000E+99

> <Gold.Protein.RotatedTorsions>
[ 6907 6896 6895 6894 ] final  -92.58 input  -60.11 | X-H torsion
[ 7974 7965 7964 7962 ] final  -87.09 input  175.53 | X-H torsion
[ 8008 7997 7996 7995 ] final  -24.80 input   59.86 | X-H torsion
[ 10167 10162 10161 10158 ] final  114.96 input  -65.29 | X-H torsion
[ 10718 10713 10712 10709 ] final   41.69 input   66.30 | X-H torsion
[ 10763 10752 10751 10750 ] final  -60.14 input  -60.55 | X-H torsion
[ 11005 11000 10999 10996 ] final -138.19 input  -57.11 | X-H torsion

> <Gold.Protein.ActiveResidues>
 VAL166  LYS551  ARG553  GLY616  TRP617  ASP618  TYR619  PRO620  LYS621  CYS622 
 ASP623  PHE694  ASN695  SER759  ASP760  ASP761  ALA762  ILE779  LEU786  VAL792 
 PHE793  MET794  SER795  GLU796  ALA797  LYS798  CYS799  TRP800  GLU811  SER814 

> <Gold.Protein.RotatedAtoms>
  150.6908  134.2099  159.4355 H   0  0  0  0  0  0  0  0  0  0  0  0  # atno 6907 bound_to 6896
  152.0062  134.9899  160.0576 H   0  0  0  0  0  0  0  0  0  0  0  0  # atno 6908 bound_to 6896
  152.1532  133.4500  159.4861 H   0  0  0  0  0  0  0  0  0  0  0  0  # atno 6909 bound_to 6896
  145.4712  140.9559  143.1916 H   0  0  0  0  0  0  0  0  0  0  0  0  # atno 7974 bound_to 7965
  154.4510  140.1944  156.0520 H   0  0  0  0  0  0  0  0  0  0  0  0  # atno 8008 bound_to 7997
  156.0647  140.3292  155.7476 H   0  0  0  0  0  0  0  0  0  0  0  0  # atno 8009 bound_to 7997
  155.5358  140.0582  157.2871 H   0  0  0  0  0  0  0  0  0  0  0  0  # atno 8010 bound_to 7997
  139.6351  144.7119  151.2352 H   0  0  0  0  0  0  0  0  0  0  0  0  # atno 10167 bound_to 10162
  157.3964  130.7835  149.7312 H   0  0  0  0  0  0  0  0  0  0  0  0  # atno 10718 bound_to 10713
  154.2645  135.6302  153.5287 H   0  0  0  0  0  0  0  0  0  0  0  0  # atno 10763 bound_to 10752
  152.9890  135.5595  154.5667 H   0  0  0  0  0  0  0  0  0  0  0  0  # atno 10764 bound_to 10752
  154.5224  135.2883  155.1226 H   0  0  0  0  0  0  0  0  0  0  0  0  # atno 10765 bound_to 10752
  140.8639  134.2134  157.4691 H   0  0  0  0  0  0  0  0  0  0  0  0  # atno 11005 bound_to 11000
  144.7944  139.6263  143.7099 LP  0  0  0  0  0  0  0  0  0  0  0  0  # atno 17320 bound_to 7965
  146.2396  139.5974  142.9500 LP  0  0  0  0  0  0  0  0  0  0  0  0  # atno 17321 bound_to 7965
  140.7460  143.6411  150.8334 LP  0  0  0  0  0  0  0  0  0  0  0  0  # atno 17342 bound_to 10162
  140.0041  143.5712  152.2864 LP  0  0  0  0  0  0  0  0  0  0  0  0  # atno 17343 bound_to 10162
  155.9811  130.4022  150.3488 LP  0  0  0  0  0  0  0  0  0  0  0  0  # atno 17370 bound_to 10713
  157.1610  131.0345  151.2841 LP  0  0  0  0  0  0  0  0  0  0  0  0  # atno 17371 bound_to 10713
  139.8708  134.9743  156.4840 LP  0  0  0  0  0  0  0  0  0  0  0  0  # atno 17394 bound_to 11000
  140.8651  133.8030  155.9305 LP  0  0  0  0  0  0  0  0  0  0  0  0  # atno 17395 bound_to 11000

$$$$
