AV-unprocessed.smi:639|AV-procd|sdf|3144|dock7
  -GOLD-   22720 0 73D 1   1.00000     0.00000
 Structure written by MMmdl.
 24 25  0  0  0  0  0  0  0  0  1 V2000
  151.8558  144.2462  158.7719 C   0  0  0  0  0  0  0  0  0  0  0  0
  151.4823  142.9854  158.1674 N   0  0  0  0  0  0  0  0  0  0  0  0
  150.3506  142.6823  157.4432 C   0  0  0  0  0  0  0  0  0  0  0  0
  150.4313  141.3674  157.0728 C   0  0  0  0  0  0  0  0  0  0  0  0
  149.4397  140.5498  156.2684 C   0  0  1  0  0  0  0  0  0  0  0  0
  149.0566  139.2359  156.9743 C   0  0  0  0  0  0  0  0  0  0  0  0
  148.2508  141.3077  155.9068 N   0  0  0  0  0  0  0  0  0  0  0  0
  148.1460  141.5133  154.5867 C   0  0  0  0  0  0  0  0  0  0  0  0
  147.2524  142.1390  154.0215 O   0  0  0  0  0  0  0  0  0  0  0  0
  149.1814  140.9109  153.9941 N   0  0  0  0  0  0  0  0  0  0  0  0
  149.9848  140.3047  154.8669 C   0  0  0  0  0  0  0  0  0  0  0  0
  150.9968  139.6552  154.6073 O   0  0  0  0  0  0  0  0  0  0  0  0
  151.6774  140.9543  157.6318 C   0  0  0  0  0  0  0  0  0  0  0  0
  152.3022  141.9218  158.2819 N   0  0  0  0  0  0  0  0  0  0  0  0
  150.9717  144.8693  158.9097 H   0  0  0  0  0  0  0  0  0  0  0  0
  152.5617  144.7676  158.1250 H   0  0  0  0  0  0  0  0  0  0  0  0
  152.3198  144.0735  159.7437 H   0  0  0  0  0  0  0  0  0  0  0  0
  149.5841  143.4192  157.2535 H   0  0  0  0  0  0  0  0  0  0  0  0
  149.9324  138.6162  157.1697 H   0  0  0  0  0  0  0  0  0  0  0  0
  148.3643  138.6436  156.3742 H   0  0  0  0  0  0  0  0  0  0  0  0
  148.5738  139.4340  157.9318 H   0  0  0  0  0  0  0  0  0  0  0  0
  147.5933  141.6535  156.5908 H   0  0  0  0  0  0  0  0  0  0  0  0
  149.3317  140.9059  152.9958 H   0  0  0  0  0  0  0  0  0  0  0  0
  152.1446  139.9816  157.5847 H   0  0  0  0  0  0  0  0  0  0  0  0
  1  2  1  0  0  0  0
  1 15  1  0  0  0  0
  1 16  1  0  0  0  0
  1 17  1  0  0  0  0
  2 14  1  0  0  0  0
  2  3  1  0  0  0  0
  3  4  2  0  0  0  0
  3 18  1  0  0  0  0
  4  5  1  0  0  0  0
  4 13  1  0  0  0  0
  5 11  1  0  0  0  0
  5  6  1  0  0  0  0
  5  7  1  0  0  0  0
  6 19  1  0  0  0  0
  6 20  1  0  0  0  0
  6 21  1  0  0  0  0
  7  8  1  0  0  0  0
  7 22  1  0  0  0  0
  8  9  2  0  0  0  0
  8 10  1  0  0  0  0
 10 11  1  0  0  0  0
 10 23  1  0  0  0  0
 11 12  2  0  0  0  0
 13 14  2  0  0  0  0
 13 24  1  0  0  0  0
M  END
> <s_m_source_file>
AV-unprocessed.smi

> <i_m_source_file_index>
639

> <i_lp_mmshare_version>
43012

> <i_f3d_flags>
0

> <s_epik_input>
W0NIM11uMVtjSF1jKFtjSF1uMSlbQ0BAXTIoW0NIM10pW05IXUMoPU8pW05IXUMyPU8=

> <s_epik_cmdline>
J2VwaWtfcHl0aG9uJywgJy1waCcsICc3LjAnLCAnLXRuJywgJzgnLCAnLW1hJywgJzIwMCcsICctbWV0YWxfYmluZGluZycsICctaW1hZScsICc8aW5maWxlLm1hZT4nLCAnLW9tYWUnLCAnPG91dGZpbGUubWFlPic=

> <r_lp_tautomer_probability>
1

> <r_epik_Ionization_Penalty>
0.0282779

> <r_epik_Ionization_Penalty_Charging>
0

> <r_epik_Ionization_Penalty_Neutral>
0.0282779

> <r_epik_State_Penalty>
0.022996

> <r_epik_Charging_Adjusted_Penalty>
0.022996

> <i_epik_Tot_Q>
0

> <i_epik_Tot_abs_Q>
0

> <r_epik_Metal_State_Penalty>
0.428533

> <b_epik_Metal_Only>
0

> <s_lp_Force_Field>
OPLS_2005

> <r_lp_Energy>
13.4697

> <b_lp_Chiralities_Consistent>
1

> <s_lp_Variant>
AV-unprocessed.smi:639-1

> <Gold.Version>
5.8.1

> <Gold.Id.Protein>
6NUR|6NUR_protein|mol2

> <Gold.PLP.Fitness>
28.9824

> <Gold.PLP.PLP>
-21.1627

> <Gold.PLP.part.hbond>
-2.0000

> <Gold.PLP.part.metal>
0.0000

> <Gold.PLP.part.buried>
-2.3262

> <Gold.PLP.part.nonpolar>
-17.7421

> <Gold.PLP.part.repulsive>
0.4672

> <Gold.PLP.ligand.clash>
0.0000

> <Gold.PLP.ligand.torsion>
0.2167

> <Gold.PLP.Chemscore.Hbond>
1.7088

> <Gold.PLP.Chemscore.CHOScore>
1.0000

> <Gold.PLP.Chemscore.Metal>
0.0000

> <Gold.Chemscore.Hbonds>
donor molecule, donor type, donor heavy atom, donor atom, acceptor molecule, acceptor atom, score
      L1  H    10    23       P1  7957  0.98
      P1  H  7989  7998       L1    12  0.70
      L1  C     3    18       P1  8028  1.00

> <Gold.PLP.Chemscore.Internal.Correction>
0.1268

> <Gold.Rescore>
     Score         DG    S(hbond)    S(metal)    S(lipo)     H(rot)  DE(clash)    DE(int)     intcor
     10.44     -10.63       0.98        0.00      37.98       1.00       0.03       0.17       ----

> <Gold.Chemscore.Fitness>
10.4374

> <Gold.Chemscore.DG>
-10.6312

> <Gold.Chemscore.ZeroCoef>
-5.4800

> <Gold.Chemscore.Hbond>
0.9784

> <Gold.Chemscore.Metal>
0.0000

> <Gold.Chemscore.Lipo>
37.9767

> <Gold.Chemscore.Internal_Hbond>
0.0000

> <Gold.Chemscore.DEClash>
0.0260

> <Gold.Chemscore.DEInternal>
0.1678

> <Gold.Chemscore.Rot>
1.0000

> <Gold.Chemscore.Internal.Correction>
   9.000000E+99

> <Gold.Chemscore.Hbonds>
donor molecule, donor type, donor heavy atom, donor atom, acceptor molecule, acceptor atom, score
      L1  H    10    23       P1  7957  0.90
      P1  H  7989  7998       L1    12  0.07

> <Gold.Chemscore.Hbond.Weighted>
-3.2680

> <Gold.Chemscore.Metal.Weighted>
-0.0000

> <Gold.Chemscore.Lipo.Weighted>
-4.4433

> <Gold.Chemscore.Internal_Hbond.Weighted>
0.0000

> <Gold.Chemscore.DEClash.Weighted>
0.0260

> <Gold.Chemscore.DEInternal.Weighted>
0.1678

> <Gold.Chemscore.Rot.Weighted>
2.5600

> <Gold.Chemscore.Internal.Correction.Weighted>
   9.000000E+99

> <Gold.Protein.RotatedTorsions>
[ 6907 6896 6895 6894 ] final -166.46 input  -60.11 | X-H torsion
[ 7974 7965 7964 7962 ] final   93.56 input  175.53 | X-H torsion
[ 8008 7997 7996 7995 ] final -176.91 input   59.86 | X-H torsion
[ 10167 10162 10161 10158 ] final  -57.41 input  -65.29 | X-H torsion
[ 10718 10713 10712 10709 ] final  -79.32 input   66.30 | X-H torsion
[ 10763 10752 10751 10750 ] final  -84.38 input  -60.55 | X-H torsion
[ 11005 11000 10999 10996 ] final  122.71 input  -57.11 | X-H torsion

> <Gold.Protein.ActiveResidues>
 VAL166  LYS551  ARG553  GLY616  TRP617  ASP618  TYR619  PRO620  LYS621  CYS622 
 ASP623  PHE694  ASN695  SER759  ASP760  ASP761  ALA762  ILE779  LEU786  VAL792 
 PHE793  MET794  SER795  GLU796  ALA797  LYS798  CYS799  TRP800  GLU811  SER814 

> <Gold.Protein.RotatedAtoms>
  151.4439  133.3635  159.2785 H   0  0  0  0  0  0  0  0  0  0  0  0  # atno 6907 bound_to 6896
  150.9138  134.8557  159.7454 H   0  0  0  0  0  0  0  0  0  0  0  0  # atno 6908 bound_to 6896
  152.4946  134.4371  159.9583 H   0  0  0  0  0  0  0  0  0  0  0  0  # atno 6909 bound_to 6896
  145.4772  139.2279  143.2902 H   0  0  0  0  0  0  0  0  0  0  0  0  # atno 7974 bound_to 7965
  156.0006  140.1220  157.0551 H   0  0  0  0  0  0  0  0  0  0  0  0  # atno 8008 bound_to 7997
  154.4241  140.1107  156.5760 H   0  0  0  0  0  0  0  0  0  0  0  0  # atno 8009 bound_to 7997
  155.6218  140.3472  155.4656 H   0  0  0  0  0  0  0  0  0  0  0  0  # atno 8010 bound_to 7997
  140.6259  143.2438  151.5363 H   0  0  0  0  0  0  0  0  0  0  0  0  # atno 10167 bound_to 10162
  156.0095  130.4542  150.3630 H   0  0  0  0  0  0  0  0  0  0  0  0  # atno 10718 bound_to 10713
  154.5988  135.5523  153.7353 H   0  0  0  0  0  0  0  0  0  0  0  0  # atno 10763 bound_to 10752
  153.0146  135.6361  154.1745 H   0  0  0  0  0  0  0  0  0  0  0  0  # atno 10764 bound_to 10752
  154.1685  135.2893  155.3068 H   0  0  0  0  0  0  0  0  0  0  0  0  # atno 10765 bound_to 10752
  139.9280  134.9641  156.8149 H   0  0  0  0  0  0  0  0  0  0  0  0  # atno 11005 bound_to 11000
  146.2362  140.5556  142.8954 LP  0  0  0  0  0  0  0  0  0  0  0  0  # atno 17320 bound_to 7965
  144.7910  140.6031  143.6541 LP  0  0  0  0  0  0  0  0  0  0  0  0  # atno 17321 bound_to 7965
  139.5480  144.2470  152.1478 LP  0  0  0  0  0  0  0  0  0  0  0  0  # atno 17342 bound_to 10162
  140.1701  144.4943  150.6584 LP  0  0  0  0  0  0  0  0  0  0  0  0  # atno 17343 bound_to 10162
  157.1718  131.0370  151.2791 LP  0  0  0  0  0  0  0  0  0  0  0  0  # atno 17370 bound_to 10713
  157.4222  130.7444  149.6922 LP  0  0  0  0  0  0  0  0  0  0  0  0  # atno 17371 bound_to 10713
  140.6281  133.9931  155.7649 LP  0  0  0  0  0  0  0  0  0  0  0  0  # atno 17394 bound_to 11000
  141.0851  134.0003  157.3326 LP  0  0  0  0  0  0  0  0  0  0  0  0  # atno 17395 bound_to 11000

$$$$
