AV-unprocessed.smi:363|AV-procd|sdf|2424|dock5
  -GOLD-   2262022363D 1   1.00000     0.00000
 Structure written by MMmdl.
 39 40  0  0  0  0  0  0  0  0  1 V2000
  149.7932  133.5653  155.0015 C   0  0  0  0  0  0  0  0  0  0  0  0
  150.0924  134.9686  155.5140 C   0  0  0  0  0  0  0  0  0  0  0  0
  150.6921  135.9095  154.5968 C   0  0  0  0  0  0  0  0  0  0  0  0
  151.0235  137.1492  154.9911 C   0  0  0  0  0  0  0  0  0  0  0  0
  151.6641  138.1305  154.0150 C   0  0  0  0  0  0  0  0  0  0  0  0
  150.7737  137.5727  156.3257 N   0  0  0  0  0  0  0  0  0  0  0  0
  151.1540  138.9430  156.7411 C   0  0  0  0  0  0  0  0  0  0  0  0
  152.2320  138.9514  157.8520 C   0  0  1  0  0  0  0  0  0  0  0  0
  153.5029  138.7463  157.2685 O   0  0  0  0  0  0  0  0  0  0  0  0
  152.2023  140.2598  158.6282 C   0  0  0  0  0  0  0  0  0  0  0  0
  151.2532  141.2573  158.3133 C   0  0  0  0  0  0  0  0  0  0  0  0
  151.2212  142.4629  159.0406 C   0  0  0  0  0  0  0  0  0  0  0  0
  152.1368  142.6778  160.0888 C   0  0  0  0  0  0  0  0  0  0  0  0
  152.0970  144.1545  160.9803 Cl  0  0  0  0  0  0  0  0  0  0  0  0
  153.0841  141.6858  160.4087 C   0  0  0  0  0  0  0  0  0  0  0  0
  153.1170  140.4804  159.6806 C   0  0  0  0  0  0  0  0  0  0  0  0
  150.1766  136.7542  157.2505 C   0  0  0  0  0  0  0  0  0  0  0  0
  149.9172  137.1780  158.3814 O   0  0  0  0  0  0  0  0  0  0  0  0
  149.8599  135.3733  156.7918 C   0  0  0  0  0  0  0  0  0  0  0  0
  149.2526  134.4685  157.7879 C   0  0  0  0  0  0  0  0  0  0  0  0
  148.2606  135.0027  158.5136 N   0  0  0  0  0  0  0  0  0  0  0  0
  149.6434  133.3278  158.0312 O   0  0  0  0  0  0  0  0  0  0  0  0
  150.2230  133.4076  154.0120 H   0  0  0  0  0  0  0  0  0  0  0  0
  148.7173  133.4075  154.9236 H   0  0  0  0  0  0  0  0  0  0  0  0
  150.2128  132.8074  155.6637 H   0  0  0  0  0  0  0  0  0  0  0  0
  150.8845  135.6065  153.5776 H   0  0  0  0  0  0  0  0  0  0  0  0
  151.5948  137.7572  152.9928 H   0  0  0  0  0  0  0  0  0  0  0  0
  152.7226  138.2598  154.2419 H   0  0  0  0  0  0  0  0  0  0  0  0
  151.1783  139.1043  154.0245 H   0  0  0  0  0  0  0  0  0  0  0  0
  151.4686  139.5653  155.9008 H   0  0  0  0  0  0  0  0  0  0  0  0
  150.2644  139.4650  157.0909 H   0  0  0  0  0  0  0  0  0  0  0  0
  152.0615  138.1301  158.5488 H   0  0  0  0  0  0  0  0  0  0  0  0
  153.5906  137.8299  157.0548 H   0  0  0  0  0  0  0  0  0  0  0  0
  150.5448  141.0985  157.5135 H   0  0  0  0  0  0  0  0  0  0  0  0
  150.4922  143.2209  158.7940 H   0  0  0  0  0  0  0  0  0  0  0  0
  153.7860  141.8471  161.2137 H   0  0  0  0  0  0  0  0  0  0  0  0
  153.8466  139.7259  159.9362 H   0  0  0  0  0  0  0  0  0  0  0  0
  147.8053  134.4531  159.2281 H   0  0  0  0  0  0  0  0  0  0  0  0
  147.9830  135.9604  158.3545 H   0  0  0  0  0  0  0  0  0  0  0  0
  1  2  1  0  0  0  0
  1 23  1  0  0  0  0
  1 24  1  0  0  0  0
  1 25  1  0  0  0  0
  2 19  2  0  0  0  0
  2  3  1  0  0  0  0
  3  4  2  0  0  0  0
  3 26  1  0  0  0  0
  4  5  1  0  0  0  0
  4  6  1  0  0  0  0
  5 27  1  0  0  0  0
  5 28  1  0  0  0  0
  5 29  1  0  0  0  0
  6  7  1  0  0  0  0
  6 17  1  0  0  0  0
  7  8  1  0  0  0  0
  7 30  1  0  0  0  0
  7 31  1  0  0  0  0
  8  9  1  0  0  0  0
  8 10  1  0  0  0  0
  8 32  1  0  0  0  0
  9 33  1  0  0  0  0
 10 16  1  0  0  0  0
 10 11  2  0  0  0  0
 11 12  1  0  0  0  0
 11 34  1  0  0  0  0
 12 13  2  0  0  0  0
 12 35  1  0  0  0  0
 13 14  1  0  0  0  0
 13 15  1  0  0  0  0
 15 16  2  0  0  0  0
 15 36  1  0  0  0  0
 16 37  1  0  0  0  0
 17 18  2  0  0  0  0
 17 19  1  0  0  0  0
 19 20  1  0  0  0  0
 20 21  1  0  0  0  0
 20 22  2  0  0  0  0
 21 38  1  0  0  0  0
 21 39  1  0  0  0  0
M  END
> <s_m_source_file>
AV-unprocessed.smi

> <i_m_source_file_index>
363

> <i_lp_mmshare_version>
43012

> <i_f3d_flags>
0

> <s_epik_input>
W0NIM11jMVtjSF1jKFtDSDNdKW4oYyg9TyljMUMoPU8pW05IMl0pW0NIMl1bQ0BIXShbT0hdKWMyW2NIXVtjSF1jKENsKVtjSF1bY0hdMg==

> <s_epik_cmdline>
J2VwaWtfcHl0aG9uJywgJy1waCcsICc3LjAnLCAnLXRuJywgJzgnLCAnLW1hJywgJzIwMCcsICctbWV0YWxfYmluZGluZycsICctaW1hZScsICc8aW5maWxlLm1hZT4nLCAnLW9tYWUnLCAnPG91dGZpbGUubWFlPic=

> <r_lp_tautomer_probability>
1

> <r_epik_Ionization_Penalty>
3.91973e-07

> <r_epik_Ionization_Penalty_Charging>
1.35363e-07

> <r_epik_Ionization_Penalty_Neutral>
2.5661e-07

> <r_epik_State_Penalty>
-0

> <r_epik_Charging_Adjusted_Penalty>
1.35363e-07

> <i_epik_Tot_Q>
0

> <i_epik_Tot_abs_Q>
0

> <r_epik_Metal_State_Penalty>
-0

> <b_epik_Metal_Only>
0

> <s_lp_Force_Field>
OPLS_2005

> <r_lp_Energy>
39.726

> <b_lp_Chiralities_Consistent>
1

> <s_lp_Variant>
AV-unprocessed.smi:363-2

> <Gold.Version>
5.8.1

> <Gold.Id.Protein>
6NUR|6NUR_protein|mol2

> <Gold.PLP.Fitness>
40.0881

> <Gold.PLP.PLP>
-35.9144

> <Gold.PLP.part.hbond>
-2.0000

> <Gold.PLP.part.metal>
0.0000

> <Gold.PLP.part.buried>
-5.2703

> <Gold.PLP.part.nonpolar>
-27.9498

> <Gold.PLP.part.repulsive>
0.0458

> <Gold.PLP.ligand.clash>
0.0000

> <Gold.PLP.ligand.torsion>
1.0574

> <Gold.PLP.Chemscore.Hbond>
2.0000

> <Gold.PLP.Chemscore.CHOScore>
0.0000

> <Gold.PLP.Chemscore.Metal>
0.0000

> <Gold.Chemscore.Hbonds>
donor molecule, donor type, donor heavy atom, donor atom, acceptor molecule, acceptor atom, score
      P1  H  6896  6908       L1    22  0.85
      P1  H  7997  8008       L1     9  1.00

> <Gold.PLP.Chemscore.Internal.Correction>
0.2885

> <Gold.Rescore>
     Score         DG    S(hbond)    S(metal)    S(lipo)     H(rot)  DE(clash)    DE(int)     intcor
     17.07     -18.50       1.62        0.00     107.75       1.95       0.09       1.34       ----

> <Gold.Chemscore.Fitness>
17.0715

> <Gold.Chemscore.DG>
-18.4984

> <Gold.Chemscore.ZeroCoef>
-5.4800

> <Gold.Chemscore.Hbond>
1.6175

> <Gold.Chemscore.Metal>
0.0000

> <Gold.Chemscore.Lipo>
107.7502

> <Gold.Chemscore.Internal_Hbond>
0.0000

> <Gold.Chemscore.DEClash>
0.0871

> <Gold.Chemscore.DEInternal>
1.3398

> <Gold.Chemscore.Rot>
1.9495

> <Gold.Chemscore.Internal.Correction>
   9.000000E+99

> <Gold.Chemscore.Hbonds>
donor molecule, donor type, donor heavy atom, donor atom, acceptor molecule, acceptor atom, score
      P1  H  6896  6908       L1    22  0.15
      P1  H  7997  8008       L1     9  0.96

> <Gold.Chemscore.Hbond.Weighted>
-5.4025

> <Gold.Chemscore.Metal.Weighted>
-0.0000

> <Gold.Chemscore.Lipo.Weighted>
-12.6068

> <Gold.Chemscore.Internal_Hbond.Weighted>
0.0000

> <Gold.Chemscore.DEClash.Weighted>
0.0871

> <Gold.Chemscore.DEInternal.Weighted>
1.3398

> <Gold.Chemscore.Rot.Weighted>
4.9908

> <Gold.Chemscore.Internal.Correction.Weighted>
   9.000000E+99

> <Gold.Protein.RotatedTorsions>
[ 6907 6896 6895 6894 ] final  118.29 input  -60.11 | X-H torsion
[ 7974 7965 7964 7962 ] final -161.91 input  175.53 | X-H torsion
[ 8008 7997 7996 7995 ] final  -68.91 input   59.86 | X-H torsion
[ 10167 10162 10161 10158 ] final   36.08 input  -65.29 | X-H torsion
[ 10718 10713 10712 10709 ] final  -87.84 input   66.30 | X-H torsion
[ 10763 10752 10751 10750 ] final -104.83 input  -60.55 | X-H torsion
[ 11005 11000 10999 10996 ] final  147.09 input  -57.11 | X-H torsion

> <Gold.Protein.ActiveResidues>
 VAL166  LYS551  ARG553  GLY616  TRP617  ASP618  TYR619  PRO620  LYS621  CYS622 
 ASP623  PHE694  ASN695  SER759  ASP760  ASP761  ALA762  ILE779  LEU786  VAL792 
 PHE793  MET794  SER795  GLU796  ALA797  LYS798  CYS799  TRP800  GLU811  SER814 

> <Gold.Protein.RotatedAtoms>
  152.4553  133.7711  159.6799 H   0  0  0  0  0  0  0  0  0  0  0  0  # atno 6907 bound_to 6896
  150.8478  133.7825  159.3043 H   0  0  0  0  0  0  0  0  0  0  0  0  # atno 6908 bound_to 6896
  151.5430  135.1071  159.9983 H   0  0  0  0  0  0  0  0  0  0  0  0  # atno 6909 bound_to 6896
  144.7375  140.3329  143.6149 H   0  0  0  0  0  0  0  0  0  0  0  0  # atno 7974 bound_to 7965
  154.4901  140.0863  156.7575 H   0  0  0  0  0  0  0  0  0  0  0  0  # atno 8008 bound_to 7997
  155.4251  140.3447  155.4256 H   0  0  0  0  0  0  0  0  0  0  0  0  # atno 8009 bound_to 7997
  156.1318  140.1503  156.9042 H   0  0  0  0  0  0  0  0  0  0  0  0  # atno 8010 bound_to 7997
  140.4161  144.1525  150.6143 H   0  0  0  0  0  0  0  0  0  0  0  0  # atno 10167 bound_to 10162
  155.9984  130.4814  150.4927 H   0  0  0  0  0  0  0  0  0  0  0  0  # atno 10718 bound_to 10713
  154.7905  135.4772  154.0042 H   0  0  0  0  0  0  0  0  0  0  0  0  # atno 10763 bound_to 10752
  153.1624  135.6811  153.8731 H   0  0  0  0  0  0  0  0  0  0  0  0  # atno 10764 bound_to 10752
  153.8340  135.3188  155.3399 H   0  0  0  0  0  0  0  0  0  0  0  0  # atno 10765 bound_to 10752
  140.0847  134.9076  157.1557 H   0  0  0  0  0  0  0  0  0  0  0  0  # atno 11005 bound_to 11000
  145.7453  139.1777  143.2352 LP  0  0  0  0  0  0  0  0  0  0  0  0  # atno 17320 bound_to 7965
  146.1103  140.7437  142.9506 LP  0  0  0  0  0  0  0  0  0  0  0  0  # atno 17321 bound_to 7965
  140.4585  143.2458  151.9252 LP  0  0  0  0  0  0  0  0  0  0  0  0  # atno 17342 bound_to 10162
  139.4782  144.5491  151.8412 LP  0  0  0  0  0  0  0  0  0  0  0  0  # atno 17343 bound_to 10162
  157.2921  131.0628  151.2127 LP  0  0  0  0  0  0  0  0  0  0  0  0  # atno 17370 bound_to 10713
  157.3136  130.6902  149.6229 LP  0  0  0  0  0  0  0  0  0  0  0  0  # atno 17371 bound_to 10713
  140.3437  134.2675  155.7208 LP  0  0  0  0  0  0  0  0  0  0  0  0  # atno 17394 bound_to 11000
  141.2058  133.7849  157.0210 LP  0  0  0  0  0  0  0  0  0  0  0  0  # atno 17395 bound_to 11000

$$$$
