AV-unprocessed.smi:3201|AV-procd|sdf|12239|dock6
  -GOLD-   2272018 73D 1   1.00000     0.00000
 Structure written by MMmdl.
 41 43  0  0  0  0  0  0  0  0  2 V2000
  153.7247  137.2788  161.2283 C   0  0  0  0  0  0  0  0  0  0  0  0
  154.3534  138.1587  162.2602 C   0  0  0  0  0  0  0  0  0  0  0  0
  154.7730  139.4602  162.1908 C   0  0  0  0  0  0  0  0  0  0  0  0
  154.7236  140.4110  161.0265 C   0  0  0  0  0  0  0  0  0  0  0  0
  153.2966  140.5607  160.4832 C   0  0  0  0  0  0  0  0  0  0  0  0
  153.2842  141.3581  159.2400 N   0  3  0  0  0  0  0  0  0  0  0  0
  153.1593  142.8189  159.4406 C   0  0  2  0  0  0  0  0  0  0  0  0
  152.3487  143.1449  160.7150 C   0  0  0  0  0  0  0  0  0  0  0  0
  151.2046  144.0270  160.1825 C   0  0  1  0  0  0  0  0  0  0  0  0
  151.7674  145.3879  159.7331 C   0  0  0  0  0  0  0  0  0  0  0  0
  152.5237  145.0312  158.4394 C   0  0  0  0  0  0  0  0  0  0  0  0
  152.3224  143.5074  158.3359 C   0  0  2  0  0  0  0  0  0  0  0  0
  150.8939  143.3566  158.8506 C   0  0  0  0  0  0  0  0  0  0  0  0
  155.2808  139.7204  163.4950 C   0  0  0  0  0  0  0  0  0  0  0  0
  155.1871  138.6773  164.2998 N   0  0  0  0  0  0  0  0  0  0  0  0
  154.6152  137.7175  163.5440 N   0  0  0  0  0  0  0  0  0  0  0  0
  154.3588  136.4134  164.1241 C   0  0  0  0  0  0  0  0  0  0  0  0
  153.6983  137.7673  160.2546 H   0  0  0  0  0  0  0  0  0  0  0  0
  152.7004  137.0293  161.5055 H   0  0  0  0  0  0  0  0  0  0  0  0
  154.2821  136.3483  161.1190 H   0  0  0  0  0  0  0  0  0  0  0  0
  155.1053  141.3903  161.3177 H   0  0  0  0  0  0  0  0  0  0  0  0
  155.3790  140.0657  160.2258 H   0  0  0  0  0  0  0  0  0  0  0  0
  152.8702  139.5769  160.2822 H   0  0  0  0  0  0  0  0  0  0  0  0
  152.6646  141.0375  161.2324 H   0  0  0  0  0  0  0  0  0  0  0  0
  154.1283  141.1737  158.7172 H   0  0  0  0  0  0  0  0  0  0  0  0
  154.1589  143.2516  159.5080 H   0  0  0  0  0  0  0  0  0  0  0  0
  151.9456  142.2427  161.1779 H   0  0  0  0  0  0  0  0  0  0  0  0
  152.9490  143.6592  161.4665 H   0  0  0  0  0  0  0  0  0  0  0  0
  150.3594  144.1071  160.8668 H   0  0  0  0  0  0  0  0  0  0  0  0
  150.9620  146.0931  159.5236 H   0  0  0  0  0  0  0  0  0  0  0  0
  152.4171  145.8360  160.4858 H   0  0  0  0  0  0  0  0  0  0  0  0
  152.0767  145.5395  157.5840 H   0  0  0  0  0  0  0  0  0  0  0  0
  153.5768  145.3120  158.4797 H   0  0  0  0  0  0  0  0  0  0  0  0
  152.4898  143.1244  157.3292 H   0  0  0  0  0  0  0  0  0  0  0  0
  150.5739  142.3181  158.9517 H   0  0  0  0  0  0  0  0  0  0  0  0
  150.1588  143.9002  158.2541 H   0  0  0  0  0  0  0  0  0  0  0  0
  155.7144  140.6327  163.8775 H   0  0  0  0  0  0  0  0  0  0  0  0
  153.3132  136.1433  163.9742 H   0  0  0  0  0  0  0  0  0  0  0  0
  154.5697  136.4190  165.1946 H   0  0  0  0  0  0  0  0  0  0  0  0
  154.9923  135.6681  163.6429 H   0  0  0  0  0  0  0  0  0  0  0  0
  152.4934  141.0518  158.6914 H   0  0  0  0  0  0  0  0  0  0  0  0
  1  2  1  0  0  0  0
  1 18  1  0  0  0  0
  1 19  1  0  0  0  0
  1 20  1  0  0  0  0
  2 16  1  0  0  0  0
  2  3  2  0  0  0  0
  3  4  1  0  0  0  0
  3 14  1  0  0  0  0
  4  5  1  0  0  0  0
  4 21  1  0  0  0  0
  4 22  1  0  0  0  0
  5  6  1  0  0  0  0
  5 23  1  0  0  0  0
  5 24  1  0  0  0  0
  6  7  1  0  0  0  0
  6 25  1  0  0  0  0
  6 41  1  0  0  0  0
  7 12  1  0  0  0  0
  7  8  1  0  0  0  0
  7 26  1  0  0  0  0
  8  9  1  0  0  0  0
  8 27  1  0  0  0  0
  8 28  1  0  0  0  0
  9 13  1  0  0  0  0
  9 10  1  0  0  0  0
  9 29  1  0  0  0  0
 10 11  1  0  0  0  0
 10 30  1  0  0  0  0
 10 31  1  0  0  0  0
 11 12  1  0  0  0  0
 11 32  1  0  0  0  0
 11 33  1  0  0  0  0
 12 13  1  0  0  0  0
 12 34  1  0  0  0  0
 13 35  1  0  0  0  0
 13 36  1  0  0  0  0
 14 15  2  0  0  0  0
 14 37  1  0  0  0  0
 15 16  1  0  0  0  0
 16 17  1  0  0  0  0
 17 38  1  0  0  0  0
 17 39  1  0  0  0  0
 17 40  1  0  0  0  0
M  CHG  1   6   1
M  END
> <s_m_source_file>
AV-unprocessed.smi

> <i_m_source_file_index>
3201

> <i_lp_mmshare_version>
43012

> <i_f3d_flags>
0

> <s_epik_input>
W0NIM11uMW5bY0hdYyhjMVtDSDNdKVtDSDJdW0NIMl1bTkhdW0NASF0oW0NIMl1bQ0BIXTIzKVtDQEhdKFtDSDJdMylbQ0gyXVtDSDJdMg==

> <s_epik_cmdline>
J2VwaWtfcHl0aG9uJywgJy1waCcsICc3LjAnLCAnLXRuJywgJzgnLCAnLW1hJywgJzIwMCcsICctbWV0YWxfYmluZGluZycsICctaW1hZScsICc8aW5maWxlLm1hZT4nLCAnLW9tYWUnLCAnPG91dGZpbGUubWFlPic=

> <r_lp_tautomer_probability>
1

> <r_epik_Ionization_Penalty>
0.000331174

> <r_epik_Ionization_Penalty_Charging>
0.000242709

> <r_epik_Ionization_Penalty_Neutral>
8.84659e-05

> <r_epik_State_Penalty>
-0

> <r_epik_Charging_Adjusted_Penalty>
0.000242709

> <i_epik_Tot_Q>
1

> <i_epik_Tot_abs_Q>
1

> <r_epik_Metal_State_Penalty>
-0

> <b_epik_Metal_Only>
0

> <s_lp_Force_Field>
OPLS_2005

> <r_lp_Energy>
49.8246

> <b_lp_Chiralities_Consistent>
1

> <s_lp_Variant>
AV-unprocessed.smi:3201-3

> <Gold.Version>
5.8.1

> <Gold.Id.Protein>
6NUR|6NUR_protein|mol2

> <Gold.PLP.Fitness>
42.9330

> <Gold.PLP.PLP>
-44.1550

> <Gold.PLP.part.hbond>
0.0000

> <Gold.PLP.part.metal>
0.0000

> <Gold.PLP.part.buried>
-5.3962

> <Gold.PLP.part.nonpolar>
-39.6614

> <Gold.PLP.part.repulsive>
0.0971

> <Gold.PLP.ligand.clash>
0.0000

> <Gold.PLP.ligand.torsion>
0.6243

> <Gold.PLP.Chemscore.Hbond>
0.0000

> <Gold.PLP.Chemscore.CHOScore>
0.0000

> <Gold.PLP.Chemscore.Metal>
0.0000

> <Gold.PLP.Chemscore.Internal.Correction>
0.0266

> <Gold.Rescore>
     Score         DG    S(hbond)    S(metal)    S(lipo)     H(rot)  DE(clash)    DE(int)     intcor
     17.42     -17.96       0.00        0.00     136.37       1.36       0.02       0.52       ----

> <Gold.Chemscore.Fitness>
17.4223

> <Gold.Chemscore.DG>
-17.9565

> <Gold.Chemscore.ZeroCoef>
-5.4800

> <Gold.Chemscore.Hbond>
0.0000

> <Gold.Chemscore.Metal>
0.0000

> <Gold.Chemscore.Lipo>
136.3687

> <Gold.Chemscore.Internal_Hbond>
0.0000

> <Gold.Chemscore.DEClash>
0.0163

> <Gold.Chemscore.DEInternal>
0.5179

> <Gold.Chemscore.Rot>
1.3588

> <Gold.Chemscore.Internal.Correction>
   9.000000E+99

> <Gold.Chemscore.Hbond.Weighted>
-0.0000

> <Gold.Chemscore.Metal.Weighted>
-0.0000

> <Gold.Chemscore.Lipo.Weighted>
-15.9551

> <Gold.Chemscore.Internal_Hbond.Weighted>
0.0000

> <Gold.Chemscore.DEClash.Weighted>
0.0163

> <Gold.Chemscore.DEInternal.Weighted>
0.5179

> <Gold.Chemscore.Rot.Weighted>
3.4786

> <Gold.Chemscore.Internal.Correction.Weighted>
   9.000000E+99

> <Gold.Protein.RotatedTorsions>
[ 6907 6896 6895 6894 ] final -161.54 input  -60.11 | X-H torsion
[ 7974 7965 7964 7962 ] final -134.70 input  175.53 | X-H torsion
[ 8008 7997 7996 7995 ] final  -66.14 input   59.86 | X-H torsion
[ 10167 10162 10161 10158 ] final -173.23 input  -65.29 | X-H torsion
[ 10718 10713 10712 10709 ] final -102.52 input   66.30 | X-H torsion
[ 10763 10752 10751 10750 ] final -138.32 input  -60.55 | X-H torsion
[ 11005 11000 10999 10996 ] final  108.77 input  -57.11 | X-H torsion

> <Gold.Protein.ActiveResidues>
 VAL166  LYS551  ARG553  GLY616  TRP617  ASP618  TYR619  PRO620  LYS621  CYS622 
 ASP623  PHE694  ASN695  SER759  ASP760  ASP761  ALA762  ILE779  LEU786  VAL792 
 PHE793  MET794  SER795  GLU796  ALA797  LYS798  CYS799  TRP800  GLU811  SER814 

> <Gold.Protein.RotatedAtoms>
  151.3662  133.3871  159.2694 H   0  0  0  0  0  0  0  0  0  0  0  0  # atno 6907 bound_to 6896
  150.9686  134.9064  159.7785 H   0  0  0  0  0  0  0  0  0  0  0  0  # atno 6908 bound_to 6896
  152.5176  134.3623  159.9341 H   0  0  0  0  0  0  0  0  0  0  0  0  # atno 6909 bound_to 6896
  144.9080  140.6858  143.5043 H   0  0  0  0  0  0  0  0  0  0  0  0  # atno 7974 bound_to 7965
  154.4715  140.0919  156.7157 H   0  0  0  0  0  0  0  0  0  0  0  0  # atno 8008 bound_to 7997
  155.4710  140.3464  155.4307 H   0  0  0  0  0  0  0  0  0  0  0  0  # atno 8009 bound_to 7997
  156.1047  140.1431  156.9408 H   0  0  0  0  0  0  0  0  0  0  0  0  # atno 8010 bound_to 7997
  139.5700  144.1665  152.1369 H   0  0  0  0  0  0  0  0  0  0  0  0  # atno 10167 bound_to 10162
  156.0232  130.5424  150.7121 H   0  0  0  0  0  0  0  0  0  0  0  0  # atno 10718 bound_to 10713
  154.8640  135.3615  154.5366 H   0  0  0  0  0  0  0  0  0  0  0  0  # atno 10763 bound_to 10752
  153.5989  135.7013  153.5397 H   0  0  0  0  0  0  0  0  0  0  0  0  # atno 10764 bound_to 10752
  153.3308  135.4125  155.1455 H   0  0  0  0  0  0  0  0  0  0  0  0  # atno 10765 bound_to 10752
  139.8850  134.9440  156.6024 H   0  0  0  0  0  0  0  0  0  0  0  0  # atno 11005 bound_to 11000
  145.3503  139.1708  143.4438 LP  0  0  0  0  0  0  0  0  0  0  0  0  # atno 17320 bound_to 7965
  146.3143  140.3554  142.8660 LP  0  0  0  0  0  0  0  0  0  0  0  0  # atno 17321 bound_to 7965
  140.1196  144.5385  150.6872 LP  0  0  0  0  0  0  0  0  0  0  0  0  # atno 17342 bound_to 10162
  140.6984  143.2418  151.4935 LP  0  0  0  0  0  0  0  0  0  0  0  0  # atno 17343 bound_to 10162
  157.4756  131.0897  151.0593 LP  0  0  0  0  0  0  0  0  0  0  0  0  # atno 17370 bound_to 10713
  157.1041  130.5994  149.5467 LP  0  0  0  0  0  0  0  0  0  0  0  0  # atno 17371 bound_to 10713
  140.7874  133.8610  155.8617 LP  0  0  0  0  0  0  0  0  0  0  0  0  # atno 17394 bound_to 11000
  140.9707  134.1534  157.4578 LP  0  0  0  0  0  0  0  0  0  0  0  0  # atno 17395 bound_to 11000

$$$$
