AV-unprocessed.smi:1788|AV-procd|sdf|7212|dock1
  -GOLD-   22720 8453D 1   1.00000     0.00000
 Structure written by MMmdl.
 55 57  0  0  0  0  0  0  0  0  2 V2000
  147.9304  133.3830  153.0199 C   0  0  0  0  0  0  0  0  0  0  0  0
  146.3925  133.4207  152.9913 C   0  0  2  0  0  0  0  0  0  0  0  0
  145.8095  132.8562  151.6830 C   0  0  0  0  0  0  0  0  0  0  0  0
  145.9950  133.8427  150.5224 C   0  0  0  0  0  0  0  0  0  0  0  0
  145.4196  135.2217  150.8780 C   0  0  0  0  0  0  0  0  0  0  0  0
  146.0292  135.7534  152.1239 N   0  3  1  0  0  0  0  0  0  0  0  0
  145.5945  137.1458  152.4109 C   0  0  0  0  0  0  0  0  0  0  0  0
  146.4542  138.2147  151.7079 C   0  0  0  0  0  0  0  0  0  0  0  0
  147.7338  138.4174  152.3838 N   0  0  0  0  0  0  0  0  0  0  0  0
  147.9880  139.3692  153.2930 C   0  0  0  0  0  0  0  0  0  0  0  0
  147.1605  140.2099  153.6407 O   0  0  0  0  0  0  0  0  0  0  0  0
  149.2327  139.2540  153.7854 N   0  0  0  0  0  0  0  0  0  0  0  0
  149.8547  140.0380  154.7941 C   0  0  0  0  0  0  0  0  0  0  0  0
  151.0642  139.5723  155.3445 C   0  0  0  0  0  0  0  0  0  0  0  0
  151.7118  140.3379  156.3323 C   0  0  0  0  0  0  0  0  0  0  0  0
  151.1385  141.5650  156.7414 C   0  0  0  0  0  0  0  0  0  0  0  0
  151.7740  142.3539  157.7255 N   0  0  0  0  0  0  0  0  0  0  0  0
  151.4786  143.7840  157.6730 C   0  0  0  0  0  0  0  0  0  0  0  0
  152.4384  144.5658  158.5870 C   0  0  0  0  0  0  0  0  0  0  0  0
  152.3847  144.0389  159.9084 O   0  0  0  0  0  0  0  0  0  0  0  0
  152.7889  142.6747  159.9496 C   0  0  0  0  0  0  0  0  0  0  0  0
  151.8379  141.8267  159.0879 C   0  0  0  0  0  0  0  0  0  0  0  0
  149.9768  142.0152  156.2067 N   0  0  0  0  0  0  0  0  0  0  0  0
  149.3587  141.2789  155.2594 C   0  0  0  0  0  0  0  0  0  0  0  0
  145.8292  134.8306  153.2745 C   0  0  0  0  0  0  0  0  0  0  0  0
  148.3704  134.0458  152.2747 H   0  0  0  0  0  0  0  0  0  0  0  0
  148.3013  132.3756  152.8286 H   0  0  0  0  0  0  0  0  0  0  0  0
  148.3096  133.6867  153.9960 H   0  0  0  0  0  0  0  0  0  0  0  0
  146.0583  132.7692  153.8000 H   0  0  0  0  0  0  0  0  0  0  0  0
  146.2656  131.8955  151.4418 H   0  0  0  0  0  0  0  0  0  0  0  0
  144.7445  132.6624  151.8185 H   0  0  0  0  0  0  0  0  0  0  0  0
  147.0533  133.9367  150.2767 H   0  0  0  0  0  0  0  0  0  0  0  0
  145.5065  133.4570  149.6271 H   0  0  0  0  0  0  0  0  0  0  0  0
  145.6098  135.9076  150.0514 H   0  0  0  0  0  0  0  0  0  0  0  0
  144.3366  135.1605  150.9981 H   0  0  0  0  0  0  0  0  0  0  0  0
  144.5670  137.2759  152.0677 H   0  0  0  0  0  0  0  0  0  0  0  0
  145.5764  137.3159  153.4884 H   0  0  0  0  0  0  0  0  0  0  0  0
  146.6622  137.8938  150.6870 H   0  0  0  0  0  0  0  0  0  0  0  0
  145.9045  139.1524  151.6145 H   0  0  0  0  0  0  0  0  0  0  0  0
  148.4768  137.7739  152.1516 H   0  0  0  0  0  0  0  0  0  0  0  0
  149.7734  138.4682  153.4543 H   0  0  0  0  0  0  0  0  0  0  0  0
  151.4912  138.6339  155.0215 H   0  0  0  0  0  0  0  0  0  0  0  0
  152.6281  139.9707  156.7696 H   0  0  0  0  0  0  0  0  0  0  0  0
  151.5578  144.1766  156.6602 H   0  0  0  0  0  0  0  0  0  0  0  0
  150.4480  143.9412  157.9939 H   0  0  0  0  0  0  0  0  0  0  0  0
  153.4605  144.5200  158.2073 H   0  0  0  0  0  0  0  0  0  0  0  0
  152.1561  145.6183  158.6138 H   0  0  0  0  0  0  0  0  0  0  0  0
  153.8195  142.5781  159.6035 H   0  0  0  0  0  0  0  0  0  0  0  0
  152.7670  142.3293  160.9833 H   0  0  0  0  0  0  0  0  0  0  0  0
  150.8378  141.8306  159.5236 H   0  0  0  0  0  0  0  0  0  0  0  0
  152.1863  140.7930  159.0769 H   0  0  0  0  0  0  0  0  0  0  0  0
  148.4584  141.7212  154.8628 H   0  0  0  0  0  0  0  0  0  0  0  0
  144.7614  134.7607  153.4888 H   0  0  0  0  0  0  0  0  0  0  0  0
  146.2970  135.2352  154.1718 H   0  0  0  0  0  0  0  0  0  0  0  0
  147.0241  135.7959  151.9543 H   0  0  0  0  0  0  0  0  0  0  0  0
  1  2  1  0  0  0  0
  1 26  1  0  0  0  0
  1 27  1  0  0  0  0
  1 28  1  0  0  0  0
  2 25  1  0  0  0  0
  2  3  1  0  0  0  0
  2 29  1  0  0  0  0
  3  4  1  0  0  0  0
  3 30  1  0  0  0  0
  3 31  1  0  0  0  0
  4  5  1  0  0  0  0
  4 32  1  0  0  0  0
  4 33  1  0  0  0  0
  5  6  1  0  0  0  0
  5 34  1  0  0  0  0
  5 35  1  0  0  0  0
  6  7  1  0  0  0  0
  6 25  1  0  0  0  0
  6 55  1  0  0  0  0
  7  8  1  0  0  0  0
  7 36  1  0  0  0  0
  7 37  1  0  0  0  0
  8  9  1  0  0  0  0
  8 38  1  0  0  0  0
  8 39  1  0  0  0  0
  9 10  1  0  0  0  0
  9 40  1  0  0  0  0
 10 11  2  0  0  0  0
 10 12  1  0  0  0  0
 12 13  1  0  0  0  0
 12 41  1  0  0  0  0
 13 24  1  0  0  0  0
 13 14  2  0  0  0  0
 14 15  1  0  0  0  0
 14 42  1  0  0  0  0
 15 16  2  0  0  0  0
 15 43  1  0  0  0  0
 16 17  1  0  0  0  0
 16 23  1  0  0  0  0
 17 22  1  0  0  0  0
 17 18  1  0  0  0  0
 18 19  1  0  0  0  0
 18 44  1  0  0  0  0
 18 45  1  0  0  0  0
 19 20  1  0  0  0  0
 19 46  1  0  0  0  0
 19 47  1  0  0  0  0
 20 21  1  0  0  0  0
 21 22  1  0  0  0  0
 21 48  1  0  0  0  0
 21 49  1  0  0  0  0
 22 50  1  0  0  0  0
 22 51  1  0  0  0  0
 23 24  2  0  0  0  0
 24 52  1  0  0  0  0
 25 53  1  0  0  0  0
 25 54  1  0  0  0  0
M  CHG  1   6   1
M  END
> <s_m_source_file>
AV-unprocessed.smi

> <i_m_source_file_index>
1788

> <i_lp_mmshare_version>
43012

> <i_f3d_flags>
0

> <s_epik_input>
W0NIM11bQ0BASF0xW0NIMl1bQ0gyXVtDSDJdTihbQ0gyXTEpW0NIMl1bQ0gyXVtOSF1DKD1PKVtOSF1jMltjSF1bY0hdYyhuW2NIXTIpTjNbQ0gyXVtDSDJdT1tDSDJdW0NIMl0z

> <s_epik_cmdline>
J2VwaWtfcHl0aG9uJywgJy1waCcsICc3LjAnLCAnLXRuJywgJzgnLCAnLW1hJywgJzIwMCcsICctbWV0YWxfYmluZGluZycsICctaW1hZScsICc8aW5maWxlLm1hZT4nLCAnLW9tYWUnLCAnPG91dGZpbGUubWFlPic=

> <r_lp_tautomer_probability>
1

> <r_epik_Ionization_Penalty>
0.00340126

> <r_epik_Ionization_Penalty_Charging>
0.00171832

> <r_epik_Ionization_Penalty_Neutral>
0.00168294

> <r_epik_State_Penalty>
-0

> <r_epik_Charging_Adjusted_Penalty>
0.00171832

> <i_epik_Tot_Q>
1

> <i_epik_Tot_abs_Q>
1

> <r_epik_Metal_State_Penalty>
-0

> <b_epik_Metal_Only>
0

> <s_lp_Force_Field>
OPLS_2005

> <r_lp_Energy>
41.5568

> <b_lp_Chiralities_Consistent>
1

> <s_lp_Variant>
AV-unprocessed.smi:1788-3

> <Gold.Version>
5.8.1

> <Gold.Id.Protein>
6NUR|6NUR_protein|mol2

> <Gold.PLP.Fitness>
55.5391

> <Gold.PLP.PLP>
-48.3325

> <Gold.PLP.part.hbond>
-3.9626

> <Gold.PLP.part.metal>
0.0000

> <Gold.PLP.part.buried>
-0.5837

> <Gold.PLP.part.nonpolar>
-44.8860

> <Gold.PLP.part.repulsive>
1.5469

> <Gold.PLP.ligand.clash>
0.0000

> <Gold.PLP.ligand.torsion>
1.0667

> <Gold.PLP.Chemscore.Hbond>
2.9760

> <Gold.PLP.Chemscore.CHOScore>
0.0000

> <Gold.PLP.Chemscore.Metal>
0.0000

> <Gold.Chemscore.Hbonds>
donor molecule, donor type, donor heavy atom, donor atom, acceptor molecule, acceptor atom, score
      L1  H     6    55       P1  7948  2.00
      L1  H     9    40       P1  7948  1.00

> <Gold.PLP.Chemscore.Internal.Correction>
0.4120

> <Gold.Rescore>
     Score         DG    S(hbond)    S(metal)    S(lipo)     H(rot)  DE(clash)    DE(int)     intcor
     18.52     -20.76       1.90        0.00     111.21       1.60       0.05       2.19       ----

> <Gold.Chemscore.Fitness>
18.5218

> <Gold.Chemscore.DG>
-20.7632

> <Gold.Chemscore.ZeroCoef>
-5.4800

> <Gold.Chemscore.Hbond>
1.9046

> <Gold.Chemscore.Metal>
0.0000

> <Gold.Chemscore.Lipo>
111.2115

> <Gold.Chemscore.Internal_Hbond>
0.0000

> <Gold.Chemscore.DEClash>
0.0484

> <Gold.Chemscore.DEInternal>
2.1930

> <Gold.Chemscore.Rot>
1.5976

> <Gold.Chemscore.Internal.Correction>
   9.000000E+99

> <Gold.Chemscore.Hbonds>
donor molecule, donor type, donor heavy atom, donor atom, acceptor molecule, acceptor atom, score
      L1  H     6    55       P1  7948  0.99
      L1  H     9    40       P1  7948  0.93

> <Gold.Chemscore.Hbond.Weighted>
-6.3613

> <Gold.Chemscore.Metal.Weighted>
-0.0000

> <Gold.Chemscore.Lipo.Weighted>
-13.0118

> <Gold.Chemscore.Internal_Hbond.Weighted>
0.0000

> <Gold.Chemscore.DEClash.Weighted>
0.0484

> <Gold.Chemscore.DEInternal.Weighted>
2.1930

> <Gold.Chemscore.Rot.Weighted>
4.0899

> <Gold.Chemscore.Internal.Correction.Weighted>
   9.000000E+99

> <Gold.Protein.RotatedTorsions>
[ 6907 6896 6895 6894 ] final  -39.60 input  -60.11 | X-H torsion
[ 7974 7965 7964 7962 ] final    4.87 input  175.53 | X-H torsion
[ 8008 7997 7996 7995 ] final   78.70 input   59.86 | X-H torsion
[ 10167 10162 10161 10158 ] final   54.71 input  -65.29 | X-H torsion
[ 10718 10713 10712 10709 ] final -115.62 input   66.30 | X-H torsion
[ 10763 10752 10751 10750 ] final   28.88 input  -60.55 | X-H torsion
[ 11005 11000 10999 10996 ] final  157.36 input  -57.11 | X-H torsion

> <Gold.Protein.ActiveResidues>
 VAL166  LYS551  ARG553  GLY616  TRP617  ASP618  TYR619  PRO620  LYS621  CYS622 
 ASP623  PHE694  ASN695  SER759  ASP760  ASP761  ALA762  ILE779  LEU786  VAL792 
 PHE793  MET794  SER795  GLU796  ALA797  LYS798  CYS799  TRP800  GLU811  SER814 

> <Gold.Protein.RotatedAtoms>
  150.9884  134.9224  159.7885 H   0  0  0  0  0  0  0  0  0  0  0  0  # atno 6907 bound_to 6896
  152.5243  134.3315  159.9194 H   0  0  0  0  0  0  0  0  0  0  0  0  # atno 6908 bound_to 6896
  151.3321  133.3955  159.2698 H   0  0  0  0  0  0  0  0  0  0  0  0  # atno 6909 bound_to 6896
  146.2442  140.0470  142.8378 H   0  0  0  0  0  0  0  0  0  0  0  0  # atno 7974 bound_to 7965
  155.8594  140.3454  155.5746 H   0  0  0  0  0  0  0  0  0  0  0  0  # atno 8008 bound_to 7997
  155.7950  140.0877  157.2008 H   0  0  0  0  0  0  0  0  0  0  0  0  # atno 8009 bound_to 7997
  154.4011  140.1476  156.3194 H   0  0  0  0  0  0  0  0  0  0  0  0  # atno 8010 bound_to 7997
  140.2272  144.3726  150.6428 H   0  0  0  0  0  0  0  0  0  0  0  0  # atno 10167 bound_to 10162
  156.0908  130.6091  150.8929 H   0  0  0  0  0  0  0  0  0  0  0  0  # atno 10718 bound_to 10713
  153.0464  135.6502  154.0806 H   0  0  0  0  0  0  0  0  0  0  0  0  # atno 10763 bound_to 10752
  154.0502  135.2896  155.3343 H   0  0  0  0  0  0  0  0  0  0  0  0  # atno 10764 bound_to 10752
  154.6725  135.5351  153.8222 H   0  0  0  0  0  0  0  0  0  0  0  0  # atno 10765 bound_to 10752
  140.1762  134.8508  157.2749 H   0  0  0  0  0  0  0  0  0  0  0  0  # atno 11005 bound_to 11000
  145.1018  140.9351  143.4708 LP  0  0  0  0  0  0  0  0  0  0  0  0  # atno 17320 bound_to 7965
  145.0664  139.3065  143.5854 LP  0  0  0  0  0  0  0  0  0  0  0  0  # atno 17321 bound_to 7965
  140.6212  143.2176  151.6690 LP  0  0  0  0  0  0  0  0  0  0  0  0  # atno 17342 bound_to 10162
  139.5123  144.3481  152.0678 LP  0  0  0  0  0  0  0  0  0  0  0  0  # atno 17343 bound_to 10162
  157.6056  131.0939  150.8885 LP  0  0  0  0  0  0  0  0  0  0  0  0  # atno 17370 bound_to 10713
  156.9034  130.5254  149.5282 LP  0  0  0  0  0  0  0  0  0  0  0  0  # atno 17371 bound_to 10713
  140.2320  134.3898  155.7518 LP  0  0  0  0  0  0  0  0  0  0  0  0  # atno 17394 bound_to 11000
  141.2220  133.7220  156.8655 LP  0  0  0  0  0  0  0  0  0  0  0  0  # atno 17395 bound_to 11000

$$$$
