AV-unprocessed.smi:2597|AV-procd|sdf|10175|dock3
  -GOLD-   2272014193D 1   1.00000     0.00000
 Structure written by MMmdl.
 30 31  0  0  0  0  0  0  0  0  1 V2000
  151.5241  144.3887  157.1866 N   0  0  0  0  0  0  0  0  0  0  0  0
  151.4366  143.4829  158.3190 C   0  0  2  0  0  0  0  0  0  0  0  0
  152.2022  144.1067  159.5018 C   0  0  0  0  0  0  0  0  0  0  0  0
  152.2291  143.1634  160.7138 C   0  0  0  0  0  0  0  0  0  0  0  0
  152.8258  141.7991  160.3383 C   0  0  0  0  0  0  0  0  0  0  0  0
  152.0537  141.1618  159.1731 C   0  0  0  0  0  0  0  0  0  0  0  0
  152.0104  142.0925  157.9424 C   0  0  1  0  0  0  0  0  0  0  0  0
  151.2753  141.4673  156.8491 N   0  0  0  0  0  0  0  0  0  0  0  0
  150.0100  141.7709  156.3904 C   0  0  0  0  0  0  0  0  0  0  0  0
  149.8202  140.8883  155.3650 C   0  0  0  0  0  0  0  0  0  0  0  0
  148.6303  140.7120  154.4722 C   0  0  0  0  0  0  0  0  0  0  0  0
  149.0114  141.1705  153.1929 O   0  0  0  0  0  0  0  0  0  0  0  0
  150.9639  140.1016  155.2359 N   0  0  0  0  0  0  0  0  0  0  0  0
  151.8310  140.4604  156.1293 N   0  0  0  0  0  0  0  0  0  0  0  0
  150.3859  143.3834  158.5945 H   0  0  0  0  0  0  0  0  0  0  0  0
  153.0373  142.2309  157.5992 H   0  0  0  0  0  0  0  0  0  0  0  0
  150.6184  144.4668  156.7454 H   0  0  0  0  0  0  0  0  0  0  0  0
  151.7693  145.3143  157.5079 H   0  0  0  0  0  0  0  0  0  0  0  0
  153.2269  144.3348  159.2038 H   0  0  0  0  0  0  0  0  0  0  0  0
  151.7450  145.0550  159.7872 H   0  0  0  0  0  0  0  0  0  0  0  0
  152.8076  143.6126  161.5212 H   0  0  0  0  0  0  0  0  0  0  0  0
  151.2163  143.0286  161.0957 H   0  0  0  0  0  0  0  0  0  0  0  0
  153.8738  141.9202  160.0613 H   0  0  0  0  0  0  0  0  0  0  0  0
  152.8083  141.1347  161.2028 H   0  0  0  0  0  0  0  0  0  0  0  0
  152.5155  140.2109  158.9047 H   0  0  0  0  0  0  0  0  0  0  0  0
  151.0402  140.9295  159.5029 H   0  0  0  0  0  0  0  0  0  0  0  0
  149.3854  142.5425  156.8153 H   0  0  0  0  0  0  0  0  0  0  0  0
  148.3319  139.6650  154.4125 H   0  0  0  0  0  0  0  0  0  0  0  0
  147.7718  141.2846  154.8250 H   0  0  0  0  0  0  0  0  0  0  0  0
  149.2217  140.4218  152.6563 H   0  0  0  0  0  0  0  0  0  0  0  0
  1  2  1  0  0  0  0
  1 17  1  0  0  0  0
  1 18  1  0  0  0  0
  2 15  1  0  0  0  0
  2  7  1  0  0  0  0
  2  3  1  0  0  0  0
  3  4  1  0  0  0  0
  3 19  1  0  0  0  0
  3 20  1  0  0  0  0
  4  5  1  0  0  0  0
  4 21  1  0  0  0  0
  4 22  1  0  0  0  0
  5  6  1  0  0  0  0
  5 23  1  0  0  0  0
  5 24  1  0  0  0  0
  6  7  1  0  0  0  0
  6 25  1  0  0  0  0
  6 26  1  0  0  0  0
  7 16  1  0  0  0  0
  7  8  1  0  0  0  0
  8 14  1  0  0  0  0
  8  9  1  0  0  0  0
  9 10  2  0  0  0  0
  9 27  1  0  0  0  0
 10 11  1  0  0  0  0
 10 13  1  0  0  0  0
 11 12  1  0  0  0  0
 11 28  1  0  0  0  0
 11 29  1  0  0  0  0
 12 30  1  0  0  0  0
 13 14  2  0  0  0  0
M  END
> <s_m_source_file>
AV-unprocessed.smi

> <i_m_source_file_index>
2597

> <i_lp_mmshare_version>
43012

> <i_f3d_flags>
0

> <s_epik_input>
W05IMl1bQ0BIXTFbQ0gyXVtDSDJdW0NIMl1bQ0gyXVtDQEhdMW4yW2NIXWMobm4yKVtDSDJdW09IXQ==

> <s_epik_cmdline>
J2VwaWtfcHl0aG9uJywgJy1waCcsICc3LjAnLCAnLXRuJywgJzgnLCAnLW1hJywgJzIwMCcsICctbWV0YWxfYmluZGluZycsICctaW1hZScsICc8aW5maWxlLm1hZT4nLCAnLW9tYWUnLCAnPG91dGZpbGUubWFlPic=

> <r_lp_tautomer_probability>
1

> <r_epik_Ionization_Penalty>
2.21303

> <r_epik_Ionization_Penalty_Charging>
0

> <r_epik_Ionization_Penalty_Neutral>
2.21303

> <r_epik_State_Penalty>
2.3573

> <r_epik_Charging_Adjusted_Penalty>
2.3573

> <i_epik_Tot_Q>
0

> <i_epik_Tot_abs_Q>
0

> <r_epik_Metal_State_Penalty>
2.35724

> <b_epik_Metal_Only>
0

> <s_lp_Force_Field>
OPLS_2005

> <r_lp_Energy>
13.4358

> <b_lp_Chiralities_Consistent>
1

> <s_lp_Variant>
AV-unprocessed.smi:2597-6

> <Gold.Version>
5.8.1

> <Gold.Id.Protein>
6NUR|6NUR_protein|mol2

> <Gold.PLP.Fitness>
44.4983

> <Gold.PLP.PLP>
-31.5261

> <Gold.PLP.part.hbond>
-4.5370

> <Gold.PLP.part.metal>
0.0000

> <Gold.PLP.part.buried>
-3.1431

> <Gold.PLP.part.nonpolar>
-23.1654

> <Gold.PLP.part.repulsive>
0.0365

> <Gold.PLP.ligand.clash>
0.0000

> <Gold.PLP.ligand.torsion>
0.5273

> <Gold.PLP.Chemscore.Hbond>
3.7980

> <Gold.PLP.Chemscore.CHOScore>
0.8702

> <Gold.PLP.Chemscore.Metal>
0.0000

> <Gold.Chemscore.Hbonds>
donor molecule, donor type, donor heavy atom, donor atom, acceptor molecule, acceptor atom, score
      L1  H     1    17       P1  8028  1.00
      L1  H    12    30       P1  7957  0.82
      P1  H  7989  7998       L1    13  0.90
      P1  H  8011  8017       L1    12  1.00
      L1  C     9    27       P1  8028  0.88

> <Gold.PLP.Chemscore.Internal.Correction>
0.0224

> <Gold.Rescore>
     Score         DG    S(hbond)    S(metal)    S(lipo)     H(rot)  DE(clash)    DE(int)     intcor
     18.80     -19.62       2.69        0.00      83.85       1.82       0.41       0.42       ----

> <Gold.Chemscore.Fitness>
18.7977

> <Gold.Chemscore.DG>
-19.6193

> <Gold.Chemscore.ZeroCoef>
-5.4800

> <Gold.Chemscore.Hbond>
2.6926

> <Gold.Chemscore.Metal>
0.0000

> <Gold.Chemscore.Lipo>
83.8530

> <Gold.Chemscore.Internal_Hbond>
0.0000

> <Gold.Chemscore.DEClash>
0.4063

> <Gold.Chemscore.DEInternal>
0.4153

> <Gold.Chemscore.Rot>
1.8222

> <Gold.Chemscore.Internal.Correction>
   9.000000E+99

> <Gold.Chemscore.Hbonds>
donor molecule, donor type, donor heavy atom, donor atom, acceptor molecule, acceptor atom, score
      L1  H     1    17       P1  8028  0.91
      L1  H    12    30       P1  7957  0.78
      P1  H  7989  7998       L1    13  0.08
      P1  H  8011  8017       L1    12  0.29

> <Gold.Chemscore.Hbond.Weighted>
-8.9935

> <Gold.Chemscore.Metal.Weighted>
-0.0000

> <Gold.Chemscore.Lipo.Weighted>
-9.8108

> <Gold.Chemscore.Internal_Hbond.Weighted>
0.0000

> <Gold.Chemscore.DEClash.Weighted>
0.4063

> <Gold.Chemscore.DEInternal.Weighted>
0.4153

> <Gold.Chemscore.Rot.Weighted>
4.6649

> <Gold.Chemscore.Internal.Correction.Weighted>
   9.000000E+99

> <Gold.Protein.RotatedTorsions>
[ 6907 6896 6895 6894 ] final -174.24 input  -60.11 | X-H torsion
[ 7974 7965 7964 7962 ] final  -53.07 input  175.53 | X-H torsion
[ 8008 7997 7996 7995 ] final -146.22 input   59.86 | X-H torsion
[ 10167 10162 10161 10158 ] final -109.27 input  -65.29 | X-H torsion
[ 10718 10713 10712 10709 ] final   60.43 input   66.30 | X-H torsion
[ 10763 10752 10751 10750 ] final   93.05 input  -60.55 | X-H torsion
[ 11005 11000 10999 10996 ] final    8.56 input  -57.11 | X-H torsion

> <Gold.Protein.ActiveResidues>
 VAL166  LYS551  ARG553  GLY616  TRP617  ASP618  TYR619  PRO620  LYS621  CYS622 
 ASP623  PHE694  ASN695  SER759  ASP760  ASP761  ALA762  ILE779  LEU786  VAL792 
 PHE793  MET794  SER795  GLU796  ALA797  LYS798  CYS799  TRP800  GLU811  SER814 

> <Gold.Protein.RotatedAtoms>
  151.5691  133.3392  159.2985 H   0  0  0  0  0  0  0  0  0  0  0  0  # atno 6907 bound_to 6896
  150.8378  134.7661  159.6918 H   0  0  0  0  0  0  0  0  0  0  0  0  # atno 6908 bound_to 6896
  152.4451  134.5518  159.9920 H   0  0  0  0  0  0  0  0  0  0  0  0  # atno 6909 bound_to 6896
  145.9009  140.7995  142.9744 H   0  0  0  0  0  0  0  0  0  0  0  0  # atno 7974 bound_to 7965
  155.5558  140.0621  157.2840 H   0  0  0  0  0  0  0  0  0  0  0  0  # atno 8008 bound_to 7997
  154.4406  140.1894  156.0777 H   0  0  0  0  0  0  0  0  0  0  0  0  # atno 8009 bound_to 7997
  156.0483  140.3287  155.7325 H   0  0  0  0  0  0  0  0  0  0  0  0  # atno 8010 bound_to 7997
  140.1571  143.4151  152.1452 H   0  0  0  0  0  0  0  0  0  0  0  0  # atno 10167 bound_to 10162
  157.5752  130.8938  149.9334 H   0  0  0  0  0  0  0  0  0  0  0  0  # atno 10718 bound_to 10713
  153.2259  135.4339  155.0541 H   0  0  0  0  0  0  0  0  0  0  0  0  # atno 10763 bound_to 10752
  154.8273  135.3367  154.6858 H   0  0  0  0  0  0  0  0  0  0  0  0  # atno 10764 bound_to 10752
  153.7288  135.7012  153.5050 H   0  0  0  0  0  0  0  0  0  0  0  0  # atno 10765 bound_to 10752
  140.5356  134.0424  155.7887 H   0  0  0  0  0  0  0  0  0  0  0  0  # atno 11005 bound_to 11000
  144.6736  140.1675  143.7417 LP  0  0  0  0  0  0  0  0  0  0  0  0  # atno 17320 bound_to 7965
  145.8792  139.2314  143.1615 LP  0  0  0  0  0  0  0  0  0  0  0  0  # atno 17321 bound_to 7965
  139.5398  144.7246  151.4771 LP  0  0  0  0  0  0  0  0  0  0  0  0  # atno 17342 bound_to 10162
  140.6666  143.8384  150.6949 LP  0  0  0  0  0  0  0  0  0  0  0  0  # atno 17343 bound_to 10162
  156.0797  130.3674  150.0606 LP  0  0  0  0  0  0  0  0  0  0  0  0  # atno 17370 bound_to 10713
  156.8753  130.9538  151.3605 LP  0  0  0  0  0  0  0  0  0  0  0  0  # atno 17371 bound_to 10713
  141.1256  133.9388  157.2641 LP  0  0  0  0  0  0  0  0  0  0  0  0  # atno 17394 bound_to 11000
  139.9531  135.0171  156.9050 LP  0  0  0  0  0  0  0  0  0  0  0  0  # atno 17395 bound_to 11000

$$$$
