AV-unprocessed.smi:2124|AV-procd|sdf|8658|dock10
  -GOLD-   2272011403D 1   1.00000     0.00000
 Structure written by MMmdl.
 47 49  0  0  0  0  0  0  0  0  1 V2000
  156.9649  139.5998  163.2812 C   0  0  0  0  0  0  0  0  0  0  0  0
  155.9822  139.1302  162.2307 C   0  0  0  0  0  0  0  0  0  0  0  0
  155.1498  138.1116  162.6641 N   0  0  0  0  0  0  0  0  0  0  0  0
  154.1982  137.6334  161.7809 C   0  0  0  0  0  0  0  0  0  0  0  0
  153.3136  136.5344  162.3435 C   0  0  0  0  0  0  0  0  0  0  0  0
  154.0925  138.1330  160.5233 C   0  0  0  0  0  0  0  0  0  0  0  0
  153.0482  137.6409  159.5234 C   0  0  0  0  0  0  0  0  0  0  0  0
  151.9422  138.6410  159.1820 C   0  0  0  0  0  0  0  0  0  0  0  0
  150.7811  138.2539  159.0528 O   0  0  0  0  0  0  0  0  0  0  0  0
  152.3169  139.9223  159.0423 N   0  0  0  0  0  0  0  0  0  0  0  0
  151.4314  141.0410  158.7270 C   0  0  2  0  0  0  0  0  0  0  0  0
  150.6368  140.7199  157.4503 C   0  0  0  0  0  0  0  0  0  0  0  0
  152.2707  142.3335  158.5925 C   0  0  2  0  0  0  0  0  0  0  0  0
  152.8902  142.8427  159.9144 C   0  0  0  0  0  0  0  0  0  0  0  0
  152.5070  144.3340  159.9262 C   0  0  2  0  0  0  0  0  0  0  0  0
  151.0082  144.4642  160.2526 C   0  0  0  0  0  0  0  0  0  0  0  0
  150.3373  143.9786  158.9549 C   0  0  0  0  0  0  0  0  0  0  0  0
  151.5410  143.5962  158.0686 C   0  0  1  0  0  0  0  0  0  0  0  0
  152.5384  144.6880  158.4437 C   0  0  0  0  0  0  0  0  0  0  0  0
  155.0291  139.2043  160.1084 C   0  0  0  0  0  0  0  0  0  0  0  0
  155.0031  139.6800  158.9739 O   0  0  0  0  0  0  0  0  0  0  0  0
  155.9621  139.6689  161.0495 N   0  0  0  0  0  0  0  0  0  0  0  0
  155.1934  137.7128  163.5908 H   0  0  0  0  0  0  0  0  0  0  0  0
  157.5856  140.4119  162.9001 H   0  0  0  0  0  0  0  0  0  0  0  0
  157.6199  138.7817  163.5821 H   0  0  0  0  0  0  0  0  0  0  0  0
  156.4342  139.9623  164.1621 H   0  0  0  0  0  0  0  0  0  0  0  0
  152.2689  136.8451  162.3421 H   0  0  0  0  0  0  0  0  0  0  0  0
  153.5864  136.2840  163.3693 H   0  0  0  0  0  0  0  0  0  0  0  0
  153.4060  135.6289  161.7449 H   0  0  0  0  0  0  0  0  0  0  0  0
  152.5775  136.7234  159.8777 H   0  0  0  0  0  0  0  0  0  0  0  0
  153.5620  137.3469  158.6074 H   0  0  0  0  0  0  0  0  0  0  0  0
  153.2944  140.1421  159.1681 H   0  0  0  0  0  0  0  0  0  0  0  0
  150.7279  141.1637  159.5510 H   0  0  0  0  0  0  0  0  0  0  0  0
  149.9229  141.5101  157.2181 H   0  0  0  0  0  0  0  0  0  0  0  0
  150.0690  139.7955  157.5615 H   0  0  0  0  0  0  0  0  0  0  0  0
  151.2972  140.6034  156.5904 H   0  0  0  0  0  0  0  0  0  0  0  0
  153.0886  142.1234  157.9002 H   0  0  0  0  0  0  0  0  0  0  0  0
  152.5046  142.3249  160.7936 H   0  0  0  0  0  0  0  0  0  0  0  0
  153.9732  142.7143  159.9032 H   0  0  0  0  0  0  0  0  0  0  0  0
  153.1473  144.9456  160.5624 H   0  0  0  0  0  0  0  0  0  0  0  0
  150.7190  143.8680  161.1189 H   0  0  0  0  0  0  0  0  0  0  0  0
  150.7418  145.5019  160.4569 H   0  0  0  0  0  0  0  0  0  0  0  0
  149.6387  143.1594  159.1193 H   0  0  0  0  0  0  0  0  0  0  0  0
  149.7741  144.7926  158.4966 H   0  0  0  0  0  0  0  0  0  0  0  0
  151.3031  143.5535  157.0053 H   0  0  0  0  0  0  0  0  0  0  0  0
  152.1785  145.6966  158.2318 H   0  0  0  0  0  0  0  0  0  0  0  0
  153.5212  144.5564  157.9874 H   0  0  0  0  0  0  0  0  0  0  0  0
  1 24  1  0  0  0  0
  1 25  1  0  0  0  0
  1 26  1  0  0  0  0
  1  2  1  0  0  0  0
  2  3  1  0  0  0  0
  2 22  2  0  0  0  0
  3  4  1  0  0  0  0
  3 23  1  0  0  0  0
  4  6  2  0  0  0  0
  4  5  1  0  0  0  0
  5 27  1  0  0  0  0
  5 28  1  0  0  0  0
  5 29  1  0  0  0  0
  6 20  1  0  0  0  0
  6  7  1  0  0  0  0
  7  8  1  0  0  0  0
  7 30  1  0  0  0  0
  7 31  1  0  0  0  0
  8  9  2  0  0  0  0
  8 10  1  0  0  0  0
 10 11  1  0  0  0  0
 10 32  1  0  0  0  0
 11 12  1  0  0  0  0
 11 13  1  0  0  0  0
 11 33  1  0  0  0  0
 12 34  1  0  0  0  0
 12 35  1  0  0  0  0
 12 36  1  0  0  0  0
 13 18  1  0  0  0  0
 13 14  1  0  0  0  0
 13 37  1  0  0  0  0
 14 15  1  0  0  0  0
 14 38  1  0  0  0  0
 14 39  1  0  0  0  0
 15 19  1  0  0  0  0
 15 16  1  0  0  0  0
 15 40  1  0  0  0  0
 16 17  1  0  0  0  0
 16 41  1  0  0  0  0
 16 42  1  0  0  0  0
 17 18  1  0  0  0  0
 17 43  1  0  0  0  0
 17 44  1  0  0  0  0
 18 19  1  0  0  0  0
 18 45  1  0  0  0  0
 19 46  1  0  0  0  0
 19 47  1  0  0  0  0
 20 21  2  0  0  0  0
 20 22  1  0  0  0  0
M  END
> <s_m_source_file>
AV-unprocessed.smi

> <i_m_source_file_index>
2124

> <i_lp_mmshare_version>
43012

> <i_f3d_flags>
0

> <s_epik_input>
W0NIM11jMW5jKFtDSDNdKWMoYyg9TylbbkhdMSlbQ0gyXUMoPU8pW05IXVtDQEhdKFtDSDNdKVtDQEhdKFtDSDJdW0NASF0yMylbQ0BIXShbQ0gyXTMpW0NIMl1bQ0gyXTI=

> <s_epik_cmdline>
J2VwaWtfcHl0aG9uJywgJy1waCcsICc3LjAnLCAnLXRuJywgJzgnLCAnLW1hJywgJzIwMCcsICctbWV0YWxfYmluZGluZycsICctaW1hZScsICc8aW5maWxlLm1hZT4nLCAnLW9tYWUnLCAnPG91dGZpbGUubWFlPic=

> <r_lp_tautomer_probability>
0.156392

> <r_epik_Ionization_Penalty>
0.0139374

> <r_epik_Ionization_Penalty_Charging>
0.0138122

> <r_epik_Ionization_Penalty_Neutral>
0.000125146

> <r_epik_State_Penalty>
1.15342

> <r_epik_Charging_Adjusted_Penalty>
1.16723

> <i_epik_Tot_Q>
0

> <i_epik_Tot_abs_Q>
0

> <r_epik_Metal_State_Penalty>
1.3173

> <b_epik_Metal_Only>
0

> <s_lp_Force_Field>
OPLS_2005

> <r_lp_Energy>
55.868

> <b_lp_Chiralities_Consistent>
1

> <s_lp_Variant>
AV-unprocessed.smi:2124-9

> <Gold.Version>
5.8.1

> <Gold.Id.Protein>
6NUR|6NUR_protein|mol2

> <Gold.PLP.Fitness>
44.0058

> <Gold.PLP.PLP>
-41.9251

> <Gold.PLP.part.hbond>
-2.0000

> <Gold.PLP.part.metal>
0.0000

> <Gold.PLP.part.buried>
-5.4487

> <Gold.PLP.part.nonpolar>
-35.2438

> <Gold.PLP.part.repulsive>
0.1231

> <Gold.PLP.ligand.clash>
0.0000

> <Gold.PLP.ligand.torsion>
0.4704

> <Gold.PLP.Chemscore.Hbond>
1.0000

> <Gold.PLP.Chemscore.CHOScore>
0.0000

> <Gold.PLP.Chemscore.Metal>
0.0000

> <Gold.Chemscore.Hbonds>
donor molecule, donor type, donor heavy atom, donor atom, acceptor molecule, acceptor atom, score
      P1  H  7997  8008       L1    21  1.00

> <Gold.PLP.Chemscore.Internal.Correction>
0.0216

> <Gold.Rescore>
     Score         DG    S(hbond)    S(metal)    S(lipo)     H(rot)  DE(clash)    DE(int)     intcor
     15.98     -18.87       1.00        0.00     122.10       1.65       0.02       2.87       ----

> <Gold.Chemscore.Fitness>
15.9771

> <Gold.Chemscore.DG>
-18.8663

> <Gold.Chemscore.ZeroCoef>
-5.4800

> <Gold.Chemscore.Hbond>
0.9978

> <Gold.Chemscore.Metal>
0.0000

> <Gold.Chemscore.Lipo>
122.1041

> <Gold.Chemscore.Internal_Hbond>
0.0000

> <Gold.Chemscore.DEClash>
0.0204

> <Gold.Chemscore.DEInternal>
2.8688

> <Gold.Chemscore.Rot>
1.6534

> <Gold.Chemscore.Internal.Correction>
   9.000000E+99

> <Gold.Chemscore.Hbonds>
donor molecule, donor type, donor heavy atom, donor atom, acceptor molecule, acceptor atom, score
      P1  H  7997  8008       L1    21  0.97

> <Gold.Chemscore.Hbond.Weighted>
-3.3327

> <Gold.Chemscore.Metal.Weighted>
-0.0000

> <Gold.Chemscore.Lipo.Weighted>
-14.2862

> <Gold.Chemscore.Internal_Hbond.Weighted>
0.0000

> <Gold.Chemscore.DEClash.Weighted>
0.0204

> <Gold.Chemscore.DEInternal.Weighted>
2.8688

> <Gold.Chemscore.Rot.Weighted>
4.2326

> <Gold.Chemscore.Internal.Correction.Weighted>
   9.000000E+99

> <Gold.Protein.RotatedTorsions>
[ 6907 6896 6895 6894 ] final -141.64 input  -60.11 | X-H torsion
[ 7974 7965 7964 7962 ] final  130.78 input  175.53 | X-H torsion
[ 8008 7997 7996 7995 ] final -140.17 input   59.86 | X-H torsion
[ 10167 10162 10161 10158 ] final -178.96 input  -65.29 | X-H torsion
[ 10718 10713 10712 10709 ] final -160.57 input   66.30 | X-H torsion
[ 10763 10752 10751 10750 ] final   28.80 input  -60.55 | X-H torsion
[ 11005 11000 10999 10996 ] final  -94.14 input  -57.11 | X-H torsion

> <Gold.Protein.ActiveResidues>
 VAL166  LYS551  ARG553  GLY616  TRP617  ASP618  TYR619  PRO620  LYS621  CYS622 
 ASP623  PHE694  ASN695  SER759  ASP760  ASP761  ALA762  ILE779  LEU786  VAL792 
 PHE793  MET794  SER795  GLU796  ALA797  LYS798  CYS799  TRP800  GLU811  SER814 

> <Gold.Protein.RotatedAtoms>
  151.0765  133.5424  159.2623 H   0  0  0  0  0  0  0  0  0  0  0  0  # atno 6907 bound_to 6896
  151.2344  135.0565  159.9010 H   0  0  0  0  0  0  0  0  0  0  0  0  # atno 6908 bound_to 6896
  152.5418  134.0549  159.8180 H   0  0  0  0  0  0  0  0  0  0  0  0  # atno 6909 bound_to 6896
  145.0143  139.4191  143.5229 H   0  0  0  0  0  0  0  0  0  0  0  0  # atno 7974 bound_to 7965
  155.4570  140.0543  157.2995 H   0  0  0  0  0  0  0  0  0  0  0  0  # atno 8008 bound_to 7997
  154.4753  140.2058  155.9848 H   0  0  0  0  0  0  0  0  0  0  0  0  # atno 8009 bound_to 7997
  156.1122  140.3202  155.8093 H   0  0  0  0  0  0  0  0  0  0  0  0  # atno 8010 bound_to 7997
  139.5408  144.2369  152.0891 H   0  0  0  0  0  0  0  0  0  0  0  0  # atno 10167 bound_to 10162
  156.5839  130.8741  151.2872 H   0  0  0  0  0  0  0  0  0  0  0  0  # atno 10718 bound_to 10713
  153.0469  135.6504  154.0793 H   0  0  0  0  0  0  0  0  0  0  0  0  # atno 10763 bound_to 10752
  154.0488  135.2897  155.3345 H   0  0  0  0  0  0  0  0  0  0  0  0  # atno 10764 bound_to 10752
  154.6733  135.5348  153.8233 H   0  0  0  0  0  0  0  0  0  0  0  0  # atno 10765 bound_to 10752
  141.1478  133.7935  157.0256 H   0  0  0  0  0  0  0  0  0  0  0  0  # atno 11005 bound_to 11000
  146.3475  139.9604  142.8718 LP  0  0  0  0  0  0  0  0  0  0  0  0  # atno 17320 bound_to 7965
  145.1981  140.9842  143.4172 LP  0  0  0  0  0  0  0  0  0  0  0  0  # atno 17321 bound_to 7965
  140.1847  144.4810  150.6510 LP  0  0  0  0  0  0  0  0  0  0  0  0  # atno 17342 bound_to 10162
  140.6637  143.2260  151.5795 LP  0  0  0  0  0  0  0  0  0  0  0  0  # atno 17343 bound_to 10162
  157.7320  130.9708  150.1906 LP  0  0  0  0  0  0  0  0  0  0  0  0  # atno 17370 bound_to 10713
  156.2607  130.3710  149.8133 LP  0  0  0  0  0  0  0  0  0  0  0  0  # atno 17371 bound_to 10713
  140.0787  134.9661  157.1588 LP  0  0  0  0  0  0  0  0  0  0  0  0  # atno 17394 bound_to 11000
  140.3607  134.2497  155.7187 LP  0  0  0  0  0  0  0  0  0  0  0  0  # atno 17395 bound_to 11000

$$$$
