AV-unprocessed.smi:224|AV-procd|sdf|1716|dock10
  -GOLD-   2262020193D 1   1.00000     0.00000
 Structure written by MMmdl.
 56 59  0  0  0  0  0  0  0  0  2 V2000
  144.5121  132.5572  150.9492 C   0  0  0  0  0  0  0  0  0  0  0  0
  145.5608  131.4454  150.8146 C   0  0  1  0  0  0  0  0  0  0  0  0
  146.6765  131.9843  150.1343 O   0  0  0  0  0  0  0  0  0  0  0  0
  146.0071  130.9122  152.1908 C   0  0  0  0  0  0  0  0  0  0  0  0
  147.4055  131.2868  152.5289 N   0  3  2  0  0  0  0  0  0  0  0  0
  148.0718  130.3401  153.4639 C   0  0  0  0  0  0  0  0  0  0  0  0
  149.5547  130.7063  153.6555 C   0  0  0  0  0  0  0  0  0  0  0  0
  149.7080  132.1056  154.0493 N   0  0  0  0  0  0  0  0  0  0  0  0
  149.7458  132.4281  155.3707 C   0  0  0  0  0  0  0  0  0  0  0  0
  149.8133  131.4387  156.3018 N   0  0  0  0  0  0  0  0  0  0  0  0
  149.8249  131.7319  157.6049 C   0  0  0  0  0  0  0  0  0  0  0  0
  149.7832  132.9295  158.1893 N   0  0  0  0  0  0  0  0  0  0  0  0
  149.7369  133.9300  157.2644 C   0  0  0  0  0  0  0  0  0  0  0  0
  149.7140  133.7701  155.8494 C   0  0  0  0  0  0  0  0  0  0  0  0
  149.6745  135.0181  155.2375 N   0  0  0  0  0  0  0  0  0  0  0  0
  149.6632  135.8635  156.2313 C   0  0  0  0  0  0  0  0  0  0  0  0
  149.7049  135.2957  157.4843 N   0  0  0  0  0  0  0  0  0  0  0  0
  149.7078  135.9958  158.7594 C   0  0  0  0  0  0  0  0  0  0  0  0
  148.3222  136.0311  159.4457 C   0  0  1  0  0  0  0  0  0  0  0  0
  148.4777  136.4690  160.7844 O   0  0  0  0  0  0  0  0  0  0  0  0
  147.3077  136.9392  158.7553 C   0  0  0  0  0  0  0  0  0  0  0  0
  145.9863  136.2269  159.0074 C   0  0  0  0  0  0  0  0  0  0  0  0
  146.3404  134.8633  158.8563 O   0  0  0  0  0  0  0  0  0  0  0  0
  147.6144  134.6612  159.4593 C   0  0  0  0  0  0  0  0  0  0  0  0
  149.0588  133.0564  153.1478 C   0  0  0  0  0  0  0  0  0  0  0  0
  147.5671  132.7167  152.9291 C   0  0  2  0  0  0  0  0  0  0  0  0
  146.6926  133.1171  154.1376 C   0  0  0  0  0  0  0  0  0  0  0  0
  143.6163  132.1913  151.4518 H   0  0  0  0  0  0  0  0  0  0  0  0
  144.2091  132.9334  149.9713 H   0  0  0  0  0  0  0  0  0  0  0  0
  144.8956  133.3997  151.5258 H   0  0  0  0  0  0  0  0  0  0  0  0
  145.1366  130.6492  150.2041 H   0  0  0  0  0  0  0  0  0  0  0  0
  147.4441  131.4773  150.3492 H   0  0  0  0  0  0  0  0  0  0  0  0
  145.3248  131.3019  152.9481 H   0  0  0  0  0  0  0  0  0  0  0  0
  145.9122  129.8257  152.2253 H   0  0  0  0  0  0  0  0  0  0  0  0
  147.5521  130.3408  154.4226 H   0  0  0  0  0  0  0  0  0  0  0  0
  148.0096  129.3218  153.0830 H   0  0  0  0  0  0  0  0  0  0  0  0
  150.0299  130.0370  154.3739 H   0  0  0  0  0  0  0  0  0  0  0  0
  150.0890  130.5621  152.7157 H   0  0  0  0  0  0  0  0  0  0  0  0
  149.8737  130.8869  158.2757 H   0  0  0  0  0  0  0  0  0  0  0  0
  149.6293  136.9320  156.0760 H   0  0  0  0  0  0  0  0  0  0  0  0
  150.4347  135.5080  159.4103 H   0  0  0  0  0  0  0  0  0  0  0  0
  150.0765  137.0095  158.5974 H   0  0  0  0  0  0  0  0  0  0  0  0
  148.2722  135.7493  161.3614 H   0  0  0  0  0  0  0  0  0  0  0  0
  147.3191  137.9689  159.1157 H   0  0  0  0  0  0  0  0  0  0  0  0
  147.4909  136.9615  157.6804 H   0  0  0  0  0  0  0  0  0  0  0  0
  145.6292  136.4065  160.0225 H   0  0  0  0  0  0  0  0  0  0  0  0
  145.2057  136.5220  158.3062 H   0  0  0  0  0  0  0  0  0  0  0  0
  148.1609  133.9039  158.8963 H   0  0  0  0  0  0  0  0  0  0  0  0
  147.4804  134.2787  160.4726 H   0  0  0  0  0  0  0  0  0  0  0  0
  149.1542  134.0857  153.4892 H   0  0  0  0  0  0  0  0  0  0  0  0
  149.5829  133.0114  152.1926 H   0  0  0  0  0  0  0  0  0  0  0  0
  147.2313  133.3218  152.0858 H   0  0  0  0  0  0  0  0  0  0  0  0
  146.8646  134.1591  154.4084 H   0  0  0  0  0  0  0  0  0  0  0  0
  146.9033  132.5145  155.0199 H   0  0  0  0  0  0  0  0  0  0  0  0
  145.6297  133.0180  153.9188 H   0  0  0  0  0  0  0  0  0  0  0  0
  147.9158  131.2107  151.6610 H   0  0  0  0  0  0  0  0  0  0  0  0
  1  2  1  0  0  0  0
  1 28  1  0  0  0  0
  1 29  1  0  0  0  0
  1 30  1  0  0  0  0
  2  3  1  0  0  0  0
  2  4  1  0  0  0  0
  2 31  1  0  0  0  0
  3 32  1  0  0  0  0
  4  5  1  0  0  0  0
  4 33  1  0  0  0  0
  4 34  1  0  0  0  0
  5 26  1  0  0  0  0
  5  6  1  0  0  0  0
  5 56  1  0  0  0  0
  6  7  1  0  0  0  0
  6 35  1  0  0  0  0
  6 36  1  0  0  0  0
  7  8  1  0  0  0  0
  7 37  1  0  0  0  0
  7 38  1  0  0  0  0
  8  9  1  0  0  0  0
  8 25  1  0  0  0  0
  9 14  1  0  0  0  0
  9 10  2  0  0  0  0
 10 11  1  0  0  0  0
 11 12  2  0  0  0  0
 11 39  1  0  0  0  0
 12 13  1  0  0  0  0
 13 17  1  0  0  0  0
 13 14  2  0  0  0  0
 14 15  1  0  0  0  0
 15 16  2  0  0  0  0
 16 17  1  0  0  0  0
 16 40  1  0  0  0  0
 17 18  1  0  0  0  0
 18 19  1  0  0  0  0
 18 41  1  0  0  0  0
 18 42  1  0  0  0  0
 19 24  1  0  0  0  0
 19 20  1  0  0  0  0
 19 21  1  0  0  0  0
 20 43  1  0  0  0  0
 21 22  1  0  0  0  0
 21 44  1  0  0  0  0
 21 45  1  0  0  0  0
 22 23  1  0  0  0  0
 22 46  1  0  0  0  0
 22 47  1  0  0  0  0
 23 24  1  0  0  0  0
 24 48  1  0  0  0  0
 24 49  1  0  0  0  0
 25 26  1  0  0  0  0
 25 50  1  0  0  0  0
 25 51  1  0  0  0  0
 26 27  1  0  0  0  0
 26 52  1  0  0  0  0
 27 53  1  0  0  0  0
 27 54  1  0  0  0  0
 27 55  1  0  0  0  0
M  CHG  1   5   1
M  END
> <s_m_source_file>
AV-unprocessed.smi

> <i_m_source_file_index>
224

> <i_lp_mmshare_version>
43012

> <i_f3d_flags>
0

> <s_epik_input>
W0NIM11bQ0BIXShbT0hdKVtDSDJdTjFbQ0gyXVtDSDJdTihbQ0gyXVtDQEhdMVtDSDNdKWMobltjSF1uMiljKGMyMyluW2NIXW4zW0NIMl1bQ0BAXTQoW09IXSlbQ0gyXVtDSDJdT1tDSDJdNA==

> <s_epik_cmdline>
J2VwaWtfcHl0aG9uJywgJy1waCcsICc3LjAnLCAnLXRuJywgJzgnLCAnLW1hJywgJzIwMCcsICctbWV0YWxfYmluZGluZycsICctaW1hZScsICc8aW5maWxlLm1hZT4nLCAnLW9tYWUnLCAnPG91dGZpbGUubWFlPic=

> <r_lp_tautomer_probability>
1

> <r_epik_Ionization_Penalty>
0.00516958

> <r_epik_Ionization_Penalty_Charging>
0.00509693

> <r_epik_Ionization_Penalty_Neutral>
7.26542e-05

> <r_epik_State_Penalty>
-0

> <r_epik_Charging_Adjusted_Penalty>
0.00509693

> <i_epik_Tot_Q>
1

> <i_epik_Tot_abs_Q>
1

> <r_epik_Metal_State_Penalty>
-0

> <b_epik_Metal_Only>
0

> <s_lp_Force_Field>
OPLS_2005

> <r_lp_Energy>
50.5155

> <b_lp_Chiralities_Consistent>
1

> <s_lp_Variant>
AV-unprocessed.smi:224-10

> <Gold.Version>
5.8.1

> <Gold.Id.Protein>
6NUR|6NUR_protein|mol2

> <Gold.PLP.Fitness>
45.8829

> <Gold.PLP.PLP>
-35.2107

> <Gold.PLP.part.hbond>
-5.0000

> <Gold.PLP.part.metal>
0.0000

> <Gold.PLP.part.buried>
-5.9969

> <Gold.PLP.part.nonpolar>
-24.3645

> <Gold.PLP.part.repulsive>
0.1293

> <Gold.PLP.ligand.clash>
0.0000

> <Gold.PLP.ligand.torsion>
1.4708

> <Gold.PLP.Chemscore.Hbond>
4.4272

> <Gold.PLP.Chemscore.CHOScore>
0.0000

> <Gold.PLP.Chemscore.Metal>
0.0000

> <Gold.Chemscore.Hbonds>
donor molecule, donor type, donor heavy atom, donor atom, acceptor molecule, acceptor atom, score
      L1  H     3    32       P1 10747  1.00
      L1  H     5    56       P1 10747  1.00
      P1  H  6896  6907       L1    12  0.90
      P1  H  6931  6943       L1    20  0.65

> <Gold.PLP.Chemscore.Internal.Correction>
0.3321

> <Gold.Rescore>
     Score         DG    S(hbond)    S(metal)    S(lipo)     H(rot)  DE(clash)    DE(int)     intcor
     14.48     -16.92       3.41        0.00      66.63       3.02       0.05       2.39       ----

> <Gold.Chemscore.Fitness>
14.4771

> <Gold.Chemscore.DG>
-16.9196

> <Gold.Chemscore.ZeroCoef>
-5.4800

> <Gold.Chemscore.Hbond>
3.4079

> <Gold.Chemscore.Metal>
0.0000

> <Gold.Chemscore.Lipo>
66.6346

> <Gold.Chemscore.Internal_Hbond>
0.0000

> <Gold.Chemscore.DEClash>
0.0479

> <Gold.Chemscore.DEInternal>
2.3946

> <Gold.Chemscore.Rot>
3.0231

> <Gold.Chemscore.Internal.Correction>
   9.000000E+99

> <Gold.Chemscore.Hbonds>
donor molecule, donor type, donor heavy atom, donor atom, acceptor molecule, acceptor atom, score
      L1  H     3    32       P1 10747  0.99
      L1  H     5    56       P1 10747  1.00
      P1  H  6896  6907       L1    12  0.18
      P1  H  6931  6943       L1    20  0.52

> <Gold.Chemscore.Hbond.Weighted>
-11.3824

> <Gold.Chemscore.Metal.Weighted>
-0.0000

> <Gold.Chemscore.Lipo.Weighted>
-7.7963

> <Gold.Chemscore.Internal_Hbond.Weighted>
0.0000

> <Gold.Chemscore.DEClash.Weighted>
0.0479

> <Gold.Chemscore.DEInternal.Weighted>
2.3946

> <Gold.Chemscore.Rot.Weighted>
7.7391

> <Gold.Chemscore.Internal.Correction.Weighted>
   9.000000E+99

> <Gold.Protein.RotatedTorsions>
[ 6907 6896 6895 6894 ] final -132.57 input  -60.11 | X-H torsion
[ 7974 7965 7964 7962 ] final   -9.80 input  175.53 | X-H torsion
[ 8008 7997 7996 7995 ] final   66.57 input   59.86 | X-H torsion
[ 10167 10162 10161 10158 ] final   33.22 input  -65.29 | X-H torsion
[ 10718 10713 10712 10709 ] final -164.75 input   66.30 | X-H torsion
[ 10763 10752 10751 10750 ] final   84.43 input  -60.55 | X-H torsion
[ 11005 11000 10999 10996 ] final    8.77 input  -57.11 | X-H torsion

> <Gold.Protein.ActiveResidues>
 VAL166  LYS551  ARG553  GLY616  TRP617  ASP618  TYR619  PRO620  LYS621  CYS622 
 ASP623  PHE694  ASN695  SER759  ASP760  ASP761  ALA762  ILE779  LEU786  VAL792 
 PHE793  MET794  SER795  GLU796  ALA797  LYS798  CYS799  TRP800  GLU811  SER814 

> <Gold.Protein.RotatedAtoms>
  150.9640  133.6415  159.2749 H   0  0  0  0  0  0  0  0  0  0  0  0  # atno 6907 bound_to 6896
  151.3727  135.0924  159.9480 H   0  0  0  0  0  0  0  0  0  0  0  0  # atno 6908 bound_to 6896
  152.5158  133.9190  159.7580 H   0  0  0  0  0  0  0  0  0  0  0  0  # atno 6909 bound_to 6896
  146.2240  140.2670  142.8354 H   0  0  0  0  0  0  0  0  0  0  0  0  # atno 7974 bound_to 7965
  155.6794  140.3496  155.4849 H   0  0  0  0  0  0  0  0  0  0  0  0  # atno 8008 bound_to 7997
  155.9620  140.1139  157.0910 H   0  0  0  0  0  0  0  0  0  0  0  0  # atno 8009 bound_to 7997
  154.4145  140.1174  156.5178 H   0  0  0  0  0  0  0  0  0  0  0  0  # atno 8010 bound_to 7997
  140.4427  144.1164  150.6177 H   0  0  0  0  0  0  0  0  0  0  0  0  # atno 10167 bound_to 10162
  156.6435  130.8978  151.3000 H   0  0  0  0  0  0  0  0  0  0  0  0  # atno 10718 bound_to 10713
  153.1381  135.4654  154.9454 H   0  0  0  0  0  0  0  0  0  0  0  0  # atno 10763 bound_to 10752
  154.7723  135.3163  154.8165 H   0  0  0  0  0  0  0  0  0  0  0  0  # atno 10764 bound_to 10752
  153.8694  135.6905  153.4830 H   0  0  0  0  0  0  0  0  0  0  0  0  # atno 10765 bound_to 10752
  140.5332  134.0446  155.7880 H   0  0  0  0  0  0  0  0  0  0  0  0  # atno 11005 bound_to 11000
  144.9296  140.7960  143.5697 LP  0  0  0  0  0  0  0  0  0  0  0  0  # atno 17320 bound_to 7965
  145.2613  139.1991  143.4890 LP  0  0  0  0  0  0  0  0  0  0  0  0  # atno 17321 bound_to 7965
  140.4300  143.2572  151.9608 LP  0  0  0  0  0  0  0  0  0  0  0  0  # atno 17342 bound_to 10162
  139.4790  144.5753  151.8022 LP  0  0  0  0  0  0  0  0  0  0  0  0  # atno 17343 bound_to 10162
  157.7163  130.9502  150.1270 LP  0  0  0  0  0  0  0  0  0  0  0  0  # atno 17370 bound_to 10713
  156.2140  130.3669  149.8635 LP  0  0  0  0  0  0  0  0  0  0  0  0  # atno 17371 bound_to 10713
  141.1269  133.9367  157.2616 LP  0  0  0  0  0  0  0  0  0  0  0  0  # atno 17394 bound_to 11000
  139.9543  135.0169  156.9083 LP  0  0  0  0  0  0  0  0  0  0  0  0  # atno 17395 bound_to 11000

$$$$
