AV-unprocessed.smi:2568|AV-procd|sdf|10096|dock4
  -GOLD-   2272014113D 1   1.00000     0.00000
 Structure written by MMmdl.
 24 25  0  0  0  0  0  0  0  0  1 V2000
  151.0883  136.2897  156.9907 C   0  0  0  0  0  0  0  0  0  0  0  0
  150.7859  137.1020  155.7777 C   0  0  0  0  0  0  0  0  0  0  0  0
  151.3011  136.7904  154.5896 N   0  0  0  0  0  0  0  0  0  0  0  0
  150.7830  137.7539  153.7991 N   0  0  0  0  0  0  0  0  0  0  0  0
  150.0096  138.5597  154.5302 C   0  0  0  0  0  0  0  0  0  0  0  0
  149.3016  139.7345  153.9325 C   0  0  2  0  0  0  0  0  0  0  0  0
  149.5883  141.0436  154.6940 C   0  0  0  0  0  0  0  0  0  0  0  0
  148.8098  142.1411  154.1227 N   0  0  0  0  0  0  0  0  0  0  0  0
  147.3835  141.8199  154.0997 C   0  0  0  0  0  0  0  0  0  0  0  0
  147.1454  140.4889  153.3635 C   0  0  0  0  0  0  0  0  0  0  0  0
  147.9047  139.4565  153.9835 O   0  0  0  0  0  0  0  0  0  0  0  0
  149.9714  138.1992  155.8102 N   0  0  0  0  0  0  0  0  0  0  0  0
  150.9746  137.8187  152.8096 H   0  0  0  0  0  0  0  0  0  0  0  0
  151.9090  135.5969  156.8011 H   0  0  0  0  0  0  0  0  0  0  0  0
  150.2109  135.7140  157.2853 H   0  0  0  0  0  0  0  0  0  0  0  0
  151.3714  136.9390  157.8196 H   0  0  0  0  0  0  0  0  0  0  0  0
  149.6130  139.8308  152.8903 H   0  0  0  0  0  0  0  0  0  0  0  0
  149.3344  140.9211  155.7476 H   0  0  0  0  0  0  0  0  0  0  0  0
  150.6524  141.2780  154.6521 H   0  0  0  0  0  0  0  0  0  0  0  0
  148.9594  142.9841  154.6681 H   0  0  0  0  0  0  0  0  0  0  0  0
  147.0033  141.7463  155.1192 H   0  0  0  0  0  0  0  0  0  0  0  0
  146.8269  142.6223  153.6150 H   0  0  0  0  0  0  0  0  0  0  0  0
  146.0893  140.2222  153.4043 H   0  0  0  0  0  0  0  0  0  0  0  0
  147.4117  140.5719  152.3084 H   0  0  0  0  0  0  0  0  0  0  0  0
  1  2  1  0  0  0  0
  1 14  1  0  0  0  0
  1 15  1  0  0  0  0
  1 16  1  0  0  0  0
  2 12  1  0  0  0  0
  2  3  2  0  0  0  0
  3  4  1  0  0  0  0
  4 13  1  0  0  0  0
  4  5  1  0  0  0  0
  5  6  1  0  0  0  0
  5 12  2  0  0  0  0
  6 11  1  0  0  0  0
  6  7  1  0  0  0  0
  6 17  1  0  0  0  0
  7  8  1  0  0  0  0
  7 18  1  0  0  0  0
  7 19  1  0  0  0  0
  8  9  1  0  0  0  0
  8 20  1  0  0  0  0
  9 10  1  0  0  0  0
  9 21  1  0  0  0  0
  9 22  1  0  0  0  0
 10 11  1  0  0  0  0
 10 23  1  0  0  0  0
 10 24  1  0  0  0  0
M  END
> <s_m_source_file>
AV-unprocessed.smi

> <i_m_source_file_index>
2568

> <i_lp_mmshare_version>
43012

> <i_f3d_flags>
0

> <s_epik_input>
W0NIM11jMW5bbkhdYyhuMSlbQ0BASF0yW0NIMl1bTkhdW0NIMl1bQ0gyXU8y

> <s_epik_cmdline>
J2VwaWtfcHl0aG9uJywgJy1waCcsICc3LjAnLCAnLXRuJywgJzgnLCAnLW1hJywgJzIwMCcsICctbWV0YWxfYmluZGluZycsICctaW1hZScsICc8aW5maWxlLm1hZT4nLCAnLW9tYWUnLCAnPG91dGZpbGUubWFlPic=

> <r_lp_tautomer_probability>
0.948284

> <r_epik_Ionization_Penalty>
0.982563

> <r_epik_Ionization_Penalty_Charging>
0

> <r_epik_Ionization_Penalty_Neutral>
0.982563

> <r_epik_State_Penalty>
2.21233

> <r_epik_Charging_Adjusted_Penalty>
2.21233

> <i_epik_Tot_Q>
0

> <i_epik_Tot_abs_Q>
0

> <r_epik_Metal_State_Penalty>
2.51138

> <b_epik_Metal_Only>
0

> <s_lp_Force_Field>
OPLS_2005

> <r_lp_Energy>
12.795

> <b_lp_Chiralities_Consistent>
1

> <s_lp_Variant>
AV-unprocessed.smi:2568-9

> <Gold.Version>
5.8.1

> <Gold.Id.Protein>
6NUR|6NUR_protein|mol2

> <Gold.PLP.Fitness>
27.6563

> <Gold.PLP.PLP>
-20.3027

> <Gold.PLP.part.hbond>
-5.0000

> <Gold.PLP.part.metal>
0.0000

> <Gold.PLP.part.buried>
-0.6932

> <Gold.PLP.part.nonpolar>
-15.5654

> <Gold.PLP.part.repulsive>
0.4520

> <Gold.PLP.ligand.clash>
0.0000

> <Gold.PLP.ligand.torsion>
0.1122

> <Gold.PLP.Chemscore.Hbond>
2.5257

> <Gold.PLP.Chemscore.CHOScore>
0.0000

> <Gold.PLP.Chemscore.Metal>
0.0000

> <Gold.Chemscore.Hbonds>
donor molecule, donor type, donor heavy atom, donor atom, acceptor molecule, acceptor atom, score
      L1  H     4    13       P1  7949  0.20
      L1  H     8    20       P1  8028  1.00
      P1  H  8011  8017       L1     8  0.32
      P1  H 10752 10765       L1     3  1.00

> <Gold.PLP.Chemscore.Internal.Correction>
0.0009

> <Gold.Rescore>
     Score         DG    S(hbond)    S(metal)    S(lipo)     H(rot)  DE(clash)    DE(int)     intcor
     12.92     -13.43       2.03        0.00      31.99       1.00       0.29       0.22       ----

> <Gold.Chemscore.Fitness>
12.9225

> <Gold.Chemscore.DG>
-13.4318

> <Gold.Chemscore.ZeroCoef>
-5.4800

> <Gold.Chemscore.Hbond>
2.0268

> <Gold.Chemscore.Metal>
0.0000

> <Gold.Chemscore.Lipo>
31.9863

> <Gold.Chemscore.Internal_Hbond>
0.0000

> <Gold.Chemscore.DEClash>
0.2876

> <Gold.Chemscore.DEInternal>
0.2217

> <Gold.Chemscore.Rot>
1.0000

> <Gold.Chemscore.Internal.Correction>
   9.000000E+99

> <Gold.Chemscore.Hbonds>
donor molecule, donor type, donor heavy atom, donor atom, acceptor molecule, acceptor atom, score
      L1  H     4    13       P1  7949  0.05
      L1  H     8    20       P1  8028  0.98
      P1  H  8011  8017       L1     8  0.05
      P1  H 10752 10765       L1     3  0.95

> <Gold.Chemscore.Hbond.Weighted>
-6.7694

> <Gold.Chemscore.Metal.Weighted>
-0.0000

> <Gold.Chemscore.Lipo.Weighted>
-3.7424

> <Gold.Chemscore.Internal_Hbond.Weighted>
0.0000

> <Gold.Chemscore.DEClash.Weighted>
0.2876

> <Gold.Chemscore.DEInternal.Weighted>
0.2217

> <Gold.Chemscore.Rot.Weighted>
2.5600

> <Gold.Chemscore.Internal.Correction.Weighted>
   9.000000E+99

> <Gold.Protein.RotatedTorsions>
[ 6907 6896 6895 6894 ] final -154.43 input  -60.11 | X-H torsion
[ 7974 7965 7964 7962 ] final  -69.24 input  175.53 | X-H torsion
[ 8008 7997 7996 7995 ] final   77.25 input   59.86 | X-H torsion
[ 10167 10162 10161 10158 ] final   79.88 input  -65.29 | X-H torsion
[ 10718 10713 10712 10709 ] final -119.92 input   66.30 | X-H torsion
[ 10763 10752 10751 10750 ] final  168.52 input  -60.55 | X-H torsion
[ 11005 11000 10999 10996 ] final  130.05 input  -57.11 | X-H torsion

> <Gold.Protein.ActiveResidues>
 VAL166  LYS551  ARG553  GLY616  TRP617  ASP618  TYR619  PRO620  LYS621  CYS622 
 ASP623  PHE694  ASN695  SER759  ASP760  ASP761  ALA762  ILE779  LEU786  VAL792 
 PHE793  MET794  SER795  GLU796  ALA797  LYS798  CYS799  TRP800  GLU811  SER814 

> <Gold.Protein.RotatedAtoms>
  151.2574  133.4319  159.2614 H   0  0  0  0  0  0  0  0  0  0  0  0  # atno 6907 bound_to 6896
  151.0561  134.9706  159.8247 H   0  0  0  0  0  0  0  0  0  0  0  0  # atno 6908 bound_to 6896
  152.5391  134.2527  159.8957 H   0  0  0  0  0  0  0  0  0  0  0  0  # atno 6909 bound_to 6896
  145.7063  140.9096  143.0704 H   0  0  0  0  0  0  0  0  0  0  0  0  # atno 7974 bound_to 7965
  155.8389  140.3463  155.5619 H   0  0  0  0  0  0  0  0  0  0  0  0  # atno 8008 bound_to 7997
  155.8162  140.0906  157.1895 H   0  0  0  0  0  0  0  0  0  0  0  0  # atno 8009 bound_to 7997
  154.4005  140.1438  156.3433 H   0  0  0  0  0  0  0  0  0  0  0  0  # atno 8010 bound_to 7997
  139.9556  144.5996  150.8120 H   0  0  0  0  0  0  0  0  0  0  0  0  # atno 10167 bound_to 10162
  156.1218  130.6329  150.9476 H   0  0  0  0  0  0  0  0  0  0  0  0  # atno 10718 bound_to 10713
  154.3698  135.2753  155.2273 H   0  0  0  0  0  0  0  0  0  0  0  0  # atno 10763 bound_to 10752
  154.4425  135.5951  153.6142 H   0  0  0  0  0  0  0  0  0  0  0  0  # atno 10764 bound_to 10752
  152.9839  135.6022  154.3928 H   0  0  0  0  0  0  0  0  0  0  0  0  # atno 10765 bound_to 10752
  139.9650  134.9593  156.9237 H   0  0  0  0  0  0  0  0  0  0  0  0  # atno 11005 bound_to 11000
  144.6954  139.9014  143.7459 LP  0  0  0  0  0  0  0  0  0  0  0  0  # atno 17320 bound_to 7965
  146.0753  139.3741  143.0498 LP  0  0  0  0  0  0  0  0  0  0  0  0  # atno 17321 bound_to 7965
  140.7569  143.3076  151.2924 LP  0  0  0  0  0  0  0  0  0  0  0  0  # atno 17342 bound_to 10162
  139.6594  144.0217  152.2682 LP  0  0  0  0  0  0  0  0  0  0  0  0  # atno 17343 bound_to 10162
  157.6401  131.0911  150.8269 LP  0  0  0  0  0  0  0  0  0  0  0  0  # atno 17370 bound_to 10713
  156.8364  130.5033  149.5326 LP  0  0  0  0  0  0  0  0  0  0  0  0  # atno 17371 bound_to 10713
  140.5417  134.0713  155.7343 LP  0  0  0  0  0  0  0  0  0  0  0  0  # atno 17394 bound_to 11000
  141.1329  133.9271  157.2497 LP  0  0  0  0  0  0  0  0  0  0  0  0  # atno 17395 bound_to 11000

$$$$
