AV-unprocessed.smi:525|AV-procd|sdf|2808|dock10
  -GOLD-   2262023283D 1   1.00000     0.00000
 Structure written by MMmdl.
 43 45  0  0  0  0  0  0  0  0  1 V2000
  154.4710  136.2419  159.3291 C   0  0  0  0  0  0  0  0  0  0  0  0
  153.4839  136.4143  160.3341 O   0  0  0  0  0  0  0  0  0  0  0  0
  152.8350  137.6766  160.2830 C   0  0  0  0  0  0  0  0  0  0  0  0
  153.8354  138.8443  160.3443 C   0  0  0  0  0  0  0  0  0  0  0  0
  153.2385  140.1011  159.9130 N   0  0  0  0  0  0  0  0  0  0  0  0
  152.7370  140.4276  158.6950 C   0  0  0  0  0  0  0  0  0  0  0  0
  152.7337  139.2767  157.3515 S   0  0  0  0  0  0  0  0  0  0  0  0
  151.1002  139.6238  156.6116 C   0  0  1  0  0  0  0  0  0  0  0  0
  151.0304  139.3654  155.0981 C   0  0  0  0  0  0  0  0  0  0  0  0
  151.2631  138.1164  154.6866 N   0  0  0  0  0  0  0  0  0  0  0  0
  150.7686  140.2722  154.3104 O   0  0  0  0  0  0  0  0  0  0  0  0
  150.0347  138.8001  157.3271 C   0  0  0  0  0  0  0  0  0  0  0  0
  150.3846  137.8938  158.3550 C   0  0  0  0  0  0  0  0  0  0  0  0
  149.3908  137.1410  159.0097 C   0  0  0  0  0  0  0  0  0  0  0  0
  148.0397  137.2883  158.6431 C   0  0  0  0  0  0  0  0  0  0  0  0
  147.6834  138.1880  157.6205 C   0  0  0  0  0  0  0  0  0  0  0  0
  148.6769  138.9413  156.9654 C   0  0  0  0  0  0  0  0  0  0  0  0
  152.2352  141.6606  158.5946 N   0  0  0  0  0  0  0  0  0  0  0  0
  152.4476  142.1853  159.8530 C   0  0  0  0  0  0  0  0  0  0  0  0
  152.1452  143.4615  160.3797 C   0  0  0  0  0  0  0  0  0  0  0  0
  152.4617  143.7738  161.7182 C   0  0  0  0  0  0  0  0  0  0  0  0
  153.0821  142.8164  162.5469 C   0  0  0  0  0  0  0  0  0  0  0  0
  153.3906  141.5390  162.0411 C   0  0  0  0  0  0  0  0  0  0  0  0
  153.0739  141.2334  160.7040 C   0  0  0  0  0  0  0  0  0  0  0  0
  154.9470  135.2686  159.4468 H   0  0  0  0  0  0  0  0  0  0  0  0
  155.2497  137.0020  159.3889 H   0  0  0  0  0  0  0  0  0  0  0  0
  154.0269  136.2781  158.3338 H   0  0  0  0  0  0  0  0  0  0  0  0
  152.2002  137.7541  159.3989 H   0  0  0  0  0  0  0  0  0  0  0  0
  152.1653  137.7377  161.1412 H   0  0  0  0  0  0  0  0  0  0  0  0
  154.2547  138.9541  161.3436 H   0  0  0  0  0  0  0  0  0  0  0  0
  154.6815  138.6309  159.6905 H   0  0  0  0  0  0  0  0  0  0  0  0
  150.8867  140.6783  156.7927 H   0  0  0  0  0  0  0  0  0  0  0  0
  151.2321  137.8956  153.7019 H   0  0  0  0  0  0  0  0  0  0  0  0
  151.4725  137.3974  155.3639 H   0  0  0  0  0  0  0  0  0  0  0  0
  151.4186  137.7726  158.6440 H   0  0  0  0  0  0  0  0  0  0  0  0
  149.6657  136.4506  159.7935 H   0  0  0  0  0  0  0  0  0  0  0  0
  147.2775  136.7111  159.1453 H   0  0  0  0  0  0  0  0  0  0  0  0
  146.6469  138.3001  157.3380 H   0  0  0  0  0  0  0  0  0  0  0  0
  148.3906  139.6275  156.1820 H   0  0  0  0  0  0  0  0  0  0  0  0
  151.6696  144.2015  159.7531 H   0  0  0  0  0  0  0  0  0  0  0  0
  152.2274  144.7523  162.1109 H   0  0  0  0  0  0  0  0  0  0  0  0
  153.3215  143.0631  163.5710 H   0  0  0  0  0  0  0  0  0  0  0  0
  153.8667  140.8037  162.6724 H   0  0  0  0  0  0  0  0  0  0  0  0
  1  2  1  0  0  0  0
  1 25  1  0  0  0  0
  1 26  1  0  0  0  0
  1 27  1  0  0  0  0
  2  3  1  0  0  0  0
  3  4  1  0  0  0  0
  3 28  1  0  0  0  0
  3 29  1  0  0  0  0
  4  5  1  0  0  0  0
  4 30  1  0  0  0  0
  4 31  1  0  0  0  0
  5 24  1  0  0  0  0
  5  6  1  0  0  0  0
  6  7  1  0  0  0  0
  6 18  2  0  0  0  0
  7  8  1  0  0  0  0
  8  9  1  0  0  0  0
  8 12  1  0  0  0  0
  8 32  1  0  0  0  0
  9 10  1  0  0  0  0
  9 11  2  0  0  0  0
 10 33  1  0  0  0  0
 10 34  1  0  0  0  0
 12 17  1  0  0  0  0
 12 13  2  0  0  0  0
 13 14  1  0  0  0  0
 13 35  1  0  0  0  0
 14 15  2  0  0  0  0
 14 36  1  0  0  0  0
 15 16  1  0  0  0  0
 15 37  1  0  0  0  0
 16 17  2  0  0  0  0
 16 38  1  0  0  0  0
 17 39  1  0  0  0  0
 18 19  1  0  0  0  0
 19 24  2  0  0  0  0
 19 20  1  0  0  0  0
 20 21  2  0  0  0  0
 20 40  1  0  0  0  0
 21 22  1  0  0  0  0
 21 41  1  0  0  0  0
 22 23  2  0  0  0  0
 22 42  1  0  0  0  0
 23 24  1  0  0  0  0
 23 43  1  0  0  0  0
M  END
> <s_m_source_file>
AV-unprocessed.smi

> <i_m_source_file_index>
525

> <i_lp_mmshare_version>
43012

> <i_f3d_flags>
0

> <s_epik_input>
W2NIXTFbY0hdW2NIXVtjSF1jKGMxMiluKFtDSDJdW0NIMl1PW0NIM10pYyhuMilTW0NASF0oQyg9TylbTkgyXSljM1tjSF1bY0hdW2NIXVtjSF1bY0hdMw==

> <s_epik_cmdline>
J2VwaWtfcHl0aG9uJywgJy1waCcsICc3LjAnLCAnLXRuJywgJzgnLCAnLW1hJywgJzIwMCcsICctbWV0YWxfYmluZGluZycsICctaW1hZScsICc8aW5maWxlLm1hZT4nLCAnLW9tYWUnLCAnPG91dGZpbGUubWFlPic=

> <r_epik_Ionization_Penalty>
0.0706634

> <r_epik_Ionization_Penalty_Charging>
0

> <r_epik_Ionization_Penalty_Neutral>
0.0706634

> <r_epik_State_Penalty>
0.0619781

> <r_epik_Charging_Adjusted_Penalty>
0.0619781

> <i_epik_Tot_Q>
0

> <i_epik_Tot_abs_Q>
0

> <r_epik_Metal_State_Penalty>
0.0552401

> <b_epik_Metal_Only>
0

> <s_lp_Force_Field>
OPLS_2005

> <r_lp_Energy>
10.3034

> <b_lp_Chiralities_Consistent>
1

> <s_lp_Variant>
AV-unprocessed.smi:525-2

> <Gold.Version>
5.8.1

> <Gold.Id.Protein>
6NUR|6NUR_protein|mol2

> <Gold.PLP.Fitness>
46.7501

> <Gold.PLP.PLP>
-42.0036

> <Gold.PLP.part.hbond>
-1.9896

> <Gold.PLP.part.metal>
0.0000

> <Gold.PLP.part.buried>
-6.4607

> <Gold.PLP.part.nonpolar>
-33.7173

> <Gold.PLP.part.repulsive>
0.1980

> <Gold.PLP.ligand.clash>
0.0000

> <Gold.PLP.ligand.torsion>
0.7250

> <Gold.PLP.Chemscore.Hbond>
2.0000

> <Gold.PLP.Chemscore.CHOScore>
0.0000

> <Gold.PLP.Chemscore.Metal>
0.0000

> <Gold.Chemscore.Hbonds>
donor molecule, donor type, donor heavy atom, donor atom, acceptor molecule, acceptor atom, score
      P1  H  6896  6907       L1     2  1.00
      P1  H  7989  7998       L1    11  0.49

> <Gold.PLP.Chemscore.Internal.Correction>
0.1965

> <Gold.Rescore>
     Score         DG    S(hbond)    S(metal)    S(lipo)     H(rot)  DE(clash)    DE(int)     intcor
     16.07     -16.91       1.69        0.00     102.84       2.44       0.10       0.74       ----

> <Gold.Chemscore.Fitness>
16.0698

> <Gold.Chemscore.DG>
-16.9054

> <Gold.Chemscore.ZeroCoef>
-5.4800

> <Gold.Chemscore.Hbond>
1.6881

> <Gold.Chemscore.Metal>
0.0000

> <Gold.Chemscore.Lipo>
102.8437

> <Gold.Chemscore.Internal_Hbond>
0.0000

> <Gold.Chemscore.DEClash>
0.0965

> <Gold.Chemscore.DEInternal>
0.7392

> <Gold.Chemscore.Rot>
2.4396

> <Gold.Chemscore.Internal.Correction>
   9.000000E+99

> <Gold.Chemscore.Hbonds>
donor molecule, donor type, donor heavy atom, donor atom, acceptor molecule, acceptor atom, score
      P1  H  6896  6907       L1     2  0.38
      P1  H  7989  7998       L1    11  0.48

> <Gold.Chemscore.Hbond.Weighted>
-5.6381

> <Gold.Chemscore.Metal.Weighted>
-0.0000

> <Gold.Chemscore.Lipo.Weighted>
-12.0327

> <Gold.Chemscore.Internal_Hbond.Weighted>
0.0000

> <Gold.Chemscore.DEClash.Weighted>
0.0965

> <Gold.Chemscore.DEInternal.Weighted>
0.7392

> <Gold.Chemscore.Rot.Weighted>
6.2454

> <Gold.Chemscore.Internal.Correction.Weighted>
   9.000000E+99

> <Gold.Protein.RotatedTorsions>
[ 6907 6896 6895 6894 ] final   42.17 input  -60.11 | X-H torsion
[ 7974 7965 7964 7962 ] final   50.76 input  175.53 | X-H torsion
[ 8008 7997 7996 7995 ] final   -8.99 input   59.86 | X-H torsion
[ 10167 10162 10161 10158 ] final  172.37 input  -65.29 | X-H torsion
[ 10718 10713 10712 10709 ] final   94.59 input   66.30 | X-H torsion
[ 10763 10752 10751 10750 ] final   92.26 input  -60.55 | X-H torsion
[ 11005 11000 10999 10996 ] final   15.81 input  -57.11 | X-H torsion

> <Gold.Protein.ActiveResidues>
 VAL166  LYS551  ARG553  GLY616  TRP617  ASP618  TYR619  PRO620  LYS621  CYS622 
 ASP623  PHE694  ASN695  SER759  ASP760  ASP761  ALA762  ILE779  LEU786  VAL792 
 PHE793  MET794  SER795  GLU796  ALA797  LYS798  CYS799  TRP800  GLU811  SER814 

> <Gold.Protein.RotatedAtoms>
  152.2045  134.8557  160.0504 H   0  0  0  0  0  0  0  0  0  0  0  0  # atno 6907 bound_to 6896
  151.9398  133.3630  159.3969 H   0  0  0  0  0  0  0  0  0  0  0  0  # atno 6908 bound_to 6896
  150.6962  134.4375  159.5321 H   0  0  0  0  0  0  0  0  0  0  0  0  # atno 6909 bound_to 6896
  145.9980  139.4409  143.0032 H   0  0  0  0  0  0  0  0  0  0  0  0  # atno 7974 bound_to 7965
  154.5689  140.2367  155.8221 H   0  0  0  0  0  0  0  0  0  0  0  0  # atno 8008 bound_to 7997
  156.2091  140.3031  155.9650 H   0  0  0  0  0  0  0  0  0  0  0  0  # atno 8009 bound_to 7997
  155.2749  140.0420  157.3001 H   0  0  0  0  0  0  0  0  0  0  0  0  # atno 8010 bound_to 7997
  139.5074  144.3382  152.0045 H   0  0  0  0  0  0  0  0  0  0  0  0  # atno 10167 bound_to 10162
  157.6946  131.0517  150.4209 H   0  0  0  0  0  0  0  0  0  0  0  0  # atno 10718 bound_to 10713
  153.2172  135.4368  155.0448 H   0  0  0  0  0  0  0  0  0  0  0  0  # atno 10763 bound_to 10752
  154.8231  135.3347  154.6980 H   0  0  0  0  0  0  0  0  0  0  0  0  # atno 10764 bound_to 10752
  153.7414  135.7004  153.5022 H   0  0  0  0  0  0  0  0  0  0  0  0  # atno 10765 bound_to 10752
  140.4541  134.1194  155.7706 H   0  0  0  0  0  0  0  0  0  0  0  0  # atno 11005 bound_to 11000
  145.7530  140.9965  143.1240 LP  0  0  0  0  0  0  0  0  0  0  0  0  # atno 17320 bound_to 7965
  144.6910  139.9238  143.7469 LP  0  0  0  0  0  0  0  0  0  0  0  0  # atno 17321 bound_to 7965
  140.2820  144.3849  150.6116 LP  0  0  0  0  0  0  0  0  0  0  0  0  # atno 17342 bound_to 10162
  140.6011  143.2167  151.7070 LP  0  0  0  0  0  0  0  0  0  0  0  0  # atno 17343 bound_to 10162
  156.4584  130.4026  149.6591 LP  0  0  0  0  0  0  0  0  0  0  0  0  # atno 17370 bound_to 10713
  156.3715  130.7533  151.2517 LP  0  0  0  0  0  0  0  0  0  0  0  0  # atno 17371 bound_to 10713
  141.1651  133.8719  157.1738 LP  0  0  0  0  0  0  0  0  0  0  0  0  # atno 17394 bound_to 11000
  139.9988  135.0036  157.0142 LP  0  0  0  0  0  0  0  0  0  0  0  0  # atno 17395 bound_to 11000

$$$$
