AV-unprocessed.smi:2148|AV-procd|sdf|8749|dock6
  -GOLD-   2272011523D 1   1.00000     0.00000
 Structure written by MMmdl.
 44 45  0  0  0  0  0  0  0  0  1 V2000
  154.5446  133.5940  164.8407 C   0  0  0  0  0  0  0  0  0  0  0  0
  154.5927  135.3225  164.2962 S   0  0  0  0  0  0  0  0  0  0  0  0
  155.2875  135.1325  162.6269 C   0  0  1  0  0  0  0  0  0  0  0  0
  155.2323  133.6641  162.1658 C   0  0  0  0  0  0  0  0  0  0  0  0
  154.6082  136.0877  161.6348 C   0  0  0  0  0  0  0  0  0  0  0  0
  154.1147  135.6544  160.5934 O   0  0  0  0  0  0  0  0  0  0  0  0
  154.6249  137.3875  161.9860 N   0  0  0  0  0  0  0  0  0  0  0  0
  154.0899  138.5078  161.2941 C   0  0  0  0  0  0  0  0  0  0  0  0
  154.2807  139.8556  161.6815 C   0  0  0  0  0  0  0  0  0  0  0  0
  153.7072  140.8764  160.8997 C   0  0  0  0  0  0  0  0  0  0  0  0
  152.9659  140.5194  159.7503 C   0  0  0  0  0  0  0  0  0  0  0  0
  152.3672  141.4864  158.9322 N   0  0  0  0  0  0  0  0  0  0  0  0
  152.6098  142.8503  159.3782 C   0  0  0  0  0  0  0  0  0  0  0  0
  152.0812  143.8480  158.3314 C   0  0  2  0  0  0  0  0  0  0  0  0
  152.2067  145.2984  158.8093 C   0  0  0  0  0  0  0  0  0  0  0  0
  150.7009  143.5837  158.0749 O   0  0  0  0  0  0  0  0  0  0  0  0
  150.4141  142.2526  157.6357 C   0  0  1  0  0  0  0  0  0  0  0  0
  150.8943  142.0002  156.1952 C   0  0  0  0  0  0  0  0  0  0  0  0
  150.9600  141.2319  158.6537 C   0  0  0  0  0  0  0  0  0  0  0  0
  152.7954  139.2365  159.3660 N   0  0  0  0  0  0  0  0  0  0  0  0
  153.3484  138.2630  160.1197 C   0  0  0  0  0  0  0  0  0  0  0  0
  154.1704  133.5358  165.8627 H   0  0  0  0  0  0  0  0  0  0  0  0
  155.5432  133.1576  164.8150 H   0  0  0  0  0  0  0  0  0  0  0  0
  153.8886  133.0037  164.2017 H   0  0  0  0  0  0  0  0  0  0  0  0
  156.3361  135.4293  162.6760 H   0  0  0  0  0  0  0  0  0  0  0  0
  155.6085  133.5516  161.1481 H   0  0  0  0  0  0  0  0  0  0  0  0
  154.2131  133.2762  162.1906 H   0  0  0  0  0  0  0  0  0  0  0  0
  155.8427  133.0262  162.8044 H   0  0  0  0  0  0  0  0  0  0  0  0
  155.1277  137.6051  162.8342 H   0  0  0  0  0  0  0  0  0  0  0  0
  154.8620  140.1295  162.5478 H   0  0  0  0  0  0  0  0  0  0  0  0
  153.8419  141.9109  161.1792 H   0  0  0  0  0  0  0  0  0  0  0  0
  152.1159  143.0158  160.3367 H   0  0  0  0  0  0  0  0  0  0  0  0
  153.6787  143.0021  159.5352 H   0  0  0  0  0  0  0  0  0  0  0  0
  152.6516  143.7462  157.4079 H   0  0  0  0  0  0  0  0  0  0  0  0
  153.2473  145.5574  159.0060 H   0  0  0  0  0  0  0  0  0  0  0  0
  151.6413  145.4623  159.7270 H   0  0  0  0  0  0  0  0  0  0  0  0
  151.8287  145.9907  158.0566 H   0  0  0  0  0  0  0  0  0  0  0  0
  149.3274  142.1627  157.6261 H   0  0  0  0  0  0  0  0  0  0  0  0
  150.5587  141.0246  155.8428 H   0  0  0  0  0  0  0  0  0  0  0  0
  151.9806  142.0168  156.1113 H   0  0  0  0  0  0  0  0  0  0  0  0
  150.4942  142.7519  155.5146 H   0  0  0  0  0  0  0  0  0  0  0  0
  150.8289  140.2148  158.2815 H   0  0  0  0  0  0  0  0  0  0  0  0
  150.3894  141.3079  159.5802 H   0  0  0  0  0  0  0  0  0  0  0  0
  153.1879  137.2520  159.7742 H   0  0  0  0  0  0  0  0  0  0  0  0
  1  2  1  0  0  0  0
  1 22  1  0  0  0  0
  1 23  1  0  0  0  0
  1 24  1  0  0  0  0
  2  3  1  0  0  0  0
  3  4  1  0  0  0  0
  3  5  1  0  0  0  0
  3 25  1  0  0  0  0
  4 26  1  0  0  0  0
  4 27  1  0  0  0  0
  4 28  1  0  0  0  0
  5  6  2  0  0  0  0
  5  7  1  0  0  0  0
  7  8  1  0  0  0  0
  7 29  1  0  0  0  0
  8 21  1  0  0  0  0
  8  9  2  0  0  0  0
  9 10  1  0  0  0  0
  9 30  1  0  0  0  0
 10 11  2  0  0  0  0
 10 31  1  0  0  0  0
 11 12  1  0  0  0  0
 11 20  1  0  0  0  0
 12 19  1  0  0  0  0
 12 13  1  0  0  0  0
 13 14  1  0  0  0  0
 13 32  1  0  0  0  0
 13 33  1  0  0  0  0
 14 15  1  0  0  0  0
 14 16  1  0  0  0  0
 14 34  1  0  0  0  0
 15 35  1  0  0  0  0
 15 36  1  0  0  0  0
 15 37  1  0  0  0  0
 16 17  1  0  0  0  0
 17 18  1  0  0  0  0
 17 19  1  0  0  0  0
 17 38  1  0  0  0  0
 18 39  1  0  0  0  0
 18 40  1  0  0  0  0
 18 41  1  0  0  0  0
 19 42  1  0  0  0  0
 19 43  1  0  0  0  0
 20 21  2  0  0  0  0
 21 44  1  0  0  0  0
M  END
> <s_m_source_file>
AV-unprocessed.smi

> <i_m_source_file_index>
2148

> <i_lp_mmshare_version>
43012

> <i_f3d_flags>
0

> <s_epik_input>
W0NIM11TW0NASF0oW0NIM10pQyg9TylbTkhdYzFbY0hdW2NIXWMobltjSF0xKU4yW0NIMl1bQ0BASF0oW0NIM10pT1tDQEBIXShbQ0gzXSlbQ0gyXTI=

> <s_epik_cmdline>
J2VwaWtfcHl0aG9uJywgJy1waCcsICc3LjAnLCAnLXRuJywgJzgnLCAnLW1hJywgJzIwMCcsICctbWV0YWxfYmluZGluZycsICctaW1hZScsICc8aW5maWxlLm1hZT4nLCAnLW9tYWUnLCAnPG91dGZpbGUubWFlPic=

> <r_lp_tautomer_probability>
1

> <r_epik_Ionization_Penalty>
0.000646494

> <r_epik_Ionization_Penalty_Charging>
0

> <r_epik_Ionization_Penalty_Neutral>
0.000646494

> <r_epik_State_Penalty>
0.000408447

> <r_epik_Charging_Adjusted_Penalty>
0.000408447

> <i_epik_Tot_Q>
0

> <i_epik_Tot_abs_Q>
0

> <r_epik_Metal_State_Penalty>
-0

> <b_epik_Metal_Only>
0

> <s_lp_Force_Field>
OPLS_2005

> <r_lp_Energy>
27.0114

> <b_lp_Chiralities_Consistent>
1

> <s_lp_Variant>
AV-unprocessed.smi:2148-4

> <Gold.Version>
5.8.1

> <Gold.Id.Protein>
6NUR|6NUR_protein|mol2

> <Gold.PLP.Fitness>
41.9476

> <Gold.PLP.PLP>
-41.2118

> <Gold.PLP.part.hbond>
-1.0000

> <Gold.PLP.part.metal>
0.0000

> <Gold.PLP.part.buried>
-6.0877

> <Gold.PLP.part.nonpolar>
-34.4356

> <Gold.PLP.part.repulsive>
0.1654

> <Gold.PLP.ligand.clash>
0.9719

> <Gold.PLP.ligand.torsion>
0.7247

> <Gold.PLP.Chemscore.Hbond>
1.0000

> <Gold.PLP.Chemscore.CHOScore>
0.0000

> <Gold.PLP.Chemscore.Metal>
0.0000

> <Gold.Chemscore.Hbonds>
donor molecule, donor type, donor heavy atom, donor atom, acceptor molecule, acceptor atom, score
      P1  H  6896  6907       L1     6  1.00

> <Gold.PLP.Chemscore.Internal.Correction>
0.1572

> <Gold.Rescore>
     Score         DG    S(hbond)    S(metal)    S(lipo)     H(rot)  DE(clash)    DE(int)     intcor
     16.96     -19.06       0.99        0.00     115.36       1.27       0.01       2.09       ----

> <Gold.Chemscore.Fitness>
16.9627

> <Gold.Chemscore.DG>
-19.0560

> <Gold.Chemscore.ZeroCoef>
-5.4800

> <Gold.Chemscore.Hbond>
0.9937

> <Gold.Chemscore.Metal>
0.0000

> <Gold.Chemscore.Lipo>
115.3634

> <Gold.Chemscore.Internal_Hbond>
0.0000

> <Gold.Chemscore.DEClash>
0.0065

> <Gold.Chemscore.DEInternal>
2.0867

> <Gold.Chemscore.Rot>
1.2659

> <Gold.Chemscore.Internal.Correction>
   9.000000E+99

> <Gold.Chemscore.Hbonds>
donor molecule, donor type, donor heavy atom, donor atom, acceptor molecule, acceptor atom, score
      P1  H  6896  6907       L1     6  0.94

> <Gold.Chemscore.Hbond.Weighted>
-3.3190

> <Gold.Chemscore.Metal.Weighted>
-0.0000

> <Gold.Chemscore.Lipo.Weighted>
-13.4975

> <Gold.Chemscore.Internal_Hbond.Weighted>
0.0000

> <Gold.Chemscore.DEClash.Weighted>
0.0065

> <Gold.Chemscore.DEInternal.Weighted>
2.0867

> <Gold.Chemscore.Rot.Weighted>
3.2406

> <Gold.Chemscore.Internal.Correction.Weighted>
   9.000000E+99

> <Gold.Protein.RotatedTorsions>
[ 6907 6896 6895 6894 ] final   64.83 input  -60.11 | X-H torsion
[ 7974 7965 7964 7962 ] final -150.30 input  175.53 | X-H torsion
[ 8008 7997 7996 7995 ] final  147.40 input   59.86 | X-H torsion
[ 10167 10162 10161 10158 ] final   23.52 input  -65.29 | X-H torsion
[ 10718 10713 10712 10709 ] final  -77.05 input   66.30 | X-H torsion
[ 10763 10752 10751 10750 ] final  179.08 input  -60.55 | X-H torsion
[ 11005 11000 10999 10996 ] final  151.89 input  -57.11 | X-H torsion

> <Gold.Protein.ActiveResidues>
 VAL166  LYS551  ARG553  GLY616  TRP617  ASP618  TYR619  PRO620  LYS621  CYS622 
 ASP623  PHE694  ASN695  SER759  ASP760  ASP761  ALA762  ILE779  LEU786  VAL792 
 PHE793  MET794  SER795  GLU796  ALA797  LYS798  CYS799  TRP800  GLU811  SER814 

> <Gold.Protein.RotatedAtoms>
  152.4361  134.5683  159.9913 H   0  0  0  0  0  0  0  0  0  0  0  0  # atno 6907 bound_to 6896
  151.5793  133.3374  159.3013 H   0  0  0  0  0  0  0  0  0  0  0  0  # atno 6908 bound_to 6896
  150.8260  134.7526  159.6877 H   0  0  0  0  0  0  0  0  0  0  0  0  # atno 6909 bound_to 6896
  144.7916  140.4950  143.5769 H   0  0  0  0  0  0  0  0  0  0  0  0  # atno 7974 bound_to 7965
  156.2826  140.2156  156.5532 H   0  0  0  0  0  0  0  0  0  0  0  0  # atno 8008 bound_to 7997
  154.7274  140.0498  157.0718 H   0  0  0  0  0  0  0  0  0  0  0  0  # atno 8009 bound_to 7997
  155.0398  140.3144  155.4731 H   0  0  0  0  0  0  0  0  0  0  0  0  # atno 8010 bound_to 7997
  140.5263  143.9918  150.6442 H   0  0  0  0  0  0  0  0  0  0  0  0  # atno 10167 bound_to 10162
  156.0156  130.4481  150.3286 H   0  0  0  0  0  0  0  0  0  0  0  0  # atno 10718 bound_to 10713
  154.5161  135.2791  155.1302 H   0  0  0  0  0  0  0  0  0  0  0  0  # atno 10763 bound_to 10752
  154.2878  135.6273  153.5376 H   0  0  0  0  0  0  0  0  0  0  0  0  # atno 10764 bound_to 10752
  152.9928  135.5666  154.5638 H   0  0  0  0  0  0  0  0  0  0  0  0  # atno 10765 bound_to 10752
  140.1259  134.8833  157.2137 H   0  0  0  0  0  0  0  0  0  0  0  0  # atno 11005 bound_to 11000
  145.5780  139.1487  143.3251 LP  0  0  0  0  0  0  0  0  0  0  0  0  # atno 17320 bound_to 7965
  146.2170  140.5911  142.9034 LP  0  0  0  0  0  0  0  0  0  0  0  0  # atno 17321 bound_to 7965
  140.3281  143.3095  152.0716 LP  0  0  0  0  0  0  0  0  0  0  0  0  # atno 17342 bound_to 10162
  139.4939  144.6528  151.6638 LP  0  0  0  0  0  0  0  0  0  0  0  0  # atno 17343 bound_to 10162
  157.1385  131.0290  151.2938 LP  0  0  0  0  0  0  0  0  0  0  0  0  # atno 17370 bound_to 10713
  157.4492  130.7588  149.7136 LP  0  0  0  0  0  0  0  0  0  0  0  0  # atno 17371 bound_to 10713
  140.2904  134.3247  155.7317 LP  0  0  0  0  0  0  0  0  0  0  0  0  # atno 17394 bound_to 11000
  141.2161  133.7531  156.9495 LP  0  0  0  0  0  0  0  0  0  0  0  0  # atno 17395 bound_to 11000

$$$$
