AV-unprocessed.smi:114|AV-procd|sdf|1107|dock7
  -GOLD-   2262018223D 1   1.00000     0.00000
 Structure written by MMmdl.
 32 34  0  0  0  0  0  0  0  0  1 V2000
  143.2579  133.2667  151.0666 N   0  0  0  0  0  0  0  0  0  0  0  0
  144.2998  133.8063  151.7145 C   0  0  0  0  0  0  0  0  0  0  0  0
  145.3219  132.9973  152.0792 N   0  0  0  0  0  0  0  0  0  0  0  0
  146.3827  133.4960  152.7273 C   0  0  0  0  0  0  0  0  0  0  0  0
  147.3573  132.6143  153.0518 F   0  0  0  0  0  0  0  0  0  0  0  0
  146.5877  134.7670  153.0908 N   0  0  0  0  0  0  0  0  0  0  0  0
  145.5575  135.5827  152.7244 C   0  0  0  0  0  0  0  0  0  0  0  0
  144.3826  135.1833  152.0349 C   0  0  0  0  0  0  0  0  0  0  0  0
  143.5589  136.2823  151.8274 N   0  0  0  0  0  0  0  0  0  0  0  0
  144.2170  137.2744  152.3664 C   0  0  0  0  0  0  0  0  0  0  0  0
  145.4298  136.9376  152.9294 N   0  0  0  0  0  0  0  0  0  0  0  0
  146.4272  137.8146  153.6141 C   0  0  2  0  0  0  0  0  0  0  0  0
  145.7345  138.7635  154.3529 O   0  0  0  0  0  0  0  0  0  0  0  0
  146.6061  139.8622  154.5629 C   0  0  2  0  0  0  0  0  0  0  0  0
  145.7983  141.0987  154.9841 C   0  0  0  0  0  0  0  0  0  0  0  0
  144.4174  140.8099  154.9396 O   0  0  0  0  0  0  0  0  0  0  0  0
  147.2953  140.0134  153.1989 C   0  0  1  0  0  0  0  0  0  0  0  0
  148.6065  140.5127  153.3717 O   0  0  0  0  0  0  0  0  0  0  0  0
  147.3304  138.5919  152.6346 C   0  0  2  0  0  0  0  0  0  0  0  0
  146.8802  138.5722  151.2912 O   0  0  0  0  0  0  0  0  0  0  0  0
  146.9853  137.1563  154.2820 H   0  0  0  0  0  0  0  0  0  0  0  0
  147.3399  139.5913  155.3258 H   0  0  0  0  0  0  0  0  0  0  0  0
  146.7198  140.6779  152.5521 H   0  0  0  0  0  0  0  0  0  0  0  0
  148.3281  138.1526  152.6787 H   0  0  0  0  0  0  0  0  0  0  0  0
  142.4838  133.8507  150.7839 H   0  0  0  0  0  0  0  0  0  0  0  0
  143.2478  132.2777  150.8634 H   0  0  0  0  0  0  0  0  0  0  0  0
  143.8337  138.2845  152.3648 H   0  0  0  0  0  0  0  0  0  0  0  0
  146.0424  141.3738  156.0105 H   0  0  0  0  0  0  0  0  0  0  0  0
  146.0288  141.9583  154.3541 H   0  0  0  0  0  0  0  0  0  0  0  0
  144.2209  140.4053  154.1084 H   0  0  0  0  0  0  0  0  0  0  0  0
  149.0714  140.4225  152.5536 H   0  0  0  0  0  0  0  0  0  0  0  0
  145.9899  138.8879  151.2692 H   0  0  0  0  0  0  0  0  0  0  0  0
  1  2  1  0  0  0  0
  1 25  1  0  0  0  0
  1 26  1  0  0  0  0
  2  8  1  0  0  0  0
  2  3  2  0  0  0  0
  3  4  1  0  0  0  0
  4  5  1  0  0  0  0
  4  6  2  0  0  0  0
  6  7  1  0  0  0  0
  7 11  1  0  0  0  0
  7  8  2  0  0  0  0
  8  9  1  0  0  0  0
  9 10  2  0  0  0  0
 10 11  1  0  0  0  0
 10 27  1  0  0  0  0
 11 12  1  0  0  0  0
 12 21  1  0  0  0  0
 12 19  1  0  0  0  0
 12 13  1  0  0  0  0
 13 14  1  0  0  0  0
 14 22  1  0  0  0  0
 14 15  1  0  0  0  0
 14 17  1  0  0  0  0
 15 16  1  0  0  0  0
 15 28  1  0  0  0  0
 15 29  1  0  0  0  0
 16 30  1  0  0  0  0
 17 23  1  0  0  0  0
 17 18  1  0  0  0  0
 17 19  1  0  0  0  0
 18 31  1  0  0  0  0
 19 24  1  0  0  0  0
 19 20  1  0  0  0  0
 20 32  1  0  0  0  0
M  END
> <s_m_source_file>
AV-unprocessed.smi

> <i_m_source_file_index>
114

> <i_lp_mmshare_version>
43012

> <i_f3d_flags>
0

> <s_epik_input>
RmMobjEpbmMoW05IMl0pYyhjMTIpbltjSF1uMltDQEBIXTNPW0NASF0oW0NIMl1bT0hdKVtDQEBIXShbT0hdKVtDQEBIXTNbT0hd

> <s_epik_cmdline>
J2VwaWtfcHl0aG9uJywgJy1waCcsICc3LjAnLCAnLXRuJywgJzgnLCAnLW1hJywgJzIwMCcsICctbWV0YWxfYmluZGluZycsICctaW1hZScsICc8aW5maWxlLm1hZT4nLCAnLW9tYWUnLCAnPG91dGZpbGUubWFlPic=

> <r_lp_tautomer_probability>
1

> <r_epik_Ionization_Penalty>
1.13199e-05

> <r_epik_Ionization_Penalty_Charging>
0

> <r_epik_Ionization_Penalty_Neutral>
1.13199e-05

> <r_epik_State_Penalty>
-0

> <r_epik_Charging_Adjusted_Penalty>
0

> <i_epik_Tot_Q>
0

> <i_epik_Tot_abs_Q>
0

> <r_epik_Metal_State_Penalty>
-0

> <b_epik_Metal_Only>
0

> <s_epik_Chemistry_Notes>
This compound contains an acetal/aminal-like group ( X-CH(R)-Y where X, Y are N, S, or O) that may be acid/base labile, releasing an aldehyde.

> <s_lp_Force_Field>
OPLS_2005

> <r_lp_Energy>
35.9839

> <b_lp_Chiralities_Consistent>
1

> <s_lp_Variant>
AV-unprocessed.smi:114-1

> <Gold.Version>
5.8.1

> <Gold.Id.Protein>
6NUR|6NUR_protein|mol2

> <Gold.PLP.Fitness>
34.0166

> <Gold.PLP.PLP>
-20.8497

> <Gold.PLP.part.hbond>
-5.3393

> <Gold.PLP.part.metal>
0.0000

> <Gold.PLP.part.buried>
1.2454

> <Gold.PLP.part.nonpolar>
-17.7802

> <Gold.PLP.part.repulsive>
2.1945

> <Gold.PLP.ligand.clash>
0.0000

> <Gold.PLP.ligand.torsion>
1.3365

> <Gold.PLP.Chemscore.Hbond>
4.0000

> <Gold.PLP.Chemscore.CHOScore>
1.2758

> <Gold.PLP.Chemscore.Metal>
0.0000

> <Gold.Chemscore.Hbonds>
donor molecule, donor type, donor heavy atom, donor atom, acceptor molecule, acceptor atom, score
      L1  H     1    25       P1 10186  1.00
      L1  H    16    30       P1 10175  1.00
      L1  H    18    31       P1  7957  1.00
      P1  H  7954  7966       L1    20  1.00
      L1  C    10    27       P1 10171  0.32
      L1  C    10    27       P1 10175  1.00

> <Gold.PLP.Chemscore.Internal.Correction>
0.0125

> <Gold.Rescore>
     Score         DG    S(hbond)    S(metal)    S(lipo)     H(rot)  DE(clash)    DE(int)     intcor
      6.88     -10.26       3.70        0.00      23.48       4.03       2.08       1.30       ----

> <Gold.Chemscore.Fitness>
6.8820

> <Gold.Chemscore.DG>
-10.2631

> <Gold.Chemscore.ZeroCoef>
-5.4800

> <Gold.Chemscore.Hbond>
3.6968

> <Gold.Chemscore.Metal>
0.0000

> <Gold.Chemscore.Lipo>
23.4780

> <Gold.Chemscore.Internal_Hbond>
0.0000

> <Gold.Chemscore.DEClash>
2.0770

> <Gold.Chemscore.DEInternal>
1.3041

> <Gold.Chemscore.Rot>
4.0277

> <Gold.Chemscore.Internal.Correction>
   9.000000E+99

> <Gold.Chemscore.Hbonds>
donor molecule, donor type, donor heavy atom, donor atom, acceptor molecule, acceptor atom, score
      L1  H     1    25       P1 10186  0.70
      L1  H    16    30       P1 10175  0.95
      L1  H    18    31       P1  7957  0.94
      P1  H  7954  7966       L1    20  0.87

> <Gold.Chemscore.Hbond.Weighted>
-12.3472

> <Gold.Chemscore.Metal.Weighted>
-0.0000

> <Gold.Chemscore.Lipo.Weighted>
-2.7469

> <Gold.Chemscore.Internal_Hbond.Weighted>
0.0000

> <Gold.Chemscore.DEClash.Weighted>
2.0770

> <Gold.Chemscore.DEInternal.Weighted>
1.3041

> <Gold.Chemscore.Rot.Weighted>
10.3110

> <Gold.Chemscore.Internal.Correction.Weighted>
   9.000000E+99

> <Gold.Protein.RotatedTorsions>
[ 6907 6896 6895 6894 ] final   44.12 input  -60.11 | X-H torsion
[ 7974 7965 7964 7962 ] final -160.23 input  175.53 | X-H torsion
[ 8008 7997 7996 7995 ] final   66.47 input   59.86 | X-H torsion
[ 10167 10162 10161 10158 ] final  162.87 input  -65.29 | X-H torsion
[ 10718 10713 10712 10709 ] final   28.83 input   66.30 | X-H torsion
[ 10763 10752 10751 10750 ] final   34.34 input  -60.55 | X-H torsion
[ 11005 11000 10999 10996 ] final   22.51 input  -57.11 | X-H torsion

> <Gold.Protein.ActiveResidues>
 VAL166  LYS551  ARG553  GLY616  TRP617  ASP618  TYR619  PRO620  LYS621  CYS622 
 ASP623  PHE694  ASN695  SER759  ASP760  ASP761  ALA762  ILE779  LEU786  VAL792 
 PHE793  MET794  SER795  GLU796  ALA797  LYS798  CYS799  TRP800  GLU811  SER814 

> <Gold.Protein.RotatedAtoms>
  152.2287  134.8343  160.0476 H   0  0  0  0  0  0  0  0  0  0  0  0  # atno 6907 bound_to 6896
  151.9100  133.3554  159.3868 H   0  0  0  0  0  0  0  0  0  0  0  0  # atno 6908 bound_to 6896
  150.7019  134.4667  159.5450 H   0  0  0  0  0  0  0  0  0  0  0  0  # atno 6909 bound_to 6896
  144.7435  140.3571  143.6104 H   0  0  0  0  0  0  0  0  0  0  0  0  # atno 7974 bound_to 7965
  155.6779  140.3496  155.4843 H   0  0  0  0  0  0  0  0  0  0  0  0  # atno 8008 bound_to 7997
  155.9632  140.1141  157.0900 H   0  0  0  0  0  0  0  0  0  0  0  0  # atno 8009 bound_to 7997
  154.4148  140.1171  156.5193 H   0  0  0  0  0  0  0  0  0  0  0  0  # atno 8010 bound_to 7997
  139.4866  144.4394  151.8971 H   0  0  0  0  0  0  0  0  0  0  0  0  # atno 10167 bound_to 10162
  157.2385  130.7058  149.6347 H   0  0  0  0  0  0  0  0  0  0  0  0  # atno 10718 bound_to 10713
  153.0169  135.6363  154.1653 H   0  0  0  0  0  0  0  0  0  0  0  0  # atno 10763 bound_to 10752
  154.1391  135.2836  155.3167 H   0  0  0  0  0  0  0  0  0  0  0  0  # atno 10764 bound_to 10752
  154.6138  135.5548  153.7562 H   0  0  0  0  0  0  0  0  0  0  0  0  # atno 10765 bound_to 10752
  140.3798  134.1933  155.7664 H   0  0  0  0  0  0  0  0  0  0  0  0  # atno 11005 bound_to 11000
  145.7216  139.1711  143.2481 LP  0  0  0  0  0  0  0  0  0  0  0  0  # atno 17320 bound_to 7965
  146.1273  140.7232  142.9429 LP  0  0  0  0  0  0  0  0  0  0  0  0  # atno 17321 bound_to 7965
  140.3845  144.2694  150.5905 LP  0  0  0  0  0  0  0  0  0  0  0  0  # atno 17342 bound_to 10162
  140.5203  143.2267  151.8399 LP  0  0  0  0  0  0  0  0  0  0  0  0  # atno 17343 bound_to 10162
  155.9671  130.4465  150.5545 LP  0  0  0  0  0  0  0  0  0  0  0  0  # atno 17370 bound_to 10713
  157.3403  131.0715  151.1793 LP  0  0  0  0  0  0  0  0  0  0  0  0  # atno 17371 bound_to 10713
  141.1927  133.8167  157.0828 LP  0  0  0  0  0  0  0  0  0  0  0  0  # atno 17394 bound_to 11000
  140.0487  134.9816  157.1097 LP  0  0  0  0  0  0  0  0  0  0  0  0  # atno 17395 bound_to 11000

$$$$
