AV-unprocessed.smi:1428|AV-procd|sdf|5816|dock1
  -GOLD-   22720 5473D 1   1.00000     0.00000
 Structure written by MMmdl.
 43 44  0  0  0  0  0  0  0  0  3 V2000
  145.9456  143.5026  153.9805 C   0  0  0  0  0  0  0  0  0  0  0  0
  146.1746  142.1678  153.5413 O   0  0  0  0  0  0  0  0  0  0  0  0
  147.3463  141.5403  153.9204 C   0  0  0  0  0  0  0  0  0  0  0  0
  148.3583  142.3041  154.4034 N   0  0  0  0  0  0  0  0  0  0  0  0
  149.5016  141.6948  154.7774 C   0  0  0  0  0  0  0  0  0  0  0  0
  149.6938  140.3039  154.6983 C   0  0  0  0  0  0  0  0  0  0  0  0
  148.6456  139.5090  154.1993 C   0  0  0  0  0  0  0  0  0  0  0  0
  147.4430  140.1348  153.7877 C   0  0  0  0  0  0  0  0  0  0  0  0
  146.3132  139.4337  153.2788 N   0  0  0  0  0  0  0  0  0  0  0  0
  146.2200  138.1576  152.8671 C   0  0  0  0  0  0  0  0  0  0  0  0
  147.1411  137.3418  152.8489 O   0  0  0  0  0  0  0  0  0  0  0  0
  144.9766  137.8733  152.4538 N   0  0  0  0  0  0  0  0  0  0  0  0
  144.5332  136.5748  151.9542 C   0  0  2  0  0  0  0  0  0  0  0  0
  144.3282  135.5765  153.1086 C   0  0  0  0  0  0  0  0  0  0  0  0
  143.9521  134.1844  152.5757 C   0  0  0  0  0  0  0  0  0  0  0  0
  144.9779  133.6798  151.6241 N   0  3  1  0  0  0  0  0  0  0  0  0
  144.7332  132.2828  151.1829 C   0  0  0  0  0  0  0  0  0  0  0  0
  143.6789  132.2394  150.0715 C   0  0  0  0  0  0  0  0  0  0  0  0
  142.4448  132.5433  150.5222 N   0  5  0  0  0  0  0  0  0  0  0  0
  144.0145  131.9495  148.9256 O   0  0  0  0  0  0  0  0  0  0  0  0
  145.1734  134.6085  150.4825 C   0  0  0  0  0  0  0  0  0  0  0  0
  145.5709  136.0121  150.9697 C   0  0  0  0  0  0  0  0  0  0  0  0
  144.9878  143.8500  153.5938 H   0  0  0  0  0  0  0  0  0  0  0  0
  146.7157  144.1827  153.6136 H   0  0  0  0  0  0  0  0  0  0  0  0
  145.9038  143.5621  155.0692 H   0  0  0  0  0  0  0  0  0  0  0  0
  150.2847  142.3347  155.1568 H   0  0  0  0  0  0  0  0  0  0  0  0
  150.6232  139.8559  155.0174 H   0  0  0  0  0  0  0  0  0  0  0  0
  148.7858  138.4407  154.1570 H   0  0  0  0  0  0  0  0  0  0  0  0
  145.4800  139.9935  153.1699 H   0  0  0  0  0  0  0  0  0  0  0  0
  144.2832  138.6059  152.4974 H   0  0  0  0  0  0  0  0  0  0  0  0
  143.5891  136.7033  151.4206 H   0  0  0  0  0  0  0  0  0  0  0  0
  145.2401  135.5021  153.7034 H   0  0  0  0  0  0  0  0  0  0  0  0
  143.5478  135.9309  153.7830 H   0  0  0  0  0  0  0  0  0  0  0  0
  143.8477  133.4980  153.4165 H   0  0  0  0  0  0  0  0  0  0  0  0
  142.9814  134.2233  152.0791 H   0  0  0  0  0  0  0  0  0  0  0  0
  145.6639  131.8195  150.8515 H   0  0  0  0  0  0  0  0  0  0  0  0
  144.3652  131.6797  152.0148 H   0  0  0  0  0  0  0  0  0  0  0  0
  141.9393  133.3229  150.0844 H   0  0  0  0  0  0  0  0  0  0  0  0
  145.9562  134.2250  149.8269 H   0  0  0  0  0  0  0  0  0  0  0  0
  144.2582  134.6573  149.8903 H   0  0  0  0  0  0  0  0  0  0  0  0
  145.6784  136.6808  150.1147 H   0  0  0  0  0  0  0  0  0  0  0  0
  146.5499  135.9628  151.4494 H   0  0  0  0  0  0  0  0  0  0  0  0
  145.8561  133.6497  152.1235 H   0  0  0  0  0  0  0  0  0  0  0  0
  1  2  1  0  0  0  0
  1 23  1  0  0  0  0
  1 24  1  0  0  0  0
  1 25  1  0  0  0  0
  2  3  1  0  0  0  0
  3  8  1  0  0  0  0
  3  4  2  0  0  0  0
  4  5  1  0  0  0  0
  5  6  2  0  0  0  0
  5 26  1  0  0  0  0
  6  7  1  0  0  0  0
  6 27  1  0  0  0  0
  7  8  2  0  0  0  0
  7 28  1  0  0  0  0
  8  9  1  0  0  0  0
  9 10  1  0  0  0  0
  9 29  1  0  0  0  0
 10 11  2  0  0  0  0
 10 12  1  0  0  0  0
 12 13  1  0  0  0  0
 12 30  1  0  0  0  0
 13 22  1  0  0  0  0
 13 14  1  0  0  0  0
 13 31  1  0  0  0  0
 14 15  1  0  0  0  0
 14 32  1  0  0  0  0
 14 33  1  0  0  0  0
 15 16  1  0  0  0  0
 15 34  1  0  0  0  0
 15 35  1  0  0  0  0
 16 17  1  0  0  0  0
 16 21  1  0  0  0  0
 16 43  1  0  0  0  0
 17 18  1  0  0  0  0
 17 36  1  0  0  0  0
 17 37  1  0  0  0  0
 18 19  1  0  0  0  0
 18 20  2  0  0  0  0
 19 38  1  0  0  0  0
 21 22  1  0  0  0  0
 21 39  1  0  0  0  0
 21 40  1  0  0  0  0
 22 41  1  0  0  0  0
 22 42  1  0  0  0  0
M  CHG  1  16   1
M  CHG  1  19  -1
M  END
> <s_m_source_file>
AV-unprocessed.smi

> <i_m_source_file_index>
1428

> <i_lp_mmshare_version>
43012

> <i_f3d_flags>
0

> <s_epik_input>
W0NIM11PYzFuW2NIXVtjSF1bY0hdYzFbTkhdQyg9TylbTkhdW0NIXTJbQ0gyXVtDSDJdTihbQ0gyXVtDSDJdMilbQ0gyXUMoPU8pW05IMl0=

> <s_epik_cmdline>
J2VwaWtfcHl0aG9uJywgJy1waCcsICc3LjAnLCAnLXRuJywgJzgnLCAnLW1hJywgJzIwMCcsICctbWV0YWxfYmluZGluZycsICctaW1hZScsICc8aW5maWxlLm1hZT4nLCAnLW9tYWUnLCAnPG91dGZpbGUubWFlPic=

> <r_lp_tautomer_probability>
1

> <r_epik_Ionization_Penalty>
5.72888

> <r_epik_Ionization_Penalty_Charging>
5.7288

> <r_epik_Ionization_Penalty_Neutral>
7.84403e-05

> <r_epik_State_Penalty>
6.54882

> <r_epik_Charging_Adjusted_Penalty>
12.2776

> <i_epik_Tot_Q>
0

> <i_epik_Tot_abs_Q>
2

> <r_epik_Metal_State_Penalty>
2.51301

> <b_epik_Metal_Only>
1

> <s_lp_Force_Field>
OPLS_2005

> <r_lp_Energy>
10.0981

> <b_lp_Chiralities_Consistent>
1

> <s_lp_Variant>
AV-unprocessed.smi:1428-4

> <Gold.Version>
5.8.1

> <Gold.Id.Protein>
6NUR|6NUR_protein|mol2

> <Gold.PLP.Fitness>
43.4779

> <Gold.PLP.PLP>
-33.5422

> <Gold.PLP.part.hbond>
-7.0000

> <Gold.PLP.part.metal>
0.0000

> <Gold.PLP.part.buried>
-2.4416

> <Gold.PLP.part.nonpolar>
-30.8124

> <Gold.PLP.part.repulsive>
8.0830

> <Gold.PLP.ligand.clash>
0.0000

> <Gold.PLP.ligand.torsion>
0.6738

> <Gold.PLP.Chemscore.Hbond>
3.6153

> <Gold.PLP.Chemscore.CHOScore>
0.1350

> <Gold.PLP.Chemscore.Metal>
0.0000

> <Gold.Chemscore.Hbonds>
donor molecule, donor type, donor heavy atom, donor atom, acceptor molecule, acceptor atom, score
      L1  H     9    29       P1 10175  1.00
      L1  H    12    30       P1 10175  1.00
      L1  H    19    38       P1 10186  1.00
      P1  H 10785 10796       L1    20  0.62
      L1  C     5    26       P1  8028  0.14

> <Gold.PLP.Chemscore.Internal.Correction>
0.0326

> <Gold.Rescore>
     Score         DG    S(hbond)    S(metal)    S(lipo)     H(rot)  DE(clash)    DE(int)     intcor
     12.52     -19.97       3.74        0.00      67.12       2.29       3.38       4.07       ----

> <Gold.Chemscore.Fitness>
12.5197

> <Gold.Chemscore.DG>
-19.9748

> <Gold.Chemscore.ZeroCoef>
-5.4800

> <Gold.Chemscore.Hbond>
3.7431

> <Gold.Chemscore.Metal>
0.0000

> <Gold.Chemscore.Lipo>
67.1247

> <Gold.Chemscore.Internal_Hbond>
0.0000

> <Gold.Chemscore.DEClash>
3.3811

> <Gold.Chemscore.DEInternal>
4.0740

> <Gold.Chemscore.Rot>
2.2894

> <Gold.Chemscore.Internal.Correction>
   9.000000E+99

> <Gold.Chemscore.Hbonds>
donor molecule, donor type, donor heavy atom, donor atom, acceptor molecule, acceptor atom, score
      L1  H     9    29       P1 10175  0.96
      L1  H    12    30       P1 10175  0.97
      L1  H    19    38       P1 10186  0.93
      P1  H 10785 10796       L1    20  0.21

> <Gold.Chemscore.Hbond.Weighted>
-12.5020

> <Gold.Chemscore.Metal.Weighted>
-0.0000

> <Gold.Chemscore.Lipo.Weighted>
-7.8536

> <Gold.Chemscore.Internal_Hbond.Weighted>
0.0000

> <Gold.Chemscore.DEClash.Weighted>
3.3811

> <Gold.Chemscore.DEInternal.Weighted>
4.0740

> <Gold.Chemscore.Rot.Weighted>
5.8608

> <Gold.Chemscore.Internal.Correction.Weighted>
   9.000000E+99

> <Gold.Protein.RotatedTorsions>
[ 6907 6896 6895 6894 ] final   68.20 input  -60.11 | X-H torsion
[ 7974 7965 7964 7962 ] final  -40.39 input  175.53 | X-H torsion
[ 8008 7997 7996 7995 ] final   31.42 input   59.86 | X-H torsion
[ 10167 10162 10161 10158 ] final -174.06 input  -65.29 | X-H torsion
[ 10718 10713 10712 10709 ] final  -89.24 input   66.30 | X-H torsion
[ 10763 10752 10751 10750 ] final  -37.31 input  -60.55 | X-H torsion
[ 11005 11000 10999 10996 ] final   71.86 input  -57.11 | X-H torsion

> <Gold.Protein.ActiveResidues>
 VAL166  LYS551  ARG553  GLY616  TRP617  ASP618  TYR619  PRO620  LYS621  CYS622 
 ASP623  PHE694  ASN695  SER759  ASP760  ASP761  ALA762  ILE779  LEU786  VAL792 
 PHE793  MET794  SER795  GLU796  ALA797  LYS798  CYS799  TRP800  GLU811  SER814 

> <Gold.Protein.RotatedAtoms>
  152.4604  134.5196  159.9778 H   0  0  0  0  0  0  0  0  0  0  0  0  # atno 6907 bound_to 6896
  151.5246  133.3454  159.2915 H   0  0  0  0  0  0  0  0  0  0  0  0  # atno 6908 bound_to 6896
  150.8565  134.7935  159.7112 H   0  0  0  0  0  0  0  0  0  0  0  0  # atno 6909 bound_to 6896
  146.0309  140.6733  142.9133 H   0  0  0  0  0  0  0  0  0  0  0  0  # atno 7974 bound_to 7965
  155.1062  140.3234  155.4534 H   0  0  0  0  0  0  0  0  0  0  0  0  # atno 8008 bound_to 7997
  156.2703  140.2052  156.6134 H   0  0  0  0  0  0  0  0  0  0  0  0  # atno 8009 bound_to 7997
  154.6791  140.0528  157.0234 H   0  0  0  0  0  0  0  0  0  0  0  0  # atno 8010 bound_to 7997
  139.5654  144.1768  152.1304 H   0  0  0  0  0  0  0  0  0  0  0  0  # atno 10167 bound_to 10162
  155.9984  130.4865  150.5141 H   0  0  0  0  0  0  0  0  0  0  0  0  # atno 10718 bound_to 10713
  153.8941  135.6809  153.4759 H   0  0  0  0  0  0  0  0  0  0  0  0  # atno 10763 bound_to 10752
  153.1165  135.4759  154.9121 H   0  0  0  0  0  0  0  0  0  0  0  0  # atno 10764 bound_to 10752
  154.7608  135.3210  154.8336 H   0  0  0  0  0  0  0  0  0  0  0  0  # atno 10765 bound_to 10752
  139.9521  134.7208  156.0838 H   0  0  0  0  0  0  0  0  0  0  0  0  # atno 11005 bound_to 11000
  144.7030  140.3733  143.7141 LP  0  0  0  0  0  0  0  0  0  0  0  0  # atno 17320 bound_to 7965
  145.7043  139.1669  143.2575 LP  0  0  0  0  0  0  0  0  0  0  0  0  # atno 17321 bound_to 7965
  140.1290  144.5305  150.6814 LP  0  0  0  0  0  0  0  0  0  0  0  0  # atno 17342 bound_to 10162
  140.6937  143.2391  151.5060 LP  0  0  0  0  0  0  0  0  0  0  0  0  # atno 17343 bound_to 10162
  157.3111  131.0664  151.2000 LP  0  0  0  0  0  0  0  0  0  0  0  0  # atno 17370 bound_to 10713
  157.2946  130.6813  149.6132 LP  0  0  0  0  0  0  0  0  0  0  0  0  # atno 17371 bound_to 10713
  141.1186  133.6620  156.3157 LP  0  0  0  0  0  0  0  0  0  0  0  0  # atno 17394 bound_to 11000
  140.5694  134.5855  157.5454 LP  0  0  0  0  0  0  0  0  0  0  0  0  # atno 17395 bound_to 11000

$$$$
