AV-unprocessed.smi:2883|AV-procd|sdf|11082|dock1
  -GOLD-   2272015553D 1   1.00000     0.00000
 Structure written by MMmdl.
 39 41  0  0  0  0  0  0  0  0  1 V2000
  148.8752  137.8930  158.5599 C   0  0  0  0  0  0  0  0  0  0  0  0
  150.2122  137.8378  157.7985 C   0  0  0  0  0  0  0  0  0  0  0  0
  151.3855  137.9102  158.8043 C   0  0  0  0  0  0  0  0  0  0  0  0
  150.3446  136.4727  157.0830 C   0  0  0  0  0  0  0  0  0  0  0  0
  150.2769  138.9996  156.7924 C   0  0  0  0  0  0  0  0  0  0  0  0
  150.1621  138.6945  155.4930 N   0  0  0  0  0  0  0  0  0  0  0  0
  150.0903  139.7180  154.6159 C   0  0  0  0  0  0  0  0  0  0  0  0
  150.1000  141.0607  155.0402 C   0  0  0  0  0  0  0  0  0  0  0  0
  150.1815  141.2785  156.4297 C   0  0  0  0  0  0  0  0  0  0  0  0
  150.1825  142.5900  156.9241 N   0  0  0  0  0  0  0  0  0  0  0  0
  150.5348  142.8685  158.3122 C   0  0  1  0  0  0  0  0  0  0  0  0
  151.8230  142.1655  158.7596 C   0  0  0  0  0  0  0  0  0  0  0  0
  152.6709  143.3431  159.2552 C   0  0  2  0  0  0  0  0  0  0  0  0
  152.1110  143.9634  160.5427 C   0  0  0  0  0  0  0  0  0  0  0  0
  150.8783  144.7025  160.0228 C   0  0  0  0  0  0  0  0  0  0  0  0
  150.9018  144.3461  158.5303 C   0  0  1  0  0  0  0  0  0  0  0  0
  152.3027  144.3286  158.3066 O   0  0  0  0  0  0  0  0  0  0  0  0
  150.2512  140.2407  157.2950 N   0  0  0  0  0  0  0  0  0  0  0  0
  148.7969  137.0838  159.2865 H   0  0  0  0  0  0  0  0  0  0  0  0
  148.0279  137.8079  157.8787 H   0  0  0  0  0  0  0  0  0  0  0  0
  148.7670  138.8333  159.1017 H   0  0  0  0  0  0  0  0  0  0  0  0
  151.3445  138.8114  159.4174 H   0  0  0  0  0  0  0  0  0  0  0  0
  152.3486  137.9032  158.2924 H   0  0  0  0  0  0  0  0  0  0  0  0
  151.3730  137.0626  159.4904 H   0  0  0  0  0  0  0  0  0  0  0  0
  150.3458  135.6485  157.7973 H   0  0  0  0  0  0  0  0  0  0  0  0
  151.2715  136.4121  156.5116 H   0  0  0  0  0  0  0  0  0  0  0  0
  149.5188  136.2901  156.3946 H   0  0  0  0  0  0  0  0  0  0  0  0
  150.0182  139.4638  153.5688 H   0  0  0  0  0  0  0  0  0  0  0  0
  150.0407  141.8760  154.3344 H   0  0  0  0  0  0  0  0  0  0  0  0
  150.0998  143.3651  156.2822 H   0  0  0  0  0  0  0  0  0  0  0  0
  149.6928  142.6016  158.9526 H   0  0  0  0  0  0  0  0  0  0  0  0
  151.6466  141.4210  159.5367 H   0  0  0  0  0  0  0  0  0  0  0  0
  152.3224  141.6704  157.9253 H   0  0  0  0  0  0  0  0  0  0  0  0
  153.7399  143.1321  159.2925 H   0  0  0  0  0  0  0  0  0  0  0  0
  151.8689  143.2094  161.2925 H   0  0  0  0  0  0  0  0  0  0  0  0
  152.8221  144.6656  160.9790 H   0  0  0  0  0  0  0  0  0  0  0  0
  149.9563  144.3886  160.5135 H   0  0  0  0  0  0  0  0  0  0  0  0
  150.9907  145.7780  160.1642 H   0  0  0  0  0  0  0  0  0  0  0  0
  150.3485  145.0487  157.9059 H   0  0  0  0  0  0  0  0  0  0  0  0
  1  2  1  0  0  0  0
  1 19  1  0  0  0  0
  1 20  1  0  0  0  0
  1 21  1  0  0  0  0
  2  3  1  0  0  0  0
  2  4  1  0  0  0  0
  2  5  1  0  0  0  0
  3 22  1  0  0  0  0
  3 23  1  0  0  0  0
  3 24  1  0  0  0  0
  4 25  1  0  0  0  0
  4 26  1  0  0  0  0
  4 27  1  0  0  0  0
  5 18  1  0  0  0  0
  5  6  2  0  0  0  0
  6  7  1  0  0  0  0
  7  8  2  0  0  0  0
  7 28  1  0  0  0  0
  8  9  1  0  0  0  0
  8 29  1  0  0  0  0
  9 10  1  0  0  0  0
  9 18  2  0  0  0  0
 10 11  1  0  0  0  0
 10 30  1  0  0  0  0
 11 16  1  0  0  0  0
 11 12  1  0  0  0  0
 11 31  1  0  0  0  0
 12 13  1  0  0  0  0
 12 32  1  0  0  0  0
 12 33  1  0  0  0  0
 13 17  1  0  0  0  0
 13 14  1  0  0  0  0
 13 34  1  0  0  0  0
 14 15  1  0  0  0  0
 14 35  1  0  0  0  0
 14 36  1  0  0  0  0
 15 16  1  0  0  0  0
 15 37  1  0  0  0  0
 15 38  1  0  0  0  0
 16 17  1  0  0  0  0
 16 39  1  0  0  0  0
M  END
> <s_m_source_file>
AV-unprocessed.smi

> <i_m_source_file_index>
2883

> <i_lp_mmshare_version>
43012

> <i_f3d_flags>
0

> <s_epik_input>
W0NIM11DKFtDSDNdKShbQ0gzXSljMW5bY0hdW2NIXWMobjEpW05IXVtDQEhdKFtDSDJdW0NAQEhdMjMpW0NAQEhdKE8zKVtDSDJdW0NIMl0y

> <s_epik_cmdline>
J2VwaWtfcHl0aG9uJywgJy1waCcsICc3LjAnLCAnLXRuJywgJzgnLCAnLW1hJywgJzIwMCcsICctbWV0YWxfYmluZGluZycsICctaW1hZScsICc8aW5maWxlLm1hZT4nLCAnLW9tYWUnLCAnPG91dGZpbGUubWFlPic=

> <r_lp_tautomer_probability>
1

> <r_epik_Ionization_Penalty>
0.453006

> <r_epik_Ionization_Penalty_Charging>
0

> <r_epik_Ionization_Penalty_Neutral>
0.453006

> <r_epik_State_Penalty>
0.455155

> <r_epik_Charging_Adjusted_Penalty>
0.455155

> <i_epik_Tot_Q>
0

> <i_epik_Tot_abs_Q>
0

> <r_epik_Metal_State_Penalty>
0.255592

> <b_epik_Metal_Only>
0

> <s_lp_Force_Field>
OPLS_2005

> <r_lp_Energy>
33.3257

> <b_lp_Chiralities_Consistent>
1

> <s_lp_Variant>
AV-unprocessed.smi:2883-8

> <Gold.Version>
5.8.1

> <Gold.Id.Protein>
6NUR|6NUR_protein|mol2

> <Gold.PLP.Fitness>
37.2048

> <Gold.PLP.PLP>
-31.9048

> <Gold.PLP.part.hbond>
-1.0000

> <Gold.PLP.part.metal>
0.0000

> <Gold.PLP.part.buried>
-5.7025

> <Gold.PLP.part.nonpolar>
-25.4090

> <Gold.PLP.part.repulsive>
0.1168

> <Gold.PLP.ligand.clash>
0.0000

> <Gold.PLP.ligand.torsion>
0.4294

> <Gold.PLP.Chemscore.Hbond>
1.0000

> <Gold.PLP.Chemscore.CHOScore>
1.0000

> <Gold.PLP.Chemscore.Metal>
0.0000

> <Gold.Chemscore.Hbonds>
donor molecule, donor type, donor heavy atom, donor atom, acceptor molecule, acceptor atom, score
      L1  H    10    30       P1  8028  0.86
      L1  C     7    28       P1  7957  1.00

> <Gold.PLP.Chemscore.Internal.Correction>
0.1588

> <Gold.Rescore>
     Score         DG    S(hbond)    S(metal)    S(lipo)     H(rot)  DE(clash)    DE(int)     intcor
     15.72     -16.68       1.00        0.00      92.40       1.15       0.00       0.97       ----

> <Gold.Chemscore.Fitness>
15.7174

> <Gold.Chemscore.DG>
-16.6832

> <Gold.Chemscore.ZeroCoef>
-5.4800

> <Gold.Chemscore.Hbond>
0.9974

> <Gold.Chemscore.Metal>
0.0000

> <Gold.Chemscore.Lipo>
92.4046

> <Gold.Chemscore.Internal_Hbond>
0.0000

> <Gold.Chemscore.DEClash>
0.0000

> <Gold.Chemscore.DEInternal>
0.9658

> <Gold.Chemscore.Rot>
1.1482

> <Gold.Chemscore.Internal.Correction>
   9.000000E+99

> <Gold.Chemscore.Hbonds>
donor molecule, donor type, donor heavy atom, donor atom, acceptor molecule, acceptor atom, score
      L1  H    10    30       P1  8028  0.85

> <Gold.Chemscore.Hbond.Weighted>
-3.3312

> <Gold.Chemscore.Metal.Weighted>
-0.0000

> <Gold.Chemscore.Lipo.Weighted>
-10.8113

> <Gold.Chemscore.Internal_Hbond.Weighted>
0.0000

> <Gold.Chemscore.DEClash.Weighted>
0.0000

> <Gold.Chemscore.DEInternal.Weighted>
0.9658

> <Gold.Chemscore.Rot.Weighted>
2.9393

> <Gold.Chemscore.Internal.Correction.Weighted>
   9.000000E+99

> <Gold.Protein.RotatedTorsions>
[ 6907 6896 6895 6894 ] final   55.98 input  -60.11 | X-H torsion
[ 7974 7965 7964 7962 ] final  -27.27 input  175.53 | X-H torsion
[ 8008 7997 7996 7995 ] final -159.83 input   59.86 | X-H torsion
[ 10167 10162 10161 10158 ] final   84.54 input  -65.29 | X-H torsion
[ 10718 10713 10712 10709 ] final  113.81 input   66.30 | X-H torsion
[ 10763 10752 10751 10750 ] final  103.02 input  -60.55 | X-H torsion
[ 11005 11000 10999 10996 ] final   47.41 input  -57.11 | X-H torsion

> <Gold.Protein.ActiveResidues>
 VAL166  LYS551  ARG553  GLY616  TRP617  ASP618  TYR619  PRO620  LYS621  CYS622 
 ASP623  PHE694  ASN695  SER759  ASP760  ASP761  ALA762  ILE779  LEU786  VAL792 
 PHE793  MET794  SER795  GLU796  ALA797  LYS798  CYS799  TRP800  GLU811  SER814 

> <Gold.Protein.RotatedAtoms>
  152.3591  134.6897  160.0212 H   0  0  0  0  0  0  0  0  0  0  0  0  # atno 6907 bound_to 6896
  151.7226  133.3309  159.3327 H   0  0  0  0  0  0  0  0  0  0  0  0  # atno 6908 bound_to 6896
  150.7592  134.6368  159.6260 H   0  0  0  0  0  0  0  0  0  0  0  0  # atno 6909 bound_to 6896
  146.1369  140.5129  142.8669 H   0  0  0  0  0  0  0  0  0  0  0  0  # atno 7974 bound_to 7965
  155.7683  140.0848  157.2120 H   0  0  0  0  0  0  0  0  0  0  0  0  # atno 8008 bound_to 7997
  154.3998  140.1530  156.2970 H   0  0  0  0  0  0  0  0  0  0  0  0  # atno 8009 bound_to 7997
  155.8772  140.3422  155.5865 H   0  0  0  0  0  0  0  0  0  0  0  0  # atno 8010 bound_to 7997
  139.9069  144.6295  150.8577 H   0  0  0  0  0  0  0  0  0  0  0  0  # atno 10167 bound_to 10162
  157.6317  131.0989  150.7095 H   0  0  0  0  0  0  0  0  0  0  0  0  # atno 10718 bound_to 10713
  153.3472  135.3991  155.1618 H   0  0  0  0  0  0  0  0  0  0  0  0  # atno 10763 bound_to 10752
  154.8655  135.3648  154.5269 H   0  0  0  0  0  0  0  0  0  0  0  0  # atno 10764 bound_to 10752
  153.5718  135.7079  153.5561 H   0  0  0  0  0  0  0  0  0  0  0  0  # atno 10765 bound_to 10752
  140.1282  134.4740  155.8542 H   0  0  0  0  0  0  0  0  0  0  0  0  # atno 11005 bound_to 11000
  144.7750  140.5719  143.6644 LP  0  0  0  0  0  0  0  0  0  0  0  0  # atno 17320 bound_to 7965
  145.5135  139.1478  143.3591 LP  0  0  0  0  0  0  0  0  0  0  0  0  # atno 17321 bound_to 7965
  140.7694  143.3394  151.2239 LP  0  0  0  0  0  0  0  0  0  0  0  0  # atno 17342 bound_to 10162
  139.6976  143.9587  152.2890 LP  0  0  0  0  0  0  0  0  0  0  0  0  # atno 17343 bound_to 10162
  156.7433  130.4746  149.5472 LP  0  0  0  0  0  0  0  0  0  0  0  0  # atno 17370 bound_to 10713
  156.1525  130.6320  151.0615 LP  0  0  0  0  0  0  0  0  0  0  0  0  # atno 17371 bound_to 10713
  141.2165  133.6786  156.7018 LP  0  0  0  0  0  0  0  0  0  0  0  0  # atno 17394 bound_to 11000
  140.2876  134.8266  157.3989 LP  0  0  0  0  0  0  0  0  0  0  0  0  # atno 17395 bound_to 11000

$$$$
