AV-unprocessed.smi:623|AV-procd|sdf|3096|dock1
  -GOLD-   22720 0 13D 1   1.00000     0.00000
 Structure written by MMmdl.
 44 46  0  0  0  0  0  0  0  0  2 V2000
  144.4428  135.0332  149.6164 C   0  0  0  0  0  0  0  0  0  0  0  0
  144.8853  135.0144  151.1068 C   0  0  0  0  0  0  0  0  0  0  0  0
  145.5557  136.3964  151.3480 C   0  0  0  0  0  0  0  0  0  0  0  0
  143.7557  134.6759  152.1003 C   0  0  1  0  0  0  0  0  0  0  0  0
  143.3513  133.2360  151.7103 C   0  0  0  0  0  0  0  0  0  0  0  0
  144.7007  132.6070  151.3043 C   0  0  0  0  0  0  0  0  0  0  0  0
  145.7037  133.7658  151.5413 C   0  0  1  0  0  0  0  0  0  0  0  0
  147.0428  133.5483  150.8082 C   0  0  0  0  0  0  0  0  0  0  0  0
  145.8109  133.8901  153.0923 C   0  0  1  0  0  0  0  0  0  0  0  0
  146.9892  134.6368  153.5155 N   0  0  0  0  0  0  0  0  0  0  0  0
  147.3306  134.9567  154.7729 C   0  0  0  0  0  0  0  0  0  0  0  0
  146.6668  134.6202  155.7529 O   0  0  0  0  0  0  0  0  0  0  0  0
  148.6017  135.8023  154.9691 C   0  0  0  0  0  0  0  0  0  0  0  0
  149.7264  135.0683  155.5805 N   0  0  0  0  0  0  0  0  0  0  0  0
  149.5256  133.7086  155.8772 C   0  0  0  0  0  0  0  0  0  0  0  0
  150.4711  132.9656  156.4829 C   0  0  0  0  0  0  0  0  0  0  0  0
  151.7329  133.6062  156.8321 C   0  0  0  0  0  0  0  0  0  0  0  0
  152.6064  132.9445  157.3893 O   0  0  0  0  0  0  0  0  0  0  0  0
  151.8818  134.9268  156.5203 N   0  5  0  0  0  0  0  0  0  0  0  0
  150.9094  135.6712  155.9085 C   0  0  0  0  0  0  0  0  0  0  0  0
  151.0565  136.8670  155.6557 O   0  0  0  0  0  0  0  0  0  0  0  0
  144.4782  134.5811  153.4636 C   0  0  0  0  0  0  0  0  0  0  0  0
  143.7423  135.8486  149.4342 H   0  0  0  0  0  0  0  0  0  0  0  0
  143.9545  134.1268  149.2664 H   0  0  0  0  0  0  0  0  0  0  0  0
  145.2996  135.1958  148.9616 H   0  0  0  0  0  0  0  0  0  0  0  0
  145.8486  136.5995  152.3741 H   0  0  0  0  0  0  0  0  0  0  0  0
  144.8791  137.2043  151.0683 H   0  0  0  0  0  0  0  0  0  0  0  0
  146.4530  136.5056  150.7383 H   0  0  0  0  0  0  0  0  0  0  0  0
  142.9190  135.3752  152.1028 H   0  0  0  0  0  0  0  0  0  0  0  0
  142.8808  132.7009  152.5360 H   0  0  0  0  0  0  0  0  0  0  0  0
  142.6445  133.2282  150.8802 H   0  0  0  0  0  0  0  0  0  0  0  0
  144.9342  131.7202  151.8948 H   0  0  0  0  0  0  0  0  0  0  0  0
  144.6870  132.2875  150.2620 H   0  0  0  0  0  0  0  0  0  0  0  0
  147.5602  132.6700  151.1950 H   0  0  0  0  0  0  0  0  0  0  0  0
  147.7127  134.4011  150.9204 H   0  0  0  0  0  0  0  0  0  0  0  0
  146.8892  133.3956  149.7402 H   0  0  0  0  0  0  0  0  0  0  0  0
  145.8706  132.9016  153.5519 H   0  0  0  0  0  0  0  0  0  0  0  0
  147.6052  134.9510  152.7790 H   0  0  0  0  0  0  0  0  0  0  0  0
  148.9027  136.1960  153.9974 H   0  0  0  0  0  0  0  0  0  0  0  0
  148.3470  136.6808  155.5639 H   0  0  0  0  0  0  0  0  0  0  0  0
  148.5598  133.3153  155.5955 H   0  0  0  0  0  0  0  0  0  0  0  0
  150.2979  131.9240  156.7101 H   0  0  0  0  0  0  0  0  0  0  0  0
  144.6305  135.5673  153.9026 H   0  0  0  0  0  0  0  0  0  0  0  0
  143.9108  134.0008  154.1922 H   0  0  0  0  0  0  0  0  0  0  0  0
  1  2  1  0  0  0  0
  1 23  1  0  0  0  0
  1 24  1  0  0  0  0
  1 25  1  0  0  0  0
  2  7  1  0  0  0  0
  2  3  1  0  0  0  0
  2  4  1  0  0  0  0
  3 26  1  0  0  0  0
  3 27  1  0  0  0  0
  3 28  1  0  0  0  0
  4 22  1  0  0  0  0
  4  5  1  0  0  0  0
  4 29  1  0  0  0  0
  5  6  1  0  0  0  0
  5 30  1  0  0  0  0
  5 31  1  0  0  0  0
  6  7  1  0  0  0  0
  6 32  1  0  0  0  0
  6 33  1  0  0  0  0
  7  8  1  0  0  0  0
  7  9  1  0  0  0  0
  8 34  1  0  0  0  0
  8 35  1  0  0  0  0
  8 36  1  0  0  0  0
  9 10  1  0  0  0  0
  9 22  1  0  0  0  0
  9 37  1  0  0  0  0
 10 11  1  0  0  0  0
 10 38  1  0  0  0  0
 11 12  2  0  0  0  0
 11 13  1  0  0  0  0
 13 14  1  0  0  0  0
 13 39  1  0  0  0  0
 13 40  1  0  0  0  0
 14 20  1  0  0  0  0
 14 15  1  0  0  0  0
 15 16  2  0  0  0  0
 15 41  1  0  0  0  0
 16 17  1  0  0  0  0
 16 42  1  0  0  0  0
 17 18  2  0  0  0  0
 17 19  1  0  0  0  0
 19 20  1  0  0  0  0
 20 21  2  0  0  0  0
 22 43  1  0  0  0  0
 22 44  1  0  0  0  0
M  CHG  1  19  -1
M  END
> <s_m_source_file>
AV-unprocessed.smi

> <i_m_source_file_index>
623

> <i_lp_mmshare_version>
43012

> <i_f3d_flags>
0

> <s_epik_input>
W0NIM11bQ0BdMTJDKFtDSDNdKShbQ0gzXSlbQ0BIXShbQ0gyXVtDSDJdMSlbQ0gyXVtDQEBIXTJbTkhdQyg9TylbQ0gyXW4zW2NIXVtjSF1jKD1PKVtuSF1jMz1P

> <s_epik_cmdline>
J2VwaWtfcHl0aG9uJywgJy1waCcsICc3LjAnLCAnLXRuJywgJzgnLCAnLW1hJywgJzIwMCcsICctbWV0YWxfYmluZGluZycsICctaW1hZScsICc8aW5maWxlLm1hZT4nLCAnLW9tYWUnLCAnPG91dGZpbGUubWFlPic=

> <r_lp_tautomer_probability>
0.999537

> <r_epik_Ionization_Penalty>
3.12624

> <r_epik_Ionization_Penalty_Charging>
3.01273e-08

> <r_epik_Ionization_Penalty_Neutral>
3.12624

> <r_epik_State_Penalty>
3.12534

> <r_epik_Charging_Adjusted_Penalty>
3.12534

> <i_epik_Tot_Q>
-1

> <i_epik_Tot_abs_Q>
1

> <r_epik_Metal_State_Penalty>
0.46406

> <b_epik_Metal_Only>
1

> <s_lp_Force_Field>
OPLS_2005

> <r_lp_Energy>
63.0449

> <b_lp_Chiralities_Consistent>
1

> <s_lp_Variant>
AV-unprocessed.smi:623-6

> <Gold.Version>
5.8.1

> <Gold.Id.Protein>
6NUR|6NUR_protein|mol2

> <Gold.PLP.Fitness>
35.8690

> <Gold.PLP.PLP>
-25.2240

> <Gold.PLP.part.hbond>
-3.0000

> <Gold.PLP.part.metal>
0.0000

> <Gold.PLP.part.buried>
1.7155

> <Gold.PLP.part.nonpolar>
-22.8213

> <Gold.PLP.part.repulsive>
0.0795

> <Gold.PLP.ligand.clash>
0.0000

> <Gold.PLP.ligand.torsion>
0.1181

> <Gold.PLP.Chemscore.Hbond>
3.6226

> <Gold.PLP.Chemscore.CHOScore>
0.0000

> <Gold.PLP.Chemscore.Metal>
0.0000

> <Gold.Chemscore.Hbonds>
donor molecule, donor type, donor heavy atom, donor atom, acceptor molecule, acceptor atom, score
      L1  H    10    38       P1  7948  0.96
      P1  H  6896  6909       L1    18  0.55
      P1  H 10752 10764       L1    19  1.67

> <Gold.PLP.Chemscore.Internal.Correction>
0.0134

> <Gold.Rescore>
     Score         DG    S(hbond)    S(metal)    S(lipo)     H(rot)  DE(clash)    DE(int)     intcor
     11.19     -14.14       1.39        0.00      70.17       1.63       1.85       1.10       ----

> <Gold.Chemscore.Fitness>
11.1909

> <Gold.Chemscore.DG>
-14.1424

> <Gold.Chemscore.ZeroCoef>
-5.4800

> <Gold.Chemscore.Hbond>
1.3865

> <Gold.Chemscore.Metal>
0.0000

> <Gold.Chemscore.Lipo>
70.1686

> <Gold.Chemscore.Internal_Hbond>
0.0000

> <Gold.Chemscore.DEClash>
1.8508

> <Gold.Chemscore.DEInternal>
1.1007

> <Gold.Chemscore.Rot>
1.6322

> <Gold.Chemscore.Internal.Correction>
   9.000000E+99

> <Gold.Chemscore.Hbonds>
donor molecule, donor type, donor heavy atom, donor atom, acceptor molecule, acceptor atom, score
      L1  H    10    38       P1  7948  0.89
      P1  H  6896  6909       L1    18  0.08
      P1  H 10752 10764       L1    19  0.14

> <Gold.Chemscore.Hbond.Weighted>
-4.6309

> <Gold.Chemscore.Metal.Weighted>
-0.0000

> <Gold.Chemscore.Lipo.Weighted>
-8.2097

> <Gold.Chemscore.Internal_Hbond.Weighted>
0.0000

> <Gold.Chemscore.DEClash.Weighted>
1.8508

> <Gold.Chemscore.DEInternal.Weighted>
1.1007

> <Gold.Chemscore.Rot.Weighted>
4.1783

> <Gold.Chemscore.Internal.Correction.Weighted>
   9.000000E+99

> <Gold.Protein.RotatedTorsions>
[ 6907 6896 6895 6894 ] final  -80.35 input  -60.11 | X-H torsion
[ 7974 7965 7964 7962 ] final  150.20 input  175.53 | X-H torsion
[ 8008 7997 7996 7995 ] final  128.40 input   59.86 | X-H torsion
[ 10167 10162 10161 10158 ] final  -43.36 input  -65.29 | X-H torsion
[ 10718 10713 10712 10709 ] final -129.25 input   66.30 | X-H torsion
[ 10763 10752 10751 10750 ] final   -9.11 input  -60.55 | X-H torsion
[ 11005 11000 10999 10996 ] final  -60.82 input  -57.11 | X-H torsion

> <Gold.Protein.ActiveResidues>
 VAL166  LYS551  ARG553  GLY616  TRP617  ASP618  TYR619  PRO620  LYS621  CYS622 
 ASP623  PHE694  ASN695  SER759  ASP760  ASP761  ALA762  ILE779  LEU786  VAL792 
 PHE793  MET794  SER795  GLU796  ALA797  LYS798  CYS799  TRP800  GLU811  SER814 

> <Gold.Protein.RotatedAtoms>
  150.6931  134.3983  159.5106 H   0  0  0  0  0  0  0  0  0  0  0  0  # atno 6907 bound_to 6896
  152.1760  134.8791  160.0539 H   0  0  0  0  0  0  0  0  0  0  0  0  # atno 6908 bound_to 6896
  151.9800  133.3719  159.4140 H   0  0  0  0  0  0  0  0  0  0  0  0  # atno 6909 bound_to 6896
  144.8382  139.6377  143.6028 H   0  0  0  0  0  0  0  0  0  0  0  0  # atno 7974 bound_to 7965
  156.2914  140.2645  156.2430 H   0  0  0  0  0  0  0  0  0  0  0  0  # atno 8008 bound_to 7997
  154.9958  140.0388  157.2357 H   0  0  0  0  0  0  0  0  0  0  0  0  # atno 8009 bound_to 7997
  154.7645  140.2767  155.6192 H   0  0  0  0  0  0  0  0  0  0  0  0  # atno 8010 bound_to 7997
  140.6936  143.2987  151.3341 H   0  0  0  0  0  0  0  0  0  0  0  0  # atno 10167 bound_to 10162
  156.2029  130.6869  151.0560 H   0  0  0  0  0  0  0  0  0  0  0  0  # atno 10718 bound_to 10713
  153.4501  135.7015  153.6114 H   0  0  0  0  0  0  0  0  0  0  0  0  # atno 10763 bound_to 10752
  153.4453  135.3771  155.2252 H   0  0  0  0  0  0  0  0  0  0  0  0  # atno 10764 bound_to 10752
  154.8728  135.3983  154.3912 H   0  0  0  0  0  0  0  0  0  0  0  0  # atno 10765 bound_to 10752
  141.1302  133.6625  156.5282 H   0  0  0  0  0  0  0  0  0  0  0  0  # atno 11005 bound_to 11000
  146.2678  139.6561  142.9317 LP  0  0  0  0  0  0  0  0  0  0  0  0  # atno 17320 bound_to 7965
  145.4750  141.0437  143.2677 LP  0  0  0  0  0  0  0  0  0  0  0  0  # atno 17321 bound_to 7965
  139.6366  144.0618  152.2521 LP  0  0  0  0  0  0  0  0  0  0  0  0  # atno 17342 bound_to 10162
  140.0110  144.6224  150.7647 LP  0  0  0  0  0  0  0  0  0  0  0  0  # atno 17343 bound_to 10162
  157.6996  131.0781  150.6863 LP  0  0  0  0  0  0  0  0  0  0  0  0  # atno 17370 bound_to 10713
  156.6921  130.4598  149.5597 LP  0  0  0  0  0  0  0  0  0  0  0  0  # atno 17371 bound_to 10713
  140.4237  134.7164  157.4904 LP  0  0  0  0  0  0  0  0  0  0  0  0  # atno 17394 bound_to 11000
  140.0342  134.6362  155.9066 LP  0  0  0  0  0  0  0  0  0  0  0  0  # atno 17395 bound_to 11000

$$$$
