AV-unprocessed.smi:1382|AV-procd|sdf|5620|dock5
  -GOLD-   22720 5233D 1   1.00000     0.00000
 Structure written by MMmdl.
 44 45  0  0  0  0  0  0  0  0  1 V2000
  147.6193  140.5509  153.8355 C   0  0  0  0  0  0  0  0  0  0  0  0
  148.5856  141.0445  154.9203 C   0  0  0  0  0  0  0  0  0  0  0  0
  150.0163  140.5061  154.7640 C   0  0  0  0  0  0  0  0  0  0  0  0
  150.0969  138.9683  154.7492 C   0  0  0  0  0  0  0  0  0  0  0  0
  150.3570  138.4161  156.0641 N   0  0  0  0  0  0  0  0  0  0  0  0
  149.5051  137.5112  156.7048 C   0  0  0  0  0  0  0  0  0  0  0  0
  148.3569  137.1122  156.0359 N   0  0  0  0  0  0  0  0  0  0  0  0
  149.7838  137.0205  157.9495 C   0  0  0  0  0  0  0  0  0  0  0  0
  148.9027  136.1446  158.6095 N   0  0  0  0  0  0  0  0  0  0  0  0
  148.6659  134.8405  157.9838 C   0  0  0  0  0  0  0  0  0  0  0  0
  148.3115  136.4415  159.7955 C   0  0  0  0  0  0  0  0  0  0  0  0
  148.5717  137.4812  160.4042 O   0  0  0  0  0  0  0  0  0  0  0  0
  147.2688  135.4760  160.4010 C   0  0  2  0  0  0  0  0  0  0  0  0
  146.6951  135.9359  161.7556 C   0  0  0  0  0  0  0  0  0  0  0  0
  147.3631  135.0171  162.7574 C   0  0  0  0  0  0  0  0  0  0  0  0
  147.5327  133.7472  161.9373 C   0  0  0  0  0  0  0  0  0  0  0  0
  147.9188  134.2322  160.6608 O   0  0  0  0  0  0  0  0  0  0  0  0
  150.9768  137.4707  158.6800 C   0  0  0  0  0  0  0  0  0  0  0  0
  151.3006  137.1204  159.8139 O   0  0  0  0  0  0  0  0  0  0  0  0
  151.7717  138.3863  157.9953 N   0  0  0  0  0  0  0  0  0  0  0  0
  151.5177  138.8875  156.7236 C   0  0  0  0  0  0  0  0  0  0  0  0
  152.2911  139.7118  156.2348 O   0  0  0  0  0  0  0  0  0  0  0  0
  152.5978  138.7236  158.4678 H   0  0  0  0  0  0  0  0  0  0  0  0
  146.6082  140.9110  154.0276 H   0  0  0  0  0  0  0  0  0  0  0  0
  147.5827  139.4616  153.8066 H   0  0  0  0  0  0  0  0  0  0  0  0
  147.9101  140.9049  152.8466 H   0  0  0  0  0  0  0  0  0  0  0  0
  148.5996  142.1348  154.9346 H   0  0  0  0  0  0  0  0  0  0  0  0
  148.2003  140.7347  155.8923 H   0  0  0  0  0  0  0  0  0  0  0  0
  150.4300  140.8924  153.8317 H   0  0  0  0  0  0  0  0  0  0  0  0
  150.6458  140.9048  155.5605 H   0  0  0  0  0  0  0  0  0  0  0  0
  149.1720  138.5145  154.3963 H   0  0  0  0  0  0  0  0  0  0  0  0
  150.8662  138.6037  154.0664 H   0  0  0  0  0  0  0  0  0  0  0  0
  148.1313  137.4573  155.1137 H   0  0  0  0  0  0  0  0  0  0  0  0
  147.7130  136.4435  156.4337 H   0  0  0  0  0  0  0  0  0  0  0  0
  149.0024  134.0321  158.6341 H   0  0  0  0  0  0  0  0  0  0  0  0
  149.1958  134.7451  157.0350 H   0  0  0  0  0  0  0  0  0  0  0  0
  147.6042  134.6980  157.7781 H   0  0  0  0  0  0  0  0  0  0  0  0
  146.4323  135.3113  159.7217 H   0  0  0  0  0  0  0  0  0  0  0  0
  146.8623  136.9893  161.9844 H   0  0  0  0  0  0  0  0  0  0  0  0
  145.6167  135.7729  161.7688 H   0  0  0  0  0  0  0  0  0  0  0  0
  148.3386  135.4140  163.0413 H   0  0  0  0  0  0  0  0  0  0  0  0
  146.7745  134.8679  163.6627 H   0  0  0  0  0  0  0  0  0  0  0  0
  148.2797  133.0710  162.3532 H   0  0  0  0  0  0  0  0  0  0  0  0
  146.5872  133.2094  161.8519 H   0  0  0  0  0  0  0  0  0  0  0  0
  1  2  1  0  0  0  0
  1 24  1  0  0  0  0
  1 25  1  0  0  0  0
  1 26  1  0  0  0  0
  2  3  1  0  0  0  0
  2 27  1  0  0  0  0
  2 28  1  0  0  0  0
  3  4  1  0  0  0  0
  3 29  1  0  0  0  0
  3 30  1  0  0  0  0
  4  5  1  0  0  0  0
  4 31  1  0  0  0  0
  4 32  1  0  0  0  0
  5 21  1  0  0  0  0
  5  6  1  0  0  0  0
  6  7  1  0  0  0  0
  6  8  2  0  0  0  0
  7 33  1  0  0  0  0
  7 34  1  0  0  0  0
  8  9  1  0  0  0  0
  8 18  1  0  0  0  0
  9 10  1  0  0  0  0
  9 11  1  0  0  0  0
 10 35  1  0  0  0  0
 10 36  1  0  0  0  0
 10 37  1  0  0  0  0
 11 12  2  0  0  0  0
 11 13  1  0  0  0  0
 13 17  1  0  0  0  0
 13 14  1  0  0  0  0
 13 38  1  0  0  0  0
 14 15  1  0  0  0  0
 14 39  1  0  0  0  0
 14 40  1  0  0  0  0
 15 16  1  0  0  0  0
 15 41  1  0  0  0  0
 15 42  1  0  0  0  0
 16 17  1  0  0  0  0
 16 43  1  0  0  0  0
 16 44  1  0  0  0  0
 18 19  2  0  0  0  0
 18 20  1  0  0  0  0
 20 23  1  0  0  0  0
 20 21  1  0  0  0  0
 21 22  2  0  0  0  0
M  END
> <s_m_source_file>
AV-unprocessed.smi

> <i_m_source_file_index>
1382

> <i_lp_mmshare_version>
43012

> <i_f3d_flags>
0

> <s_epik_input>
W0NIM11bQ0gyXVtDSDJdW0NIMl1uMWMoW05IMl0pYyhjKD1PKVtuSF1jMT1PKU4oW0NIM10pQyg9TylbQ0BASF0yW0NIMl1bQ0gyXVtDSDJdTzI=

> <s_epik_cmdline>
J2VwaWtfcHl0aG9uJywgJy1waCcsICc3LjAnLCAnLXRuJywgJzgnLCAnLW1hJywgJzIwMCcsICctbWV0YWxfYmluZGluZycsICctaW1hZScsICc8aW5maWxlLm1hZT4nLCAnLW9tYWUnLCAnPG91dGZpbGUubWFlPic=

> <r_lp_tautomer_probability>
1

> <r_epik_Ionization_Penalty>
1.19634e-05

> <r_epik_Ionization_Penalty_Charging>
6.01811e-06

> <r_epik_Ionization_Penalty_Neutral>
5.94533e-06

> <r_epik_State_Penalty>
-0

> <r_epik_Charging_Adjusted_Penalty>
6.01811e-06

> <i_epik_Tot_Q>
0

> <i_epik_Tot_abs_Q>
0

> <r_epik_Metal_State_Penalty>
-0

> <b_epik_Metal_Only>
0

> <s_epik_Chemistry_Notes>
This compound has an imine and may undergo hydrolysis.

> <s_lp_Force_Field>
OPLS_2005

> <r_lp_Energy>
42.2822

> <b_lp_Chiralities_Consistent>
1

> <s_lp_Variant>
AV-unprocessed.smi:1382-1

> <Gold.Version>
5.8.1

> <Gold.Id.Protein>
6NUR|6NUR_protein|mol2

> <Gold.PLP.Fitness>
39.1077

> <Gold.PLP.PLP>
-31.1414

> <Gold.PLP.part.hbond>
-3.8151

> <Gold.PLP.part.metal>
0.0000

> <Gold.PLP.part.buried>
-1.0775

> <Gold.PLP.part.nonpolar>
-26.4410

> <Gold.PLP.part.repulsive>
0.0604

> <Gold.PLP.ligand.clash>
0.0000

> <Gold.PLP.ligand.torsion>
1.3831

> <Gold.PLP.Chemscore.Hbond>
2.8110

> <Gold.PLP.Chemscore.CHOScore>
0.0000

> <Gold.PLP.Chemscore.Metal>
0.0000

> <Gold.Chemscore.Hbonds>
donor molecule, donor type, donor heavy atom, donor atom, acceptor molecule, acceptor atom, score
      P1  H  6896  6909       L1    19  1.00
      P1  H  6931  6943       L1    12  0.54
      P1  H  6934  6947       L1    12  0.32
      P1  H  7997  8009       L1    22  0.86

> <Gold.PLP.Chemscore.Internal.Correction>
2.2995

> <Gold.Rescore>
     Score         DG    S(hbond)    S(metal)    S(lipo)     H(rot)  DE(clash)    DE(int)     intcor
     14.07     -18.24       3.05        0.00      59.13       1.69       0.02       4.15       ----

> <Gold.Chemscore.Fitness>
14.0658

> <Gold.Chemscore.DG>
-18.2352

> <Gold.Chemscore.ZeroCoef>
-5.4800

> <Gold.Chemscore.Hbond>
3.0463

> <Gold.Chemscore.Metal>
0.0000

> <Gold.Chemscore.Lipo>
59.1272

> <Gold.Chemscore.Internal_Hbond>
0.0000

> <Gold.Chemscore.DEClash>
0.0237

> <Gold.Chemscore.DEInternal>
4.1456

> <Gold.Chemscore.Rot>
1.6942

> <Gold.Chemscore.Internal.Correction>
   9.000000E+99

> <Gold.Chemscore.Hbonds>
donor molecule, donor type, donor heavy atom, donor atom, acceptor molecule, acceptor atom, score
      P1  H  6896  6909       L1    19  0.81
      P1  H  6931  6943       L1    12  0.54
      P1  H  6934  6947       L1    12  0.32
      P1  H  7997  8009       L1    22  0.84

> <Gold.Chemscore.Hbond.Weighted>
-10.1746

> <Gold.Chemscore.Metal.Weighted>
-0.0000

> <Gold.Chemscore.Lipo.Weighted>
-6.9179

> <Gold.Chemscore.Internal_Hbond.Weighted>
0.0000

> <Gold.Chemscore.DEClash.Weighted>
0.0237

> <Gold.Chemscore.DEInternal.Weighted>
4.1456

> <Gold.Chemscore.Rot.Weighted>
4.3372

> <Gold.Chemscore.Internal.Correction.Weighted>
   9.000000E+99

> <Gold.Protein.RotatedTorsions>
[ 6907 6896 6895 6894 ] final  112.18 input  -60.11 | X-H torsion
[ 7974 7965 7964 7962 ] final  -74.83 input  175.53 | X-H torsion
[ 8008 7997 7996 7995 ] final -161.17 input   59.86 | X-H torsion
[ 10167 10162 10161 10158 ] final  153.52 input  -65.29 | X-H torsion
[ 10718 10713 10712 10709 ] final  -47.21 input   66.30 | X-H torsion
[ 10763 10752 10751 10750 ] final   18.75 input  -60.55 | X-H torsion
[ 11005 11000 10999 10996 ] final   66.36 input  -57.11 | X-H torsion

> <Gold.Protein.ActiveResidues>
 VAL166  LYS551  ARG553  GLY616  TRP617  ASP618  TYR619  PRO620  LYS621  CYS622 
 ASP623  PHE694  ASN695  SER759  ASP760  ASP761  ALA762  ILE779  LEU786  VAL792 
 PHE793  MET794  SER795  GLU796  ALA797  LYS798  CYS799  TRP800  GLU811  SER814 

> <Gold.Protein.RotatedAtoms>
  152.4930  133.8553  159.7222 H   0  0  0  0  0  0  0  0  0  0  0  0  # atno 6907 bound_to 6896
  150.9079  133.7025  159.2869 H   0  0  0  0  0  0  0  0  0  0  0  0  # atno 6908 bound_to 6896
  151.4445  135.1028  159.9732 H   0  0  0  0  0  0  0  0  0  0  0  0  # atno 6909 bound_to 6896
  145.6340  140.9330  143.1071 H   0  0  0  0  0  0  0  0  0  0  0  0  # atno 7974 bound_to 7965
  155.7882  140.0874  157.2023 H   0  0  0  0  0  0  0  0  0  0  0  0  # atno 8008 bound_to 7997
  154.3986  140.1495  156.3189 H   0  0  0  0  0  0  0  0  0  0  0  0  # atno 8009 bound_to 7997
  155.8585  140.3431  155.5743 H   0  0  0  0  0  0  0  0  0  0  0  0  # atno 8010 bound_to 7997
  139.4827  144.5266  151.7790 H   0  0  0  0  0  0  0  0  0  0  0  0  # atno 10167 bound_to 10162
  156.2107  130.4160  149.9119 H   0  0  0  0  0  0  0  0  0  0  0  0  # atno 10718 bound_to 10713
  153.1221  135.6721  153.9318 H   0  0  0  0  0  0  0  0  0  0  0  0  # atno 10763 bound_to 10752
  153.8830  135.3056  155.3447 H   0  0  0  0  0  0  0  0  0  0  0  0  # atno 10764 bound_to 10752
  154.7631  135.4978  153.9582 H   0  0  0  0  0  0  0  0  0  0  0  0  # atno 10765 bound_to 10752
  139.9836  134.6703  156.0216 H   0  0  0  0  0  0  0  0  0  0  0  0  # atno 11005 bound_to 11000
  144.7182  139.8120  143.7391 LP  0  0  0  0  0  0  0  0  0  0  0  0  # atno 17320 bound_to 7965
  146.1334  139.4374  143.0154 LP  0  0  0  0  0  0  0  0  0  0  0  0  # atno 17321 bound_to 7965
  140.4787  144.1481  150.5929 LP  0  0  0  0  0  0  0  0  0  0  0  0  # atno 17342 bound_to 10162
  140.4302  143.2572  151.9605 LP  0  0  0  0  0  0  0  0  0  0  0  0  # atno 17343 bound_to 10162
  156.6798  130.8853  151.3574 LP  0  0  0  0  0  0  0  0  0  0  0  0  # atno 17370 bound_to 10713
  157.7037  130.9361  150.0863 LP  0  0  0  0  0  0  0  0  0  0  0  0  # atno 17371 bound_to 10713
  141.1505  133.6549  156.3998 LP  0  0  0  0  0  0  0  0  0  0  0  0  # atno 17394 bound_to 11000
  140.5046  134.6453  157.5261 LP  0  0  0  0  0  0  0  0  0  0  0  0  # atno 17395 bound_to 11000

$$$$
