AV-unprocessed.smi:658|AV-procd|sdf|3237|dock4
  -GOLD-   22720 0183D 1   1.00000     0.00000
 Structure written by MMmdl.
 37 37  0  0  0  0  0  0  0  0  3 V2000
  150.2811  140.2349  156.0842 C   0  0  0  0  0  0  0  0  0  0  0  0
  150.4606  141.6606  156.6412 C   0  0  1  0  0  0  0  0  0  0  0  0
  149.1631  142.3749  156.6935 N   0  3  0  0  0  0  0  0  0  0  0  0
  148.4330  142.2778  157.9736 C   0  0  0  0  0  0  0  0  0  0  0  0
  147.0019  142.8026  157.8196 C   0  0  0  0  0  0  0  0  0  0  0  0
  146.1986  142.7053  159.1240 C   0  0  0  0  0  0  0  0  0  0  0  0
  146.6744  144.0297  160.3168 S   0  0  0  0  0  0  0  0  0  0  0  0
  146.2967  145.3484  159.4666 N   0  5  0  0  0  0  0  0  0  0  0  0
  145.8090  143.8638  161.4945 O   0  0  0  0  0  0  0  0  0  0  0  0
  148.1259  143.8903  160.5068 O   0  0  0  0  0  0  0  0  0  0  0  0
  151.1528  141.6659  158.0295 C   0  0  1  0  0  0  0  0  0  0  0  0
  152.3435  140.6936  158.1115 C   0  0  0  0  0  0  0  0  0  0  0  0
  151.5241  143.0060  158.4758 N   0  0  0  0  0  0  0  0  0  0  0  0
  151.4588  144.2035  157.7889 C   0  0  0  0  0  0  0  0  0  0  0  0
  151.8885  145.1857  158.6340 C   0  0  0  0  0  0  0  0  0  0  0  0
  152.1945  144.4880  159.8348 C   0  0  0  0  0  0  0  0  0  0  0  0
  151.9707  143.1877  159.7386 N   0  0  0  0  0  0  0  0  0  0  0  0
  151.2240  139.6880  156.1027 H   0  0  0  0  0  0  0  0  0  0  0  0
  149.9405  140.2454  155.0492 H   0  0  0  0  0  0  0  0  0  0  0  0
  149.5560  139.6635  156.6647 H   0  0  0  0  0  0  0  0  0  0  0  0
  151.1127  142.2065  155.9576 H   0  0  0  0  0  0  0  0  0  0  0  0
  149.3165  143.3488  156.4736 H   0  0  0  0  0  0  0  0  0  0  0  0
  148.4132  141.2377  158.3015 H   0  0  0  0  0  0  0  0  0  0  0  0
  148.9517  142.8515  158.7413 H   0  0  0  0  0  0  0  0  0  0  0  0
  147.0315  143.8420  157.4900 H   0  0  0  0  0  0  0  0  0  0  0  0
  146.4927  142.2426  157.0344 H   0  0  0  0  0  0  0  0  0  0  0  0
  145.1356  142.8236  158.9136 H   0  0  0  0  0  0  0  0  0  0  0  0
  146.3291  141.7394  159.6126 H   0  0  0  0  0  0  0  0  0  0  0  0
  146.8563  145.3448  158.6053 H   0  0  0  0  0  0  0  0  0  0  0  0
  150.4190  141.2896  158.7451 H   0  0  0  0  0  0  0  0  0  0  0  0
  152.0348  139.6773  157.8657 H   0  0  0  0  0  0  0  0  0  0  0  0
  152.7608  140.6731  159.1189 H   0  0  0  0  0  0  0  0  0  0  0  0
  153.1463  140.9687  157.4272 H   0  0  0  0  0  0  0  0  0  0  0  0
  151.1162  144.2606  156.7663 H   0  0  0  0  0  0  0  0  0  0  0  0
  151.9703  146.2425  158.4267 H   0  0  0  0  0  0  0  0  0  0  0  0
  152.5670  144.8848  160.7677 H   0  0  0  0  0  0  0  0  0  0  0  0
  148.5672  141.9771  155.9818 H   0  0  0  0  0  0  0  0  0  0  0  0
  1  2  1  0  0  0  0
  1 18  1  0  0  0  0
  1 19  1  0  0  0  0
  1 20  1  0  0  0  0
  2  3  1  0  0  0  0
  2 11  1  0  0  0  0
  2 21  1  0  0  0  0
  3  4  1  0  0  0  0
  3 22  1  0  0  0  0
  3 37  1  0  0  0  0
  4  5  1  0  0  0  0
  4 23  1  0  0  0  0
  4 24  1  0  0  0  0
  5  6  1  0  0  0  0
  5 25  1  0  0  0  0
  5 26  1  0  0  0  0
  6  7  1  0  0  0  0
  6 27  1  0  0  0  0
  6 28  1  0  0  0  0
  7  8  1  0  0  0  0
  7  9  2  0  0  0  0
  7 10  2  0  0  0  0
  8 29  1  0  0  0  0
 11 12  1  0  0  0  0
 11 13  1  0  0  0  0
 11 30  1  0  0  0  0
 12 31  1  0  0  0  0
 12 32  1  0  0  0  0
 12 33  1  0  0  0  0
 13 17  1  0  0  0  0
 13 14  1  0  0  0  0
 14 15  2  0  0  0  0
 14 34  1  0  0  0  0
 15 16  1  0  0  0  0
 15 35  1  0  0  0  0
 16 17  2  0  0  0  0
 16 36  1  0  0  0  0
M  CHG  1   3   1
M  CHG  1   8  -1
M  END
> <s_m_source_file>
AV-unprocessed.smi

> <i_m_source_file_index>
658

> <i_lp_mmshare_version>
43012

> <i_f3d_flags>
0

> <s_epik_input>
bjFbY0hdW2NIXVtjSF1uMVtDQEBIXShbQ0gzXSlbQ0BIXShbQ0gzXSlbTkhdW0NIMl1bQ0gyXVtDSDJdUyg9TykoPU8pW05IMl0=

> <s_epik_cmdline>
J2VwaWtfcHl0aG9uJywgJy1waCcsICc3LjAnLCAnLXRuJywgJzgnLCAnLW1hJywgJzIwMCcsICctbWV0YWxfYmluZGluZycsICctaW1hZScsICc8aW5maWxlLm1hZT4nLCAnLW9tYWUnLCAnPG91dGZpbGUubWFlPic=

> <r_lp_tautomer_probability>
1

> <r_epik_Ionization_Penalty>
4.63642

> <r_epik_Ionization_Penalty_Charging>
4.63641

> <r_epik_Ionization_Penalty_Neutral>
1.08396e-05

> <r_epik_State_Penalty>
4.63466

> <r_epik_Charging_Adjusted_Penalty>
9.27106

> <i_epik_Tot_Q>
0

> <i_epik_Tot_abs_Q>
2

> <r_epik_Metal_State_Penalty>
0.890424

> <b_epik_Metal_Only>
1

> <s_lp_Force_Field>
OPLS_2005

> <r_lp_Energy>
1.41706

> <b_lp_Chiralities_Consistent>
1

> <s_lp_Variant>
AV-unprocessed.smi:658-8

> <Gold.Version>
5.8.1

> <Gold.Id.Protein>
6NUR|6NUR_protein|mol2

> <Gold.PLP.Fitness>
45.8561

> <Gold.PLP.PLP>
-32.0073

> <Gold.PLP.part.hbond>
-3.0000

> <Gold.PLP.part.metal>
0.0000

> <Gold.PLP.part.buried>
-6.1244

> <Gold.PLP.part.nonpolar>
-23.6603

> <Gold.PLP.part.repulsive>
0.2035

> <Gold.PLP.ligand.clash>
0.0000

> <Gold.PLP.ligand.torsion>
0.6799

> <Gold.PLP.Chemscore.Hbond>
3.9840

> <Gold.PLP.Chemscore.CHOScore>
1.0000

> <Gold.PLP.Chemscore.Metal>
0.0000

> <Gold.Chemscore.Hbonds>
donor molecule, donor type, donor heavy atom, donor atom, acceptor molecule, acceptor atom, score
      L1  H     3    22       P1  8028  2.00
      L1  H     8    29       P1  8029  1.00
      P1  H  6933  6944       L1    10  1.00
      L1  C    14    34       P1  8028  1.00

> <Gold.PLP.Chemscore.Internal.Correction>
0.2567

> <Gold.Rescore>
     Score         DG    S(hbond)    S(metal)    S(lipo)     H(rot)  DE(clash)    DE(int)     intcor
     14.98     -15.71       2.91        0.00      70.84       3.04       0.03       0.70       ----

> <Gold.Chemscore.Fitness>
14.9834

> <Gold.Chemscore.DG>
-15.7096

> <Gold.Chemscore.ZeroCoef>
-5.4800

> <Gold.Chemscore.Hbond>
2.9121

> <Gold.Chemscore.Metal>
0.0000

> <Gold.Chemscore.Lipo>
70.8376

> <Gold.Chemscore.Internal_Hbond>
0.0000

> <Gold.Chemscore.DEClash>
0.0270

> <Gold.Chemscore.DEInternal>
0.6992

> <Gold.Chemscore.Rot>
3.0409

> <Gold.Chemscore.Internal.Correction>
   9.000000E+99

> <Gold.Chemscore.Hbonds>
donor molecule, donor type, donor heavy atom, donor atom, acceptor molecule, acceptor atom, score
      L1  H     3    22       P1  8028  0.94
      L1  H     8    29       P1  8029  0.99
      P1  H  6933  6944       L1    10  0.78

> <Gold.Chemscore.Hbond.Weighted>
-9.7264

> <Gold.Chemscore.Metal.Weighted>
-0.0000

> <Gold.Chemscore.Lipo.Weighted>
-8.2880

> <Gold.Chemscore.Internal_Hbond.Weighted>
0.0000

> <Gold.Chemscore.DEClash.Weighted>
0.0270

> <Gold.Chemscore.DEInternal.Weighted>
0.6992

> <Gold.Chemscore.Rot.Weighted>
7.7848

> <Gold.Chemscore.Internal.Correction.Weighted>
   9.000000E+99

> <Gold.Protein.RotatedTorsions>
[ 6907 6896 6895 6894 ] final    6.79 input  -60.11 | X-H torsion
[ 7974 7965 7964 7962 ] final   45.71 input  175.53 | X-H torsion
[ 8008 7997 7996 7995 ] final  -17.64 input   59.86 | X-H torsion
[ 10167 10162 10161 10158 ] final  -43.59 input  -65.29 | X-H torsion
[ 10718 10713 10712 10709 ] final  -22.48 input   66.30 | X-H torsion
[ 10763 10752 10751 10750 ] final -139.65 input  -60.55 | X-H torsion
[ 11005 11000 10999 10996 ] final -177.75 input  -57.11 | X-H torsion

> <Gold.Protein.ActiveResidues>
 VAL166  LYS551  ARG553  GLY616  TRP617  ASP618  TYR619  PRO620  LYS621  CYS622 
 ASP623  PHE694  ASN695  SER759  ASP760  ASP761  ALA762  ILE779  LEU786  VAL792 
 PHE793  MET794  SER795  GLU796  ALA797  LYS798  CYS799  TRP800  GLU811  SER814 

> <Gold.Protein.RotatedAtoms>
  151.6794  135.0964  160.0212 H   0  0  0  0  0  0  0  0  0  0  0  0  # atno 6907 bound_to 6896
  152.3844  133.6587  159.6196 H   0  0  0  0  0  0  0  0  0  0  0  0  # atno 6908 bound_to 6896
  150.7773  133.8976  159.3373 H   0  0  0  0  0  0  0  0  0  0  0  0  # atno 6909 bound_to 6896
  146.0456  139.4935  142.9751 H   0  0  0  0  0  0  0  0  0  0  0  0  # atno 7974 bound_to 7965
  154.4963  140.2137  155.9439 H   0  0  0  0  0  0  0  0  0  0  0  0  # atno 8008 bound_to 7997
  156.1375  140.3186  155.8411 H   0  0  0  0  0  0  0  0  0  0  0  0  # atno 8009 bound_to 7997
  155.4182  140.0495  157.3018 H   0  0  0  0  0  0  0  0  0  0  0  0  # atno 8010 bound_to 7997
  140.6928  143.2975  151.3374 H   0  0  0  0  0  0  0  0  0  0  0  0  # atno 10167 bound_to 10162
  156.5040  130.4594  149.6685 H   0  0  0  0  0  0  0  0  0  0  0  0  # atno 10718 bound_to 10713
  154.8603  135.3576  154.5581 H   0  0  0  0  0  0  0  0  0  0  0  0  # atno 10763 bound_to 10752
  153.6197  135.7006  153.5320 H   0  0  0  0  0  0  0  0  0  0  0  0  # atno 10764 bound_to 10752
  153.3139  135.4170  155.1320 H   0  0  0  0  0  0  0  0  0  0  0  0  # atno 10765 bound_to 10752
  140.4374  134.6463  157.4741 H   0  0  0  0  0  0  0  0  0  0  0  0  # atno 11005 bound_to 11000
  145.6812  141.0190  143.1605 LP  0  0  0  0  0  0  0  0  0  0  0  0  # atno 17320 bound_to 7965
  144.7096  139.8423  143.7419 LP  0  0  0  0  0  0  0  0  0  0  0  0  # atno 17321 bound_to 7965
  139.6349  144.0649  152.2508 LP  0  0  0  0  0  0  0  0  0  0  0  0  # atno 17342 bound_to 10162
  140.0135  144.6206  150.7627 LP  0  0  0  0  0  0  0  0  0  0  0  0  # atno 17343 bound_to 10162
  156.3305  130.7329  151.2257 LP  0  0  0  0  0  0  0  0  0  0  0  0  # atno 17370 bound_to 10713
  157.7459  131.0431  150.4727 LP  0  0  0  0  0  0  0  0  0  0  0  0  # atno 17371 bound_to 10713
  140.0093  134.6716  155.9406 LP  0  0  0  0  0  0  0  0  0  0  0  0  # atno 17394 bound_to 11000
  141.1720  133.6538  156.4686 LP  0  0  0  0  0  0  0  0  0  0  0  0  # atno 17395 bound_to 11000

$$$$
