AV-unprocessed.smi:2119|AV-procd|sdf|8631|dock5
  -GOLD-   2272011373D 1   1.00000     0.00000
 Structure written by MMmdl.
 47 49  0  0  0  0  0  0  0  0  1 V2000
  145.0243  135.9568  153.5161 O   0  0  0  0  0  0  0  0  0  0  0  0
  146.1742  135.8313  153.0964 C   0  0  0  0  0  0  0  0  0  0  0  0
  147.1965  136.5879  153.5152 N   0  0  0  0  0  0  0  0  0  0  0  0
  147.0886  137.6400  154.5190 C   0  0  0  0  0  0  0  0  0  0  0  0
  148.1181  137.4481  155.6642 C   0  0  1  0  0  0  0  0  0  0  0  0
  149.2529  138.5198  155.6257 C   0  0  2  0  0  0  0  0  0  0  0  0
  148.8396  139.9787  155.8442 C   0  0  0  0  0  0  0  0  0  0  0  0
  149.5171  140.7288  154.6976 C   0  0  0  0  0  0  0  0  0  0  0  0
  150.6135  139.9027  154.3414 O   0  0  0  0  0  0  0  0  0  0  0  0
  150.1487  138.5632  154.3769 C   0  0  0  0  0  0  0  0  0  0  0  0
  147.5270  137.2026  156.9954 N   0  0  0  0  0  0  0  0  0  0  0  0
  146.6707  138.2924  157.4598 C   0  0  0  0  0  0  0  0  0  0  0  0
  145.9591  137.9373  158.7752 C   0  0  0  0  0  0  0  0  0  0  0  0
  146.9310  137.6074  159.7612 O   0  0  0  0  0  0  0  0  0  0  0  0
  147.7530  136.5118  159.3734 C   0  0  0  0  0  0  0  0  0  0  0  0
  148.4695  136.8308  158.0489 C   0  0  0  0  0  0  0  0  0  0  0  0
  146.5754  134.9493  152.1646 N   0  0  0  0  0  0  0  0  0  0  0  0
  145.8165  133.9564  151.4864 C   0  0  0  0  0  0  0  0  0  0  0  0
  144.4011  133.9050  151.4583 C   0  0  0  0  0  0  0  0  0  0  0  0
  143.7727  132.8552  150.7610 C   0  0  0  0  0  0  0  0  0  0  0  0
  144.5789  131.8920  150.1246 C   0  0  0  0  0  0  0  0  0  0  0  0
  145.9278  131.9216  150.1521 N   0  0  0  0  0  0  0  0  0  0  0  0
  146.5232  132.9313  150.8218 C   0  0  0  0  0  0  0  0  0  0  0  0
  148.1096  136.4263  153.1162 H   0  0  0  0  0  0  0  0  0  0  0  0
  147.2245  138.6118  154.0423 H   0  0  0  0  0  0  0  0  0  0  0  0
  146.0681  137.6184  154.8997 H   0  0  0  0  0  0  0  0  0  0  0  0
  148.6418  136.5229  155.4182 H   0  0  0  0  0  0  0  0  0  0  0  0
  149.9268  138.2844  156.4511 H   0  0  0  0  0  0  0  0  0  0  0  0
  147.7643  140.1550  155.8478 H   0  0  0  0  0  0  0  0  0  0  0  0
  149.2242  140.3298  156.8026 H   0  0  0  0  0  0  0  0  0  0  0  0
  148.8429  140.8204  153.8447 H   0  0  0  0  0  0  0  0  0  0  0  0
  149.8428  141.7292  154.9832 H   0  0  0  0  0  0  0  0  0  0  0  0
  150.9834  137.8649  154.4411 H   0  0  0  0  0  0  0  0  0  0  0  0
  149.6108  138.3429  153.4570 H   0  0  0  0  0  0  0  0  0  0  0  0
  147.2587  139.1956  157.6212 H   0  0  0  0  0  0  0  0  0  0  0  0
  145.9255  138.5311  156.7004 H   0  0  0  0  0  0  0  0  0  0  0  0
  145.3670  138.7824  159.1263 H   0  0  0  0  0  0  0  0  0  0  0  0
  145.2735  137.1008  158.6316 H   0  0  0  0  0  0  0  0  0  0  0  0
  148.4819  136.3166  160.1602 H   0  0  0  0  0  0  0  0  0  0  0  0
  147.1438  135.6122  159.2729 H   0  0  0  0  0  0  0  0  0  0  0  0
  149.0311  135.9463  157.7603 H   0  0  0  0  0  0  0  0  0  0  0  0
  149.1886  137.6343  158.2118 H   0  0  0  0  0  0  0  0  0  0  0  0
  147.5411  135.0198  151.8785 H   0  0  0  0  0  0  0  0  0  0  0  0
  143.7851  134.6326  151.9623 H   0  0  0  0  0  0  0  0  0  0  0  0
  142.6958  132.7870  150.7195 H   0  0  0  0  0  0  0  0  0  0  0  0
  144.1281  131.0734  149.5831 H   0  0  0  0  0  0  0  0  0  0  0  0
  147.6036  132.9207  150.8248 H   0  0  0  0  0  0  0  0  0  0  0  0
  1  2  2  0  0  0  0
  2  3  1  0  0  0  0
  2 17  1  0  0  0  0
  3  4  1  0  0  0  0
  3 24  1  0  0  0  0
  4  5  1  0  0  0  0
  4 25  1  0  0  0  0
  4 26  1  0  0  0  0
  5  6  1  0  0  0  0
  5 11  1  0  0  0  0
  5 27  1  0  0  0  0
  6 10  1  0  0  0  0
  6  7  1  0  0  0  0
  6 28  1  0  0  0  0
  7  8  1  0  0  0  0
  7 29  1  0  0  0  0
  7 30  1  0  0  0  0
  8  9  1  0  0  0  0
  8 31  1  0  0  0  0
  8 32  1  0  0  0  0
  9 10  1  0  0  0  0
 10 33  1  0  0  0  0
 10 34  1  0  0  0  0
 11 16  1  0  0  0  0
 11 12  1  0  0  0  0
 12 13  1  0  0  0  0
 12 35  1  0  0  0  0
 12 36  1  0  0  0  0
 13 14  1  0  0  0  0
 13 37  1  0  0  0  0
 13 38  1  0  0  0  0
 14 15  1  0  0  0  0
 15 16  1  0  0  0  0
 15 39  1  0  0  0  0
 15 40  1  0  0  0  0
 16 41  1  0  0  0  0
 16 42  1  0  0  0  0
 17 18  1  0  0  0  0
 17 43  1  0  0  0  0
 18 23  1  0  0  0  0
 18 19  2  0  0  0  0
 19 20  1  0  0  0  0
 19 44  1  0  0  0  0
 20 21  2  0  0  0  0
 20 45  1  0  0  0  0
 21 22  1  0  0  0  0
 21 46  1  0  0  0  0
 22 23  2  0  0  0  0
 23 47  1  0  0  0  0
M  END
> <s_m_source_file>
AV-unprocessed.smi

> <i_m_source_file_index>
2119

> <i_lp_mmshare_version>
43012

> <i_f3d_flags>
0

> <s_epik_input>
W2NIXTFuW2NIXVtjSF1bY0hdYzFbTkhdQyg9TylbTkhdW0NIMl1bQ0BIXShbQ0BASF0yW0NIMl1bQ0gyXU9bQ0gyXTIpTjNbQ0gyXVtDSDJdT1tDSDJdW0NIMl0z

> <s_epik_cmdline>
J2VwaWtfcHl0aG9uJywgJy1waCcsICc3LjAnLCAnLXRuJywgJzgnLCAnLW1hJywgJzIwMCcsICctbWV0YWxfYmluZGluZycsICctaW1hZScsICc8aW5maWxlLm1hZT4nLCAnLW9tYWUnLCAnPG91dGZpbGUubWFlPic=

> <r_epik_Ionization_Penalty>
0.129787

> <r_epik_Ionization_Penalty_Charging>
0

> <r_epik_Ionization_Penalty_Neutral>
0.129787

> <r_epik_State_Penalty>
0.121311

> <r_epik_Charging_Adjusted_Penalty>
0.121311

> <i_epik_Tot_Q>
0

> <i_epik_Tot_abs_Q>
0

> <r_epik_Metal_State_Penalty>
0.117931

> <b_epik_Metal_Only>
0

> <s_lp_Force_Field>
OPLS_2005

> <r_lp_Energy>
56.2921

> <b_lp_Chiralities_Consistent>
1

> <s_lp_Variant>
AV-unprocessed.smi:2119-2

> <Gold.Version>
5.8.1

> <Gold.Id.Protein>
6NUR|6NUR_protein|mol2

> <Gold.PLP.Fitness>
41.2265

> <Gold.PLP.PLP>
-28.5656

> <Gold.PLP.part.hbond>
-3.7954

> <Gold.PLP.part.metal>
0.0000

> <Gold.PLP.part.buried>
-4.8964

> <Gold.PLP.part.nonpolar>
-20.7256

> <Gold.PLP.part.repulsive>
0.3377

> <Gold.PLP.ligand.clash>
0.0000

> <Gold.PLP.ligand.torsion>
0.9469

> <Gold.PLP.Chemscore.Hbond>
3.8480

> <Gold.PLP.Chemscore.CHOScore>
0.8806

> <Gold.PLP.Chemscore.Metal>
0.0000

> <Gold.Chemscore.Hbonds>
donor molecule, donor type, donor heavy atom, donor atom, acceptor molecule, acceptor atom, score
      L1  H     3    24       P1  7948  0.95
      L1  H    17    43       P1  7948  0.85
      P1  H  6934  6947       L1    14  0.98
      P1  H  7989  7998       L1     9  1.00
      L1  C    23    47       P1 10747  0.88

> <Gold.PLP.Chemscore.Internal.Correction>
0.3688

> <Gold.Rescore>
     Score         DG    S(hbond)    S(metal)    S(lipo)     H(rot)  DE(clash)    DE(int)     intcor
     19.11     -21.16       3.74        0.00      63.35       1.65       0.03       2.03       ----

> <Gold.Chemscore.Fitness>
19.1059

> <Gold.Chemscore.DG>
-21.1583

> <Gold.Chemscore.ZeroCoef>
-5.4800

> <Gold.Chemscore.Hbond>
3.7404

> <Gold.Chemscore.Metal>
0.0000

> <Gold.Chemscore.Lipo>
63.3460

> <Gold.Chemscore.Internal_Hbond>
0.0000

> <Gold.Chemscore.DEClash>
0.0270

> <Gold.Chemscore.DEInternal>
2.0254

> <Gold.Chemscore.Rot>
1.6508

> <Gold.Chemscore.Internal.Correction>
   9.000000E+99

> <Gold.Chemscore.Hbonds>
donor molecule, donor type, donor heavy atom, donor atom, acceptor molecule, acceptor atom, score
      L1  H     3    24       P1  7948  0.85
      L1  H    17    43       P1  7948  0.71
      P1  H  6934  6947       L1    14  0.69
      P1  H  7989  7998       L1     9  0.50

> <Gold.Chemscore.Hbond.Weighted>
-12.4930

> <Gold.Chemscore.Metal.Weighted>
-0.0000

> <Gold.Chemscore.Lipo.Weighted>
-7.4115

> <Gold.Chemscore.Internal_Hbond.Weighted>
0.0000

> <Gold.Chemscore.DEClash.Weighted>
0.0270

> <Gold.Chemscore.DEInternal.Weighted>
2.0254

> <Gold.Chemscore.Rot.Weighted>
4.2262

> <Gold.Chemscore.Internal.Correction.Weighted>
   9.000000E+99

> <Gold.Protein.RotatedTorsions>
[ 6907 6896 6895 6894 ] final -135.84 input  -60.11 | X-H torsion
[ 7974 7965 7964 7962 ] final  -98.47 input  175.53 | X-H torsion
[ 8008 7997 7996 7995 ] final  174.71 input   59.86 | X-H torsion
[ 10167 10162 10161 10158 ] final  -18.54 input  -65.29 | X-H torsion
[ 10718 10713 10712 10709 ] final  152.55 input   66.30 | X-H torsion
[ 10763 10752 10751 10750 ] final  152.33 input  -60.55 | X-H torsion
[ 11005 11000 10999 10996 ] final  -75.62 input  -57.11 | X-H torsion

> <Gold.Protein.ActiveResidues>
 VAL166  LYS551  ARG553  GLY616  TRP617  ASP618  TYR619  PRO620  LYS621  CYS622 
 ASP623  PHE694  ASN695  SER759  ASP760  ASP761  ALA762  ILE779  LEU786  VAL792 
 PHE793  MET794  SER795  GLU796  ALA797  LYS798  CYS799  TRP800  GLU811  SER814 

> <Gold.Protein.RotatedAtoms>
  151.0027  133.6040  159.2692 H   0  0  0  0  0  0  0  0  0  0  0  0  # atno 6907 bound_to 6896
  151.3220  135.0820  159.9319 H   0  0  0  0  0  0  0  0  0  0  0  0  # atno 6908 bound_to 6896
  152.5278  133.9673  159.7799 H   0  0  0  0  0  0  0  0  0  0  0  0  # atno 6909 bound_to 6896
  145.3202  140.9420  143.2720 H   0  0  0  0  0  0  0  0  0  0  0  0  # atno 7974 bound_to 7965
  156.0946  140.1427  156.9547 H   0  0  0  0  0  0  0  0  0  0  0  0  # atno 8008 bound_to 7997
  154.4663  140.0925  156.7076 H   0  0  0  0  0  0  0  0  0  0  0  0  # atno 8009 bound_to 7997
  155.4862  140.3446  155.4350 H   0  0  0  0  0  0  0  0  0  0  0  0  # atno 8010 bound_to 7997
  140.7259  143.4907  150.9996 H   0  0  0  0  0  0  0  0  0  0  0  0  # atno 10167 bound_to 10162
  157.2563  131.0789  151.1696 H   0  0  0  0  0  0  0  0  0  0  0  0  # atno 10718 bound_to 10713
  154.1183  135.2834  155.3214 H   0  0  0  0  0  0  0  0  0  0  0  0  # atno 10763 bound_to 10752
  154.6441  135.5392  153.7827 H   0  0  0  0  0  0  0  0  0  0  0  0  # atno 10764 bound_to 10752
  153.0322  135.6494  154.1338 H   0  0  0  0  0  0  0  0  0  0  0  0  # atno 10765 bound_to 10752
  141.1647  133.6953  156.7545 H   0  0  0  0  0  0  0  0  0  0  0  0  # atno 11005 bound_to 11000
  144.8945  139.4730  143.6662 LP  0  0  0  0  0  0  0  0  0  0  0  0  # atno 17320 bound_to 7965
  146.3085  139.7663  142.9038 LP  0  0  0  0  0  0  0  0  0  0  0  0  # atno 17321 bound_to 7965
  139.8611  143.7314  152.3173 LP  0  0  0  0  0  0  0  0  0  0  0  0  # atno 17342 bound_to 10162
  139.7529  144.7529  151.0479 LP  0  0  0  0  0  0  0  0  0  0  0  0  # atno 17343 bound_to 10162
  157.3224  130.6944  149.6277 LP  0  0  0  0  0  0  0  0  0  0  0  0  # atno 17370 bound_to 10713
  155.9665  130.4331  150.4993 LP  0  0  0  0  0  0  0  0  0  0  0  0  # atno 17371 bound_to 10713
  140.2579  134.8489  157.3731 LP  0  0  0  0  0  0  0  0  0  0  0  0  # atno 17394 bound_to 11000
  140.1639  134.4694  155.7876 LP  0  0  0  0  0  0  0  0  0  0  0  0  # atno 17395 bound_to 11000

$$$$
