AV-unprocessed.smi:157|AV-procd|sdf|1291|dock7
  -GOLD-   2262018573D 1   1.00000     0.00000
 Structure written by MMmdl.
 35 37  0  0  0  0  0  0  0  0  1 V2000
  151.3411  140.0965  156.1172 O   0  0  0  0  0  0  0  0  0  0  0  0
  151.0558  139.7205  157.4474 C   0  0  0  0  0  0  0  0  0  0  0  0
  152.2553  138.9836  158.0648 C   0  0  1  0  0  0  0  0  0  0  0  0
  153.3721  139.8676  158.1996 O   0  0  0  0  0  0  0  0  0  0  0  0
  153.9798  139.7133  159.4508 C   0  0  1  0  0  0  0  0  0  0  0  0
  153.6102  140.8873  160.3156 N   0  0  0  0  0  0  0  0  0  0  0  0
  153.8169  141.0226  161.6336 C   0  0  0  0  0  0  0  0  0  0  0  0
  153.3930  142.1653  162.1451 N   0  0  0  0  0  0  0  0  0  0  0  0
  152.8372  142.8340  161.0572 C   0  0  0  0  0  0  0  0  0  0  0  0
  152.9455  142.0518  159.9164 C   0  0  0  0  0  0  0  0  0  0  0  0
  152.5824  142.1740  158.5884 N   0  0  0  0  0  0  0  0  0  0  0  0
  151.6941  143.0645  158.2775 C   0  0  0  0  0  0  0  0  0  0  0  0
  151.0749  144.0256  159.0638 N   0  0  0  0  0  0  0  0  0  0  0  0
  151.7966  144.9059  159.9665 C   0  0  0  0  0  0  0  0  0  0  0  0
  152.2698  144.2111  161.2489 C   0  0  1  0  0  0  0  0  0  0  0  0
  151.1820  144.0901  162.1426 O   0  0  0  0  0  0  0  0  0  0  0  0
  153.4110  138.4243  160.0446 C   0  0  0  0  0  0  0  0  0  0  0  0
  152.0104  138.4192  159.4693 C   0  0  2  0  0  0  0  0  0  0  0  0
  151.4863  137.1080  159.4418 O   0  0  0  0  0  0  0  0  0  0  0  0
  152.5845  138.1852  157.3970 H   0  0  0  0  0  0  0  0  0  0  0  0
  155.0680  139.7445  159.3865 H   0  0  0  0  0  0  0  0  0  0  0  0
  153.0078  144.8499  161.7348 H   0  0  0  0  0  0  0  0  0  0  0  0
  151.3594  139.0743  160.0501 H   0  0  0  0  0  0  0  0  0  0  0  0
  151.9607  140.8098  156.1326 H   0  0  0  0  0  0  0  0  0  0  0  0
  150.8398  140.6243  158.0175 H   0  0  0  0  0  0  0  0  0  0  0  0
  150.1574  139.1041  157.4643 H   0  0  0  0  0  0  0  0  0  0  0  0
  154.2916  140.2686  162.2419 H   0  0  0  0  0  0  0  0  0  0  0  0
  151.3495  143.1126  157.2436 H   0  0  0  0  0  0  0  0  0  0  0  0
  150.2378  144.4682  158.7131 H   0  0  0  0  0  0  0  0  0  0  0  0
  152.6678  145.2802  159.4268 H   0  0  0  0  0  0  0  0  0  0  0  0
  151.1862  145.7784  160.2012 H   0  0  0  0  0  0  0  0  0  0  0  0
  150.3830  144.0980  161.6376 H   0  0  0  0  0  0  0  0  0  0  0  0
  153.9963  137.5855  159.6644 H   0  0  0  0  0  0  0  0  0  0  0  0
  153.4430  138.4123  161.1343 H   0  0  0  0  0  0  0  0  0  0  0  0
  151.0079  136.9963  158.6343 H   0  0  0  0  0  0  0  0  0  0  0  0
  1  2  1  0  0  0  0
  1 24  1  0  0  0  0
  2  3  1  0  0  0  0
  2 25  1  0  0  0  0
  2 26  1  0  0  0  0
  3 20  1  0  0  0  0
  3 18  1  0  0  0  0
  3  4  1  0  0  0  0
  4  5  1  0  0  0  0
  5 21  1  0  0  0  0
  5  6  1  0  0  0  0
  5 17  1  0  0  0  0
  6 10  1  0  0  0  0
  6  7  1  0  0  0  0
  7  8  2  0  0  0  0
  7 27  1  0  0  0  0
  8  9  1  0  0  0  0
  9 15  1  0  0  0  0
  9 10  2  0  0  0  0
 10 11  1  0  0  0  0
 11 12  2  0  0  0  0
 12 13  1  0  0  0  0
 12 28  1  0  0  0  0
 13 14  1  0  0  0  0
 13 29  1  0  0  0  0
 14 15  1  0  0  0  0
 14 30  1  0  0  0  0
 14 31  1  0  0  0  0
 15 22  1  0  0  0  0
 15 16  1  0  0  0  0
 16 32  1  0  0  0  0
 17 18  1  0  0  0  0
 17 33  1  0  0  0  0
 17 34  1  0  0  0  0
 18 23  1  0  0  0  0
 18 19  1  0  0  0  0
 19 35  1  0  0  0  0
M  END
> <s_m_source_file>
AV-unprocessed.smi

> <i_m_source_file_index>
157

> <i_lp_mmshare_version>
43012

> <i_f3d_flags>
0

> <s_epik_input>
W09IXVtDSDJdW0NASF0xT1tDQEhdKFtDSDJdW0NAQEhdMVtPSF0pbihbY0hdbjIpYyhjMjMpTj1bQ0hdW05IXVtDSDJdW0NASF0zW09IXQ==

> <s_epik_cmdline>
J2VwaWtfcHl0aG9uJywgJy1waCcsICc3LjAnLCAnLXRuJywgJzgnLCAnLW1hJywgJzIwMCcsICctbWV0YWxfYmluZGluZycsICctaW1hZScsICc8aW5maWxlLm1hZT4nLCAnLW9tYWUnLCAnPG91dGZpbGUubWFlPic=

> <r_lp_tautomer_probability>
1

> <r_epik_Ionization_Penalty>
0.0357149

> <r_epik_Ionization_Penalty_Charging>
0.0355056

> <r_epik_Ionization_Penalty_Neutral>
0.000209255

> <r_epik_State_Penalty>
0.0296046

> <r_epik_Charging_Adjusted_Penalty>
0.0651102

> <i_epik_Tot_Q>
0

> <i_epik_Tot_abs_Q>
0

> <r_epik_Metal_State_Penalty>
3.03559e-05

> <b_epik_Metal_Only>
0

> <s_epik_Chemistry_Notes>
This compound has an imine and may undergo hydrolysis. This compound contains an acetal/aminal-like group ( X-CH(R)-Y where X, Y are N, S, or O) that may be acid/base labile, releasing an aldehyde.

> <s_lp_Force_Field>
OPLS_2005

> <r_lp_Energy>
41.3094

> <b_lp_Chiralities_Consistent>
1

> <s_lp_Variant>
AV-unprocessed.smi:157-1

> <Gold.Version>
5.8.1

> <Gold.Id.Protein>
6NUR|6NUR_protein|mol2

> <Gold.PLP.Fitness>
43.1366

> <Gold.PLP.PLP>
-38.6521

> <Gold.PLP.part.hbond>
-4.3944

> <Gold.PLP.part.metal>
0.0000

> <Gold.PLP.part.buried>
-6.3523

> <Gold.PLP.part.nonpolar>
-28.1035

> <Gold.PLP.part.repulsive>
0.1277

> <Gold.PLP.ligand.clash>
1.2475

> <Gold.PLP.ligand.torsion>
0.1444

> <Gold.PLP.Chemscore.Hbond>
2.0000

> <Gold.PLP.Chemscore.CHOScore>
0.0000

> <Gold.PLP.Chemscore.Metal>
0.0000

> <Gold.Chemscore.Hbonds>
donor molecule, donor type, donor heavy atom, donor atom, acceptor molecule, acceptor atom, score
      P1  H  6896  6909       L1    19  0.99
      P1  H  7997  8009       L1     4  1.00

> <Gold.PLP.Chemscore.Internal.Correction>
0.0209

> <Gold.Rescore>
     Score         DG    S(hbond)    S(metal)    S(lipo)     H(rot)  DE(clash)    DE(int)     intcor
      4.72      -8.20       1.68        0.00      54.86       3.64       1.54       1.95       ----

> <Gold.Chemscore.Fitness>
4.7181

> <Gold.Chemscore.DG>
-8.2023

> <Gold.Chemscore.ZeroCoef>
-5.4800

> <Gold.Chemscore.Hbond>
1.6805

> <Gold.Chemscore.Metal>
0.0000

> <Gold.Chemscore.Lipo>
54.8577

> <Gold.Chemscore.Internal_Hbond>
0.0000

> <Gold.Chemscore.DEClash>
1.5353

> <Gold.Chemscore.DEInternal>
1.9489

> <Gold.Chemscore.Rot>
3.6362

> <Gold.Chemscore.Internal.Correction>
   9.000000E+99

> <Gold.Chemscore.Hbonds>
donor molecule, donor type, donor heavy atom, donor atom, acceptor molecule, acceptor atom, score
      P1  H  6896  6909       L1    19  0.23
      P1  H  7997  8009       L1     4  0.82

> <Gold.Chemscore.Hbond.Weighted>
-5.6127

> <Gold.Chemscore.Metal.Weighted>
-0.0000

> <Gold.Chemscore.Lipo.Weighted>
-6.4184

> <Gold.Chemscore.Internal_Hbond.Weighted>
0.0000

> <Gold.Chemscore.DEClash.Weighted>
1.5353

> <Gold.Chemscore.DEInternal.Weighted>
1.9489

> <Gold.Chemscore.Rot.Weighted>
9.3087

> <Gold.Chemscore.Internal.Correction.Weighted>
   9.000000E+99

> <Gold.Protein.RotatedTorsions>
[ 6907 6896 6895 6894 ] final  126.35 input  -60.11 | X-H torsion
[ 7974 7965 7964 7962 ] final -131.46 input  175.53 | X-H torsion
[ 8008 7997 7996 7995 ] final  163.17 input   59.86 | X-H torsion
[ 10167 10162 10161 10158 ] final   -0.20 input  -65.29 | X-H torsion
[ 10718 10713 10712 10709 ] final -153.37 input   66.30 | X-H torsion
[ 10763 10752 10751 10750 ] final  -83.48 input  -60.55 | X-H torsion
[ 11005 11000 10999 10996 ] final  -79.93 input  -57.11 | X-H torsion

> <Gold.Protein.ActiveResidues>
 VAL166  LYS551  ARG553  GLY616  TRP617  ASP618  TYR619  PRO620  LYS621  CYS622 
 ASP623  PHE694  ASN695  SER759  ASP760  ASP761  ALA762  ILE779  LEU786  VAL792 
 PHE793  MET794  SER795  GLU796  ALA797  LYS798  CYS799  TRP800  GLU811  SER814 

> <Gold.Protein.RotatedAtoms>
  152.3911  133.6680  159.6238 H   0  0  0  0  0  0  0  0  0  0  0  0  # atno 6907 bound_to 6896
  150.7819  133.8952  159.3334 H   0  0  0  0  0  0  0  0  0  0  0  0  # atno 6908 bound_to 6896
  151.6738  135.0973  160.0254 H   0  0  0  0  0  0  0  0  0  0  0  0  # atno 6909 bound_to 6896
  144.9377  140.7202  143.4866 H   0  0  0  0  0  0  0  0  0  0  0  0  # atno 7974 bound_to 7965
  156.1977  140.1730  156.7964 H   0  0  0  0  0  0  0  0  0  0  0  0  # atno 8008 bound_to 7997
  154.5551  140.0710  156.8761 H   0  0  0  0  0  0  0  0  0  0  0  0  # atno 8009 bound_to 7997
  155.2955  140.3358  155.4252 H   0  0  0  0  0  0  0  0  0  0  0  0  # atno 8010 bound_to 7997
  140.6757  143.6923  150.8018 H   0  0  0  0  0  0  0  0  0  0  0  0  # atno 10167 bound_to 10162
  156.4849  130.8320  151.2546 H   0  0  0  0  0  0  0  0  0  0  0  0  # atno 10718 bound_to 10713
  154.5882  135.5554  153.7252 H   0  0  0  0  0  0  0  0  0  0  0  0  # atno 10763 bound_to 10752
  153.0106  135.6336  154.1887 H   0  0  0  0  0  0  0  0  0  0  0  0  # atno 10764 bound_to 10752
  154.1827  135.2886  155.3027 H   0  0  0  0  0  0  0  0  0  0  0  0  # atno 10765 bound_to 10752
  141.1668  133.7127  156.8196 H   0  0  0  0  0  0  0  0  0  0  0  0  # atno 11005 bound_to 11000
  145.3041  139.1840  143.4674 LP  0  0  0  0  0  0  0  0  0  0  0  0  # atno 17320 bound_to 7965
  146.3273  140.3036  142.8622 LP  0  0  0  0  0  0  0  0  0  0  0  0  # atno 17321 bound_to 7965
  140.0615  143.5150  152.2625 LP  0  0  0  0  0  0  0  0  0  0  0  0  # atno 17342 bound_to 10162
  139.6048  144.7593  151.3087 LP  0  0  0  0  0  0  0  0  0  0  0  0  # atno 17343 bound_to 10162
  157.7479  131.0033  150.3031 LP  0  0  0  0  0  0  0  0  0  0  0  0  # atno 17370 bound_to 10713
  156.3484  130.3827  149.7349 LP  0  0  0  0  0  0  0  0  0  0  0  0  # atno 17371 bound_to 10713
  140.2128  134.8814  157.3293 LP  0  0  0  0  0  0  0  0  0  0  0  0  # atno 17394 bound_to 11000
  140.2068  134.4187  155.7633 LP  0  0  0  0  0  0  0  0  0  0  0  0  # atno 17395 bound_to 11000

$$$$
