AV-unprocessed.smi:3314|AV-procd|sdf|12735|dock3
  -GOLD-   2272019 83D 1   1.00000     0.00000
 Structure written by MMmdl.
 37 38  0  0  0  0  0  0  0  0  1 V2000
  151.7470  145.6384  160.1665 C   0  0  0  0  0  0  0  0  0  0  0  0
  152.0729  144.1804  159.9197 C   0  0  0  0  0  0  0  0  0  0  0  0
  152.8528  143.4489  160.8359 C   0  0  0  0  0  0  0  0  0  0  0  0
  153.1188  142.0956  160.5502 C   0  0  0  0  0  0  0  0  0  0  0  0
  153.9497  141.2487  161.4908 C   0  0  0  0  0  0  0  0  0  0  0  0
  152.6608  141.4722  159.4438 N   0  0  0  0  0  0  0  0  0  0  0  0
  151.9085  142.1663  158.5544 C   0  0  0  0  0  0  0  0  0  0  0  0
  151.3788  141.6035  157.3633 N   0  0  0  0  0  0  0  0  0  0  0  0
  151.8157  140.5284  156.6793 C   0  0  0  0  0  0  0  0  0  0  0  0
  152.7754  139.8339  157.0167 O   0  0  0  0  0  0  0  0  0  0  0  0
  151.0140  140.1722  155.4191 C   0  0  2  0  0  0  0  0  0  0  0  0
  149.7729  141.0725  155.2182 C   0  0  0  0  0  0  0  0  0  0  0  0
  148.9927  140.6703  154.0544 N   0  0  0  0  0  0  0  0  0  0  0  0
  147.8237  141.5177  153.8736 C   0  0  0  0  0  0  0  0  0  0  0  0
  148.6259  139.2656  154.1709 C   0  0  0  0  0  0  0  0  0  0  0  0
  149.8619  138.3723  154.3680 C   0  0  0  0  0  0  0  0  0  0  0  0
  150.5900  138.8111  155.5107 O   0  0  0  0  0  0  0  0  0  0  0  0
  151.5968  143.5286  158.7640 C   0  0  0  0  0  0  0  0  0  0  0  0
  152.1987  145.9951  161.0926 H   0  0  0  0  0  0  0  0  0  0  0  0
  150.6680  145.7767  160.2386 H   0  0  0  0  0  0  0  0  0  0  0  0
  152.1191  146.2533  159.3468 H   0  0  0  0  0  0  0  0  0  0  0  0
  153.2363  143.9122  161.7333 H   0  0  0  0  0  0  0  0  0  0  0  0
  154.3107  141.8342  162.3368 H   0  0  0  0  0  0  0  0  0  0  0  0
  154.8138  140.8376  160.9682 H   0  0  0  0  0  0  0  0  0  0  0  0
  153.3557  140.4204  161.8779 H   0  0  0  0  0  0  0  0  0  0  0  0
  150.5732  142.0754  156.9793 H   0  0  0  0  0  0  0  0  0  0  0  0
  151.6833  140.2768  154.5634 H   0  0  0  0  0  0  0  0  0  0  0  0
  149.1465  141.0367  156.1113 H   0  0  0  0  0  0  0  0  0  0  0  0
  150.0887  142.1102  155.1004 H   0  0  0  0  0  0  0  0  0  0  0  0
  147.2707  141.2282  152.9795 H   0  0  0  0  0  0  0  0  0  0  0  0
  148.1177  142.5615  153.7582 H   0  0  0  0  0  0  0  0  0  0  0  0
  147.1493  141.4476  154.7280 H   0  0  0  0  0  0  0  0  0  0  0  0
  147.9447  139.1292  155.0123 H   0  0  0  0  0  0  0  0  0  0  0  0
  148.0868  138.9482  153.2777 H   0  0  0  0  0  0  0  0  0  0  0  0
  149.5611  137.3348  154.5134 H   0  0  0  0  0  0  0  0  0  0  0  0
  150.5042  138.4003  153.4865 H   0  0  0  0  0  0  0  0  0  0  0  0
  150.9964  144.0704  158.0473 H   0  0  0  0  0  0  0  0  0  0  0  0
  1  2  1  0  0  0  0
  1 19  1  0  0  0  0
  1 20  1  0  0  0  0
  1 21  1  0  0  0  0
  2 18  1  0  0  0  0
  2  3  2  0  0  0  0
  3  4  1  0  0  0  0
  3 22  1  0  0  0  0
  4  5  1  0  0  0  0
  4  6  2  0  0  0  0
  5 23  1  0  0  0  0
  5 24  1  0  0  0  0
  5 25  1  0  0  0  0
  6  7  1  0  0  0  0
  7  8  1  0  0  0  0
  7 18  2  0  0  0  0
  8  9  1  0  0  0  0
  8 26  1  0  0  0  0
  9 10  2  0  0  0  0
  9 11  1  0  0  0  0
 11 17  1  0  0  0  0
 11 12  1  0  0  0  0
 11 27  1  0  0  0  0
 12 13  1  0  0  0  0
 12 28  1  0  0  0  0
 12 29  1  0  0  0  0
 13 14  1  0  0  0  0
 13 15  1  0  0  0  0
 14 30  1  0  0  0  0
 14 31  1  0  0  0  0
 14 32  1  0  0  0  0
 15 16  1  0  0  0  0
 15 33  1  0  0  0  0
 15 34  1  0  0  0  0
 16 17  1  0  0  0  0
 16 35  1  0  0  0  0
 16 36  1  0  0  0  0
 18 37  1  0  0  0  0
M  END
> <s_m_source_file>
AV-unprocessed.smi

> <i_m_source_file_index>
3314

> <i_lp_mmshare_version>
43012

> <i_f3d_flags>
0

> <s_epik_input>
W0NIM11jMVtjSF1jKFtDSDNdKW5jKFtjSF0xKVtOSF1DKD1PKVtDQEBIXTJbQ0gyXU4oW0NIM10pW0NIMl1bQ0gyXU8y

> <s_epik_cmdline>
J2VwaWtfcHl0aG9uJywgJy1waCcsICc3LjAnLCAnLXRuJywgJzgnLCAnLW1hJywgJzIwMCcsICctbWV0YWxfYmluZGluZycsICctaW1hZScsICc8aW5maWxlLm1hZT4nLCAnLW9tYWUnLCAnPG91dGZpbGUubWFlPic=

> <r_epik_Ionization_Penalty>
0.55509

> <r_epik_Ionization_Penalty_Charging>
0

> <r_epik_Ionization_Penalty_Neutral>
0.55509

> <r_epik_State_Penalty>
0.632277

> <r_epik_Charging_Adjusted_Penalty>
0.632277

> <i_epik_Tot_Q>
0

> <i_epik_Tot_abs_Q>
0

> <r_epik_Metal_State_Penalty>
0.606221

> <b_epik_Metal_Only>
0

> <s_lp_Force_Field>
OPLS_2005

> <r_lp_Energy>
21.0201

> <b_lp_Chiralities_Consistent>
1

> <s_lp_Variant>
AV-unprocessed.smi:3314-5

> <Gold.Version>
5.8.1

> <Gold.Id.Protein>
6NUR|6NUR_protein|mol2

> <Gold.PLP.Fitness>
42.3063

> <Gold.PLP.PLP>
-40.3095

> <Gold.PLP.part.hbond>
-1.0117

> <Gold.PLP.part.metal>
0.0000

> <Gold.PLP.part.buried>
-4.2504

> <Gold.PLP.part.nonpolar>
-34.5110

> <Gold.PLP.part.repulsive>
1.0516

> <Gold.PLP.ligand.clash>
0.6623

> <Gold.PLP.ligand.torsion>
0.1720

> <Gold.PLP.Chemscore.Hbond>
1.0000

> <Gold.PLP.Chemscore.CHOScore>
0.0000

> <Gold.PLP.Chemscore.Metal>
0.0000

> <Gold.Chemscore.Hbonds>
donor molecule, donor type, donor heavy atom, donor atom, acceptor molecule, acceptor atom, score
      P1  H  7997  8010       L1    10  1.00

> <Gold.PLP.Chemscore.Internal.Correction>
0.0030

> <Gold.Rescore>
     Score         DG    S(hbond)    S(metal)    S(lipo)     H(rot)  DE(clash)    DE(int)     intcor
     16.65     -17.97       1.00        0.00     100.15       1.00       0.01       1.32       ----

> <Gold.Chemscore.Fitness>
16.6475

> <Gold.Chemscore.DG>
-17.9725

> <Gold.Chemscore.ZeroCoef>
-5.4800

> <Gold.Chemscore.Hbond>
0.9985

> <Gold.Chemscore.Metal>
0.0000

> <Gold.Chemscore.Lipo>
100.1494

> <Gold.Chemscore.Internal_Hbond>
0.0000

> <Gold.Chemscore.DEClash>
0.0086

> <Gold.Chemscore.DEInternal>
1.3165

> <Gold.Chemscore.Rot>
1.0000

> <Gold.Chemscore.Internal.Correction>
   9.000000E+99

> <Gold.Chemscore.Hbonds>
donor molecule, donor type, donor heavy atom, donor atom, acceptor molecule, acceptor atom, score
      P1  H  7997  8010       L1    10  0.99

> <Gold.Chemscore.Hbond.Weighted>
-3.3350

> <Gold.Chemscore.Metal.Weighted>
-0.0000

> <Gold.Chemscore.Lipo.Weighted>
-11.7175

> <Gold.Chemscore.Internal_Hbond.Weighted>
0.0000

> <Gold.Chemscore.DEClash.Weighted>
0.0086

> <Gold.Chemscore.DEInternal.Weighted>
1.3165

> <Gold.Chemscore.Rot.Weighted>
2.5600

> <Gold.Chemscore.Internal.Correction.Weighted>
   9.000000E+99

> <Gold.Protein.RotatedTorsions>
[ 6907 6896 6895 6894 ] final   50.15 input  -60.11 | X-H torsion
[ 7974 7965 7964 7962 ] final  151.82 input  175.53 | X-H torsion
[ 8008 7997 7996 7995 ] final   69.48 input   59.86 | X-H torsion
[ 10167 10162 10161 10158 ] final  -44.67 input  -65.29 | X-H torsion
[ 10718 10713 10712 10709 ] final  -82.91 input   66.30 | X-H torsion
[ 10763 10752 10751 10750 ] final  -33.79 input  -60.55 | X-H torsion
[ 11005 11000 10999 10996 ] final    7.70 input  -57.11 | X-H torsion

> <Gold.Protein.ActiveResidues>
 VAL166  LYS551  ARG553  GLY616  TRP617  ASP618  TYR619  PRO620  LYS621  CYS622 
 ASP623  PHE694  ASN695  SER759  ASP760  ASP761  ALA762  ILE779  LEU786  VAL792 
 PHE793  MET794  SER795  GLU796  ALA797  LYS798  CYS799  TRP800  GLU811  SER814 

> <Gold.Protein.RotatedAtoms>
  152.2987  134.7637  160.0362 H   0  0  0  0  0  0  0  0  0  0  0  0  # atno 6907 bound_to 6896
  151.8158  133.3382  159.3577 H   0  0  0  0  0  0  0  0  0  0  0  0  # atno 6908 bound_to 6896
  150.7263  134.5550  159.5858 H   0  0  0  0  0  0  0  0  0  0  0  0  # atno 6909 bound_to 6896
  144.8265  139.6588  143.6077 H   0  0  0  0  0  0  0  0  0  0  0  0  # atno 7974 bound_to 7965
  155.7242  140.3493  155.5030 H   0  0  0  0  0  0  0  0  0  0  0  0  # atno 8008 bound_to 7997
  155.9242  140.1072  157.1205 H   0  0  0  0  0  0  0  0  0  0  0  0  # atno 8009 bound_to 7997
  154.4074  140.1243  156.4705 H   0  0  0  0  0  0  0  0  0  0  0  0  # atno 8010 bound_to 7997
  140.6888  143.2918  151.3529 H   0  0  0  0  0  0  0  0  0  0  0  0  # atno 10167 bound_to 10162
  156.0026  130.4649  150.4177 H   0  0  0  0  0  0  0  0  0  0  0  0  # atno 10718 bound_to 10713
  153.8360  135.6862  153.4808 H   0  0  0  0  0  0  0  0  0  0  0  0  # atno 10763 bound_to 10752
  153.1482  135.4629  154.9596 H   0  0  0  0  0  0  0  0  0  0  0  0  # atno 10764 bound_to 10752
  154.7866  135.3287  154.7818 H   0  0  0  0  0  0  0  0  0  0  0  0  # atno 10765 bound_to 10752
  140.5453  134.0335  155.7918 H   0  0  0  0  0  0  0  0  0  0  0  0  # atno 11005 bound_to 11000
  146.2570  139.6324  142.9388 LP  0  0  0  0  0  0  0  0  0  0  0  0  # atno 17320 bound_to 7965
  145.4989  141.0438  143.2551 LP  0  0  0  0  0  0  0  0  0  0  0  0  # atno 17321 bound_to 7965
  139.6270  144.0794  152.2443 LP  0  0  0  0  0  0  0  0  0  0  0  0  # atno 17342 bound_to 10162
  140.0257  144.6119  150.7530 LP  0  0  0  0  0  0  0  0  0  0  0  0  # atno 17343 bound_to 10162
  157.2235  131.0488  151.2533 LP  0  0  0  0  0  0  0  0  0  0  0  0  # atno 17370 bound_to 10713
  157.3778  130.7215  149.6609 LP  0  0  0  0  0  0  0  0  0  0  0  0  # atno 17371 bound_to 10713
  141.1203  133.9472  157.2742 LP  0  0  0  0  0  0  0  0  0  0  0  0  # atno 17394 bound_to 11000
  139.9483  135.0180  156.8918 LP  0  0  0  0  0  0  0  0  0  0  0  0  # atno 17395 bound_to 11000

$$$$
