AV-unprocessed.smi:2093|AV-procd|sdf|8549|dock7
  -GOLD-   2272011273D 1   1.00000     0.00000
 Structure written by MMmdl.
 30 31  0  0  0  0  0  0  0  0  2 V2000
  152.4843  144.8150  158.5007 C   0  0  0  0  0  0  0  0  0  0  0  0
  151.5157  143.6396  158.6989 C   0  0  1  0  0  0  0  0  0  0  0  0
  151.3617  142.9409  157.4229 N   0  0  0  0  0  0  0  0  0  0  0  0
  150.6526  141.8248  157.1976 C   0  0  0  0  0  0  0  0  0  0  0  0
  150.0443  141.2803  158.1218 O   0  0  0  0  0  0  0  0  0  0  0  0
  150.6995  141.4034  155.9131 N   0  5  0  0  0  0  0  0  0  0  0  0
  150.5090  140.1057  155.6246 C   0  0  0  0  0  0  0  0  0  0  0  0
  150.8043  139.5709  154.4340 N   0  0  0  0  0  0  0  0  0  0  0  0
  150.5294  138.2045  154.3557 C   0  0  0  0  0  0  0  0  0  0  0  0
  150.0231  137.6842  155.5171 C   0  0  0  0  0  0  0  0  0  0  0  0
  149.8744  138.9029  156.7511 S   0  0  0  0  0  0  0  0  0  0  0  0
  152.0121  142.6698  159.7918 C   0  0  2  0  0  0  0  0  0  0  0  0
  152.2626  143.3025  161.1600 C   0  0  0  0  0  0  0  0  0  0  0  0
  153.1706  142.2865  161.8206 C   0  0  0  0  0  0  0  0  0  0  0  0
  153.9313  141.6735  160.6423 C   0  0  0  0  0  0  0  0  0  0  0  0
  153.2933  142.1504  159.4608 O   0  0  0  0  0  0  0  0  0  0  0  0
  152.6009  145.3898  159.4197 H   0  0  0  0  0  0  0  0  0  0  0  0
  152.1201  145.4978  157.7325 H   0  0  0  0  0  0  0  0  0  0  0  0
  153.4727  144.4684  158.1970 H   0  0  0  0  0  0  0  0  0  0  0  0
  150.5568  144.0566  159.0109 H   0  0  0  0  0  0  0  0  0  0  0  0
  151.8403  143.3426  156.6302 H   0  0  0  0  0  0  0  0  0  0  0  0
  150.7266  137.6804  153.4325 H   0  0  0  0  0  0  0  0  0  0  0  0
  149.7308  136.6656  155.7219 H   0  0  0  0  0  0  0  0  0  0  0  0
  151.3178  141.8341  159.8992 H   0  0  0  0  0  0  0  0  0  0  0  0
  152.7872  144.2525  161.0488 H   0  0  0  0  0  0  0  0  0  0  0  0
  151.3465  143.4823  161.7235 H   0  0  0  0  0  0  0  0  0  0  0  0
  153.8308  142.7356  162.5634 H   0  0  0  0  0  0  0  0  0  0  0  0
  152.5733  141.5210  162.3174 H   0  0  0  0  0  0  0  0  0  0  0  0
  154.9783  141.9780  160.6355 H   0  0  0  0  0  0  0  0  0  0  0  0
  153.8957  140.5844  160.6781 H   0  0  0  0  0  0  0  0  0  0  0  0
  1  2  1  0  0  0  0
  1 17  1  0  0  0  0
  1 18  1  0  0  0  0
  1 19  1  0  0  0  0
  2  3  1  0  0  0  0
  2 12  1  0  0  0  0
  2 20  1  0  0  0  0
  3  4  1  0  0  0  0
  3 21  1  0  0  0  0
  4  5  2  0  0  0  0
  4  6  1  0  0  0  0
  6  7  1  0  0  0  0
  7 11  1  0  0  0  0
  7  8  2  0  0  0  0
  8  9  1  0  0  0  0
  9 10  2  0  0  0  0
  9 22  1  0  0  0  0
 10 11  1  0  0  0  0
 10 23  1  0  0  0  0
 12 16  1  0  0  0  0
 12 13  1  0  0  0  0
 12 24  1  0  0  0  0
 13 14  1  0  0  0  0
 13 25  1  0  0  0  0
 13 26  1  0  0  0  0
 14 15  1  0  0  0  0
 14 27  1  0  0  0  0
 14 28  1  0  0  0  0
 15 16  1  0  0  0  0
 15 29  1  0  0  0  0
 15 30  1  0  0  0  0
M  CHG  1   6  -1
M  END
> <s_m_source_file>
AV-unprocessed.smi

> <i_m_source_file_index>
2093

> <i_lp_mmshare_version>
43012

> <i_f3d_flags>
0

> <s_epik_input>
TzFbQ0gyXVtDSDJdW0NIMl1bQ0BIXTFbQ0BIXShbQ0gzXSlbTkhdQyg9TylbTkhdYzJuW2NIXVtjSF1zMg==

> <s_epik_cmdline>
J2VwaWtfcHl0aG9uJywgJy1waCcsICc3LjAnLCAnLXRuJywgJzgnLCAnLW1hJywgJzIwMCcsICctbWV0YWxfYmluZGluZycsICctaW1hZScsICc8aW5maWxlLm1hZT4nLCAnLW9tYWUnLCAnPG91dGZpbGUubWFlPic=

> <r_lp_tautomer_probability>
0.999

> <r_epik_Ionization_Penalty>
8.26346

> <r_epik_Ionization_Penalty_Charging>
6.6559

> <r_epik_Ionization_Penalty_Neutral>
1.60756

> <r_epik_State_Penalty>
6.65607

> <r_epik_Charging_Adjusted_Penalty>
13.312

> <i_epik_Tot_Q>
-1

> <i_epik_Tot_abs_Q>
1

> <r_epik_Metal_State_Penalty>
2.5789

> <b_epik_Metal_Only>
1

> <s_lp_Force_Field>
OPLS_2005

> <r_lp_Energy>
13.6903

> <b_lp_Chiralities_Consistent>
1

> <s_lp_Variant>
AV-unprocessed.smi:2093-6

> <Gold.Version>
5.8.1

> <Gold.Id.Protein>
6NUR|6NUR_protein|mol2

> <Gold.PLP.Fitness>
40.7895

> <Gold.PLP.PLP>
-35.0583

> <Gold.PLP.part.hbond>
-1.2628

> <Gold.PLP.part.metal>
0.0000

> <Gold.PLP.part.buried>
-4.7491

> <Gold.PLP.part.nonpolar>
-29.2434

> <Gold.PLP.part.repulsive>
0.2422

> <Gold.PLP.ligand.clash>
0.0162

> <Gold.PLP.ligand.torsion>
0.2130

> <Gold.PLP.Chemscore.Hbond>
1.0000

> <Gold.PLP.Chemscore.CHOScore>
1.0487

> <Gold.PLP.Chemscore.Metal>
0.0000

> <Gold.Chemscore.Hbonds>
donor molecule, donor type, donor heavy atom, donor atom, acceptor molecule, acceptor atom, score
      P1  H  7989  7998       L1     8  1.00
      L1  C     9    22       P1  7948  0.28
      L1  C     9    22       P1  7949  0.63

> <Gold.PLP.Chemscore.Internal.Correction>
0.0274

> <Gold.Rescore>
     Score         DG    S(hbond)    S(metal)    S(lipo)     H(rot)  DE(clash)    DE(int)     intcor
     13.73     -15.48       0.97        0.00      85.70       1.28       0.05       1.69       ----

> <Gold.Chemscore.Fitness>
13.7337

> <Gold.Chemscore.DG>
-15.4779

> <Gold.Chemscore.ZeroCoef>
-5.4800

> <Gold.Chemscore.Hbond>
0.9706

> <Gold.Chemscore.Metal>
0.0000

> <Gold.Chemscore.Lipo>
85.7035

> <Gold.Chemscore.Internal_Hbond>
0.0000

> <Gold.Chemscore.DEClash>
0.0515

> <Gold.Chemscore.DEInternal>
1.6927

> <Gold.Chemscore.Rot>
1.2778

> <Gold.Chemscore.Internal.Correction>
   9.000000E+99

> <Gold.Chemscore.Hbonds>
donor molecule, donor type, donor heavy atom, donor atom, acceptor molecule, acceptor atom, score
      P1  H  7989  7998       L1     8  0.60

> <Gold.Chemscore.Hbond.Weighted>
-3.2417

> <Gold.Chemscore.Metal.Weighted>
-0.0000

> <Gold.Chemscore.Lipo.Weighted>
-10.0273

> <Gold.Chemscore.Internal_Hbond.Weighted>
0.0000

> <Gold.Chemscore.DEClash.Weighted>
0.0515

> <Gold.Chemscore.DEInternal.Weighted>
1.6927

> <Gold.Chemscore.Rot.Weighted>
3.2711

> <Gold.Chemscore.Internal.Correction.Weighted>
   9.000000E+99

> <Gold.Protein.RotatedTorsions>
[ 6907 6896 6895 6894 ] final  -77.38 input  -60.11 | X-H torsion
[ 7974 7965 7964 7962 ] final -154.70 input  175.53 | X-H torsion
[ 8008 7997 7996 7995 ] final -107.53 input   59.86 | X-H torsion
[ 10167 10162 10161 10158 ] final  131.74 input  -65.29 | X-H torsion
[ 10718 10713 10712 10709 ] final  127.38 input   66.30 | X-H torsion
[ 10763 10752 10751 10750 ] final -168.45 input  -60.55 | X-H torsion
[ 11005 11000 10999 10996 ] final   76.25 input  -57.11 | X-H torsion

> <Gold.Protein.ActiveResidues>
 VAL166  LYS551  ARG553  GLY616  TRP617  ASP618  TYR619  PRO620  LYS621  CYS622 
 ASP623  PHE694  ASN695  SER759  ASP760  ASP761  ALA762  ILE779  LEU786  VAL792 
 PHE793  MET794  SER795  GLU796  ALA797  LYS798  CYS799  TRP800  GLU811  SER814 

> <Gold.Protein.RotatedAtoms>
  150.7000  134.4431  159.5301 H   0  0  0  0  0  0  0  0  0  0  0  0  # atno 6907 bound_to 6896
  152.2137  134.8475  160.0503 H   0  0  0  0  0  0  0  0  0  0  0  0  # atno 6908 bound_to 6896
  151.9350  133.3587  159.3981 H   0  0  0  0  0  0  0  0  0  0  0  0  # atno 6909 bound_to 6896
  144.7676  140.4352  143.5930 H   0  0  0  0  0  0  0  0  0  0  0  0  # atno 7974 bound_to 7965
  154.9307  140.0405  157.2046 H   0  0  0  0  0  0  0  0  0  0  0  0  # atno 8008 bound_to 7997
  154.8164  140.2876  155.5796 H   0  0  0  0  0  0  0  0  0  0  0  0  # atno 8009 bound_to 7997
  156.2976  140.2527  156.3062 H   0  0  0  0  0  0  0  0  0  0  0  0  # atno 8010 bound_to 7997
  139.5370  144.6693  151.4751 H   0  0  0  0  0  0  0  0  0  0  0  0  # atno 10167 bound_to 10162
  157.5338  131.1098  150.8968 H   0  0  0  0  0  0  0  0  0  0  0  0  # atno 10718 bound_to 10713
  154.6627  135.2927  154.9845 H   0  0  0  0  0  0  0  0  0  0  0  0  # atno 10763 bound_to 10752
  154.0899  135.6592  153.4855 H   0  0  0  0  0  0  0  0  0  0  0  0  # atno 10764 bound_to 10752
  153.0439  135.5217  154.7586 H   0  0  0  0  0  0  0  0  0  0  0  0  # atno 10765 bound_to 10752
  139.9306  134.7585  156.1372 H   0  0  0  0  0  0  0  0  0  0  0  0  # atno 11005 bound_to 11000
  145.6421  139.1551  143.2910 LP  0  0  0  0  0  0  0  0  0  0  0  0  # atno 17320 bound_to 7965
  146.1797  140.6517  142.9195 LP  0  0  0  0  0  0  0  0  0  0  0  0  # atno 17321 bound_to 7965
  140.6582  143.8555  150.6858 LP  0  0  0  0  0  0  0  0  0  0  0  0  # atno 17342 bound_to 10162
  140.1941  143.4012  152.1841 LP  0  0  0  0  0  0  0  0  0  0  0  0  # atno 17343 bound_to 10162
  156.9541  130.5431  149.5283 LP  0  0  0  0  0  0  0  0  0  0  0  0  # atno 17370 bound_to 10713
  156.0442  130.5521  150.8843 LP  0  0  0  0  0  0  0  0  0  0  0  0  # atno 17371 bound_to 10713
  141.0893  133.6721  156.2505 LP  0  0  0  0  0  0  0  0  0  0  0  0  # atno 17394 bound_to 11000
  140.6211  134.5360  157.5547 LP  0  0  0  0  0  0  0  0  0  0  0  0  # atno 17395 bound_to 11000

$$$$
