AV-unprocessed.smi:101|AV-procd|sdf|914|dock1
  -GOLD-   2262017413D 1   1.00000     0.00000
 Structure written by MMmdl.
 44 46  0  0  0  0  0  0  0  0  1 V2000
  150.1566  136.5733  159.4994 C   0  0  0  0  0  0  0  0  0  0  0  0
  149.3798  136.5093  158.1942 C   0  0  0  0  0  0  0  0  0  0  0  0
  148.8893  137.6193  157.5865 C   0  0  0  0  0  0  0  0  0  0  0  0
  148.1812  137.5996  156.3911 N   0  0  0  0  0  0  0  0  0  0  0  0
  147.6425  138.8598  155.7342 C   0  0  1  0  0  0  0  0  0  0  0  0
  148.0307  139.9888  156.4726 O   0  0  0  0  0  0  0  0  0  0  0  0
  148.9030  140.8341  155.7216 C   0  0  1  0  0  0  0  0  0  0  0  0
  150.3735  140.4723  156.0102 C   0  0  0  0  0  0  0  0  0  0  0  0
  150.9405  141.4593  156.8572 O   0  0  0  0  0  0  0  0  0  0  0  0
  151.8802  141.1152  157.7615 C   0  0  0  0  0  0  0  0  0  0  0  0
  152.5838  140.1074  157.6664 O   0  0  0  0  0  0  0  0  0  0  0  0
  151.9643  142.0701  158.9035 C   0  0  0  0  0  0  0  0  0  0  0  0
  152.5472  141.6441  160.1197 C   0  0  0  0  0  0  0  0  0  0  0  0
  152.6327  142.5198  161.2193 C   0  0  0  0  0  0  0  0  0  0  0  0
  152.1362  143.8321  161.1160 C   0  0  0  0  0  0  0  0  0  0  0  0
  151.5533  144.2677  159.9118 C   0  0  0  0  0  0  0  0  0  0  0  0
  151.4665  143.3933  158.8108 C   0  0  0  0  0  0  0  0  0  0  0  0
  148.4457  140.5662  154.2864 C   0  0  1  0  0  0  0  0  0  0  0  0
  149.3543  140.9816  153.2826 O   0  0  0  0  0  0  0  0  0  0  0  0
  148.1395  139.0742  154.2806 C   0  0  1  0  0  0  0  0  0  0  0  0
  149.2808  138.3030  153.9365 O   0  0  0  0  0  0  0  0  0  0  0  0
  147.8918  136.3575  155.7886 C   0  0  0  0  0  0  0  0  0  0  0  0
  147.2289  136.2589  154.7565 O   0  0  0  0  0  0  0  0  0  0  0  0
  148.3957  135.2160  156.4094 N   0  0  0  0  0  0  0  0  0  0  0  0
  149.1454  135.1960  157.5879 C   0  0  0  0  0  0  0  0  0  0  0  0
  149.5436  134.1224  158.0366 O   0  0  0  0  0  0  0  0  0  0  0  0
  148.2007  134.3275  155.9714 H   0  0  0  0  0  0  0  0  0  0  0  0
  150.2827  137.5990  159.8477 H   0  0  0  0  0  0  0  0  0  0  0  0
  151.1501  136.1419  159.3730 H   0  0  0  0  0  0  0  0  0  0  0  0
  149.6370  136.0169  160.2800 H   0  0  0  0  0  0  0  0  0  0  0  0
  149.0613  138.5595  158.0823 H   0  0  0  0  0  0  0  0  0  0  0  0
  146.5566  138.7729  155.8054 H   0  0  0  0  0  0  0  0  0  0  0  0
  148.7300  141.8777  155.9867 H   0  0  0  0  0  0  0  0  0  0  0  0
  150.4436  139.4856  156.4679 H   0  0  0  0  0  0  0  0  0  0  0  0
  150.9484  140.4419  155.0845 H   0  0  0  0  0  0  0  0  0  0  0  0
  152.9336  140.6402  160.2232 H   0  0  0  0  0  0  0  0  0  0  0  0
  153.0797  142.1830  162.1430 H   0  0  0  0  0  0  0  0  0  0  0  0
  152.2020  144.5036  161.9594 H   0  0  0  0  0  0  0  0  0  0  0  0
  151.1714  145.2748  159.8320 H   0  0  0  0  0  0  0  0  0  0  0  0
  151.0115  143.7589  157.9019 H   0  0  0  0  0  0  0  0  0  0  0  0
  147.5105  141.1049  154.1253 H   0  0  0  0  0  0  0  0  0  0  0  0
  149.3518  140.3393  152.5891 H   0  0  0  0  0  0  0  0  0  0  0  0
  147.3400  138.8329  153.5792 H   0  0  0  0  0  0  0  0  0  0  0  0
  149.0287  137.6823  153.2699 H   0  0  0  0  0  0  0  0  0  0  0  0
  1  2  1  0  0  0  0
  1 28  1  0  0  0  0
  1 29  1  0  0  0  0
  1 30  1  0  0  0  0
  2 25  1  0  0  0  0
  2  3  2  0  0  0  0
  3  4  1  0  0  0  0
  3 31  1  0  0  0  0
  4  5  1  0  0  0  0
  4 22  1  0  0  0  0
  5 20  1  0  0  0  0
  5  6  1  0  0  0  0
  5 32  1  0  0  0  0
  6  7  1  0  0  0  0
  7  8  1  0  0  0  0
  7 18  1  0  0  0  0
  7 33  1  0  0  0  0
  8  9  1  0  0  0  0
  8 34  1  0  0  0  0
  8 35  1  0  0  0  0
  9 10  1  0  0  0  0
 10 11  2  0  0  0  0
 10 12  1  0  0  0  0
 12 17  1  0  0  0  0
 12 13  2  0  0  0  0
 13 14  1  0  0  0  0
 13 36  1  0  0  0  0
 14 15  2  0  0  0  0
 14 37  1  0  0  0  0
 15 16  1  0  0  0  0
 15 38  1  0  0  0  0
 16 17  2  0  0  0  0
 16 39  1  0  0  0  0
 17 40  1  0  0  0  0
 18 19  1  0  0  0  0
 18 20  1  0  0  0  0
 18 41  1  0  0  0  0
 19 42  1  0  0  0  0
 20 21  1  0  0  0  0
 20 43  1  0  0  0  0
 21 44  1  0  0  0  0
 22 23  2  0  0  0  0
 22 24  1  0  0  0  0
 24 27  1  0  0  0  0
 24 25  1  0  0  0  0
 25 26  2  0  0  0  0
M  END
> <s_m_source_file>
AV-unprocessed.smi

> <i_m_source_file_index>
101

> <i_lp_mmshare_version>
43012

> <i_f3d_flags>
0

> <s_epik_input>
Tz1jMVtuSF1jKD1PKW4oW2NIXWMxW0NIM10pW0NAQEhdMk9bQ0BIXShbQ0BASF0oW09IXSlbQ0BIXTJbT0hdKVtDSDJdT0MoPU8pYzNbY0hdW2NIXVtjSF1bY0hdW2NIXTM=

> <s_epik_cmdline>
J2VwaWtfcHl0aG9uJywgJy1waCcsICc3LjAnLCAnLXRuJywgJzgnLCAnLW1hJywgJzIwMCcsICctbWV0YWxfYmluZGluZycsICctaW1hZScsICc8aW5maWxlLm1hZT4nLCAnLW9tYWUnLCAnPG91dGZpbGUubWFlPic=

> <r_lp_tautomer_probability>
0.999537

> <r_epik_Ionization_Penalty>
0.00263537

> <r_epik_Ionization_Penalty_Charging>
0.00263428

> <r_epik_Ionization_Penalty_Neutral>
1.09111e-06

> <r_epik_State_Penalty>
0.00183335

> <r_epik_Charging_Adjusted_Penalty>
0.00446763

> <i_epik_Tot_Q>
0

> <i_epik_Tot_abs_Q>
0

> <r_epik_Metal_State_Penalty>
1.00528

> <b_epik_Metal_Only>
0

> <s_epik_Chemistry_Notes>
This compound has an ester and may undergo hydrolysis at high or low pH. This compound contains an acetal/aminal-like group ( X-CH(R)-Y where X, Y are N, S, or O) that may be acid/base labile, releasing an aldehyde.

> <s_lp_Force_Field>
OPLS_2005

> <r_lp_Energy>
43.2991

> <b_lp_Chiralities_Consistent>
1

> <s_lp_Variant>
AV-unprocessed.smi:101-2

> <Gold.Version>
5.8.1

> <Gold.Id.Protein>
6NUR|6NUR_protein|mol2

> <Gold.PLP.Fitness>
50.5759

> <Gold.PLP.PLP>
-39.3710

> <Gold.PLP.part.hbond>
-5.5316

> <Gold.PLP.part.metal>
0.0000

> <Gold.PLP.part.buried>
-5.0699

> <Gold.PLP.part.nonpolar>
-29.7446

> <Gold.PLP.part.repulsive>
0.1562

> <Gold.PLP.ligand.clash>
0.0000

> <Gold.PLP.ligand.torsion>
1.3323

> <Gold.PLP.Chemscore.Hbond>
4.5607

> <Gold.PLP.Chemscore.CHOScore>
0.0000

> <Gold.PLP.Chemscore.Metal>
0.0000

> <Gold.Chemscore.Hbonds>
donor molecule, donor type, donor heavy atom, donor atom, acceptor molecule, acceptor atom, score
      L1  H    19    42       P1  7957  0.83
      L1  H    21    44       P1  7948  1.00
      P1  H  6896  6907       L1    26  1.00
      P1  H  7989  7998       L1    19  0.05
      P1  H  7997  8009       L1    11  0.98
      P1  H  8011  8017       L1    19  0.95

> <Gold.PLP.Chemscore.Internal.Correction>
0.1873

> <Gold.Rescore>
     Score         DG    S(hbond)    S(metal)    S(lipo)     H(rot)  DE(clash)    DE(int)     intcor
     21.10     -22.42       4.17        0.00      98.28       3.32       0.12       1.20       ----

> <Gold.Chemscore.Fitness>
21.1007

> <Gold.Chemscore.DG>
-22.4181

> <Gold.Chemscore.ZeroCoef>
-5.4800

> <Gold.Chemscore.Hbond>
4.1712

> <Gold.Chemscore.Metal>
0.0000

> <Gold.Chemscore.Lipo>
98.2757

> <Gold.Chemscore.Internal_Hbond>
0.0000

> <Gold.Chemscore.DEClash>
0.1155

> <Gold.Chemscore.DEInternal>
1.2019

> <Gold.Chemscore.Rot>
3.3172

> <Gold.Chemscore.Internal.Correction>
   9.000000E+99

> <Gold.Chemscore.Hbonds>
donor molecule, donor type, donor heavy atom, donor atom, acceptor molecule, acceptor atom, score
      L1  H    19    42       P1  7957  0.78
      L1  H    21    44       P1  7948  0.96
      P1  H  6896  6907       L1    26  0.99
      P1  H  7997  8009       L1    11  0.88
      P1  H  8011  8017       L1    19  0.21

> <Gold.Chemscore.Hbond.Weighted>
-13.9319

> <Gold.Chemscore.Metal.Weighted>
-0.0000

> <Gold.Chemscore.Lipo.Weighted>
-11.4983

> <Gold.Chemscore.Internal_Hbond.Weighted>
0.0000

> <Gold.Chemscore.DEClash.Weighted>
0.1155

> <Gold.Chemscore.DEInternal.Weighted>
1.2019

> <Gold.Chemscore.Rot.Weighted>
8.4920

> <Gold.Chemscore.Internal.Correction.Weighted>
   9.000000E+99

> <Gold.Protein.RotatedTorsions>
[ 6907 6896 6895 6894 ] final -114.16 input  -60.11 | X-H torsion
[ 7974 7965 7964 7962 ] final  -12.79 input  175.53 | X-H torsion
[ 8008 7997 7996 7995 ] final  169.98 input   59.86 | X-H torsion
[ 10167 10162 10161 10158 ] final    5.12 input  -65.29 | X-H torsion
[ 10718 10713 10712 10709 ] final  -70.62 input   66.30 | X-H torsion
[ 10763 10752 10751 10750 ] final   69.50 input  -60.55 | X-H torsion
[ 11005 11000 10999 10996 ] final   95.66 input  -57.11 | X-H torsion

> <Gold.Protein.ActiveResidues>
 VAL166  LYS551  ARG553  GLY616  TRP617  ASP618  TYR619  PRO620  LYS621  CYS622 
 ASP623  PHE694  ASN695  SER759  ASP760  ASP761  ALA762  ILE779  LEU786  VAL792 
 PHE793  MET794  SER795  GLU796  ALA797  LYS798  CYS799  TRP800  GLU811  SER814 

> <Gold.Protein.RotatedAtoms>
  150.7882  133.8841  159.3294 H   0  0  0  0  0  0  0  0  0  0  0  0  # atno 6907 bound_to 6896
  151.6686  135.0977  160.0203 H   0  0  0  0  0  0  0  0  0  0  0  0  # atno 6908 bound_to 6896
  152.3950  133.6695  159.6304 H   0  0  0  0  0  0  0  0  0  0  0  0  # atno 6909 bound_to 6896
  146.2138  140.3110  142.8382 H   0  0  0  0  0  0  0  0  0  0  0  0  # atno 7974 bound_to 7965
  156.1408  140.1550  156.8924 H   0  0  0  0  0  0  0  0  0  0  0  0  # atno 8008 bound_to 7997
  154.4985  140.0831  156.7787 H   0  0  0  0  0  0  0  0  0  0  0  0  # atno 8009 bound_to 7997
  155.4083  140.3417  155.4264 H   0  0  0  0  0  0  0  0  0  0  0  0  # atno 8010 bound_to 7997
  140.6499  143.7571  150.7558 H   0  0  0  0  0  0  0  0  0  0  0  0  # atno 10167 bound_to 10162
  156.0399  130.4335  150.2322 H   0  0  0  0  0  0  0  0  0  0  0  0  # atno 10718 bound_to 10713
  153.0291  135.5208  154.7298 H   0  0  0  0  0  0  0  0  0  0  0  0  # atno 10763 bound_to 10752
  154.6329  135.2902  155.0197 H   0  0  0  0  0  0  0  0  0  0  0  0  # atno 10764 bound_to 10752
  154.1143  135.6617  153.4943 H   0  0  0  0  0  0  0  0  0  0  0  0  # atno 10765 bound_to 10752
  139.8787  134.8910  156.4044 H   0  0  0  0  0  0  0  0  0  0  0  0  # atno 11005 bound_to 11000
  144.8988  140.7617  143.5880 LP  0  0  0  0  0  0  0  0  0  0  0  0  # atno 17320 bound_to 7965
  145.3035  139.1842  143.4677 LP  0  0  0  0  0  0  0  0  0  0  0  0  # atno 17321 bound_to 7965
  140.1220  143.4604  152.2307 LP  0  0  0  0  0  0  0  0  0  0  0  0  # atno 17342 bound_to 10162
  139.5713  144.7464  151.3884 LP  0  0  0  0  0  0  0  0  0  0  0  0  # atno 17343 bound_to 10162
  157.0418  131.0037  151.3281 LP  0  0  0  0  0  0  0  0  0  0  0  0  # atno 17370 bound_to 10713
  157.5204  130.7994  149.7802 LP  0  0  0  0  0  0  0  0  0  0  0  0  # atno 17371 bound_to 10713
  140.9244  133.7622  155.9947 LP  0  0  0  0  0  0  0  0  0  0  0  0  # atno 17394 bound_to 11000
  140.8402  134.3075  157.5316 LP  0  0  0  0  0  0  0  0  0  0  0  0  # atno 17395 bound_to 11000

$$$$
