AV-unprocessed.smi:2454|AV-procd|sdf|9697|dock4
  -GOLD-   2272013333D 1   1.00000     0.00000
 Structure written by MMmdl.
 42 43  0  0  0  0  0  0  0  0  1 V2000
  146.9890  136.8208  162.6313 C   0  0  0  0  0  0  0  0  0  0  0  0
  147.4677  137.1824  161.3478 O   0  0  0  0  0  0  0  0  0  0  0  0
  146.7617  136.5349  160.3030 C   0  0  0  0  0  0  0  0  0  0  0  0
  147.4775  136.6870  158.9768 C   0  0  0  0  0  0  0  0  0  0  0  0
  148.6567  137.4534  158.8642 C   0  0  0  0  0  0  0  0  0  0  0  0
  149.2611  137.5323  157.5890 C   0  0  0  0  0  0  0  0  0  0  0  0
  150.4485  138.3197  157.5294 N   0  0  0  0  0  0  0  0  0  0  0  0
  150.8648  139.3676  158.2727 C   0  0  0  0  0  0  0  0  0  0  0  0
  150.1756  139.8052  159.1927 O   0  0  0  0  0  0  0  0  0  0  0  0
  152.0583  139.8907  157.9471 N   0  0  0  0  0  0  0  0  0  0  0  0
  152.7086  141.0143  158.6132 C   0  0  2  0  0  0  0  0  0  0  0  0
  153.0672  140.6501  160.0673 C   0  0  0  0  0  0  0  0  0  0  0  0
  153.6766  141.8501  160.8073 C   0  0  0  0  0  0  0  0  0  0  0  0
  152.7440  143.0705  160.7559 C   0  0  0  0  0  0  0  0  0  0  0  0
  152.3883  143.4540  159.3039 C   0  0  2  0  0  0  0  0  0  0  0  0
  151.4678  144.6902  159.2408 C   0  0  0  0  0  0  0  0  0  0  0  0
  150.2529  144.4028  159.7093 F   0  0  0  0  0  0  0  0  0  0  0  0
  151.9857  145.6816  159.9659 F   0  0  0  0  0  0  0  0  0  0  0  0
  151.3553  145.1127  157.9814 F   0  0  0  0  0  0  0  0  0  0  0  0
  151.7781  142.2407  158.5703 C   0  0  0  0  0  0  0  0  0  0  0  0
  148.6988  136.8812  156.5384 N   0  0  0  0  0  0  0  0  0  0  0  0
  147.5823  136.1817  156.7549 C   0  0  0  0  0  0  0  0  0  0  0  0
  146.9402  136.0487  157.9155 N   0  0  0  0  0  0  0  0  0  0  0  0
  147.5622  137.3438  163.3966 H   0  0  0  0  0  0  0  0  0  0  0  0
  147.0952  135.7489  162.8047 H   0  0  0  0  0  0  0  0  0  0  0  0
  145.9396  137.0928  162.7516 H   0  0  0  0  0  0  0  0  0  0  0  0
  146.6469  135.4736  160.5308 H   0  0  0  0  0  0  0  0  0  0  0  0
  145.7580  136.9541  160.2163 H   0  0  0  0  0  0  0  0  0  0  0  0
  149.0784  137.9559  159.7228 H   0  0  0  0  0  0  0  0  0  0  0  0
  151.0937  138.0432  156.8038 H   0  0  0  0  0  0  0  0  0  0  0  0
  152.5570  139.4689  157.1758 H   0  0  0  0  0  0  0  0  0  0  0  0
  153.6246  141.2644  158.0743 H   0  0  0  0  0  0  0  0  0  0  0  0
  152.1739  140.3147  160.5962 H   0  0  0  0  0  0  0  0  0  0  0  0
  153.7689  139.8155  160.0863 H   0  0  0  0  0  0  0  0  0  0  0  0
  153.8800  141.5817  161.8443 H   0  0  0  0  0  0  0  0  0  0  0  0
  154.6379  142.1056  160.3598 H   0  0  0  0  0  0  0  0  0  0  0  0
  151.8332  142.8535  161.3155 H   0  0  0  0  0  0  0  0  0  0  0  0
  153.2220  143.9109  161.2600 H   0  0  0  0  0  0  0  0  0  0  0  0
  153.3169  143.7145  158.7940 H   0  0  0  0  0  0  0  0  0  0  0  0
  151.5709  142.5022  157.5319 H   0  0  0  0  0  0  0  0  0  0  0  0
  150.8169  141.9873  159.0204 H   0  0  0  0  0  0  0  0  0  0  0  0
  147.1560  135.6729  155.9031 H   0  0  0  0  0  0  0  0  0  0  0  0
  1  2  1  0  0  0  0
  1 24  1  0  0  0  0
  1 25  1  0  0  0  0
  1 26  1  0  0  0  0
  2  3  1  0  0  0  0
  3  4  1  0  0  0  0
  3 27  1  0  0  0  0
  3 28  1  0  0  0  0
  4 23  1  0  0  0  0
  4  5  2  0  0  0  0
  5  6  1  0  0  0  0
  5 29  1  0  0  0  0
  6  7  1  0  0  0  0
  6 21  2  0  0  0  0
  7  8  1  0  0  0  0
  7 30  1  0  0  0  0
  8  9  2  0  0  0  0
  8 10  1  0  0  0  0
 10 11  1  0  0  0  0
 10 31  1  0  0  0  0
 11 20  1  0  0  0  0
 11 12  1  0  0  0  0
 11 32  1  0  0  0  0
 12 13  1  0  0  0  0
 12 33  1  0  0  0  0
 12 34  1  0  0  0  0
 13 14  1  0  0  0  0
 13 35  1  0  0  0  0
 13 36  1  0  0  0  0
 14 15  1  0  0  0  0
 14 37  1  0  0  0  0
 14 38  1  0  0  0  0
 15 16  1  0  0  0  0
 15 20  1  0  0  0  0
 15 39  1  0  0  0  0
 16 17  1  0  0  0  0
 16 18  1  0  0  0  0
 16 19  1  0  0  0  0
 20 40  1  0  0  0  0
 20 41  1  0  0  0  0
 21 22  1  0  0  0  0
 22 23  2  0  0  0  0
 22 42  1  0  0  0  0
M  END
> <s_m_source_file>
AV-unprocessed.smi

> <i_m_source_file_index>
2454

> <i_lp_mmshare_version>
43012

> <i_f3d_flags>
0

> <s_epik_input>
W0NIM11PW0NIMl1jMVtjSF1jKG5bY0hdbjEpW05IXUMoPU8pW05IXVtDQEBIXTJbQ0gyXVtDSDJdW0NIMl1bQ0BASF0oQyhGKShGKUYpW0NIMl0y

> <s_epik_cmdline>
J2VwaWtfcHl0aG9uJywgJy1waCcsICc3LjAnLCAnLXRuJywgJzgnLCAnLW1hJywgJzIwMCcsICctbWV0YWxfYmluZGluZycsICctaW1hZScsICc8aW5maWxlLm1hZT4nLCAnLW9tYWUnLCAnPG91dGZpbGUubWFlPic=

> <r_lp_tautomer_probability>
1

> <r_epik_Ionization_Penalty>
3.01554e-05

> <r_epik_Ionization_Penalty_Charging>
0

> <r_epik_Ionization_Penalty_Neutral>
3.01554e-05

> <r_epik_State_Penalty>
-0

> <r_epik_Charging_Adjusted_Penalty>
0

> <i_epik_Tot_Q>
0

> <i_epik_Tot_abs_Q>
0

> <r_epik_Metal_State_Penalty>
-0

> <b_epik_Metal_Only>
0

> <s_lp_Force_Field>
OPLS_2005

> <r_lp_Energy>
14.2483

> <b_lp_Chiralities_Consistent>
1

> <s_lp_Variant>
AV-unprocessed.smi:2454-3

> <Gold.Version>
5.8.1

> <Gold.Id.Protein>
6NUR|6NUR_protein|mol2

> <Gold.PLP.Fitness>
45.1668

> <Gold.PLP.PLP>
-40.0842

> <Gold.PLP.part.hbond>
-3.7407

> <Gold.PLP.part.metal>
0.0000

> <Gold.PLP.part.buried>
-3.9634

> <Gold.PLP.part.nonpolar>
-32.9916

> <Gold.PLP.part.repulsive>
0.1146

> <Gold.PLP.ligand.clash>
0.0000

> <Gold.PLP.ligand.torsion>
0.3095

> <Gold.PLP.Chemscore.Hbond>
1.8800

> <Gold.PLP.Chemscore.CHOScore>
0.0000

> <Gold.PLP.Chemscore.Metal>
0.0000

> <Gold.Chemscore.Hbonds>
donor molecule, donor type, donor heavy atom, donor atom, acceptor molecule, acceptor atom, score
      P1  H  6931  6943       L1     2  0.87
      P1  H  6934  6947       L1     2  0.93

> <Gold.PLP.Chemscore.Internal.Correction>
0.0616

> <Gold.Rescore>
     Score         DG    S(hbond)    S(metal)    S(lipo)     H(rot)  DE(clash)    DE(int)     intcor
     10.62     -14.55       0.81        0.00      89.41       1.60       1.28       2.65       ----

> <Gold.Chemscore.Fitness>
10.6188

> <Gold.Chemscore.DG>
-14.5514

> <Gold.Chemscore.ZeroCoef>
-5.4800

> <Gold.Chemscore.Hbond>
0.8128

> <Gold.Chemscore.Metal>
0.0000

> <Gold.Chemscore.Lipo>
89.4145

> <Gold.Chemscore.Internal_Hbond>
0.0000

> <Gold.Chemscore.DEClash>
1.2808

> <Gold.Chemscore.DEInternal>
2.6517

> <Gold.Chemscore.Rot>
1.6035

> <Gold.Chemscore.Internal.Correction>
   9.000000E+99

> <Gold.Chemscore.Hbonds>
donor molecule, donor type, donor heavy atom, donor atom, acceptor molecule, acceptor atom, score
      P1  H  6931  6943       L1     2  0.19
      P1  H  6934  6947       L1     2  0.26

> <Gold.Chemscore.Hbond.Weighted>
-2.7149

> <Gold.Chemscore.Metal.Weighted>
-0.0000

> <Gold.Chemscore.Lipo.Weighted>
-10.4615

> <Gold.Chemscore.Internal_Hbond.Weighted>
0.0000

> <Gold.Chemscore.DEClash.Weighted>
1.2808

> <Gold.Chemscore.DEInternal.Weighted>
2.6517

> <Gold.Chemscore.Rot.Weighted>
4.1050

> <Gold.Chemscore.Internal.Correction.Weighted>
   9.000000E+99

> <Gold.Protein.RotatedTorsions>
[ 6907 6896 6895 6894 ] final   77.82 input  -60.11 | X-H torsion
[ 7974 7965 7964 7962 ] final  -86.12 input  175.53 | X-H torsion
[ 8008 7997 7996 7995 ] final -162.42 input   59.86 | X-H torsion
[ 10167 10162 10161 10158 ] final  -18.44 input  -65.29 | X-H torsion
[ 10718 10713 10712 10709 ] final -139.13 input   66.30 | X-H torsion
[ 10763 10752 10751 10750 ] final   11.32 input  -60.55 | X-H torsion
[ 11005 11000 10999 10996 ] final -160.47 input  -57.11 | X-H torsion

> <Gold.Protein.ActiveResidues>
 VAL166  LYS551  ARG553  GLY616  TRP617  ASP618  TYR619  PRO620  LYS621  CYS622 
 ASP623  PHE694  ASN695  SER759  ASP760  ASP761  ALA762  ILE779  LEU786  VAL792 
 PHE793  MET794  SER795  GLU796  ALA797  LYS798  CYS799  TRP800  GLU811  SER814 

> <Gold.Protein.RotatedAtoms>
  152.5134  134.3758  159.9333 H   0  0  0  0  0  0  0  0  0  0  0  0  # atno 6907 bound_to 6896
  151.3713  133.3847  159.2708 H   0  0  0  0  0  0  0  0  0  0  0  0  # atno 6908 bound_to 6896
  150.9575  134.8987  159.7769 H   0  0  0  0  0  0  0  0  0  0  0  0  # atno 6909 bound_to 6896
  145.4842  140.9556  143.1848 H   0  0  0  0  0  0  0  0  0  0  0  0  # atno 7974 bound_to 7965
  155.8065  140.0899  157.1928 H   0  0  0  0  0  0  0  0  0  0  0  0  # atno 8008 bound_to 7997
  154.3980  140.1462  156.3395 H   0  0  0  0  0  0  0  0  0  0  0  0  # atno 8009 bound_to 7997
  155.8409  140.3439  155.5634 H   0  0  0  0  0  0  0  0  0  0  0  0  # atno 8010 bound_to 7997
  140.7259  143.4916  150.9985 H   0  0  0  0  0  0  0  0  0  0  0  0  # atno 10167 bound_to 10162
  156.3073  130.7462  151.1529 H   0  0  0  0  0  0  0  0  0  0  0  0  # atno 10718 bound_to 10713
  153.1938  135.6846  153.8318 H   0  0  0  0  0  0  0  0  0  0  0  0  # atno 10763 bound_to 10752
  153.7607  135.3210  155.3337 H   0  0  0  0  0  0  0  0  0  0  0  0  # atno 10764 bound_to 10752
  154.8133  135.4703  154.0674 H   0  0  0  0  0  0  0  0  0  0  0  0  # atno 10765 bound_to 10752
  140.6311  134.4650  157.5229 H   0  0  0  0  0  0  0  0  0  0  0  0  # atno 11005 bound_to 11000
  144.7871  139.6404  143.7129 LP  0  0  0  0  0  0  0  0  0  0  0  0  # atno 17320 bound_to 7965
  146.2323  139.5837  142.9547 LP  0  0  0  0  0  0  0  0  0  0  0  0  # atno 17321 bound_to 7965
  139.8620  143.7302  152.3172 LP  0  0  0  0  0  0  0  0  0  0  0  0  # atno 17342 bound_to 10162
  139.7521  144.7531  151.0491 LP  0  0  0  0  0  0  0  0  0  0  0  0  # atno 17343 bound_to 10162
  157.7382  131.0543  150.5306 LP  0  0  0  0  0  0  0  0  0  0  0  0  # atno 17370 bound_to 10713
  156.5441  130.4215  149.6139 LP  0  0  0  0  0  0  0  0  0  0  0  0  # atno 17371 bound_to 10713
  139.9116  134.8334  156.1510 LP  0  0  0  0  0  0  0  0  0  0  0  0  # atno 17394 bound_to 11000
  141.0674  133.6812  156.2073 LP  0  0  0  0  0  0  0  0  0  0  0  0  # atno 17395 bound_to 11000

$$$$
