AV-unprocessed.smi:282|AV-procd|sdf|2124|dock1
  -GOLD-   2262021423D 1   1.00000     0.00000
 Structure written by MMmdl.
 65 69  0  0  0  0  0  0  0  0  2 V2000
  152.5795  143.3919  158.4972 C   0  0  0  0  0  0  0  0  0  0  0  0
  151.2240  143.2475  157.7921 C   0  0  0  0  0  0  0  0  0  0  0  0
  150.4254  142.0107  158.2564 C   0  0  1  0  0  0  0  0  0  0  0  0
  148.9015  142.2464  158.1636 C   0  0  0  0  0  0  0  0  0  0  0  0
  148.4164  142.2192  156.7591 N   0  3  2  0  0  0  0  0  0  0  0  0
  146.9571  142.4832  156.6741 C   0  0  0  0  0  0  0  0  0  0  0  0
  146.4903  142.5768  155.2133 C   0  0  0  0  0  0  0  0  0  0  0  0
  146.8555  141.3019  154.4439 C   0  0  0  0  0  0  0  0  0  0  0  0
  148.3617  141.0365  154.5591 C   0  0  0  0  0  0  0  0  0  0  0  0
  148.8145  140.9778  156.0319 C   0  0  1  0  0  0  0  0  0  0  0  0
  150.3372  140.7520  156.1215 C   0  0  0  0  0  0  0  0  0  0  0  0
  150.7972  140.8059  157.5068 N   0  0  0  0  0  0  0  0  0  0  0  0
  150.8601  139.6123  158.1529 C   0  0  0  0  0  0  0  0  0  0  0  0
  152.0482  139.1641  158.6388 N   0  0  0  0  0  0  0  0  0  0  0  0
  152.1174  137.9960  159.2836 C   0  0  0  0  0  0  0  0  0  0  0  0
  151.1375  137.1301  159.5465 N   0  0  0  0  0  0  0  0  0  0  0  0
  149.9437  137.5673  159.0536 C   0  0  0  0  0  0  0  0  0  0  0  0
  149.7180  138.7870  158.3550 C   0  0  0  0  0  0  0  0  0  0  0  0
  148.3766  138.8913  158.0078 N   0  0  0  0  0  0  0  0  0  0  0  0
  147.8384  137.8021  158.4841 C   0  0  0  0  0  0  0  0  0  0  0  0
  148.7101  136.9410  159.1121 N   0  0  0  0  0  0  0  0  0  0  0  0
  148.3816  135.6628  159.7274 C   0  0  0  0  0  0  0  0  0  0  0  0
  147.5999  135.7630  161.0714 C   0  0  0  0  0  0  0  0  0  0  0  0
  146.1943  136.3932  160.8514 C   0  0  0  0  0  0  0  0  0  0  0  0
  145.3817  135.6066  160.0033 O   0  0  0  0  0  0  0  0  0  0  0  0
  147.4423  134.3525  161.6932 C   0  0  0  0  0  0  0  0  0  0  0  0
  146.9743  134.3882  163.1597 C   0  0  0  0  0  0  0  0  0  0  0  0
  147.8646  135.1772  163.9380 O   0  0  0  0  0  0  0  0  0  0  0  0
  147.9200  136.5316  163.5091 C   0  0  0  0  0  0  0  0  0  0  0  0
  148.4437  136.6022  162.0635 C   0  0  0  0  0  0  0  0  0  0  0  0
  153.0909  144.2974  158.1700 H   0  0  0  0  0  0  0  0  0  0  0  0
  153.2346  142.5477  158.2804 H   0  0  0  0  0  0  0  0  0  0  0  0
  152.4568  143.4521  159.5790 H   0  0  0  0  0  0  0  0  0  0  0  0
  150.6384  144.1447  157.9958 H   0  0  0  0  0  0  0  0  0  0  0  0
  151.3744  143.2304  156.7127 H   0  0  0  0  0  0  0  0  0  0  0  0
  150.6753  141.8694  159.3091 H   0  0  0  0  0  0  0  0  0  0  0  0
  148.3741  141.4765  158.7284 H   0  0  0  0  0  0  0  0  0  0  0  0
  148.6414  143.1985  158.6278 H   0  0  0  0  0  0  0  0  0  0  0  0
  146.4126  141.6914  157.1914 H   0  0  0  0  0  0  0  0  0  0  0  0
  146.7247  143.4162  157.1886 H   0  0  0  0  0  0  0  0  0  0  0  0
  145.4129  142.7395  155.1753 H   0  0  0  0  0  0  0  0  0  0  0  0
  146.9519  143.4413  154.7344 H   0  0  0  0  0  0  0  0  0  0  0  0
  146.2983  140.4542  154.8447 H   0  0  0  0  0  0  0  0  0  0  0  0
  146.5684  141.3983  153.3963 H   0  0  0  0  0  0  0  0  0  0  0  0
  148.6086  140.1017  154.0544 H   0  0  0  0  0  0  0  0  0  0  0  0
  148.9084  141.8223  154.0357 H   0  0  0  0  0  0  0  0  0  0  0  0
  148.3142  140.1361  156.5151 H   0  0  0  0  0  0  0  0  0  0  0  0
  150.5878  139.8008  155.6528 H   0  0  0  0  0  0  0  0  0  0  0  0
  150.8663  141.5142  155.5492 H   0  0  0  0  0  0  0  0  0  0  0  0
  153.0977  137.7145  159.6388 H   0  0  0  0  0  0  0  0  0  0  0  0
  146.7839  137.5909  158.3818 H   0  0  0  0  0  0  0  0  0  0  0  0
  147.8084  135.0831  159.0026 H   0  0  0  0  0  0  0  0  0  0  0  0
  149.3116  135.1109  159.8700 H   0  0  0  0  0  0  0  0  0  0  0  0
  145.6750  136.5275  161.8003 H   0  0  0  0  0  0  0  0  0  0  0  0
  146.2623  137.3858  160.4099 H   0  0  0  0  0  0  0  0  0  0  0  0
  144.5159  135.9850  159.9805 H   0  0  0  0  0  0  0  0  0  0  0  0
  146.7499  133.7479  161.1065 H   0  0  0  0  0  0  0  0  0  0  0  0
  148.4012  133.8338  161.6601 H   0  0  0  0  0  0  0  0  0  0  0  0
  145.9567  134.7693  163.2489 H   0  0  0  0  0  0  0  0  0  0  0  0
  146.9623  133.3772  163.5672 H   0  0  0  0  0  0  0  0  0  0  0  0
  146.9409  137.0012  163.6068 H   0  0  0  0  0  0  0  0  0  0  0  0
  148.5925  137.0772  164.1712 H   0  0  0  0  0  0  0  0  0  0  0  0
  149.4715  136.2360  162.0629 H   0  0  0  0  0  0  0  0  0  0  0  0
  148.5007  137.6419  161.7403 H   0  0  0  0  0  0  0  0  0  0  0  0
  148.8761  142.9840  156.2860 H   0  0  0  0  0  0  0  0  0  0  0  0
  1  2  1  0  0  0  0
  1 31  1  0  0  0  0
  1 32  1  0  0  0  0
  1 33  1  0  0  0  0
  2  3  1  0  0  0  0
  2 34  1  0  0  0  0
  2 35  1  0  0  0  0
  3 12  1  0  0  0  0
  3  4  1  0  0  0  0
  3 36  1  0  0  0  0
  4  5  1  0  0  0  0
  4 37  1  0  0  0  0
  4 38  1  0  0  0  0
  5 10  1  0  0  0  0
  5  6  1  0  0  0  0
  5 65  1  0  0  0  0
  6  7  1  0  0  0  0
  6 39  1  0  0  0  0
  6 40  1  0  0  0  0
  7  8  1  0  0  0  0
  7 41  1  0  0  0  0
  7 42  1  0  0  0  0
  8  9  1  0  0  0  0
  8 43  1  0  0  0  0
  8 44  1  0  0  0  0
  9 10  1  0  0  0  0
  9 45  1  0  0  0  0
  9 46  1  0  0  0  0
 10 11  1  0  0  0  0
 10 47  1  0  0  0  0
 11 12  1  0  0  0  0
 11 48  1  0  0  0  0
 11 49  1  0  0  0  0
 12 13  1  0  0  0  0
 13 18  1  0  0  0  0
 13 14  2  0  0  0  0
 14 15  1  0  0  0  0
 15 16  2  0  0  0  0
 15 50  1  0  0  0  0
 16 17  1  0  0  0  0
 17 21  1  0  0  0  0
 17 18  2  0  0  0  0
 18 19  1  0  0  0  0
 19 20  2  0  0  0  0
 20 21  1  0  0  0  0
 20 51  1  0  0  0  0
 21 22  1  0  0  0  0
 22 23  1  0  0  0  0
 22 52  1  0  0  0  0
 22 53  1  0  0  0  0
 23 30  1  0  0  0  0
 23 24  1  0  0  0  0
 23 26  1  0  0  0  0
 24 25  1  0  0  0  0
 24 54  1  0  0  0  0
 24 55  1  0  0  0  0
 25 56  1  0  0  0  0
 26 27  1  0  0  0  0
 26 57  1  0  0  0  0
 26 58  1  0  0  0  0
 27 28  1  0  0  0  0
 27 59  1  0  0  0  0
 27 60  1  0  0  0  0
 28 29  1  0  0  0  0
 29 30  1  0  0  0  0
 29 61  1  0  0  0  0
 29 62  1  0  0  0  0
 30 63  1  0  0  0  0
 30 64  1  0  0  0  0
M  CHG  1   5   1
M  END
> <s_m_source_file>
AV-unprocessed.smi

> <i_m_source_file_index>
282

> <i_lp_mmshare_version>
43012

> <i_f3d_flags>
0

> <s_epik_input>
W0NIMl0xW0NIMl1bQ0gyXVtDSDJdW0NAQEhdKE4xMilbQ0gyXU4oW0NAQEhdKFtDSDJdMilbQ0gyXVtDSDNdKWMobltjSF1uMyljKGMzNCluW2NIXW40W0NIMl1DNShbQ0gyXVtPSF0pW0NIMl1bQ0gyXU9bQ0gyXVtDSDJdNQ==

> <s_epik_cmdline>
J2VwaWtfcHl0aG9uJywgJy1waCcsICc3LjAnLCAnLXRuJywgJzgnLCAnLW1hJywgJzIwMCcsICctbWV0YWxfYmluZGluZycsICctaW1hZScsICc8aW5maWxlLm1hZT4nLCAnLW9tYWUnLCAnPG91dGZpbGUubWFlPic=

> <r_lp_tautomer_probability>
1

> <r_epik_Ionization_Penalty>
0.00308583

> <r_epik_Ionization_Penalty_Charging>
0.00300384

> <r_epik_Ionization_Penalty_Neutral>
8.19894e-05

> <r_epik_State_Penalty>
-0

> <r_epik_Charging_Adjusted_Penalty>
0.00300384

> <i_epik_Tot_Q>
1

> <i_epik_Tot_abs_Q>
1

> <r_epik_Metal_State_Penalty>
-0

> <b_epik_Metal_Only>
0

> <s_lp_Force_Field>
OPLS_2005

> <r_lp_Energy>
57.1852

> <b_lp_Chiralities_Consistent>
1

> <s_lp_Variant>
AV-unprocessed.smi:282-8

> <Gold.Version>
5.8.1

> <Gold.Id.Protein>
6NUR|6NUR_protein|mol2

> <Gold.PLP.Fitness>
57.5229

> <Gold.PLP.PLP>
-51.8822

> <Gold.PLP.part.hbond>
-3.2228

> <Gold.PLP.part.metal>
0.0000

> <Gold.PLP.part.buried>
-7.2114

> <Gold.PLP.part.nonpolar>
-43.3997

> <Gold.PLP.part.repulsive>
0.0351

> <Gold.PLP.ligand.clash>
0.0000

> <Gold.PLP.ligand.torsion>
1.8263

> <Gold.PLP.Chemscore.Hbond>
2.9433

> <Gold.PLP.Chemscore.CHOScore>
0.0000

> <Gold.PLP.Chemscore.Metal>
0.0000

> <Gold.Chemscore.Hbonds>
donor molecule, donor type, donor heavy atom, donor atom, acceptor molecule, acceptor atom, score
      L1  H     5    65       P1  8028  2.00
      P1  H  6888  6897       L1    28  0.14
      P1  H  6896  6907       L1    16  1.00

> <Gold.PLP.Chemscore.Internal.Correction>
0.4635

> <Gold.Rescore>
     Score         DG    S(hbond)    S(metal)    S(lipo)     H(rot)  DE(clash)    DE(int)     intcor
     15.92     -19.01       1.93        0.00     108.67       2.20       0.00       3.09       ----

> <Gold.Chemscore.Fitness>
15.9152

> <Gold.Chemscore.DG>
-19.0071

> <Gold.Chemscore.ZeroCoef>
-5.4800

> <Gold.Chemscore.Hbond>
1.9327

> <Gold.Chemscore.Metal>
0.0000

> <Gold.Chemscore.Lipo>
108.6746

> <Gold.Chemscore.Internal_Hbond>
0.0000

> <Gold.Chemscore.DEClash>
0.0004

> <Gold.Chemscore.DEInternal>
3.0915

> <Gold.Chemscore.Rot>
2.2042

> <Gold.Chemscore.Internal.Correction>
   9.000000E+99

> <Gold.Chemscore.Hbonds>
donor molecule, donor type, donor heavy atom, donor atom, acceptor molecule, acceptor atom, score
      L1  H     5    65       P1  8028  0.94
      P1  H  6888  6897       L1    28  0.14
      P1  H  6896  6907       L1    16  0.90

> <Gold.Chemscore.Hbond.Weighted>
-6.4551

> <Gold.Chemscore.Metal.Weighted>
-0.0000

> <Gold.Chemscore.Lipo.Weighted>
-12.7149

> <Gold.Chemscore.Internal_Hbond.Weighted>
0.0000

> <Gold.Chemscore.DEClash.Weighted>
0.0004

> <Gold.Chemscore.DEInternal.Weighted>
3.0915

> <Gold.Chemscore.Rot.Weighted>
5.6429

> <Gold.Chemscore.Internal.Correction.Weighted>
   9.000000E+99

> <Gold.Protein.RotatedTorsions>
[ 6907 6896 6895 6894 ] final  -13.47 input  -60.11 | X-H torsion
[ 7974 7965 7964 7962 ] final -176.02 input  175.53 | X-H torsion
[ 8008 7997 7996 7995 ] final  113.74 input   59.86 | X-H torsion
[ 10167 10162 10161 10158 ] final -165.30 input  -65.29 | X-H torsion
[ 10718 10713 10712 10709 ] final -143.01 input   66.30 | X-H torsion
[ 10763 10752 10751 10750 ] final  -69.65 input  -60.55 | X-H torsion
[ 11005 11000 10999 10996 ] final  106.08 input  -57.11 | X-H torsion

> <Gold.Protein.ActiveResidues>
 VAL166  LYS551  ARG553  GLY616  TRP617  ASP618  TYR619  PRO620  LYS621  CYS622 
 ASP623  PHE694  ASN695  SER759  ASP760  ASP761  ALA762  ILE779  LEU786  VAL792 
 PHE793  MET794  SER795  GLU796  ALA797  LYS798  CYS799  TRP800  GLU811  SER814 

> <Gold.Protein.RotatedAtoms>
  151.3544  135.0891  159.9413 H   0  0  0  0  0  0  0  0  0  0  0  0  # atno 6907 bound_to 6896
  152.5179  133.9321  159.7596 H   0  0  0  0  0  0  0  0  0  0  0  0  # atno 6908 bound_to 6896
  150.9702  133.6298  159.2768 H   0  0  0  0  0  0  0  0  0  0  0  0  # atno 6909 bound_to 6896
  144.7127  140.1234  143.6403 H   0  0  0  0  0  0  0  0  0  0  0  0  # atno 7974 bound_to 7965
  156.2277  140.2973  156.0108 H   0  0  0  0  0  0  0  0  0  0  0  0  # atno 8008 bound_to 7997
  155.2311  140.0419  157.2979 H   0  0  0  0  0  0  0  0  0  0  0  0  # atno 8009 bound_to 7997
  154.5943  140.2410  155.7886 H   0  0  0  0  0  0  0  0  0  0  0  0  # atno 8010 bound_to 7997
  139.6191  144.0660  152.1916 H   0  0  0  0  0  0  0  0  0  0  0  0  # atno 10167 bound_to 10162
  156.3528  130.7697  151.1852 H   0  0  0  0  0  0  0  0  0  0  0  0  # atno 10718 bound_to 10713
  154.4065  135.6019  153.5927 H   0  0  0  0  0  0  0  0  0  0  0  0  # atno 10763 bound_to 10752
  152.9789  135.5919  154.4122 H   0  0  0  0  0  0  0  0  0  0  0  0  # atno 10764 bound_to 10752
  154.3928  135.2842  155.2123 H   0  0  0  0  0  0  0  0  0  0  0  0  # atno 10765 bound_to 10752
  139.8809  134.9357  156.5613 H   0  0  0  0  0  0  0  0  0  0  0  0  # atno 11005 bound_to 11000
  145.9351  139.2632  143.1302 LP  0  0  0  0  0  0  0  0  0  0  0  0  # atno 17320 bound_to 7965
  145.9482  140.8928  143.0272 LP  0  0  0  0  0  0  0  0  0  0  0  0  # atno 17321 bound_to 7965
  140.0297  144.6090  150.7498 LP  0  0  0  0  0  0  0  0  0  0  0  0  # atno 17342 bound_to 10162
  140.7370  143.2760  151.3739 LP  0  0  0  0  0  0  0  0  0  0  0  0  # atno 17343 bound_to 10162
  157.7463  131.0422  150.4686 LP  0  0  0  0  0  0  0  0  0  0  0  0  # atno 17370 bound_to 10713
  156.4884  130.4089  149.6421 LP  0  0  0  0  0  0  0  0  0  0  0  0  # atno 17371 bound_to 10713
  140.8167  133.8386  155.8859 LP  0  0  0  0  0  0  0  0  0  0  0  0  # atno 17394 bound_to 11000
  140.9456  134.1845  157.4766 LP  0  0  0  0  0  0  0  0  0  0  0  0  # atno 17395 bound_to 11000

$$$$
