AV-unprocessed.smi:1870|AV-procd|sdf|7598|dock1
  -GOLD-   22720 9313D 1   1.00000     0.00000
 Structure written by MMmdl.
 47 49  0  0  0  0  0  0  0  0  1 V2000
  147.0356  137.0358  163.0360 C   0  0  0  0  0  0  0  0  0  0  0  0
  147.5196  136.1972  161.8841 C   0  0  0  0  0  0  0  0  0  0  0  0
  148.2213  136.8007  160.9818 N   0  0  0  0  0  0  0  0  0  0  0  0
  148.7088  136.1269  159.8797 N   0  0  0  0  0  0  0  0  0  0  0  0
  149.4790  136.9711  158.9570 C   0  0  0  0  0  0  0  0  0  0  0  0
  148.5687  137.6997  157.9425 C   0  0  1  0  0  0  0  0  0  0  0  0
  147.6989  138.5449  158.6690 O   0  0  0  0  0  0  0  0  0  0  0  0
  149.3094  138.6089  156.9395 C   0  0  0  0  0  0  0  0  0  0  0  0
  149.9029  139.8106  157.5290 N   0  0  0  0  0  0  0  0  0  0  0  0
  150.0398  140.8964  156.5592 C   0  0  0  0  0  0  0  0  0  0  0  0
  150.3933  142.2236  157.2479 C   0  0  0  0  0  0  0  0  0  0  0  0
  151.5227  142.0614  158.2528 C   0  0  0  0  0  0  0  0  0  0  0  0
  152.1766  143.1971  158.7724 C   0  0  0  0  0  0  0  0  0  0  0  0
  153.2044  143.0462  159.7233 C   0  0  0  0  0  0  0  0  0  0  0  0
  153.5806  141.7602  160.1565 C   0  0  0  0  0  0  0  0  0  0  0  0
  152.9302  140.6229  159.6394 C   0  0  0  0  0  0  0  0  0  0  0  0
  151.8966  140.7681  158.6914 C   0  0  0  0  0  0  0  0  0  0  0  0
  151.2176  139.5327  158.1117 C   0  0  0  0  0  0  0  0  0  0  0  0
  148.5095  134.8009  159.6290 C   0  0  0  0  0  0  0  0  0  0  0  0
  148.9551  134.2411  158.6260 O   0  0  0  0  0  0  0  0  0  0  0  0
  147.7191  134.1218  160.6582 C   0  0  0  0  0  0  0  0  0  0  0  0
  147.4877  132.7308  160.4362 C   0  0  0  0  0  0  0  0  0  0  0  0
  147.3150  131.5983  160.2694 N   0  0  0  0  0  0  0  0  0  0  0  0
  147.2378  134.7718  161.7472 C   0  0  0  0  0  0  0  0  0  0  0  0
  146.4097  134.1128  162.8419 C   0  0  0  0  0  0  0  0  0  0  0  0
  145.9525  136.9654  163.1390 H   0  0  0  0  0  0  0  0  0  0  0  0
  147.2840  138.0902  162.9041 H   0  0  0  0  0  0  0  0  0  0  0  0
  147.4874  136.7045  163.9713 H   0  0  0  0  0  0  0  0  0  0  0  0
  150.0958  137.6884  159.5020 H   0  0  0  0  0  0  0  0  0  0  0  0
  150.1843  136.3254  158.4363 H   0  0  0  0  0  0  0  0  0  0  0  0
  147.9653  136.9825  157.3847 H   0  0  0  0  0  0  0  0  0  0  0  0
  146.8453  138.5131  158.2645 H   0  0  0  0  0  0  0  0  0  0  0  0
  150.1019  138.0031  156.4965 H   0  0  0  0  0  0  0  0  0  0  0  0
  148.6568  138.8742  156.1058 H   0  0  0  0  0  0  0  0  0  0  0  0
  150.8188  140.6419  155.8385 H   0  0  0  0  0  0  0  0  0  0  0  0
  149.1302  141.0288  155.9765 H   0  0  0  0  0  0  0  0  0  0  0  0
  150.6669  142.9713  156.5028 H   0  0  0  0  0  0  0  0  0  0  0  0
  149.5204  142.6067  157.7776 H   0  0  0  0  0  0  0  0  0  0  0  0
  151.8886  144.1857  158.4464 H   0  0  0  0  0  0  0  0  0  0  0  0
  153.7034  143.9174  160.1212 H   0  0  0  0  0  0  0  0  0  0  0  0
  154.3700  141.6459  160.8848 H   0  0  0  0  0  0  0  0  0  0  0  0
  153.2280  139.6388  159.9710 H   0  0  0  0  0  0  0  0  0  0  0  0
  151.1169  138.7889  158.9032 H   0  0  0  0  0  0  0  0  0  0  0  0
  151.8795  139.1041  157.3574 H   0  0  0  0  0  0  0  0  0  0  0  0
  146.3417  133.0328  162.7135 H   0  0  0  0  0  0  0  0  0  0  0  0
  145.3944  134.5104  162.8418 H   0  0  0  0  0  0  0  0  0  0  0  0
  146.8506  134.2944  163.8227 H   0  0  0  0  0  0  0  0  0  0  0  0
  1  2  1  0  0  0  0
  1 26  1  0  0  0  0
  1 27  1  0  0  0  0
  1 28  1  0  0  0  0
  2 24  1  0  0  0  0
  2  3  2  0  0  0  0
  3  4  1  0  0  0  0
  4  5  1  0  0  0  0
  4 19  1  0  0  0  0
  5  6  1  0  0  0  0
  5 29  1  0  0  0  0
  5 30  1  0  0  0  0
  6  7  1  0  0  0  0
  6  8  1  0  0  0  0
  6 31  1  0  0  0  0
  7 32  1  0  0  0  0
  8  9  1  0  0  0  0
  8 33  1  0  0  0  0
  8 34  1  0  0  0  0
  9 18  1  0  0  0  0
  9 10  1  0  0  0  0
 10 11  1  0  0  0  0
 10 35  1  0  0  0  0
 10 36  1  0  0  0  0
 11 12  1  0  0  0  0
 11 37  1  0  0  0  0
 11 38  1  0  0  0  0
 12 17  2  0  0  0  0
 12 13  1  0  0  0  0
 13 14  2  0  0  0  0
 13 39  1  0  0  0  0
 14 15  1  0  0  0  0
 14 40  1  0  0  0  0
 15 16  2  0  0  0  0
 15 41  1  0  0  0  0
 16 17  1  0  0  0  0
 16 42  1  0  0  0  0
 17 18  1  0  0  0  0
 18 43  1  0  0  0  0
 18 44  1  0  0  0  0
 19 20  2  0  0  0  0
 19 21  1  0  0  0  0
 21 22  1  0  0  0  0
 21 24  2  0  0  0  0
 22 23  3  0  0  0  0
 24 25  1  0  0  0  0
 25 45  1  0  0  0  0
 25 46  1  0  0  0  0
 25 47  1  0  0  0  0
M  END
> <s_m_source_file>
AV-unprocessed.smi

> <i_m_source_file_index>
1870

> <i_lp_mmshare_version>
43012

> <i_f3d_flags>
0

> <s_epik_input>
TiNDYyhjMVtDSDNdKWMoPU8pbihuYzFbQ0gzXSlbQ0gyXVtDQEhdKFtPSF0pW0NIMl1OKFtDSDJdW0NIMl0yKVtDSDJdYyhjMjMpW2NIXVtjSF1bY0hdW2NIXTM=

> <s_epik_cmdline>
J2VwaWtfcHl0aG9uJywgJy1waCcsICc3LjAnLCAnLXRuJywgJzgnLCAnLW1hJywgJzIwMCcsICctbWV0YWxfYmluZGluZycsICctaW1hZScsICc8aW5maWxlLm1hZT4nLCAnLW9tYWUnLCAnPG91dGZpbGUubWFlPic=

> <r_epik_Ionization_Penalty>
2.30251

> <r_epik_Ionization_Penalty_Charging>
1.06171e-10

> <r_epik_Ionization_Penalty_Neutral>
2.30251

> <r_epik_State_Penalty>
2.45335

> <r_epik_Charging_Adjusted_Penalty>
2.45335

> <i_epik_Tot_Q>
0

> <i_epik_Tot_abs_Q>
0

> <r_epik_Metal_State_Penalty>
2.45335

> <b_epik_Metal_Only>
0

> <s_lp_Force_Field>
OPLS_2005

> <r_lp_Energy>
48.2343

> <b_lp_Chiralities_Consistent>
1

> <s_lp_Variant>
AV-unprocessed.smi:1870-6

> <Gold.Version>
5.8.1

> <Gold.Id.Protein>
6NUR|6NUR_protein|mol2

> <Gold.PLP.Fitness>
54.2574

> <Gold.PLP.PLP>
-47.3039

> <Gold.PLP.part.hbond>
-4.0000

> <Gold.PLP.part.metal>
0.0000

> <Gold.PLP.part.buried>
-5.0053

> <Gold.PLP.part.nonpolar>
-39.8867

> <Gold.PLP.part.repulsive>
0.0000

> <Gold.PLP.ligand.clash>
0.0000

> <Gold.PLP.ligand.torsion>
0.6809

> <Gold.PLP.Chemscore.Hbond>
2.7600

> <Gold.PLP.Chemscore.CHOScore>
0.0000

> <Gold.PLP.Chemscore.Metal>
0.0000

> <Gold.Chemscore.Hbonds>
donor molecule, donor type, donor heavy atom, donor atom, acceptor molecule, acceptor atom, score
      P1  H  6896  6908       L1    20  0.40
      P1  H  6931  6943       L1     3  1.00
      P1  H  6934  6947       L1     7  0.03

> <Gold.PLP.Chemscore.Internal.Correction>
0.0353

> <Gold.Rescore>
     Score         DG    S(hbond)    S(metal)    S(lipo)     H(rot)  DE(clash)    DE(int)     intcor
     19.67     -20.77       1.88        0.00     122.85       2.10       0.26       0.84       ----

> <Gold.Chemscore.Fitness>
19.6743

> <Gold.Chemscore.DG>
-20.7747

> <Gold.Chemscore.ZeroCoef>
-5.4800

> <Gold.Chemscore.Hbond>
1.8832

> <Gold.Chemscore.Metal>
0.0000

> <Gold.Chemscore.Lipo>
122.8492

> <Gold.Chemscore.Internal_Hbond>
0.0000

> <Gold.Chemscore.DEClash>
0.2625

> <Gold.Chemscore.DEInternal>
0.8380

> <Gold.Chemscore.Rot>
2.0971

> <Gold.Chemscore.Internal.Correction>
   9.000000E+99

> <Gold.Chemscore.Hbonds>
donor molecule, donor type, donor heavy atom, donor atom, acceptor molecule, acceptor atom, score
      P1  H  6896  6908       L1    20  0.01
      P1  H  6931  6943       L1     3  0.49
      P1  H  6934  6947       L1     7  0.02

> <Gold.Chemscore.Hbond.Weighted>
-6.2899

> <Gold.Chemscore.Metal.Weighted>
-0.0000

> <Gold.Chemscore.Lipo.Weighted>
-14.3734

> <Gold.Chemscore.Internal_Hbond.Weighted>
0.0000

> <Gold.Chemscore.DEClash.Weighted>
0.2625

> <Gold.Chemscore.DEInternal.Weighted>
0.8380

> <Gold.Chemscore.Rot.Weighted>
5.3685

> <Gold.Chemscore.Internal.Correction.Weighted>
   9.000000E+99

> <Gold.Protein.RotatedTorsions>
[ 6907 6896 6895 6894 ] final  151.43 input  -60.11 | X-H torsion
[ 7974 7965 7964 7962 ] final -156.05 input  175.53 | X-H torsion
[ 8008 7997 7996 7995 ] final   -0.82 input   59.86 | X-H torsion
[ 10167 10162 10161 10158 ] final  107.28 input  -65.29 | X-H torsion
[ 10718 10713 10712 10709 ] final   86.15 input   66.30 | X-H torsion
[ 10763 10752 10751 10750 ] final -176.66 input  -60.55 | X-H torsion
[ 11005 11000 10999 10996 ] final  -26.29 input  -57.11 | X-H torsion

> <Gold.Protein.ActiveResidues>
 VAL166  LYS551  ARG553  GLY616  TRP617  ASP618  TYR619  PRO620  LYS621  CYS622 
 ASP623  PHE694  ASN695  SER759  ASP760  ASP761  ALA762  ILE779  LEU786  VAL792 
 PHE793  MET794  SER795  GLU796  ALA797  LYS798  CYS799  TRP800  GLU811  SER814 

> <Gold.Protein.RotatedAtoms>
  152.1007  133.4248  159.4585 H   0  0  0  0  0  0  0  0  0  0  0  0  # atno 6907 bound_to 6896
  150.6864  134.2764  159.4618 H   0  0  0  0  0  0  0  0  0  0  0  0  # atno 6908 bound_to 6896
  152.0624  134.9585  160.0625 H   0  0  0  0  0  0  0  0  0  0  0  0  # atno 6909 bound_to 6896
  144.7611  140.4164  143.5976 H   0  0  0  0  0  0  0  0  0  0  0  0  # atno 7974 bound_to 7965
  154.6537  140.2574  155.7185 H   0  0  0  0  0  0  0  0  0  0  0  0  # atno 8008 bound_to 7997
  156.2587  140.2863  156.0902 H   0  0  0  0  0  0  0  0  0  0  0  0  # atno 8009 bound_to 7997
  155.1412  140.0380  157.2789 H   0  0  0  0  0  0  0  0  0  0  0  0  # atno 8010 bound_to 7997
  139.6940  144.7104  151.1299 H   0  0  0  0  0  0  0  0  0  0  0  0  # atno 10167 bound_to 10162
  157.6925  131.0204  150.2929 H   0  0  0  0  0  0  0  0  0  0  0  0  # atno 10718 bound_to 10713
  154.5697  135.2827  155.0839 H   0  0  0  0  0  0  0  0  0  0  0  0  # atno 10763 bound_to 10752
  154.2216  135.6390  153.5150 H   0  0  0  0  0  0  0  0  0  0  0  0  # atno 10764 bound_to 10752
  153.0054  135.5516  154.6317 H   0  0  0  0  0  0  0  0  0  0  0  0  # atno 10765 bound_to 10752
  140.9016  133.7520  156.0551 H   0  0  0  0  0  0  0  0  0  0  0  0  # atno 11005 bound_to 11000
  145.6616  139.1582  143.2805 LP  0  0  0  0  0  0  0  0  0  0  0  0  # atno 17320 bound_to 7965
  146.1675  140.6696  142.9249 LP  0  0  0  0  0  0  0  0  0  0  0  0  # atno 17321 bound_to 7965
  140.7691  143.5518  150.9195 LP  0  0  0  0  0  0  0  0  0  0  0  0  # atno 17342 bound_to 10162
  139.9197  143.6620  152.3099 LP  0  0  0  0  0  0  0  0  0  0  0  0  # atno 17343 bound_to 10162
  156.3457  130.3822  149.7371 LP  0  0  0  0  0  0  0  0  0  0  0  0  # atno 17370 bound_to 10713
  156.4865  130.8065  151.3077 LP  0  0  0  0  0  0  0  0  0  0  0  0  # atno 17371 bound_to 10713
  140.8223  134.3275  157.5377 LP  0  0  0  0  0  0  0  0  0  0  0  0  # atno 17394 bound_to 11000
  139.8743  134.9316  156.3533 LP  0  0  0  0  0  0  0  0  0  0  0  0  # atno 17395 bound_to 11000

$$$$
