AV-unprocessed.smi:3083|AV-procd|sdf|11747|dock1
  -GOLD-   2272017143D 1   1.00000     0.00000
 Structure written by MMmdl.
 28 29  0  0  0  0  0  0  0  0  2 V2000
  149.1520  144.1367  158.2267 N   0  3  0  0  0  0  0  0  0  0  0  0
  150.5562  144.0887  158.6744 C   0  0  1  0  0  0  0  0  0  0  0  0
  150.7269  144.9011  159.9717 C   0  0  0  0  0  0  0  0  0  0  0  0
  152.1781  144.8579  160.4747 C   0  0  0  0  0  0  0  0  0  0  0  0
  152.6533  143.4110  160.6746 C   0  0  0  0  0  0  0  0  0  0  0  0
  152.4878  142.5891  159.3869 C   0  0  0  0  0  0  0  0  0  0  0  0
  151.0335  142.6264  158.8731 C   0  0  2  0  0  0  0  0  0  0  0  0
  150.8994  141.8206  157.6650 N   0  0  0  0  0  0  0  0  0  0  0  0
  150.5866  142.2469  156.3905 C   0  0  0  0  0  0  0  0  0  0  0  0
  150.5418  141.1429  155.5886 C   0  0  0  0  0  0  0  0  0  0  0  0
  150.8277  140.0686  156.4759 C   0  0  0  0  0  0  0  0  0  0  0  0
  151.0355  140.4761  157.7174 N   0  0  0  0  0  0  0  0  0  0  0  0
  148.6949  144.9426  158.6282 H   0  0  0  0  0  0  0  0  0  0  0  0
  148.6791  143.2961  158.5275 H   0  0  0  0  0  0  0  0  0  0  0  0
  151.1569  144.5636  157.8971 H   0  0  0  0  0  0  0  0  0  0  0  0
  150.4289  145.9375  159.8073 H   0  0  0  0  0  0  0  0  0  0  0  0
  150.0648  144.5087  160.7452 H   0  0  0  0  0  0  0  0  0  0  0  0
  152.8291  145.3613  159.7589 H   0  0  0  0  0  0  0  0  0  0  0  0
  152.2632  145.4097  161.4115 H   0  0  0  0  0  0  0  0  0  0  0  0
  153.6977  143.4029  160.9886 H   0  0  0  0  0  0  0  0  0  0  0  0
  152.0849  142.9464  161.4814 H   0  0  0  0  0  0  0  0  0  0  0  0
  153.1628  142.9776  158.6227 H   0  0  0  0  0  0  0  0  0  0  0  0
  152.7928  141.5582  159.5705 H   0  0  0  0  0  0  0  0  0  0  0  0
  150.4006  142.1652  159.6336 H   0  0  0  0  0  0  0  0  0  0  0  0
  150.4227  143.2898  156.1613 H   0  0  0  0  0  0  0  0  0  0  0  0
  150.3286  141.1070  154.5303 H   0  0  0  0  0  0  0  0  0  0  0  0
  150.8874  139.0124  156.2573 H   0  0  0  0  0  0  0  0  0  0  0  0
  149.1212  144.1971  157.2191 H   0  0  0  0  0  0  0  0  0  0  0  0
  1  2  1  0  0  0  0
  1 13  1  0  0  0  0
  1 14  1  0  0  0  0
  1 28  1  0  0  0  0
  2  7  1  0  0  0  0
  2  3  1  0  0  0  0
  2 15  1  0  0  0  0
  3  4  1  0  0  0  0
  3 16  1  0  0  0  0
  3 17  1  0  0  0  0
  4  5  1  0  0  0  0
  4 18  1  0  0  0  0
  4 19  1  0  0  0  0
  5  6  1  0  0  0  0
  5 20  1  0  0  0  0
  5 21  1  0  0  0  0
  6  7  1  0  0  0  0
  6 22  1  0  0  0  0
  6 23  1  0  0  0  0
  7  8  1  0  0  0  0
  7 24  1  0  0  0  0
  8 12  1  0  0  0  0
  8  9  1  0  0  0  0
  9 10  2  0  0  0  0
  9 25  1  0  0  0  0
 10 11  1  0  0  0  0
 10 26  1  0  0  0  0
 11 12  2  0  0  0  0
 11 27  1  0  0  0  0
M  CHG  1   1   1
M  END
> <s_m_source_file>
AV-unprocessed.smi

> <i_m_source_file_index>
3083

> <i_lp_mmshare_version>
43012

> <i_f3d_flags>
0

> <s_epik_input>
W05IMl1bQ0BASF0xW0NIMl1bQ0gyXVtDSDJdW0NIMl1bQ0BIXTFuMltjSF1bY0hdW2NIXW4y

> <s_epik_cmdline>
J2VwaWtfcHl0aG9uJywgJy1waCcsICc3LjAnLCAnLXRuJywgJzgnLCAnLW1hJywgJzIwMCcsICctbWV0YWxfYmluZGluZycsICctaW1hZScsICc8aW5maWxlLm1hZT4nLCAnLW9tYWUnLCAnPG91dGZpbGUubWFlPic=

> <r_lp_tautomer_probability>
1

> <r_epik_Ionization_Penalty>
0.00385053

> <r_epik_Ionization_Penalty_Charging>
0.0038389

> <r_epik_Ionization_Penalty_Neutral>
1.16305e-05

> <r_epik_State_Penalty>
-0

> <r_epik_Charging_Adjusted_Penalty>
0.0038389

> <i_epik_Tot_Q>
1

> <i_epik_Tot_abs_Q>
1

> <r_epik_Metal_State_Penalty>
-0

> <b_epik_Metal_Only>
0

> <s_lp_Force_Field>
OPLS_2005

> <r_lp_Energy>
13.574

> <b_lp_Chiralities_Consistent>
1

> <s_lp_Variant>
AV-unprocessed.smi:3083-4

> <Gold.Version>
5.8.1

> <Gold.Id.Protein>
6NUR|6NUR_protein|mol2

> <Gold.PLP.Fitness>
38.7324

> <Gold.PLP.PLP>
-28.0252

> <Gold.PLP.part.hbond>
-2.0000

> <Gold.PLP.part.metal>
0.0000

> <Gold.PLP.part.buried>
-1.7530

> <Gold.PLP.part.nonpolar>
-24.1464

> <Gold.PLP.part.repulsive>
0.0430

> <Gold.PLP.ligand.clash>
0.0000

> <Gold.PLP.ligand.torsion>
0.1446

> <Gold.PLP.Chemscore.Hbond>
2.6560

> <Gold.PLP.Chemscore.CHOScore>
1.0000

> <Gold.PLP.Chemscore.Metal>
0.0000

> <Gold.Chemscore.Hbonds>
donor molecule, donor type, donor heavy atom, donor atom, acceptor molecule, acceptor atom, score
      L1  H     1    13       P1  8029  0.38
      L1  H     1    28       P1  8028  1.30
      L1  C     9    25       P1  8028  1.00

> <Gold.PLP.Chemscore.Internal.Correction>
0.0283

> <Gold.Rescore>
     Score         DG    S(hbond)    S(metal)    S(lipo)     H(rot)  DE(clash)    DE(int)     intcor
     13.70     -14.97       0.80        0.00      80.16       1.00       0.06       1.21       ----

> <Gold.Chemscore.Fitness>
13.6984

> <Gold.Chemscore.DG>
-14.9652

> <Gold.Chemscore.ZeroCoef>
-5.4800

> <Gold.Chemscore.Hbond>
0.7984

> <Gold.Chemscore.Metal>
0.0000

> <Gold.Chemscore.Lipo>
80.1577

> <Gold.Chemscore.Internal_Hbond>
0.0000

> <Gold.Chemscore.DEClash>
0.0580

> <Gold.Chemscore.DEInternal>
1.2089

> <Gold.Chemscore.Rot>
1.0000

> <Gold.Chemscore.Internal.Correction>
   9.000000E+99

> <Gold.Chemscore.Hbonds>
donor molecule, donor type, donor heavy atom, donor atom, acceptor molecule, acceptor atom, score
      L1  H     1    13       P1  8029  0.20
      L1  H     1    28       P1  8028  0.06

> <Gold.Chemscore.Hbond.Weighted>
-2.6668

> <Gold.Chemscore.Metal.Weighted>
-0.0000

> <Gold.Chemscore.Lipo.Weighted>
-9.3784

> <Gold.Chemscore.Internal_Hbond.Weighted>
0.0000

> <Gold.Chemscore.DEClash.Weighted>
0.0580

> <Gold.Chemscore.DEInternal.Weighted>
1.2089

> <Gold.Chemscore.Rot.Weighted>
2.5600

> <Gold.Chemscore.Internal.Correction.Weighted>
   9.000000E+99

> <Gold.Protein.RotatedTorsions>
[ 6907 6896 6895 6894 ] final  -99.08 input  -60.11 | X-H torsion
[ 7974 7965 7964 7962 ] final  -60.81 input  175.53 | X-H torsion
[ 8008 7997 7996 7995 ] final  -33.72 input   59.86 | X-H torsion
[ 10167 10162 10161 10158 ] final   65.15 input  -65.29 | X-H torsion
[ 10718 10713 10712 10709 ] final   75.25 input   66.30 | X-H torsion
[ 10763 10752 10751 10750 ] final  158.33 input  -60.55 | X-H torsion
[ 11005 11000 10999 10996 ] final  174.90 input  -57.11 | X-H torsion

> <Gold.Protein.ActiveResidues>
 VAL166  LYS551  ARG553  GLY616  TRP617  ASP618  TYR619  PRO620  LYS621  CYS622 
 ASP623  PHE694  ASN695  SER759  ASP760  ASP761  ALA762  ILE779  LEU786  VAL792 
 PHE793  MET794  SER795  GLU796  ALA797  LYS798  CYS799  TRP800  GLU811  SER814 

> <Gold.Protein.RotatedAtoms>
  150.7068  134.1095  159.3994 H   0  0  0  0  0  0  0  0  0  0  0  0  # atno 6907 bound_to 6896
  151.9082  135.0348  160.0521 H   0  0  0  0  0  0  0  0  0  0  0  0  # atno 6908 bound_to 6896
  152.2358  133.5059  159.5278 H   0  0  0  0  0  0  0  0  0  0  0  0  # atno 6909 bound_to 6896
  145.8110  140.8599  143.0182 H   0  0  0  0  0  0  0  0  0  0  0  0  # atno 7974 bound_to 7965
  154.4141  140.1703  156.1933 H   0  0  0  0  0  0  0  0  0  0  0  0  # atno 8008 bound_to 7997
  155.9585  140.3395  155.6446 H   0  0  0  0  0  0  0  0  0  0  0  0  # atno 8009 bound_to 7997
  155.6779  140.0719  157.2486 H   0  0  0  0  0  0  0  0  0  0  0  0  # atno 8010 bound_to 7997
  140.1144  144.4788  150.6958 H   0  0  0  0  0  0  0  0  0  0  0  0  # atno 10167 bound_to 10162
  157.6626  130.9717  150.1327 H   0  0  0  0  0  0  0  0  0  0  0  0  # atno 10718 bound_to 10713
  154.2143  135.2784  155.2947 H   0  0  0  0  0  0  0  0  0  0  0  0  # atno 10763 bound_to 10752
  154.5753  135.5606  153.7137 H   0  0  0  0  0  0  0  0  0  0  0  0  # atno 10764 bound_to 10752
  153.0056  135.6331  154.2283 H   0  0  0  0  0  0  0  0  0  0  0  0  # atno 10765 bound_to 10752
  140.3563  134.7152  157.4301 H   0  0  0  0  0  0  0  0  0  0  0  0  # atno 11005 bound_to 11000
  144.6757  140.0395  143.7481 LP  0  0  0  0  0  0  0  0  0  0  0  0  # atno 17320 bound_to 7965
  145.9777  139.2917  143.1060 LP  0  0  0  0  0  0  0  0  0  0  0  0  # atno 17321 bound_to 7965
  140.6907  143.2374  151.5138 LP  0  0  0  0  0  0  0  0  0  0  0  0  # atno 17342 bound_to 10162
  139.5602  144.2176  152.1678 LP  0  0  0  0  0  0  0  0  0  0  0  0  # atno 17343 bound_to 10162
  156.2169  130.3671  149.8602 LP  0  0  0  0  0  0  0  0  0  0  0  0  # atno 17370 bound_to 10713
  156.6465  130.8726  151.3523 LP  0  0  0  0  0  0  0  0  0  0  0  0  # atno 17371 bound_to 10713
  140.0662  134.5926  155.8692 LP  0  0  0  0  0  0  0  0  0  0  0  0  # atno 17394 bound_to 11000
  141.1997  133.6608  156.5860 LP  0  0  0  0  0  0  0  0  0  0  0  0  # atno 17395 bound_to 11000

$$$$
