AV-unprocessed.smi:3330|AV-procd|sdf|12803|dock3
  -GOLD-   2272019163D 1   1.00000     0.00000
 Structure written by MMmdl.
 39 40  0  0  0  0  0  0  0  0  2 V2000
  148.5416  138.6519  154.9817 C   0  0  0  0  0  0  0  0  0  0  0  0
  149.9821  138.2191  154.6526 C   0  0  2  0  0  0  0  0  0  0  0  0
  149.9825  136.7724  154.3381 N   0  3  0  0  0  0  0  0  0  0  0  0
  149.1417  135.9437  155.2251 C   0  0  0  0  0  0  0  0  0  0  0  0
  149.6142  134.4822  155.2214 C   0  0  0  0  0  0  0  0  0  0  0  0
  148.6029  133.5953  155.8016 N   0  0  0  0  0  0  0  0  0  0  0  0
  148.1923  132.4496  155.2427 C   0  0  0  0  0  0  0  0  0  0  0  0
  148.5720  131.9575  154.1810 O   0  0  0  0  0  0  0  0  0  0  0  0
  147.1614  131.8160  156.1514 C   0  0  0  0  0  0  0  0  0  0  0  0
  147.1472  132.8006  157.2123 N   0  0  0  0  0  0  0  0  0  0  0  0
  147.9947  133.8116  156.9821 C   0  0  0  0  0  0  0  0  0  0  0  0
  148.1829  134.7667  157.7341 O   0  0  0  0  0  0  0  0  0  0  0  0
  150.9849  138.5294  155.7974 C   0  0  1  0  0  0  0  0  0  0  0  0
  152.4577  138.3953  155.3650 C   0  0  0  0  0  0  0  0  0  0  0  0
  150.7568  139.8448  156.3825 N   0  0  0  0  0  0  0  0  0  0  0  0
  150.5748  140.1688  157.7113 C   0  0  0  0  0  0  0  0  0  0  0  0
  150.3960  141.5205  157.7817 C   0  0  0  0  0  0  0  0  0  0  0  0
  150.4891  141.9450  156.4272 C   0  0  0  0  0  0  0  0  0  0  0  0
  150.7054  140.9416  155.5927 N   0  0  0  0  0  0  0  0  0  0  0  0
  148.4617  139.7310  155.1138 H   0  0  0  0  0  0  0  0  0  0  0  0
  148.1839  138.1771  155.8959 H   0  0  0  0  0  0  0  0  0  0  0  0
  147.8581  138.3790  154.1768 H   0  0  0  0  0  0  0  0  0  0  0  0
  150.2845  138.7754  153.7633 H   0  0  0  0  0  0  0  0  0  0  0  0
  149.6703  136.6524  153.3851 H   0  0  0  0  0  0  0  0  0  0  0  0
  149.1842  136.3498  156.2369 H   0  0  0  0  0  0  0  0  0  0  0  0
  148.1027  136.0007  154.8990 H   0  0  0  0  0  0  0  0  0  0  0  0
  149.8399  134.1656  154.2013 H   0  0  0  0  0  0  0  0  0  0  0  0
  150.5516  134.3908  155.7730 H   0  0  0  0  0  0  0  0  0  0  0  0
  146.1895  131.7338  155.6639 H   0  0  0  0  0  0  0  0  0  0  0  0
  147.4873  130.8398  156.5122 H   0  0  0  0  0  0  0  0  0  0  0  0
  146.5647  132.7167  158.0330 H   0  0  0  0  0  0  0  0  0  0  0  0
  150.8140  137.8042  156.5947 H   0  0  0  0  0  0  0  0  0  0  0  0
  152.6995  137.3721  155.0772 H   0  0  0  0  0  0  0  0  0  0  0  0
  153.1300  138.6649  156.1803 H   0  0  0  0  0  0  0  0  0  0  0  0
  152.6878  139.0430  154.5186 H   0  0  0  0  0  0  0  0  0  0  0  0
  150.5857  139.4187  158.4884 H   0  0  0  0  0  0  0  0  0  0  0  0
  150.2260  142.1162  158.6663 H   0  0  0  0  0  0  0  0  0  0  0  0
  150.4066  142.9456  156.0288 H   0  0  0  0  0  0  0  0  0  0  0  0
  150.9319  136.4353  154.4086 H   0  0  0  0  0  0  0  0  0  0  0  0
  1  2  1  0  0  0  0
  1 20  1  0  0  0  0
  1 21  1  0  0  0  0
  1 22  1  0  0  0  0
  2  3  1  0  0  0  0
  2 13  1  0  0  0  0
  2 23  1  0  0  0  0
  3  4  1  0  0  0  0
  3 24  1  0  0  0  0
  3 39  1  0  0  0  0
  4  5  1  0  0  0  0
  4 25  1  0  0  0  0
  4 26  1  0  0  0  0
  5  6  1  0  0  0  0
  5 27  1  0  0  0  0
  5 28  1  0  0  0  0
  6 11  1  0  0  0  0
  6  7  1  0  0  0  0
  7  8  2  0  0  0  0
  7  9  1  0  0  0  0
  9 10  1  0  0  0  0
  9 29  1  0  0  0  0
  9 30  1  0  0  0  0
 10 11  1  0  0  0  0
 10 31  1  0  0  0  0
 11 12  2  0  0  0  0
 13 14  1  0  0  0  0
 13 15  1  0  0  0  0
 13 32  1  0  0  0  0
 14 33  1  0  0  0  0
 14 34  1  0  0  0  0
 14 35  1  0  0  0  0
 15 19  1  0  0  0  0
 15 16  1  0  0  0  0
 16 17  2  0  0  0  0
 16 36  1  0  0  0  0
 17 18  1  0  0  0  0
 17 37  1  0  0  0  0
 18 19  2  0  0  0  0
 18 38  1  0  0  0  0
M  CHG  1   3   1
M  END
> <s_m_source_file>
AV-unprocessed.smi

> <i_m_source_file_index>
3330

> <i_lp_mmshare_version>
43012

> <i_f3d_flags>
0

> <s_epik_input>
bjFbY0hdW2NIXVtjSF1uMVtDQEBIXShbQ0gzXSlbQ0BIXShbQ0gzXSlbTkhdW0NIMl1bQ0gyXU4yQyg9TylbQ0gyXVtOSF1DMj1P

> <s_epik_cmdline>
J2VwaWtfcHl0aG9uJywgJy1waCcsICc3LjAnLCAnLXRuJywgJzgnLCAnLW1hJywgJzIwMCcsICctbWV0YWxfYmluZGluZycsICctaW1hZScsICc8aW5maWxlLm1hZT4nLCAnLW9tYWUnLCAnPG91dGZpbGUubWFlPic=

> <r_lp_tautomer_probability>
1

> <r_epik_Ionization_Penalty>
0.0124905

> <r_epik_Ionization_Penalty_Charging>
0.0123685

> <r_epik_Ionization_Penalty_Neutral>
0.000122059

> <r_epik_State_Penalty>
0.00957041

> <r_epik_Charging_Adjusted_Penalty>
0.0219389

> <i_epik_Tot_Q>
1

> <i_epik_Tot_abs_Q>
1

> <r_epik_Metal_State_Penalty>
0.0858301

> <b_epik_Metal_Only>
0

> <s_lp_Force_Field>
OPLS_2005

> <r_lp_Energy>
25.3738

> <b_lp_Chiralities_Consistent>
1

> <s_lp_Variant>
AV-unprocessed.smi:3330-3

> <Gold.Version>
5.8.1

> <Gold.Id.Protein>
6NUR|6NUR_protein|mol2

> <Gold.PLP.Fitness>
41.0318

> <Gold.PLP.PLP>
-28.5490

> <Gold.PLP.part.hbond>
-4.0000

> <Gold.PLP.part.metal>
0.0000

> <Gold.PLP.part.buried>
-3.2238

> <Gold.PLP.part.nonpolar>
-21.9876

> <Gold.PLP.part.repulsive>
0.2271

> <Gold.PLP.ligand.clash>
0.0000

> <Gold.PLP.ligand.torsion>
0.8931

> <Gold.PLP.Chemscore.Hbond>
3.6800

> <Gold.PLP.Chemscore.CHOScore>
1.0000

> <Gold.PLP.Chemscore.Metal>
0.0000

> <Gold.Chemscore.Hbonds>
donor molecule, donor type, donor heavy atom, donor atom, acceptor molecule, acceptor atom, score
      L1  H     3    24       P1  7948  2.00
      P1  H  7989  7998       L1    19  0.28
      L1  C    18    38       P1  8028  1.00

> <Gold.PLP.Chemscore.Internal.Correction>
0.2289

> <Gold.Rescore>
     Score         DG    S(hbond)    S(metal)    S(lipo)     H(rot)  DE(clash)    DE(int)     intcor
     12.69     -13.50       2.59        0.00      52.86       2.67       0.33       0.47       ----

> <Gold.Chemscore.Fitness>
12.6928

> <Gold.Chemscore.DG>
-13.4984

> <Gold.Chemscore.ZeroCoef>
-5.4800

> <Gold.Chemscore.Hbond>
2.5930

> <Gold.Chemscore.Metal>
0.0000

> <Gold.Chemscore.Lipo>
52.8566

> <Gold.Chemscore.Internal_Hbond>
0.0000

> <Gold.Chemscore.DEClash>
0.3310

> <Gold.Chemscore.DEInternal>
0.4746

> <Gold.Chemscore.Rot>
2.6666

> <Gold.Chemscore.Internal.Correction>
   9.000000E+99

> <Gold.Chemscore.Hbonds>
donor molecule, donor type, donor heavy atom, donor atom, acceptor molecule, acceptor atom, score
      L1  H     3    24       P1  7948  0.50
      P1  H  7989  7998       L1    19  0.27

> <Gold.Chemscore.Hbond.Weighted>
-8.6607

> <Gold.Chemscore.Metal.Weighted>
-0.0000

> <Gold.Chemscore.Lipo.Weighted>
-6.1842

> <Gold.Chemscore.Internal_Hbond.Weighted>
0.0000

> <Gold.Chemscore.DEClash.Weighted>
0.3310

> <Gold.Chemscore.DEInternal.Weighted>
0.4746

> <Gold.Chemscore.Rot.Weighted>
6.8265

> <Gold.Chemscore.Internal.Correction.Weighted>
   9.000000E+99

> <Gold.Protein.RotatedTorsions>
[ 6907 6896 6895 6894 ] final  129.61 input  -60.11 | X-H torsion
[ 7974 7965 7964 7962 ] final  -26.96 input  175.53 | X-H torsion
[ 8008 7997 7996 7995 ] final   -6.86 input   59.86 | X-H torsion
[ 10167 10162 10161 10158 ] final   28.44 input  -65.29 | X-H torsion
[ 10718 10713 10712 10709 ] final   -1.39 input   66.30 | X-H torsion
[ 10763 10752 10751 10750 ] final   -8.31 input  -60.55 | X-H torsion
[ 11005 11000 10999 10996 ] final -126.46 input  -57.11 | X-H torsion

> <Gold.Protein.ActiveResidues>
 VAL166  LYS551  ARG553  GLY616  TRP617  ASP618  TYR619  PRO620  LYS621  CYS622 
 ASP623  PHE694  ASN695  SER759  ASP760  ASP761  ALA762  ILE779  LEU786  VAL792 
 PHE793  MET794  SER795  GLU796  ALA797  LYS798  CYS799  TRP800  GLU811  SER814 

> <Gold.Protein.RotatedAtoms>
  152.3607  133.6294  159.6012 H   0  0  0  0  0  0  0  0  0  0  0  0  # atno 6907 bound_to 6896
  150.7599  133.9428  159.3470 H   0  0  0  0  0  0  0  0  0  0  0  0  # atno 6908 bound_to 6896
  151.7266  135.0884  160.0344 H   0  0  0  0  0  0  0  0  0  0  0  0  # atno 6909 bound_to 6896
  146.1390  140.5089  142.8660 H   0  0  0  0  0  0  0  0  0  0  0  0  # atno 7974 bound_to 7965
  154.5896  140.2422  155.7940 H   0  0  0  0  0  0  0  0  0  0  0  0  # atno 8008 bound_to 7997
  156.2237  140.2989  155.9970 H   0  0  0  0  0  0  0  0  0  0  0  0  # atno 8009 bound_to 7997
  155.2398  140.0406  157.2964 H   0  0  0  0  0  0  0  0  0  0  0  0  # atno 8010 bound_to 7997
  140.4852  144.0553  150.6278 H   0  0  0  0  0  0  0  0  0  0  0  0  # atno 10167 bound_to 10162
  156.8063  130.5409  149.5715 H   0  0  0  0  0  0  0  0  0  0  0  0  # atno 10718 bound_to 10713
  153.4387  135.7013  153.6183 H   0  0  0  0  0  0  0  0  0  0  0  0  # atno 10763 bound_to 10752
  153.4567  135.3745  155.2315 H   0  0  0  0  0  0  0  0  0  0  0  0  # atno 10764 bound_to 10752
  154.8727  135.4010  154.3783 H   0  0  0  0  0  0  0  0  0  0  0  0  # atno 10765 bound_to 10752
  140.9679  134.0846  157.3900 H   0  0  0  0  0  0  0  0  0  0  0  0  # atno 11005 bound_to 11000
  144.7771  140.5763  143.6630 LP  0  0  0  0  0  0  0  0  0  0  0  0  # atno 17320 bound_to 7965
  145.5090  139.1480  143.3615 LP  0  0  0  0  0  0  0  0  0  0  0  0  # atno 17321 bound_to 7965
  140.3807  143.2804  152.0174 LP  0  0  0  0  0  0  0  0  0  0  0  0  # atno 17342 bound_to 10162
  139.4840  144.6157  151.7350 LP  0  0  0  0  0  0  0  0  0  0  0  0  # atno 17343 bound_to 10162
  156.1071  130.6012  150.9988 LP  0  0  0  0  0  0  0  0  0  0  0  0  # atno 17370 bound_to 10713
  157.6528  131.0894  150.8013 LP  0  0  0  0  0  0  0  0  0  0  0  0  # atno 17371 bound_to 10713
  139.8901  135.0110  156.6719 LP  0  0  0  0  0  0  0  0  0  0  0  0  # atno 17394 bound_to 11000
  140.7372  133.9009  155.8252 LP  0  0  0  0  0  0  0  0  0  0  0  0  # atno 17395 bound_to 11000

$$$$
