AV-unprocessed.smi:514|AV-procd|sdf|2777|dock5
  -GOLD-   2262023243D 1   1.00000     0.00000
 Structure written by MMmdl.
 45 47  0  0  0  0  0  0  0  0  1 V2000
  148.7630  145.2151  161.4433 C   0  0  0  0  0  0  0  0  0  0  0  0
  148.5037  144.6861  160.0310 C   0  0  0  0  0  0  0  0  0  0  0  0
  149.7458  144.5087  159.3720 O   0  0  0  0  0  0  0  0  0  0  0  0
  150.2185  143.1749  159.4469 C   0  0  0  0  0  0  0  0  0  0  0  0
  151.2709  142.9612  158.3535 C   0  0  0  0  0  0  0  0  0  0  0  0
  152.0310  141.7351  158.5804 N   0  0  0  0  0  0  0  0  0  0  0  0
  152.1173  140.6292  157.7907 C   0  0  0  0  0  0  0  0  0  0  0  0
  151.4644  140.5378  156.5612 N   0  0  0  0  0  0  0  0  0  0  0  0
  152.0507  139.9618  155.3549 C   0  0  0  0  0  0  0  0  0  0  0  0
  151.0852  138.9477  154.7088 C   0  0  0  0  0  0  0  0  0  0  0  0
  149.8411  139.6142  154.3372 N   0  0  0  0  0  0  0  0  0  0  0  0
  149.2410  140.1885  155.5368 C   0  0  0  0  0  0  0  0  0  0  0  0
  150.2217  141.1972  156.1664 C   0  0  0  0  0  0  0  0  0  0  0  0
  152.8289  139.6268  158.3134 N   0  0  0  0  0  0  0  0  0  0  0  0
  153.2538  140.1422  159.5278 C   0  0  0  0  0  0  0  0  0  0  0  0
  152.7775  141.3999  159.7122 C   0  0  0  0  0  0  0  0  0  0  0  0
  153.0375  142.1667  160.9389 C   0  0  0  0  0  0  0  0  0  0  0  0
  152.5909  143.2929  161.1445 O   0  0  0  0  0  0  0  0  0  0  0  0
  153.8168  141.5021  161.8266 N   0  0  0  0  0  0  0  0  0  0  0  0
  154.3385  140.2444  161.6966 C   0  0  0  0  0  0  0  0  0  0  0  0
  155.0391  139.7735  162.5924 O   0  0  0  0  0  0  0  0  0  0  0  0
  154.0497  139.5503  160.5498 N   0  0  0  0  0  0  0  0  0  0  0  0
  154.5735  138.1961  160.3615 C   0  0  0  0  0  0  0  0  0  0  0  0
  154.0341  141.9892  162.6837 H   0  0  0  0  0  0  0  0  0  0  0  0
  147.8268  145.3636  161.9818 H   0  0  0  0  0  0  0  0  0  0  0  0
  149.2865  146.1708  161.4126 H   0  0  0  0  0  0  0  0  0  0  0  0
  149.3724  144.5165  162.0171 H   0  0  0  0  0  0  0  0  0  0  0  0
  147.9660  143.7384  160.0821 H   0  0  0  0  0  0  0  0  0  0  0  0
  147.8812  145.3913  159.4786 H   0  0  0  0  0  0  0  0  0  0  0  0
  150.6523  142.9833  160.4297 H   0  0  0  0  0  0  0  0  0  0  0  0
  149.3892  142.4790  159.3094 H   0  0  0  0  0  0  0  0  0  0  0  0
  150.7912  142.9313  157.3804 H   0  0  0  0  0  0  0  0  0  0  0  0
  151.9493  143.8106  158.3025 H   0  0  0  0  0  0  0  0  0  0  0  0
  152.3040  140.7563  154.6514 H   0  0  0  0  0  0  0  0  0  0  0  0
  152.9856  139.4615  155.6101 H   0  0  0  0  0  0  0  0  0  0  0  0
  151.5358  138.5166  153.8148 H   0  0  0  0  0  0  0  0  0  0  0  0
  150.8756  138.1239  155.3929 H   0  0  0  0  0  0  0  0  0  0  0  0
  149.2060  138.9451  153.9262 H   0  0  0  0  0  0  0  0  0  0  0  0
  148.3121  140.6881  155.2621 H   0  0  0  0  0  0  0  0  0  0  0  0
  148.9851  139.3967  156.2423 H   0  0  0  0  0  0  0  0  0  0  0  0
  149.7682  141.6995  157.0198 H   0  0  0  0  0  0  0  0  0  0  0  0
  150.4509  141.9889  155.4514 H   0  0  0  0  0  0  0  0  0  0  0  0
  155.6599  138.2203  160.2687 H   0  0  0  0  0  0  0  0  0  0  0  0
  154.1773  137.7140  159.4679 H   0  0  0  0  0  0  0  0  0  0  0  0
  154.3176  137.5593  161.2096 H   0  0  0  0  0  0  0  0  0  0  0  0
  1  2  1  0  0  0  0
  1 25  1  0  0  0  0
  1 26  1  0  0  0  0
  1 27  1  0  0  0  0
  2  3  1  0  0  0  0
  2 28  1  0  0  0  0
  2 29  1  0  0  0  0
  3  4  1  0  0  0  0
  4  5  1  0  0  0  0
  4 30  1  0  0  0  0
  4 31  1  0  0  0  0
  5  6  1  0  0  0  0
  5 32  1  0  0  0  0
  5 33  1  0  0  0  0
  6 16  1  0  0  0  0
  6  7  1  0  0  0  0
  7  8  1  0  0  0  0
  7 14  2  0  0  0  0
  8 13  1  0  0  0  0
  8  9  1  0  0  0  0
  9 10  1  0  0  0  0
  9 34  1  0  0  0  0
  9 35  1  0  0  0  0
 10 11  1  0  0  0  0
 10 36  1  0  0  0  0
 10 37  1  0  0  0  0
 11 12  1  0  0  0  0
 11 38  1  0  0  0  0
 12 13  1  0  0  0  0
 12 39  1  0  0  0  0
 12 40  1  0  0  0  0
 13 41  1  0  0  0  0
 13 42  1  0  0  0  0
 14 15  1  0  0  0  0
 15 22  1  0  0  0  0
 15 16  2  0  0  0  0
 16 17  1  0  0  0  0
 17 18  2  0  0  0  0
 17 19  1  0  0  0  0
 19 24  1  0  0  0  0
 19 20  1  0  0  0  0
 20 21  2  0  0  0  0
 20 22  1  0  0  0  0
 22 23  1  0  0  0  0
 23 43  1  0  0  0  0
 23 44  1  0  0  0  0
 23 45  1  0  0  0  0
M  END
> <s_m_source_file>
AV-unprocessed.smi

> <i_m_source_file_index>
514

> <i_lp_mmshare_version>
43012

> <i_f3d_flags>
0

> <s_epik_input>
W0NIM11uMWMoPU8pW25IXWMoPU8pYyhjMTIpbihbQ0gyXVtDSDJdT1tDSDJdW0NIM10pYyhuMilOM1tDSDJdW0NIMl1bTkhdW0NIMl1bQ0gyXTM=

> <s_epik_cmdline>
J2VwaWtfcHl0aG9uJywgJy1waCcsICc3LjAnLCAnLXRuJywgJzgnLCAnLW1hJywgJzIwMCcsICctbWV0YWxfYmluZGluZycsICctaW1hZScsICc8aW5maWxlLm1hZT4nLCAnLW9tYWUnLCAnPG91dGZpbGUubWFlPic=

> <r_epik_Ionization_Penalty>
2.51413

> <r_epik_Ionization_Penalty_Charging>
1.58739e-05

> <r_epik_Ionization_Penalty_Neutral>
2.51411

> <r_epik_State_Penalty>
2.67993

> <r_epik_Charging_Adjusted_Penalty>
2.67995

> <i_epik_Tot_Q>
0

> <i_epik_Tot_abs_Q>
0

> <r_epik_Metal_State_Penalty>
2.70758

> <b_epik_Metal_Only>
0

> <s_lp_Force_Field>
OPLS_2005

> <r_lp_Energy>
49.2261

> <b_lp_Chiralities_Consistent>
1

> <s_lp_Variant>
AV-unprocessed.smi:514-2

> <Gold.Version>
5.8.1

> <Gold.Id.Protein>
6NUR|6NUR_protein|mol2

> <Gold.PLP.Fitness>
38.6016

> <Gold.PLP.PLP>
-37.0751

> <Gold.PLP.part.hbond>
-2.8133

> <Gold.PLP.part.metal>
0.0000

> <Gold.PLP.part.buried>
-1.1425

> <Gold.PLP.part.nonpolar>
-33.3373

> <Gold.PLP.part.repulsive>
1.4964

> <Gold.PLP.ligand.clash>
0.0252

> <Gold.PLP.ligand.torsion>
0.9256

> <Gold.PLP.Chemscore.Hbond>
1.0000

> <Gold.PLP.Chemscore.CHOScore>
0.0000

> <Gold.PLP.Chemscore.Metal>
0.0000

> <Gold.Chemscore.Hbonds>
donor molecule, donor type, donor heavy atom, donor atom, acceptor molecule, acceptor atom, score
      P1  H  7997  8008       L1    14  0.35

> <Gold.PLP.Chemscore.Internal.Correction>
0.4029

> <Gold.Rescore>
     Score         DG    S(hbond)    S(metal)    S(lipo)     H(rot)  DE(clash)    DE(int)     intcor
      5.23      -9.47       0.05        0.00      70.37       1.72       1.14       3.10       ----

> <Gold.Chemscore.Fitness>
5.2306

> <Gold.Chemscore.DG>
-9.4721

> <Gold.Chemscore.ZeroCoef>
-5.4800

> <Gold.Chemscore.Hbond>
0.0495

> <Gold.Chemscore.Metal>
0.0000

> <Gold.Chemscore.Lipo>
70.3722

> <Gold.Chemscore.Internal_Hbond>
0.0000

> <Gold.Chemscore.DEClash>
1.1403

> <Gold.Chemscore.DEInternal>
3.1012

> <Gold.Chemscore.Rot>
1.7214

> <Gold.Chemscore.Internal.Correction>
   9.000000E+99

> <Gold.Chemscore.Hbonds>
donor molecule, donor type, donor heavy atom, donor atom, acceptor molecule, acceptor atom, score
      P1  H  7997  8008       L1    14  0.01

> <Gold.Chemscore.Hbond.Weighted>
-0.1654

> <Gold.Chemscore.Metal.Weighted>
-0.0000

> <Gold.Chemscore.Lipo.Weighted>
-8.2335

> <Gold.Chemscore.Internal_Hbond.Weighted>
0.0000

> <Gold.Chemscore.DEClash.Weighted>
1.1403

> <Gold.Chemscore.DEInternal.Weighted>
3.1012

> <Gold.Chemscore.Rot.Weighted>
4.4069

> <Gold.Chemscore.Internal.Correction.Weighted>
   9.000000E+99

> <Gold.Protein.RotatedTorsions>
[ 6907 6896 6895 6894 ] final -122.62 input  -60.11 | X-H torsion
[ 7974 7965 7964 7962 ] final   51.80 input  175.53 | X-H torsion
[ 8008 7997 7996 7995 ] final  -91.70 input   59.86 | X-H torsion
[ 10167 10162 10161 10158 ] final  135.37 input  -65.29 | X-H torsion
[ 10718 10713 10712 10709 ] final  -35.49 input   66.30 | X-H torsion
[ 10763 10752 10751 10750 ] final  -98.62 input  -60.55 | X-H torsion
[ 11005 11000 10999 10996 ] final  174.71 input  -57.11 | X-H torsion

> <Gold.Protein.ActiveResidues>
 VAL166  LYS551  ARG553  GLY616  TRP617  ASP618  TYR619  PRO620  LYS621  CYS622 
 ASP623  PHE694  ASN695  SER759  ASP760  ASP761  ALA762  ILE779  LEU786  VAL792 
 PHE793  MET794  SER795  GLU796  ALA797  LYS798  CYS799  TRP800  GLU811  SER814 

> <Gold.Protein.RotatedAtoms>
  150.8593  133.7667  159.2997 H   0  0  0  0  0  0  0  0  0  0  0  0  # atno 6907 bound_to 6896
  151.5314  135.1067  159.9913 H   0  0  0  0  0  0  0  0  0  0  0  0  # atno 6908 bound_to 6896
  152.4614  133.7787  159.6894 H   0  0  0  0  0  0  0  0  0  0  0  0  # atno 6909 bound_to 6896
  145.9877  139.4307  143.0093 H   0  0  0  0  0  0  0  0  0  0  0  0  # atno 7974 bound_to 7965
  154.7140  140.0516  157.0577 H   0  0  0  0  0  0  0  0  0  0  0  0  # atno 8008 bound_to 7997
  155.0516  140.3180  155.4671 H   0  0  0  0  0  0  0  0  0  0  0  0  # atno 8009 bound_to 7997
  156.2797  140.2115  156.5642 H   0  0  0  0  0  0  0  0  0  0  0  0  # atno 8010 bound_to 7997
  139.5220  144.6520  151.5273 H   0  0  0  0  0  0  0  0  0  0  0  0  # atno 10167 bound_to 10162
  156.3380  130.4289  149.7812 H   0  0  0  0  0  0  0  0  0  0  0  0  # atno 10718 bound_to 10713
  154.7430  135.5002  153.9155 H   0  0  0  0  0  0  0  0  0  0  0  0  # atno 10763 bound_to 10752
  153.1062  135.6698  153.9589 H   0  0  0  0  0  0  0  0  0  0  0  0  # atno 10764 bound_to 10752
  153.9361  135.3072  155.3423 H   0  0  0  0  0  0  0  0  0  0  0  0  # atno 10765 bound_to 10752
  140.3543  134.7168  157.4289 H   0  0  0  0  0  0  0  0  0  0  0  0  # atno 11005 bound_to 11000
  145.7676  140.9910  143.1167 LP  0  0  0  0  0  0  0  0  0  0  0  0  # atno 17320 bound_to 7965
  144.6879  139.9407  143.7475 LP  0  0  0  0  0  0  0  0  0  0  0  0  # atno 17321 bound_to 7965
  140.6330  143.9040  150.6622 LP  0  0  0  0  0  0  0  0  0  0  0  0  # atno 17342 bound_to 10162
  140.2350  143.3707  152.1534 LP  0  0  0  0  0  0  0  0  0  0  0  0  # atno 17343 bound_to 10162
  156.5059  130.8150  151.3150 LP  0  0  0  0  0  0  0  0  0  0  0  0  # atno 17370 bound_to 10713
  157.7442  130.9929  150.2654 LP  0  0  0  0  0  0  0  0  0  0  0  0  # atno 17371 bound_to 10713
  140.0678  134.5905  155.8676 LP  0  0  0  0  0  0  0  0  0  0  0  0  # atno 17394 bound_to 11000
  141.2003  133.6611  156.5889 LP  0  0  0  0  0  0  0  0  0  0  0  0  # atno 17395 bound_to 11000

$$$$
