AV-unprocessed.smi:311|AV-procd|sdf|2301|dock2
  -GOLD-   2262022203D 1   1.00000     0.00000
 Structure written by MMmdl.
 44 46  0  0  0  0  0  0  0  0  2 V2000
  152.7207  136.6262  154.6713 C   0  0  0  0  0  0  0  0  0  0  0  0
  152.9285  138.1134  154.6988 C   0  0  0  0  0  0  0  0  0  0  0  0
  152.3327  138.8385  155.6304 N   0  0  0  0  0  0  0  0  0  0  0  0
  152.7087  140.1626  155.3840 O   0  0  0  0  0  0  0  0  0  0  0  0
  153.5241  140.1827  154.2990 C   0  0  0  0  0  0  0  0  0  0  0  0
  154.0317  141.5159  153.8644 C   0  0  0  0  0  0  0  0  0  0  0  0
  153.7070  138.9161  153.8160 C   0  0  0  0  0  0  0  0  0  0  0  0
  154.5271  138.4718  152.6322 C   0  0  0  0  0  0  0  0  0  0  0  0
  153.7834  138.7962  151.3357 C   0  0  0  0  0  0  0  0  0  0  0  0
  153.9884  139.8628  150.7563 O   0  0  0  0  0  0  0  0  0  0  0  0
  152.9197  137.8700  150.8906 N   0  0  0  0  0  0  0  0  0  0  0  0
  152.0686  138.0100  149.7106 C   0  0  2  0  0  0  0  0  0  0  0  0
  150.9204  139.0168  149.9113 C   0  0  0  0  0  0  0  0  0  0  0  0
  149.7249  138.3851  149.1904 C   0  0  0  0  0  0  0  0  0  0  0  0
  149.9377  136.9489  149.4036 N   0  3  1  0  0  0  0  0  0  0  0  0
  149.1102  135.9889  148.6455 C   0  0  0  0  0  0  0  0  0  0  0  0
  149.3882  134.5719  149.1920 C   0  0  0  0  0  0  0  0  0  0  0  0
  150.8975  134.2386  149.2172 C   0  0  0  0  0  0  0  0  0  0  0  0
  151.7215  135.3478  149.9071 C   0  0  0  0  0  0  0  0  0  0  0  0
  151.3820  136.6997  149.2539 C   0  0  2  0  0  0  0  0  0  0  0  0
  153.6472  136.1054  154.4298 H   0  0  0  0  0  0  0  0  0  0  0  0
  151.9801  136.3519  153.9199 H   0  0  0  0  0  0  0  0  0  0  0  0
  152.3731  136.2499  155.6338 H   0  0  0  0  0  0  0  0  0  0  0  0
  153.8589  141.6642  152.7985 H   0  0  0  0  0  0  0  0  0  0  0  0
  155.1028  141.5985  154.0483 H   0  0  0  0  0  0  0  0  0  0  0  0
  153.5326  142.3225  154.4019 H   0  0  0  0  0  0  0  0  0  0  0  0
  155.4945  138.9742  152.6069 H   0  0  0  0  0  0  0  0  0  0  0  0
  154.7435  137.4038  152.6827 H   0  0  0  0  0  0  0  0  0  0  0  0
  152.8205  137.0211  151.4289 H   0  0  0  0  0  0  0  0  0  0  0  0
  152.6830  138.3751  148.8848 H   0  0  0  0  0  0  0  0  0  0  0  0
  150.6869  139.1181  150.9726 H   0  0  0  0  0  0  0  0  0  0  0  0
  151.1602  140.0101  149.5305 H   0  0  0  0  0  0  0  0  0  0  0  0
  148.7665  138.7205  149.5882 H   0  0  0  0  0  0  0  0  0  0  0  0
  149.7567  138.6089  148.1229 H   0  0  0  0  0  0  0  0  0  0  0  0
  148.0547  136.2370  148.7627 H   0  0  0  0  0  0  0  0  0  0  0  0
  149.3421  136.0492  147.5811 H   0  0  0  0  0  0  0  0  0  0  0  0
  148.9923  134.4980  150.2057 H   0  0  0  0  0  0  0  0  0  0  0  0
  148.8509  133.8302  148.6001 H   0  0  0  0  0  0  0  0  0  0  0  0
  151.0619  133.2834  149.7168 H   0  0  0  0  0  0  0  0  0  0  0  0
  151.2521  134.1136  148.1932 H   0  0  0  0  0  0  0  0  0  0  0  0
  151.4979  135.3731  150.9746 H   0  0  0  0  0  0  0  0  0  0  0  0
  152.7846  135.1276  149.8083 H   0  0  0  0  0  0  0  0  0  0  0  0
  151.5884  136.6100  148.1851 H   0  0  0  0  0  0  0  0  0  0  0  0
  149.7303  136.7927  150.3797 H   0  0  0  0  0  0  0  0  0  0  0  0
  1  2  1  0  0  0  0
  1 21  1  0  0  0  0
  1 22  1  0  0  0  0
  1 23  1  0  0  0  0
  2  7  1  0  0  0  0
  2  3  2  0  0  0  0
  3  4  1  0  0  0  0
  4  5  1  0  0  0  0
  5  6  1  0  0  0  0
  5  7  2  0  0  0  0
  6 24  1  0  0  0  0
  6 25  1  0  0  0  0
  6 26  1  0  0  0  0
  7  8  1  0  0  0  0
  8  9  1  0  0  0  0
  8 27  1  0  0  0  0
  8 28  1  0  0  0  0
  9 10  2  0  0  0  0
  9 11  1  0  0  0  0
 11 12  1  0  0  0  0
 11 29  1  0  0  0  0
 12 20  1  0  0  0  0
 12 13  1  0  0  0  0
 12 30  1  0  0  0  0
 13 14  1  0  0  0  0
 13 31  1  0  0  0  0
 13 32  1  0  0  0  0
 14 15  1  0  0  0  0
 14 33  1  0  0  0  0
 14 34  1  0  0  0  0
 15 20  1  0  0  0  0
 15 16  1  0  0  0  0
 15 44  1  0  0  0  0
 16 17  1  0  0  0  0
 16 35  1  0  0  0  0
 16 36  1  0  0  0  0
 17 18  1  0  0  0  0
 17 37  1  0  0  0  0
 17 38  1  0  0  0  0
 18 19  1  0  0  0  0
 18 39  1  0  0  0  0
 18 40  1  0  0  0  0
 19 20  1  0  0  0  0
 19 41  1  0  0  0  0
 19 42  1  0  0  0  0
 20 43  1  0  0  0  0
M  CHG  1  15   1
M  END
> <s_m_source_file>
AV-unprocessed.smi

> <i_m_source_file_index>
311

> <i_lp_mmshare_version>
43012

> <i_f3d_flags>
0

> <s_epik_input>
W0NIM11jMW5vYyhbQ0gzXSljMVtDSDJdQyg9TylbTkhdW0NASF0oW0NIMl1bQ0gyXTIpW0NAQEhdKE4yMylbQ0gyXVtDSDJdW0NIMl1bQ0gyXTM=

> <s_epik_cmdline>
J2VwaWtfcHl0aG9uJywgJy1waCcsICc3LjAnLCAnLXRuJywgJzgnLCAnLW1hJywgJzIwMCcsICctbWV0YWxfYmluZGluZycsICctaW1hZScsICc8aW5maWxlLm1hZT4nLCAnLW9tYWUnLCAnPG91dGZpbGUubWFlPic=

> <r_epik_Ionization_Penalty>
0.00173669

> <r_epik_Ionization_Penalty_Charging>
0.0017366

> <r_epik_Ionization_Penalty_Neutral>
9.2145e-08

> <r_epik_State_Penalty>
0.00117499

> <r_epik_Charging_Adjusted_Penalty>
0.00291159

> <i_epik_Tot_Q>
1

> <i_epik_Tot_abs_Q>
1

> <r_epik_Metal_State_Penalty>
-0

> <b_epik_Metal_Only>
0

> <s_lp_Force_Field>
OPLS_2005

> <r_lp_Energy>
35.7975

> <b_lp_Chiralities_Consistent>
1

> <s_lp_Variant>
AV-unprocessed.smi:311-5

> <Gold.Version>
5.8.1

> <Gold.Id.Protein>
6NUR|6NUR_protein|mol2

> <Gold.PLP.Fitness>
37.4033

> <Gold.PLP.PLP>
-25.2816

> <Gold.PLP.part.hbond>
-4.0000

> <Gold.PLP.part.metal>
0.0000

> <Gold.PLP.part.buried>
-4.5053

> <Gold.PLP.part.nonpolar>
-16.9717

> <Gold.PLP.part.repulsive>
0.0629

> <Gold.PLP.ligand.clash>
0.0000

> <Gold.PLP.ligand.torsion>
0.7064

> <Gold.PLP.Chemscore.Hbond>
4.5102

> <Gold.PLP.Chemscore.CHOScore>
0.0000

> <Gold.PLP.Chemscore.Metal>
0.0000

> <Gold.Chemscore.Hbonds>
donor molecule, donor type, donor heavy atom, donor atom, acceptor molecule, acceptor atom, score
      L1  H    11    29       P1  7949  0.45

> <Gold.PLP.Chemscore.Internal.Correction>
0.0040

> <Gold.Rescore>
     Score         DG    S(hbond)    S(metal)    S(lipo)     H(rot)  DE(clash)    DE(int)     intcor
     19.49     -20.44       3.62        0.00      54.13       1.36       0.00       0.95       ----

> <Gold.Chemscore.Fitness>
19.4900

> <Gold.Chemscore.DG>
-20.4388

> <Gold.Chemscore.ZeroCoef>
-5.4800

> <Gold.Chemscore.Hbond>
3.6225

> <Gold.Chemscore.Metal>
0.0000

> <Gold.Chemscore.Lipo>
54.1251

> <Gold.Chemscore.Internal_Hbond>
0.0000

> <Gold.Chemscore.DEClash>
0.0000

> <Gold.Chemscore.DEInternal>
0.9488

> <Gold.Chemscore.Rot>
1.3567

> <Gold.Chemscore.Internal.Correction>
   9.000000E+99

> <Gold.Chemscore.Hbonds>
donor molecule, donor type, donor heavy atom, donor atom, acceptor molecule, acceptor atom, score
      L1  H    11    29       P1  7949  0.46

> <Gold.Chemscore.Hbond.Weighted>
-12.0993

> <Gold.Chemscore.Metal.Weighted>
-0.0000

> <Gold.Chemscore.Lipo.Weighted>
-6.3326

> <Gold.Chemscore.Internal_Hbond.Weighted>
0.0000

> <Gold.Chemscore.DEClash.Weighted>
0.0000

> <Gold.Chemscore.DEInternal.Weighted>
0.9488

> <Gold.Chemscore.Rot.Weighted>
3.4731

> <Gold.Chemscore.Internal.Correction.Weighted>
   9.000000E+99

> <Gold.Protein.RotatedTorsions>
[ 6907 6896 6895 6894 ] final  175.85 input  -60.11 | X-H torsion
[ 7974 7965 7964 7962 ] final  -27.21 input  175.53 | X-H torsion
[ 8008 7997 7996 7995 ] final   87.19 input   59.86 | X-H torsion
[ 10167 10162 10161 10158 ] final  -60.59 input  -65.29 | X-H torsion
[ 10718 10713 10712 10709 ] final -163.14 input   66.30 | X-H torsion
[ 10763 10752 10751 10750 ] final  159.47 input  -60.55 | X-H torsion
[ 11005 11000 10999 10996 ] final  -88.38 input  -57.11 | X-H torsion

> <Gold.Protein.ActiveResidues>
 VAL166  LYS551  ARG553  GLY616  TRP617  ASP618  TYR619  PRO620  LYS621  CYS622 
 ASP623  PHE694  ASN695  SER759  ASP760  ASP761  ALA762  ILE779  LEU786  VAL792 
 PHE793  MET794  SER795  GLU796  ALA797  LYS798  CYS799  TRP800  GLU811  SER814 

> <Gold.Protein.RotatedAtoms>
  151.7295  133.3317  159.3336 H   0  0  0  0  0  0  0  0  0  0  0  0  # atno 6907 bound_to 6896
  150.7618  134.6376  159.6229 H   0  0  0  0  0  0  0  0  0  0  0  0  # atno 6908 bound_to 6896
  152.3601  134.6887  160.0261 H   0  0  0  0  0  0  0  0  0  0  0  0  # atno 6909 bound_to 6896
  146.1373  140.5122  142.8667 H   0  0  0  0  0  0  0  0  0  0  0  0  # atno 7974 bound_to 7965
  155.9723  140.3384  155.6587 H   0  0  0  0  0  0  0  0  0  0  0  0  # atno 8008 bound_to 7997
  155.6658  140.0721  157.2556 H   0  0  0  0  0  0  0  0  0  0  0  0  # atno 8009 bound_to 7997
  154.4169  140.1700  156.1813 H   0  0  0  0  0  0  0  0  0  0  0  0  # atno 8010 bound_to 7997
  140.6061  143.2374  151.5818 H   0  0  0  0  0  0  0  0  0  0  0  0  # atno 10167 bound_to 10162
  156.6204  130.8888  151.2956 H   0  0  0  0  0  0  0  0  0  0  0  0  # atno 10718 bound_to 10713
  154.2323  135.2778  155.2885 H   0  0  0  0  0  0  0  0  0  0  0  0  # atno 10763 bound_to 10752
  154.5614  135.5646  153.7014 H   0  0  0  0  0  0  0  0  0  0  0  0  # atno 10764 bound_to 10752
  153.0017  135.6298  154.2465 H   0  0  0  0  0  0  0  0  0  0  0  0  # atno 10765 bound_to 10752
  141.1602  133.7567  156.9443 H   0  0  0  0  0  0  0  0  0  0  0  0  # atno 11005 bound_to 11000
  144.7753  140.5727  143.6642 LP  0  0  0  0  0  0  0  0  0  0  0  0  # atno 17320 bound_to 7965
  145.5127  139.1479  143.3596 LP  0  0  0  0  0  0  0  0  0  0  0  0  # atno 17321 bound_to 7965
  139.5326  144.2872  152.1181 LP  0  0  0  0  0  0  0  0  0  0  0  0  # atno 17342 bound_to 10162
  140.2062  144.4608  150.6407 LP  0  0  0  0  0  0  0  0  0  0  0  0  # atno 17343 bound_to 10162
  157.7229  130.9583  150.1513 LP  0  0  0  0  0  0  0  0  0  0  0  0  # atno 17370 bound_to 10713
  156.2316  130.3682  149.8438 LP  0  0  0  0  0  0  0  0  0  0  0  0  # atno 17371 bound_to 10713
  140.1300  134.9362  157.2324 LP  0  0  0  0  0  0  0  0  0  0  0  0  # atno 17394 bound_to 11000
  140.2965  134.3181  155.7301 LP  0  0  0  0  0  0  0  0  0  0  0  0  # atno 17395 bound_to 11000

$$$$
