AV-unprocessed.smi:2497|AV-procd|sdf|9829|dock7
  -GOLD-   2272013463D 1   1.00000     0.00000
 Structure written by MMmdl.
 47 48  0  0  0  0  0  0  0  0  1 V2000
  152.3383  144.6829  158.0064 C   0  0  0  0  0  0  0  0  0  0  0  0
  151.3927  143.5153  158.3364 C   0  0  0  0  0  0  0  0  0  0  0  0
  151.9531  142.6883  159.5035 C   0  0  0  0  0  0  0  0  0  0  0  0
  151.1216  142.6166  157.1135 C   0  0  0  0  0  0  0  0  0  0  0  0
  150.1413  141.4629  157.3873 C   0  0  0  0  0  0  0  0  0  0  0  0
  149.7836  140.7729  156.1638 N   0  0  0  0  0  0  0  0  0  0  0  0
  149.4317  141.3143  154.9441 C   0  0  0  0  0  0  0  0  0  0  0  0
  149.1639  140.2768  154.0969 C   0  0  0  0  0  0  0  0  0  0  0  0
  149.3784  139.1261  154.9135 C   0  0  0  0  0  0  0  0  0  0  0  0
  149.2452  137.7757  154.5020 N   0  0  0  0  0  0  0  0  0  0  0  0
  149.1936  136.6745  155.2693 C   0  0  0  0  0  0  0  0  0  0  0  0
  149.2823  136.6632  156.4967 O   0  0  0  0  0  0  0  0  0  0  0  0
  149.0432  135.5729  154.5145 N   0  0  0  0  0  0  0  0  0  0  0  0
  148.9497  134.1705  154.9476 C   0  0  0  0  0  0  0  0  0  0  0  0
  150.1731  133.8115  155.8182 C   0  0  0  0  0  0  0  0  0  0  0  0
  147.6313  133.8868  155.7089 C   0  0  0  0  0  0  0  0  0  0  0  0
  146.3989  134.0277  154.7982 C   0  0  0  0  0  0  0  0  0  0  0  0
  146.5192  133.1486  153.6861 O   0  0  0  0  0  0  0  0  0  0  0  0
  147.6466  133.4405  152.8692 C   0  0  0  0  0  0  0  0  0  0  0  0
  148.9460  133.2848  153.6826 C   0  0  0  0  0  0  0  0  0  0  0  0
  149.7596  139.4230  156.1434 N   0  0  0  0  0  0  0  0  0  0  0  0
  153.2992  144.3223  157.6378 H   0  0  0  0  0  0  0  0  0  0  0  0
  152.5308  145.2918  158.8902 H   0  0  0  0  0  0  0  0  0  0  0  0
  151.9168  145.3431  157.2490 H   0  0  0  0  0  0  0  0  0  0  0  0
  150.4415  143.9354  158.6657 H   0  0  0  0  0  0  0  0  0  0  0  0
  152.9063  142.2281  159.2411 H   0  0  0  0  0  0  0  0  0  0  0  0
  151.2656  141.8912  159.7878 H   0  0  0  0  0  0  0  0  0  0  0  0
  152.1153  143.3099  160.3845 H   0  0  0  0  0  0  0  0  0  0  0  0
  150.7552  143.2266  156.2862 H   0  0  0  0  0  0  0  0  0  0  0  0
  152.0652  142.1864  156.7743 H   0  0  0  0  0  0  0  0  0  0  0  0
  150.5849  140.7416  158.0746 H   0  0  0  0  0  0  0  0  0  0  0  0
  149.2266  141.8265  157.8557 H   0  0  0  0  0  0  0  0  0  0  0  0
  149.4005  142.3818  154.7825 H   0  0  0  0  0  0  0  0  0  0  0  0
  148.8651  140.3460  153.0617 H   0  0  0  0  0  0  0  0  0  0  0  0
  149.2173  137.6299  153.5036 H   0  0  0  0  0  0  0  0  0  0  0  0
  148.9863  135.7181  153.5171 H   0  0  0  0  0  0  0  0  0  0  0  0
  150.1797  132.7509  156.0719 H   0  0  0  0  0  0  0  0  0  0  0  0
  150.1823  134.3635  156.7580 H   0  0  0  0  0  0  0  0  0  0  0  0
  151.1069  134.0281  155.2981 H   0  0  0  0  0  0  0  0  0  0  0  0
  147.6544  132.8684  156.0990 H   0  0  0  0  0  0  0  0  0  0  0  0
  147.5257  134.5307  156.5816 H   0  0  0  0  0  0  0  0  0  0  0  0
  145.4957  133.7697  155.3512 H   0  0  0  0  0  0  0  0  0  0  0  0
  146.2754  135.0559  154.4550 H   0  0  0  0  0  0  0  0  0  0  0  0
  147.6516  132.7517  152.0242 H   0  0  0  0  0  0  0  0  0  0  0  0
  147.5575  134.4457  152.4545 H   0  0  0  0  0  0  0  0  0  0  0  0
  149.8079  133.5118  153.0536 H   0  0  0  0  0  0  0  0  0  0  0  0
  149.0486  132.2370  153.9692 H   0  0  0  0  0  0  0  0  0  0  0  0
  1  2  1  0  0  0  0
  1 22  1  0  0  0  0
  1 23  1  0  0  0  0
  1 24  1  0  0  0  0
  2  3  1  0  0  0  0
  2  4  1  0  0  0  0
  2 25  1  0  0  0  0
  3 26  1  0  0  0  0
  3 27  1  0  0  0  0
  3 28  1  0  0  0  0
  4  5  1  0  0  0  0
  4 29  1  0  0  0  0
  4 30  1  0  0  0  0
  5  6  1  0  0  0  0
  5 31  1  0  0  0  0
  5 32  1  0  0  0  0
  6 21  1  0  0  0  0
  6  7  1  0  0  0  0
  7  8  2  0  0  0  0
  7 33  1  0  0  0  0
  8  9  1  0  0  0  0
  8 34  1  0  0  0  0
  9 10  1  0  0  0  0
  9 21  2  0  0  0  0
 10 11  1  0  0  0  0
 10 35  1  0  0  0  0
 11 12  2  0  0  0  0
 11 13  1  0  0  0  0
 13 14  1  0  0  0  0
 13 36  1  0  0  0  0
 14 20  1  0  0  0  0
 14 15  1  0  0  0  0
 14 16  1  0  0  0  0
 15 37  1  0  0  0  0
 15 38  1  0  0  0  0
 15 39  1  0  0  0  0
 16 17  1  0  0  0  0
 16 40  1  0  0  0  0
 16 41  1  0  0  0  0
 17 18  1  0  0  0  0
 17 42  1  0  0  0  0
 17 43  1  0  0  0  0
 18 19  1  0  0  0  0
 19 20  1  0  0  0  0
 19 44  1  0  0  0  0
 19 45  1  0  0  0  0
 20 46  1  0  0  0  0
 20 47  1  0  0  0  0
M  END
> <s_m_source_file>
AV-unprocessed.smi

> <i_m_source_file_index>
2497

> <i_lp_mmshare_version>
43012

> <i_f3d_flags>
0

> <s_epik_input>
W0NIM11bQ0hdKFtDSDNdKVtDSDJdW0NIMl1uMVtjSF1bY0hdYyhuMSlbTkhdQyg9TylbTkhdQzIoW0NIM10pW0NIMl1bQ0gyXU9bQ0gyXVtDSDJdMg==

> <s_epik_cmdline>
J2VwaWtfcHl0aG9uJywgJy1waCcsICc3LjAnLCAnLXRuJywgJzgnLCAnLW1hJywgJzIwMCcsICctbWV0YWxfYmluZGluZycsICctaW1hZScsICc8aW5maWxlLm1hZT4nLCAnLW9tYWUnLCAnPG91dGZpbGUubWFlPic=

> <r_lp_tautomer_probability>
1

> <r_epik_Ionization_Penalty>
3.57775e-05

> <r_epik_Ionization_Penalty_Charging>
0

> <r_epik_Ionization_Penalty_Neutral>
3.57775e-05

> <r_epik_State_Penalty>
-0

> <r_epik_Charging_Adjusted_Penalty>
0

> <i_epik_Tot_Q>
0

> <i_epik_Tot_abs_Q>
0

> <r_epik_Metal_State_Penalty>
-0

> <b_epik_Metal_Only>
0

> <s_lp_Force_Field>
OPLS_2005

> <r_lp_Energy>
13.1227

> <b_lp_Chiralities_Consistent>
1

> <s_lp_Variant>
AV-unprocessed.smi:2497-1

> <Gold.Version>
5.8.1

> <Gold.Id.Protein>
6NUR|6NUR_protein|mol2

> <Gold.PLP.Fitness>
43.2311

> <Gold.PLP.PLP>
-35.6376

> <Gold.PLP.part.hbond>
-2.0000

> <Gold.PLP.part.metal>
0.0000

> <Gold.PLP.part.buried>
-1.9878

> <Gold.PLP.part.nonpolar>
-31.7796

> <Gold.PLP.part.repulsive>
0.1275

> <Gold.PLP.ligand.clash>
0.0000

> <Gold.PLP.ligand.torsion>
0.3260

> <Gold.PLP.Chemscore.Hbond>
1.7389

> <Gold.PLP.Chemscore.CHOScore>
1.0000

> <Gold.PLP.Chemscore.Metal>
0.0000

> <Gold.Chemscore.Hbonds>
donor molecule, donor type, donor heavy atom, donor atom, acceptor molecule, acceptor atom, score
      L1  H    10    35       P1  7948  0.67
      L1  H    13    36       P1  7948  1.00
      L1  C     7    33       P1  8028  0.98

> <Gold.PLP.Chemscore.Internal.Correction>
0.0288

> <Gold.Rescore>
     Score         DG    S(hbond)    S(metal)    S(lipo)     H(rot)  DE(clash)    DE(int)     intcor
     16.20     -17.99       1.61        0.00      93.11       1.47       0.18       1.61       ----

> <Gold.Chemscore.Fitness>
16.1987

> <Gold.Chemscore.DG>
-17.9865

> <Gold.Chemscore.ZeroCoef>
-5.4800

> <Gold.Chemscore.Hbond>
1.6095

> <Gold.Chemscore.Metal>
0.0000

> <Gold.Chemscore.Lipo>
93.1060

> <Gold.Chemscore.Internal_Hbond>
0.0000

> <Gold.Chemscore.DEClash>
0.1761

> <Gold.Chemscore.DEInternal>
1.6116

> <Gold.Chemscore.Rot>
1.4698

> <Gold.Chemscore.Internal.Correction>
   9.000000E+99

> <Gold.Chemscore.Hbonds>
donor molecule, donor type, donor heavy atom, donor atom, acceptor molecule, acceptor atom, score
      L1  H    10    35       P1  7948  0.65
      L1  H    13    36       P1  7948  0.88

> <Gold.Chemscore.Hbond.Weighted>
-5.3758

> <Gold.Chemscore.Metal.Weighted>
-0.0000

> <Gold.Chemscore.Lipo.Weighted>
-10.8934

> <Gold.Chemscore.Internal_Hbond.Weighted>
0.0000

> <Gold.Chemscore.DEClash.Weighted>
0.1761

> <Gold.Chemscore.DEInternal.Weighted>
1.6116

> <Gold.Chemscore.Rot.Weighted>
3.7628

> <Gold.Chemscore.Internal.Correction.Weighted>
   9.000000E+99

> <Gold.Protein.RotatedTorsions>
[ 6907 6896 6895 6894 ] final   54.40 input  -60.11 | X-H torsion
[ 7974 7965 7964 7962 ] final  126.08 input  175.53 | X-H torsion
[ 8008 7997 7996 7995 ] final  -76.73 input   59.86 | X-H torsion
[ 10167 10162 10161 10158 ] final   72.88 input  -65.29 | X-H torsion
[ 10718 10713 10712 10709 ] final   77.63 input   66.30 | X-H torsion
[ 10763 10752 10751 10750 ] final   95.23 input  -60.55 | X-H torsion
[ 11005 11000 10999 10996 ] final   63.55 input  -57.11 | X-H torsion

> <Gold.Protein.ActiveResidues>
 VAL166  LYS551  ARG553  GLY616  TRP617  ASP618  TYR619  PRO620  LYS621  CYS622 
 ASP623  PHE694  ASN695  SER759  ASP760  ASP761  ALA762  ILE779  LEU786  VAL792 
 PHE793  MET794  SER795  GLU796  ALA797  LYS798  CYS799  TRP800  GLU811  SER814 

> <Gold.Protein.RotatedAtoms>
  152.3435  134.7103  160.0256 H   0  0  0  0  0  0  0  0  0  0  0  0  # atno 6907 bound_to 6896
  151.7480  133.3320  159.3392 H   0  0  0  0  0  0  0  0  0  0  0  0  # atno 6908 bound_to 6896
  150.7494  134.6151  159.6151 H   0  0  0  0  0  0  0  0  0  0  0  0  # atno 6909 bound_to 6896
  145.0657  139.3769  143.4983 H   0  0  0  0  0  0  0  0  0  0  0  0  # atno 7974 bound_to 7965
  154.5532  140.0722  156.8701 H   0  0  0  0  0  0  0  0  0  0  0  0  # atno 8008 bound_to 7997
  155.2953  140.3380  155.4232 H   0  0  0  0  0  0  0  0  0  0  0  0  # atno 8009 bound_to 7997
  156.1979  140.1710  156.7946 H   0  0  0  0  0  0  0  0  0  0  0  0  # atno 8010 bound_to 7997
  140.0305  144.5469  150.7511 H   0  0  0  0  0  0  0  0  0  0  0  0  # atno 10167 bound_to 10162
  157.6717  130.9830  150.1669 H   0  0  0  0  0  0  0  0  0  0  0  0  # atno 10718 bound_to 10713
  153.2508  135.4261  155.0795 H   0  0  0  0  0  0  0  0  0  0  0  0  # atno 10763 bound_to 10752
  154.8380  135.3425  154.6516 H   0  0  0  0  0  0  0  0  0  0  0  0  # atno 10764 bound_to 10752
  153.6937  135.7032  153.5139 H   0  0  0  0  0  0  0  0  0  0  0  0  # atno 10765 bound_to 10752
  140.0017  134.6432  155.9920 H   0  0  0  0  0  0  0  0  0  0  0  0  # atno 11005 bound_to 11000
  146.3526  140.0377  142.8645 LP  0  0  0  0  0  0  0  0  0  0  0  0  # atno 17320 bound_to 7965
  145.1354  140.9541  143.4520 LP  0  0  0  0  0  0  0  0  0  0  0  0  # atno 17321 bound_to 7965
  140.7304  143.2683  151.3972 LP  0  0  0  0  0  0  0  0  0  0  0  0  # atno 17342 bound_to 10162
  139.6079  144.1159  152.2268 LP  0  0  0  0  0  0  0  0  0  0  0  0  # atno 17343 bound_to 10162
  156.2432  130.3693  149.8314 LP  0  0  0  0  0  0  0  0  0  0  0  0  # atno 17370 bound_to 10713
  156.6108  130.8585  151.3453 LP  0  0  0  0  0  0  0  0  0  0  0  0  # atno 17371 bound_to 10713
  141.1647  133.6537  156.4438 LP  0  0  0  0  0  0  0  0  0  0  0  0  # atno 17394 bound_to 11000
  140.4715  134.6748  157.5131 LP  0  0  0  0  0  0  0  0  0  0  0  0  # atno 17395 bound_to 11000

$$$$
