AV-unprocessed.smi:3252|AV-procd|sdf|12444|dock3
  -GOLD-   2272018333D 1   1.00000     0.00000
 Structure written by MMmdl.
 36 37  0  0  0  0  0  0  0  0  1 V2000
  154.1551  140.4276  159.5808 C   0  0  0  0  0  0  0  0  0  0  0  0
  153.7273  141.4537  160.6397 C   0  0  0  0  0  0  0  0  0  0  0  0
  152.9222  142.5635  160.1331 N   0  0  0  0  0  0  0  0  0  0  0  0
  152.5522  143.5120  161.1808 C   0  0  0  0  0  0  0  0  0  0  0  0
  151.6731  144.6519  160.6381 C   0  0  0  0  0  0  0  0  0  0  0  0
  150.5229  144.1074  159.9990 O   0  0  0  0  0  0  0  0  0  0  0  0
  150.8469  143.2237  158.9280 C   0  0  2  0  0  0  0  0  0  0  0  0
  149.5421  142.7028  158.3111 C   0  0  0  0  0  0  0  0  0  0  0  0
  149.6367  142.5990  156.8618 N   0  0  0  0  0  0  0  0  0  0  0  0
  150.1972  141.4655  156.2579 C   0  0  0  0  0  0  0  0  0  0  0  0
  149.5506  140.9097  155.1337 C   0  0  0  0  0  0  0  0  0  0  0  0
  150.1121  139.7730  154.5196 C   0  0  0  0  0  0  0  0  0  0  0  0
  151.2990  139.2313  155.0515 C   0  0  0  0  0  0  0  0  0  0  0  0
  151.9175  138.0605  154.4532 C   0  0  0  0  0  0  0  0  0  0  0  0
  152.4102  137.1284  153.9766 N   0  0  0  0  0  0  0  0  0  0  0  0
  151.8715  139.8549  156.1788 C   0  0  0  0  0  0  0  0  0  0  0  0
  151.3383  140.9455  156.7708 N   0  0  0  0  0  0  0  0  0  0  0  0
  151.7081  142.0753  159.4885 C   0  0  0  0  0  0  0  0  0  0  0  0
  154.6593  139.5828  160.0502 H   0  0  0  0  0  0  0  0  0  0  0  0
  154.8467  140.8538  158.8543 H   0  0  0  0  0  0  0  0  0  0  0  0
  153.2925  140.0380  159.0397 H   0  0  0  0  0  0  0  0  0  0  0  0
  153.1512  140.9192  161.3964 H   0  0  0  0  0  0  0  0  0  0  0  0
  154.6099  141.8386  161.1525 H   0  0  0  0  0  0  0  0  0  0  0  0
  152.0173  142.9926  161.9773 H   0  0  0  0  0  0  0  0  0  0  0  0
  153.4444  143.9444  161.6323 H   0  0  0  0  0  0  0  0  0  0  0  0
  151.3539  145.3045  161.4507 H   0  0  0  0  0  0  0  0  0  0  0  0
  152.2315  145.2686  159.9321 H   0  0  0  0  0  0  0  0  0  0  0  0
  151.4172  143.7627  158.1688 H   0  0  0  0  0  0  0  0  0  0  0  0
  149.3227  141.7130  158.7134 H   0  0  0  0  0  0  0  0  0  0  0  0
  148.7092  143.3530  158.5816 H   0  0  0  0  0  0  0  0  0  0  0  0
  149.3151  143.3702  156.2946 H   0  0  0  0  0  0  0  0  0  0  0  0
  148.6417  141.3451  154.7446 H   0  0  0  0  0  0  0  0  0  0  0  0
  149.6366  139.3304  153.6560 H   0  0  0  0  0  0  0  0  0  0  0  0
  152.7813  139.4743  156.6207 H   0  0  0  0  0  0  0  0  0  0  0  0
  151.9718  141.3958  158.6771 H   0  0  0  0  0  0  0  0  0  0  0  0
  151.1198  141.4944  160.2008 H   0  0  0  0  0  0  0  0  0  0  0  0
  1  2  1  0  0  0  0
  1 19  1  0  0  0  0
  1 20  1  0  0  0  0
  1 21  1  0  0  0  0
  2  3  1  0  0  0  0
  2 22  1  0  0  0  0
  2 23  1  0  0  0  0
  3 18  1  0  0  0  0
  3  4  1  0  0  0  0
  4  5  1  0  0  0  0
  4 24  1  0  0  0  0
  4 25  1  0  0  0  0
  5  6  1  0  0  0  0
  5 26  1  0  0  0  0
  5 27  1  0  0  0  0
  6  7  1  0  0  0  0
  7  8  1  0  0  0  0
  7 18  1  0  0  0  0
  7 28  1  0  0  0  0
  8  9  1  0  0  0  0
  8 29  1  0  0  0  0
  8 30  1  0  0  0  0
  9 10  1  0  0  0  0
  9 31  1  0  0  0  0
 10 17  1  0  0  0  0
 10 11  2  0  0  0  0
 11 12  1  0  0  0  0
 11 32  1  0  0  0  0
 12 13  2  0  0  0  0
 12 33  1  0  0  0  0
 13 14  1  0  0  0  0
 13 16  1  0  0  0  0
 14 15  3  0  0  0  0
 16 17  2  0  0  0  0
 16 34  1  0  0  0  0
 18 35  1  0  0  0  0
 18 36  1  0  0  0  0
M  END
> <s_m_source_file>
AV-unprocessed.smi

> <i_m_source_file_index>
3252

> <i_lp_mmshare_version>
43012

> <i_f3d_flags>
0

> <s_epik_input>
W0NIM11bQ0gyXU4xW0NIMl1bQ0gyXU9bQ0BIXShbQ0gyXTEpW0NIMl1bTkhdYzJbY0hdW2NIXWMoQyNOKVtjSF1uMg==

> <s_epik_cmdline>
J2VwaWtfcHl0aG9uJywgJy1waCcsICc3LjAnLCAnLXRuJywgJzgnLCAnLW1hJywgJzIwMCcsICctbWV0YWxfYmluZGluZycsICctaW1hZScsICc8aW5maWxlLm1hZT4nLCAnLW9tYWUnLCAnPG91dGZpbGUubWFlPic=

> <r_epik_Ionization_Penalty>
0.797836

> <r_epik_Ionization_Penalty_Charging>
0

> <r_epik_Ionization_Penalty_Neutral>
0.797836

> <r_epik_State_Penalty>
0.828842

> <r_epik_Charging_Adjusted_Penalty>
0.828842

> <i_epik_Tot_Q>
0

> <i_epik_Tot_abs_Q>
0

> <r_epik_Metal_State_Penalty>
0.828842

> <b_epik_Metal_Only>
0

> <s_lp_Force_Field>
OPLS_2005

> <r_lp_Energy>
23.1529

> <b_lp_Chiralities_Consistent>
1

> <s_lp_Variant>
AV-unprocessed.smi:3252-6

> <Gold.Version>
5.8.1

> <Gold.Id.Protein>
6NUR|6NUR_protein|mol2

> <Gold.PLP.Fitness>
41.1403

> <Gold.PLP.PLP>
-37.7822

> <Gold.PLP.part.hbond>
-1.7230

> <Gold.PLP.part.metal>
0.0000

> <Gold.PLP.part.buried>
-4.7359

> <Gold.PLP.part.nonpolar>
-32.5154

> <Gold.PLP.part.repulsive>
1.1224

> <Gold.PLP.ligand.clash>
0.0000

> <Gold.PLP.ligand.torsion>
1.0723

> <Gold.PLP.Chemscore.Hbond>
1.8320

> <Gold.PLP.Chemscore.CHOScore>
0.0000

> <Gold.PLP.Chemscore.Metal>
0.0000

> <Gold.Chemscore.Hbonds>
donor molecule, donor type, donor heavy atom, donor atom, acceptor molecule, acceptor atom, score
      L1  H     9    31       P1  8028  1.00
      P1  H 10752 10765       L1    15  0.86

> <Gold.PLP.Chemscore.Internal.Correction>
0.0067

> <Gold.Rescore>
     Score         DG    S(hbond)    S(metal)    S(lipo)     H(rot)  DE(clash)    DE(int)     intcor
     16.17     -18.38       1.72        0.00      92.43       1.43       0.07       2.14       ----

> <Gold.Chemscore.Fitness>
16.1684

> <Gold.Chemscore.DG>
-18.3751

> <Gold.Chemscore.ZeroCoef>
-5.4800

> <Gold.Chemscore.Hbond>
1.7215

> <Gold.Chemscore.Metal>
0.0000

> <Gold.Chemscore.Lipo>
92.4282

> <Gold.Chemscore.Internal_Hbond>
0.0000

> <Gold.Chemscore.DEClash>
0.0653

> <Gold.Chemscore.DEInternal>
2.1414

> <Gold.Chemscore.Rot>
1.4331

> <Gold.Chemscore.Internal.Correction>
   9.000000E+99

> <Gold.Chemscore.Hbonds>
donor molecule, donor type, donor heavy atom, donor atom, acceptor molecule, acceptor atom, score
      L1  H     9    31       P1  8028  0.95
      P1  H 10752 10765       L1    15  0.79

> <Gold.Chemscore.Hbond.Weighted>
-5.7498

> <Gold.Chemscore.Metal.Weighted>
-0.0000

> <Gold.Chemscore.Lipo.Weighted>
-10.8141

> <Gold.Chemscore.Internal_Hbond.Weighted>
0.0000

> <Gold.Chemscore.DEClash.Weighted>
0.0653

> <Gold.Chemscore.DEInternal.Weighted>
2.1414

> <Gold.Chemscore.Rot.Weighted>
3.6688

> <Gold.Chemscore.Internal.Correction.Weighted>
   9.000000E+99

> <Gold.Protein.RotatedTorsions>
[ 6907 6896 6895 6894 ] final   72.57 input  -60.11 | X-H torsion
[ 7974 7965 7964 7962 ] final -131.71 input  175.53 | X-H torsion
[ 8008 7997 7996 7995 ] final   14.23 input   59.86 | X-H torsion
[ 10167 10162 10161 10158 ] final   67.24 input  -65.29 | X-H torsion
[ 10718 10713 10712 10709 ] final   20.71 input   66.30 | X-H torsion
[ 10763 10752 10751 10750 ] final  144.72 input  -60.55 | X-H torsion
[ 11005 11000 10999 10996 ] final  149.31 input  -57.11 | X-H torsion

> <Gold.Protein.ActiveResidues>
 VAL166  LYS551  ARG553  GLY616  TRP617  ASP618  TYR619  PRO620  LYS621  CYS622 
 ASP623  PHE694  ASN695  SER759  ASP760  ASP761  ALA762  ILE779  LEU786  VAL792 
 PHE793  MET794  SER795  GLU796  ALA797  LYS798  CYS799  TRP800  GLU811  SER814 

> <Gold.Protein.RotatedAtoms>
  152.4875  134.4551  159.9586 H   0  0  0  0  0  0  0  0  0  0  0  0  # atno 6907 bound_to 6896
  151.4544  133.3603  159.2808 H   0  0  0  0  0  0  0  0  0  0  0  0  # atno 6908 bound_to 6896
  150.8999  134.8435  159.7413 H   0  0  0  0  0  0  0  0  0  0  0  0  # atno 6909 bound_to 6896
  144.9354  140.7177  143.4880 H   0  0  0  0  0  0  0  0  0  0  0  0  # atno 7974 bound_to 7965
  154.8455  140.2921  155.5632 H   0  0  0  0  0  0  0  0  0  0  0  0  # atno 8008 bound_to 7997
  156.3014  140.2506  156.3337 H   0  0  0  0  0  0  0  0  0  0  0  0  # atno 8009 bound_to 7997
  154.9078  140.0389  157.1919 H   0  0  0  0  0  0  0  0  0  0  0  0  # atno 8010 bound_to 7997
  140.0917  144.4982  150.7094 H   0  0  0  0  0  0  0  0  0  0  0  0  # atno 10167 bound_to 10162
  157.1283  130.6579  149.5944 H   0  0  0  0  0  0  0  0  0  0  0  0  # atno 10718 bound_to 10713
  153.9936  135.2930  155.3409 H   0  0  0  0  0  0  0  0  0  0  0  0  # atno 10763 bound_to 10752
  154.7200  135.5113  153.8800 H   0  0  0  0  0  0  0  0  0  0  0  0  # atno 10764 bound_to 10752
  153.0798  135.6675  154.0186 H   0  0  0  0  0  0  0  0  0  0  0  0  # atno 10765 bound_to 10752
  140.1034  134.8969  157.1830 H   0  0  0  0  0  0  0  0  0  0  0  0  # atno 11005 bound_to 11000
  145.3076  139.1829  143.4656 LP  0  0  0  0  0  0  0  0  0  0  0  0  # atno 17320 bound_to 7965
  146.3264  140.3076  142.8624 LP  0  0  0  0  0  0  0  0  0  0  0  0  # atno 17321 bound_to 7965
  140.7025  143.2444  151.4823 LP  0  0  0  0  0  0  0  0  0  0  0  0  # atno 17342 bound_to 10162
  139.5721  144.1904  152.1851 LP  0  0  0  0  0  0  0  0  0  0  0  0  # atno 17343 bound_to 10162
  155.9813  130.4820  150.6822 LP  0  0  0  0  0  0  0  0  0  0  0  0  # atno 17370 bound_to 10713
  157.4415  131.0862  151.0938 LP  0  0  0  0  0  0  0  0  0  0  0  0  # atno 17371 bound_to 10713
  140.3189  134.2939  155.7250 LP  0  0  0  0  0  0  0  0  0  0  0  0  # atno 17394 bound_to 11000
  141.2112  133.7697  156.9882 LP  0  0  0  0  0  0  0  0  0  0  0  0  # atno 17395 bound_to 11000

$$$$
