AV-unprocessed.smi:2345|AV-procd|sdf|9361|dock9
  -GOLD-   2272012583D 1   1.00000     0.00000
 Structure written by MMmdl.
 37 38  0  0  0  0  0  0  0  0  1 V2000
  151.2067  136.3343  154.2746 C   0  0  0  0  0  0  0  0  0  0  0  0
  150.1802  137.3714  154.7366 C   0  0  0  0  0  0  0  0  0  0  0  0
  150.3986  138.9524  153.8739 S   0  0  0  0  0  0  0  0  0  0  0  0
  149.0148  139.9053  154.5672 C   0  0  2  0  0  0  0  0  0  0  0  0
  147.6763  139.5288  153.9268 C   0  0  0  0  0  0  0  0  0  0  0  0
  146.8057  140.7641  154.1294 C   0  0  0  0  0  0  0  0  0  0  0  0
  147.7668  141.9357  153.9262 C   0  0  0  0  0  0  0  0  0  0  0  0
  149.1567  141.4288  154.3611 C   0  0  1  0  0  0  0  0  0  0  0  0
  149.5951  142.0761  155.5952 N   0  0  0  0  0  0  0  0  0  0  0  0
  150.6548  141.7034  156.3260 C   0  0  0  0  0  0  0  0  0  0  0  0
  151.4010  140.7757  156.0142 O   0  0  0  0  0  0  0  0  0  0  0  0
  150.7681  142.4570  157.4327 N   0  0  0  0  0  0  0  0  0  0  0  0
  151.7358  142.3696  158.4701 C   0  0  0  0  0  0  0  0  0  0  0  0
  152.3705  141.1665  158.8631 C   0  0  0  0  0  0  0  0  0  0  0  0
  153.3275  141.2152  159.8966 C   0  0  0  0  0  0  0  0  0  0  0  0
  153.6808  142.3533  160.5306 N   0  0  0  0  0  0  0  0  0  0  0  0
  153.0845  143.5006  160.1430 C   0  0  0  0  0  0  0  0  0  0  0  0
  152.1159  143.5622  159.1212 C   0  0  0  0  0  0  0  0  0  0  0  0
  151.5588  144.7488  158.7776 F   0  0  0  0  0  0  0  0  0  0  0  0
  151.0727  135.3919  154.8056 H   0  0  0  0  0  0  0  0  0  0  0  0
  152.2243  136.6792  154.4591 H   0  0  0  0  0  0  0  0  0  0  0  0
  151.1080  136.1329  153.2076 H   0  0  0  0  0  0  0  0  0  0  0  0
  149.1710  137.0025  154.5533 H   0  0  0  0  0  0  0  0  0  0  0  0
  150.2749  137.5336  155.8102 H   0  0  0  0  0  0  0  0  0  0  0  0
  148.9464  139.6771  155.6325 H   0  0  0  0  0  0  0  0  0  0  0  0
  147.8061  139.3490  152.8585 H   0  0  0  0  0  0  0  0  0  0  0  0
  147.2397  138.6309  154.3651 H   0  0  0  0  0  0  0  0  0  0  0  0
  145.9548  140.7962  153.4483 H   0  0  0  0  0  0  0  0  0  0  0  0
  146.4188  140.7774  155.1493 H   0  0  0  0  0  0  0  0  0  0  0  0
  147.7971  142.1969  152.8675 H   0  0  0  0  0  0  0  0  0  0  0  0
  147.4401  142.8269  154.4641 H   0  0  0  0  0  0  0  0  0  0  0  0
  149.8723  141.6318  153.5616 H   0  0  0  0  0  0  0  0  0  0  0  0
  149.0356  142.8486  155.9260 H   0  0  0  0  0  0  0  0  0  0  0  0
  150.0301  143.1277  157.5902 H   0  0  0  0  0  0  0  0  0  0  0  0
  152.1550  140.2205  158.3908 H   0  0  0  0  0  0  0  0  0  0  0  0
  153.8282  140.3141  160.2181 H   0  0  0  0  0  0  0  0  0  0  0  0
  153.3895  144.3972  160.6620 H   0  0  0  0  0  0  0  0  0  0  0  0
  1  2  1  0  0  0  0
  1 20  1  0  0  0  0
  1 21  1  0  0  0  0
  1 22  1  0  0  0  0
  2  3  1  0  0  0  0
  2 23  1  0  0  0  0
  2 24  1  0  0  0  0
  3  4  1  0  0  0  0
  4  8  1  0  0  0  0
  4  5  1  0  0  0  0
  4 25  1  0  0  0  0
  5  6  1  0  0  0  0
  5 26  1  0  0  0  0
  5 27  1  0  0  0  0
  6  7  1  0  0  0  0
  6 28  1  0  0  0  0
  6 29  1  0  0  0  0
  7  8  1  0  0  0  0
  7 30  1  0  0  0  0
  7 31  1  0  0  0  0
  8  9  1  0  0  0  0
  8 32  1  0  0  0  0
  9 10  1  0  0  0  0
  9 33  1  0  0  0  0
 10 11  2  0  0  0  0
 10 12  1  0  0  0  0
 12 13  1  0  0  0  0
 12 34  1  0  0  0  0
 13 18  1  0  0  0  0
 13 14  2  0  0  0  0
 14 15  1  0  0  0  0
 14 35  1  0  0  0  0
 15 16  2  0  0  0  0
 15 36  1  0  0  0  0
 16 17  1  0  0  0  0
 17 18  2  0  0  0  0
 17 37  1  0  0  0  0
 18 19  1  0  0  0  0
M  END
> <s_m_source_file>
AV-unprocessed.smi

> <i_m_source_file_index>
2345

> <i_lp_mmshare_version>
43012

> <i_f3d_flags>
0

> <s_epik_input>
W0NIM11bQ0gyXVNbQ0BASF0xW0NIMl1bQ0gyXVtDSDJdW0NASF0xW05IXUMoPU8pW05IXWMyW2NIXVtjSF1uW2NIXWMyRg==

> <s_epik_cmdline>
J2VwaWtfcHl0aG9uJywgJy1waCcsICc3LjAnLCAnLXRuJywgJzgnLCAnLW1hJywgJzIwMCcsICctbWV0YWxfYmluZGluZycsICctaW1hZScsICc8aW5maWxlLm1hZT4nLCAnLW9tYWUnLCAnPG91dGZpbGUubWFlPic=

> <r_epik_Ionization_Penalty>
0.00333745

> <r_epik_Ionization_Penalty_Charging>
0

> <r_epik_Ionization_Penalty_Neutral>
0.00333745

> <r_epik_State_Penalty>
0.00233401

> <r_epik_Charging_Adjusted_Penalty>
0.00233401

> <i_epik_Tot_Q>
0

> <i_epik_Tot_abs_Q>
0

> <r_epik_Metal_State_Penalty>
-0

> <b_epik_Metal_Only>
0

> <s_lp_Force_Field>
OPLS_2005

> <r_lp_Energy>
20.2563

> <b_lp_Chiralities_Consistent>
1

> <s_lp_Variant>
AV-unprocessed.smi:2345-1

> <Gold.Version>
5.8.1

> <Gold.Id.Protein>
6NUR|6NUR_protein|mol2

> <Gold.PLP.Fitness>
42.6645

> <Gold.PLP.PLP>
-40.5385

> <Gold.PLP.part.hbond>
-1.0000

> <Gold.PLP.part.metal>
0.0000

> <Gold.PLP.part.buried>
-4.1086

> <Gold.PLP.part.nonpolar>
-33.6132

> <Gold.PLP.part.repulsive>
0.1885

> <Gold.PLP.ligand.clash>
0.0000

> <Gold.PLP.ligand.torsion>
0.4405

> <Gold.PLP.Chemscore.Hbond>
1.0000

> <Gold.PLP.Chemscore.CHOScore>
0.0000

> <Gold.PLP.Chemscore.Metal>
0.0000

> <Gold.Chemscore.Hbonds>
donor molecule, donor type, donor heavy atom, donor atom, acceptor molecule, acceptor atom, score
      L1  H     9    33       P1  8028  0.78

> <Gold.PLP.Chemscore.Internal.Correction>
0.0069

> <Gold.Rescore>
     Score         DG    S(hbond)    S(metal)    S(lipo)     H(rot)  DE(clash)    DE(int)     intcor
     15.30     -16.83       0.91        0.00     100.53       1.35       0.20       1.34       ----

> <Gold.Chemscore.Fitness>
15.2958

> <Gold.Chemscore.DG>
-16.8281

> <Gold.Chemscore.ZeroCoef>
-5.4800

> <Gold.Chemscore.Hbond>
0.9090

> <Gold.Chemscore.Metal>
0.0000

> <Gold.Chemscore.Lipo>
100.5282

> <Gold.Chemscore.Internal_Hbond>
0.0000

> <Gold.Chemscore.DEClash>
0.1959

> <Gold.Chemscore.DEInternal>
1.3365

> <Gold.Chemscore.Rot>
1.3475

> <Gold.Chemscore.Internal.Correction>
   9.000000E+99

> <Gold.Chemscore.Hbonds>
donor molecule, donor type, donor heavy atom, donor atom, acceptor molecule, acceptor atom, score
      L1  H     9    33       P1  8028  0.78

> <Gold.Chemscore.Hbond.Weighted>
-3.0360

> <Gold.Chemscore.Metal.Weighted>
-0.0000

> <Gold.Chemscore.Lipo.Weighted>
-11.7618

> <Gold.Chemscore.Internal_Hbond.Weighted>
0.0000

> <Gold.Chemscore.DEClash.Weighted>
0.1959

> <Gold.Chemscore.DEInternal.Weighted>
1.3365

> <Gold.Chemscore.Rot.Weighted>
3.4496

> <Gold.Chemscore.Internal.Correction.Weighted>
   9.000000E+99

> <Gold.Protein.RotatedTorsions>
[ 6907 6896 6895 6894 ] final   -4.25 input  -60.11 | X-H torsion
[ 7974 7965 7964 7962 ] final  -41.31 input  175.53 | X-H torsion
[ 8008 7997 7996 7995 ] final  137.09 input   59.86 | X-H torsion
[ 10167 10162 10161 10158 ] final   48.28 input  -65.29 | X-H torsion
[ 10718 10713 10712 10709 ] final  -57.72 input   66.30 | X-H torsion
[ 10763 10752 10751 10750 ] final -146.77 input  -60.55 | X-H torsion
[ 11005 11000 10999 10996 ] final   85.47 input  -57.11 | X-H torsion

> <Gold.Protein.ActiveResidues>
 VAL166  LYS551  ARG553  GLY616  TRP617  ASP618  TYR619  PRO620  LYS621  CYS622 
 ASP623  PHE694  ASN695  SER759  ASP760  ASP761  ALA762  ILE779  LEU786  VAL792 
 PHE793  MET794  SER795  GLU796  ALA797  LYS798  CYS799  TRP800  GLU811  SER814 

> <Gold.Protein.RotatedAtoms>
  151.5007  135.1061  159.9827 H   0  0  0  0  0  0  0  0  0  0  0  0  # atno 6907 bound_to 6896
  152.4703  133.8010  159.6963 H   0  0  0  0  0  0  0  0  0  0  0  0  # atno 6908 bound_to 6896
  150.8708  133.7445  159.2988 H   0  0  0  0  0  0  0  0  0  0  0  0  # atno 6909 bound_to 6896
  146.0223  140.6835  142.9172 H   0  0  0  0  0  0  0  0  0  0  0  0  # atno 7974 bound_to 7965
  156.3003  140.2428  156.3853 H   0  0  0  0  0  0  0  0  0  0  0  0  # atno 8008 bound_to 7997
  154.8663  140.0418  157.1716 H   0  0  0  0  0  0  0  0  0  0  0  0  # atno 8009 bound_to 7997
  154.8842  140.2954  155.5411 H   0  0  0  0  0  0  0  0  0  0  0  0  # atno 8010 bound_to 7997
  140.2949  144.3003  150.6232 H   0  0  0  0  0  0  0  0  0  0  0  0  # atno 10167 bound_to 10162
  156.1189  130.4168  150.0479 H   0  0  0  0  0  0  0  0  0  0  0  0  # atno 10718 bound_to 10713
  154.8320  135.3378  154.6713 H   0  0  0  0  0  0  0  0  0  0  0  0  # atno 10763 bound_to 10752
  153.7332  135.6950  153.4989 H   0  0  0  0  0  0  0  0  0  0  0  0  # atno 10764 bound_to 10752
  153.2297  135.4420  155.0533 H   0  0  0  0  0  0  0  0  0  0  0  0  # atno 10765 bound_to 10752
  139.8971  134.8289  156.2586 H   0  0  0  0  0  0  0  0  0  0  0  0  # atno 11005 bound_to 11000
  144.6995  140.3588  143.7168 LP  0  0  0  0  0  0  0  0  0  0  0  0  # atno 17320 bound_to 7965
  145.7174  139.1700  143.2504 LP  0  0  0  0  0  0  0  0  0  0  0  0  # atno 17321 bound_to 7965
  140.5701  143.2182  151.7614 LP  0  0  0  0  0  0  0  0  0  0  0  0  # atno 17342 bound_to 10162
  139.4929  144.4229  151.9958 LP  0  0  0  0  0  0  0  0  0  0  0  0  # atno 17343 bound_to 10162
  156.8423  130.9430  151.3631 LP  0  0  0  0  0  0  0  0  0  0  0  0  # atno 17370 bound_to 10713
  157.6373  130.8777  149.9382 LP  0  0  0  0  0  0  0  0  0  0  0  0  # atno 17371 bound_to 10713
  141.0177  133.7059  156.1216 LP  0  0  0  0  0  0  0  0  0  0  0  0  # atno 17394 bound_to 11000
  140.7278  134.4288  157.5569 LP  0  0  0  0  0  0  0  0  0  0  0  0  # atno 17395 bound_to 11000

$$$$
