AV-unprocessed.smi:612|AV-procd|sdf|3063|dock7
  -GOLD-   2262023583D 1   1.00000     0.00000
 Structure written by MMmdl.
 50 52  0  0  0  0  0  0  0  0  2 V2000
  154.7241  140.9887  160.6773 C   0  0  0  0  0  0  0  0  0  0  0  0
  153.5147  141.5406  160.0612 N   0  0  0  0  0  0  0  0  0  0  0  0
  153.0013  142.7349  160.5938 C   0  0  0  0  0  0  0  0  0  0  0  0
  151.8981  143.3097  160.0958 C   0  0  0  0  0  0  0  0  0  0  0  0
  151.2336  142.6724  158.9845 C   0  0  0  0  0  0  0  0  0  0  0  0
  151.7150  141.5212  158.4502 C   0  0  0  0  0  0  0  0  0  0  0  0
  151.1322  140.8273  157.3740 N   0  0  0  0  0  0  0  0  0  0  0  0
  149.9039  140.9470  156.8365 C   0  0  0  0  0  0  0  0  0  0  0  0
  149.0313  141.7361  157.1969 O   0  0  0  0  0  0  0  0  0  0  0  0
  149.7439  140.0872  155.8195 N   0  0  0  0  0  0  0  0  0  0  0  0
  148.5442  139.9523  154.9967 C   0  0  2  0  0  0  0  0  0  0  0  0
  148.4534  141.1163  153.9943 C   0  0  0  0  0  0  0  0  0  0  0  0
  147.1289  141.0702  153.2073 C   0  0  0  0  0  0  0  0  0  0  0  0
  145.9419  141.0597  154.1075 N   0  3  2  0  0  0  0  0  0  0  0  0
  145.6468  142.3721  154.7577 C   0  0  0  0  0  0  0  0  0  0  0  0
  144.3249  142.3919  155.5376 C   0  0  0  0  0  0  0  0  0  0  0  0
  143.9763  143.8751  155.6883 C   0  0  0  0  0  0  0  0  0  0  0  0
  144.6555  144.5923  154.5141 C   0  0  0  0  0  0  0  0  0  0  0  0
  145.4484  143.5204  153.7577 C   0  0  0  0  0  0  0  0  0  0  0  0
  146.0074  139.9041  155.0450 C   0  0  0  0  0  0  0  0  0  0  0  0
  147.2939  139.9204  155.8919 C   0  0  0  0  0  0  0  0  0  0  0  0
  152.9276  140.8926  159.0112 C   0  0  0  0  0  0  0  0  0  0  0  0
  153.3968  139.8413  158.5677 O   0  0  0  0  0  0  0  0  0  0  0  0
  155.1088  141.6131  161.4845 H   0  0  0  0  0  0  0  0  0  0  0  0
  155.5205  140.8888  159.9384 H   0  0  0  0  0  0  0  0  0  0  0  0
  154.5228  140.0019  161.0967 H   0  0  0  0  0  0  0  0  0  0  0  0
  153.5535  143.1496  161.4246 H   0  0  0  0  0  0  0  0  0  0  0  0
  151.5145  144.2277  160.5161 H   0  0  0  0  0  0  0  0  0  0  0  0
  150.3399  143.1471  158.6153 H   0  0  0  0  0  0  0  0  0  0  0  0
  151.7481  140.1606  156.9313 H   0  0  0  0  0  0  0  0  0  0  0  0
  150.5174  139.4781  155.5948 H   0  0  0  0  0  0  0  0  0  0  0  0
  148.5730  139.0192  154.4312 H   0  0  0  0  0  0  0  0  0  0  0  0
  148.5438  142.0706  154.5148 H   0  0  0  0  0  0  0  0  0  0  0  0
  149.2922  141.0703  153.2988 H   0  0  0  0  0  0  0  0  0  0  0  0
  147.0788  141.8922  152.4944 H   0  0  0  0  0  0  0  0  0  0  0  0
  147.1051  140.1617  152.6041 H   0  0  0  0  0  0  0  0  0  0  0  0
  146.4538  142.6411  155.4400 H   0  0  0  0  0  0  0  0  0  0  0  0
  143.5432  141.8922  154.9630 H   0  0  0  0  0  0  0  0  0  0  0  0
  144.3953  141.8967  156.5065 H   0  0  0  0  0  0  0  0  0  0  0  0
  142.8977  144.0361  155.7010 H   0  0  0  0  0  0  0  0  0  0  0  0
  144.3735  144.2561  156.6300 H   0  0  0  0  0  0  0  0  0  0  0  0
  143.9294  145.0775  153.8609 H   0  0  0  0  0  0  0  0  0  0  0  0
  145.3240  145.3677  154.8901 H   0  0  0  0  0  0  0  0  0  0  0  0
  146.3900  143.9135  153.3730 H   0  0  0  0  0  0  0  0  0  0  0  0
  144.8611  143.1750  152.9054 H   0  0  0  0  0  0  0  0  0  0  0  0
  145.1274  139.8603  155.6851 H   0  0  0  0  0  0  0  0  0  0  0  0
  145.9811  138.9870  154.4549 H   0  0  0  0  0  0  0  0  0  0  0  0
  147.3209  139.0374  156.5316 H   0  0  0  0  0  0  0  0  0  0  0  0
  147.2870  140.7806  156.5623 H   0  0  0  0  0  0  0  0  0  0  0  0
  145.1469  140.8817  153.5101 H   0  0  0  0  0  0  0  0  0  0  0  0
  1  2  1  0  0  0  0
  1 24  1  0  0  0  0
  1 25  1  0  0  0  0
  1 26  1  0  0  0  0
  2 22  1  0  0  0  0
  2  3  1  0  0  0  0
  3  4  2  0  0  0  0
  3 27  1  0  0  0  0
  4  5  1  0  0  0  0
  4 28  1  0  0  0  0
  5  6  2  0  0  0  0
  5 29  1  0  0  0  0
  6  7  1  0  0  0  0
  6 22  1  0  0  0  0
  7  8  1  0  0  0  0
  7 30  1  0  0  0  0
  8  9  2  0  0  0  0
  8 10  1  0  0  0  0
 10 11  1  0  0  0  0
 10 31  1  0  0  0  0
 11 21  1  0  0  0  0
 11 12  1  0  0  0  0
 11 32  1  0  0  0  0
 12 13  1  0  0  0  0
 12 33  1  0  0  0  0
 12 34  1  0  0  0  0
 13 14  1  0  0  0  0
 13 35  1  0  0  0  0
 13 36  1  0  0  0  0
 14 15  1  0  0  0  0
 14 20  1  0  0  0  0
 14 50  1  0  0  0  0
 15 19  1  0  0  0  0
 15 16  1  0  0  0  0
 15 37  1  0  0  0  0
 16 17  1  0  0  0  0
 16 38  1  0  0  0  0
 16 39  1  0  0  0  0
 17 18  1  0  0  0  0
 17 40  1  0  0  0  0
 17 41  1  0  0  0  0
 18 19  1  0  0  0  0
 18 42  1  0  0  0  0
 18 43  1  0  0  0  0
 19 44  1  0  0  0  0
 19 45  1  0  0  0  0
 20 21  1  0  0  0  0
 20 46  1  0  0  0  0
 20 47  1  0  0  0  0
 21 48  1  0  0  0  0
 21 49  1  0  0  0  0
 22 23  2  0  0  0  0
M  CHG  1  14   1
M  END
> <s_m_source_file>
AV-unprocessed.smi

> <i_m_source_file_index>
612

> <i_lp_mmshare_version>
43012

> <i_f3d_flags>
0

> <s_epik_input>
W0NIM11uMVtjSF1bY0hdW2NIXWMoYzE9TylbTkhdQyg9TylbTkhdW0NIXTJbQ0gyXVtDSDJdTihbQ0gyXVtDSDJdMilbQ0hdM1tDSDJdW0NIMl1bQ0gyXVtDSDJdMw==

> <s_epik_cmdline>
J2VwaWtfcHl0aG9uJywgJy1waCcsICc3LjAnLCAnLXRuJywgJzgnLCAnLW1hJywgJzIwMCcsICctbWV0YWxfYmluZGluZycsICctaW1hZScsICc8aW5maWxlLm1hZT4nLCAnLW9tYWUnLCAnPG91dGZpbGUubWFlPic=

> <r_lp_tautomer_probability>
1

> <r_epik_Ionization_Penalty>
0.00200366

> <r_epik_Ionization_Penalty_Charging>
0.00198522

> <r_epik_Ionization_Penalty_Neutral>
1.84356e-05

> <r_epik_State_Penalty>
0.00135242

> <r_epik_Charging_Adjusted_Penalty>
0.00333764

> <i_epik_Tot_Q>
1

> <i_epik_Tot_abs_Q>
1

> <r_epik_Metal_State_Penalty>
-0

> <b_epik_Metal_Only>
0

> <s_lp_Force_Field>
OPLS_2005

> <r_lp_Energy>
52.136

> <b_lp_Chiralities_Consistent>
1

> <s_lp_Variant>
AV-unprocessed.smi:612-2

> <Gold.Version>
5.8.1

> <Gold.Id.Protein>
6NUR|6NUR_protein|mol2

> <Gold.PLP.Fitness>
48.6414

> <Gold.PLP.PLP>
-40.1215

> <Gold.PLP.part.hbond>
-2.0000

> <Gold.PLP.part.metal>
0.0000

> <Gold.PLP.part.buried>
-5.5962

> <Gold.PLP.part.nonpolar>
-33.0408

> <Gold.PLP.part.repulsive>
0.2380

> <Gold.PLP.ligand.clash>
0.0000

> <Gold.PLP.ligand.torsion>
0.2679

> <Gold.PLP.Chemscore.Hbond>
3.0000

> <Gold.PLP.Chemscore.CHOScore>
0.0000

> <Gold.PLP.Chemscore.Metal>
0.0000

> <Gold.Chemscore.Hbonds>
donor molecule, donor type, donor heavy atom, donor atom, acceptor molecule, acceptor atom, score
      L1  H    14    50       P1 10175  2.00
      P1  H  7997  8009       L1    23  1.00

> <Gold.PLP.Chemscore.Internal.Correction>
0.0558

> <Gold.Rescore>
     Score         DG    S(hbond)    S(metal)    S(lipo)     H(rot)  DE(clash)    DE(int)     intcor
     17.27     -20.27       1.89        0.00      98.91       1.21       0.16       2.84       ----

> <Gold.Chemscore.Fitness>
17.2743

> <Gold.Chemscore.DG>
-20.2745

> <Gold.Chemscore.ZeroCoef>
-5.4800

> <Gold.Chemscore.Hbond>
1.8888

> <Gold.Chemscore.Metal>
0.0000

> <Gold.Chemscore.Lipo>
98.9080

> <Gold.Chemscore.Internal_Hbond>
0.0000

> <Gold.Chemscore.DEClash>
0.1572

> <Gold.Chemscore.DEInternal>
2.8430

> <Gold.Chemscore.Rot>
1.2056

> <Gold.Chemscore.Internal.Correction>
   9.000000E+99

> <Gold.Chemscore.Hbonds>
donor molecule, donor type, donor heavy atom, donor atom, acceptor molecule, acceptor atom, score
      L1  H    14    50       P1 10175  0.78
      P1  H  7997  8009       L1    23  0.89

> <Gold.Chemscore.Hbond.Weighted>
-6.3085

> <Gold.Chemscore.Metal.Weighted>
-0.0000

> <Gold.Chemscore.Lipo.Weighted>
-11.5722

> <Gold.Chemscore.Internal_Hbond.Weighted>
0.0000

> <Gold.Chemscore.DEClash.Weighted>
0.1572

> <Gold.Chemscore.DEInternal.Weighted>
2.8430

> <Gold.Chemscore.Rot.Weighted>
3.0862

> <Gold.Chemscore.Internal.Correction.Weighted>
   9.000000E+99

> <Gold.Protein.RotatedTorsions>
[ 6907 6896 6895 6894 ] final   11.48 input  -60.11 | X-H torsion
[ 7974 7965 7964 7962 ] final  -61.46 input  175.53 | X-H torsion
[ 8008 7997 7996 7995 ] final  151.47 input   59.86 | X-H torsion
[ 10167 10162 10161 10158 ] final   42.87 input  -65.29 | X-H torsion
[ 10718 10713 10712 10709 ] final  169.39 input   66.30 | X-H torsion
[ 10763 10752 10751 10750 ] final   -2.13 input  -60.55 | X-H torsion
[ 11005 11000 10999 10996 ] final    5.48 input  -57.11 | X-H torsion

> <Gold.Protein.ActiveResidues>
 VAL166  LYS551  ARG553  GLY616  TRP617  ASP618  TYR619  PRO620  LYS621  CYS622 
 ASP623  PHE694  ASN695  SER759  ASP760  ASP761  ALA762  ILE779  LEU786  VAL792 
 PHE793  MET794  SER795  GLU796  ALA797  LYS798  CYS799  TRP800  GLU811  SER814 

> <Gold.Protein.RotatedAtoms>
  151.7550  135.0823  160.0336 H   0  0  0  0  0  0  0  0  0  0  0  0  # atno 6907 bound_to 6896
  152.3391  133.6042  159.5872 H   0  0  0  0  0  0  0  0  0  0  0  0  # atno 6908 bound_to 6896
  150.7468  133.9666  159.3574 H   0  0  0  0  0  0  0  0  0  0  0  0  # atno 6909 bound_to 6896
  145.8031  140.8643  143.0221 H   0  0  0  0  0  0  0  0  0  0  0  0  # atno 7974 bound_to 7965
  156.2672  140.2047  156.6180 H   0  0  0  0  0  0  0  0  0  0  0  0  # atno 8008 bound_to 7997
  154.6779  140.0543  157.0259 H   0  0  0  0  0  0  0  0  0  0  0  0  # atno 8009 bound_to 7997
  155.1042  140.3209  155.4541 H   0  0  0  0  0  0  0  0  0  0  0  0  # atno 8010 bound_to 7997
  140.3501  144.2361  150.6146 H   0  0  0  0  0  0  0  0  0  0  0  0  # atno 10167 bound_to 10162
  157.0234  131.0238  151.2767 H   0  0  0  0  0  0  0  0  0  0  0  0  # atno 10718 bound_to 10713
  153.3540  135.6987  153.6766 H   0  0  0  0  0  0  0  0  0  0  0  0  # atno 10763 bound_to 10752
  153.5481  135.3559  155.2748 H   0  0  0  0  0  0  0  0  0  0  0  0  # atno 10764 bound_to 10752
  154.8658  135.4220  154.2782 H   0  0  0  0  0  0  0  0  0  0  0  0  # atno 10765 bound_to 10752
  140.5703  134.0109  155.8006 H   0  0  0  0  0  0  0  0  0  0  0  0  # atno 11005 bound_to 11000
  144.6766  140.0288  143.7483 LP  0  0  0  0  0  0  0  0  0  0  0  0  # atno 17320 bound_to 7965
  145.9856  139.2975  143.1015 LP  0  0  0  0  0  0  0  0  0  0  0  0  # atno 17321 bound_to 7965
  140.5227  143.2262  151.8363 LP  0  0  0  0  0  0  0  0  0  0  0  0  # atno 17342 bound_to 10162
  139.4827  144.4817  151.9298 LP  0  0  0  0  0  0  0  0  0  0  0  0  # atno 17343 bound_to 10162
  157.5232  130.8011  149.7833 LP  0  0  0  0  0  0  0  0  0  0  0  0  # atno 17370 bound_to 10713
  156.0094  130.3840  150.2316 LP  0  0  0  0  0  0  0  0  0  0  0  0  # atno 17371 bound_to 10713
  141.1060  133.9692  157.2995 LP  0  0  0  0  0  0  0  0  0  0  0  0  # atno 17394 bound_to 11000
  139.9365  135.0196  156.8573 LP  0  0  0  0  0  0  0  0  0  0  0  0  # atno 17395 bound_to 11000

$$$$
