AV-unprocessed.smi:2027|AV-procd|sdf|8220|dock1
  -GOLD-   2272010493D 1   1.00000     0.00000
 Structure written by MMmdl.
 51 53  0  0  0  0  0  0  0  0  3 V2000
  152.1310  143.5736  160.2082 C   0  0  0  0  0  0  0  0  0  0  0  0
  151.9474  142.6071  159.0508 C   0  0  0  0  0  0  0  0  0  0  0  0
  151.0222  142.9383  158.0352 C   0  0  0  0  0  0  0  0  0  0  0  0
  150.8696  142.0297  156.9944 C   0  0  0  0  0  0  0  0  0  0  0  0
  150.0470  142.0617  155.8662 N   0  3  0  0  0  0  0  0  0  0  0  0
  150.2383  140.9310  155.1316 C   0  0  0  0  0  0  0  0  0  0  0  0
  151.1694  140.1753  155.7749 N   0  0  0  0  0  0  0  0  0  0  0  0
  151.7275  138.8654  155.4088 C   0  0  0  0  0  0  0  0  0  0  0  0
  150.7556  137.9924  154.5851 C   0  0  1  0  0  0  0  0  0  0  0  0
  151.5410  137.0433  153.8919 O   0  0  0  0  0  0  0  0  0  0  0  0
  149.7056  137.2573  155.4499 C   0  0  0  0  0  0  0  0  0  0  0  0
  149.1871  135.9968  154.8495 N   0  3  2  0  0  0  0  0  0  0  0  0
  147.7510  135.7645  155.1346 C   0  0  0  0  0  0  0  0  0  0  0  0
  150.0073  134.8079  155.2031 C   0  0  0  0  0  0  0  0  0  0  0  0
  149.5147  133.5555  154.5257 C   0  0  0  0  0  0  0  0  0  0  0  0
  148.6181  133.4532  153.4225 C   0  0  0  0  0  0  0  0  0  0  0  0
  148.3701  132.2019  153.0755 N   0  0  0  0  0  0  0  0  0  0  0  0
  149.1065  131.4636  153.9311 N   0  0  0  0  0  0  0  0  0  0  0  0
  149.0773  130.0198  153.8353 C   0  0  0  0  0  0  0  0  0  0  0  0
  149.8113  132.2530  154.8140 C   0  0  0  0  0  0  0  0  0  0  0  0
  151.6020  140.8279  156.9371 C   0  0  0  0  0  0  0  0  0  0  0  0
  152.5277  140.4935  157.9241 C   0  0  0  0  0  0  0  0  0  0  0  0
  152.6916  141.4003  158.9949 C   0  0  0  0  0  0  0  0  0  0  0  0
  153.6838  141.0524  160.0917 C   0  0  0  0  0  0  0  0  0  0  0  0
  151.4609  144.4297  160.1237 H   0  0  0  0  0  0  0  0  0  0  0  0
  153.1537  143.9506  160.2330 H   0  0  0  0  0  0  0  0  0  0  0  0
  151.9202  143.0801  161.1572 H   0  0  0  0  0  0  0  0  0  0  0  0
  150.4543  143.8568  158.0702 H   0  0  0  0  0  0  0  0  0  0  0  0
  149.7397  140.6789  154.2065 H   0  0  0  0  0  0  0  0  0  0  0  0
  152.6358  139.0530  154.8343 H   0  0  0  0  0  0  0  0  0  0  0  0
  152.0474  138.3515  156.3158 H   0  0  0  0  0  0  0  0  0  0  0  0
  150.2638  138.6324  153.8530 H   0  0  0  0  0  0  0  0  0  0  0  0
  151.1313  136.8506  153.0625 H   0  0  0  0  0  0  0  0  0  0  0  0
  150.1726  137.0408  156.4091 H   0  0  0  0  0  0  0  0  0  0  0  0
  148.8580  137.9107  155.6607 H   0  0  0  0  0  0  0  0  0  0  0  0
  147.5711  135.6978  156.2084 H   0  0  0  0  0  0  0  0  0  0  0  0
  147.4099  134.8357  154.6758 H   0  0  0  0  0  0  0  0  0  0  0  0
  147.1277  136.5606  154.7299 H   0  0  0  0  0  0  0  0  0  0  0  0
  151.0499  135.0076  154.9509 H   0  0  0  0  0  0  0  0  0  0  0  0
  149.9842  134.6681  156.2845 H   0  0  0  0  0  0  0  0  0  0  0  0
  148.1326  134.2480  152.8752 H   0  0  0  0  0  0  0  0  0  0  0  0
  149.7011  129.5806  154.6144 H   0  0  0  0  0  0  0  0  0  0  0  0
  149.4539  129.7063  152.8612 H   0  0  0  0  0  0  0  0  0  0  0  0
  148.0546  129.6617  153.9574 H   0  0  0  0  0  0  0  0  0  0  0  0
  150.4532  131.8265  155.5710 H   0  0  0  0  0  0  0  0  0  0  0  0
  153.0980  139.5773  157.8864 H   0  0  0  0  0  0  0  0  0  0  0  0
  154.1890  140.1074  159.8889 H   0  0  0  0  0  0  0  0  0  0  0  0
  153.1759  140.9574  161.0515 H   0  0  0  0  0  0  0  0  0  0  0  0
  154.4471  141.8259  160.1779 H   0  0  0  0  0  0  0  0  0  0  0  0
  149.2679  136.0997  153.8479 H   0  0  0  0  0  0  0  0  0  0  0  0
  149.4029  142.8005  155.6127 H   0  0  0  0  0  0  0  0  0  0  0  0
  1  2  1  0  0  0  0
  1 25  1  0  0  0  0
  1 26  1  0  0  0  0
  1 27  1  0  0  0  0
  2 23  1  0  0  0  0
  2  3  2  0  0  0  0
  3  4  1  0  0  0  0
  3 28  1  0  0  0  0
  4 21  2  0  0  0  0
  4  5  1  0  0  0  0
  5  6  2  0  0  0  0
  5 51  1  0  0  0  0
  6  7  1  0  0  0  0
  6 29  1  0  0  0  0
  7  8  1  0  0  0  0
  7 21  1  0  0  0  0
  8  9  1  0  0  0  0
  8 30  1  0  0  0  0
  8 31  1  0  0  0  0
  9 10  1  0  0  0  0
  9 11  1  0  0  0  0
  9 32  1  0  0  0  0
 10 33  1  0  0  0  0
 11 12  1  0  0  0  0
 11 34  1  0  0  0  0
 11 35  1  0  0  0  0
 12 13  1  0  0  0  0
 12 14  1  0  0  0  0
 12 50  1  0  0  0  0
 13 36  1  0  0  0  0
 13 37  1  0  0  0  0
 13 38  1  0  0  0  0
 14 15  1  0  0  0  0
 14 39  1  0  0  0  0
 14 40  1  0  0  0  0
 15 20  2  0  0  0  0
 15 16  1  0  0  0  0
 16 17  2  0  0  0  0
 16 41  1  0  0  0  0
 17 18  1  0  0  0  0
 18 19  1  0  0  0  0
 18 20  1  0  0  0  0
 19 42  1  0  0  0  0
 19 43  1  0  0  0  0
 19 44  1  0  0  0  0
 20 45  1  0  0  0  0
 21 22  1  0  0  0  0
 22 23  2  0  0  0  0
 22 46  1  0  0  0  0
 23 24  1  0  0  0  0
 24 47  1  0  0  0  0
 24 48  1  0  0  0  0
 24 49  1  0  0  0  0
M  CHG  1   5   1
M  CHG  1  12   1
M  END
> <s_m_source_file>
AV-unprocessed.smi

> <i_m_source_file_index>
2027

> <i_lp_mmshare_version>
43012

> <i_f3d_flags>
0

> <s_epik_input>
W0NIM11jKFtjSF0xKWMoW0NIM10pW2NIXWMoYzEyKW4oW2NIXW4yKVtDSDJdW0NASF0oW09IXSlbQ0gyXU4oW0NIM10pW0NIMl1jM1tjSF1ubihbQ0gzXSlbY0hdMw==

> <s_epik_cmdline>
J2VwaWtfcHl0aG9uJywgJy1waCcsICc3LjAnLCAnLXRuJywgJzgnLCAnLW1hJywgJzIwMCcsICctbWV0YWxfYmluZGluZycsICctaW1hZScsICc8aW5maWxlLm1hZT4nLCAnLW9tYWUnLCAnPG91dGZpbGUubWFlPic=

> <r_lp_tautomer_probability>
1

> <r_epik_Ionization_Penalty>
1.77469

> <r_epik_Ionization_Penalty_Charging>
1.77463

> <r_epik_Ionization_Penalty_Neutral>
6.41153e-05

> <r_epik_State_Penalty>
1.85225

> <r_epik_Charging_Adjusted_Penalty>
3.62688

> <i_epik_Tot_Q>
2

> <i_epik_Tot_abs_Q>
2

> <r_epik_Metal_State_Penalty>
1.92669

> <b_epik_Metal_Only>
0

> <s_lp_Force_Field>
OPLS_2005

> <r_lp_Energy>
22.5678

> <b_lp_Chiralities_Consistent>
1

> <s_lp_Variant>
AV-unprocessed.smi:2027-12

> <Gold.Version>
5.8.1

> <Gold.Id.Protein>
6NUR|6NUR_protein|mol2

> <Gold.PLP.Fitness>
67.8887

> <Gold.PLP.PLP>
-49.2148

> <Gold.PLP.part.hbond>
-4.0000

> <Gold.PLP.part.metal>
0.0000

> <Gold.PLP.part.buried>
-4.0257

> <Gold.PLP.part.nonpolar>
-41.6730

> <Gold.PLP.part.repulsive>
0.4992

> <Gold.PLP.ligand.clash>
0.0000

> <Gold.PLP.ligand.torsion>
1.5020

> <Gold.PLP.Chemscore.Hbond>
5.9675

> <Gold.PLP.Chemscore.CHOScore>
1.0000

> <Gold.PLP.Chemscore.Metal>
0.0000

> <Gold.Chemscore.Hbonds>
donor molecule, donor type, donor heavy atom, donor atom, acceptor molecule, acceptor atom, score
      L1  H     5    51       P1  8028  2.00
      L1  H    10    33       P1  7949  0.98
      L1  H    12    50       P1  7948  2.00
      P1  H 10752 10765       L1    10  0.89
      L1  C    16    41       P1  7948  1.00

> <Gold.PLP.Chemscore.Internal.Correction>
0.7754

> <Gold.Rescore>
     Score         DG    S(hbond)    S(metal)    S(lipo)     H(rot)  DE(clash)    DE(int)     intcor
     18.18     -20.44       2.43        0.00     114.96       2.58       0.58       1.68       ----

> <Gold.Chemscore.Fitness>
18.1833

> <Gold.Chemscore.DG>
-20.4436

> <Gold.Chemscore.ZeroCoef>
-5.4800

> <Gold.Chemscore.Hbond>
2.4331

> <Gold.Chemscore.Metal>
0.0000

> <Gold.Chemscore.Lipo>
114.9647

> <Gold.Chemscore.Internal_Hbond>
0.0000

> <Gold.Chemscore.DEClash>
0.5825

> <Gold.Chemscore.DEInternal>
1.6779

> <Gold.Chemscore.Rot>
2.5836

> <Gold.Chemscore.Internal.Correction>
   9.000000E+99

> <Gold.Chemscore.Hbonds>
donor molecule, donor type, donor heavy atom, donor atom, acceptor molecule, acceptor atom, score
      L1  H     5    51       P1  8028  0.92
      L1  H    10    33       P1  7949  0.42
      L1  H    12    50       P1  7948  0.83
      P1  H 10752 10765       L1    10  0.25

> <Gold.Chemscore.Hbond.Weighted>
-8.1267

> <Gold.Chemscore.Metal.Weighted>
-0.0000

> <Gold.Chemscore.Lipo.Weighted>
-13.4509

> <Gold.Chemscore.Internal_Hbond.Weighted>
0.0000

> <Gold.Chemscore.DEClash.Weighted>
0.5825

> <Gold.Chemscore.DEInternal.Weighted>
1.6779

> <Gold.Chemscore.Rot.Weighted>
6.6139

> <Gold.Chemscore.Internal.Correction.Weighted>
   9.000000E+99

> <Gold.Protein.RotatedTorsions>
[ 6907 6896 6895 6894 ] final  -32.05 input  -60.11 | X-H torsion
[ 7974 7965 7964 7962 ] final   12.52 input  175.53 | X-H torsion
[ 8008 7997 7996 7995 ] final -172.08 input   59.86 | X-H torsion
[ 10167 10162 10161 10158 ] final  169.01 input  -65.29 | X-H torsion
[ 10718 10713 10712 10709 ] final -108.81 input   66.30 | X-H torsion
[ 10763 10752 10751 10750 ] final  132.14 input  -60.55 | X-H torsion
[ 11005 11000 10999 10996 ] final   82.20 input  -57.11 | X-H torsion

> <Gold.Protein.ActiveResidues>
 VAL166  LYS551  ARG553  GLY616  TRP617  ASP618  TYR619  PRO620  LYS621  CYS622 
 ASP623  PHE694  ASN695  SER759  ASP760  ASP761  ALA762  ILE779  LEU786  VAL792 
 PHE793  MET794  SER795  GLU796  ALA797  LYS798  CYS799  TRP800  GLU811  SER814 

> <Gold.Protein.RotatedAtoms>
  151.0840  134.9875  159.8369 H   0  0  0  0  0  0  0  0  0  0  0  0  # atno 6907 bound_to 6896
  152.5422  134.2147  159.8774 H   0  0  0  0  0  0  0  0  0  0  0  0  # atno 6908 bound_to 6896
  151.2179  133.4475  159.2633 H   0  0  0  0  0  0  0  0  0  0  0  0  # atno 6909 bound_to 6896
  146.2349  139.9324  142.8494 H   0  0  0  0  0  0  0  0  0  0  0  0  # atno 7974 bound_to 7965
  155.9399  140.1107  157.1064 H   0  0  0  0  0  0  0  0  0  0  0  0  # atno 8008 bound_to 7997
  154.4087  140.1221  156.4980 H   0  0  0  0  0  0  0  0  0  0  0  0  # atno 8009 bound_to 7997
  155.6974  140.3472  155.4921 H   0  0  0  0  0  0  0  0  0  0  0  0  # atno 8010 bound_to 7997
  139.4981  144.3753  151.9681 H   0  0  0  0  0  0  0  0  0  0  0  0  # atno 10167 bound_to 10162
  156.0504  130.5732  150.8012 H   0  0  0  0  0  0  0  0  0  0  0  0  # atno 10718 bound_to 10713
  153.7859  135.3162  155.3372 H   0  0  0  0  0  0  0  0  0  0  0  0  # atno 10763 bound_to 10752
  154.8144  135.4646  154.0606 H   0  0  0  0  0  0  0  0  0  0  0  0  # atno 10764 bound_to 10752
  153.1909  135.6908  153.8440 H   0  0  0  0  0  0  0  0  0  0  0  0  # atno 10765 bound_to 10752
  139.9072  134.8054  156.2143 H   0  0  0  0  0  0  0  0  0  0  0  0  # atno 11005 bound_to 11000
  145.2032  140.9863  143.4144 LP  0  0  0  0  0  0  0  0  0  0  0  0  # atno 17320 bound_to 7965
  144.9756  139.3836  143.6287 LP  0  0  0  0  0  0  0  0  0  0  0  0  # atno 17321 bound_to 7965
  140.3189  144.3451  150.6014 LP  0  0  0  0  0  0  0  0  0  0  0  0  # atno 17342 bound_to 10162
  140.5739  143.2178  151.7550 LP  0  0  0  0  0  0  0  0  0  0  0  0  # atno 17343 bound_to 10162
  157.5425  131.0941  150.9808 LP  0  0  0  0  0  0  0  0  0  0  0  0  # atno 17370 bound_to 10713
  157.0087  130.5628  149.5318 LP  0  0  0  0  0  0  0  0  0  0  0  0  # atno 17371 bound_to 10713
  141.0446  133.6920  156.1659 LP  0  0  0  0  0  0  0  0  0  0  0  0  # atno 17394 bound_to 11000
  140.6904  134.4672  157.5588 LP  0  0  0  0  0  0  0  0  0  0  0  0  # atno 17395 bound_to 11000

$$$$
