AV-unprocessed.smi:1840|AV-procd|sdf|7488|dock3
  -GOLD-   22720 9183D 1   1.00000     0.00000
 Structure written by MMmdl.
 43 44  0  0  0  0  0  0  0  0  1 V2000
  146.1590  133.8062  155.1304 C   0  0  0  0  0  0  0  0  0  0  0  0
  146.1490  134.3115  153.6752 C   0  0  2  0  0  0  0  0  0  0  0  0
  146.6506  133.2584  152.6654 C   0  0  0  0  0  0  0  0  0  0  0  0
  145.6793  132.9540  151.6299 N   0  0  0  0  0  0  0  0  0  0  0  0
  145.8144  132.1073  150.5495 C   0  0  0  0  0  0  0  0  0  0  0  0
  144.6404  132.1468  149.8534 C   0  0  0  0  0  0  0  0  0  0  0  0
  143.8395  133.0608  150.5932 C   0  0  0  0  0  0  0  0  0  0  0  0
  144.4656  133.5461  151.6532 N   0  0  0  0  0  0  0  0  0  0  0  0
  146.9683  135.5145  153.5551 N   0  0  0  0  0  0  0  0  0  0  0  0
  146.7644  136.6626  154.2165 C   0  0  0  0  0  0  0  0  0  0  0  0
  145.8395  136.8479  155.0076 O   0  0  0  0  0  0  0  0  0  0  0  0
  147.6992  137.5761  153.9181 N   0  0  0  0  0  0  0  0  0  0  0  0
  147.7946  138.9206  154.4850 C   0  0  2  0  0  0  0  0  0  0  0  0
  146.5526  139.7316  154.0657 C   0  0  0  0  0  0  0  0  0  0  0  0
  146.6233  141.1793  154.5724 C   0  0  0  0  0  0  0  0  0  0  0  0
  147.9095  141.8664  154.0943 C   0  0  0  0  0  0  0  0  0  0  0  0
  149.1516  141.0706  154.5233 C   0  0  0  0  0  0  0  0  0  0  0  0
  149.1030  139.6117  154.0252 C   0  0  1  0  0  0  0  0  0  0  0  0
  150.3616  138.8453  154.4709 C   0  0  0  0  0  0  0  0  0  0  0  0
  145.4968  132.9502  155.2610 H   0  0  0  0  0  0  0  0  0  0  0  0
  145.8203  134.5800  155.8201 H   0  0  0  0  0  0  0  0  0  0  0  0
  147.1606  133.5032  155.4366 H   0  0  0  0  0  0  0  0  0  0  0  0
  145.1203  134.5636  153.4102 H   0  0  0  0  0  0  0  0  0  0  0  0
  147.5676  133.6017  152.1839 H   0  0  0  0  0  0  0  0  0  0  0  0
  146.8998  132.3304  153.1825 H   0  0  0  0  0  0  0  0  0  0  0  0
  146.7226  131.5510  150.3699 H   0  0  0  0  0  0  0  0  0  0  0  0
  144.3916  131.6055  148.9527 H   0  0  0  0  0  0  0  0  0  0  0  0
  142.8292  133.3856  150.3917 H   0  0  0  0  0  0  0  0  0  0  0  0
  147.7571  135.4638  152.9273 H   0  0  0  0  0  0  0  0  0  0  0  0
  148.4141  137.3176  153.2543 H   0  0  0  0  0  0  0  0  0  0  0  0
  147.8079  138.8684  155.5754 H   0  0  0  0  0  0  0  0  0  0  0  0
  146.4626  139.7351  152.9784 H   0  0  0  0  0  0  0  0  0  0  0  0
  145.6492  139.2546  154.4482 H   0  0  0  0  0  0  0  0  0  0  0  0
  145.7522  141.7375  154.2283 H   0  0  0  0  0  0  0  0  0  0  0  0
  146.5860  141.1879  155.6623 H   0  0  0  0  0  0  0  0  0  0  0  0
  147.8925  141.9640  153.0079 H   0  0  0  0  0  0  0  0  0  0  0  0
  147.9604  142.8791  154.4957 H   0  0  0  0  0  0  0  0  0  0  0  0
  150.0465  141.5645  154.1430 H   0  0  0  0  0  0  0  0  0  0  0  0
  149.2318  141.0849  155.6111 H   0  0  0  0  0  0  0  0  0  0  0  0
  149.1067  139.6383  152.9343 H   0  0  0  0  0  0  0  0  0  0  0  0
  150.3987  138.7438  155.5560 H   0  0  0  0  0  0  0  0  0  0  0  0
  151.2681  139.3620  154.1543 H   0  0  0  0  0  0  0  0  0  0  0  0
  150.3962  137.8434  154.0429 H   0  0  0  0  0  0  0  0  0  0  0  0
  1  2  1  0  0  0  0
  1 20  1  0  0  0  0
  1 21  1  0  0  0  0
  1 22  1  0  0  0  0
  2  3  1  0  0  0  0
  2  9  1  0  0  0  0
  2 23  1  0  0  0  0
  3  4  1  0  0  0  0
  3 24  1  0  0  0  0
  3 25  1  0  0  0  0
  4  8  1  0  0  0  0
  4  5  1  0  0  0  0
  5  6  2  0  0  0  0
  5 26  1  0  0  0  0
  6  7  1  0  0  0  0
  6 27  1  0  0  0  0
  7  8  2  0  0  0  0
  7 28  1  0  0  0  0
  9 10  1  0  0  0  0
  9 29  1  0  0  0  0
 10 11  2  0  0  0  0
 10 12  1  0  0  0  0
 12 13  1  0  0  0  0
 12 30  1  0  0  0  0
 13 18  1  0  0  0  0
 13 14  1  0  0  0  0
 13 31  1  0  0  0  0
 14 15  1  0  0  0  0
 14 32  1  0  0  0  0
 14 33  1  0  0  0  0
 15 16  1  0  0  0  0
 15 34  1  0  0  0  0
 15 35  1  0  0  0  0
 16 17  1  0  0  0  0
 16 36  1  0  0  0  0
 16 37  1  0  0  0  0
 17 18  1  0  0  0  0
 17 38  1  0  0  0  0
 17 39  1  0  0  0  0
 18 19  1  0  0  0  0
 18 40  1  0  0  0  0
 19 41  1  0  0  0  0
 19 42  1  0  0  0  0
 19 43  1  0  0  0  0
M  END
> <s_m_source_file>
AV-unprocessed.smi

> <i_m_source_file_index>
1840

> <i_lp_mmshare_version>
43012

> <i_f3d_flags>
0

> <s_epik_input>
bjFbY0hdW2NIXVtjSF1uMVtDSDJdW0NAQEhdKFtDSDNdKVtOSF1DKD1PKVtOSF1bQ0BASF0yW0NIMl1bQ0gyXVtDSDJdW0NIMl1bQ0BIXTJbQ0gzXQ==

> <s_epik_cmdline>
J2VwaWtfcHl0aG9uJywgJy1waCcsICc3LjAnLCAnLXRuJywgJzgnLCAnLW1hJywgJzIwMCcsICctbWV0YWxfYmluZGluZycsICctaW1hZScsICc8aW5maWxlLm1hZT4nLCAnLW9tYWUnLCAnPG91dGZpbGUubWFlPic=

> <r_lp_tautomer_probability>
1

> <r_epik_Ionization_Penalty>
7.38659e-05

> <r_epik_Ionization_Penalty_Charging>
0

> <r_epik_Ionization_Penalty_Neutral>
7.38659e-05

> <r_epik_State_Penalty>
-0

> <r_epik_Charging_Adjusted_Penalty>
0

> <i_epik_Tot_Q>
0

> <i_epik_Tot_abs_Q>
0

> <r_epik_Metal_State_Penalty>
-0

> <b_epik_Metal_Only>
0

> <s_lp_Force_Field>
OPLS_2005

> <r_lp_Energy>
8.70276

> <b_lp_Chiralities_Consistent>
1

> <s_lp_Variant>
AV-unprocessed.smi:1840-1

> <Gold.Version>
5.8.1

> <Gold.Id.Protein>
6NUR|6NUR_protein|mol2

> <Gold.PLP.Fitness>
41.4530

> <Gold.PLP.PLP>
-31.0315

> <Gold.PLP.part.hbond>
-2.0000

> <Gold.PLP.part.metal>
0.0000

> <Gold.PLP.part.buried>
-3.0681

> <Gold.PLP.part.nonpolar>
-26.7969

> <Gold.PLP.part.repulsive>
0.1404

> <Gold.PLP.ligand.clash>
0.0000

> <Gold.PLP.ligand.torsion>
0.7903

> <Gold.PLP.Chemscore.Hbond>
1.9920

> <Gold.PLP.Chemscore.CHOScore>
2.0000

> <Gold.PLP.Chemscore.Metal>
0.0000

> <Gold.Chemscore.Hbonds>
donor molecule, donor type, donor heavy atom, donor atom, acceptor molecule, acceptor atom, score
      L1  H     9    29       P1  7948  1.00
      L1  H    12    30       P1  7948  0.99
      L1  C     5    26       P1 10747  1.00
      L1  C     7    28       P1 10186  1.00

> <Gold.PLP.Chemscore.Internal.Correction>
0.0260

> <Gold.Rescore>
     Score         DG    S(hbond)    S(metal)    S(lipo)     H(rot)  DE(clash)    DE(int)     intcor
     16.33     -17.28       1.91        0.00      80.35       1.56       0.11       0.85       ----

> <Gold.Chemscore.Fitness>
16.3279

> <Gold.Chemscore.DG>
-17.2838

> <Gold.Chemscore.ZeroCoef>
-5.4800

> <Gold.Chemscore.Hbond>
1.9134

> <Gold.Chemscore.Metal>
0.0000

> <Gold.Chemscore.Lipo>
80.3459

> <Gold.Chemscore.Internal_Hbond>
0.0000

> <Gold.Chemscore.DEClash>
0.1057

> <Gold.Chemscore.DEInternal>
0.8502

> <Gold.Chemscore.Rot>
1.5576

> <Gold.Chemscore.Internal.Correction>
   9.000000E+99

> <Gold.Chemscore.Hbonds>
donor molecule, donor type, donor heavy atom, donor atom, acceptor molecule, acceptor atom, score
      L1  H     9    29       P1  7948  0.97
      L1  H    12    30       P1  7948  0.94

> <Gold.Chemscore.Hbond.Weighted>
-6.3909

> <Gold.Chemscore.Metal.Weighted>
-0.0000

> <Gold.Chemscore.Lipo.Weighted>
-9.4005

> <Gold.Chemscore.Internal_Hbond.Weighted>
0.0000

> <Gold.Chemscore.DEClash.Weighted>
0.1057

> <Gold.Chemscore.DEInternal.Weighted>
0.8502

> <Gold.Chemscore.Rot.Weighted>
3.9875

> <Gold.Chemscore.Internal.Correction.Weighted>
   9.000000E+99

> <Gold.Protein.RotatedTorsions>
[ 6907 6896 6895 6894 ] final   90.08 input  -60.11 | X-H torsion
[ 7974 7965 7964 7962 ] final  124.74 input  175.53 | X-H torsion
[ 8008 7997 7996 7995 ] final -111.48 input   59.86 | X-H torsion
[ 10167 10162 10161 10158 ] final  -39.72 input  -65.29 | X-H torsion
[ 10718 10713 10712 10709 ] final  -92.39 input   66.30 | X-H torsion
[ 10763 10752 10751 10750 ] final  -81.53 input  -60.55 | X-H torsion
[ 11005 11000 10999 10996 ] final  -96.52 input  -57.11 | X-H torsion

> <Gold.Protein.ActiveResidues>
 VAL166  LYS551  ARG553  GLY616  TRP617  ASP618  TYR619  PRO620  LYS621  CYS622 
 ASP623  PHE694  ASN695  SER759  ASP760  ASP761  ALA762  ILE779  LEU786  VAL792 
 PHE793  MET794  SER795  GLU796  ALA797  LYS798  CYS799  TRP800  GLU811  SER814 

> <Gold.Protein.RotatedAtoms>
  152.5442  134.1867  159.8657 H   0  0  0  0  0  0  0  0  0  0  0  0  # atno 6907 bound_to 6896
  151.1865  133.4686  159.2602 H   0  0  0  0  0  0  0  0  0  0  0  0  # atno 6908 bound_to 6896
  151.1126  135.0047  159.8556 H   0  0  0  0  0  0  0  0  0  0  0  0  # atno 6909 bound_to 6896
  145.0810  139.3657  143.4909 H   0  0  0  0  0  0  0  0  0  0  0  0  # atno 7974 bound_to 7965
  154.9905  140.0395  157.2317 H   0  0  0  0  0  0  0  0  0  0  0  0  # atno 8008 bound_to 7997
  154.7632  140.2788  155.6174 H   0  0  0  0  0  0  0  0  0  0  0  0  # atno 8009 bound_to 7997
  156.2908  140.2624  156.2416 H   0  0  0  0  0  0  0  0  0  0  0  0  # atno 8010 bound_to 7997
  140.7056  143.3197  151.2822 H   0  0  0  0  0  0  0  0  0  0  0  0  # atno 10167 bound_to 10162
  156.0002  130.4985  150.5618 H   0  0  0  0  0  0  0  0  0  0  0  0  # atno 10718 bound_to 10713
  154.5647  135.5623  153.7039 H   0  0  0  0  0  0  0  0  0  0  0  0  # atno 10763 bound_to 10752
  153.0029  135.6282  154.2196 H   0  0  0  0  0  0  0  0  0  0  0  0  # atno 10764 bound_to 10752
  154.2135  135.2872  155.2930 H   0  0  0  0  0  0  0  0  0  0  0  0  # atno 10765 bound_to 10752
  141.1409  133.8104  157.0582 H   0  0  0  0  0  0  0  0  0  0  0  0  # atno 11005 bound_to 11000
  146.3531  140.0600  142.8630 LP  0  0  0  0  0  0  0  0  0  0  0  0  # atno 17320 bound_to 7965
  145.1178  140.9444  143.4618 LP  0  0  0  0  0  0  0  0  0  0  0  0  # atno 17321 bound_to 7965
  139.6647  144.0126  152.2715 LP  0  0  0  0  0  0  0  0  0  0  0  0  # atno 17342 bound_to 10162
  139.9705  144.6497  150.7993 LP  0  0  0  0  0  0  0  0  0  0  0  0  # atno 17343 bound_to 10162
  157.3526  131.0736  151.1701 LP  0  0  0  0  0  0  0  0  0  0  0  0  # atno 17370 bound_to 10713
  157.2512  130.6615  149.5932 LP  0  0  0  0  0  0  0  0  0  0  0  0  # atno 17371 bound_to 10713
  140.0588  134.9766  157.1268 LP  0  0  0  0  0  0  0  0  0  0  0  0  # atno 17394 bound_to 11000
  140.3879  134.2216  155.7167 LP  0  0  0  0  0  0  0  0  0  0  0  0  # atno 17395 bound_to 11000

$$$$
