AV-unprocessed.smi:3134|AV-procd|sdf|11944|dock10
  -GOLD-   2272017333D 1   1.00000     0.00000
 Structure written by MMmdl.
 36 36  0  0  0  0  0  0  0  0  1 V2000
  147.7167  140.3424  156.4879 C   0  0  0  0  0  0  0  0  0  0  0  0
  147.7539  141.7782  157.0355 C   0  0  0  0  0  0  0  0  0  0  0  0
  146.5773  142.6140  156.5147 C   0  0  0  0  0  0  0  0  0  0  0  0
  149.0096  142.4277  156.6729 N   0  0  0  0  0  0  0  0  0  0  0  0
  150.2354  141.9161  156.8678 C   0  0  0  0  0  0  0  0  0  0  0  0
  150.4350  140.8188  157.3901 O   0  0  0  0  0  0  0  0  0  0  0  0
  151.4183  142.7581  156.3598 C   0  0  1  0  0  0  0  0  0  0  0  0
  151.3352  142.9531  154.8374 C   0  0  0  0  0  0  0  0  0  0  0  0
  151.5291  144.0701  157.0232 N   0  0  0  0  0  0  0  0  0  0  0  0
  151.6441  144.0044  158.4759 C   0  0  0  0  0  0  0  0  0  0  0  0
  152.8811  143.1772  158.8518 C   0  0  0  0  0  0  0  0  0  0  0  0
  152.9777  142.9900  160.2862 N   0  0  0  0  0  0  0  0  0  0  0  0
  153.9509  142.3221  160.9989 C   0  0  0  0  0  0  0  0  0  0  0  0
  153.6227  142.4172  162.3209 C   0  0  0  0  0  0  0  0  0  0  0  0
  152.4169  143.1731  162.3161 C   0  0  0  0  0  0  0  0  0  0  0  0
  152.0343  143.5161  161.0967 N   0  0  0  0  0  0  0  0  0  0  0  0
  146.7845  139.8453  156.7572 H   0  0  0  0  0  0  0  0  0  0  0  0
  148.5344  139.7431  156.8897 H   0  0  0  0  0  0  0  0  0  0  0  0
  147.7989  140.3298  155.4006 H   0  0  0  0  0  0  0  0  0  0  0  0
  147.6762  141.7378  158.1235 H   0  0  0  0  0  0  0  0  0  0  0  0
  145.6242  142.1651  156.7953 H   0  0  0  0  0  0  0  0  0  0  0  0
  146.5982  142.6975  155.4275 H   0  0  0  0  0  0  0  0  0  0  0  0
  146.5989  143.6232  156.9274 H   0  0  0  0  0  0  0  0  0  0  0  0
  148.9421  143.3312  156.2269 H   0  0  0  0  0  0  0  0  0  0  0  0
  152.3370  142.2049  156.5639 H   0  0  0  0  0  0  0  0  0  0  0  0
  151.2777  141.9957  154.3180 H   0  0  0  0  0  0  0  0  0  0  0  0
  152.2174  143.4733  154.4628 H   0  0  0  0  0  0  0  0  0  0  0  0
  150.4611  143.5403  154.5521 H   0  0  0  0  0  0  0  0  0  0  0  0
  150.7676  144.6821  156.7664 H   0  0  0  0  0  0  0  0  0  0  0  0
  151.7366  145.0046  158.9005 H   0  0  0  0  0  0  0  0  0  0  0  0
  150.7464  143.5487  158.8967 H   0  0  0  0  0  0  0  0  0  0  0  0
  152.8512  142.1975  158.3721 H   0  0  0  0  0  0  0  0  0  0  0  0
  153.7907  143.6715  158.5076 H   0  0  0  0  0  0  0  0  0  0  0  0
  154.7866  141.8417  160.5114 H   0  0  0  0  0  0  0  0  0  0  0  0
  154.1615  142.0096  163.1633 H   0  0  0  0  0  0  0  0  0  0  0  0
  151.8130  143.4813  163.1566 H   0  0  0  0  0  0  0  0  0  0  0  0
  1  2  1  0  0  0  0
  1 17  1  0  0  0  0
  1 18  1  0  0  0  0
  1 19  1  0  0  0  0
  2  3  1  0  0  0  0
  2  4  1  0  0  0  0
  2 20  1  0  0  0  0
  3 21  1  0  0  0  0
  3 22  1  0  0  0  0
  3 23  1  0  0  0  0
  4  5  1  0  0  0  0
  4 24  1  0  0  0  0
  5  6  2  0  0  0  0
  5  7  1  0  0  0  0
  7  8  1  0  0  0  0
  7  9  1  0  0  0  0
  7 25  1  0  0  0  0
  8 26  1  0  0  0  0
  8 27  1  0  0  0  0
  8 28  1  0  0  0  0
  9 10  1  0  0  0  0
  9 29  1  0  0  0  0
 10 11  1  0  0  0  0
 10 30  1  0  0  0  0
 10 31  1  0  0  0  0
 11 12  1  0  0  0  0
 11 32  1  0  0  0  0
 11 33  1  0  0  0  0
 12 16  1  0  0  0  0
 12 13  1  0  0  0  0
 13 14  2  0  0  0  0
 13 34  1  0  0  0  0
 14 15  1  0  0  0  0
 14 35  1  0  0  0  0
 15 16  2  0  0  0  0
 15 36  1  0  0  0  0
M  END
> <s_m_source_file>
AV-unprocessed.smi

> <i_m_source_file_index>
3134

> <i_lp_mmshare_version>
43012

> <i_f3d_flags>
0

> <s_epik_input>
W0NIM11bQ0hdKFtDSDNdKVtOSF1DKD1PKVtDQEhdKFtDSDNdKVtOSF1bQ0gyXVtDSDJdbjFbY0hdW2NIXVtjSF1uMQ==

> <s_epik_cmdline>
J2VwaWtfcHl0aG9uJywgJy1waCcsICc3LjAnLCAnLXRuJywgJzgnLCAnLW1hJywgJzIwMCcsICctbWV0YWxfYmluZGluZycsICctaW1hZScsICc8aW5maWxlLm1hZT4nLCAnLW9tYWUnLCAnPG91dGZpbGUubWFlPic=

> <r_lp_tautomer_probability>
1

> <r_epik_Ionization_Penalty>
0.731872

> <r_epik_Ionization_Penalty_Charging>
0

> <r_epik_Ionization_Penalty_Neutral>
0.731872

> <r_epik_State_Penalty>
0.75611

> <r_epik_Charging_Adjusted_Penalty>
0.75611

> <i_epik_Tot_Q>
0

> <i_epik_Tot_abs_Q>
0

> <r_epik_Metal_State_Penalty>
0.755373

> <b_epik_Metal_Only>
0

> <s_lp_Force_Field>
OPLS_2005

> <r_lp_Energy>
3.64981

> <b_lp_Chiralities_Consistent>
1

> <s_lp_Variant>
AV-unprocessed.smi:3134-4

> <Gold.Version>
5.8.1

> <Gold.Id.Protein>
6NUR|6NUR_protein|mol2

> <Gold.PLP.Fitness>
38.7789

> <Gold.PLP.PLP>
-32.8800

> <Gold.PLP.part.hbond>
-2.7778

> <Gold.PLP.part.metal>
0.0000

> <Gold.PLP.part.buried>
-4.1090

> <Gold.PLP.part.nonpolar>
-25.9108

> <Gold.PLP.part.repulsive>
0.1236

> <Gold.PLP.ligand.clash>
0.0000

> <Gold.PLP.ligand.torsion>
0.0784

> <Gold.PLP.Chemscore.Hbond>
2.0000

> <Gold.PLP.Chemscore.CHOScore>
0.0000

> <Gold.PLP.Chemscore.Metal>
0.0000

> <Gold.Chemscore.Hbonds>
donor molecule, donor type, donor heavy atom, donor atom, acceptor molecule, acceptor atom, score
      L1  H     4    24       P1  8028  0.93
      L1  H     9    29       P1  8028  0.63

> <Gold.PLP.Chemscore.Internal.Correction>
0.0556

> <Gold.Rescore>
     Score         DG    S(hbond)    S(metal)    S(lipo)     H(rot)  DE(clash)    DE(int)     intcor
     13.82     -14.13       1.58        0.00      73.65       2.05       0.20       0.11       ----

> <Gold.Chemscore.Fitness>
13.8181

> <Gold.Chemscore.DG>
-14.1258

> <Gold.Chemscore.ZeroCoef>
-5.4800

> <Gold.Chemscore.Hbond>
1.5821

> <Gold.Chemscore.Metal>
0.0000

> <Gold.Chemscore.Lipo>
73.6487

> <Gold.Chemscore.Internal_Hbond>
0.0000

> <Gold.Chemscore.DEClash>
0.1960

> <Gold.Chemscore.DEInternal>
0.1118

> <Gold.Chemscore.Rot>
2.0529

> <Gold.Chemscore.Internal.Correction>
   9.000000E+99

> <Gold.Chemscore.Hbonds>
donor molecule, donor type, donor heavy atom, donor atom, acceptor molecule, acceptor atom, score
      L1  H     4    24       P1  8028  0.88
      L1  H     9    29       P1  8028  0.56

> <Gold.Chemscore.Hbond.Weighted>
-5.2843

> <Gold.Chemscore.Metal.Weighted>
-0.0000

> <Gold.Chemscore.Lipo.Weighted>
-8.6169

> <Gold.Chemscore.Internal_Hbond.Weighted>
0.0000

> <Gold.Chemscore.DEClash.Weighted>
0.1960

> <Gold.Chemscore.DEInternal.Weighted>
0.1118

> <Gold.Chemscore.Rot.Weighted>
5.2554

> <Gold.Chemscore.Internal.Correction.Weighted>
   9.000000E+99

> <Gold.Protein.RotatedTorsions>
[ 6907 6896 6895 6894 ] final -108.19 input  -60.11 | X-H torsion
[ 7974 7965 7964 7962 ] final -144.12 input  175.53 | X-H torsion
[ 8008 7997 7996 7995 ] final  -51.63 input   59.86 | X-H torsion
[ 10167 10162 10161 10158 ] final  167.95 input  -65.29 | X-H torsion
[ 10718 10713 10712 10709 ] final -143.69 input   66.30 | X-H torsion
[ 10763 10752 10751 10750 ] final   90.98 input  -60.55 | X-H torsion
[ 11005 11000 10999 10996 ] final -175.38 input  -57.11 | X-H torsion

> <Gold.Protein.ActiveResidues>
 VAL166  LYS551  ARG553  GLY616  TRP617  ASP618  TYR619  PRO620  LYS621  CYS622 
 ASP623  PHE694  ASN695  SER759  ASP760  ASP761  ALA762  ILE779  LEU786  VAL792 
 PHE793  MET794  SER795  GLU796  ALA797  LYS798  CYS799  TRP800  GLU811  SER814 

> <Gold.Protein.RotatedAtoms>
  150.7487  133.9715  159.3546 H   0  0  0  0  0  0  0  0  0  0  0  0  # atno 6907 bound_to 6896
  151.7649  135.0799  160.0360 H   0  0  0  0  0  0  0  0  0  0  0  0  # atno 6908 bound_to 6896
  152.3378  133.5995  159.5891 H   0  0  0  0  0  0  0  0  0  0  0  0  # atno 6909 bound_to 6896
  144.8320  140.5749  143.5509 H   0  0  0  0  0  0  0  0  0  0  0  0  # atno 7974 bound_to 7965
  154.4087  140.1243  156.4861 H   0  0  0  0  0  0  0  0  0  0  0  0  # atno 8008 bound_to 7997
  155.7037  140.3494  155.4924 H   0  0  0  0  0  0  0  0  0  0  0  0  # atno 8009 bound_to 7997
  155.9362  140.1079  157.1082 H   0  0  0  0  0  0  0  0  0  0  0  0  # atno 8010 bound_to 7997
  139.4957  144.3866  151.9563 H   0  0  0  0  0  0  0  0  0  0  0  0  # atno 10167 bound_to 10162
  156.3610  130.7738  151.1906 H   0  0  0  0  0  0  0  0  0  0  0  0  # atno 10718 bound_to 10713
  153.2033  135.4414  155.0293 H   0  0  0  0  0  0  0  0  0  0  0  0  # atno 10763 bound_to 10752
  154.8159  135.3315  154.7179 H   0  0  0  0  0  0  0  0  0  0  0  0  # atno 10764 bound_to 10752
  153.7622  135.6990  153.4979 H   0  0  0  0  0  0  0  0  0  0  0  0  # atno 10765 bound_to 10752
  140.4639  134.6228  157.4854 H   0  0  0  0  0  0  0  0  0  0  0  0  # atno 11005 bound_to 11000
  145.4875  139.1491  143.3728 LP  0  0  0  0  0  0  0  0  0  0  0  0  # atno 17320 bound_to 7965
  146.2622  140.5012  142.8849 LP  0  0  0  0  0  0  0  0  0  0  0  0  # atno 17321 bound_to 7965
  140.3303  144.3324  150.5989 LP  0  0  0  0  0  0  0  0  0  0  0  0  # atno 17342 bound_to 10162
  140.5650  143.2187  151.7699 LP  0  0  0  0  0  0  0  0  0  0  0  0  # atno 17343 bound_to 10162
  157.7473  131.0400  150.4576 LP  0  0  0  0  0  0  0  0  0  0  0  0  # atno 17370 bound_to 10713
  156.4787  130.4069  149.6474 LP  0  0  0  0  0  0  0  0  0  0  0  0  # atno 17371 bound_to 10713
  139.9927  134.6959  155.9661 LP  0  0  0  0  0  0  0  0  0  0  0  0  # atno 17394 bound_to 11000
  141.1608  133.6539  156.4313 LP  0  0  0  0  0  0  0  0  0  0  0  0  # atno 17395 bound_to 11000

$$$$
