AV-unprocessed.smi:141|AV-procd|sdf|1188|dock4
  -GOLD-   2262018343D 1   1.00000     0.00000
 Structure written by MMmdl.
 56 59  0  0  0  0  0  0  0  0  1 V2000
  151.3506  136.4601  154.6681 O   0  0  0  0  0  0  0  0  0  0  0  0
  151.3547  136.5888  155.8942 C   0  0  0  0  0  0  0  0  0  0  0  0
  150.7245  135.4808  156.7648 C   0  0  0  0  0  0  0  0  0  0  0  0
  150.5162  134.2046  156.0439 N   0  0  0  0  0  0  0  0  0  0  0  0
  149.5779  134.1684  154.9822 C   0  0  0  0  0  0  0  0  0  0  0  0
  148.9551  135.1769  154.6460 O   0  0  0  0  0  0  0  0  0  0  0  0
  149.4014  132.8704  154.3405 C   0  0  0  0  0  0  0  0  0  0  0  0
  148.5257  132.7416  153.3295 F   0  0  0  0  0  0  0  0  0  0  0  0
  150.1002  131.7921  154.7506 C   0  0  0  0  0  0  0  0  0  0  0  0
  151.0160  131.8428  155.7854 N   0  0  0  0  0  0  0  0  0  0  0  0
  151.7669  130.6087  156.2336 C   0  0  1  0  0  0  0  0  0  0  0  0
  151.2328  129.3706  155.5039 C   0  0  0  0  0  0  0  0  0  0  0  0
  152.1920  129.2578  154.3391 C   0  0  0  0  0  0  0  0  0  0  0  0
  153.4958  129.7298  154.9718 C   0  0  0  0  0  0  0  0  0  0  0  0
  153.1177  130.7468  155.8961 O   0  0  0  0  0  0  0  0  0  0  0  0
  151.2324  133.0595  156.4680 C   0  0  0  0  0  0  0  0  0  0  0  0
  152.0166  133.1172  157.4177 O   0  0  0  0  0  0  0  0  0  0  0  0
  151.8983  137.6725  156.5008 N   0  0  0  0  0  0  0  0  0  0  0  0
  152.4841  138.8340  155.8181 C   0  0  0  0  0  0  0  0  0  0  0  0
  151.5673  140.0516  156.0346 C   0  0  0  0  0  0  0  0  0  0  0  0
  151.3479  140.3283  157.5391 C   0  0  0  0  0  0  0  0  0  0  0  0
  150.3640  141.4955  157.7783 C   0  0  0  0  0  0  0  0  0  0  0  0
  151.0030  142.6531  158.5230 C   0  0  0  0  0  0  0  0  0  0  0  0
  152.2706  142.4965  159.1219 C   0  0  0  0  0  0  0  0  0  0  0  0
  152.8675  143.5734  159.8060 C   0  0  0  0  0  0  0  0  0  0  0  0
  152.1996  144.8105  159.8920 C   0  0  0  0  0  0  0  0  0  0  0  0
  150.9351  144.9707  159.2926 C   0  0  0  0  0  0  0  0  0  0  0  0
  150.3373  143.8938  158.6091 C   0  0  0  0  0  0  0  0  0  0  0  0
  150.9063  139.0403  158.2684 C   0  0  0  0  0  0  0  0  0  0  0  0
  151.8556  137.8699  157.9551 C   0  0  0  0  0  0  0  0  0  0  0  0
  151.3536  135.3217  157.6421 H   0  0  0  0  0  0  0  0  0  0  0  0
  149.7792  135.8464  157.1684 H   0  0  0  0  0  0  0  0  0  0  0  0
  149.9212  130.8550  154.2447 H   0  0  0  0  0  0  0  0  0  0  0  0
  151.6629  130.5643  157.3189 H   0  0  0  0  0  0  0  0  0  0  0  0
  151.3310  128.5082  156.1645 H   0  0  0  0  0  0  0  0  0  0  0  0
  150.1870  129.4758  155.2124 H   0  0  0  0  0  0  0  0  0  0  0  0
  152.2557  128.2488  153.9315 H   0  0  0  0  0  0  0  0  0  0  0  0
  151.8926  129.9330  153.5367 H   0  0  0  0  0  0  0  0  0  0  0  0
  153.9663  128.9141  155.5226 H   0  0  0  0  0  0  0  0  0  0  0  0
  154.2103  130.1013  154.2369 H   0  0  0  0  0  0  0  0  0  0  0  0
  153.4717  139.0332  156.2369 H   0  0  0  0  0  0  0  0  0  0  0  0
  152.6499  138.6835  154.7528 H   0  0  0  0  0  0  0  0  0  0  0  0
  152.0008  140.9297  155.5546 H   0  0  0  0  0  0  0  0  0  0  0  0
  150.6089  139.8715  155.5450 H   0  0  0  0  0  0  0  0  0  0  0  0
  152.3186  140.6021  157.9567 H   0  0  0  0  0  0  0  0  0  0  0  0
  149.9628  141.8657  156.8338 H   0  0  0  0  0  0  0  0  0  0  0  0
  149.4957  141.1578  158.3458 H   0  0  0  0  0  0  0  0  0  0  0  0
  152.7895  141.5512  159.0561 H   0  0  0  0  0  0  0  0  0  0  0  0
  153.8380  143.4506  160.2638 H   0  0  0  0  0  0  0  0  0  0  0  0
  152.6579  145.6363  160.4159 H   0  0  0  0  0  0  0  0  0  0  0  0
  150.4240  145.9200  159.3564 H   0  0  0  0  0  0  0  0  0  0  0  0
  149.3682  144.0228  158.1490 H   0  0  0  0  0  0  0  0  0  0  0  0
  150.8769  139.2133  159.3448 H   0  0  0  0  0  0  0  0  0  0  0  0
  149.8918  138.7723  157.9690 H   0  0  0  0  0  0  0  0  0  0  0  0
  151.5352  136.9795  158.4971 H   0  0  0  0  0  0  0  0  0  0  0  0
  152.8595  138.0918  158.3200 H   0  0  0  0  0  0  0  0  0  0  0  0
  1  2  2  0  0  0  0
  2  3  1  0  0  0  0
  2 18  1  0  0  0  0
  3  4  1  0  0  0  0
  3 31  1  0  0  0  0
  3 32  1  0  0  0  0
  4 16  1  0  0  0  0
  4  5  1  0  0  0  0
  5  6  2  0  0  0  0
  5  7  1  0  0  0  0
  7  8  1  0  0  0  0
  7  9  2  0  0  0  0
  9 10  1  0  0  0  0
  9 33  1  0  0  0  0
 10 11  1  0  0  0  0
 10 16  1  0  0  0  0
 11 15  1  0  0  0  0
 11 12  1  0  0  0  0
 11 34  1  0  0  0  0
 12 13  1  0  0  0  0
 12 35  1  0  0  0  0
 12 36  1  0  0  0  0
 13 14  1  0  0  0  0
 13 37  1  0  0  0  0
 13 38  1  0  0  0  0
 14 15  1  0  0  0  0
 14 39  1  0  0  0  0
 14 40  1  0  0  0  0
 16 17  2  0  0  0  0
 18 30  1  0  0  0  0
 18 19  1  0  0  0  0
 19 20  1  0  0  0  0
 19 41  1  0  0  0  0
 19 42  1  0  0  0  0
 20 21  1  0  0  0  0
 20 43  1  0  0  0  0
 20 44  1  0  0  0  0
 21 22  1  0  0  0  0
 21 29  1  0  0  0  0
 21 45  1  0  0  0  0
 22 23  1  0  0  0  0
 22 46  1  0  0  0  0
 22 47  1  0  0  0  0
 23 28  1  0  0  0  0
 23 24  2  0  0  0  0
 24 25  1  0  0  0  0
 24 48  1  0  0  0  0
 25 26  2  0  0  0  0
 25 49  1  0  0  0  0
 26 27  1  0  0  0  0
 26 50  1  0  0  0  0
 27 28  2  0  0  0  0
 27 51  1  0  0  0  0
 28 52  1  0  0  0  0
 29 30  1  0  0  0  0
 29 53  1  0  0  0  0
 29 54  1  0  0  0  0
 30 55  1  0  0  0  0
 30 56  1  0  0  0  0
M  END
> <s_m_source_file>
AV-unprocessed.smi

> <i_m_source_file_index>
141

> <i_lp_mmshare_version>
43012

> <i_f3d_flags>
0

> <s_epik_input>
W2NIXTFbY0hdW2NIXVtjSF1bY0hdYzFbQ0gyXVtDSF0oW0NIMl1bQ0gyXTIpW0NIMl1bQ0gyXU4yQyg9TylbQ0gyXW4zYyg9TyljKEYpW2NIXW4oYzM9TylbQ0BASF00W0NIMl1bQ0gyXVtDSDJdTzQ=

> <s_epik_cmdline>
J2VwaWtfcHl0aG9uJywgJy1waCcsICc3LjAnLCAnLXRuJywgJzgnLCAnLW1hJywgJzIwMCcsICctbWV0YWxfYmluZGluZycsICctaW1hZScsICc8aW5maWxlLm1hZT4nLCAnLW9tYWUnLCAnPG91dGZpbGUubWFlPic=

> <r_lp_tautomer_probability>
1

> <r_epik_Ionization_Penalty>
3.78313e-08

> <r_epik_Ionization_Penalty_Charging>
4.95074e-09

> <r_epik_Ionization_Penalty_Neutral>
3.28806e-08

> <r_epik_State_Penalty>
-0

> <r_epik_Charging_Adjusted_Penalty>
4.95074e-09

> <i_epik_Tot_Q>
0

> <i_epik_Tot_abs_Q>
0

> <r_epik_Metal_State_Penalty>
-0

> <b_epik_Metal_Only>
0

> <s_epik_Chemistry_Notes>
This compound contains an acetal/aminal-like group ( X-CH(R)-Y where X, Y are N, S, or O) that may be acid/base labile, releasing an aldehyde.

> <s_lp_Force_Field>
OPLS_2005

> <r_lp_Energy>
51.0645

> <b_lp_Chiralities_Consistent>
1

> <s_lp_Variant>
AV-unprocessed.smi:141-2

> <Gold.Version>
5.8.1

> <Gold.Id.Protein>
6NUR|6NUR_protein|mol2

> <Gold.PLP.Fitness>
58.8608

> <Gold.PLP.PLP>
-56.0554

> <Gold.PLP.part.hbond>
-2.0000

> <Gold.PLP.part.metal>
0.0000

> <Gold.PLP.part.buried>
-6.5619

> <Gold.PLP.part.nonpolar>
-49.5714

> <Gold.PLP.part.repulsive>
1.4910

> <Gold.PLP.ligand.clash>
0.0000

> <Gold.PLP.ligand.torsion>
1.2568

> <Gold.PLP.Chemscore.Hbond>
1.7520

> <Gold.PLP.Chemscore.CHOScore>
0.0000

> <Gold.PLP.Chemscore.Metal>
0.0000

> <Gold.Chemscore.Hbonds>
donor molecule, donor type, donor heavy atom, donor atom, acceptor molecule, acceptor atom, score
      P1  H  6896  6908       L1    17  0.74
      P1  H 10752 10765       L1     1  0.95

> <Gold.PLP.Chemscore.Internal.Correction>
0.0630

> <Gold.Rescore>
     Score         DG    S(hbond)    S(metal)    S(lipo)     H(rot)  DE(clash)    DE(int)     intcor
     16.25     -21.23       1.92        0.00     120.25       1.85       0.13       4.86       ----

> <Gold.Chemscore.Fitness>
16.2455

> <Gold.Chemscore.DG>
-21.2292

> <Gold.Chemscore.ZeroCoef>
-5.4800

> <Gold.Chemscore.Hbond>
1.9178

> <Gold.Chemscore.Metal>
0.0000

> <Gold.Chemscore.Lipo>
120.2545

> <Gold.Chemscore.Internal_Hbond>
0.0000

> <Gold.Chemscore.DEClash>
0.1269

> <Gold.Chemscore.DEInternal>
4.8568

> <Gold.Chemscore.Rot>
1.8461

> <Gold.Chemscore.Internal.Correction>
   9.000000E+99

> <Gold.Chemscore.Hbonds>
donor molecule, donor type, donor heavy atom, donor atom, acceptor molecule, acceptor atom, score
      P1  H  6896  6908       L1    17  0.74
      P1  H 10752 10765       L1     1  0.22

> <Gold.Chemscore.Hbond.Weighted>
-6.4055

> <Gold.Chemscore.Metal.Weighted>
-0.0000

> <Gold.Chemscore.Lipo.Weighted>
-14.0698

> <Gold.Chemscore.Internal_Hbond.Weighted>
0.0000

> <Gold.Chemscore.DEClash.Weighted>
0.1269

> <Gold.Chemscore.DEInternal.Weighted>
4.8568

> <Gold.Chemscore.Rot.Weighted>
4.7260

> <Gold.Chemscore.Internal.Correction.Weighted>
   9.000000E+99

> <Gold.Protein.RotatedTorsions>
[ 6907 6896 6895 6894 ] final   66.68 input  -60.11 | X-H torsion
[ 7974 7965 7964 7962 ] final   83.13 input  175.53 | X-H torsion
[ 8008 7997 7996 7995 ] final  120.86 input   59.86 | X-H torsion
[ 10167 10162 10161 10158 ] final  -68.43 input  -65.29 | X-H torsion
[ 10718 10713 10712 10709 ] final   41.89 input   66.30 | X-H torsion
[ 10763 10752 10751 10750 ] final  173.70 input  -60.55 | X-H torsion
[ 11005 11000 10999 10996 ] final   95.32 input  -57.11 | X-H torsion

> <Gold.Protein.ActiveResidues>
 VAL166  LYS551  ARG553  GLY616  TRP617  ASP618  TYR619  PRO620  LYS621  CYS622 
 ASP623  PHE694  ASN695  SER759  ASP760  ASP761  ALA762  ILE779  LEU786  VAL792 
 PHE793  MET794  SER795  GLU796  ALA797  LYS798  CYS799  TRP800  GLU811  SER814 

> <Gold.Protein.RotatedAtoms>
  152.4498  134.5418  159.9840 H   0  0  0  0  0  0  0  0  0  0  0  0  # atno 6907 bound_to 6896
  151.5493  133.3414  159.2958 H   0  0  0  0  0  0  0  0  0  0  0  0  # atno 6908 bound_to 6896
  150.8424  134.7752  159.7006 H   0  0  0  0  0  0  0  0  0  0  0  0  # atno 6909 bound_to 6896
  145.6159  139.2377  143.2166 H   0  0  0  0  0  0  0  0  0  0  0  0  # atno 7974 bound_to 7965
  156.2661  140.2821  156.1217 H   0  0  0  0  0  0  0  0  0  0  0  0  # atno 8008 bound_to 7997
  155.1149  140.0391  157.2751 H   0  0  0  0  0  0  0  0  0  0  0  0  # atno 8009 bound_to 7997
  154.6715  140.2589  155.7009 H   0  0  0  0  0  0  0  0  0  0  0  0  # atno 8010 bound_to 7997
  140.5508  143.2312  151.6914 H   0  0  0  0  0  0  0  0  0  0  0  0  # atno 10167 bound_to 10162
  157.3987  130.7847  149.7330 H   0  0  0  0  0  0  0  0  0  0  0  0  # atno 10718 bound_to 10713
  154.4437  135.2763  155.1830 H   0  0  0  0  0  0  0  0  0  0  0  0  # atno 10763 bound_to 10752
  154.3686  135.6114  153.5731 H   0  0  0  0  0  0  0  0  0  0  0  0  # atno 10764 bound_to 10752
  152.9842  135.5852  154.4769 H   0  0  0  0  0  0  0  0  0  0  0  0  # atno 10765 bound_to 10752
  139.8790  134.8892  156.3993 H   0  0  0  0  0  0  0  0  0  0  0  0  # atno 11005 bound_to 11000
  146.1468  140.6981  142.9341 LP  0  0  0  0  0  0  0  0  0  0  0  0  # atno 17320 bound_to 7965
  144.7250  140.4497  143.6979 LP  0  0  0  0  0  0  0  0  0  0  0  0  # atno 17321 bound_to 7965
  139.5026  144.3821  152.0366 LP  0  0  0  0  0  0  0  0  0  0  0  0  # atno 17342 bound_to 10162
  140.2937  144.3724  150.6080 LP  0  0  0  0  0  0  0  0  0  0  0  0  # atno 17343 bound_to 10162
  155.9817  130.4017  150.3456 LP  0  0  0  0  0  0  0  0  0  0  0  0  # atno 17370 bound_to 10713
  157.1581  131.0338  151.2854 LP  0  0  0  0  0  0  0  0  0  0  0  0  # atno 17371 bound_to 10713
  140.9278  133.7600  155.9986 LP  0  0  0  0  0  0  0  0  0  0  0  0  # atno 17394 bound_to 11000
  140.8366  134.3116  157.5329 LP  0  0  0  0  0  0  0  0  0  0  0  0  # atno 17395 bound_to 11000

$$$$
