AV-unprocessed.smi:108|AV-procd|sdf|1029|dock3
  -GOLD-   2262018 33D 1   1.00000     0.00000
 Structure written by MMmdl.
 59 62  0  0  0  0  0  0  0  0  1 V2000
  152.2328  136.5196  158.5733 O   0  0  0  0  0  0  0  0  0  0  0  0
  151.6205  137.5457  158.2686 C   0  0  0  0  0  0  0  0  0  0  0  0
  152.4019  138.7432  157.6852 C   0  0  0  0  0  0  0  0  0  0  0  0
  152.6054  139.8430  158.6539 N   0  0  0  0  0  0  0  0  0  0  0  0
  153.4994  139.6380  159.7332 C   0  0  0  0  0  0  0  0  0  0  0  0
  154.1237  138.5830  159.8557 O   0  0  0  0  0  0  0  0  0  0  0  0
  153.6030  140.7420  160.6793 C   0  0  0  0  0  0  0  0  0  0  0  0
  154.3919  140.6197  161.7606 F   0  0  0  0  0  0  0  0  0  0  0  0
  152.9033  141.8808  160.4983 C   0  0  0  0  0  0  0  0  0  0  0  0
  152.0708  142.0907  159.4125 N   0  0  0  0  0  0  0  0  0  0  0  0
  151.2144  143.3351  159.2891 C   0  0  2  0  0  0  0  0  0  0  0  0
  151.4324  144.1271  157.9879 C   0  0  0  0  0  0  0  0  0  0  0  0
  152.2704  145.2994  158.4593 C   0  0  0  0  0  0  0  0  0  0  0  0
  151.7527  145.4931  159.8790 C   0  0  0  0  0  0  0  0  0  0  0  0
  151.5363  144.1724  160.3600 O   0  0  0  0  0  0  0  0  0  0  0  0
  151.8628  141.0379  158.4922 C   0  0  0  0  0  0  0  0  0  0  0  0
  151.0501  141.1541  157.5717 O   0  0  0  0  0  0  0  0  0  0  0  0
  150.2790  137.6559  158.4387 N   0  0  0  0  0  0  0  0  0  0  0  0
  149.5006  136.5582  159.0377 C   0  0  0  0  0  0  0  0  0  0  0  0
  148.6792  137.0036  160.2672 C   0  0  0  0  0  0  0  0  0  0  0  0
  147.9289  135.8672  160.9414 C   0  0  0  0  0  0  0  0  0  0  0  0
  147.2262  136.0961  162.1441 C   0  0  0  0  0  0  0  0  0  0  0  0
  146.5113  135.0488  162.7562 C   0  0  0  0  0  0  0  0  0  0  0  0
  146.4987  133.7683  162.1701 C   0  0  0  0  0  0  0  0  0  0  0  0
  147.2015  133.5357  160.9719 C   0  0  0  0  0  0  0  0  0  0  0  0
  147.9155  134.5832  160.3581 C   0  0  0  0  0  0  0  0  0  0  0  0
  149.5012  138.8470  158.0550 C   0  0  0  0  0  0  0  0  0  0  0  0
  149.2009  138.9732  156.5653 C   0  0  0  0  0  0  0  0  0  0  0  0
  150.2283  139.1485  155.6094 C   0  0  0  0  0  0  0  0  0  0  0  0
  149.9140  139.2653  154.2416 C   0  0  0  0  0  0  0  0  0  0  0  0
  148.5733  139.2004  153.8175 C   0  0  0  0  0  0  0  0  0  0  0  0
  147.5466  139.0153  154.7627 C   0  0  0  0  0  0  0  0  0  0  0  0
  147.8604  138.9007  156.1308 C   0  0  0  0  0  0  0  0  0  0  0  0
  153.3601  138.3926  157.3008 H   0  0  0  0  0  0  0  0  0  0  0  0
  151.8775  139.1154  156.8045 H   0  0  0  0  0  0  0  0  0  0  0  0
  153.0080  142.6447  161.2516 H   0  0  0  0  0  0  0  0  0  0  0  0
  150.1794  142.9955  159.3550 H   0  0  0  0  0  0  0  0  0  0  0  0
  151.8716  143.5346  157.1854 H   0  0  0  0  0  0  0  0  0  0  0  0
  150.4612  144.4858  157.6446 H   0  0  0  0  0  0  0  0  0  0  0  0
  153.3285  145.0387  158.4790 H   0  0  0  0  0  0  0  0  0  0  0  0
  152.1508  146.1874  157.8380 H   0  0  0  0  0  0  0  0  0  0  0  0
  152.4499  146.0420  160.5124 H   0  0  0  0  0  0  0  0  0  0  0  0
  150.8027  146.0295  159.8704 H   0  0  0  0  0  0  0  0  0  0  0  0
  148.8244  136.1324  158.2954 H   0  0  0  0  0  0  0  0  0  0  0  0
  150.1628  135.7358  159.3136 H   0  0  0  0  0  0  0  0  0  0  0  0
  149.3392  137.4751  160.9961 H   0  0  0  0  0  0  0  0  0  0  0  0
  147.9632  137.7731  159.9760 H   0  0  0  0  0  0  0  0  0  0  0  0
  147.2244  137.0781  162.5953 H   0  0  0  0  0  0  0  0  0  0  0  0
  145.9711  135.2291  163.6739 H   0  0  0  0  0  0  0  0  0  0  0  0
  145.9497  132.9652  162.6391 H   0  0  0  0  0  0  0  0  0  0  0  0
  147.1908  132.5539  160.5221 H   0  0  0  0  0  0  0  0  0  0  0  0
  148.4475  134.4010  159.4358 H   0  0  0  0  0  0  0  0  0  0  0  0
  148.5459  138.8638  158.5806 H   0  0  0  0  0  0  0  0  0  0  0  0
  150.0071  139.7485  158.4012 H   0  0  0  0  0  0  0  0  0  0  0  0
  151.2636  139.1974  155.9125 H   0  0  0  0  0  0  0  0  0  0  0  0
  150.7030  139.4047  153.5173 H   0  0  0  0  0  0  0  0  0  0  0  0
  148.3332  139.2905  152.7683 H   0  0  0  0  0  0  0  0  0  0  0  0
  146.5178  138.9618  154.4387 H   0  0  0  0  0  0  0  0  0  0  0  0
  147.0659  138.7593  156.8489 H   0  0  0  0  0  0  0  0  0  0  0  0
  1  2  2  0  0  0  0
  2  3  1  0  0  0  0
  2 18  1  0  0  0  0
  3  4  1  0  0  0  0
  3 34  1  0  0  0  0
  3 35  1  0  0  0  0
  4 16  1  0  0  0  0
  4  5  1  0  0  0  0
  5  6  2  0  0  0  0
  5  7  1  0  0  0  0
  7  8  1  0  0  0  0
  7  9  2  0  0  0  0
  9 10  1  0  0  0  0
  9 36  1  0  0  0  0
 10 11  1  0  0  0  0
 10 16  1  0  0  0  0
 11 15  1  0  0  0  0
 11 12  1  0  0  0  0
 11 37  1  0  0  0  0
 12 13  1  0  0  0  0
 12 38  1  0  0  0  0
 12 39  1  0  0  0  0
 13 14  1  0  0  0  0
 13 40  1  0  0  0  0
 13 41  1  0  0  0  0
 14 15  1  0  0  0  0
 14 42  1  0  0  0  0
 14 43  1  0  0  0  0
 16 17  2  0  0  0  0
 18 19  1  0  0  0  0
 18 27  1  0  0  0  0
 19 20  1  0  0  0  0
 19 44  1  0  0  0  0
 19 45  1  0  0  0  0
 20 21  1  0  0  0  0
 20 46  1  0  0  0  0
 20 47  1  0  0  0  0
 21 26  1  0  0  0  0
 21 22  2  0  0  0  0
 22 23  1  0  0  0  0
 22 48  1  0  0  0  0
 23 24  2  0  0  0  0
 23 49  1  0  0  0  0
 24 25  1  0  0  0  0
 24 50  1  0  0  0  0
 25 26  2  0  0  0  0
 25 51  1  0  0  0  0
 26 52  1  0  0  0  0
 27 28  1  0  0  0  0
 27 53  1  0  0  0  0
 27 54  1  0  0  0  0
 28 33  1  0  0  0  0
 28 29  2  0  0  0  0
 29 30  1  0  0  0  0
 29 55  1  0  0  0  0
 30 31  2  0  0  0  0
 30 56  1  0  0  0  0
 31 32  1  0  0  0  0
 31 57  1  0  0  0  0
 32 33  2  0  0  0  0
 32 58  1  0  0  0  0
 33 59  1  0  0  0  0
M  END
> <s_m_source_file>
AV-unprocessed.smi

> <i_m_source_file_index>
108

> <i_lp_mmshare_version>
43012

> <i_f3d_flags>
0

> <s_epik_input>
W2NIXTFbY0hdW2NIXVtjSF1bY0hdYzFbQ0gyXVtDSDJdTihbQ0gyXWMyW2NIXVtjSF1bY0hdW2NIXVtjSF0yKUMoPU8pW0NIMl1uM2MoPU8pYyhGKVtjSF1uKGMzPU8pW0NAQEhdNFtDSDJdW0NIMl1bQ0gyXU80

> <s_epik_cmdline>
J2VwaWtfcHl0aG9uJywgJy1waCcsICc3LjAnLCAnLXRuJywgJzgnLCAnLW1hJywgJzIwMCcsICctbWV0YWxfYmluZGluZycsICctaW1hZScsICc8aW5maWxlLm1hZT4nLCAnLW9tYWUnLCAnPG91dGZpbGUubWFlPic=

> <r_lp_tautomer_probability>
1

> <r_epik_Ionization_Penalty>
5.46209e-09

> <r_epik_Ionization_Penalty_Charging>
4.22697e-09

> <r_epik_Ionization_Penalty_Neutral>
1.23512e-09

> <r_epik_State_Penalty>
-0

> <r_epik_Charging_Adjusted_Penalty>
4.22697e-09

> <i_epik_Tot_Q>
0

> <i_epik_Tot_abs_Q>
0

> <r_epik_Metal_State_Penalty>
-0

> <b_epik_Metal_Only>
0

> <s_epik_Chemistry_Notes>
This compound contains an acetal/aminal-like group ( X-CH(R)-Y where X, Y are N, S, or O) that may be acid/base labile, releasing an aldehyde.

> <s_lp_Force_Field>
OPLS_2005

> <r_lp_Energy>
39.1501

> <b_lp_Chiralities_Consistent>
1

> <s_lp_Variant>
AV-unprocessed.smi:108-1

> <Gold.Version>
5.8.1

> <Gold.Id.Protein>
6NUR|6NUR_protein|mol2

> <Gold.PLP.Fitness>
62.3825

> <Gold.PLP.PLP>
-61.5214

> <Gold.PLP.part.hbond>
-1.0000

> <Gold.PLP.part.metal>
0.0000

> <Gold.PLP.part.buried>
-3.2571

> <Gold.PLP.part.nonpolar>
-56.7268

> <Gold.PLP.part.repulsive>
0.1160

> <Gold.PLP.ligand.clash>
0.0000

> <Gold.PLP.ligand.torsion>
0.6918

> <Gold.PLP.Chemscore.Hbond>
0.6720

> <Gold.PLP.Chemscore.CHOScore>
0.0000

> <Gold.PLP.Chemscore.Metal>
0.0000

> <Gold.Chemscore.Hbonds>
donor molecule, donor type, donor heavy atom, donor atom, acceptor molecule, acceptor atom, score
      P1  H  6896  6907       L1     1  0.63

> <Gold.PLP.Chemscore.Internal.Correction>
0.2288

> <Gold.Rescore>
     Score         DG    S(hbond)    S(metal)    S(lipo)     H(rot)  DE(clash)    DE(int)     intcor
     15.06     -19.92       0.87        0.00     148.27       2.28       1.71       3.16       ----

> <Gold.Chemscore.Fitness>
15.0587

> <Gold.Chemscore.DG>
-19.9238

> <Gold.Chemscore.ZeroCoef>
-5.4800

> <Gold.Chemscore.Hbond>
0.8749

> <Gold.Chemscore.Metal>
0.0000

> <Gold.Chemscore.Lipo>
148.2659

> <Gold.Chemscore.Internal_Hbond>
0.0000

> <Gold.Chemscore.DEClash>
1.7058

> <Gold.Chemscore.DEInternal>
3.1593

> <Gold.Chemscore.Rot>
2.2756

> <Gold.Chemscore.Internal.Correction>
   9.000000E+99

> <Gold.Chemscore.Hbonds>
donor molecule, donor type, donor heavy atom, donor atom, acceptor molecule, acceptor atom, score
      P1  H  6896  6907       L1     1  0.59

> <Gold.Chemscore.Hbond.Weighted>
-2.9222

> <Gold.Chemscore.Metal.Weighted>
-0.0000

> <Gold.Chemscore.Lipo.Weighted>
-17.3471

> <Gold.Chemscore.Internal_Hbond.Weighted>
0.0000

> <Gold.Chemscore.DEClash.Weighted>
1.7058

> <Gold.Chemscore.DEInternal.Weighted>
3.1593

> <Gold.Chemscore.Rot.Weighted>
5.8255

> <Gold.Chemscore.Internal.Correction.Weighted>
   9.000000E+99

> <Gold.Protein.RotatedTorsions>
[ 6907 6896 6895 6894 ] final    9.66 input  -60.11 | X-H torsion
[ 7974 7965 7964 7962 ] final -126.50 input  175.53 | X-H torsion
[ 8008 7997 7996 7995 ] final  161.13 input   59.86 | X-H torsion
[ 10167 10162 10161 10158 ] final   49.72 input  -65.29 | X-H torsion
[ 10718 10713 10712 10709 ] final  -61.37 input   66.30 | X-H torsion
[ 10763 10752 10751 10750 ] final   92.53 input  -60.55 | X-H torsion
[ 11005 11000 10999 10996 ] final  -66.30 input  -57.11 | X-H torsion

> <Gold.Protein.ActiveResidues>
 VAL166  LYS551  ARG553  GLY616  TRP617  ASP618  TYR619  PRO620  LYS621  CYS622 
 ASP623  PHE694  ASN695  SER759  ASP760  ASP761  ALA762  ILE779  LEU786  VAL792 
 PHE793  MET794  SER795  GLU796  ALA797  LYS798  CYS799  TRP800  GLU811  SER814 

> <Gold.Protein.RotatedAtoms>
  151.7257  135.0885  160.0291 H   0  0  0  0  0  0  0  0  0  0  0  0  # atno 6907 bound_to 6896
  152.3573  133.6249  159.5997 H   0  0  0  0  0  0  0  0  0  0  0  0  # atno 6908 bound_to 6896
  150.7580  133.9395  159.3493 H   0  0  0  0  0  0  0  0  0  0  0  0  # atno 6909 bound_to 6896
  144.9866  140.7692  143.4580 H   0  0  0  0  0  0  0  0  0  0  0  0  # atno 7974 bound_to 7965
  156.2124  140.1785  156.7664 H   0  0  0  0  0  0  0  0  0  0  0  0  # atno 8008 bound_to 7997
  154.5742  140.0677  156.9039 H   0  0  0  0  0  0  0  0  0  0  0  0  # atno 8009 bound_to 7997
  155.2617  140.3336  155.4275 H   0  0  0  0  0  0  0  0  0  0  0  0  # atno 8010 bound_to 7997
  140.2800  144.3168  150.6267 H   0  0  0  0  0  0  0  0  0  0  0  0  # atno 10167 bound_to 10162
  156.0927  130.4197  150.0984 H   0  0  0  0  0  0  0  0  0  0  0  0  # atno 10718 bound_to 10713
  153.2202  135.4358  155.0481 H   0  0  0  0  0  0  0  0  0  0  0  0  # atno 10763 bound_to 10752
  154.8246  135.3354  154.6938 H   0  0  0  0  0  0  0  0  0  0  0  0  # atno 10764 bound_to 10752
  153.7370  135.7007  153.5032 H   0  0  0  0  0  0  0  0  0  0  0  0  # atno 10765 bound_to 10752
  141.1478  133.6697  156.6118 H   0  0  0  0  0  0  0  0  0  0  0  0  # atno 11005 bound_to 11000
  145.2345  139.2100  143.5025 LP  0  0  0  0  0  0  0  0  0  0  0  0  # atno 17320 bound_to 7965
  146.3421  140.2228  142.8592 LP  0  0  0  0  0  0  0  0  0  0  0  0  # atno 17321 bound_to 7965
  140.5820  143.2172  151.7412 LP  0  0  0  0  0  0  0  0  0  0  0  0  # atno 17342 bound_to 10162
  139.4965  144.4067  152.0124 LP  0  0  0  0  0  0  0  0  0  0  0  0  # atno 17343 bound_to 10162
  156.8990  130.9614  151.3579 LP  0  0  0  0  0  0  0  0  0  0  0  0  # atno 17370 bound_to 10713
  157.6080  130.8561  149.8906 LP  0  0  0  0  0  0  0  0  0  0  0  0  # atno 17371 bound_to 10713
  140.3609  134.7688  157.4533 LP  0  0  0  0  0  0  0  0  0  0  0  0  # atno 17394 bound_to 11000
  140.0786  134.5763  155.8564 LP  0  0  0  0  0  0  0  0  0  0  0  0  # atno 17395 bound_to 11000

$$$$
