AV-unprocessed.smi:158|AV-procd|sdf|1334|dock4
  -GOLD-   2262019 33D 1   1.00000     0.00000
 Structure written by MMmdl.
 31 33  0  0  0  0  0  0  0  0  1 V2000
  152.1638  144.3502  159.0379 N   0  0  0  0  0  0  0  0  0  0  0  0
  152.2714  143.0223  158.8894 C   0  0  0  0  0  0  0  0  0  0  0  0
  153.2279  142.3721  159.5918 N   0  0  0  0  0  0  0  0  0  0  0  0
  153.3712  141.0476  159.4682 C   0  0  0  0  0  0  0  0  0  0  0  0
  154.6180  140.3163  160.4081 Cl  0  0  0  0  0  0  0  0  0  0  0  0
  152.6548  140.2244  158.6971 N   0  0  0  0  0  0  0  0  0  0  0  0
  151.6822  140.8704  157.9900 C   0  0  0  0  0  0  0  0  0  0  0  0
  151.4325  142.2695  158.0313 C   0  0  0  0  0  0  0  0  0  0  0  0
  150.3821  142.5907  157.1843 N   0  0  0  0  0  0  0  0  0  0  0  0
  150.0313  141.4415  156.6742 C   0  0  0  0  0  0  0  0  0  0  0  0
  150.7519  140.3488  157.1075 N   0  0  0  0  0  0  0  0  0  0  0  0
  150.5519  138.9210  156.6799 C   0  0  1  0  0  0  0  0  0  0  0  0
  149.2108  138.7264  156.3331 O   0  0  0  0  0  0  0  0  0  0  0  0
  149.0996  138.3097  154.9705 C   0  0  1  0  0  0  0  0  0  0  0  0
  147.7815  138.7850  154.3322 C   0  0  0  0  0  0  0  0  0  0  0  0
  147.7929  140.1886  154.1779 O   0  0  0  0  0  0  0  0  0  0  0  0
  150.4050  138.7541  154.2935 C   0  0  1  0  0  0  0  0  0  0  0  0
  150.3418  140.0953  153.8439 O   0  0  0  0  0  0  0  0  0  0  0  0
  151.3879  138.5804  155.4362 C   0  0  1  0  0  0  0  0  0  0  0  0
  152.4994  139.3126  155.3269 F   0  0  0  0  0  0  0  0  0  0  0  0
  150.8252  138.3392  157.5608 H   0  0  0  0  0  0  0  0  0  0  0  0
  149.0935  137.2187  155.0008 H   0  0  0  0  0  0  0  0  0  0  0  0
  150.6562  138.1196  153.4428 H   0  0  0  0  0  0  0  0  0  0  0  0
  151.6907  137.5353  155.5095 H   0  0  0  0  0  0  0  0  0  0  0  0
  151.4582  144.8576  158.5232 H   0  0  0  0  0  0  0  0  0  0  0  0
  152.7861  144.8401  159.6642 H   0  0  0  0  0  0  0  0  0  0  0  0
  149.2223  141.3550  155.9634 H   0  0  0  0  0  0  0  0  0  0  0  0
  147.6658  138.3354  153.3456 H   0  0  0  0  0  0  0  0  0  0  0  0
  146.9123  138.4877  154.9182 H   0  0  0  0  0  0  0  0  0  0  0  0
  147.0970  140.4306  153.5858 H   0  0  0  0  0  0  0  0  0  0  0  0
  149.9035  140.1100  153.0067 H   0  0  0  0  0  0  0  0  0  0  0  0
  1  2  1  0  0  0  0
  1 25  1  0  0  0  0
  1 26  1  0  0  0  0
  2  8  1  0  0  0  0
  2  3  2  0  0  0  0
  3  4  1  0  0  0  0
  4  5  1  0  0  0  0
  4  6  2  0  0  0  0
  6  7  1  0  0  0  0
  7 11  1  0  0  0  0
  7  8  2  0  0  0  0
  8  9  1  0  0  0  0
  9 10  2  0  0  0  0
 10 11  1  0  0  0  0
 10 27  1  0  0  0  0
 11 12  1  0  0  0  0
 12 21  1  0  0  0  0
 12 19  1  0  0  0  0
 12 13  1  0  0  0  0
 13 14  1  0  0  0  0
 14 22  1  0  0  0  0
 14 15  1  0  0  0  0
 14 17  1  0  0  0  0
 15 16  1  0  0  0  0
 15 28  1  0  0  0  0
 15 29  1  0  0  0  0
 16 30  1  0  0  0  0
 17 23  1  0  0  0  0
 17 18  1  0  0  0  0
 17 19  1  0  0  0  0
 18 31  1  0  0  0  0
 19 24  1  0  0  0  0
 19 20  1  0  0  0  0
M  END
> <s_m_source_file>
AV-unprocessed.smi

> <i_m_source_file_index>
158

> <i_lp_mmshare_version>
43012

> <i_f3d_flags>
0

> <s_epik_input>
Q2xjKG4xKW5jKFtOSDJdKWMoYzEyKW5bY0hdbjJbQ0BASF0zT1tDQEhdKFtDSDJdW09IXSlbQ0BASF0oW09IXSlbQ0BASF0zRg==

> <s_epik_cmdline>
J2VwaWtfcHl0aG9uJywgJy1waCcsICc3LjAnLCAnLXRuJywgJzgnLCAnLW1hJywgJzIwMCcsICctbWV0YWxfYmluZGluZycsICctaW1hZScsICc8aW5maWxlLm1hZT4nLCAnLW9tYWUnLCAnPG91dGZpbGUubWFlPic=

> <r_lp_tautomer_probability>
1

> <r_epik_Ionization_Penalty>
6.51543e-05

> <r_epik_Ionization_Penalty_Charging>
0

> <r_epik_Ionization_Penalty_Neutral>
6.51543e-05

> <r_epik_State_Penalty>
-0

> <r_epik_Charging_Adjusted_Penalty>
0

> <i_epik_Tot_Q>
0

> <i_epik_Tot_abs_Q>
0

> <r_epik_Metal_State_Penalty>
-0

> <b_epik_Metal_Only>
0

> <s_epik_Chemistry_Notes>
This compound contains an acetal/aminal-like group ( X-CH(R)-Y where X, Y are N, S, or O) that may be acid/base labile, releasing an aldehyde.

> <s_lp_Force_Field>
OPLS_2005

> <r_lp_Energy>
41.2986

> <b_lp_Chiralities_Consistent>
1

> <s_lp_Variant>
AV-unprocessed.smi:158-12

> <Gold.Version>
5.8.1

> <Gold.Id.Protein>
6NUR|6NUR_protein|mol2

> <Gold.PLP.Fitness>
34.4932

> <Gold.PLP.PLP>
-29.5226

> <Gold.PLP.part.hbond>
-1.6697

> <Gold.PLP.part.metal>
0.0000

> <Gold.PLP.part.buried>
-5.1871

> <Gold.PLP.part.nonpolar>
-22.8477

> <Gold.PLP.part.repulsive>
1.0209

> <Gold.PLP.ligand.clash>
0.0000

> <Gold.PLP.ligand.torsion>
0.7776

> <Gold.PLP.Chemscore.Hbond>
1.9120

> <Gold.PLP.Chemscore.CHOScore>
0.0000

> <Gold.PLP.Chemscore.Metal>
0.0000

> <Gold.Chemscore.Hbonds>
donor molecule, donor type, donor heavy atom, donor atom, acceptor molecule, acceptor atom, score
      L1  H    18    31       P1  7957  1.00
      P1  H  7989  7998       L1    18  0.87

> <Gold.PLP.Chemscore.Internal.Correction>
0.7897

> <Gold.Rescore>
     Score         DG    S(hbond)    S(metal)    S(lipo)     H(rot)  DE(clash)    DE(int)     intcor
      4.99      -7.36       1.58        0.00      39.32       3.12       1.64       0.73       ----

> <Gold.Chemscore.Fitness>
4.9891

> <Gold.Chemscore.DG>
-7.3574

> <Gold.Chemscore.ZeroCoef>
-5.4800

> <Gold.Chemscore.Hbond>
1.5785

> <Gold.Chemscore.Metal>
0.0000

> <Gold.Chemscore.Lipo>
39.3172

> <Gold.Chemscore.Internal_Hbond>
0.0000

> <Gold.Chemscore.DEClash>
1.6403

> <Gold.Chemscore.DEInternal>
0.7280

> <Gold.Chemscore.Rot>
3.1230

> <Gold.Chemscore.Internal.Correction>
   9.000000E+99

> <Gold.Chemscore.Hbonds>
donor molecule, donor type, donor heavy atom, donor atom, acceptor molecule, acceptor atom, score
      L1  H    18    31       P1  7957  1.00
      P1  H  7989  7998       L1    18  0.18

> <Gold.Chemscore.Hbond.Weighted>
-5.2722

> <Gold.Chemscore.Metal.Weighted>
-0.0000

> <Gold.Chemscore.Lipo.Weighted>
-4.6001

> <Gold.Chemscore.Internal_Hbond.Weighted>
0.0000

> <Gold.Chemscore.DEClash.Weighted>
1.6403

> <Gold.Chemscore.DEInternal.Weighted>
0.7280

> <Gold.Chemscore.Rot.Weighted>
7.9950

> <Gold.Chemscore.Internal.Correction.Weighted>
   9.000000E+99

> <Gold.Protein.RotatedTorsions>
[ 6907 6896 6895 6894 ] final   17.26 input  -60.11 | X-H torsion
[ 7974 7965 7964 7962 ] final   55.44 input  175.53 | X-H torsion
[ 8008 7997 7996 7995 ] final   97.67 input   59.86 | X-H torsion
[ 10167 10162 10161 10158 ] final -144.29 input  -65.29 | X-H torsion
[ 10718 10713 10712 10709 ] final   13.99 input   66.30 | X-H torsion
[ 10763 10752 10751 10750 ] final   60.24 input  -60.55 | X-H torsion
[ 11005 11000 10999 10996 ] final -108.44 input  -57.11 | X-H torsion

> <Gold.Protein.ActiveResidues>
 VAL166  LYS551  ARG553  GLY616  TRP617  ASP618  TYR619  PRO620  LYS621  CYS622 
 ASP623  PHE694  ASN695  SER759  ASP760  ASP761  ALA762  ILE779  LEU786  VAL792 
 PHE793  MET794  SER795  GLU796  ALA797  LYS798  CYS799  TRP800  GLU811  SER814 

> <Gold.Protein.RotatedAtoms>
  151.8468  135.0571  160.0454 H   0  0  0  0  0  0  0  0  0  0  0  0  # atno 6907 bound_to 6896
  152.2767  133.5427  159.5480 H   0  0  0  0  0  0  0  0  0  0  0  0  # atno 6908 bound_to 6896
  150.7173  134.0538  159.3850 H   0  0  0  0  0  0  0  0  0  0  0  0  # atno 6909 bound_to 6896
  145.9504  139.3967  143.0310 H   0  0  0  0  0  0  0  0  0  0  0  0  # atno 7974 bound_to 7965
  156.0926  140.3255  155.7835 H   0  0  0  0  0  0  0  0  0  0  0  0  # atno 8008 bound_to 7997
  155.4971  140.0566  157.2962 H   0  0  0  0  0  0  0  0  0  0  0  0  # atno 8009 bound_to 7997
  154.4647  140.1983  156.0167 H   0  0  0  0  0  0  0  0  0  0  0  0  # atno 8010 bound_to 7997
  139.7913  143.7962  152.2650 H   0  0  0  0  0  0  0  0  0  0  0  0  # atno 10167 bound_to 10162
  157.0326  130.6199  149.5738 H   0  0  0  0  0  0  0  0  0  0  0  0  # atno 10718 bound_to 10713
  152.9915  135.5543  154.5841 H   0  0  0  0  0  0  0  0  0  0  0  0  # atno 10763 bound_to 10752
  154.5217  135.2808  155.1259 H   0  0  0  0  0  0  0  0  0  0  0  0  # atno 10764 bound_to 10752
  154.2610  135.6381  153.5327 H   0  0  0  0  0  0  0  0  0  0  0  0  # atno 10765 bound_to 10752
  141.0901  133.9070  157.2095 H   0  0  0  0  0  0  0  0  0  0  0  0  # atno 11005 bound_to 11000
  145.8179  140.9693  143.0914 LP  0  0  0  0  0  0  0  0  0  0  0  0  # atno 17320 bound_to 7965
  144.6795  140.0004  143.7484 LP  0  0  0  0  0  0  0  0  0  0  0  0  # atno 17321 bound_to 7965
  139.8054  144.7357  150.9768 LP  0  0  0  0  0  0  0  0  0  0  0  0  # atno 17342 bound_to 10162
  140.7820  143.4303  151.0704 LP  0  0  0  0  0  0  0  0  0  0  0  0  # atno 17343 bound_to 10162
  156.0064  130.5151  150.7845 LP  0  0  0  0  0  0  0  0  0  0  0  0  # atno 17370 bound_to 10713
  157.5166  131.0929  151.0132 LP  0  0  0  0  0  0  0  0  0  0  0  0  # atno 17371 bound_to 10713
  139.9725  135.0124  156.9549 LP  0  0  0  0  0  0  0  0  0  0  0  0  # atno 17394 bound_to 11000
  140.5272  134.0849  155.7306 LP  0  0  0  0  0  0  0  0  0  0  0  0  # atno 17395 bound_to 11000

$$$$
