AV-unprocessed.smi:2153|AV-procd|sdf|8767|dock2
  -GOLD-   2272011543D 1   1.00000     0.00000
 Structure written by MMmdl.
 48 49  0  0  0  0  0  0  0  0  1 V2000
  151.6389  144.9253  158.8415 C   0  0  0  0  0  0  0  0  0  0  0  0
  152.4971  144.1562  159.8585 C   0  0  1  0  0  0  0  0  0  0  0  0
  151.9546  144.3088  161.2954 C   0  0  0  0  0  0  0  0  0  0  0  0
  152.8385  143.5701  162.3136 C   0  0  0  0  0  0  0  0  0  0  0  0
  153.0154  142.0912  161.9372 C   0  0  0  0  0  0  0  0  0  0  0  0
  153.5547  141.9442  160.5064 C   0  0  0  0  0  0  0  0  0  0  0  0
  152.6498  142.6648  159.4824 C   0  0  1  0  0  0  0  0  0  0  0  0
  151.3415  142.1078  159.4354 O   0  0  0  0  0  0  0  0  0  0  0  0
  150.6788  142.1534  158.1815 C   0  0  0  0  0  0  0  0  0  0  0  0
  151.0283  140.8832  157.3911 C   0  0  0  0  0  0  0  0  0  0  0  0
  149.9039  140.4272  156.5789 N   0  0  0  0  0  0  0  0  0  0  0  0
  149.9892  140.0443  155.2950 C   0  0  0  0  0  0  0  0  0  0  0  0
  151.0513  140.0023  154.6722 O   0  0  0  0  0  0  0  0  0  0  0  0
  148.6775  139.6262  154.6185 C   0  0  0  0  0  0  0  0  0  0  0  0
  147.6634  140.6876  154.6664 N   0  0  0  0  0  0  0  0  0  0  0  0
  147.3348  141.3717  153.5102 C   0  0  0  0  0  0  0  0  0  0  0  0
  146.4439  142.3864  153.4724 C   0  0  0  0  0  0  0  0  0  0  0  0
  145.7607  142.8251  154.6827 C   0  0  0  0  0  0  0  0  0  0  0  0
  144.9553  143.7570  154.7049 O   0  0  0  0  0  0  0  0  0  0  0  0
  146.1016  142.0997  155.8474 N   0  0  0  0  0  0  0  0  0  0  0  0
  145.4621  142.5080  157.0810 C   0  0  0  0  0  0  0  0  0  0  0  0
  147.0441  141.0459  155.8835 C   0  0  0  0  0  0  0  0  0  0  0  0
  147.3335  140.4557  156.9263 O   0  0  0  0  0  0  0  0  0  0  0  0
  150.6128  144.5569  158.8247 H   0  0  0  0  0  0  0  0  0  0  0  0
  152.0436  144.8293  157.8339 H   0  0  0  0  0  0  0  0  0  0  0  0
  151.6038  145.9875  159.0834 H   0  0  0  0  0  0  0  0  0  0  0  0
  153.4922  144.6031  159.8346 H   0  0  0  0  0  0  0  0  0  0  0  0
  151.8970  145.3642  161.5633 H   0  0  0  0  0  0  0  0  0  0  0  0
  150.9352  143.9240  161.3506 H   0  0  0  0  0  0  0  0  0  0  0  0
  153.8153  144.0523  162.3638 H   0  0  0  0  0  0  0  0  0  0  0  0
  152.4054  143.6492  163.3102 H   0  0  0  0  0  0  0  0  0  0  0  0
  153.6913  141.6072  162.6423 H   0  0  0  0  0  0  0  0  0  0  0  0
  152.0605  141.5716  162.0194 H   0  0  0  0  0  0  0  0  0  0  0  0
  154.5566  142.3726  160.4589 H   0  0  0  0  0  0  0  0  0  0  0  0
  153.6759  140.8912  160.2552 H   0  0  0  0  0  0  0  0  0  0  0  0
  153.0990  142.5936  158.4904 H   0  0  0  0  0  0  0  0  0  0  0  0
  149.5995  142.2064  158.3293 H   0  0  0  0  0  0  0  0  0  0  0  0
  150.9798  143.0350  157.6159 H   0  0  0  0  0  0  0  0  0  0  0  0
  151.9110  141.0512  156.7717 H   0  0  0  0  0  0  0  0  0  0  0  0
  151.2887  140.0835  158.0844 H   0  0  0  0  0  0  0  0  0  0  0  0
  148.9938  140.4267  157.0160 H   0  0  0  0  0  0  0  0  0  0  0  0
  148.8970  139.3712  153.5810 H   0  0  0  0  0  0  0  0  0  0  0  0
  148.2946  138.7100  155.0719 H   0  0  0  0  0  0  0  0  0  0  0  0
  147.8218  141.0880  152.5883 H   0  0  0  0  0  0  0  0  0  0  0  0
  146.2380  142.8833  152.5358 H   0  0  0  0  0  0  0  0  0  0  0  0
  145.5610  141.7352  157.8433 H   0  0  0  0  0  0  0  0  0  0  0  0
  144.3997  142.6591  156.8815 H   0  0  0  0  0  0  0  0  0  0  0  0
  145.9453  143.4339  157.3966 H   0  0  0  0  0  0  0  0  0  0  0  0
  1  2  1  0  0  0  0
  1 24  1  0  0  0  0
  1 25  1  0  0  0  0
  1 26  1  0  0  0  0
  2  7  1  0  0  0  0
  2  3  1  0  0  0  0
  2 27  1  0  0  0  0
  3  4  1  0  0  0  0
  3 28  1  0  0  0  0
  3 29  1  0  0  0  0
  4  5  1  0  0  0  0
  4 30  1  0  0  0  0
  4 31  1  0  0  0  0
  5  6  1  0  0  0  0
  5 32  1  0  0  0  0
  5 33  1  0  0  0  0
  6  7  1  0  0  0  0
  6 34  1  0  0  0  0
  6 35  1  0  0  0  0
  7  8  1  0  0  0  0
  7 36  1  0  0  0  0
  8  9  1  0  0  0  0
  9 10  1  0  0  0  0
  9 37  1  0  0  0  0
  9 38  1  0  0  0  0
 10 11  1  0  0  0  0
 10 39  1  0  0  0  0
 10 40  1  0  0  0  0
 11 12  1  0  0  0  0
 11 41  1  0  0  0  0
 12 13  2  0  0  0  0
 12 14  1  0  0  0  0
 14 15  1  0  0  0  0
 14 42  1  0  0  0  0
 14 43  1  0  0  0  0
 15 22  1  0  0  0  0
 15 16  1  0  0  0  0
 16 17  2  0  0  0  0
 16 44  1  0  0  0  0
 17 18  1  0  0  0  0
 17 45  1  0  0  0  0
 18 19  2  0  0  0  0
 18 20  1  0  0  0  0
 20 21  1  0  0  0  0
 20 22  1  0  0  0  0
 21 46  1  0  0  0  0
 21 47  1  0  0  0  0
 21 48  1  0  0  0  0
 22 23  2  0  0  0  0
M  END
> <s_m_source_file>
AV-unprocessed.smi

> <i_m_source_file_index>
2153

> <i_lp_mmshare_version>
43012

> <i_f3d_flags>
0

> <s_epik_input>
W0NIM11bQ0BASF0xW0NIMl1bQ0gyXVtDSDJdW0NIMl1bQ0BIXTFPW0NIMl1bQ0gyXVtOSF1DKD1PKVtDSDJdbjJbY0hdW2NIXWMoPU8pbihbQ0gzXSljMj1P

> <s_epik_cmdline>
J2VwaWtfcHl0aG9uJywgJy1waCcsICc3LjAnLCAnLXRuJywgJzgnLCAnLW1hJywgJzIwMCcsICctbWV0YWxfYmluZGluZycsICctaW1hZScsICc8aW5maWxlLm1hZT4nLCAnLW9tYWUnLCAnPG91dGZpbGUubWFlPic=

> <r_lp_tautomer_probability>
1

> <r_epik_Ionization_Penalty>
4.02205e-08

> <r_epik_Ionization_Penalty_Charging>
1.23606e-08

> <r_epik_Ionization_Penalty_Neutral>
2.78599e-08

> <r_epik_State_Penalty>
-0

> <r_epik_Charging_Adjusted_Penalty>
1.23606e-08

> <i_epik_Tot_Q>
0

> <i_epik_Tot_abs_Q>
0

> <r_epik_Metal_State_Penalty>
-0

> <b_epik_Metal_Only>
0

> <s_lp_Force_Field>
OPLS_2005

> <r_lp_Energy>
16.8304

> <b_lp_Chiralities_Consistent>
1

> <s_lp_Variant>
AV-unprocessed.smi:2153-2

> <Gold.Version>
5.8.1

> <Gold.Id.Protein>
6NUR|6NUR_protein|mol2

> <Gold.PLP.Fitness>
53.3761

> <Gold.PLP.PLP>
-49.1203

> <Gold.PLP.part.hbond>
-1.3548

> <Gold.PLP.part.metal>
0.0000

> <Gold.PLP.part.buried>
-9.0693

> <Gold.PLP.part.nonpolar>
-39.9846

> <Gold.PLP.part.repulsive>
0.3190

> <Gold.PLP.ligand.clash>
0.0000

> <Gold.PLP.ligand.torsion>
1.0186

> <Gold.PLP.Chemscore.Hbond>
1.0000

> <Gold.PLP.Chemscore.CHOScore>
1.0000

> <Gold.PLP.Chemscore.Metal>
0.0000

> <Gold.Chemscore.Hbonds>
donor molecule, donor type, donor heavy atom, donor atom, acceptor molecule, acceptor atom, score
      P1  H  7989  7998       L1    13  1.00
      L1  C    16    44       P1  7957  1.00

> <Gold.PLP.Chemscore.Internal.Correction>
0.2931

> <Gold.Rescore>
     Score         DG    S(hbond)    S(metal)    S(lipo)     H(rot)  DE(clash)    DE(int)     intcor
     12.31     -16.93       1.00        0.00     117.35       2.20       1.24       3.37       ----

> <Gold.Chemscore.Fitness>
12.3109

> <Gold.Chemscore.DG>
-16.9252

> <Gold.Chemscore.ZeroCoef>
-5.4800

> <Gold.Chemscore.Hbond>
0.9997

> <Gold.Chemscore.Metal>
0.0000

> <Gold.Chemscore.Lipo>
117.3501

> <Gold.Chemscore.Internal_Hbond>
0.0000

> <Gold.Chemscore.DEClash>
1.2419

> <Gold.Chemscore.DEInternal>
3.3724

> <Gold.Chemscore.Rot>
2.1968

> <Gold.Chemscore.Internal.Correction>
   9.000000E+99

> <Gold.Chemscore.Hbonds>
donor molecule, donor type, donor heavy atom, donor atom, acceptor molecule, acceptor atom, score
      P1  H  7989  7998       L1    13  0.97

> <Gold.Chemscore.Hbond.Weighted>
-3.3390

> <Gold.Chemscore.Metal.Weighted>
-0.0000

> <Gold.Chemscore.Lipo.Weighted>
-13.7300

> <Gold.Chemscore.Internal_Hbond.Weighted>
0.0000

> <Gold.Chemscore.DEClash.Weighted>
1.2419

> <Gold.Chemscore.DEInternal.Weighted>
3.3724

> <Gold.Chemscore.Rot.Weighted>
5.6238

> <Gold.Chemscore.Internal.Correction.Weighted>
   9.000000E+99

> <Gold.Protein.RotatedTorsions>
[ 6907 6896 6895 6894 ] final   52.10 input  -60.11 | X-H torsion
[ 7974 7965 7964 7962 ] final   51.31 input  175.53 | X-H torsion
[ 8008 7997 7996 7995 ] final    9.74 input   59.86 | X-H torsion
[ 10167 10162 10161 10158 ] final  -59.31 input  -65.29 | X-H torsion
[ 10718 10713 10712 10709 ] final  155.19 input   66.30 | X-H torsion
[ 10763 10752 10751 10750 ] final  -32.50 input  -60.55 | X-H torsion
[ 11005 11000 10999 10996 ] final  -83.49 input  -57.11 | X-H torsion

> <Gold.Protein.ActiveResidues>
 VAL166  LYS551  ARG553  GLY616  TRP617  ASP618  TYR619  PRO620  LYS621  CYS622 
 ASP623  PHE694  ASN695  SER759  ASP760  ASP761  ALA762  ILE779  LEU786  VAL792 
 PHE793  MET794  SER795  GLU796  ALA797  LYS798  CYS799  TRP800  GLU811  SER814 

> <Gold.Protein.RotatedAtoms>
  152.3197  134.7396  160.0316 H   0  0  0  0  0  0  0  0  0  0  0  0  # atno 6907 bound_to 6896
  151.7848  133.3348  159.3490 H   0  0  0  0  0  0  0  0  0  0  0  0  # atno 6908 bound_to 6896
  150.7363  134.5828  159.5992 H   0  0  0  0  0  0  0  0  0  0  0  0  # atno 6909 bound_to 6896
  145.9926  139.4355  143.0064 H   0  0  0  0  0  0  0  0  0  0  0  0  # atno 7974 bound_to 7965
  154.7841  140.2824  155.6041 H   0  0  0  0  0  0  0  0  0  0  0  0  # atno 8008 bound_to 7997
  156.2954  140.2617  156.2601 H   0  0  0  0  0  0  0  0  0  0  0  0  # atno 8009 bound_to 7997
  154.9749  140.0375  157.2241 H   0  0  0  0  0  0  0  0  0  0  0  0  # atno 8010 bound_to 7997
  140.6143  143.2397  151.5635 H   0  0  0  0  0  0  0  0  0  0  0  0  # atno 10167 bound_to 10162
  157.2216  131.0719  151.1908 H   0  0  0  0  0  0  0  0  0  0  0  0  # atno 10718 bound_to 10713
  153.8147  135.6879  153.4835 H   0  0  0  0  0  0  0  0  0  0  0  0  # atno 10763 bound_to 10752
  153.1606  135.4581  154.9765 H   0  0  0  0  0  0  0  0  0  0  0  0  # atno 10764 bound_to 10752
  154.7953  135.3316  154.7625 H   0  0  0  0  0  0  0  0  0  0  0  0  # atno 10765 bound_to 10752
  141.1657  133.7297  156.8728 H   0  0  0  0  0  0  0  0  0  0  0  0  # atno 11005 bound_to 11000
  145.7607  140.9936  143.1201 LP  0  0  0  0  0  0  0  0  0  0  0  0  # atno 17320 bound_to 7965
  144.6894  139.9327  143.7472 LP  0  0  0  0  0  0  0  0  0  0  0  0  # atno 17321 bound_to 7965
  139.5386  144.2711  152.1304 LP  0  0  0  0  0  0  0  0  0  0  0  0  # atno 17342 bound_to 10162
  140.1917  144.4745  150.6476 LP  0  0  0  0  0  0  0  0  0  0  0  0  # atno 17343 bound_to 10162
  157.3570  130.7111  149.6477 LP  0  0  0  0  0  0  0  0  0  0  0  0  # atno 17370 bound_to 10713
  155.9682  130.4236  150.4571 LP  0  0  0  0  0  0  0  0  0  0  0  0  # atno 17371 bound_to 10713
  140.1769  134.9060  157.2902 LP  0  0  0  0  0  0  0  0  0  0  0  0  # atno 17394 bound_to 11000
  140.2438  134.3764  155.7469 LP  0  0  0  0  0  0  0  0  0  0  0  0  # atno 17395 bound_to 11000

$$$$
