AV-unprocessed.smi:158|AV-procd|sdf|1335|dock2
  -GOLD-   2262019 33D 1   1.00000     0.00000
 Structure written by MMmdl.
 31 33  0  0  0  0  0  0  0  0  1 V2000
  144.2403  141.7665  155.0688 N   0  0  0  0  0  0  0  0  0  0  0  0
  145.4025  141.8475  155.7313 C   0  0  0  0  0  0  0  0  0  0  0  0
  145.4008  142.3946  156.9692 N   0  0  0  0  0  0  0  0  0  0  0  0
  146.5397  142.4924  157.6653 C   0  0  0  0  0  0  0  0  0  0  0  0
  146.4261  143.2038  159.2318 Cl  0  0  0  0  0  0  0  0  0  0  0  0
  147.7588  142.0996  157.2832 N   0  0  0  0  0  0  0  0  0  0  0  0
  147.7671  141.5502  156.0343 C   0  0  0  0  0  0  0  0  0  0  0  0
  146.6311  141.3873  155.1971 C   0  0  0  0  0  0  0  0  0  0  0  0
  147.0050  140.7899  154.0012 N   0  0  0  0  0  0  0  0  0  0  0  0
  148.2928  140.6128  154.1289 C   0  0  0  0  0  0  0  0  0  0  0  0
  148.8351  141.0433  155.3200 N   0  0  0  0  0  0  0  0  0  0  0  0
  150.2696  140.9810  155.7389 C   0  0  2  0  0  0  0  0  0  0  0  0
  151.0034  140.3914  154.7103 O   0  0  0  0  0  0  0  0  0  0  0  0
  151.9121  139.4393  155.2462 C   0  0  2  0  0  0  0  0  0  0  0  0
  152.2855  138.3901  154.1842 C   0  0  0  0  0  0  0  0  0  0  0  0
  151.1224  137.8710  153.5749 O   0  0  0  0  0  0  0  0  0  0  0  0
  151.2385  138.9232  156.5268 C   0  0  2  0  0  0  0  0  0  0  0  0
  150.4018  137.8035  156.3101 O   0  0  0  0  0  0  0  0  0  0  0  0
  150.4258  140.1182  157.0004 C   0  0  1  0  0  0  0  0  0  0  0  0
  151.1231  140.8071  157.9049 F   0  0  0  0  0  0  0  0  0  0  0  0
  150.5634  142.0218  155.8822 H   0  0  0  0  0  0  0  0  0  0  0  0
  152.8069  139.9962  155.5302 H   0  0  0  0  0  0  0  0  0  0  0  0
  151.9831  138.6266  157.2665 H   0  0  0  0  0  0  0  0  0  0  0  0
  149.4659  139.8579  157.4500 H   0  0  0  0  0  0  0  0  0  0  0  0
  144.2161  141.3618  154.1437 H   0  0  0  0  0  0  0  0  0  0  0  0
  143.3913  142.1079  155.4957 H   0  0  0  0  0  0  0  0  0  0  0  0
  148.8892  140.1628  153.3484 H   0  0  0  0  0  0  0  0  0  0  0  0
  152.9473  138.8070  153.4245 H   0  0  0  0  0  0  0  0  0  0  0  0
  152.8235  137.5654  154.6519 H   0  0  0  0  0  0  0  0  0  0  0  0
  151.3812  137.3495  152.8303 H   0  0  0  0  0  0  0  0  0  0  0  0
  150.2496  137.3797  157.1410 H   0  0  0  0  0  0  0  0  0  0  0  0
  1  2  1  0  0  0  0
  1 25  1  0  0  0  0
  1 26  1  0  0  0  0
  2  8  1  0  0  0  0
  2  3  2  0  0  0  0
  3  4  1  0  0  0  0
  4  5  1  0  0  0  0
  4  6  2  0  0  0  0
  6  7  1  0  0  0  0
  7 11  1  0  0  0  0
  7  8  2  0  0  0  0
  8  9  1  0  0  0  0
  9 10  2  0  0  0  0
 10 11  1  0  0  0  0
 10 27  1  0  0  0  0
 11 12  1  0  0  0  0
 12 21  1  0  0  0  0
 12 19  1  0  0  0  0
 12 13  1  0  0  0  0
 13 14  1  0  0  0  0
 14 22  1  0  0  0  0
 14 15  1  0  0  0  0
 14 17  1  0  0  0  0
 15 16  1  0  0  0  0
 15 28  1  0  0  0  0
 15 29  1  0  0  0  0
 16 30  1  0  0  0  0
 17 23  1  0  0  0  0
 17 18  1  0  0  0  0
 17 19  1  0  0  0  0
 18 31  1  0  0  0  0
 19 24  1  0  0  0  0
 19 20  1  0  0  0  0
M  END
> <s_m_source_file>
AV-unprocessed.smi

> <i_m_source_file_index>
158

> <i_lp_mmshare_version>
43012

> <i_f3d_flags>
0

> <s_epik_input>
Q2xjKG4xKW5jKFtOSDJdKWMoYzEyKW5bY0hdbjJbQ0BASF0zT1tDQEhdKFtDSDJdW09IXSlbQ0BASF0oW09IXSlbQ0BASF0zRg==

> <s_epik_cmdline>
J2VwaWtfcHl0aG9uJywgJy1waCcsICc3LjAnLCAnLXRuJywgJzgnLCAnLW1hJywgJzIwMCcsICctbWV0YWxfYmluZGluZycsICctaW1hZScsICc8aW5maWxlLm1hZT4nLCAnLW9tYWUnLCAnPG91dGZpbGUubWFlPic=

> <r_lp_tautomer_probability>
1

> <r_epik_Ionization_Penalty>
6.51543e-05

> <r_epik_Ionization_Penalty_Charging>
0

> <r_epik_Ionization_Penalty_Neutral>
6.51543e-05

> <r_epik_State_Penalty>
-0

> <r_epik_Charging_Adjusted_Penalty>
0

> <i_epik_Tot_Q>
0

> <i_epik_Tot_abs_Q>
0

> <r_epik_Metal_State_Penalty>
-0

> <b_epik_Metal_Only>
0

> <s_epik_Chemistry_Notes>
This compound contains an acetal/aminal-like group ( X-CH(R)-Y where X, Y are N, S, or O) that may be acid/base labile, releasing an aldehyde.

> <s_lp_Force_Field>
OPLS_2005

> <r_lp_Energy>
34.1918

> <b_lp_Chiralities_Consistent>
1

> <s_lp_Variant>
AV-unprocessed.smi:158-13

> <Gold.Version>
5.8.1

> <Gold.Id.Protein>
6NUR|6NUR_protein|mol2

> <Gold.PLP.Fitness>
39.7084

> <Gold.PLP.PLP>
-27.8124

> <Gold.PLP.part.hbond>
-3.6088

> <Gold.PLP.part.metal>
0.0000

> <Gold.PLP.part.buried>
-4.6913

> <Gold.PLP.part.nonpolar>
-20.2043

> <Gold.PLP.part.repulsive>
1.0029

> <Gold.PLP.ligand.clash>
0.0000

> <Gold.PLP.ligand.torsion>
0.0534

> <Gold.PLP.Chemscore.Hbond>
3.0000

> <Gold.PLP.Chemscore.CHOScore>
1.0000

> <Gold.PLP.Chemscore.Metal>
0.0000

> <Gold.Chemscore.Hbonds>
donor molecule, donor type, donor heavy atom, donor atom, acceptor molecule, acceptor atom, score
      L1  H     1    25       P1 10175  1.00
      L1  H    16    30       P1  7949  1.00
      P1  H  7989  7998       L1    13  0.78
      L1  C    10    27       P1  7957  1.00

> <Gold.PLP.Chemscore.Internal.Correction>
0.0027

> <Gold.Rescore>
     Score         DG    S(hbond)    S(metal)    S(lipo)     H(rot)  DE(clash)    DE(int)     intcor
     10.01     -10.25       2.75        0.00      30.64       3.12       0.07       0.18       ----

> <Gold.Chemscore.Fitness>
10.0068

> <Gold.Chemscore.DG>
-10.2533

> <Gold.Chemscore.ZeroCoef>
-5.4800

> <Gold.Chemscore.Hbond>
2.7494

> <Gold.Chemscore.Metal>
0.0000

> <Gold.Chemscore.Lipo>
30.6420

> <Gold.Chemscore.Internal_Hbond>
0.0000

> <Gold.Chemscore.DEClash>
0.0650

> <Gold.Chemscore.DEInternal>
0.1815

> <Gold.Chemscore.Rot>
3.1230

> <Gold.Chemscore.Internal.Correction>
   9.000000E+99

> <Gold.Chemscore.Hbonds>
donor molecule, donor type, donor heavy atom, donor atom, acceptor molecule, acceptor atom, score
      L1  H     1    25       P1 10175  0.39
      L1  H    16    30       P1  7949  0.77
      P1  H  7989  7998       L1    13  0.39

> <Gold.Chemscore.Hbond.Weighted>
-9.1831

> <Gold.Chemscore.Metal.Weighted>
-0.0000

> <Gold.Chemscore.Lipo.Weighted>
-3.5851

> <Gold.Chemscore.Internal_Hbond.Weighted>
0.0000

> <Gold.Chemscore.DEClash.Weighted>
0.0650

> <Gold.Chemscore.DEInternal.Weighted>
0.1815

> <Gold.Chemscore.Rot.Weighted>
7.9950

> <Gold.Chemscore.Internal.Correction.Weighted>
   9.000000E+99

> <Gold.Protein.RotatedTorsions>
[ 6907 6896 6895 6894 ] final  -30.96 input  -60.11 | X-H torsion
[ 7974 7965 7964 7962 ] final  -57.71 input  175.53 | X-H torsion
[ 8008 7997 7996 7995 ] final   25.25 input   59.86 | X-H torsion
[ 10167 10162 10161 10158 ] final -165.06 input  -65.29 | X-H torsion
[ 10718 10713 10712 10709 ] final  -34.26 input   66.30 | X-H torsion
[ 10763 10752 10751 10750 ] final  137.13 input  -60.55 | X-H torsion
[ 11005 11000 10999 10996 ] final  151.69 input  -57.11 | X-H torsion

> <Gold.Protein.ActiveResidues>
 VAL166  LYS551  ARG553  GLY616  TRP617  ASP618  TYR619  PRO620  LYS621  CYS622 
 ASP623  PHE694  ASN695  SER759  ASP760  ASP761  ALA762  ILE779  LEU786  VAL792 
 PHE793  MET794  SER795  GLU796  ALA797  LYS798  CYS799  TRP800  GLU811  SER814 

> <Gold.Protein.RotatedAtoms>
  151.0985  134.9958  159.8437 H   0  0  0  0  0  0  0  0  0  0  0  0  # atno 6907 bound_to 6896
  152.5435  134.1979  159.8710 H   0  0  0  0  0  0  0  0  0  0  0  0  # atno 6908 bound_to 6896
  151.2020  133.4561  159.2630 H   0  0  0  0  0  0  0  0  0  0  0  0  # atno 6909 bound_to 6896
  145.8479  140.8373  143.0001 H   0  0  0  0  0  0  0  0  0  0  0  0  # atno 7974 bound_to 7965
  155.0089  140.3134  155.4837 H   0  0  0  0  0  0  0  0  0  0  0  0  # atno 8008 bound_to 7997
  156.2912  140.2218  156.5143 H   0  0  0  0  0  0  0  0  0  0  0  0  # atno 8009 bound_to 7997
  154.7552  140.0463  157.0915 H   0  0  0  0  0  0  0  0  0  0  0  0  # atno 8010 bound_to 7997
  139.6208  144.0629  152.1930 H   0  0  0  0  0  0  0  0  0  0  0  0  # atno 10167 bound_to 10162
  156.3527  130.4311  149.7691 H   0  0  0  0  0  0  0  0  0  0  0  0  # atno 10718 bound_to 10713
  153.8679  135.3059  155.3441 H   0  0  0  0  0  0  0  0  0  0  0  0  # atno 10763 bound_to 10752
  154.7819  135.4831  153.9866 H   0  0  0  0  0  0  0  0  0  0  0  0  # atno 10764 bound_to 10752
  153.1423  135.6826  153.9103 H   0  0  0  0  0  0  0  0  0  0  0  0  # atno 10765 bound_to 10752
  140.1241  134.8845  157.2113 H   0  0  0  0  0  0  0  0  0  0  0  0  # atno 11005 bound_to 11000
  144.6730  140.0909  143.7465 LP  0  0  0  0  0  0  0  0  0  0  0  0  # atno 17320 bound_to 7965
  145.9391  139.2657  143.1279 LP  0  0  0  0  0  0  0  0  0  0  0  0  # atno 17321 bound_to 7965
  140.0270  144.6110  150.7519 LP  0  0  0  0  0  0  0  0  0  0  0  0  # atno 17342 bound_to 10162
  140.7380  143.2773  151.3703 LP  0  0  0  0  0  0  0  0  0  0  0  0  # atno 17343 bound_to 10162
  156.4885  130.8074  151.3085 LP  0  0  0  0  0  0  0  0  0  0  0  0  # atno 17370 bound_to 10713
  157.7463  130.9983  150.2847 LP  0  0  0  0  0  0  0  0  0  0  0  0  # atno 17371 bound_to 10713
  140.2927  134.3222  155.7311 LP  0  0  0  0  0  0  0  0  0  0  0  0  # atno 17394 bound_to 11000
  141.2157  133.7544  156.9526 LP  0  0  0  0  0  0  0  0  0  0  0  0  # atno 17395 bound_to 11000

$$$$
