AV-unprocessed.smi:311|AV-procd|sdf|2297|dock5
  -GOLD-   2262022193D 1   1.00000     0.00000
 Structure written by MMmdl.
 44 46  0  0  0  0  0  0  0  0  2 V2000
  151.2146  130.4452  155.4445 C   0  0  0  0  0  0  0  0  0  0  0  0
  150.6415  131.6477  156.1385 C   0  0  0  0  0  0  0  0  0  0  0  0
  150.7016  131.7344  157.4567 N   0  0  0  0  0  0  0  0  0  0  0  0
  150.0830  132.9431  157.7901 O   0  0  0  0  0  0  0  0  0  0  0  0
  149.6702  133.5443  156.6455 C   0  0  0  0  0  0  0  0  0  0  0  0
  148.9688  134.8522  156.7933 C   0  0  0  0  0  0  0  0  0  0  0  0
  149.9930  132.7763  155.5601 C   0  0  0  0  0  0  0  0  0  0  0  0
  149.7210  133.0390  154.1016 C   0  0  0  0  0  0  0  0  0  0  0  0
  148.2121  133.1374  153.8871 C   0  0  0  0  0  0  0  0  0  0  0  0
  147.4691  132.2609  154.3282 O   0  0  0  0  0  0  0  0  0  0  0  0
  147.7718  134.2260  153.2380 N   0  0  0  0  0  0  0  0  0  0  0  0
  146.3698  134.5727  153.0328 C   0  0  2  0  0  0  0  0  0  0  0  0
  145.6534  134.9802  154.3149 C   0  0  0  0  0  0  0  0  0  0  0  0
  144.1846  134.7821  153.9367 C   0  0  0  0  0  0  0  0  0  0  0  0
  144.1565  133.6145  153.0271 N   0  3  1  0  0  0  0  0  0  0  0  0
  143.1058  133.6646  151.9813 C   0  0  0  0  0  0  0  0  0  0  0  0
  143.1674  132.4063  151.0966 C   0  0  0  0  0  0  0  0  0  0  0  0
  144.5753  132.1421  150.5222 C   0  0  0  0  0  0  0  0  0  0  0  0
  145.6126  133.1684  151.0057 C   0  0  0  0  0  0  0  0  0  0  0  0
  145.5429  133.3736  152.5360 C   0  0  1  0  0  0  0  0  0  0  0  0
  150.4269  129.8592  154.9708 H   0  0  0  0  0  0  0  0  0  0  0  0
  151.7439  129.7905  156.1381 H   0  0  0  0  0  0  0  0  0  0  0  0
  151.9197  130.7420  154.6682 H   0  0  0  0  0  0  0  0  0  0  0  0
  149.1957  135.5121  155.9562 H   0  0  0  0  0  0  0  0  0  0  0  0
  149.2715  135.3572  157.7110 H   0  0  0  0  0  0  0  0  0  0  0  0
  147.8890  134.7072  156.8271 H   0  0  0  0  0  0  0  0  0  0  0  0
  150.2037  133.9573  153.7643 H   0  0  0  0  0  0  0  0  0  0  0  0
  150.1146  132.2415  153.4706 H   0  0  0  0  0  0  0  0  0  0  0  0
  148.4598  134.8859  152.9047 H   0  0  0  0  0  0  0  0  0  0  0  0
  146.2818  135.4015  152.3268 H   0  0  0  0  0  0  0  0  0  0  0  0
  145.9222  134.3115  155.1343 H   0  0  0  0  0  0  0  0  0  0  0  0
  145.8772  136.0023  154.6219 H   0  0  0  0  0  0  0  0  0  0  0  0
  143.5445  134.6276  154.8057 H   0  0  0  0  0  0  0  0  0  0  0  0
  143.8264  135.6694  153.4119 H   0  0  0  0  0  0  0  0  0  0  0  0
  142.1267  133.7408  152.4554 H   0  0  0  0  0  0  0  0  0  0  0  0
  143.2307  134.5609  151.3714 H   0  0  0  0  0  0  0  0  0  0  0  0
  142.8552  131.5415  151.6837 H   0  0  0  0  0  0  0  0  0  0  0  0
  142.4445  132.4930  150.2848 H   0  0  0  0  0  0  0  0  0  0  0  0
  144.8977  131.1414  150.8122 H   0  0  0  0  0  0  0  0  0  0  0  0
  144.5419  132.1433  149.4322 H   0  0  0  0  0  0  0  0  0  0  0  0
  146.6128  132.8471  150.7139 H   0  0  0  0  0  0  0  0  0  0  0  0
  145.4417  134.1173  150.4951 H   0  0  0  0  0  0  0  0  0  0  0  0
  145.8837  132.4635  153.0329 H   0  0  0  0  0  0  0  0  0  0  0  0
  143.9387  132.8134  153.6023 H   0  0  0  0  0  0  0  0  0  0  0  0
  1  2  1  0  0  0  0
  1 21  1  0  0  0  0
  1 22  1  0  0  0  0
  1 23  1  0  0  0  0
  2  7  1  0  0  0  0
  2  3  2  0  0  0  0
  3  4  1  0  0  0  0
  4  5  1  0  0  0  0
  5  6  1  0  0  0  0
  5  7  2  0  0  0  0
  6 24  1  0  0  0  0
  6 25  1  0  0  0  0
  6 26  1  0  0  0  0
  7  8  1  0  0  0  0
  8  9  1  0  0  0  0
  8 27  1  0  0  0  0
  8 28  1  0  0  0  0
  9 10  2  0  0  0  0
  9 11  1  0  0  0  0
 11 12  1  0  0  0  0
 11 29  1  0  0  0  0
 12 20  1  0  0  0  0
 12 13  1  0  0  0  0
 12 30  1  0  0  0  0
 13 14  1  0  0  0  0
 13 31  1  0  0  0  0
 13 32  1  0  0  0  0
 14 15  1  0  0  0  0
 14 33  1  0  0  0  0
 14 34  1  0  0  0  0
 15 20  1  0  0  0  0
 15 16  1  0  0  0  0
 15 44  1  0  0  0  0
 16 17  1  0  0  0  0
 16 35  1  0  0  0  0
 16 36  1  0  0  0  0
 17 18  1  0  0  0  0
 17 37  1  0  0  0  0
 17 38  1  0  0  0  0
 18 19  1  0  0  0  0
 18 39  1  0  0  0  0
 18 40  1  0  0  0  0
 19 20  1  0  0  0  0
 19 41  1  0  0  0  0
 19 42  1  0  0  0  0
 20 43  1  0  0  0  0
M  CHG  1  15   1
M  END
> <s_m_source_file>
AV-unprocessed.smi

> <i_m_source_file_index>
311

> <i_lp_mmshare_version>
43012

> <i_f3d_flags>
0

> <s_epik_input>
W0NIM11jMW5vYyhbQ0gzXSljMVtDSDJdQyg9TylbTkhdW0NASF0oW0NIMl1bQ0gyXTIpW0NAQEhdKE4yMylbQ0gyXVtDSDJdW0NIMl1bQ0gyXTM=

> <s_epik_cmdline>
J2VwaWtfcHl0aG9uJywgJy1waCcsICc3LjAnLCAnLXRuJywgJzgnLCAnLW1hJywgJzIwMCcsICctbWV0YWxfYmluZGluZycsICctaW1hZScsICc8aW5maWxlLm1hZT4nLCAnLW9tYWUnLCAnPG91dGZpbGUubWFlPic=

> <r_epik_Ionization_Penalty>
0.00173669

> <r_epik_Ionization_Penalty_Charging>
0.0017366

> <r_epik_Ionization_Penalty_Neutral>
9.2145e-08

> <r_epik_State_Penalty>
0.00117499

> <r_epik_Charging_Adjusted_Penalty>
0.00291159

> <i_epik_Tot_Q>
1

> <i_epik_Tot_abs_Q>
1

> <r_epik_Metal_State_Penalty>
-0

> <b_epik_Metal_Only>
0

> <s_lp_Force_Field>
OPLS_2005

> <r_lp_Energy>
32.9133

> <b_lp_Chiralities_Consistent>
1

> <s_lp_Variant>
AV-unprocessed.smi:311-1

> <Gold.Version>
5.8.1

> <Gold.Id.Protein>
6NUR|6NUR_protein|mol2

> <Gold.PLP.Fitness>
39.7288

> <Gold.PLP.PLP>
-28.1067

> <Gold.PLP.part.hbond>
-3.0000

> <Gold.PLP.part.metal>
0.0000

> <Gold.PLP.part.buried>
-4.4605

> <Gold.PLP.part.nonpolar>
-21.8340

> <Gold.PLP.part.repulsive>
0.0331

> <Gold.PLP.ligand.clash>
0.0000

> <Gold.PLP.ligand.torsion>
0.1953

> <Gold.PLP.Chemscore.Hbond>
4.0000

> <Gold.PLP.Chemscore.CHOScore>
0.0000

> <Gold.PLP.Chemscore.Metal>
0.0000

> <Gold.Chemscore.Hbonds>
donor molecule, donor type, donor heavy atom, donor atom, acceptor molecule, acceptor atom, score
      L1  H    11    29       P1  7948  1.00
      L1  H    15    44       P1 10957  2.00
      P1  H  6896  6907       L1     4  1.00

> <Gold.PLP.Chemscore.Internal.Correction>
0.0126

> <Gold.Rescore>
     Score         DG    S(hbond)    S(metal)    S(lipo)     H(rot)  DE(clash)    DE(int)     intcor
     17.16     -18.78       2.69        0.00      66.54       1.36       0.05       1.57       ----

> <Gold.Chemscore.Fitness>
17.1584

> <Gold.Chemscore.DG>
-18.7832

> <Gold.Chemscore.ZeroCoef>
-5.4800

> <Gold.Chemscore.Hbond>
2.6920

> <Gold.Chemscore.Metal>
0.0000

> <Gold.Chemscore.Lipo>
66.5375

> <Gold.Chemscore.Internal_Hbond>
0.0000

> <Gold.Chemscore.DEClash>
0.0505

> <Gold.Chemscore.DEInternal>
1.5743

> <Gold.Chemscore.Rot>
1.3567

> <Gold.Chemscore.Internal.Correction>
   9.000000E+99

> <Gold.Chemscore.Hbonds>
donor molecule, donor type, donor heavy atom, donor atom, acceptor molecule, acceptor atom, score
      L1  H    11    29       P1  7948  0.53
      L1  H    15    44       P1 10957  0.68
      P1  H  6896  6907       L1     4  0.25

> <Gold.Chemscore.Hbond.Weighted>
-8.9914

> <Gold.Chemscore.Metal.Weighted>
-0.0000

> <Gold.Chemscore.Lipo.Weighted>
-7.7849

> <Gold.Chemscore.Internal_Hbond.Weighted>
0.0000

> <Gold.Chemscore.DEClash.Weighted>
0.0505

> <Gold.Chemscore.DEInternal.Weighted>
1.5743

> <Gold.Chemscore.Rot.Weighted>
3.4731

> <Gold.Chemscore.Internal.Correction.Weighted>
   9.000000E+99

> <Gold.Protein.RotatedTorsions>
[ 6907 6896 6895 6894 ] final -147.61 input  -60.11 | X-H torsion
[ 7974 7965 7964 7962 ] final  136.65 input  175.53 | X-H torsion
[ 8008 7997 7996 7995 ] final -121.97 input   59.86 | X-H torsion
[ 10167 10162 10161 10158 ] final -136.31 input  -65.29 | X-H torsion
[ 10718 10713 10712 10709 ] final  -11.68 input   66.30 | X-H torsion
[ 10763 10752 10751 10750 ] final   78.32 input  -60.55 | X-H torsion
[ 11005 11000 10999 10996 ] final -147.65 input  -57.11 | X-H torsion

> <Gold.Protein.ActiveResidues>
 VAL166  LYS551  ARG553  GLY616  TRP617  ASP618  TYR619  PRO620  LYS621  CYS622 
 ASP623  PHE694  ASN695  SER759  ASP760  ASP761  ALA762  ILE779  LEU786  VAL792 
 PHE793  MET794  SER795  GLU796  ALA797  LYS798  CYS799  TRP800  GLU811  SER814 

> <Gold.Protein.RotatedAtoms>
  151.1581  133.4863  159.2594 H   0  0  0  0  0  0  0  0  0  0  0  0  # atno 6907 bound_to 6896
  151.1483  135.0214  159.8667 H   0  0  0  0  0  0  0  0  0  0  0  0  # atno 6908 bound_to 6896
  152.5463  134.1468  159.8555 H   0  0  0  0  0  0  0  0  0  0  0  0  # atno 6909 bound_to 6896
  144.9544  139.4782  143.5510 H   0  0  0  0  0  0  0  0  0  0  0  0  # atno 7974 bound_to 7965
  155.1566  140.0405  157.2833 H   0  0  0  0  0  0  0  0  0  0  0  0  # atno 8008 bound_to 7997
  154.6366  140.2537  155.7344 H   0  0  0  0  0  0  0  0  0  0  0  0  # atno 8009 bound_to 7997
  156.2512  140.2864  156.0741 H   0  0  0  0  0  0  0  0  0  0  0  0  # atno 8010 bound_to 7997
  139.8690  143.6981  152.2642 H   0  0  0  0  0  0  0  0  0  0  0  0  # atno 10167 bound_to 10162
  156.6555  130.4967  149.6047 H   0  0  0  0  0  0  0  0  0  0  0  0  # atno 10718 bound_to 10713
  153.0866  135.4881  154.8608 H   0  0  0  0  0  0  0  0  0  0  0  0  # atno 10763 bound_to 10752
  154.7218  135.3041  154.9038 H   0  0  0  0  0  0  0  0  0  0  0  0  # atno 10764 bound_to 10752
  153.9700  135.6802  153.4800 H   0  0  0  0  0  0  0  0  0  0  0  0  # atno 10765 bound_to 10752
  140.7694  134.3207  157.5079 H   0  0  0  0  0  0  0  0  0  0  0  0  # atno 11005 bound_to 11000
  146.3332  139.8651  142.8849 LP  0  0  0  0  0  0  0  0  0  0  0  0  # atno 17320 bound_to 7965
  145.2795  141.0134  143.3726 LP  0  0  0  0  0  0  0  0  0  0  0  0  # atno 17321 bound_to 7965
  139.7301  144.7584  151.0815 LP  0  0  0  0  0  0  0  0  0  0  0  0  # atno 17342 bound_to 10162
  140.7763  143.5098  150.9666 LP  0  0  0  0  0  0  0  0  0  0  0  0  # atno 17343 bound_to 10162
  156.2051  130.6644  151.1209 LP  0  0  0  0  0  0  0  0  0  0  0  0  # atno 17370 bound_to 10713
  157.7127  131.0726  150.6443 LP  0  0  0  0  0  0  0  0  0  0  0  0  # atno 17371 bound_to 10713
  139.8758  134.9251  156.3367 LP  0  0  0  0  0  0  0  0  0  0  0  0  # atno 17394 bound_to 11000
  140.9588  133.7402  156.0372 LP  0  0  0  0  0  0  0  0  0  0  0  0  # atno 17395 bound_to 11000

$$$$
