AV-unprocessed.smi:2829|AV-procd|sdf|10903|dock7
  -GOLD-   2272015353D 1   1.00000     0.00000
 Structure written by MMmdl.
 50 53  0  0  0  0  0  0  0  0  1 V2000
  145.4788  131.6164  152.2273 C   0  0  0  0  0  0  0  0  0  0  0  0
  145.5305  132.6811  151.1082 C   0  0  0  0  0  0  0  0  0  0  0  0
  147.0165  132.9975  150.8378 C   0  0  0  0  0  0  0  0  0  0  0  0
  144.8883  132.0627  149.8490 C   0  0  0  0  0  0  0  0  0  0  0  0
  144.7849  133.9724  151.4904 C   0  0  0  0  0  0  0  0  0  0  0  0
  143.4085  134.0057  151.8093 C   0  0  0  0  0  0  0  0  0  0  0  0
  142.8428  135.2493  152.1370 C   0  0  0  0  0  0  0  0  0  0  0  0
  143.6731  136.3874  152.1300 C   0  0  0  0  0  0  0  0  0  0  0  0
  143.0305  137.6077  152.4604 N   0  0  0  0  0  0  0  0  0  0  0  0
  141.9088  137.7919  153.1837 C   0  0  0  0  0  0  0  0  0  0  0  0
  141.1889  136.8886  153.6044 O   0  0  0  0  0  0  0  0  0  0  0  0
  141.6171  139.0835  153.4180 N   0  0  0  0  0  0  0  0  0  0  0  0
  140.4771  139.6155  154.1659 C   0  0  1  0  0  0  0  0  0  0  0  0
  140.1637  141.0769  153.7922 C   0  0  2  0  0  0  0  0  0  0  0  0
  140.2981  142.1613  154.8270 C   0  0  0  0  0  0  0  0  0  0  0  0
  138.8613  142.3373  155.3261 C   0  0  0  0  0  0  0  0  0  0  0  0
  138.2181  141.1040  155.0127 O   0  0  0  0  0  0  0  0  0  0  0  0
  138.6907  140.6886  153.7348 C   0  0  2  0  0  0  0  0  0  0  0  0
  139.0896  139.2123  153.6194 C   0  0  0  0  0  0  0  0  0  0  0  0
  138.8944  138.4708  152.2828 C   0  0  0  0  0  0  0  0  0  0  0  0
  138.5067  137.2182  153.0726 C   0  0  0  0  0  0  0  0  0  0  0  0
  138.2546  138.1123  154.2903 C   0  0  0  0  0  0  0  0  0  0  0  0
  144.9884  136.2828  151.8154 N   0  0  0  0  0  0  0  0  0  0  0  0
  145.5323  135.1032  151.5026 N   0  0  0  0  0  0  0  0  0  0  0  0
  146.0143  130.7117  151.9366 H   0  0  0  0  0  0  0  0  0  0  0  0
  144.4545  131.3196  152.4559 H   0  0  0  0  0  0  0  0  0  0  0  0
  145.9394  131.9769  153.1480 H   0  0  0  0  0  0  0  0  0  0  0  0
  147.4904  133.4474  151.7112 H   0  0  0  0  0  0  0  0  0  0  0  0
  147.1385  133.6908  150.0051 H   0  0  0  0  0  0  0  0  0  0  0  0
  147.5763  132.0956  150.5882 H   0  0  0  0  0  0  0  0  0  0  0  0
  145.3845  131.1342  149.5647 H   0  0  0  0  0  0  0  0  0  0  0  0
  144.9482  132.7340  148.9915 H   0  0  0  0  0  0  0  0  0  0  0  0
  143.8345  131.8352  150.0142 H   0  0  0  0  0  0  0  0  0  0  0  0
  142.7859  133.1247  151.8082 H   0  0  0  0  0  0  0  0  0  0  0  0
  141.7938  135.3242  152.3846 H   0  0  0  0  0  0  0  0  0  0  0  0
  143.5070  138.4447  152.1591 H   0  0  0  0  0  0  0  0  0  0  0  0
  142.2482  139.7684  153.0275 H   0  0  0  0  0  0  0  0  0  0  0  0
  140.5462  139.4873  155.2484 H   0  0  0  0  0  0  0  0  0  0  0  0
  140.5384  141.3448  152.8023 H   0  0  0  0  0  0  0  0  0  0  0  0
  140.9548  141.8463  155.6387 H   0  0  0  0  0  0  0  0  0  0  0  0
  140.6968  143.0885  154.4146 H   0  0  0  0  0  0  0  0  0  0  0  0
  138.8094  142.5584  156.3923 H   0  0  0  0  0  0  0  0  0  0  0  0
  138.3639  143.1439  154.7853 H   0  0  0  0  0  0  0  0  0  0  0  0
  138.1453  141.1153  152.8920 H   0  0  0  0  0  0  0  0  0  0  0  0
  138.0586  138.8664  151.7042 H   0  0  0  0  0  0  0  0  0  0  0  0
  139.7823  138.3578  151.6612 H   0  0  0  0  0  0  0  0  0  0  0  0
  137.6222  136.7028  152.6977 H   0  0  0  0  0  0  0  0  0  0  0  0
  139.3412  136.5309  153.2143 H   0  0  0  0  0  0  0  0  0  0  0  0
  138.6685  137.7305  155.2239 H   0  0  0  0  0  0  0  0  0  0  0  0
  137.2046  138.3887  154.3985 H   0  0  0  0  0  0  0  0  0  0  0  0
  1  2  1  0  0  0  0
  1 25  1  0  0  0  0
  1 26  1  0  0  0  0
  1 27  1  0  0  0  0
  2  3  1  0  0  0  0
  2  4  1  0  0  0  0
  2  5  1  0  0  0  0
  3 28  1  0  0  0  0
  3 29  1  0  0  0  0
  3 30  1  0  0  0  0
  4 31  1  0  0  0  0
  4 32  1  0  0  0  0
  4 33  1  0  0  0  0
  5 24  1  0  0  0  0
  5  6  2  0  0  0  0
  6  7  1  0  0  0  0
  6 34  1  0  0  0  0
  7  8  2  0  0  0  0
  7 35  1  0  0  0  0
  8  9  1  0  0  0  0
  8 23  1  0  0  0  0
  9 10  1  0  0  0  0
  9 36  1  0  0  0  0
 10 11  2  0  0  0  0
 10 12  1  0  0  0  0
 12 13  1  0  0  0  0
 12 37  1  0  0  0  0
 13 19  1  0  0  0  0
 13 14  1  0  0  0  0
 13 38  1  0  0  0  0
 14 18  1  0  0  0  0
 14 15  1  0  0  0  0
 14 39  1  0  0  0  0
 15 16  1  0  0  0  0
 15 40  1  0  0  0  0
 15 41  1  0  0  0  0
 16 17  1  0  0  0  0
 16 42  1  0  0  0  0
 16 43  1  0  0  0  0
 17 18  1  0  0  0  0
 18 19  1  0  0  0  0
 18 44  1  0  0  0  0
 19 22  1  0  0  0  0
 19 20  1  0  0  0  0
 20 21  1  0  0  0  0
 20 45  1  0  0  0  0
 20 46  1  0  0  0  0
 21 22  1  0  0  0  0
 21 47  1  0  0  0  0
 21 48  1  0  0  0  0
 22 49  1  0  0  0  0
 22 50  1  0  0  0  0
 23 24  2  0  0  0  0
M  END
> <s_m_source_file>
AV-unprocessed.smi

> <i_m_source_file_index>
2829

> <i_lp_mmshare_version>
43012

> <i_f3d_flags>
0

> <s_epik_input>
W0NIM11DKFtDSDNdKShbQ0gzXSljMVtjSF1bY0hdYyhubjEpW05IXUMoPU8pW05IXVtDQEBIXTJbQ0BIXShbQ0gyXVtDSDJdTzMpW0NAQEhdM0MyNFtDSDJdW0NIMl1bQ0gyXTQ=

> <s_epik_cmdline>
J2VwaWtfcHl0aG9uJywgJy1waCcsICc3LjAnLCAnLXRuJywgJzgnLCAnLW1hJywgJzIwMCcsICctbWV0YWxfYmluZGluZycsICctaW1hZScsICc8aW5maWxlLm1hZT4nLCAnLW9tYWUnLCAnPG91dGZpbGUubWFlPic=

> <r_lp_tautomer_probability>
1

> <r_epik_Ionization_Penalty>
0.011915

> <r_epik_Ionization_Penalty_Charging>
0

> <r_epik_Ionization_Penalty_Neutral>
0.011915

> <r_epik_State_Penalty>
0.00486223

> <r_epik_Charging_Adjusted_Penalty>
0.00486223

> <i_epik_Tot_Q>
0

> <i_epik_Tot_abs_Q>
0

> <r_epik_Metal_State_Penalty>
-0

> <b_epik_Metal_Only>
0

> <s_lp_Force_Field>
OPLS_2005

> <r_lp_Energy>
59.5844

> <b_lp_Chiralities_Consistent>
1

> <s_lp_Variant>
AV-unprocessed.smi:2829-6

> <Gold.Version>
5.8.1

> <Gold.Id.Protein>
6NUR|6NUR_protein|mol2

> <Gold.PLP.Fitness>
42.5502

> <Gold.PLP.PLP>
-37.3213

> <Gold.PLP.part.hbond>
-3.0000

> <Gold.PLP.part.metal>
0.0000

> <Gold.PLP.part.buried>
-4.6791

> <Gold.PLP.part.nonpolar>
-30.2965

> <Gold.PLP.part.repulsive>
0.5001

> <Gold.PLP.ligand.clash>
0.0000

> <Gold.PLP.ligand.torsion>
0.2795

> <Gold.PLP.Chemscore.Hbond>
1.8640

> <Gold.PLP.Chemscore.CHOScore>
0.0000

> <Gold.PLP.Chemscore.Metal>
0.0000

> <Gold.Chemscore.Hbonds>
donor molecule, donor type, donor heavy atom, donor atom, acceptor molecule, acceptor atom, score
      L1  H     9    36       P1 10175  0.88
      L1  H    12    37       P1 10175  1.00

> <Gold.PLP.Chemscore.Internal.Correction>
0.1960

> <Gold.Rescore>
     Score         DG    S(hbond)    S(metal)    S(lipo)     H(rot)  DE(clash)    DE(int)     intcor
     16.44     -19.44       1.90        0.00      90.48       1.16       0.10       2.90       ----

> <Gold.Chemscore.Fitness>
16.4371

> <Gold.Chemscore.DG>
-19.4393

> <Gold.Chemscore.ZeroCoef>
-5.4800

> <Gold.Chemscore.Hbond>
1.9004

> <Gold.Chemscore.Metal>
0.0000

> <Gold.Chemscore.Lipo>
90.4796

> <Gold.Chemscore.Internal_Hbond>
0.0000

> <Gold.Chemscore.DEClash>
0.1003

> <Gold.Chemscore.DEInternal>
2.9019

> <Gold.Chemscore.Rot>
1.1618

> <Gold.Chemscore.Internal.Correction>
   9.000000E+99

> <Gold.Chemscore.Hbonds>
donor molecule, donor type, donor heavy atom, donor atom, acceptor molecule, acceptor atom, score
      L1  H     9    36       P1 10175  0.82
      L1  H    12    37       P1 10175  0.73

> <Gold.Chemscore.Hbond.Weighted>
-6.3474

> <Gold.Chemscore.Metal.Weighted>
-0.0000

> <Gold.Chemscore.Lipo.Weighted>
-10.5861

> <Gold.Chemscore.Internal_Hbond.Weighted>
0.0000

> <Gold.Chemscore.DEClash.Weighted>
0.1003

> <Gold.Chemscore.DEInternal.Weighted>
2.9019

> <Gold.Chemscore.Rot.Weighted>
2.9741

> <Gold.Chemscore.Internal.Correction.Weighted>
   9.000000E+99

> <Gold.Protein.RotatedTorsions>
[ 6907 6896 6895 6894 ] final -175.25 input  -60.11 | X-H torsion
[ 7974 7965 7964 7962 ] final   73.71 input  175.53 | X-H torsion
[ 8008 7997 7996 7995 ] final   22.78 input   59.86 | X-H torsion
[ 10167 10162 10161 10158 ] final  108.30 input  -65.29 | X-H torsion
[ 10718 10713 10712 10709 ] final -126.61 input   66.30 | X-H torsion
[ 10763 10752 10751 10750 ] final  -55.40 input  -60.55 | X-H torsion
[ 11005 11000 10999 10996 ] final -142.90 input  -57.11 | X-H torsion

> <Gold.Protein.ActiveResidues>
 VAL166  LYS551  ARG553  GLY616  TRP617  ASP618  TYR619  PRO620  LYS621  CYS622 
 ASP623  PHE694  ASN695  SER759  ASP760  ASP761  ALA762  ILE779  LEU786  VAL792 
 PHE793  MET794  SER795  GLU796  ALA797  LYS798  CYS799  TRP800  GLU811  SER814 

> <Gold.Protein.RotatedAtoms>
  151.5856  133.3372  159.3016 H   0  0  0  0  0  0  0  0  0  0  0  0  # atno 6907 bound_to 6896
  150.8289  134.7536  159.6848 H   0  0  0  0  0  0  0  0  0  0  0  0  # atno 6908 bound_to 6896
  152.4375  134.5664  159.9960 H   0  0  0  0  0  0  0  0  0  0  0  0  # atno 6909 bound_to 6896
  145.7375  139.2707  143.1506 H   0  0  0  0  0  0  0  0  0  0  0  0  # atno 7974 bound_to 7965
  154.9709  140.3090  155.4988 H   0  0  0  0  0  0  0  0  0  0  0  0  # atno 8008 bound_to 7997
  156.2966  140.2284  156.4740 H   0  0  0  0  0  0  0  0  0  0  0  0  # atno 8009 bound_to 7997
  154.7878  140.0442  157.1165 H   0  0  0  0  0  0  0  0  0  0  0  0  # atno 8010 bound_to 7997
  139.6857  144.7113  151.1437 H   0  0  0  0  0  0  0  0  0  0  0  0  # atno 10167 bound_to 10162
  156.1781  130.6713  151.0269 H   0  0  0  0  0  0  0  0  0  0  0  0  # atno 10718 bound_to 10713
  154.1902  135.6428  153.5058 H   0  0  0  0  0  0  0  0  0  0  0  0  # atno 10763 bound_to 10752
  153.0037  135.5427  154.6422 H   0  0  0  0  0  0  0  0  0  0  0  0  # atno 10764 bound_to 10752
  154.5809  135.2925  155.0706 H   0  0  0  0  0  0  0  0  0  0  0  0  # atno 10765 bound_to 10752
  140.8179  134.2666  157.4913 H   0  0  0  0  0  0  0  0  0  0  0  0  # atno 11005 bound_to 11000
  146.0480  140.8099  142.9796 LP  0  0  0  0  0  0  0  0  0  0  0  0  # atno 17320 bound_to 7965
  144.6878  140.3009  143.7263 LP  0  0  0  0  0  0  0  0  0  0  0  0  # atno 17321 bound_to 7965
  140.7667  143.5633  150.9075 LP  0  0  0  0  0  0  0  0  0  0  0  0  # atno 17342 bound_to 10162
  139.9308  143.6496  152.3077 LP  0  0  0  0  0  0  0  0  0  0  0  0  # atno 17343 bound_to 10162
  157.6849  131.0827  150.7269 LP  0  0  0  0  0  0  0  0  0  0  0  0  # atno 17370 bound_to 10713
  156.7326  130.4714  149.5496 LP  0  0  0  0  0  0  0  0  0  0  0  0  # atno 17371 bound_to 10713
  139.8710  134.9519  156.4099 LP  0  0  0  0  0  0  0  0  0  0  0  0  # atno 17394 bound_to 11000
  140.9130  133.7698  155.9814 LP  0  0  0  0  0  0  0  0  0  0  0  0  # atno 17395 bound_to 11000

$$$$
