AV-unprocessed.smi:13|AV-procd|sdf|75|dock1
  -GOLD-   2262015203D 1   1.00000     0.00000
 Structure written by MMmdl.
 54 58  0  0  0  0  0  0  0  0  1 V2000
  148.4506  141.5174  154.0588 C   0  0  0  0  0  0  0  0  0  0  0  0
  148.5682  140.4968  155.1905 C   0  0  0  0  0  0  0  0  0  0  0  0
  149.2806  141.2062  156.3501 C   0  0  0  0  0  0  0  0  0  0  0  0
  147.2746  139.7557  155.5600 C   0  0  0  0  0  0  0  0  0  0  0  0
  148.0857  138.5530  155.6821 N   0  0  0  0  0  0  0  0  0  0  0  0
  147.4771  137.3502  155.2321 C   0  0  0  0  0  0  0  0  0  0  0  0
  147.7773  136.1467  155.7923 N   0  0  0  0  0  0  0  0  0  0  0  0
  147.1864  135.0267  155.3659 C   0  0  0  0  0  0  0  0  0  0  0  0
  146.2719  134.8806  154.4061 N   0  0  0  0  0  0  0  0  0  0  0  0
  145.9590  136.0808  153.8403 C   0  0  0  0  0  0  0  0  0  0  0  0
  146.5132  137.3446  154.1886 C   0  0  0  0  0  0  0  0  0  0  0  0
  145.9588  138.3411  153.3958 N   0  0  0  0  0  0  0  0  0  0  0  0
  145.1266  137.7026  152.6195 C   0  0  0  0  0  0  0  0  0  0  0  0
  145.0520  136.3433  152.8280 N   0  0  0  0  0  0  0  0  0  0  0  0
  144.2080  135.3976  152.1130 C   0  0  0  0  0  0  0  0  0  0  0  0
  144.8827  134.7884  150.8612 C   0  0  1  0  0  0  0  0  0  0  0  0
  145.0970  135.8143  149.9067 O   0  0  0  0  0  0  0  0  0  0  0  0
  146.2249  134.1368  151.1694 C   0  0  0  0  0  0  0  0  0  0  0  0
  146.3266  133.0569  150.1010 C   0  0  0  0  0  0  0  0  0  0  0  0
  145.0007  132.5612  150.0261 O   0  0  0  0  0  0  0  0  0  0  0  0
  144.0929  133.6478  150.1849 C   0  0  0  0  0  0  0  0  0  0  0  0
  149.0910  139.1032  154.7806 C   0  0  2  0  0  0  0  0  0  0  0  0
  150.5019  138.6376  155.1457 C   0  0  1  0  0  0  0  0  0  0  0  0
  150.9767  137.4030  154.3819 C   0  0  0  0  0  0  0  0  0  0  0  0
  152.4896  137.5186  154.4478 C   0  0  0  0  0  0  0  0  0  0  0  0
  152.7338  139.0039  154.7314 C   0  0  0  0  0  0  0  0  0  0  0  0
  151.4477  139.6099  154.7303 O   0  0  0  0  0  0  0  0  0  0  0  0
  147.8657  142.3864  154.3618 H   0  0  0  0  0  0  0  0  0  0  0  0
  147.9606  141.0886  153.1842 H   0  0  0  0  0  0  0  0  0  0  0  0
  149.4305  141.8718  153.7371 H   0  0  0  0  0  0  0  0  0  0  0  0
  149.3830  140.5566  157.2199 H   0  0  0  0  0  0  0  0  0  0  0  0
  148.7310  142.0896  156.6765 H   0  0  0  0  0  0  0  0  0  0  0  0
  150.2837  141.5280  156.0680 H   0  0  0  0  0  0  0  0  0  0  0  0
  146.8251  140.0761  156.5003 H   0  0  0  0  0  0  0  0  0  0  0  0
  146.5466  139.7317  154.7476 H   0  0  0  0  0  0  0  0  0  0  0  0
  147.4876  134.1188  155.8674 H   0  0  0  0  0  0  0  0  0  0  0  0
  144.5353  138.2107  151.8714 H   0  0  0  0  0  0  0  0  0  0  0  0
  143.9185  134.6074  152.8070 H   0  0  0  0  0  0  0  0  0  0  0  0
  143.2856  135.9074  151.8316 H   0  0  0  0  0  0  0  0  0  0  0  0
  145.1643  135.4174  149.0517 H   0  0  0  0  0  0  0  0  0  0  0  0
  147.0649  134.8326  151.1583 H   0  0  0  0  0  0  0  0  0  0  0  0
  146.1998  133.6619  152.1513 H   0  0  0  0  0  0  0  0  0  0  0  0
  146.6153  133.4824  149.1386 H   0  0  0  0  0  0  0  0  0  0  0  0
  147.0367  132.2713  150.3595 H   0  0  0  0  0  0  0  0  0  0  0  0
  143.2600  133.3010  150.7951 H   0  0  0  0  0  0  0  0  0  0  0  0
  143.6862  133.9432  149.2165 H   0  0  0  0  0  0  0  0  0  0  0  0
  148.8434  138.9062  153.7355 H   0  0  0  0  0  0  0  0  0  0  0  0
  150.6103  138.4787  156.2203 H   0  0  0  0  0  0  0  0  0  0  0  0
  150.6062  136.4711  154.8091 H   0  0  0  0  0  0  0  0  0  0  0  0
  150.6481  137.4523  153.3429 H   0  0  0  0  0  0  0  0  0  0  0  0
  152.8905  136.9095  155.2586 H   0  0  0  0  0  0  0  0  0  0  0  0
  152.9572  137.1921  153.5186 H   0  0  0  0  0  0  0  0  0  0  0  0
  153.1959  139.1376  155.7102 H   0  0  0  0  0  0  0  0  0  0  0  0
  153.3778  139.4699  153.9853 H   0  0  0  0  0  0  0  0  0  0  0  0
  1  2  1  0  0  0  0
  1 28  1  0  0  0  0
  1 29  1  0  0  0  0
  1 30  1  0  0  0  0
  2 22  1  0  0  0  0
  2  3  1  0  0  0  0
  2  4  1  0  0  0  0
  3 31  1  0  0  0  0
  3 32  1  0  0  0  0
  3 33  1  0  0  0  0
  4  5  1  0  0  0  0
  4 34  1  0  0  0  0
  4 35  1  0  0  0  0
  5  6  1  0  0  0  0
  5 22  1  0  0  0  0
  6 11  1  0  0  0  0
  6  7  2  0  0  0  0
  7  8  1  0  0  0  0
  8  9  2  0  0  0  0
  8 36  1  0  0  0  0
  9 10  1  0  0  0  0
 10 14  1  0  0  0  0
 10 11  2  0  0  0  0
 11 12  1  0  0  0  0
 12 13  2  0  0  0  0
 13 14  1  0  0  0  0
 13 37  1  0  0  0  0
 14 15  1  0  0  0  0
 15 16  1  0  0  0  0
 15 38  1  0  0  0  0
 15 39  1  0  0  0  0
 16 21  1  0  0  0  0
 16 17  1  0  0  0  0
 16 18  1  0  0  0  0
 17 40  1  0  0  0  0
 18 19  1  0  0  0  0
 18 41  1  0  0  0  0
 18 42  1  0  0  0  0
 19 20  1  0  0  0  0
 19 43  1  0  0  0  0
 19 44  1  0  0  0  0
 20 21  1  0  0  0  0
 21 45  1  0  0  0  0
 21 46  1  0  0  0  0
 22 23  1  0  0  0  0
 22 47  1  0  0  0  0
 23 27  1  0  0  0  0
 23 24  1  0  0  0  0
 23 48  1  0  0  0  0
 24 25  1  0  0  0  0
 24 49  1  0  0  0  0
 24 50  1  0  0  0  0
 25 26  1  0  0  0  0
 25 51  1  0  0  0  0
 25 52  1  0  0  0  0
 26 27  1  0  0  0  0
 26 53  1  0  0  0  0
 26 54  1  0  0  0  0
M  END
> <s_m_source_file>
AV-unprocessed.smi

> <i_m_source_file_index>
13

> <i_lp_mmshare_version>
43012

> <i_f3d_flags>
0

> <s_epik_input>
TzFbQ0gyXVtDSDJdW0NIMl1bQ0BIXTFbQ0BASF0yTihbQ0gyXUMyKFtDSDNdKVtDSDNdKWMobltjSF1uMyljKGMzNCluW2NIXW40W0NIMl1bQ0BAXTUoW09IXSlbQ0gyXVtDSDJdT1tDSDJdNQ==

> <s_epik_cmdline>
J2VwaWtfcHl0aG9uJywgJy1waCcsICc3LjAnLCAnLXRuJywgJzgnLCAnLW1hJywgJzIwMCcsICctbWV0YWxfYmluZGluZycsICctaW1hZScsICc8aW5maWxlLm1hZT4nLCAnLW9tYWUnLCAnPG91dGZpbGUubWFlPic=

> <r_lp_tautomer_probability>
1

> <r_epik_Ionization_Penalty>
0.00202764

> <r_epik_Ionization_Penalty_Charging>
0

> <r_epik_Ionization_Penalty_Neutral>
0.00202764

> <r_epik_State_Penalty>
0.00134017

> <r_epik_Charging_Adjusted_Penalty>
0.00134017

> <i_epik_Tot_Q>
0

> <i_epik_Tot_abs_Q>
0

> <r_epik_Metal_State_Penalty>
-0

> <b_epik_Metal_Only>
0

> <s_lp_Force_Field>
OPLS_2005

> <r_lp_Energy>
60.8326

> <b_lp_Chiralities_Consistent>
1

> <s_lp_Variant>
AV-unprocessed.smi:13-7

> <Gold.Version>
5.8.1

> <Gold.Id.Protein>
6NUR|6NUR_protein|mol2

> <Gold.PLP.Fitness>
41.5353

> <Gold.PLP.PLP>
-32.4373

> <Gold.PLP.part.hbond>
-2.7082

> <Gold.PLP.part.metal>
0.0000

> <Gold.PLP.part.buried>
-0.7498

> <Gold.PLP.part.nonpolar>
-30.0184

> <Gold.PLP.part.repulsive>
0.5248

> <Gold.PLP.ligand.clash>
0.0000

> <Gold.PLP.ligand.torsion>
1.4103

> <Gold.PLP.Chemscore.Hbond>
2.0000

> <Gold.PLP.Chemscore.CHOScore>
1.7918

> <Gold.PLP.Chemscore.Metal>
0.0000

> <Gold.Chemscore.Hbonds>
donor molecule, donor type, donor heavy atom, donor atom, acceptor molecule, acceptor atom, score
      L1  H    17    40       P1  7921  1.00
      P1  H  7989  7998       L1    27  1.00
      L1  C    13    37       P1 10171  1.00
      L1  C    13    37       P1 10175  0.76

> <Gold.PLP.Chemscore.Internal.Correction>
0.5432

> <Gold.Rescore>
     Score         DG    S(hbond)    S(metal)    S(lipo)     H(rot)  DE(clash)    DE(int)     intcor
     12.01     -15.78       1.89        0.00      84.37       2.30       1.43       2.34       ----

> <Gold.Chemscore.Fitness>
12.0114

> <Gold.Chemscore.DG>
-15.7779

> <Gold.Chemscore.ZeroCoef>
-5.4800

> <Gold.Chemscore.Hbond>
1.8902

> <Gold.Chemscore.Metal>
0.0000

> <Gold.Chemscore.Lipo>
84.3730

> <Gold.Chemscore.Internal_Hbond>
0.0000

> <Gold.Chemscore.DEClash>
1.4263

> <Gold.Chemscore.DEInternal>
2.3402

> <Gold.Chemscore.Rot>
2.2996

> <Gold.Chemscore.Internal.Correction>
   9.000000E+99

> <Gold.Chemscore.Hbonds>
donor molecule, donor type, donor heavy atom, donor atom, acceptor molecule, acceptor atom, score
      L1  H    17    40       P1  7921  0.96
      P1  H  7989  7998       L1    27  0.30

> <Gold.Chemscore.Hbond.Weighted>
-6.3132

> <Gold.Chemscore.Metal.Weighted>
-0.0000

> <Gold.Chemscore.Lipo.Weighted>
-9.8716

> <Gold.Chemscore.Internal_Hbond.Weighted>
0.0000

> <Gold.Chemscore.DEClash.Weighted>
1.4263

> <Gold.Chemscore.DEInternal.Weighted>
2.3402

> <Gold.Chemscore.Rot.Weighted>
5.8869

> <Gold.Chemscore.Internal.Correction.Weighted>
   9.000000E+99

> <Gold.Protein.RotatedTorsions>
[ 6907 6896 6895 6894 ] final  -49.89 input  -60.11 | X-H torsion
[ 7974 7965 7964 7962 ] final -122.61 input  175.53 | X-H torsion
[ 8008 7997 7996 7995 ] final   60.01 input   59.86 | X-H torsion
[ 10167 10162 10161 10158 ] final  -31.45 input  -65.29 | X-H torsion
[ 10718 10713 10712 10709 ] final  108.80 input   66.30 | X-H torsion
[ 10763 10752 10751 10750 ] final  -18.98 input  -60.55 | X-H torsion
[ 11005 11000 10999 10996 ] final  165.64 input  -57.11 | X-H torsion

> <Gold.Protein.ActiveResidues>
 VAL166  LYS551  ARG553  GLY616  TRP617  ASP618  TYR619  PRO620  LYS621  CYS622 
 ASP623  PHE694  ASN695  SER759  ASP760  ASP761  ALA762  ILE779  LEU786  VAL792 
 PHE793  MET794  SER795  GLU796  ALA797  LYS798  CYS799  TRP800  GLU811  SER814 

> <Gold.Protein.RotatedAtoms>
  150.8761  134.8144  159.7190 H   0  0  0  0  0  0  0  0  0  0  0  0  # atno 6907 bound_to 6896
  152.4747  134.4870  159.9693 H   0  0  0  0  0  0  0  0  0  0  0  0  # atno 6908 bound_to 6896
  151.4951  133.3478  159.2895 H   0  0  0  0  0  0  0  0  0  0  0  0  # atno 6909 bound_to 6896
  145.0276  140.8041  143.4343 H   0  0  0  0  0  0  0  0  0  0  0  0  # atno 7974 bound_to 7965
  155.5754  140.3490  155.4526 H   0  0  0  0  0  0  0  0  0  0  0  0  # atno 8008 bound_to 7997
  156.0413  140.1296  157.0177 H   0  0  0  0  0  0  0  0  0  0  0  0  # atno 8009 bound_to 7997
  154.4393  140.1023  156.6227 H   0  0  0  0  0  0  0  0  0  0  0  0  # atno 8010 bound_to 7997
  140.7236  143.3769  151.1672 H   0  0  0  0  0  0  0  0  0  0  0  0  # atno 10167 bound_to 10162
  157.6570  131.0901  150.6359 H   0  0  0  0  0  0  0  0  0  0  0  0  # atno 10718 bound_to 10713
  153.5977  135.7000  153.5397 H   0  0  0  0  0  0  0  0  0  0  0  0  # atno 10763 bound_to 10752
  153.3123  135.4097  155.1346 H   0  0  0  0  0  0  0  0  0  0  0  0  # atno 10764 bound_to 10752
  154.8588  135.3675  154.5512 H   0  0  0  0  0  0  0  0  0  0  0  0  # atno 10765 bound_to 10752
  140.2582  134.7923  157.3565 H   0  0  0  0  0  0  0  0  0  0  0  0  # atno 11005 bound_to 11000
  145.1813  139.2350  143.5291 LP  0  0  0  0  0  0  0  0  0  0  0  0  # atno 17320 bound_to 7965
  146.3494  140.1587  142.8591 LP  0  0  0  0  0  0  0  0  0  0  0  0  # atno 17321 bound_to 7965
  139.7351  143.9011  152.3032 LP  0  0  0  0  0  0  0  0  0  0  0  0  # atno 17342 bound_to 10162
  139.8813  144.7016  150.8874 LP  0  0  0  0  0  0  0  0  0  0  0  0  # atno 17343 bound_to 10162
  156.6665  130.4527  149.5671 LP  0  0  0  0  0  0  0  0  0  0  0  0  # atno 17370 bound_to 10713
  156.2029  130.6631  151.1187 LP  0  0  0  0  0  0  0  0  0  0  0  0  # atno 17371 bound_to 10713
  140.1490  134.4873  155.7975 LP  0  0  0  0  0  0  0  0  0  0  0  0  # atno 17394 bound_to 11000
  141.2193  133.6855  156.7345 LP  0  0  0  0  0  0  0  0  0  0  0  0  # atno 17395 bound_to 11000

$$$$
