AV-unprocessed.smi:438|AV-procd|sdf|2576|dock7
  -GOLD-   2262022553D 1   1.00000     0.00000
 Structure written by MMmdl.
 48 49  0  0  0  0  0  0  0  0  1 V2000
  146.3672  130.6859  152.6253 C   0  0  0  0  0  0  0  0  0  0  0  0
  146.5675  132.0284  153.3038 C   0  0  0  0  0  0  0  0  0  0  0  0
  146.6874  131.9956  154.6492 N   0  0  0  0  0  0  0  0  0  0  0  0
  146.8573  133.1662  155.2624 C   0  0  0  0  0  0  0  0  0  0  0  0
  146.9899  133.0871  157.0382 S   0  0  0  0  0  0  0  0  0  0  0  0
  147.4871  134.7919  157.4678 C   0  0  0  0  0  0  0  0  0  0  0  0
  147.9477  135.0128  158.9147 C   0  0  0  0  0  0  0  0  0  0  0  0
  149.1196  135.3173  159.1334 O   0  0  0  0  0  0  0  0  0  0  0  0
  147.0397  134.8531  159.8906 N   0  0  0  0  0  0  0  0  0  0  0  0
  147.2734  135.0028  161.3267 C   0  0  1  0  0  0  0  0  0  0  0  0
  146.5683  136.2574  161.8912 C   0  0  0  0  0  0  0  0  0  0  0  0
  145.0380  136.1134  161.8899 C   0  0  0  0  0  0  0  0  0  0  0  0
  144.5959  134.8485  162.6402 C   0  0  0  0  0  0  0  0  0  0  0  0
  145.2816  133.5937  162.0769 C   0  0  0  0  0  0  0  0  0  0  0  0
  146.8191  133.7320  162.0874 C   0  0  1  0  0  0  0  0  0  0  0  0
  147.5035  132.4525  161.5759 C   0  0  0  0  0  0  0  0  0  0  0  0
  146.9344  134.3713  154.6955 N   0  0  0  0  0  0  0  0  0  0  0  0
  146.8148  134.4221  153.3521 C   0  0  0  0  0  0  0  0  0  0  0  0
  146.8889  135.6447  152.7510 O   0  0  0  0  0  0  0  0  0  0  0  0
  146.6193  133.2486  152.5818 C   0  0  0  0  0  0  0  0  0  0  0  0
  146.4781  133.3069  151.0667 C   0  0  0  0  0  0  0  0  0  0  0  0
  145.0569  132.9575  150.6059 C   0  0  0  0  0  0  0  0  0  0  0  0
  144.9888  132.9984  149.1976 O   0  0  0  0  0  0  0  0  0  0  0  0
  147.0989  130.5450  151.8298 H   0  0  0  0  0  0  0  0  0  0  0  0
  145.3688  130.6259  152.1925 H   0  0  0  0  0  0  0  0  0  0  0  0
  146.4775  129.8620  153.3314 H   0  0  0  0  0  0  0  0  0  0  0  0
  148.3067  135.0761  156.8078 H   0  0  0  0  0  0  0  0  0  0  0  0
  146.6648  135.4721  157.2442 H   0  0  0  0  0  0  0  0  0  0  0  0
  146.1016  134.6000  159.6150 H   0  0  0  0  0  0  0  0  0  0  0  0
  148.3486  135.1196  161.4749 H   0  0  0  0  0  0  0  0  0  0  0  0
  146.9070  136.4251  162.9142 H   0  0  0  0  0  0  0  0  0  0  0  0
  146.8569  137.1485  161.3329 H   0  0  0  0  0  0  0  0  0  0  0  0
  144.5799  136.9932  162.3420 H   0  0  0  0  0  0  0  0  0  0  0  0
  144.6789  136.0756  160.8629 H   0  0  0  0  0  0  0  0  0  0  0  0
  144.8362  134.9506  163.6991 H   0  0  0  0  0  0  0  0  0  0  0  0
  143.5130  134.7395  162.5786 H   0  0  0  0  0  0  0  0  0  0  0  0
  144.9825  132.7243  162.6635 H   0  0  0  0  0  0  0  0  0  0  0  0
  144.9292  133.4113  161.0607 H   0  0  0  0  0  0  0  0  0  0  0  0
  147.1244  133.8551  163.1277 H   0  0  0  0  0  0  0  0  0  0  0  0
  147.2088  132.2161  160.5531 H   0  0  0  0  0  0  0  0  0  0  0  0
  147.2424  131.5961  162.1979 H   0  0  0  0  0  0  0  0  0  0  0  0
  148.5889  132.5540  161.5960 H   0  0  0  0  0  0  0  0  0  0  0  0
  147.6514  135.7332  152.2003 H   0  0  0  0  0  0  0  0  0  0  0  0
  146.7577  134.2956  150.7029 H   0  0  0  0  0  0  0  0  0  0  0  0
  147.1945  132.6204  150.6136 H   0  0  0  0  0  0  0  0  0  0  0  0
  144.7747  131.9606  150.9460 H   0  0  0  0  0  0  0  0  0  0  0  0
  144.3319  133.6605  151.0168 H   0  0  0  0  0  0  0  0  0  0  0  0
  145.3798  133.8061  148.9012 H   0  0  0  0  0  0  0  0  0  0  0  0
  1  2  1  0  0  0  0
  1 24  1  0  0  0  0
  1 25  1  0  0  0  0
  1 26  1  0  0  0  0
  2 20  1  0  0  0  0
  2  3  2  0  0  0  0
  3  4  1  0  0  0  0
  4  5  1  0  0  0  0
  4 17  2  0  0  0  0
  5  6  1  0  0  0  0
  6  7  1  0  0  0  0
  6 27  1  0  0  0  0
  6 28  1  0  0  0  0
  7  8  2  0  0  0  0
  7  9  1  0  0  0  0
  9 10  1  0  0  0  0
  9 29  1  0  0  0  0
 10 15  1  0  0  0  0
 10 11  1  0  0  0  0
 10 30  1  0  0  0  0
 11 12  1  0  0  0  0
 11 31  1  0  0  0  0
 11 32  1  0  0  0  0
 12 13  1  0  0  0  0
 12 33  1  0  0  0  0
 12 34  1  0  0  0  0
 13 14  1  0  0  0  0
 13 35  1  0  0  0  0
 13 36  1  0  0  0  0
 14 15  1  0  0  0  0
 14 37  1  0  0  0  0
 14 38  1  0  0  0  0
 15 16  1  0  0  0  0
 15 39  1  0  0  0  0
 16 40  1  0  0  0  0
 16 41  1  0  0  0  0
 16 42  1  0  0  0  0
 17 18  1  0  0  0  0
 18 19  1  0  0  0  0
 18 20  2  0  0  0  0
 19 43  1  0  0  0  0
 20 21  1  0  0  0  0
 21 22  1  0  0  0  0
 21 44  1  0  0  0  0
 21 45  1  0  0  0  0
 22 23  1  0  0  0  0
 22 46  1  0  0  0  0
 22 47  1  0  0  0  0
 23 48  1  0  0  0  0
M  END
> <s_m_source_file>
AV-unprocessed.smi

> <i_m_source_file_index>
438

> <i_lp_mmshare_version>
43012

> <i_f3d_flags>
0

> <s_epik_input>
W09IXVtDSDJdW0NIMl1jMWMoW09IXSluYyhuYzFbQ0gzXSlTW0NIMl1DKD1PKVtOSF1bQ0BASF0yW0NIMl1bQ0gyXVtDSDJdW0NIMl1bQ0BIXTJbQ0gzXQ==

> <s_epik_cmdline>
J2VwaWtfcHl0aG9uJywgJy1waCcsICc3LjAnLCAnLXRuJywgJzgnLCAnLW1hJywgJzIwMCcsICctbWV0YWxfYmluZGluZycsICctaW1hZScsICc8aW5maWxlLm1hZT4nLCAnLW9tYWUnLCAnPG91dGZpbGUubWFlPic=

> <r_lp_tautomer_probability>
0.0660145

> <r_epik_Ionization_Penalty>
2.91405

> <r_epik_Ionization_Penalty_Charging>
0

> <r_epik_Ionization_Penalty_Neutral>
2.91405

> <r_epik_State_Penalty>
2.44767

> <r_epik_Charging_Adjusted_Penalty>
2.44767

> <i_epik_Tot_Q>
0

> <i_epik_Tot_abs_Q>
0

> <r_epik_Metal_State_Penalty>
3.04288

> <b_epik_Metal_Only>
0

> <s_lp_Force_Field>
OPLS_2005

> <r_lp_Energy>
-3.37475

> <b_lp_Chiralities_Consistent>
1

> <s_lp_Variant>
AV-unprocessed.smi:438-14

> <Gold.Version>
5.8.1

> <Gold.Id.Protein>
6NUR|6NUR_protein|mol2

> <Gold.PLP.Fitness>
42.8994

> <Gold.PLP.PLP>
-34.3874

> <Gold.PLP.part.hbond>
-2.7151

> <Gold.PLP.part.metal>
0.0000

> <Gold.PLP.part.buried>
-5.3378

> <Gold.PLP.part.nonpolar>
-25.6161

> <Gold.PLP.part.repulsive>
0.1474

> <Gold.PLP.ligand.clash>
0.0000

> <Gold.PLP.ligand.torsion>
0.2868

> <Gold.PLP.Chemscore.Hbond>
3.0000

> <Gold.PLP.Chemscore.CHOScore>
0.0000

> <Gold.PLP.Chemscore.Metal>
0.0000

> <Gold.Chemscore.Hbonds>
donor molecule, donor type, donor heavy atom, donor atom, acceptor molecule, acceptor atom, score
      L1  H    19    43       P1  7948  0.70
      L1  H    23    48       P1  7921  1.00
      P1  H  6896  6908       L1     8  1.00

> <Gold.PLP.Chemscore.Internal.Correction>
0.0855

> <Gold.Rescore>
     Score         DG    S(hbond)    S(metal)    S(lipo)     H(rot)  DE(clash)    DE(int)     intcor
     15.74     -16.14       2.97        0.00      81.57       3.44       0.01       0.39       ----

> <Gold.Chemscore.Fitness>
15.7413

> <Gold.Chemscore.DG>
-16.1400

> <Gold.Chemscore.ZeroCoef>
-5.4800

> <Gold.Chemscore.Hbond>
2.9678

> <Gold.Chemscore.Metal>
0.0000

> <Gold.Chemscore.Lipo>
81.5684

> <Gold.Chemscore.Internal_Hbond>
0.0000

> <Gold.Chemscore.DEClash>
0.0135

> <Gold.Chemscore.DEInternal>
0.3851

> <Gold.Chemscore.Rot>
3.4359

> <Gold.Chemscore.Internal.Correction>
   9.000000E+99

> <Gold.Chemscore.Hbonds>
donor molecule, donor type, donor heavy atom, donor atom, acceptor molecule, acceptor atom, score
      L1  H    19    43       P1  7948  0.70
      L1  H    23    48       P1  7921  0.67
      P1  H  6896  6908       L1     8  1.00

> <Gold.Chemscore.Hbond.Weighted>
-9.9125

> <Gold.Chemscore.Metal.Weighted>
-0.0000

> <Gold.Chemscore.Lipo.Weighted>
-9.5435

> <Gold.Chemscore.Internal_Hbond.Weighted>
0.0000

> <Gold.Chemscore.DEClash.Weighted>
0.0135

> <Gold.Chemscore.DEInternal.Weighted>
0.3851

> <Gold.Chemscore.Rot.Weighted>
8.7960

> <Gold.Chemscore.Internal.Correction.Weighted>
   9.000000E+99

> <Gold.Protein.RotatedTorsions>
[ 6907 6896 6895 6894 ] final  164.91 input  -60.11 | X-H torsion
[ 7974 7965 7964 7962 ] final   31.88 input  175.53 | X-H torsion
[ 8008 7997 7996 7995 ] final -150.35 input   59.86 | X-H torsion
[ 10167 10162 10161 10158 ] final  144.84 input  -65.29 | X-H torsion
[ 10718 10713 10712 10709 ] final   98.26 input   66.30 | X-H torsion
[ 10763 10752 10751 10750 ] final   -7.41 input  -60.55 | X-H torsion
[ 11005 11000 10999 10996 ] final -144.36 input  -57.11 | X-H torsion

> <Gold.Protein.ActiveResidues>
 VAL166  LYS551  ARG553  GLY616  TRP617  ASP618  TYR619  PRO620  LYS621  CYS622 
 ASP623  PHE694  ASN695  SER759  ASP760  ASP761  ALA762  ILE779  LEU786  VAL792 
 PHE793  MET794  SER795  GLU796  ALA797  LYS798  CYS799  TRP800  GLU811  SER814 

> <Gold.Protein.RotatedAtoms>
  151.9025  133.3541  159.3835 H   0  0  0  0  0  0  0  0  0  0  0  0  # atno 6907 bound_to 6896
  150.7077  134.4814  159.5481 H   0  0  0  0  0  0  0  0  0  0  0  0  # atno 6908 bound_to 6896
  152.2405  134.8234  160.0512 H   0  0  0  0  0  0  0  0  0  0  0  0  # atno 6909 bound_to 6896
  146.1522  139.6599  142.9091 H   0  0  0  0  0  0  0  0  0  0  0  0  # atno 7974 bound_to 7965
  155.6221  140.0682  157.2675 H   0  0  0  0  0  0  0  0  0  0  0  0  # atno 8008 bound_to 7997
  154.4226  140.1782  156.1431 H   0  0  0  0  0  0  0  0  0  0  0  0  # atno 8009 bound_to 7997
  156.0001  140.3337  155.6840 H   0  0  0  0  0  0  0  0  0  0  0  0  # atno 8010 bound_to 7997
  139.4938  144.5944  151.6614 H   0  0  0  0  0  0  0  0  0  0  0  0  # atno 10167 bound_to 10162
  157.6898  131.0634  150.4769 H   0  0  0  0  0  0  0  0  0  0  0  0  # atno 10718 bound_to 10713
  153.4259  135.7011  153.6263 H   0  0  0  0  0  0  0  0  0  0  0  0  # atno 10763 bound_to 10752
  153.4698  135.3717  155.2384 H   0  0  0  0  0  0  0  0  0  0  0  0  # atno 10764 bound_to 10752
  154.8724  135.4040  154.3635 H   0  0  0  0  0  0  0  0  0  0  0  0  # atno 10765 bound_to 10752
  140.8033  134.2831  157.4970 H   0  0  0  0  0  0  0  0  0  0  0  0  # atno 11005 bound_to 11000
  145.4796  141.0437  143.2653 LP  0  0  0  0  0  0  0  0  0  0  0  0  # atno 17320 bound_to 7965
  144.7918  139.6313  143.7110 LP  0  0  0  0  0  0  0  0  0  0  0  0  # atno 17321 bound_to 7965
  140.5578  144.0319  150.6155 LP  0  0  0  0  0  0  0  0  0  0  0  0  # atno 17342 bound_to 10162
  140.3395  143.3028  152.0603 LP  0  0  0  0  0  0  0  0  0  0  0  0  # atno 17343 bound_to 10162
  156.5103  130.4138  149.6304 LP  0  0  0  0  0  0  0  0  0  0  0  0  # atno 17370 bound_to 10713
  156.3246  130.7299  151.2217 LP  0  0  0  0  0  0  0  0  0  0  0  0  # atno 17371 bound_to 10713
  139.8720  134.9441  156.3873 LP  0  0  0  0  0  0  0  0  0  0  0  0  # atno 17394 bound_to 11000
  140.9273  133.7603  155.9980 LP  0  0  0  0  0  0  0  0  0  0  0  0  # atno 17395 bound_to 11000

$$$$
