AV-unprocessed.smi:2062|AV-procd|sdf|8405|dock10
  -GOLD-   2272011 93D 1   1.00000     0.00000
 Structure written by MMmdl.
 42 43  0  0  0  0  0  0  0  0  3 V2000
  152.9831  138.6243  154.9181 C   0  0  0  0  0  0  0  0  0  0  0  0
  151.7124  139.4784  154.7729 C   0  0  0  0  0  0  0  0  0  0  0  0
  151.5553  140.4144  155.9805 C   0  0  0  0  0  0  0  0  0  0  0  0
  150.4501  138.6072  154.5938 C   0  0  0  0  0  0  0  0  0  0  0  0
  149.3808  139.2848  153.8169 N   0  3  2  0  0  0  0  0  0  0  0  0
  148.9478  140.5792  154.3991 C   0  0  0  0  0  0  0  0  0  0  0  0
  147.8757  141.2321  153.5116 C   0  0  0  0  0  0  0  0  0  0  0  0
  146.7847  140.3360  153.3504 O   0  0  0  0  0  0  0  0  0  0  0  0
  147.1679  139.1282  152.7000 C   0  0  2  0  0  0  0  0  0  0  0  0
  145.9099  138.2775  152.4802 C   0  0  0  0  0  0  0  0  0  0  0  0
  146.2685  136.9899  151.8968 N   0  0  0  0  0  0  0  0  0  0  0  0
  145.4255  135.9962  151.5879 C   0  0  0  0  0  0  0  0  0  0  0  0
  144.2195  136.1121  151.8176 O   0  0  0  0  0  0  0  0  0  0  0  0
  146.0369  134.9282  151.0281 N   0  5  0  0  0  0  0  0  0  0  0  0
  145.3458  133.7991  150.8023 C   0  0  0  0  0  0  0  0  0  0  0  0
  144.0945  133.7930  150.3293 N   0  0  0  0  0  0  0  0  0  0  0  0
  143.5648  132.5103  150.1771 C   0  0  0  0  0  0  0  0  0  0  0  0
  144.4302  131.5168  150.5509 C   0  0  0  0  0  0  0  0  0  0  0  0
  145.9452  132.1665  151.1098 S   0  0  0  0  0  0  0  0  0  0  0  0
  148.2088  138.4090  153.5794 C   0  0  0  0  0  0  0  0  0  0  0  0
  152.9166  137.9572  155.7783 H   0  0  0  0  0  0  0  0  0  0  0  0
  153.8641  139.2525  155.0538 H   0  0  0  0  0  0  0  0  0  0  0  0
  153.1567  138.0113  154.0334 H   0  0  0  0  0  0  0  0  0  0  0  0
  151.8347  140.1159  153.8977 H   0  0  0  0  0  0  0  0  0  0  0  0
  151.4376  139.8516  156.9070 H   0  0  0  0  0  0  0  0  0  0  0  0
  150.6825  141.0583  155.8686 H   0  0  0  0  0  0  0  0  0  0  0  0
  152.4260  141.0611  156.0936 H   0  0  0  0  0  0  0  0  0  0  0  0
  150.7406  137.6876  154.0833 H   0  0  0  0  0  0  0  0  0  0  0  0
  150.0514  138.3026  155.5628 H   0  0  0  0  0  0  0  0  0  0  0  0
  148.5493  140.4157  155.4017 H   0  0  0  0  0  0  0  0  0  0  0  0
  149.7930  141.2591  154.4979 H   0  0  0  0  0  0  0  0  0  0  0  0
  147.5126  142.1502  153.9740 H   0  0  0  0  0  0  0  0  0  0  0  0
  148.2864  141.5060  152.5384 H   0  0  0  0  0  0  0  0  0  0  0  0
  147.6115  139.3609  151.7296 H   0  0  0  0  0  0  0  0  0  0  0  0
  145.4128  138.0878  153.4319 H   0  0  0  0  0  0  0  0  0  0  0  0
  145.2010  138.8241  151.8561 H   0  0  0  0  0  0  0  0  0  0  0  0
  147.2452  136.8398  151.6911 H   0  0  0  0  0  0  0  0  0  0  0  0
  142.5607  132.3976  149.7965 H   0  0  0  0  0  0  0  0  0  0  0  0
  144.2707  130.4494  150.5338 H   0  0  0  0  0  0  0  0  0  0  0  0
  148.5313  137.4910  153.0863 H   0  0  0  0  0  0  0  0  0  0  0  0
  147.7664  138.1224  154.5351 H   0  0  0  0  0  0  0  0  0  0  0  0
  149.7701  139.4844  152.9066 H   0  0  0  0  0  0  0  0  0  0  0  0
  1  2  1  0  0  0  0
  1 21  1  0  0  0  0
  1 22  1  0  0  0  0
  1 23  1  0  0  0  0
  2  3  1  0  0  0  0
  2  4  1  0  0  0  0
  2 24  1  0  0  0  0
  3 25  1  0  0  0  0
  3 26  1  0  0  0  0
  3 27  1  0  0  0  0
  4  5  1  0  0  0  0
  4 28  1  0  0  0  0
  4 29  1  0  0  0  0
  5 20  1  0  0  0  0
  5  6  1  0  0  0  0
  5 42  1  0  0  0  0
  6  7  1  0  0  0  0
  6 30  1  0  0  0  0
  6 31  1  0  0  0  0
  7  8  1  0  0  0  0
  7 32  1  0  0  0  0
  7 33  1  0  0  0  0
  8  9  1  0  0  0  0
  9 10  1  0  0  0  0
  9 20  1  0  0  0  0
  9 34  1  0  0  0  0
 10 11  1  0  0  0  0
 10 35  1  0  0  0  0
 10 36  1  0  0  0  0
 11 12  1  0  0  0  0
 11 37  1  0  0  0  0
 12 13  2  0  0  0  0
 12 14  1  0  0  0  0
 14 15  1  0  0  0  0
 15 19  1  0  0  0  0
 15 16  2  0  0  0  0
 16 17  1  0  0  0  0
 17 18  2  0  0  0  0
 17 38  1  0  0  0  0
 18 19  1  0  0  0  0
 18 39  1  0  0  0  0
 20 40  1  0  0  0  0
 20 41  1  0  0  0  0
M  CHG  1   5   1
M  CHG  1  14  -1
M  END
> <s_m_source_file>
AV-unprocessed.smi

> <i_m_source_file_index>
2062

> <i_lp_mmshare_version>
43012

> <i_f3d_flags>
0

> <s_epik_input>
W0NIM11bQ0hdKFtDSDNdKVtDSDJdTjFbQ0gyXVtDSDJdT1tDQEhdKFtDSDJdMSlbQ0gyXVtOSF1DKD1PKVtOSF1jMm5bY0hdW2NIXXMy

> <s_epik_cmdline>
J2VwaWtfcHl0aG9uJywgJy1waCcsICc3LjAnLCAnLXRuJywgJzgnLCAnLW1hJywgJzIwMCcsICctbWV0YWxfYmluZGluZycsICctaW1hZScsICc8aW5maWxlLm1hZT4nLCAnLW9tYWUnLCAnPG91dGZpbGUubWFlPic=

> <r_lp_tautomer_probability>
0.999

> <r_epik_Ionization_Penalty>
6.35835

> <r_epik_Ionization_Penalty_Charging>
5.49938

> <r_epik_Ionization_Penalty_Neutral>
0.858963

> <r_epik_State_Penalty>
5.49328

> <r_epik_Charging_Adjusted_Penalty>
10.9927

> <i_epik_Tot_Q>
0

> <i_epik_Tot_abs_Q>
2

> <r_epik_Metal_State_Penalty>
1.51523

> <b_epik_Metal_Only>
1

> <s_lp_Force_Field>
OPLS_2005

> <r_lp_Energy>
7.82162

> <b_lp_Chiralities_Consistent>
1

> <s_lp_Variant>
AV-unprocessed.smi:2062-10

> <Gold.Version>
5.8.1

> <Gold.Id.Protein>
6NUR|6NUR_protein|mol2

> <Gold.PLP.Fitness>
44.7053

> <Gold.PLP.PLP>
-35.7204

> <Gold.PLP.part.hbond>
-2.0000

> <Gold.PLP.part.metal>
0.0000

> <Gold.PLP.part.buried>
1.4865

> <Gold.PLP.part.nonpolar>
-35.2391

> <Gold.PLP.part.repulsive>
0.8568

> <Gold.PLP.ligand.clash>
0.0000

> <Gold.PLP.ligand.torsion>
0.6662

> <Gold.PLP.Chemscore.Hbond>
2.0000

> <Gold.PLP.Chemscore.CHOScore>
1.4110

> <Gold.PLP.Chemscore.Metal>
0.0000

> <Gold.Chemscore.Hbonds>
donor molecule, donor type, donor heavy atom, donor atom, acceptor molecule, acceptor atom, score
      L1  H     5    42       P1  7957  1.00
      L1  H    11    37       P1  7948  1.00
      L1  C    17    38       P1 10186  0.78
      L1  C    17    38       P1 10952  0.60

> <Gold.PLP.Chemscore.Internal.Correction>
0.0843

> <Gold.Rescore>
     Score         DG    S(hbond)    S(metal)    S(lipo)     H(rot)  DE(clash)    DE(int)     intcor
     14.29     -16.95       1.59        0.00      90.34       1.72       0.22       2.43       ----

> <Gold.Chemscore.Fitness>
14.2890

> <Gold.Chemscore.DG>
-16.9452

> <Gold.Chemscore.ZeroCoef>
-5.4800

> <Gold.Chemscore.Hbond>
1.5861

> <Gold.Chemscore.Metal>
0.0000

> <Gold.Chemscore.Lipo>
90.3350

> <Gold.Chemscore.Internal_Hbond>
0.0000

> <Gold.Chemscore.DEClash>
0.2224

> <Gold.Chemscore.DEInternal>
2.4337

> <Gold.Chemscore.Rot>
1.7194

> <Gold.Chemscore.Internal.Correction>
   9.000000E+99

> <Gold.Chemscore.Hbonds>
donor molecule, donor type, donor heavy atom, donor atom, acceptor molecule, acceptor atom, score
      L1  H     5    42       P1  7957  0.97
      L1  H    11    37       P1  7948  1.00

> <Gold.Chemscore.Hbond.Weighted>
-5.2977

> <Gold.Chemscore.Metal.Weighted>
-0.0000

> <Gold.Chemscore.Lipo.Weighted>
-10.5692

> <Gold.Chemscore.Internal_Hbond.Weighted>
0.0000

> <Gold.Chemscore.DEClash.Weighted>
0.2224

> <Gold.Chemscore.DEInternal.Weighted>
2.4337

> <Gold.Chemscore.Rot.Weighted>
4.4017

> <Gold.Chemscore.Internal.Correction.Weighted>
   9.000000E+99

> <Gold.Protein.RotatedTorsions>
[ 6907 6896 6895 6894 ] final   25.00 input  -60.11 | X-H torsion
[ 7974 7965 7964 7962 ] final  -24.07 input  175.53 | X-H torsion
[ 8008 7997 7996 7995 ] final   -2.21 input   59.86 | X-H torsion
[ 10167 10162 10161 10158 ] final  171.85 input  -65.29 | X-H torsion
[ 10718 10713 10712 10709 ] final   16.56 input   66.30 | X-H torsion
[ 10763 10752 10751 10750 ] final  145.48 input  -60.55 | X-H torsion
[ 11005 11000 10999 10996 ] final -142.40 input  -57.11 | X-H torsion

> <Gold.Protein.ActiveResidues>
 VAL166  LYS551  ARG553  GLY616  TRP617  ASP618  TYR619  PRO620  LYS621  CYS622 
 ASP623  PHE694  ASN695  SER759  ASP760  ASP761  ALA762  ILE779  LEU786  VAL792 
 PHE793  MET794  SER795  GLU796  ALA797  LYS798  CYS799  TRP800  GLU811  SER814 

> <Gold.Protein.RotatedAtoms>
  151.9660  135.0100  160.0550 H   0  0  0  0  0  0  0  0  0  0  0  0  # atno 6907 bound_to 6896
  152.1826  133.4713  159.4974 H   0  0  0  0  0  0  0  0  0  0  0  0  # atno 6908 bound_to 6896
  150.6920  134.1732  159.4263 H   0  0  0  0  0  0  0  0  0  0  0  0  # atno 6909 bound_to 6896
  146.1577  140.4702  142.8584 H   0  0  0  0  0  0  0  0  0  0  0  0  # atno 7974 bound_to 7965
  154.6382  140.2540  155.7353 H   0  0  0  0  0  0  0  0  0  0  0  0  # atno 8008 bound_to 7997
  156.2515  140.2893  156.0684 H   0  0  0  0  0  0  0  0  0  0  0  0  # atno 8009 bound_to 7997
  155.1638  140.0385  157.2838 H   0  0  0  0  0  0  0  0  0  0  0  0  # atno 8010 bound_to 7997
  139.5059  144.3440  151.9989 H   0  0  0  0  0  0  0  0  0  0  0  0  # atno 10167 bound_to 10162
  157.0695  130.6342  149.5803 H   0  0  0  0  0  0  0  0  0  0  0  0  # atno 10718 bound_to 10713
  154.0062  135.2918  155.3397 H   0  0  0  0  0  0  0  0  0  0  0  0  # atno 10763 bound_to 10752
  154.7130  135.5141  153.8699 H   0  0  0  0  0  0  0  0  0  0  0  0  # atno 10764 bound_to 10752
  153.0744  135.6658  154.0298 H   0  0  0  0  0  0  0  0  0  0  0  0  # atno 10765 bound_to 10752
  140.8229  134.2609  157.4892 H   0  0  0  0  0  0  0  0  0  0  0  0  # atno 11005 bound_to 11000
  144.7985  140.6169  143.6493 LP  0  0  0  0  0  0  0  0  0  0  0  0  # atno 17320 bound_to 7965
  145.4666  139.1507  143.3837 LP  0  0  0  0  0  0  0  0  0  0  0  0  # atno 17321 bound_to 7965
  140.2878  144.3788  150.6098 LP  0  0  0  0  0  0  0  0  0  0  0  0  # atno 17342 bound_to 10162
  140.5970  143.2167  151.7145 LP  0  0  0  0  0  0  0  0  0  0  0  0  # atno 17343 bound_to 10162
  155.9954  130.5021  150.7459 LP  0  0  0  0  0  0  0  0  0  0  0  0  # atno 17370 bound_to 10713
  157.4889  131.0909  151.0450 LP  0  0  0  0  0  0  0  0  0  0  0  0  # atno 17371 bound_to 10713
  139.8708  134.9545  156.4177 LP  0  0  0  0  0  0  0  0  0  0  0  0  # atno 17394 bound_to 11000
  140.9080  133.7732  155.9758 LP  0  0  0  0  0  0  0  0  0  0  0  0  # atno 17395 bound_to 11000

$$$$
