AV-unprocessed.smi:221|AV-procd|sdf|1690|dock2
  -GOLD-   2262020133D 1   1.00000     0.00000
 Structure written by MMmdl.
 50 53  0  0  0  0  0  0  0  0  1 V2000
  153.2440  142.0327  161.6005 N   0  0  0  0  0  0  0  0  0  0  0  0
  153.6218  141.7295  160.3564 C   0  0  0  0  0  0  0  0  0  0  0  0
  154.4108  140.8167  160.1173 O   0  0  0  0  0  0  0  0  0  0  0  0
  153.0062  142.5643  159.2242 C   0  0  2  0  0  0  0  0  0  0  0  0
  152.9053  144.0490  159.5989 C   0  0  0  0  0  0  0  0  0  0  0  0
  151.7904  144.5596  158.6932 C   0  0  1  0  0  0  0  0  0  0  0  0
  152.2852  144.8266  157.4834 F   0  0  0  0  0  0  0  0  0  0  0  0
  150.8353  143.3670  158.6050 C   0  0  0  0  0  0  0  0  0  0  0  0
  151.6216  142.1819  158.9381 N   0  0  0  0  0  0  0  0  0  0  0  0
  151.4583  141.1217  158.1163 C   0  0  0  0  0  0  0  0  0  0  0  0
  152.2363  140.0358  158.3438 N   0  0  0  0  0  0  0  0  0  0  0  0
  152.1206  138.9569  157.5632 C   0  0  0  0  0  0  0  0  0  0  0  0
  151.3057  138.7611  156.5238 N   0  0  0  0  0  0  0  0  0  0  0  0
  150.5224  139.8539  156.2941 C   0  0  0  0  0  0  0  0  0  0  0  0
  150.5334  141.0679  157.0360 C   0  0  0  0  0  0  0  0  0  0  0  0
  149.6012  141.9547  156.5109 N   0  0  0  0  0  0  0  0  0  0  0  0
  149.0689  141.3021  155.5141 C   0  0  0  0  0  0  0  0  0  0  0  0
  149.5665  140.0353  155.3096 N   0  0  0  0  0  0  0  0  0  0  0  0
  149.1536  139.1022  154.2758 C   0  0  0  0  0  0  0  0  0  0  0  0
  147.6208  138.8851  154.2313 C   0  0  1  0  0  0  0  0  0  0  0  0
  146.9986  139.3185  152.8817 C   0  0  0  0  0  0  0  0  0  0  0  0
  147.5232  138.5683  151.8054 O   0  0  0  0  0  0  0  0  0  0  0  0
  147.2391  137.4338  154.6193 C   0  0  2  0  0  0  0  0  0  0  0  0
  145.7529  137.1937  154.8196 C   0  0  0  0  0  0  0  0  0  0  0  0
  145.7415  135.8965  155.6203 C   0  0  0  0  0  0  0  0  0  0  0  0
  146.9152  135.9323  156.4236 O   0  0  0  0  0  0  0  0  0  0  0  0
  147.7796  136.9728  155.9774 C   0  0  0  0  0  0  0  0  0  0  0  0
  153.6164  142.4628  158.3247 H   0  0  0  0  0  0  0  0  0  0  0  0
  151.3135  145.4684  159.0606 H   0  0  0  0  0  0  0  0  0  0  0  0
  153.6221  141.5123  162.3788 H   0  0  0  0  0  0  0  0  0  0  0  0
  152.5837  142.7798  161.7597 H   0  0  0  0  0  0  0  0  0  0  0  0
  152.6077  144.1684  160.6425 H   0  0  0  0  0  0  0  0  0  0  0  0
  153.8431  144.5864  159.4551 H   0  0  0  0  0  0  0  0  0  0  0  0
  150.0525  143.4615  159.3582 H   0  0  0  0  0  0  0  0  0  0  0  0
  150.3413  143.3141  157.6330 H   0  0  0  0  0  0  0  0  0  0  0  0
  152.7745  138.1326  157.8066 H   0  0  0  0  0  0  0  0  0  0  0  0
  148.2953  141.7307  154.8935 H   0  0  0  0  0  0  0  0  0  0  0  0
  149.5146  139.4629  153.3121 H   0  0  0  0  0  0  0  0  0  0  0  0
  149.6702  138.1607  154.4622 H   0  0  0  0  0  0  0  0  0  0  0  0
  147.1894  139.5406  154.9894 H   0  0  0  0  0  0  0  0  0  0  0  0
  145.9157  139.1964  152.8956 H   0  0  0  0  0  0  0  0  0  0  0  0
  147.1762  140.3768  152.6900 H   0  0  0  0  0  0  0  0  0  0  0  0
  148.3226  138.9791  151.5133 H   0  0  0  0  0  0  0  0  0  0  0  0
  147.5990  136.7436  153.8546 H   0  0  0  0  0  0  0  0  0  0  0  0
  145.3104  137.9997  155.4067 H   0  0  0  0  0  0  0  0  0  0  0  0
  145.1998  137.1082  153.8838 H   0  0  0  0  0  0  0  0  0  0  0  0
  144.8433  135.7886  156.2285 H   0  0  0  0  0  0  0  0  0  0  0  0
  145.8041  135.0370  154.9518 H   0  0  0  0  0  0  0  0  0  0  0  0
  148.8109  136.6243  155.9188 H   0  0  0  0  0  0  0  0  0  0  0  0
  147.7399  137.7832  156.7063 H   0  0  0  0  0  0  0  0  0  0  0  0
  1  2  1  0  0  0  0
  1 30  1  0  0  0  0
  1 31  1  0  0  0  0
  2  3  2  0  0  0  0
  2  4  1  0  0  0  0
  4 28  1  0  0  0  0
  4  9  1  0  0  0  0
  4  5  1  0  0  0  0
  5  6  1  0  0  0  0
  5 32  1  0  0  0  0
  5 33  1  0  0  0  0
  6 29  1  0  0  0  0
  6  7  1  0  0  0  0
  6  8  1  0  0  0  0
  8  9  1  0  0  0  0
  8 34  1  0  0  0  0
  8 35  1  0  0  0  0
  9 10  1  0  0  0  0
 10 15  1  0  0  0  0
 10 11  2  0  0  0  0
 11 12  1  0  0  0  0
 12 13  2  0  0  0  0
 12 36  1  0  0  0  0
 13 14  1  0  0  0  0
 14 18  1  0  0  0  0
 14 15  2  0  0  0  0
 15 16  1  0  0  0  0
 16 17  2  0  0  0  0
 17 18  1  0  0  0  0
 17 37  1  0  0  0  0
 18 19  1  0  0  0  0
 19 20  1  0  0  0  0
 19 38  1  0  0  0  0
 19 39  1  0  0  0  0
 20 21  1  0  0  0  0
 20 23  1  0  0  0  0
 20 40  1  0  0  0  0
 21 22  1  0  0  0  0
 21 41  1  0  0  0  0
 21 42  1  0  0  0  0
 22 43  1  0  0  0  0
 23 27  1  0  0  0  0
 23 24  1  0  0  0  0
 23 44  1  0  0  0  0
 24 25  1  0  0  0  0
 24 45  1  0  0  0  0
 24 46  1  0  0  0  0
 25 26  1  0  0  0  0
 25 47  1  0  0  0  0
 25 48  1  0  0  0  0
 26 27  1  0  0  0  0
 27 49  1  0  0  0  0
 27 50  1  0  0  0  0
M  END
> <s_m_source_file>
AV-unprocessed.smi

> <i_m_source_file_index>
221

> <i_lp_mmshare_version>
43012

> <i_f3d_flags>
0

> <s_epik_input>
W05IMl1DKD1PKVtDQEBIXTFbQ0gyXVtDQEBIXShGKVtDSDJdTjFjKG5bY0hdbjIpYyhjMjMpbltjSF1uM1tDSDJdW0NASF0oW0NIMl1bT0hdKVtDQEBIXTRbQ0gyXVtDSDJdT1tDSDJdNA==

> <s_epik_cmdline>
J2VwaWtfcHl0aG9uJywgJy1waCcsICc3LjAnLCAnLXRuJywgJzgnLCAnLW1hJywgJzIwMCcsICctbWV0YWxfYmluZGluZycsICctaW1hZScsICc8aW5maWxlLm1hZT4nLCAnLW9tYWUnLCAnPG91dGZpbGUubWFlPic=

> <r_lp_tautomer_probability>
1

> <r_epik_Ionization_Penalty>
0.000818822

> <r_epik_Ionization_Penalty_Charging>
0

> <r_epik_Ionization_Penalty_Neutral>
0.000818822

> <r_epik_State_Penalty>
0.000440551

> <r_epik_Charging_Adjusted_Penalty>
0.000440551

> <i_epik_Tot_Q>
0

> <i_epik_Tot_abs_Q>
0

> <r_epik_Metal_State_Penalty>
-0

> <b_epik_Metal_Only>
0

> <s_lp_Force_Field>
OPLS_2005

> <r_lp_Energy>
51.1408

> <b_lp_Chiralities_Consistent>
1

> <s_lp_Variant>
AV-unprocessed.smi:221-5

> <Gold.Version>
5.8.1

> <Gold.Id.Protein>
6NUR|6NUR_protein|mol2

> <Gold.PLP.Fitness>
41.2423

> <Gold.PLP.PLP>
-40.8931

> <Gold.PLP.part.hbond>
-2.9062

> <Gold.PLP.part.metal>
0.0000

> <Gold.PLP.part.buried>
-7.3171

> <Gold.PLP.part.nonpolar>
-31.6566

> <Gold.PLP.part.repulsive>
0.8730

> <Gold.PLP.ligand.clash>
0.0000

> <Gold.PLP.ligand.torsion>
1.5511

> <Gold.PLP.Chemscore.Hbond>
1.0000

> <Gold.PLP.Chemscore.CHOScore>
0.0000

> <Gold.PLP.Chemscore.Metal>
0.0000

> <Gold.Chemscore.Hbonds>
donor molecule, donor type, donor heavy atom, donor atom, acceptor molecule, acceptor atom, score
      L1  H    22    43       P1  7957  1.00

> <Gold.PLP.Chemscore.Internal.Correction>
0.4514

> <Gold.Rescore>
     Score         DG    S(hbond)    S(metal)    S(lipo)     H(rot)  DE(clash)    DE(int)     intcor
      2.58      -7.42       0.99        0.00      69.79       3.72       0.01       4.84       ----

> <Gold.Chemscore.Fitness>
2.5804

> <Gold.Chemscore.DG>
-7.4223

> <Gold.Chemscore.ZeroCoef>
-5.4800

> <Gold.Chemscore.Hbond>
0.9884

> <Gold.Chemscore.Metal>
0.0000

> <Gold.Chemscore.Lipo>
69.7852

> <Gold.Chemscore.Internal_Hbond>
0.0000

> <Gold.Chemscore.DEClash>
0.0067

> <Gold.Chemscore.DEInternal>
4.8352

> <Gold.Chemscore.Rot>
3.7202

> <Gold.Chemscore.Internal.Correction>
   9.000000E+99

> <Gold.Chemscore.Hbonds>
donor molecule, donor type, donor heavy atom, donor atom, acceptor molecule, acceptor atom, score
      L1  H    22    43       P1  7957  0.70

> <Gold.Chemscore.Hbond.Weighted>
-3.3011

> <Gold.Chemscore.Metal.Weighted>
-0.0000

> <Gold.Chemscore.Lipo.Weighted>
-8.1649

> <Gold.Chemscore.Internal_Hbond.Weighted>
0.0000

> <Gold.Chemscore.DEClash.Weighted>
0.0067

> <Gold.Chemscore.DEInternal.Weighted>
4.8352

> <Gold.Chemscore.Rot.Weighted>
9.5237

> <Gold.Chemscore.Internal.Correction.Weighted>
   9.000000E+99

> <Gold.Protein.RotatedTorsions>
[ 6907 6896 6895 6894 ] final  155.56 input  -60.11 | X-H torsion
[ 7974 7965 7964 7962 ] final    7.69 input  175.53 | X-H torsion
[ 8008 7997 7996 7995 ] final   30.79 input   59.86 | X-H torsion
[ 10167 10162 10161 10158 ] final   23.20 input  -65.29 | X-H torsion
[ 10718 10713 10712 10709 ] final   33.52 input   66.30 | X-H torsion
[ 10763 10752 10751 10750 ] final   37.34 input  -60.55 | X-H torsion
[ 11005 11000 10999 10996 ] final  -51.96 input  -57.11 | X-H torsion

> <Gold.Protein.ActiveResidues>
 VAL166  LYS551  ARG553  GLY616  TRP617  ASP618  TYR619  PRO620  LYS621  CYS622 
 ASP623  PHE694  ASN695  SER759  ASP760  ASP761  ALA762  ILE779  LEU786  VAL792 
 PHE793  MET794  SER795  GLU796  ALA797  LYS798  CYS799  TRP800  GLU811  SER814 

> <Gold.Protein.RotatedAtoms>
  152.0424  133.3983  159.4342 H   0  0  0  0  0  0  0  0  0  0  0  0  # atno 6907 bound_to 6896
  150.6875  134.3400  159.4873 H   0  0  0  0  0  0  0  0  0  0  0  0  # atno 6908 bound_to 6896
  152.1200  134.9212  160.0614 H   0  0  0  0  0  0  0  0  0  0  0  0  # atno 6909 bound_to 6896
  146.2424  140.0045  142.8412 H   0  0  0  0  0  0  0  0  0  0  0  0  # atno 7974 bound_to 7965
  155.0961  140.3225  155.4560 H   0  0  0  0  0  0  0  0  0  0  0  0  # atno 8008 bound_to 7997
  156.2730  140.2069  156.6034 H   0  0  0  0  0  0  0  0  0  0  0  0  # atno 8009 bound_to 7997
  154.6865  140.0521  157.0307 H   0  0  0  0  0  0  0  0  0  0  0  0  # atno 8010 bound_to 7997
  140.5288  143.9877  150.6454 H   0  0  0  0  0  0  0  0  0  0  0  0  # atno 10167 bound_to 10162
  157.2989  130.7340  149.6655 H   0  0  0  0  0  0  0  0  0  0  0  0  # atno 10718 bound_to 10713
  153.0041  135.6280  154.2129 H   0  0  0  0  0  0  0  0  0  0  0  0  # atno 10763 bound_to 10752
  154.1873  135.2810  155.3035 H   0  0  0  0  0  0  0  0  0  0  0  0  # atno 10764 bound_to 10752
  154.5788  135.5654  153.7224 H   0  0  0  0  0  0  0  0  0  0  0  0  # atno 10765 bound_to 10752
  141.0899  133.6635  156.3953 H   0  0  0  0  0  0  0  0  0  0  0  0  # atno 11005 bound_to 11000
  145.1384  140.9557  143.4503 LP  0  0  0  0  0  0  0  0  0  0  0  0  # atno 17320 bound_to 7965
  145.0319  139.3333  143.6020 LP  0  0  0  0  0  0  0  0  0  0  0  0  # atno 17321 bound_to 7965
  140.3246  143.3115  152.0749 LP  0  0  0  0  0  0  0  0  0  0  0  0  # atno 17342 bound_to 10162
  139.4947  144.6550  151.6592 LP  0  0  0  0  0  0  0  0  0  0  0  0  # atno 17343 bound_to 10162
  155.9670  130.4286  150.4795 LP  0  0  0  0  0  0  0  0  0  0  0  0  # atno 17370 bound_to 10713
  157.2772  131.0599  151.2221 LP  0  0  0  0  0  0  0  0  0  0  0  0  # atno 17371 bound_to 10713
  140.5277  134.6243  157.5339 LP  0  0  0  0  0  0  0  0  0  0  0  0  # atno 17394 bound_to 11000
  139.9723  134.7273  156.0018 LP  0  0  0  0  0  0  0  0  0  0  0  0  # atno 17395 bound_to 11000

$$$$
