AV-unprocessed.smi:2801|AV-procd|sdf|10797|dock4
  -GOLD-   2272015233D 1   1.00000     0.00000
 Structure written by MMmdl.
 32 32  0  0  0  0  0  0  0  0  3 V2000
  153.6497  141.6638  160.0646 C   0  0  0  0  0  0  0  0  0  0  0  0
  152.5418  142.6311  160.4867 C   0  0  0  0  0  0  0  0  0  0  0  0
  151.4412  142.4731  159.5996 O   0  0  0  0  0  0  0  0  0  0  0  0
  151.7186  142.7375  158.2262 C   0  0  2  0  0  0  0  0  0  0  0  0
  151.4174  144.2247  157.9609 C   0  0  0  0  0  0  0  0  0  0  0  0
  152.1708  145.1627  158.9121 C   0  0  0  0  0  0  0  0  0  0  0  0
  150.8611  141.8286  157.3303 C   0  0  0  0  0  0  0  0  0  0  0  0
  149.6338  141.8933  157.3975 O   0  0  0  0  0  0  0  0  0  0  0  0
  151.5453  140.9837  156.5374 N   0  0  0  0  0  0  0  0  0  0  0  0
  151.0653  140.0201  155.6055 C   0  0  0  0  0  0  0  0  0  0  0  0
  149.7432  140.0132  155.0906 C   0  0  0  0  0  0  0  0  0  0  0  0
  149.3671  139.0258  154.1580 C   0  0  0  0  0  0  0  0  0  0  0  0
  150.2638  138.1021  153.7540 N   0  3  0  0  0  0  0  0  0  0  0  0
  151.5351  138.0748  154.2045 C   0  0  0  0  0  0  0  0  0  0  0  0
  151.9722  139.0346  155.1398 C   0  0  0  0  0  0  0  0  0  0  0  0
  153.2659  138.9917  155.5796 O   0  5  0  0  0  0  0  0  0  0  0  0
  154.5151  141.7516  160.7214 H   0  0  0  0  0  0  0  0  0  0  0  0
  153.9799  141.8688  159.0459 H   0  0  0  0  0  0  0  0  0  0  0  0
  153.3027  140.6309  160.1034 H   0  0  0  0  0  0  0  0  0  0  0  0
  152.2325  142.4150  161.5103 H   0  0  0  0  0  0  0  0  0  0  0  0
  152.9229  143.6526  160.4655 H   0  0  0  0  0  0  0  0  0  0  0  0
  152.7767  142.5563  158.0251 H   0  0  0  0  0  0  0  0  0  0  0  0
  151.6908  144.4784  156.9356 H   0  0  0  0  0  0  0  0  0  0  0  0
  150.3458  144.4105  158.0470 H   0  0  0  0  0  0  0  0  0  0  0  0
  151.9469  146.2054  158.6867 H   0  0  0  0  0  0  0  0  0  0  0  0
  153.2492  145.0280  158.8253 H   0  0  0  0  0  0  0  0  0  0  0  0
  151.8923  144.9805  159.9504 H   0  0  0  0  0  0  0  0  0  0  0  0
  152.5492  140.9905  156.6513 H   0  0  0  0  0  0  0  0  0  0  0  0
  149.0110  140.7501  155.3792 H   0  0  0  0  0  0  0  0  0  0  0  0
  148.3822  138.9525  153.7210 H   0  0  0  0  0  0  0  0  0  0  0  0
  152.1624  137.2917  153.8037 H   0  0  0  0  0  0  0  0  0  0  0  0
  149.9711  137.3979  153.0769 H   0  0  0  0  0  0  0  0  0  0  0  0
  1  2  1  0  0  0  0
  1 17  1  0  0  0  0
  1 18  1  0  0  0  0
  1 19  1  0  0  0  0
  2  3  1  0  0  0  0
  2 20  1  0  0  0  0
  2 21  1  0  0  0  0
  3  4  1  0  0  0  0
  4  5  1  0  0  0  0
  4  7  1  0  0  0  0
  4 22  1  0  0  0  0
  5  6  1  0  0  0  0
  5 23  1  0  0  0  0
  5 24  1  0  0  0  0
  6 25  1  0  0  0  0
  6 26  1  0  0  0  0
  6 27  1  0  0  0  0
  7  8  2  0  0  0  0
  7  9  1  0  0  0  0
  9 28  1  0  0  0  0
  9 10  1  0  0  0  0
 10 11  2  0  0  0  0
 10 15  1  0  0  0  0
 11 12  1  0  0  0  0
 11 29  1  0  0  0  0
 12 13  2  0  0  0  0
 12 30  1  0  0  0  0
 13 14  1  0  0  0  0
 13 32  1  0  0  0  0
 14 15  2  0  0  0  0
 14 31  1  0  0  0  0
 15 16  1  0  0  0  0
M  CHG  1  13   1
M  CHG  1  16  -1
M  END
> <s_m_source_file>
AV-unprocessed.smi

> <i_m_source_file_index>
2801

> <i_lp_mmshare_version>
43012

> <i_f3d_flags>
0

> <s_epik_input>
W0NIM11bQ0gyXU9bQ0BIXShbQ0gyXVtDSDNdKUMoPU8pW05IXWMxW2NIXVtjSF1uW2NIXWMxW09IXQ==

> <s_epik_cmdline>
J2VwaWtfcHl0aG9uJywgJy1waCcsICc3LjAnLCAnLXRuJywgJzgnLCAnLW1hJywgJzIwMCcsICctbWV0YWxfYmluZGluZycsICctaW1hZScsICc8aW5maWxlLm1hZT4nLCAnLW9tYWUnLCAnPG91dGZpbGUubWFlPic=

> <r_lp_tautomer_probability>
0.56342

> <r_epik_Ionization_Penalty>
0.0170685

> <r_epik_Ionization_Penalty_Charging>
0.0170685

> <r_epik_Ionization_Penalty_Neutral>
1.5328e-09

> <r_epik_State_Penalty>
0.331557

> <r_epik_Charging_Adjusted_Penalty>
0.348625

> <i_epik_Tot_Q>
0

> <i_epik_Tot_abs_Q>
2

> <r_epik_Metal_State_Penalty>
0.590147

> <b_epik_Metal_Only>
0

> <s_lp_Force_Field>
OPLS_2005

> <r_lp_Energy>
9.87866

> <b_lp_Chiralities_Consistent>
1

> <s_lp_Variant>
AV-unprocessed.smi:2801-1

> <Gold.Version>
5.8.1

> <Gold.Id.Protein>
6NUR|6NUR_protein|mol2

> <Gold.PLP.Fitness>
50.2881

> <Gold.PLP.PLP>
-39.1901

> <Gold.PLP.part.hbond>
-2.7771

> <Gold.PLP.part.metal>
0.0000

> <Gold.PLP.part.buried>
-4.2530

> <Gold.PLP.part.nonpolar>
-32.3000

> <Gold.PLP.part.repulsive>
0.3258

> <Gold.PLP.ligand.clash>
0.0000

> <Gold.PLP.ligand.torsion>
0.4894

> <Gold.PLP.Chemscore.Hbond>
4.0000

> <Gold.PLP.Chemscore.CHOScore>
0.0000

> <Gold.PLP.Chemscore.Metal>
0.0000

> <Gold.Chemscore.Hbonds>
donor molecule, donor type, donor heavy atom, donor atom, acceptor molecule, acceptor atom, score
      L1  H    13    32       P1  7948  2.00
      P1  H  7997  8010       L1    16  2.00

> <Gold.PLP.Chemscore.Internal.Correction>
0.0770

> <Gold.Rescore>
     Score         DG    S(hbond)    S(metal)    S(lipo)     H(rot)  DE(clash)    DE(int)     intcor
     17.06     -18.73       1.94        0.00      92.78       1.59       0.01       1.66       ----

> <Gold.Chemscore.Fitness>
17.0612

> <Gold.Chemscore.DG>
-18.7267

> <Gold.Chemscore.ZeroCoef>
-5.4800

> <Gold.Chemscore.Hbond>
1.9371

> <Gold.Chemscore.Metal>
0.0000

> <Gold.Chemscore.Lipo>
92.7818

> <Gold.Chemscore.Internal_Hbond>
0.0000

> <Gold.Chemscore.DEClash>
0.0073

> <Gold.Chemscore.DEInternal>
1.6581

> <Gold.Chemscore.Rot>
1.5933

> <Gold.Chemscore.Internal.Correction>
   9.000000E+99

> <Gold.Chemscore.Hbonds>
donor molecule, donor type, donor heavy atom, donor atom, acceptor molecule, acceptor atom, score
      L1  H    13    32       P1  7948  0.25
      P1  H  7997  8010       L1    16  0.95

> <Gold.Chemscore.Hbond.Weighted>
-6.4701

> <Gold.Chemscore.Metal.Weighted>
-0.0000

> <Gold.Chemscore.Lipo.Weighted>
-10.8555

> <Gold.Chemscore.Internal_Hbond.Weighted>
0.0000

> <Gold.Chemscore.DEClash.Weighted>
0.0073

> <Gold.Chemscore.DEInternal.Weighted>
1.6581

> <Gold.Chemscore.Rot.Weighted>
4.0789

> <Gold.Chemscore.Internal.Correction.Weighted>
   9.000000E+99

> <Gold.Protein.RotatedTorsions>
[ 6907 6896 6895 6894 ] final   71.54 input  -60.11 | X-H torsion
[ 7974 7965 7964 7962 ] final   88.02 input  175.53 | X-H torsion
[ 8008 7997 7996 7995 ] final   79.80 input   59.86 | X-H torsion
[ 10167 10162 10161 10158 ] final  -56.89 input  -65.29 | X-H torsion
[ 10718 10713 10712 10709 ] final   22.48 input   66.30 | X-H torsion
[ 10763 10752 10751 10750 ] final  139.41 input  -60.55 | X-H torsion
[ 11005 11000 10999 10996 ] final   37.59 input  -57.11 | X-H torsion

> <Gold.Protein.ActiveResidues>
 VAL166  LYS551  ARG553  GLY616  TRP617  ASP618  TYR619  PRO620  LYS621  CYS622 
 ASP623  PHE694  ASN695  SER759  ASP760  ASP761  ALA762  ILE779  LEU786  VAL792 
 PHE793  MET794  SER795  GLU796  ALA797  LYS798  CYS799  TRP800  GLU811  SER814 

> <Gold.Protein.RotatedAtoms>
  152.4816  134.4705  159.9633 H   0  0  0  0  0  0  0  0  0  0  0  0  # atno 6907 bound_to 6896
  151.4710  133.3563  159.2831 H   0  0  0  0  0  0  0  0  0  0  0  0  # atno 6908 bound_to 6896
  150.8893  134.8320  159.7342 H   0  0  0  0  0  0  0  0  0  0  0  0  # atno 6909 bound_to 6896
  145.5512  139.2296  143.2511 H   0  0  0  0  0  0  0  0  0  0  0  0  # atno 7974 bound_to 7965
  155.8747  140.3447  155.5846 H   0  0  0  0  0  0  0  0  0  0  0  0  # atno 8008 bound_to 7997
  155.7787  140.0855  157.2089 H   0  0  0  0  0  0  0  0  0  0  0  0  # atno 8009 bound_to 7997
  154.4020  140.1504  156.3014 H   0  0  0  0  0  0  0  0  0  0  0  0  # atno 8010 bound_to 7997
  140.6290  143.2451  151.5289 H   0  0  0  0  0  0  0  0  0  0  0  0  # atno 10167 bound_to 10162
  157.1529  130.6683  149.6018 H   0  0  0  0  0  0  0  0  0  0  0  0  # atno 10718 bound_to 10713
  153.9057  135.3017  155.3448 H   0  0  0  0  0  0  0  0  0  0  0  0  # atno 10763 bound_to 10752
  154.7648  135.4916  153.9537 H   0  0  0  0  0  0  0  0  0  0  0  0  # atno 10764 bound_to 10752
  153.1220  135.6784  153.9420 H   0  0  0  0  0  0  0  0  0  0  0  0  # atno 10765 bound_to 10752
  140.2210  134.3641  155.8005 H   0  0  0  0  0  0  0  0  0  0  0  0  # atno 11005 bound_to 11000
  146.1915  140.6335  142.9143 LP  0  0  0  0  0  0  0  0  0  0  0  0  # atno 17320 bound_to 7965
  144.7528  140.5234  143.6790 LP  0  0  0  0  0  0  0  0  0  0  0  0  # atno 17321 bound_to 7965
  139.5506  144.2404  152.1524 LP  0  0  0  0  0  0  0  0  0  0  0  0  # atno 17342 bound_to 10162
  140.1643  144.4996  150.6615 LP  0  0  0  0  0  0  0  0  0  0  0  0  # atno 17343 bound_to 10162
  155.9767  130.4738  150.6546 LP  0  0  0  0  0  0  0  0  0  0  0  0  # atno 17370 bound_to 10713
  157.4203  131.0836  151.1137 LP  0  0  0  0  0  0  0  0  0  0  0  0  # atno 17371 bound_to 10713
  141.2223  133.7193  156.8576 LP  0  0  0  0  0  0  0  0  0  0  0  0  # atno 17394 bound_to 11000
  140.1850  134.9006  157.2993 LP  0  0  0  0  0  0  0  0  0  0  0  0  # atno 17395 bound_to 11000

$$$$
