AV-unprocessed.smi:338|AV-procd|sdf|2376|dock6
  -GOLD-   2262022293D 1   1.00000     0.00000
 Structure written by MMmdl.
 42 44  0  0  0  0  0  0  0  0  2 V2000
  149.6502  131.7504  154.0507 C   0  0  0  0  0  0  0  0  0  0  0  0
  150.1865  132.8391  154.9792 C   0  0  0  0  0  0  0  0  0  0  0  0
  151.1947  132.6026  155.6442 O   0  0  0  0  0  0  0  0  0  0  0  0
  149.4533  134.1370  155.0274 C   0  0  0  0  0  0  0  0  0  0  0  0
  148.0447  134.1972  154.9140 C   0  0  0  0  0  0  0  0  0  0  0  0
  147.3808  135.4365  154.9619 C   0  0  0  0  0  0  0  0  0  0  0  0
  148.1147  136.6253  155.1225 C   0  0  0  0  0  0  0  0  0  0  0  0
  149.5179  136.5931  155.2392 C   0  0  0  0  0  0  0  0  0  0  0  0
  150.1579  137.8045  155.3922 O   0  0  0  0  0  0  0  0  0  0  0  0
  151.4820  137.9380  154.8920 C   0  0  0  0  0  0  0  0  0  0  0  0
  152.0803  139.2541  155.4106 C   0  0  2  0  0  0  0  0  0  0  0  0
  153.4900  139.1447  155.3886 O   0  0  0  0  0  0  0  0  0  0  0  0
  151.5988  139.5991  156.8341 C   0  0  0  0  0  0  0  0  0  0  0  0
  151.1679  140.9982  156.9669 N   0  0  0  0  0  0  0  0  0  0  0  0
  150.3565  141.7350  156.1605 C   0  0  0  0  0  0  0  0  0  0  0  0
  150.2520  142.9783  156.7060 N   0  3  0  0  0  0  0  0  0  0  0  0
  151.0093  143.0385  157.8777 C   0  0  0  0  0  0  0  0  0  0  0  0
  151.2149  144.0814  158.7759 C   0  0  0  0  0  0  0  0  0  0  0  0
  152.0544  143.8123  159.8767 C   0  0  0  0  0  0  0  0  0  0  0  0
  152.6530  142.5479  160.0518 C   0  0  0  0  0  0  0  0  0  0  0  0
  152.4364  141.4975  159.1356 C   0  0  0  0  0  0  0  0  0  0  0  0
  151.6032  141.7703  158.0507 C   0  0  0  0  0  0  0  0  0  0  0  0
  150.1801  135.3400  155.1912 C   0  0  0  0  0  0  0  0  0  0  0  0
  149.6296  132.1026  153.0192 H   0  0  0  0  0  0  0  0  0  0  0  0
  148.6412  131.4606  154.3447 H   0  0  0  0  0  0  0  0  0  0  0  0
  150.2845  130.8648  154.0952 H   0  0  0  0  0  0  0  0  0  0  0  0
  147.4507  133.3042  154.7897 H   0  0  0  0  0  0  0  0  0  0  0  0
  146.3050  135.4753  154.8753 H   0  0  0  0  0  0  0  0  0  0  0  0
  147.5950  137.5718  155.1570 H   0  0  0  0  0  0  0  0  0  0  0  0
  152.1005  137.0953  155.2062 H   0  0  0  0  0  0  0  0  0  0  0  0
  151.4570  137.9533  153.8009 H   0  0  0  0  0  0  0  0  0  0  0  0
  151.8048  140.0607  154.7299 H   0  0  0  0  0  0  0  0  0  0  0  0
  153.7280  138.4539  154.7892 H   0  0  0  0  0  0  0  0  0  0  0  0
  150.7415  138.9781  157.0969 H   0  0  0  0  0  0  0  0  0  0  0  0
  152.3673  139.3838  157.5766 H   0  0  0  0  0  0  0  0  0  0  0  0
  149.8806  141.3937  155.2525 H   0  0  0  0  0  0  0  0  0  0  0  0
  150.7589  145.0515  158.6429 H   0  0  0  0  0  0  0  0  0  0  0  0
  152.2444  144.5920  160.6001 H   0  0  0  0  0  0  0  0  0  0  0  0
  153.2932  142.3795  160.9056 H   0  0  0  0  0  0  0  0  0  0  0  0
  152.9056  140.5351  159.2772 H   0  0  0  0  0  0  0  0  0  0  0  0
  151.2549  135.2877  155.2774 H   0  0  0  0  0  0  0  0  0  0  0  0
  149.7039  143.7288  156.3055 H   0  0  0  0  0  0  0  0  0  0  0  0
  1  2  1  0  0  0  0
  1 24  1  0  0  0  0
  1 25  1  0  0  0  0
  1 26  1  0  0  0  0
  2  3  2  0  0  0  0
  2  4  1  0  0  0  0
  4 23  1  0  0  0  0
  4  5  2  0  0  0  0
  5  6  1  0  0  0  0
  5 27  1  0  0  0  0
  6  7  2  0  0  0  0
  6 28  1  0  0  0  0
  7  8  1  0  0  0  0
  7 29  1  0  0  0  0
  8  9  1  0  0  0  0
  8 23  2  0  0  0  0
  9 10  1  0  0  0  0
 10 11  1  0  0  0  0
 10 30  1  0  0  0  0
 10 31  1  0  0  0  0
 11 12  1  0  0  0  0
 11 13  1  0  0  0  0
 11 32  1  0  0  0  0
 12 33  1  0  0  0  0
 13 14  1  0  0  0  0
 13 34  1  0  0  0  0
 13 35  1  0  0  0  0
 14 22  1  0  0  0  0
 14 15  1  0  0  0  0
 15 16  2  0  0  0  0
 15 36  1  0  0  0  0
 16 17  1  0  0  0  0
 16 42  1  0  0  0  0
 17 22  2  0  0  0  0
 17 18  1  0  0  0  0
 18 19  2  0  0  0  0
 18 37  1  0  0  0  0
 19 20  1  0  0  0  0
 19 38  1  0  0  0  0
 20 21  2  0  0  0  0
 20 39  1  0  0  0  0
 21 22  1  0  0  0  0
 21 40  1  0  0  0  0
 23 41  1  0  0  0  0
M  CHG  1  16   1
M  END
> <s_m_source_file>
AV-unprocessed.smi

> <i_m_source_file_index>
338

> <i_lp_mmshare_version>
43012

> <i_f3d_flags>
0

> <s_epik_input>
W0NIM11DKD1PKWMxW2NIXVtjSF1bY0hdYyhbY0hdMSlPW0NIMl1bQ0BIXShbT0hdKVtDSDJdbihbY0hdbjIpYyhjMjMpW2NIXVtjSF1bY0hdW2NIXTM=

> <s_epik_cmdline>
J2VwaWtfcHl0aG9uJywgJy1waCcsICc3LjAnLCAnLXRuJywgJzgnLCAnLW1hJywgJzIwMCcsICctbWV0YWxfYmluZGluZycsICctaW1hZScsICc8aW5maWxlLm1hZT4nLCAnLW9tYWUnLCAnPG91dGZpbGUubWFlPic=

> <r_lp_tautomer_probability>
0.99995

> <r_epik_Ionization_Penalty>
1.35015

> <r_epik_Ionization_Penalty_Charging>
1.35015

> <r_epik_Ionization_Penalty_Neutral>
2.3993e-06

> <r_epik_State_Penalty>
1.42814

> <r_epik_Charging_Adjusted_Penalty>
2.77829

> <i_epik_Tot_Q>
1

> <i_epik_Tot_abs_Q>
1

> <r_epik_Metal_State_Penalty>
5.46522

> <b_epik_Metal_Only>
0

> <s_lp_Force_Field>
OPLS_2005

> <r_lp_Energy>
26.3487

> <b_lp_Chiralities_Consistent>
1

> <s_lp_Variant>
AV-unprocessed.smi:338-3

> <Gold.Version>
5.8.1

> <Gold.Id.Protein>
6NUR|6NUR_protein|mol2

> <Gold.PLP.Fitness>
51.0972

> <Gold.PLP.PLP>
-45.9833

> <Gold.PLP.part.hbond>
-1.7926

> <Gold.PLP.part.metal>
0.0000

> <Gold.PLP.part.buried>
-6.5392

> <Gold.PLP.part.nonpolar>
-38.0014

> <Gold.PLP.part.repulsive>
0.1363

> <Gold.PLP.ligand.clash>
0.0000

> <Gold.PLP.ligand.torsion>
1.9881

> <Gold.PLP.Chemscore.Hbond>
3.0000

> <Gold.PLP.Chemscore.CHOScore>
0.0000

> <Gold.PLP.Chemscore.Metal>
0.0000

> <Gold.Chemscore.Hbonds>
donor molecule, donor type, donor heavy atom, donor atom, acceptor molecule, acceptor atom, score
      L1  H    16    42       P1  8028  1.53
      P1  H  7997  8009       L1    12  0.96

> <Gold.PLP.Chemscore.Internal.Correction>
0.0901

> <Gold.Rescore>
     Score         DG    S(hbond)    S(metal)    S(lipo)     H(rot)  DE(clash)    DE(int)     intcor
     16.36     -18.51       1.94        0.00     110.39       2.48       0.04       2.11       ----

> <Gold.Chemscore.Fitness>
16.3586

> <Gold.Chemscore.DG>
-18.5072

> <Gold.Chemscore.ZeroCoef>
-5.4800

> <Gold.Chemscore.Hbond>
1.9375

> <Gold.Chemscore.Metal>
0.0000

> <Gold.Chemscore.Lipo>
110.3888

> <Gold.Chemscore.Internal_Hbond>
0.0000

> <Gold.Chemscore.DEClash>
0.0417

> <Gold.Chemscore.DEInternal>
2.1069

> <Gold.Chemscore.Rot>
2.4842

> <Gold.Chemscore.Internal.Correction>
   9.000000E+99

> <Gold.Chemscore.Hbonds>
donor molecule, donor type, donor heavy atom, donor atom, acceptor molecule, acceptor atom, score
      L1  H    16    42       P1  8028  0.75
      P1  H  7997  8009       L1    12  0.86

> <Gold.Chemscore.Hbond.Weighted>
-6.4712

> <Gold.Chemscore.Metal.Weighted>
-0.0000

> <Gold.Chemscore.Lipo.Weighted>
-12.9155

> <Gold.Chemscore.Internal_Hbond.Weighted>
0.0000

> <Gold.Chemscore.DEClash.Weighted>
0.0417

> <Gold.Chemscore.DEInternal.Weighted>
2.1069

> <Gold.Chemscore.Rot.Weighted>
6.3594

> <Gold.Chemscore.Internal.Correction.Weighted>
   9.000000E+99

> <Gold.Protein.RotatedTorsions>
[ 6907 6896 6895 6894 ] final   50.70 input  -60.11 | X-H torsion
[ 7974 7965 7964 7962 ] final  141.46 input  175.53 | X-H torsion
[ 8008 7997 7996 7995 ] final -130.87 input   59.86 | X-H torsion
[ 10167 10162 10161 10158 ] final   63.90 input  -65.29 | X-H torsion
[ 10718 10713 10712 10709 ] final  169.72 input   66.30 | X-H torsion
[ 10763 10752 10751 10750 ] final  -74.67 input  -60.55 | X-H torsion
[ 11005 11000 10999 10996 ] final   70.53 input  -57.11 | X-H torsion

> <Gold.Protein.ActiveResidues>
 VAL166  LYS551  ARG553  GLY616  TRP617  ASP618  TYR619  PRO620  LYS621  CYS622 
 ASP623  PHE694  ASN695  SER759  ASP760  ASP761  ALA762  ILE779  LEU786  VAL792 
 PHE793  MET794  SER795  GLU796  ALA797  LYS798  CYS799  TRP800  GLU811  SER814 

> <Gold.Protein.RotatedAtoms>
  152.3047  134.7570  160.0349 H   0  0  0  0  0  0  0  0  0  0  0  0  # atno 6907 bound_to 6896
  151.8071  133.3372  159.3552 H   0  0  0  0  0  0  0  0  0  0  0  0  # atno 6908 bound_to 6896
  150.7290  134.5629  159.5895 H   0  0  0  0  0  0  0  0  0  0  0  0  # atno 6909 bound_to 6896
  144.9095  139.5313  143.5715 H   0  0  0  0  0  0  0  0  0  0  0  0  # atno 7974 bound_to 7965
  155.3029  140.0453  157.3030 H   0  0  0  0  0  0  0  0  0  0  0  0  # atno 8008 bound_to 7997
  154.5476  140.2307  155.8504 H   0  0  0  0  0  0  0  0  0  0  0  0  # atno 8009 bound_to 7997
  156.1938  140.3043  155.9393 H   0  0  0  0  0  0  0  0  0  0  0  0  # atno 8010 bound_to 7997
  140.1280  144.4669  150.6881 H   0  0  0  0  0  0  0  0  0  0  0  0  # atno 10167 bound_to 10162
  157.0185  131.0225  151.2782 H   0  0  0  0  0  0  0  0  0  0  0  0  # atno 10718 bound_to 10713
  154.4762  135.5857  153.6357 H   0  0  0  0  0  0  0  0  0  0  0  0  # atno 10763 bound_to 10752
  152.9841  135.6079  154.3304 H   0  0  0  0  0  0  0  0  0  0  0  0  # atno 10764 bound_to 10752
  154.3191  135.2844  155.2508 H   0  0  0  0  0  0  0  0  0  0  0  0  # atno 10765 bound_to 10752
  139.9592  134.7090  156.0683 H   0  0  0  0  0  0  0  0  0  0  0  0  # atno 11005 bound_to 11000
  146.3151  139.7889  142.8990 LP  0  0  0  0  0  0  0  0  0  0  0  0  # atno 17320 bound_to 7965
  145.3479  141.0301  143.3355 LP  0  0  0  0  0  0  0  0  0  0  0  0  # atno 17321 bound_to 7965
  140.6833  143.2337  151.5326 LP  0  0  0  0  0  0  0  0  0  0  0  0  # atno 17342 bound_to 10162
  139.5534  144.2337  152.1570 LP  0  0  0  0  0  0  0  0  0  0  0  0  # atno 17343 bound_to 10162
  157.5267  130.8032  149.7870 LP  0  0  0  0  0  0  0  0  0  0  0  0  # atno 17370 bound_to 10713
  156.0110  130.3833  150.2263 LP  0  0  0  0  0  0  0  0  0  0  0  0  # atno 17371 bound_to 10713
  141.1268  133.6597  156.3357 LP  0  0  0  0  0  0  0  0  0  0  0  0  # atno 17394 bound_to 11000
  140.5538  134.6001  157.5415 LP  0  0  0  0  0  0  0  0  0  0  0  0  # atno 17395 bound_to 11000

$$$$
