AV-unprocessed.smi:1921|AV-procd|sdf|7785|dock5
  -GOLD-   22720 9533D 1   1.00000     0.00000
 Structure written by MMmdl.
 27 28  0  0  0  0  0  0  0  0  1 V2000
  151.8243  145.0668  158.5759 C   0  0  0  0  0  0  0  0  0  0  0  0
  152.0384  143.6115  158.1381 C   0  0  2  0  0  0  0  0  0  0  0  0
  151.0430  143.2777  157.1242 N   0  0  0  0  0  0  0  0  0  0  0  0
  150.8443  142.0586  156.6018 C   0  0  0  0  0  0  0  0  0  0  0  0
  151.4978  141.0655  156.9227 O   0  0  0  0  0  0  0  0  0  0  0  0
  149.8508  142.0748  155.6959 N   0  0  0  0  0  0  0  0  0  0  0  0
  149.3413  140.9921  154.9319 C   0  0  0  0  0  0  0  0  0  0  0  0
  150.0821  139.9757  154.4749 N   0  0  0  0  0  0  0  0  0  0  0  0
  149.3194  139.0535  153.7538 C   0  0  0  0  0  0  0  0  0  0  0  0
  147.9900  139.3855  153.6716 C   0  0  0  0  0  0  0  0  0  0  0  0
  147.6407  140.8780  154.5024 S   0  0  0  0  0  0  0  0  0  0  0  0
  152.0174  142.6771  159.3365 C   0  0  0  0  0  0  0  0  0  0  0  0
  152.7765  143.0153  160.5980 C   0  0  0  0  0  0  0  0  0  0  0  0
  153.2320  141.8677  159.7264 C   0  0  0  0  0  0  0  0  0  0  0  0
  152.5835  145.3760  159.2949 H   0  0  0  0  0  0  0  0  0  0  0  0
  150.8490  145.2016  159.0450 H   0  0  0  0  0  0  0  0  0  0  0  0
  151.8833  145.7471  157.7256 H   0  0  0  0  0  0  0  0  0  0  0  0
  153.0292  143.5541  157.6826 H   0  0  0  0  0  0  0  0  0  0  0  0
  150.4584  144.0337  156.7989 H   0  0  0  0  0  0  0  0  0  0  0  0
  149.4068  142.9664  155.5329 H   0  0  0  0  0  0  0  0  0  0  0  0
  149.8053  138.1863  153.3318 H   0  0  0  0  0  0  0  0  0  0  0  0
  147.1985  138.8445  153.1751 H   0  0  0  0  0  0  0  0  0  0  0  0
  151.0555  142.1907  159.4891 H   0  0  0  0  0  0  0  0  0  0  0  0
  153.3870  143.9163  160.5981 H   0  0  0  0  0  0  0  0  0  0  0  0
  152.3058  142.7705  161.5480 H   0  0  0  0  0  0  0  0  0  0  0  0
  153.0639  140.8573  160.0930 H   0  0  0  0  0  0  0  0  0  0  0  0
  154.1447  142.0085  159.1508 H   0  0  0  0  0  0  0  0  0  0  0  0
  1  2  1  0  0  0  0
  1 15  1  0  0  0  0
  1 16  1  0  0  0  0
  1 17  1  0  0  0  0
  2  3  1  0  0  0  0
  2 12  1  0  0  0  0
  2 18  1  0  0  0  0
  3  4  1  0  0  0  0
  3 19  1  0  0  0  0
  4  5  2  0  0  0  0
  4  6  1  0  0  0  0
  6  7  1  0  0  0  0
  6 20  1  0  0  0  0
  7 11  1  0  0  0  0
  7  8  2  0  0  0  0
  8  9  1  0  0  0  0
  9 10  2  0  0  0  0
  9 21  1  0  0  0  0
 10 11  1  0  0  0  0
 10 22  1  0  0  0  0
 12 14  1  0  0  0  0
 12 13  1  0  0  0  0
 12 23  1  0  0  0  0
 13 14  1  0  0  0  0
 13 24  1  0  0  0  0
 13 25  1  0  0  0  0
 14 26  1  0  0  0  0
 14 27  1  0  0  0  0
M  END
> <s_m_source_file>
AV-unprocessed.smi

> <i_m_source_file_index>
1921

> <i_lp_mmshare_version>
43012

> <i_f3d_flags>
0

> <s_epik_input>
W0NIMl0xW0NIMl1bQ0hdMVtDQEhdKFtDSDNdKVtOSF1DKD1PKVtOSF1jMm5bY0hdW2NIXXMy

> <s_epik_cmdline>
J2VwaWtfcHl0aG9uJywgJy1waCcsICc3LjAnLCAnLXRuJywgJzgnLCAnLW1hJywgJzIwMCcsICctbWV0YWxfYmluZGluZycsICctaW1hZScsICc8aW5maWxlLm1hZT4nLCAnLW9tYWUnLCAnPG91dGZpbGUubWFlPic=

> <r_lp_tautomer_probability>
0.999

> <r_epik_Ionization_Penalty>
0.000426276

> <r_epik_Ionization_Penalty_Charging>
0

> <r_epik_Ionization_Penalty_Neutral>
0.000426276

> <r_epik_State_Penalty>
0.000177984

> <r_epik_Charging_Adjusted_Penalty>
0.000177984

> <i_epik_Tot_Q>
0

> <i_epik_Tot_abs_Q>
0

> <r_epik_Metal_State_Penalty>
-0

> <b_epik_Metal_Only>
0

> <s_lp_Force_Field>
OPLS_2005

> <r_lp_Energy>
11.4039

> <b_lp_Chiralities_Consistent>
1

> <s_lp_Variant>
AV-unprocessed.smi:1921-1

> <Gold.Version>
5.8.1

> <Gold.Id.Protein>
6NUR|6NUR_protein|mol2

> <Gold.PLP.Fitness>
42.3793

> <Gold.PLP.PLP>
-31.9865

> <Gold.PLP.part.hbond>
-3.0000

> <Gold.PLP.part.metal>
0.0000

> <Gold.PLP.part.buried>
-1.3991

> <Gold.PLP.part.nonpolar>
-27.9787

> <Gold.PLP.part.repulsive>
0.2775

> <Gold.PLP.ligand.clash>
0.0000

> <Gold.PLP.ligand.torsion>
1.1452

> <Gold.PLP.Chemscore.Hbond>
3.0000

> <Gold.PLP.Chemscore.CHOScore>
0.8739

> <Gold.PLP.Chemscore.Metal>
0.0000

> <Gold.Chemscore.Hbonds>
donor molecule, donor type, donor heavy atom, donor atom, acceptor molecule, acceptor atom, score
      L1  H     3    19       P1  8028  0.98
      L1  H     6    20       P1  8028  1.00
      P1  H  7989  7998       L1     8  0.99
      L1  C     9    21       P1  7948  0.95

> <Gold.PLP.Chemscore.Internal.Correction>
1.0616

> <Gold.Rescore>
     Score         DG    S(hbond)    S(metal)    S(lipo)     H(rot)  DE(clash)    DE(int)     intcor
     17.58     -20.28       2.74        0.00      75.77       1.26       0.59       2.11       ----

> <Gold.Chemscore.Fitness>
17.5806

> <Gold.Chemscore.DG>
-20.2824

> <Gold.Chemscore.ZeroCoef>
-5.4800

> <Gold.Chemscore.Hbond>
2.7429

> <Gold.Chemscore.Metal>
0.0000

> <Gold.Chemscore.Lipo>
75.7654

> <Gold.Chemscore.Internal_Hbond>
0.0000

> <Gold.Chemscore.DEClash>
0.5867

> <Gold.Chemscore.DEInternal>
2.1150

> <Gold.Chemscore.Rot>
1.2591

> <Gold.Chemscore.Internal.Correction>
   9.000000E+99

> <Gold.Chemscore.Hbonds>
donor molecule, donor type, donor heavy atom, donor atom, acceptor molecule, acceptor atom, score
      L1  H     3    19       P1  8028  0.88
      L1  H     6    20       P1  8028  1.00
      P1  H  7989  7998       L1     8  0.38

> <Gold.Chemscore.Hbond.Weighted>
-9.1611

> <Gold.Chemscore.Metal.Weighted>
-0.0000

> <Gold.Chemscore.Lipo.Weighted>
-8.8645

> <Gold.Chemscore.Internal_Hbond.Weighted>
0.0000

> <Gold.Chemscore.DEClash.Weighted>
0.5867

> <Gold.Chemscore.DEInternal.Weighted>
2.1150

> <Gold.Chemscore.Rot.Weighted>
3.2233

> <Gold.Chemscore.Internal.Correction.Weighted>
   9.000000E+99

> <Gold.Protein.RotatedTorsions>
[ 6907 6896 6895 6894 ] final   81.26 input  -60.11 | X-H torsion
[ 7974 7965 7964 7962 ] final  109.92 input  175.53 | X-H torsion
[ 8008 7997 7996 7995 ] final  -70.23 input   59.86 | X-H torsion
[ 10167 10162 10161 10158 ] final   41.42 input  -65.29 | X-H torsion
[ 10718 10713 10712 10709 ] final   21.45 input   66.30 | X-H torsion
[ 10763 10752 10751 10750 ] final   -3.58 input  -60.55 | X-H torsion
[ 11005 11000 10999 10996 ] final   69.03 input  -57.11 | X-H torsion

> <Gold.Protein.ActiveResidues>
 VAL166  LYS551  ARG553  GLY616  TRP617  ASP618  TYR619  PRO620  LYS621  CYS622 
 ASP623  PHE694  ASN695  SER759  ASP760  ASP761  ALA762  ILE779  LEU786  VAL792 
 PHE793  MET794  SER795  GLU796  ALA797  LYS798  CYS799  TRP800  GLU811  SER814 

> <Gold.Protein.RotatedAtoms>
  152.5262  134.3231  159.9155 H   0  0  0  0  0  0  0  0  0  0  0  0  # atno 6907 bound_to 6896
  151.3180  133.4046  159.2660 H   0  0  0  0  0  0  0  0  0  0  0  0  # atno 6908 bound_to 6896
  150.9983  134.9318  159.7996 H   0  0  0  0  0  0  0  0  0  0  0  0  # atno 6909 bound_to 6896
  145.2616  139.2700  143.4014 H   0  0  0  0  0  0  0  0  0  0  0  0  # atno 7974 bound_to 7965
  154.4997  140.0838  156.7771 H   0  0  0  0  0  0  0  0  0  0  0  0  # atno 8008 bound_to 7997
  155.4032  140.3438  155.4240 H   0  0  0  0  0  0  0  0  0  0  0  0  # atno 8009 bound_to 7997
  156.1440  140.1538  156.8863 H   0  0  0  0  0  0  0  0  0  0  0  0  # atno 8010 bound_to 7997
  140.3645  144.2185  150.6136 H   0  0  0  0  0  0  0  0  0  0  0  0  # atno 10167 bound_to 10162
  157.1386  130.6622  149.5974 H   0  0  0  0  0  0  0  0  0  0  0  0  # atno 10718 bound_to 10713
  153.3733  135.6995  153.6621 H   0  0  0  0  0  0  0  0  0  0  0  0  # atno 10763 bound_to 10752
  153.5262  135.3601  155.2655 H   0  0  0  0  0  0  0  0  0  0  0  0  # atno 10764 bound_to 10752
  154.8684  135.4170  154.3015 H   0  0  0  0  0  0  0  0  0  0  0  0  # atno 10765 bound_to 10752
  139.9677  134.6953  156.0511 H   0  0  0  0  0  0  0  0  0  0  0  0  # atno 11005 bound_to 11000
  146.3273  140.3035  142.8622 LP  0  0  0  0  0  0  0  0  0  0  0  0  # atno 17320 bound_to 7965
  144.9413  140.8081  143.5629 LP  0  0  0  0  0  0  0  0  0  0  0  0  # atno 17321 bound_to 7965
  140.5094  143.2295  151.8558 LP  0  0  0  0  0  0  0  0  0  0  0  0  # atno 17342 bound_to 10162
  139.4810  144.4967  151.9114 LP  0  0  0  0  0  0  0  0  0  0  0  0  # atno 17343 bound_to 10162
  155.9793  130.4786  150.6707 LP  0  0  0  0  0  0  0  0  0  0  0  0  # atno 17370 bound_to 10713
  157.4328  131.0851  151.1022 LP  0  0  0  0  0  0  0  0  0  0  0  0  # atno 17371 bound_to 10713
  141.1357  133.6576  156.3586 LP  0  0  0  0  0  0  0  0  0  0  0  0  # atno 17394 bound_to 11000
  140.5361  134.6166  157.5365 LP  0  0  0  0  0  0  0  0  0  0  0  0  # atno 17395 bound_to 11000

$$$$
