AV-unprocessed.smi:2310|AV-procd|sdf|9260|dock3
  -GOLD-   2272012483D 1   1.00000     0.00000
 Structure written by MMmdl.
 45 46  0  0  0  0  0  0  0  0  3 V2000
  146.2649  136.7884  162.4183 C   0  0  0  0  0  0  0  0  0  0  0  0
  147.2731  135.6789  162.7753 C   0  0  0  0  0  0  0  0  0  0  0  0
  147.3159  134.4941  161.7839 C   0  0  1  0  0  0  0  0  0  0  0  0
  146.2440  133.4327  162.1036 C   0  0  0  0  0  0  0  0  0  0  0  0
  144.9236  133.9705  162.4793 C   0  0  0  0  0  0  0  0  0  0  0  0
  143.8873  134.3974  162.7726 N   0  0  0  0  0  0  0  0  0  0  0  0
  147.1223  134.9885  160.4158 N   0  5  0  0  0  0  0  0  0  0  0  0
  147.4611  134.3106  159.2869 C   0  0  0  0  0  0  0  0  0  0  0  0
  148.5243  133.7266  159.0466 O   0  0  0  0  0  0  0  0  0  0  0  0
  146.4622  134.2958  158.3875 N   0  0  0  0  0  0  0  0  0  0  0  0
  146.4414  133.7064  157.0942 C   0  0  0  0  0  0  0  0  0  0  0  0
  147.6218  133.4012  156.3746 C   0  0  0  0  0  0  0  0  0  0  0  0
  147.5280  132.8432  155.0841 C   0  0  0  0  0  0  0  0  0  0  0  0
  146.2556  132.6065  154.5139 C   0  0  0  0  0  0  0  0  0  0  0  0
  146.0830  132.0473  153.2337 N   0  0  0  0  0  0  0  0  0  0  0  0
  146.2916  130.6270  152.9826 C   0  0  0  0  0  0  0  0  0  0  0  0
  145.3879  130.2828  151.7933 C   0  0  0  0  0  0  0  0  0  0  0  0
  145.1440  131.6279  151.1089 C   0  0  0  0  0  0  0  0  0  0  0  0
  145.1531  132.6174  152.2732 C   0  0  0  0  0  0  0  0  0  0  0  0
  145.1548  132.9271  155.2342 N   0  3  0  0  0  0  0  0  0  0  0  0
  145.1937  133.4635  156.4744 C   0  0  0  0  0  0  0  0  0  0  0  0
  143.8687  133.7703  157.1477 C   0  0  0  0  0  0  0  0  0  0  0  0
  146.3199  137.5960  163.1484 H   0  0  0  0  0  0  0  0  0  0  0  0
  145.2354  136.4258  162.4203 H   0  0  0  0  0  0  0  0  0  0  0  0
  146.4657  137.2268  161.4391 H   0  0  0  0  0  0  0  0  0  0  0  0
  148.2653  136.1290  162.8208 H   0  0  0  0  0  0  0  0  0  0  0  0
  147.0656  135.3170  163.7833 H   0  0  0  0  0  0  0  0  0  0  0  0
  148.2875  134.0103  161.8963 H   0  0  0  0  0  0  0  0  0  0  0  0
  146.1040  132.7603  161.2566 H   0  0  0  0  0  0  0  0  0  0  0  0
  146.5804  132.8149  162.9362 H   0  0  0  0  0  0  0  0  0  0  0  0
  145.5882  134.6889  158.7049 H   0  0  0  0  0  0  0  0  0  0  0  0
  148.5989  133.5999  156.7887 H   0  0  0  0  0  0  0  0  0  0  0  0
  148.4359  132.6092  154.5488 H   0  0  0  0  0  0  0  0  0  0  0  0
  147.3402  130.4652  152.7311 H   0  0  0  0  0  0  0  0  0  0  0  0
  146.0482  130.0102  153.8485 H   0  0  0  0  0  0  0  0  0  0  0  0
  145.8280  129.5398  151.1276 H   0  0  0  0  0  0  0  0  0  0  0  0
  144.4405  129.8843  152.1581 H   0  0  0  0  0  0  0  0  0  0  0  0
  145.9677  131.8496  150.4287 H   0  0  0  0  0  0  0  0  0  0  0  0
  144.2164  131.6548  150.5367 H   0  0  0  0  0  0  0  0  0  0  0  0
  144.1627  132.6907  152.7245 H   0  0  0  0  0  0  0  0  0  0  0  0
  145.4640  133.6117  151.9514 H   0  0  0  0  0  0  0  0  0  0  0  0
  143.7898  134.8365  157.3608 H   0  0  0  0  0  0  0  0  0  0  0  0
  143.7869  133.2252  158.0884 H   0  0  0  0  0  0  0  0  0  0  0  0
  143.0253  133.4857  156.5177 H   0  0  0  0  0  0  0  0  0  0  0  0
  144.2403  132.7545  154.8173 H   0  0  0  0  0  0  0  0  0  0  0  0
  1  2  1  0  0  0  0
  1 23  1  0  0  0  0
  1 24  1  0  0  0  0
  1 25  1  0  0  0  0
  2  3  1  0  0  0  0
  2 26  1  0  0  0  0
  2 27  1  0  0  0  0
  3  4  1  0  0  0  0
  3  7  1  0  0  0  0
  3 28  1  0  0  0  0
  4  5  1  0  0  0  0
  4 29  1  0  0  0  0
  4 30  1  0  0  0  0
  5  6  3  0  0  0  0
  7  8  1  0  0  0  0
  8  9  2  0  0  0  0
  8 10  1  0  0  0  0
 10 11  1  0  0  0  0
 10 31  1  0  0  0  0
 11 21  1  0  0  0  0
 11 12  2  0  0  0  0
 12 13  1  0  0  0  0
 12 32  1  0  0  0  0
 13 14  2  0  0  0  0
 13 33  1  0  0  0  0
 14 15  1  0  0  0  0
 14 20  1  0  0  0  0
 15 19  1  0  0  0  0
 15 16  1  0  0  0  0
 16 17  1  0  0  0  0
 16 34  1  0  0  0  0
 16 35  1  0  0  0  0
 17 18  1  0  0  0  0
 17 36  1  0  0  0  0
 17 37  1  0  0  0  0
 18 19  1  0  0  0  0
 18 38  1  0  0  0  0
 18 39  1  0  0  0  0
 19 40  1  0  0  0  0
 19 41  1  0  0  0  0
 20 21  2  0  0  0  0
 20 45  1  0  0  0  0
 21 22  1  0  0  0  0
 22 42  1  0  0  0  0
 22 43  1  0  0  0  0
 22 44  1  0  0  0  0
M  CHG  1   7  -1
M  CHG  1  20   1
M  END
> <s_m_source_file>
AV-unprocessed.smi

> <i_m_source_file_index>
2310

> <i_lp_mmshare_version>
43012

> <i_f3d_flags>
0

> <s_epik_input>
TiNDW0NIMl1bQ0BASF0oW0NIMl1bQ0gzXSlbTkhdQyg9TylbTkhdYzFbY0hdW2NIXWMobmMxW0NIM10pTjJbQ0gyXVtDSDJdW0NIMl1bQ0gyXTI=

> <s_epik_cmdline>
J2VwaWtfcHl0aG9uJywgJy1waCcsICc3LjAnLCAnLXRuJywgJzgnLCAnLW1hJywgJzIwMCcsICctbWV0YWxfYmluZGluZycsICctaW1hZScsICc8aW5maWxlLm1hZT4nLCAnLW9tYWUnLCAnPG91dGZpbGUubWFlPic=

> <r_lp_tautomer_probability>
0.999994

> <r_epik_Ionization_Penalty>
7.34515

> <r_epik_Ionization_Penalty_Charging>
7.34514

> <r_epik_Ionization_Penalty_Neutral>
2.56118e-06

> <r_epik_State_Penalty>
6.99243

> <r_epik_Charging_Adjusted_Penalty>
14.3376

> <i_epik_Tot_Q>
0

> <i_epik_Tot_abs_Q>
2

> <r_epik_Metal_State_Penalty>
3.10684

> <b_epik_Metal_Only>
1

> <s_lp_Force_Field>
OPLS_2005

> <r_lp_Energy>
34.805

> <b_lp_Chiralities_Consistent>
1

> <s_lp_Variant>
AV-unprocessed.smi:2310-6

> <Gold.Version>
5.8.1

> <Gold.Id.Protein>
6NUR|6NUR_protein|mol2

> <Gold.PLP.Fitness>
37.5525

> <Gold.PLP.PLP>
-32.7858

> <Gold.PLP.part.hbond>
-2.0000

> <Gold.PLP.part.metal>
0.0000

> <Gold.PLP.part.buried>
-5.9875

> <Gold.PLP.part.nonpolar>
-24.6545

> <Gold.PLP.part.repulsive>
0.0735

> <Gold.PLP.ligand.clash>
0.0000

> <Gold.PLP.ligand.torsion>
2.2693

> <Gold.PLP.Chemscore.Hbond>
3.0000

> <Gold.PLP.Chemscore.CHOScore>
0.0000

> <Gold.PLP.Chemscore.Metal>
0.0000

> <Gold.Chemscore.Hbonds>
donor molecule, donor type, donor heavy atom, donor atom, acceptor molecule, acceptor atom, score
      L1  H    20    45       P1 10957  1.92
      P1  H  6896  6907       L1     9  0.55

> <Gold.PLP.Chemscore.Internal.Correction>
0.3053

> <Gold.Rescore>
     Score         DG    S(hbond)    S(metal)    S(lipo)     H(rot)  DE(clash)    DE(int)     intcor
     13.60     -16.85       1.97        0.00      72.67       1.45       0.00       3.25       ----

> <Gold.Chemscore.Fitness>
13.5980

> <Gold.Chemscore.DG>
-16.8485

> <Gold.Chemscore.ZeroCoef>
-5.4800

> <Gold.Chemscore.Hbond>
1.9689

> <Gold.Chemscore.Metal>
0.0000

> <Gold.Chemscore.Lipo>
72.6697

> <Gold.Chemscore.Internal_Hbond>
0.0000

> <Gold.Chemscore.DEClash>
0.0009

> <Gold.Chemscore.DEInternal>
3.2497

> <Gold.Chemscore.Rot>
1.4492

> <Gold.Chemscore.Internal.Correction>
   9.000000E+99

> <Gold.Chemscore.Hbonds>
donor molecule, donor type, donor heavy atom, donor atom, acceptor molecule, acceptor atom, score
      L1  H    20    45       P1 10957  0.92
      P1  H  6896  6907       L1     9  0.52

> <Gold.Chemscore.Hbond.Weighted>
-6.5762

> <Gold.Chemscore.Metal.Weighted>
-0.0000

> <Gold.Chemscore.Lipo.Weighted>
-8.5023

> <Gold.Chemscore.Internal_Hbond.Weighted>
0.0000

> <Gold.Chemscore.DEClash.Weighted>
0.0009

> <Gold.Chemscore.DEInternal.Weighted>
3.2497

> <Gold.Chemscore.Rot.Weighted>
3.7100

> <Gold.Chemscore.Internal.Correction.Weighted>
   9.000000E+99

> <Gold.Protein.RotatedTorsions>
[ 6907 6896 6895 6894 ] final -111.99 input  -60.11 | X-H torsion
[ 7974 7965 7964 7962 ] final   16.78 input  175.53 | X-H torsion
[ 8008 7997 7996 7995 ] final  -19.09 input   59.86 | X-H torsion
[ 10167 10162 10161 10158 ] final   37.49 input  -65.29 | X-H torsion
[ 10718 10713 10712 10709 ] final   77.98 input   66.30 | X-H torsion
[ 10763 10752 10751 10750 ] final  -45.59 input  -60.55 | X-H torsion
[ 11005 11000 10999 10996 ] final   81.72 input  -57.11 | X-H torsion

> <Gold.Protein.ActiveResidues>
 VAL166  LYS551  ARG553  GLY616  TRP617  ASP618  TYR619  PRO620  LYS621  CYS622 
 ASP623  PHE694  ASN695  SER759  ASP760  ASP761  ALA762  ILE779  LEU786  VAL792 
 PHE793  MET794  SER795  GLU796  ALA797  LYS798  CYS799  TRP800  GLU811  SER814 

> <Gold.Protein.RotatedAtoms>
  150.7727  133.9155  159.3382 H   0  0  0  0  0  0  0  0  0  0  0  0  # atno 6907 bound_to 6896
  151.7037  135.0923  160.0265 H   0  0  0  0  0  0  0  0  0  0  0  0  # atno 6908 bound_to 6896
  152.3752  133.6433  159.6153 H   0  0  0  0  0  0  0  0  0  0  0  0  # atno 6909 bound_to 6896
  146.2239  139.8697  142.8589 H   0  0  0  0  0  0  0  0  0  0  0  0  # atno 7974 bound_to 7965
  154.4860  140.2098  155.9654 H   0  0  0  0  0  0  0  0  0  0  0  0  # atno 8008 bound_to 7997
  156.1237  140.3209  155.8214 H   0  0  0  0  0  0  0  0  0  0  0  0  # atno 8009 bound_to 7997
  155.4422  140.0511  157.3000 H   0  0  0  0  0  0  0  0  0  0  0  0  # atno 8010 bound_to 7997
  140.4028  144.1700  150.6134 H   0  0  0  0  0  0  0  0  0  0  0  0  # atno 10167 bound_to 10162
  157.6729  130.9847  150.1720 H   0  0  0  0  0  0  0  0  0  0  0  0  # atno 10718 bound_to 10713
  154.0311  135.6656  153.4781 H   0  0  0  0  0  0  0  0  0  0  0  0  # atno 10763 bound_to 10752
  153.0540  135.5067  154.7932 H   0  0  0  0  0  0  0  0  0  0  0  0  # atno 10764 bound_to 10752
  154.6877  135.3056  154.9489 H   0  0  0  0  0  0  0  0  0  0  0  0  # atno 10765 bound_to 10752
  139.9088  134.8017  156.2078 H   0  0  0  0  0  0  0  0  0  0  0  0  # atno 11005 bound_to 11000
  145.2620  141.0080  143.3821 LP  0  0  0  0  0  0  0  0  0  0  0  0  # atno 17320 bound_to 7965
  144.9291  139.4320  143.6504 LP  0  0  0  0  0  0  0  0  0  0  0  0  # atno 17321 bound_to 7965
  140.4722  143.2409  151.9073 LP  0  0  0  0  0  0  0  0  0  0  0  0  # atno 17342 bound_to 10162
  139.4784  144.5358  151.8601 LP  0  0  0  0  0  0  0  0  0  0  0  0  # atno 17343 bound_to 10162
  156.2472  130.3697  149.8272 LP  0  0  0  0  0  0  0  0  0  0  0  0  # atno 17370 bound_to 10713
  156.6055  130.8564  151.3442 LP  0  0  0  0  0  0  0  0  0  0  0  0  # atno 17371 bound_to 10713
  141.0484  133.6901  156.1726 LP  0  0  0  0  0  0  0  0  0  0  0  0  # atno 17394 bound_to 11000
  140.6848  134.4729  157.5589 LP  0  0  0  0  0  0  0  0  0  0  0  0  # atno 17395 bound_to 11000

$$$$
