AV-unprocessed.smi:1833|AV-procd|sdf|7466|dock2
  -GOLD-   22720 9163D 1   1.00000     0.00000
 Structure written by MMmdl.
 42 43  0  0  0  0  0  0  0  0  2 V2000
  145.0487  135.2154  150.8084 C   0  0  0  0  0  0  0  0  0  0  0  0
  145.5345  136.6679  150.7145 C   0  0  0  0  0  0  0  0  0  0  0  0
  146.1682  137.1396  151.9712 N   0  3  2  0  0  0  0  0  0  0  0  0
  145.3412  136.8201  153.1646 C   0  0  0  0  0  0  0  0  0  0  0  0
  146.0683  137.1907  154.4682 C   0  0  0  0  0  0  0  0  0  0  0  0
  146.5001  138.6657  154.4646 C   0  0  0  0  0  0  0  0  0  0  0  0
  147.3205  138.9930  153.2052 C   0  0  1  0  0  0  0  0  0  0  0  0
  148.6217  138.3287  153.2726 N   0  0  0  0  0  0  0  0  0  0  0  0
  149.5068  138.4596  154.2701 C   0  0  0  0  0  0  0  0  0  0  0  0
  149.3398  139.1889  155.2473 O   0  0  0  0  0  0  0  0  0  0  0  0
  150.5907  137.6966  154.0721 N   0  0  0  0  0  0  0  0  0  0  0  0
  151.7126  137.5609  154.9966 C   0  0  0  0  0  0  0  0  0  0  0  0
  152.4890  138.8757  155.1912 C   0  0  0  0  0  0  0  0  0  0  0  0
  151.8775  139.8057  156.1886 C   0  0  0  0  0  0  0  0  0  0  0  0
  151.1779  140.8961  155.8593 N   0  0  0  0  0  0  0  0  0  0  0  0
  150.7124  141.5876  156.9807 C   0  0  0  0  0  0  0  0  0  0  0  0
  151.0408  140.9894  158.1700 C   0  0  0  0  0  0  0  0  0  0  0  0
  151.9660  139.5345  157.9257 S   0  0  0  0  0  0  0  0  0  0  0  0
  146.5375  138.5810  151.9397 C   0  0  0  0  0  0  0  0  0  0  0  0
  144.4964  134.9372  149.9107 H   0  0  0  0  0  0  0  0  0  0  0  0
  144.3836  135.0764  151.6613 H   0  0  0  0  0  0  0  0  0  0  0  0
  145.8762  134.5135  150.9062 H   0  0  0  0  0  0  0  0  0  0  0  0
  146.2236  136.7904  149.8778 H   0  0  0  0  0  0  0  0  0  0  0  0
  144.6676  137.2924  150.4947 H   0  0  0  0  0  0  0  0  0  0  0  0
  144.3902  137.3515  153.1011 H   0  0  0  0  0  0  0  0  0  0  0  0
  145.1083  135.7547  153.1787 H   0  0  0  0  0  0  0  0  0  0  0  0
  145.4196  136.9968  155.3229 H   0  0  0  0  0  0  0  0  0  0  0  0
  146.9404  136.5483  154.5957 H   0  0  0  0  0  0  0  0  0  0  0  0
  145.6132  139.2999  154.4928 H   0  0  0  0  0  0  0  0  0  0  0  0
  147.0702  138.8965  155.3656 H   0  0  0  0  0  0  0  0  0  0  0  0
  147.4878  140.0714  153.1812 H   0  0  0  0  0  0  0  0  0  0  0  0
  148.8494  137.6965  152.5190 H   0  0  0  0  0  0  0  0  0  0  0  0
  150.6308  137.1390  153.2317 H   0  0  0  0  0  0  0  0  0  0  0  0
  151.3773  137.1732  155.9601 H   0  0  0  0  0  0  0  0  0  0  0  0
  152.3843  136.8071  154.5858 H   0  0  0  0  0  0  0  0  0  0  0  0
  153.5047  138.6513  155.5176 H   0  0  0  0  0  0  0  0  0  0  0  0
  152.5843  139.3954  154.2370 H   0  0  0  0  0  0  0  0  0  0  0  0
  150.1536  142.5007  156.8422 H   0  0  0  0  0  0  0  0  0  0  0  0
  150.7996  141.3163  159.1706 H   0  0  0  0  0  0  0  0  0  0  0  0
  147.1369  138.8033  151.0575 H   0  0  0  0  0  0  0  0  0  0  0  0
  145.6311  139.1825  151.8533 H   0  0  0  0  0  0  0  0  0  0  0  0
  147.0276  136.6186  152.0721 H   0  0  0  0  0  0  0  0  0  0  0  0
  1  2  1  0  0  0  0
  1 20  1  0  0  0  0
  1 21  1  0  0  0  0
  1 22  1  0  0  0  0
  2  3  1  0  0  0  0
  2 23  1  0  0  0  0
  2 24  1  0  0  0  0
  3 19  1  0  0  0  0
  3  4  1  0  0  0  0
  3 42  1  0  0  0  0
  4  5  1  0  0  0  0
  4 25  1  0  0  0  0
  4 26  1  0  0  0  0
  5  6  1  0  0  0  0
  5 27  1  0  0  0  0
  5 28  1  0  0  0  0
  6  7  1  0  0  0  0
  6 29  1  0  0  0  0
  6 30  1  0  0  0  0
  7  8  1  0  0  0  0
  7 19  1  0  0  0  0
  7 31  1  0  0  0  0
  8  9  1  0  0  0  0
  8 32  1  0  0  0  0
  9 10  2  0  0  0  0
  9 11  1  0  0  0  0
 11 12  1  0  0  0  0
 11 33  1  0  0  0  0
 12 13  1  0  0  0  0
 12 34  1  0  0  0  0
 12 35  1  0  0  0  0
 13 14  1  0  0  0  0
 13 36  1  0  0  0  0
 13 37  1  0  0  0  0
 14 18  1  0  0  0  0
 14 15  2  0  0  0  0
 15 16  1  0  0  0  0
 16 17  2  0  0  0  0
 16 38  1  0  0  0  0
 17 18  1  0  0  0  0
 17 39  1  0  0  0  0
 19 40  1  0  0  0  0
 19 41  1  0  0  0  0
M  CHG  1   3   1
M  END
> <s_m_source_file>
AV-unprocessed.smi

> <i_m_source_file_index>
1833

> <i_lp_mmshare_version>
43012

> <i_f3d_flags>
0

> <s_epik_input>
W0NIM11bQ0gyXU4xW0NIMl1bQ0gyXVtDSDJdW0NASF0oW0NIMl0xKVtOSF1DKD1PKVtOSF1bQ0gyXVtDSDJdYzJuW2NIXVtjSF1zMg==

> <s_epik_cmdline>
J2VwaWtfcHl0aG9uJywgJy1waCcsICc3LjAnLCAnLXRuJywgJzgnLCAnLW1hJywgJzIwMCcsICctbWV0YWxfYmluZGluZycsICctaW1hZScsICc8aW5maWxlLm1hZT4nLCAnLW9tYWUnLCAnPG91dGZpbGUubWFlPic=

> <r_lp_tautomer_probability>
1

> <r_epik_Ionization_Penalty>
0.00269629

> <r_epik_Ionization_Penalty_Charging>
0.00233899

> <r_epik_Ionization_Penalty_Neutral>
0.000357304

> <r_epik_State_Penalty>
-0

> <r_epik_Charging_Adjusted_Penalty>
0.00233899

> <i_epik_Tot_Q>
1

> <i_epik_Tot_abs_Q>
1

> <r_epik_Metal_State_Penalty>
-0

> <b_epik_Metal_Only>
0

> <s_lp_Force_Field>
OPLS_2005

> <r_lp_Energy>
14.5557

> <b_lp_Chiralities_Consistent>
1

> <s_lp_Variant>
AV-unprocessed.smi:1833-2

> <Gold.Version>
5.8.1

> <Gold.Id.Protein>
6NUR|6NUR_protein|mol2

> <Gold.PLP.Fitness>
48.7473

> <Gold.PLP.PLP>
-34.7495

> <Gold.PLP.part.hbond>
-5.4712

> <Gold.PLP.part.metal>
0.0000

> <Gold.PLP.part.buried>
0.8021

> <Gold.PLP.part.nonpolar>
-31.5535

> <Gold.PLP.part.repulsive>
0.3414

> <Gold.PLP.ligand.clash>
0.0000

> <Gold.PLP.ligand.torsion>
0.3814

> <Gold.PLP.Chemscore.Hbond>
3.8998

> <Gold.PLP.Chemscore.CHOScore>
1.0000

> <Gold.PLP.Chemscore.Metal>
0.0000

> <Gold.Chemscore.Hbonds>
donor molecule, donor type, donor heavy atom, donor atom, acceptor molecule, acceptor atom, score
      L1  H     3    42       P1  7948  2.00
      L1  H     8    32       P1  7948  1.00
      L1  H    11    33       P1  7949  0.38
      P1  H  7989  7998       L1    15  0.06
      L1  C    16    38       P1  8028  0.29

> <Gold.PLP.Chemscore.Internal.Correction>
0.0611

> <Gold.Rescore>
     Score         DG    S(hbond)    S(metal)    S(lipo)     H(rot)  DE(clash)    DE(int)     intcor
     13.63     -17.12       1.98        0.00      80.44       1.71       0.31       3.19       ----

> <Gold.Chemscore.Fitness>
13.6258

> <Gold.Chemscore.DG>
-17.1247

> <Gold.Chemscore.ZeroCoef>
-5.4800

> <Gold.Chemscore.Hbond>
1.9830

> <Gold.Chemscore.Metal>
0.0000

> <Gold.Chemscore.Lipo>
80.4373

> <Gold.Chemscore.Internal_Hbond>
0.0000

> <Gold.Chemscore.DEClash>
0.3081

> <Gold.Chemscore.DEInternal>
3.1908

> <Gold.Chemscore.Rot>
1.7147

> <Gold.Chemscore.Internal.Correction>
   9.000000E+99

> <Gold.Chemscore.Hbonds>
donor molecule, donor type, donor heavy atom, donor atom, acceptor molecule, acceptor atom, score
      L1  H     3    42       P1  7948  0.97
      L1  H     8    32       P1  7948  0.95
      L1  H    11    33       P1  7949  0.02
      P1  H  7989  7998       L1    15  0.02

> <Gold.Chemscore.Hbond.Weighted>
-6.6232

> <Gold.Chemscore.Metal.Weighted>
-0.0000

> <Gold.Chemscore.Lipo.Weighted>
-9.4112

> <Gold.Chemscore.Internal_Hbond.Weighted>
0.0000

> <Gold.Chemscore.DEClash.Weighted>
0.3081

> <Gold.Chemscore.DEInternal.Weighted>
3.1908

> <Gold.Chemscore.Rot.Weighted>
4.3896

> <Gold.Chemscore.Internal.Correction.Weighted>
   9.000000E+99

> <Gold.Protein.RotatedTorsions>
[ 6907 6896 6895 6894 ] final  -89.69 input  -60.11 | X-H torsion
[ 7974 7965 7964 7962 ] final  100.28 input  175.53 | X-H torsion
[ 8008 7997 7996 7995 ] final -174.32 input   59.86 | X-H torsion
[ 10167 10162 10161 10158 ] final  -77.06 input  -65.29 | X-H torsion
[ 10718 10713 10712 10709 ] final -127.80 input   66.30 | X-H torsion
[ 10763 10752 10751 10750 ] final  -14.17 input  -60.55 | X-H torsion
[ 11005 11000 10999 10996 ] final -117.76 input  -57.11 | X-H torsion

> <Gold.Protein.ActiveResidues>
 VAL166  LYS551  ARG553  GLY616  TRP617  ASP618  TYR619  PRO620  LYS621  CYS622 
 ASP623  PHE694  ASN695  SER759  ASP760  ASP761  ALA762  ILE779  LEU786  VAL792 
 PHE793  MET794  SER795  GLU796  ALA797  LYS798  CYS799  TRP800  GLU811  SER814 

> <Gold.Protein.RotatedAtoms>
  150.6875  134.2548  159.4525 H   0  0  0  0  0  0  0  0  0  0  0  0  # atno 6907 bound_to 6896
  152.0483  134.9667  160.0584 H   0  0  0  0  0  0  0  0  0  0  0  0  # atno 6908 bound_to 6896
  152.1141  133.4282  159.4682 H   0  0  0  0  0  0  0  0  0  0  0  0  # atno 6909 bound_to 6896
  145.3877  139.2368  143.3369 H   0  0  0  0  0  0  0  0  0  0  0  0  # atno 7974 bound_to 7965
  155.9686  140.1158  157.0832 H   0  0  0  0  0  0  0  0  0  0  0  0  # atno 8008 bound_to 7997
  154.4150  140.1168  156.5343 H   0  0  0  0  0  0  0  0  0  0  0  0  # atno 8009 bound_to 7997
  155.6626  140.3473  155.4790 H   0  0  0  0  0  0  0  0  0  0  0  0  # atno 8010 bound_to 7997
  140.4803  143.2404  151.8068 H   0  0  0  0  0  0  0  0  0  0  0  0  # atno 10167 bound_to 10162
  156.1891  130.6783  151.0401 H   0  0  0  0  0  0  0  0  0  0  0  0  # atno 10718 bound_to 10713
  153.5243  135.7015  153.5715 H   0  0  0  0  0  0  0  0  0  0  0  0  # atno 10763 bound_to 10752
  153.3751  135.3935  155.1816 H   0  0  0  0  0  0  0  0  0  0  0  0  # atno 10764 bound_to 10752
  154.8691  135.3821  154.4735 H   0  0  0  0  0  0  0  0  0  0  0  0  # atno 10765 bound_to 10752
  141.0332  133.9949  157.3110 H   0  0  0  0  0  0  0  0  0  0  0  0  # atno 11005 bound_to 11000
  146.2812  140.4554  142.8775 LP  0  0  0  0  0  0  0  0  0  0  0  0  # atno 17320 bound_to 7965
  144.8462  140.6933  143.6197 LP  0  0  0  0  0  0  0  0  0  0  0  0  # atno 17321 bound_to 7965
  139.4832  144.4780  151.9342 LP  0  0  0  0  0  0  0  0  0  0  0  0  # atno 17342 bound_to 10162
  140.3866  144.2669  150.5903 LP  0  0  0  0  0  0  0  0  0  0  0  0  # atno 17343 bound_to 10162
  157.6917  131.0807  150.7087 LP  0  0  0  0  0  0  0  0  0  0  0  0  # atno 17370 bound_to 10713
  156.7143  130.4661  149.5539 LP  0  0  0  0  0  0  0  0  0  0  0  0  # atno 17371 bound_to 10713
  139.9222  135.0201  156.8107 LP  0  0  0  0  0  0  0  0  0  0  0  0  # atno 17394 bound_to 11000
  140.6369  133.9854  155.7688 LP  0  0  0  0  0  0  0  0  0  0  0  0  # atno 17395 bound_to 11000

$$$$
