AV-unprocessed.smi:3248|AV-procd|sdf|12414|dock2
  -GOLD-   2272018293D 1   1.00000     0.00000
 Structure written by MMmdl.
 38 39  0  0  0  0  0  0  0  0  1 V2000
  153.2543  139.5613  159.9345 C   0  0  0  0  0  0  0  0  0  0  0  0
  152.5129  140.7413  159.2922 C   0  0  1  0  0  0  0  0  0  0  0  0
  153.2831  142.0645  159.4929 C   0  0  0  0  0  0  0  0  0  0  0  0
  152.4718  143.2369  159.2151 N   0  0  0  0  0  0  0  0  0  0  0  0
  152.1839  144.2976  160.0486 C   0  0  0  0  0  0  0  0  0  0  0  0
  151.4014  145.1669  159.3445 C   0  0  0  0  0  0  0  0  0  0  0  0
  151.2593  144.5405  158.0749 C   0  0  0  0  0  0  0  0  0  0  0  0
  151.8963  143.3829  158.0023 N   0  0  0  0  0  0  0  0  0  0  0  0
  152.3228  140.4622  157.8694 N   0  0  0  0  0  0  0  0  0  0  0  0
  151.1417  140.3916  157.2307 C   0  0  0  0  0  0  0  0  0  0  0  0
  150.0656  140.5754  157.7992 O   0  0  0  0  0  0  0  0  0  0  0  0
  151.2744  140.2496  155.8903 N   0  0  0  0  0  0  0  0  0  0  0  0
  152.3428  139.4119  155.3276 C   0  0  0  0  0  0  0  0  0  0  0  0
  151.7722  138.0025  155.0733 C   0  0  0  0  0  0  0  0  0  0  0  0
  150.6496  138.0827  154.1975 O   0  0  0  0  0  0  0  0  0  0  0  0
  149.6093  138.9285  154.6843 C   0  0  0  0  0  0  0  0  0  0  0  0
  150.1721  140.3455  154.9140 C   0  0  1  0  0  0  0  0  0  0  0  0
  149.0759  141.3779  155.2528 C   0  0  0  0  0  0  0  0  0  0  0  0
  153.3886  139.7194  161.0049 H   0  0  0  0  0  0  0  0  0  0  0  0
  154.2415  139.4235  159.4922 H   0  0  0  0  0  0  0  0  0  0  0  0
  152.6985  138.6316  159.8076 H   0  0  0  0  0  0  0  0  0  0  0  0
  151.5434  140.8191  159.7880 H   0  0  0  0  0  0  0  0  0  0  0  0
  153.6402  142.1388  160.5209 H   0  0  0  0  0  0  0  0  0  0  0  0
  154.1679  142.0926  158.8550 H   0  0  0  0  0  0  0  0  0  0  0  0
  152.5634  144.3491  161.0583 H   0  0  0  0  0  0  0  0  0  0  0  0
  150.9950  146.1082  159.6834 H   0  0  0  0  0  0  0  0  0  0  0  0
  150.7149  144.8894  157.2100 H   0  0  0  0  0  0  0  0  0  0  0  0
  153.1595  140.3443  157.3169 H   0  0  0  0  0  0  0  0  0  0  0  0
  152.7024  139.8488  154.3949 H   0  0  0  0  0  0  0  0  0  0  0  0
  153.2156  139.3396  155.9778 H   0  0  0  0  0  0  0  0  0  0  0  0
  152.5298  137.3650  154.6176 H   0  0  0  0  0  0  0  0  0  0  0  0
  151.4767  137.5273  156.0102 H   0  0  0  0  0  0  0  0  0  0  0  0
  148.8078  138.9512  153.9455 H   0  0  0  0  0  0  0  0  0  0  0  0
  149.1878  138.5159  155.6023 H   0  0  0  0  0  0  0  0  0  0  0  0
  150.6092  140.6860  153.9736 H   0  0  0  0  0  0  0  0  0  0  0  0
  148.4158  141.5261  154.3980 H   0  0  0  0  0  0  0  0  0  0  0  0
  149.5081  142.3477  155.5005 H   0  0  0  0  0  0  0  0  0  0  0  0
  148.4459  141.0627  156.0839 H   0  0  0  0  0  0  0  0  0  0  0  0
  1  2  1  0  0  0  0
  1 19  1  0  0  0  0
  1 20  1  0  0  0  0
  1 21  1  0  0  0  0
  2  3  1  0  0  0  0
  2  9  1  0  0  0  0
  2 22  1  0  0  0  0
  3  4  1  0  0  0  0
  3 23  1  0  0  0  0
  3 24  1  0  0  0  0
  4  8  1  0  0  0  0
  4  5  1  0  0  0  0
  5  6  2  0  0  0  0
  5 25  1  0  0  0  0
  6  7  1  0  0  0  0
  6 26  1  0  0  0  0
  7  8  2  0  0  0  0
  7 27  1  0  0  0  0
  9 10  1  0  0  0  0
  9 28  1  0  0  0  0
 10 11  2  0  0  0  0
 10 12  1  0  0  0  0
 12 17  1  0  0  0  0
 12 13  1  0  0  0  0
 13 14  1  0  0  0  0
 13 29  1  0  0  0  0
 13 30  1  0  0  0  0
 14 15  1  0  0  0  0
 14 31  1  0  0  0  0
 14 32  1  0  0  0  0
 15 16  1  0  0  0  0
 16 17  1  0  0  0  0
 16 33  1  0  0  0  0
 16 34  1  0  0  0  0
 17 18  1  0  0  0  0
 17 35  1  0  0  0  0
 18 36  1  0  0  0  0
 18 37  1  0  0  0  0
 18 38  1  0  0  0  0
M  END
> <s_m_source_file>
AV-unprocessed.smi

> <i_m_source_file_index>
3248

> <i_lp_mmshare_version>
43012

> <i_f3d_flags>
0

> <s_epik_input>
bjFbY0hdW2NIXVtjSF1uMVtDSDJdW0NAQEhdKFtDSDNdKVtOSF1DKD1PKU4yW0NIMl1bQ0gyXU9bQ0gyXVtDQEhdMltDSDNd

> <s_epik_cmdline>
J2VwaWtfcHl0aG9uJywgJy1waCcsICc3LjAnLCAnLXRuJywgJzgnLCAnLW1hJywgJzIwMCcsICctbWV0YWxfYmluZGluZycsICctaW1hZScsICc8aW5maWxlLm1hZT4nLCAnLW9tYWUnLCAnPG91dGZpbGUubWFlPic=

> <r_lp_tautomer_probability>
1

> <r_epik_Ionization_Penalty>
4.45233e-05

> <r_epik_Ionization_Penalty_Charging>
0

> <r_epik_Ionization_Penalty_Neutral>
4.45233e-05

> <r_epik_State_Penalty>
-0

> <r_epik_Charging_Adjusted_Penalty>
0

> <i_epik_Tot_Q>
0

> <i_epik_Tot_abs_Q>
0

> <r_epik_Metal_State_Penalty>
-0

> <b_epik_Metal_Only>
0

> <s_lp_Force_Field>
OPLS_2005

> <r_lp_Energy>
31.1231

> <b_lp_Chiralities_Consistent>
1

> <s_lp_Variant>
AV-unprocessed.smi:3248-2

> <Gold.Version>
5.8.1

> <Gold.Id.Protein>
6NUR|6NUR_protein|mol2

> <Gold.PLP.Fitness>
43.4941

> <Gold.PLP.PLP>
-40.6955

> <Gold.PLP.part.hbond>
0.0000

> <Gold.PLP.part.metal>
0.0000

> <Gold.PLP.part.buried>
-3.9434

> <Gold.PLP.part.nonpolar>
-37.7054

> <Gold.PLP.part.repulsive>
0.3896

> <Gold.PLP.ligand.clash>
0.0000

> <Gold.PLP.ligand.torsion>
0.3642

> <Gold.PLP.Chemscore.Hbond>
0.0000

> <Gold.PLP.Chemscore.CHOScore>
1.0000

> <Gold.PLP.Chemscore.Metal>
0.0000

> <Gold.Chemscore.Hbonds>
donor molecule, donor type, donor heavy atom, donor atom, acceptor molecule, acceptor atom, score
      L1  C     7    27       P1  8028  1.00

> <Gold.PLP.Chemscore.Internal.Correction>
0.5271

> <Gold.Rescore>
     Score         DG    S(hbond)    S(metal)    S(lipo)     H(rot)  DE(clash)    DE(int)     intcor
     11.54     -13.30       0.00        0.00      97.91       1.42       0.08       1.68       ----

> <Gold.Chemscore.Fitness>
11.5425

> <Gold.Chemscore.DG>
-13.3025

> <Gold.Chemscore.ZeroCoef>
-5.4800

> <Gold.Chemscore.Hbond>
0.0000

> <Gold.Chemscore.Metal>
0.0000

> <Gold.Chemscore.Lipo>
97.9105

> <Gold.Chemscore.Internal_Hbond>
0.0000

> <Gold.Chemscore.DEClash>
0.0783

> <Gold.Chemscore.DEInternal>
1.6817

> <Gold.Chemscore.Rot>
1.4191

> <Gold.Chemscore.Internal.Correction>
   9.000000E+99

> <Gold.Chemscore.Hbond.Weighted>
-0.0000

> <Gold.Chemscore.Metal.Weighted>
-0.0000

> <Gold.Chemscore.Lipo.Weighted>
-11.4555

> <Gold.Chemscore.Internal_Hbond.Weighted>
0.0000

> <Gold.Chemscore.DEClash.Weighted>
0.0783

> <Gold.Chemscore.DEInternal.Weighted>
1.6817

> <Gold.Chemscore.Rot.Weighted>
3.6330

> <Gold.Chemscore.Internal.Correction.Weighted>
   9.000000E+99

> <Gold.Protein.RotatedTorsions>
[ 6907 6896 6895 6894 ] final   87.00 input  -60.11 | X-H torsion
[ 7974 7965 7964 7962 ] final   64.55 input  175.53 | X-H torsion
[ 8008 7997 7996 7995 ] final  -81.48 input   59.86 | X-H torsion
[ 10167 10162 10161 10158 ] final -108.89 input  -65.29 | X-H torsion
[ 10718 10713 10712 10709 ] final   19.97 input   66.30 | X-H torsion
[ 10763 10752 10751 10750 ] final   42.22 input  -60.55 | X-H torsion
[ 11005 11000 10999 10996 ] final  -81.24 input  -57.11 | X-H torsion

> <Gold.Protein.ActiveResidues>
 VAL166  LYS551  ARG553  GLY616  TRP617  ASP618  TYR619  PRO620  LYS621  CYS622 
 ASP623  PHE694  ASN695  SER759  ASP760  ASP761  ALA762  ILE779  LEU786  VAL792 
 PHE793  MET794  SER795  GLU796  ALA797  LYS798  CYS799  TRP800  GLU811  SER814 

> <Gold.Protein.RotatedAtoms>
  152.5404  134.2344  159.8837 H   0  0  0  0  0  0  0  0  0  0  0  0  # atno 6907 bound_to 6896
  151.2314  133.4441  159.2611 H   0  0  0  0  0  0  0  0  0  0  0  0  # atno 6908 bound_to 6896
  151.0711  134.9812  159.8365 H   0  0  0  0  0  0  0  0  0  0  0  0  # atno 6909 bound_to 6896
  145.8489  139.3242  143.0887 H   0  0  0  0  0  0  0  0  0  0  0  0  # atno 7974 bound_to 7965
  154.5988  140.0647  156.9340 H   0  0  0  0  0  0  0  0  0  0  0  0  # atno 8008 bound_to 7997
  155.2167  140.3327  155.4303 H   0  0  0  0  0  0  0  0  0  0  0  0  # atno 8009 bound_to 7997
  156.2305  140.1838  156.7239 H   0  0  0  0  0  0  0  0  0  0  0  0  # atno 8010 bound_to 7997
  140.1613  143.4118  152.1423 H   0  0  0  0  0  0  0  0  0  0  0  0  # atno 10167 bound_to 10162
  157.1179  130.6537  149.5915 H   0  0  0  0  0  0  0  0  0  0  0  0  # atno 10718 bound_to 10713
  152.9888  135.6138  154.2914 H   0  0  0  0  0  0  0  0  0  0  0  0  # atno 10763 bound_to 10752
  154.2639  135.2781  155.2768 H   0  0  0  0  0  0  0  0  0  0  0  0  # atno 10764 bound_to 10752
  154.5182  135.5822  153.6716 H   0  0  0  0  0  0  0  0  0  0  0  0  # atno 10765 bound_to 10752
  141.1667  133.7187  156.8393 H   0  0  0  0  0  0  0  0  0  0  0  0  # atno 11005 bound_to 11000
  145.9380  140.9000  143.0322 LP  0  0  0  0  0  0  0  0  0  0  0  0  # atno 17320 bound_to 7965
  144.6730  140.1509  143.7430 LP  0  0  0  0  0  0  0  0  0  0  0  0  # atno 17321 bound_to 7965
  139.5380  144.7229  151.4829 LP  0  0  0  0  0  0  0  0  0  0  0  0  # atno 17342 bound_to 10162
  140.6641  143.8435  150.6921 LP  0  0  0  0  0  0  0  0  0  0  0  0  # atno 17343 bound_to 10162
  155.9835  130.4855  150.6937 LP  0  0  0  0  0  0  0  0  0  0  0  0  # atno 17370 bound_to 10713
  157.4502  131.0871  151.0854 LP  0  0  0  0  0  0  0  0  0  0  0  0  # atno 17371 bound_to 10713
  140.1994  134.8908  157.3152 LP  0  0  0  0  0  0  0  0  0  0  0  0  # atno 17394 bound_to 11000
  140.2203  134.4031  155.7569 LP  0  0  0  0  0  0  0  0  0  0  0  0  # atno 17395 bound_to 11000

$$$$
