AV-unprocessed.smi:435|AV-procd|sdf|2557|dock7
  -GOLD-   2262022523D 1   1.00000     0.00000
 Structure written by MMmdl.
 44 45  0  0  0  0  0  0  0  0  1 V2000
  147.6100  141.2640  157.5467 C   0  0  0  0  0  0  0  0  0  0  0  0
  148.5786  140.1568  157.8645 C   0  0  0  0  0  0  0  0  0  0  0  0
  148.0690  139.0013  158.1399 N   0  0  0  0  0  0  0  0  0  0  0  0
  148.8684  137.9184  158.4514 N   0  0  0  0  0  0  0  0  0  0  0  0
  148.1237  136.6869  158.7520 C   0  0  0  0  0  0  0  0  0  0  0  0
  148.2090  136.2785  160.2295 C   0  0  0  0  0  0  0  0  0  0  0  0
  148.6658  137.0550  161.0695 O   0  0  0  0  0  0  0  0  0  0  0  0
  147.7391  135.0586  160.5309 N   0  0  0  0  0  0  0  0  0  0  0  0
  147.7028  134.4662  161.8668 C   0  0  2  0  0  0  0  0  0  0  0  0
  147.0333  133.0793  161.8181 C   0  0  0  0  0  0  0  0  0  0  0  0
  145.5205  133.1689  161.5480 C   0  0  0  0  0  0  0  0  0  0  0  0
  144.8119  134.0819  162.5668 C   0  0  2  0  0  0  0  0  0  0  0  0
  143.3054  134.1708  162.2853 C   0  0  0  0  0  0  0  0  0  0  0  0
  145.4660  135.4769  162.5861 C   0  0  0  0  0  0  0  0  0  0  0  0
  146.9772  135.3914  162.8655 C   0  0  0  0  0  0  0  0  0  0  0  0
  150.2319  137.9461  158.4937 C   0  0  0  0  0  0  0  0  0  0  0  0
  150.9063  136.9531  158.7714 O   0  0  0  0  0  0  0  0  0  0  0  0
  150.8022  139.2579  158.1795 C   0  0  0  0  0  0  0  0  0  0  0  0
  152.2271  139.3318  158.2185 C   0  0  0  0  0  0  0  0  0  0  0  0
  153.3827  139.3998  158.2316 N   0  0  0  0  0  0  0  0  0  0  0  0
  150.0280  140.3290  157.8734 C   0  0  0  0  0  0  0  0  0  0  0  0
  150.5718  141.7116  157.5403 C   0  0  0  0  0  0  0  0  0  0  0  0
  147.7324  141.6005  156.5170 H   0  0  0  0  0  0  0  0  0  0  0  0
  147.7690  142.1191  158.2039 H   0  0  0  0  0  0  0  0  0  0  0  0
  146.5735  140.9451  157.6688 H   0  0  0  0  0  0  0  0  0  0  0  0
  147.0692  136.8099  158.4990 H   0  0  0  0  0  0  0  0  0  0  0  0
  148.4823  135.8724  158.1193 H   0  0  0  0  0  0  0  0  0  0  0  0
  147.3770  134.4933  159.7765 H   0  0  0  0  0  0  0  0  0  0  0  0
  148.7299  134.3244  162.2083 H   0  0  0  0  0  0  0  0  0  0  0  0
  147.5114  132.4556  161.0616 H   0  0  0  0  0  0  0  0  0  0  0  0
  147.1935  132.5734  162.7709 H   0  0  0  0  0  0  0  0  0  0  0  0
  145.3494  133.5415  160.5372 H   0  0  0  0  0  0  0  0  0  0  0  0
  145.0872  132.1687  161.5815 H   0  0  0  0  0  0  0  0  0  0  0  0
  144.9350  133.6397  163.5566 H   0  0  0  0  0  0  0  0  0  0  0  0
  143.1102  134.6060  161.3047 H   0  0  0  0  0  0  0  0  0  0  0  0
  142.8022  134.7883  163.0295 H   0  0  0  0  0  0  0  0  0  0  0  0
  142.8429  133.1837  162.3099 H   0  0  0  0  0  0  0  0  0  0  0  0
  145.2976  135.9777  161.6316 H   0  0  0  0  0  0  0  0  0  0  0  0
  144.9917  136.0999  163.3453 H   0  0  0  0  0  0  0  0  0  0  0  0
  147.1297  135.0124  163.8769 H   0  0  0  0  0  0  0  0  0  0  0  0
  147.4173  136.3891  162.8499 H   0  0  0  0  0  0  0  0  0  0  0  0
  151.6599  141.7248  157.4858 H   0  0  0  0  0  0  0  0  0  0  0  0
  150.2709  142.4320  158.3016 H   0  0  0  0  0  0  0  0  0  0  0  0
  150.1953  142.0524  156.5753 H   0  0  0  0  0  0  0  0  0  0  0  0
  1  2  1  0  0  0  0
  1 23  1  0  0  0  0
  1 24  1  0  0  0  0
  1 25  1  0  0  0  0
  2 21  1  0  0  0  0
  2  3  2  0  0  0  0
  3  4  1  0  0  0  0
  4  5  1  0  0  0  0
  4 16  1  0  0  0  0
  5  6  1  0  0  0  0
  5 26  1  0  0  0  0
  5 27  1  0  0  0  0
  6  7  2  0  0  0  0
  6  8  1  0  0  0  0
  8  9  1  0  0  0  0
  8 28  1  0  0  0  0
  9 15  1  0  0  0  0
  9 10  1  0  0  0  0
  9 29  1  0  0  0  0
 10 11  1  0  0  0  0
 10 30  1  0  0  0  0
 10 31  1  0  0  0  0
 11 12  1  0  0  0  0
 11 32  1  0  0  0  0
 11 33  1  0  0  0  0
 12 13  1  0  0  0  0
 12 14  1  0  0  0  0
 12 34  1  0  0  0  0
 13 35  1  0  0  0  0
 13 36  1  0  0  0  0
 13 37  1  0  0  0  0
 14 15  1  0  0  0  0
 14 38  1  0  0  0  0
 14 39  1  0  0  0  0
 15 40  1  0  0  0  0
 15 41  1  0  0  0  0
 16 17  2  0  0  0  0
 16 18  1  0  0  0  0
 18 19  1  0  0  0  0
 18 21  2  0  0  0  0
 19 20  3  0  0  0  0
 21 22  1  0  0  0  0
 22 42  1  0  0  0  0
 22 43  1  0  0  0  0
 22 44  1  0  0  0  0
M  END
> <s_m_source_file>
AV-unprocessed.smi

> <i_m_source_file_index>
435

> <i_lp_mmshare_version>
43012

> <i_f3d_flags>
0

> <s_epik_input>
TiNDYyhjMVtDSDNdKWMoPU8pbihuYzFbQ0gzXSlbQ0gyXUMoPU8pW05IXVtDQEBIXTJbQ0gyXVtDSDJdW0NAQEhdKFtDSDNdKVtDSDJdW0NIMl0y

> <s_epik_cmdline>
J2VwaWtfcHl0aG9uJywgJy1waCcsICc3LjAnLCAnLXRuJywgJzgnLCAnLW1hJywgJzIwMCcsICctbWV0YWxfYmluZGluZycsICctaW1hZScsICc8aW5maWxlLm1hZT4nLCAnLW9tYWUnLCAnPG91dGZpbGUubWFlPic=

> <r_lp_tautomer_probability>
1

> <r_epik_Ionization_Penalty>
1.90703e-08

> <r_epik_Ionization_Penalty_Charging>
2.32563e-11

> <r_epik_Ionization_Penalty_Neutral>
1.90471e-08

> <r_epik_State_Penalty>
-0

> <r_epik_Charging_Adjusted_Penalty>
2.32563e-11

> <i_epik_Tot_Q>
0

> <i_epik_Tot_abs_Q>
0

> <r_epik_Metal_State_Penalty>
-0

> <b_epik_Metal_Only>
0

> <s_lp_Force_Field>
OPLS_2005

> <r_lp_Energy>
22.9488

> <b_lp_Chiralities_Consistent>
1

> <s_lp_Variant>
AV-unprocessed.smi:435-2

> <Gold.Version>
5.8.1

> <Gold.Id.Protein>
6NUR|6NUR_protein|mol2

> <Gold.PLP.Fitness>
44.4068

> <Gold.PLP.PLP>
-35.8535

> <Gold.PLP.part.hbond>
-3.5403

> <Gold.PLP.part.metal>
0.0000

> <Gold.PLP.part.buried>
-6.4796

> <Gold.PLP.part.nonpolar>
-25.5066

> <Gold.PLP.part.repulsive>
0.0702

> <Gold.PLP.ligand.clash>
0.0000

> <Gold.PLP.ligand.torsion>
0.2152

> <Gold.PLP.Chemscore.Hbond>
2.9920

> <Gold.PLP.Chemscore.CHOScore>
0.0000

> <Gold.PLP.Chemscore.Metal>
0.0000

> <Gold.Chemscore.Hbonds>
donor molecule, donor type, donor heavy atom, donor atom, acceptor molecule, acceptor atom, score
      P1  H  6896  6908       L1    17  0.65
      P1  H  6931  6943       L1     7  0.91
      P1  H  7997  8008       L1    20  1.00

> <Gold.PLP.Chemscore.Internal.Correction>
0.0078

> <Gold.Rescore>
     Score         DG    S(hbond)    S(metal)    S(lipo)     H(rot)  DE(clash)    DE(int)     intcor
     19.95     -20.19       3.13        0.00      68.27       1.46       0.00       0.24       ----

> <Gold.Chemscore.Fitness>
19.9549

> <Gold.Chemscore.DG>
-20.1906

> <Gold.Chemscore.ZeroCoef>
-5.4800

> <Gold.Chemscore.Hbond>
3.1332

> <Gold.Chemscore.Metal>
0.0000

> <Gold.Chemscore.Lipo>
68.2650

> <Gold.Chemscore.Internal_Hbond>
0.0000

> <Gold.Chemscore.DEClash>
0.0000

> <Gold.Chemscore.DEInternal>
0.2357

> <Gold.Chemscore.Rot>
1.4615

> <Gold.Chemscore.Internal.Correction>
   9.000000E+99

> <Gold.Chemscore.Hbonds>
donor molecule, donor type, donor heavy atom, donor atom, acceptor molecule, acceptor atom, score
      P1  H  6896  6908       L1    17  0.62
      P1  H  6931  6943       L1     7  0.85
      P1  H  6934  6947       L1     7  0.01
      P1  H  7997  8008       L1    20  1.00

> <Gold.Chemscore.Hbond.Weighted>
-10.4650

> <Gold.Chemscore.Metal.Weighted>
-0.0000

> <Gold.Chemscore.Lipo.Weighted>
-7.9870

> <Gold.Chemscore.Internal_Hbond.Weighted>
0.0000

> <Gold.Chemscore.DEClash.Weighted>
0.0000

> <Gold.Chemscore.DEInternal.Weighted>
0.2357

> <Gold.Chemscore.Rot.Weighted>
3.7414

> <Gold.Chemscore.Internal.Correction.Weighted>
   9.000000E+99

> <Gold.Protein.RotatedTorsions>
[ 6907 6896 6895 6894 ] final -151.55 input  -60.11 | X-H torsion
[ 7974 7965 7964 7962 ] final  -60.53 input  175.53 | X-H torsion
[ 8008 7997 7996 7995 ] final  -89.28 input   59.86 | X-H torsion
[ 10167 10162 10161 10158 ] final  -80.24 input  -65.29 | X-H torsion
[ 10718 10713 10712 10709 ] final  125.92 input   66.30 | X-H torsion
[ 10763 10752 10751 10750 ] final  176.06 input  -60.55 | X-H torsion
[ 11005 11000 10999 10996 ] final -115.35 input  -57.11 | X-H torsion

> <Gold.Protein.ActiveResidues>
 VAL166  LYS551  ARG553  GLY616  TRP617  ASP618  TYR619  PRO620  LYS621  CYS622 
 ASP623  PHE694  ASN695  SER759  ASP760  ASP761  ALA762  ILE779  LEU786  VAL792 
 PHE793  MET794  SER795  GLU796  ALA797  LYS798  CYS799  TRP800  GLU811  SER814 

> <Gold.Protein.RotatedAtoms>
  151.2147  133.4536  159.2598 H   0  0  0  0  0  0  0  0  0  0  0  0  # atno 6907 bound_to 6896
  151.0942  134.9934  159.8427 H   0  0  0  0  0  0  0  0  0  0  0  0  # atno 6908 bound_to 6896
  152.5437  134.2079  159.8791 H   0  0  0  0  0  0  0  0  0  0  0  0  # atno 6909 bound_to 6896
  145.8144  140.8579  143.0165 H   0  0  0  0  0  0  0  0  0  0  0  0  # atno 7974 bound_to 7965
  154.6847  140.0543  157.0302 H   0  0  0  0  0  0  0  0  0  0  0  0  # atno 8008 bound_to 7997
  155.0902  140.3218  155.4557 H   0  0  0  0  0  0  0  0  0  0  0  0  # atno 8009 bound_to 7997
  156.2707  140.2049  156.6029 H   0  0  0  0  0  0  0  0  0  0  0  0  # atno 8010 bound_to 7997
  140.4521  143.2480  151.8474 H   0  0  0  0  0  0  0  0  0  0  0  0  # atno 10167 bound_to 10162
  157.5463  131.1095  150.8776 H   0  0  0  0  0  0  0  0  0  0  0  0  # atno 10718 bound_to 10713
  154.4760  135.2773  155.1606 H   0  0  0  0  0  0  0  0  0  0  0  0  # atno 10763 bound_to 10752
  154.3336  135.6185  153.5566 H   0  0  0  0  0  0  0  0  0  0  0  0  # atno 10764 bound_to 10752
  152.9869  135.5771  154.5151 H   0  0  0  0  0  0  0  0  0  0  0  0  # atno 10765 bound_to 10752
  141.0493  133.9712  157.2863 H   0  0  0  0  0  0  0  0  0  0  0  0  # atno 11005 bound_to 11000
  144.6754  140.0442  143.7480 LP  0  0  0  0  0  0  0  0  0  0  0  0  # atno 17320 bound_to 7965
  145.9743  139.2893  143.1080 LP  0  0  0  0  0  0  0  0  0  0  0  0  # atno 17321 bound_to 7965
  139.4797  144.5108  151.8935 LP  0  0  0  0  0  0  0  0  0  0  0  0  # atno 17342 bound_to 10162
  140.4195  144.2262  150.5887 LP  0  0  0  0  0  0  0  0  0  0  0  0  # atno 17343 bound_to 10162
  156.9314  130.5351  149.5279 LP  0  0  0  0  0  0  0  0  0  0  0  0  # atno 17370 bound_to 10713
  156.0538  130.5603  150.9048 LP  0  0  0  0  0  0  0  0  0  0  0  0  # atno 17371 bound_to 10713
  139.9337  135.0198  156.8486 LP  0  0  0  0  0  0  0  0  0  0  0  0  # atno 17394 bound_to 11000
  140.6086  134.0104  155.7567 LP  0  0  0  0  0  0  0  0  0  0  0  0  # atno 17395 bound_to 11000

$$$$
