AV-unprocessed.smi:1367|AV-procd|sdf|5574|dock8
  -GOLD-   22720 5163D 1   1.00000     0.00000
 Structure written by MMmdl.
 29 29  0  0  0  0  0  0  0  0  2 V2000
  146.4896  137.9154  153.0772 C   0  0  0  0  0  0  0  0  0  0  0  0
  147.3324  139.0672  153.5820 C   0  0  0  0  0  0  0  0  0  0  0  0
  146.7973  140.2200  153.7223 N   0  0  0  0  0  0  0  0  0  0  0  0
  147.5764  141.2920  154.1899 C   0  0  0  0  0  0  0  0  0  0  0  0
  146.8617  142.6255  154.3198 C   0  0  0  0  0  0  0  0  0  0  0  0
  148.8940  141.1245  154.4993 C   0  0  0  0  0  0  0  0  0  0  0  0
  149.7864  142.2603  155.0022 C   0  0  0  0  0  0  0  0  0  0  0  0
  150.4447  142.0362  156.3654 C   0  0  0  0  0  0  0  0  0  0  0  0
  151.0887  141.0085  156.5748 O   0  0  0  0  0  0  0  0  0  0  0  0
  150.2805  143.0038  157.2803 N   0  0  0  0  0  0  0  0  0  0  0  0
  150.7810  142.9649  158.6493 C   0  0  0  0  0  0  0  0  0  0  0  0
  151.6493  144.1912  158.9798 C   0  0  0  0  0  0  0  0  0  0  0  0
  150.8564  145.2378  159.2075 F   0  0  0  0  0  0  0  0  0  0  0  0
  152.3764  143.9615  160.0735 F   0  0  0  0  0  0  0  0  0  0  0  0
  152.4631  144.4886  157.9667 F   0  0  0  0  0  0  0  0  0  0  0  0
  149.4730  139.7808  154.3205 C   0  0  0  0  0  0  0  0  0  0  0  0
  150.6614  139.5793  154.5677 O   0  0  0  0  0  0  0  0  0  0  0  0
  148.6515  138.7928  153.8653 N   0  5  0  0  0  0  0  0  0  0  0  0
  145.5099  138.2612  152.7443 H   0  0  0  0  0  0  0  0  0  0  0  0
  146.3437  137.1802  153.8689 H   0  0  0  0  0  0  0  0  0  0  0  0
  146.9805  137.4252  152.2359 H   0  0  0  0  0  0  0  0  0  0  0  0
  146.8447  142.9497  155.3602 H   0  0  0  0  0  0  0  0  0  0  0  0
  145.8298  142.5561  153.9740 H   0  0  0  0  0  0  0  0  0  0  0  0
  147.3619  143.3895  153.7245 H   0  0  0  0  0  0  0  0  0  0  0  0
  150.5734  142.4306  154.2670 H   0  0  0  0  0  0  0  0  0  0  0  0
  149.2364  143.2010  155.0366 H   0  0  0  0  0  0  0  0  0  0  0  0
  149.7375  143.8139  157.0163 H   0  0  0  0  0  0  0  0  0  0  0  0
  149.9549  142.8803  159.3571 H   0  0  0  0  0  0  0  0  0  0  0  0
  151.3736  142.0565  158.7598 H   0  0  0  0  0  0  0  0  0  0  0  0
  1  2  1  0  0  0  0
  1 19  1  0  0  0  0
  1 20  1  0  0  0  0
  1 21  1  0  0  0  0
  2 18  1  0  0  0  0
  2  3  2  0  0  0  0
  3  4  1  0  0  0  0
  4  5  1  0  0  0  0
  4  6  2  0  0  0  0
  5 22  1  0  0  0  0
  5 23  1  0  0  0  0
  5 24  1  0  0  0  0
  6  7  1  0  0  0  0
  6 16  1  0  0  0  0
  7  8  1  0  0  0  0
  7 25  1  0  0  0  0
  7 26  1  0  0  0  0
  8  9  2  0  0  0  0
  8 10  1  0  0  0  0
 10 11  1  0  0  0  0
 10 27  1  0  0  0  0
 11 12  1  0  0  0  0
 11 28  1  0  0  0  0
 11 29  1  0  0  0  0
 12 13  1  0  0  0  0
 12 14  1  0  0  0  0
 12 15  1  0  0  0  0
 16 17  2  0  0  0  0
 16 18  1  0  0  0  0
M  CHG  1  18  -1
M  END
> <s_m_source_file>
AV-unprocessed.smi

> <i_m_source_file_index>
1367

> <i_lp_mmshare_version>
43012

> <i_f3d_flags>
0

> <s_epik_input>
W0NIM11jMW5jKFtDSDNdKWMoYyg9TylbbkhdMSlbQ0gyXUMoPU8pW05IXVtDSDJdQyhGKShGKUY=

> <s_epik_cmdline>
J2VwaWtfcHl0aG9uJywgJy1waCcsICc3LjAnLCAnLXRuJywgJzgnLCAnLW1hJywgJzIwMCcsICctbWV0YWxfYmluZGluZycsICctaW1hZScsICc8aW5maWxlLm1hZT4nLCAnLW9tYWUnLCAnPG91dGZpbGUubWFlPic=

> <r_lp_tautomer_probability>
0.839158

> <r_epik_Ionization_Penalty>
6.39142

> <r_epik_Ionization_Penalty_Charging>
4.71143e-08

> <r_epik_Ionization_Penalty_Neutral>
6.39142

> <r_epik_State_Penalty>
4.29634

> <r_epik_Charging_Adjusted_Penalty>
4.29634

> <i_epik_Tot_Q>
-1

> <i_epik_Tot_abs_Q>
1

> <r_epik_Metal_State_Penalty>
0.740852

> <b_epik_Metal_Only>
1

> <s_lp_Force_Field>
OPLS_2005

> <r_lp_Energy>
6.28206

> <b_lp_Chiralities_Consistent>
1

> <s_lp_Variant>
AV-unprocessed.smi:1367-3

> <Gold.Version>
5.8.1

> <Gold.Id.Protein>
6NUR|6NUR_protein|mol2

> <Gold.PLP.Fitness>
41.1903

> <Gold.PLP.PLP>
-35.9368

> <Gold.PLP.part.hbond>
-2.0000

> <Gold.PLP.part.metal>
0.0000

> <Gold.PLP.part.buried>
0.6274

> <Gold.PLP.part.nonpolar>
-33.8182

> <Gold.PLP.part.repulsive>
0.7786

> <Gold.PLP.ligand.clash>
0.0000

> <Gold.PLP.ligand.torsion>
0.2939

> <Gold.PLP.Chemscore.Hbond>
1.9440

> <Gold.PLP.Chemscore.CHOScore>
0.0000

> <Gold.PLP.Chemscore.Metal>
0.0000

> <Gold.Chemscore.Hbonds>
donor molecule, donor type, donor heavy atom, donor atom, acceptor molecule, acceptor atom, score
      L1  H    10    27       P1  8028  0.96
      P1  H  7989  7998       L1    17  1.00

> <Gold.PLP.Chemscore.Internal.Correction>
0.0093

> <Gold.Rescore>
     Score         DG    S(hbond)    S(metal)    S(lipo)     H(rot)  DE(clash)    DE(int)     intcor
      8.82     -12.54       1.70        0.00      52.51       1.86       1.65       2.06       ----

> <Gold.Chemscore.Fitness>
8.8227

> <Gold.Chemscore.DG>
-12.5382

> <Gold.Chemscore.ZeroCoef>
-5.4800

> <Gold.Chemscore.Hbond>
1.7006

> <Gold.Chemscore.Metal>
0.0000

> <Gold.Chemscore.Lipo>
52.5134

> <Gold.Chemscore.Internal_Hbond>
0.0000

> <Gold.Chemscore.DEClash>
1.6519

> <Gold.Chemscore.DEInternal>
2.0636

> <Gold.Chemscore.Rot>
1.8617

> <Gold.Chemscore.Internal.Correction>
   9.000000E+99

> <Gold.Chemscore.Hbonds>
donor molecule, donor type, donor heavy atom, donor atom, acceptor molecule, acceptor atom, score
      L1  H    10    27       P1  8028  0.84
      P1  H  7989  7998       L1    17  0.50

> <Gold.Chemscore.Hbond.Weighted>
-5.6801

> <Gold.Chemscore.Metal.Weighted>
-0.0000

> <Gold.Chemscore.Lipo.Weighted>
-6.1441

> <Gold.Chemscore.Internal_Hbond.Weighted>
0.0000

> <Gold.Chemscore.DEClash.Weighted>
1.6519

> <Gold.Chemscore.DEInternal.Weighted>
2.0636

> <Gold.Chemscore.Rot.Weighted>
4.7660

> <Gold.Chemscore.Internal.Correction.Weighted>
   9.000000E+99

> <Gold.Protein.RotatedTorsions>
[ 6907 6896 6895 6894 ] final  -20.87 input  -60.11 | X-H torsion
[ 7974 7965 7964 7962 ] final  113.68 input  175.53 | X-H torsion
[ 8008 7997 7996 7995 ] final -179.39 input   59.86 | X-H torsion
[ 10167 10162 10161 10158 ] final -177.82 input  -65.29 | X-H torsion
[ 10718 10713 10712 10709 ] final  119.23 input   66.30 | X-H torsion
[ 10763 10752 10751 10750 ] final -170.65 input  -60.55 | X-H torsion
[ 11005 11000 10999 10996 ] final  -11.58 input  -57.11 | X-H torsion

> <Gold.Protein.ActiveResidues>
 VAL166  LYS551  ARG553  GLY616  TRP617  ASP618  TYR619  PRO620  LYS621  CYS622 
 ASP623  PHE694  ASN695  SER759  ASP760  ASP761  ALA762  ILE779  LEU786  VAL792 
 PHE793  MET794  SER795  GLU796  ALA797  LYS798  CYS799  TRP800  GLU811  SER814 

> <Gold.Protein.RotatedAtoms>
  151.2417  135.0591  159.9027 H   0  0  0  0  0  0  0  0  0  0  0  0  # atno 6907 bound_to 6896
  152.5392  134.0427  159.8085 H   0  0  0  0  0  0  0  0  0  0  0  0  # atno 6908 bound_to 6896
  151.0621  133.5486  159.2665 H   0  0  0  0  0  0  0  0  0  0  0  0  # atno 6909 bound_to 6896
  145.2139  139.2893  143.4254 H   0  0  0  0  0  0  0  0  0  0  0  0  # atno 7974 bound_to 7965
  156.0300  140.1280  157.0268 H   0  0  0  0  0  0  0  0  0  0  0  0  # atno 8008 bound_to 7997
  154.4346  140.1051  156.6156 H   0  0  0  0  0  0  0  0  0  0  0  0  # atno 8009 bound_to 7997
  155.5821  140.3468  155.4545 H   0  0  0  0  0  0  0  0  0  0  0  0  # atno 8010 bound_to 7997
  139.5462  144.2230  152.0991 H   0  0  0  0  0  0  0  0  0  0  0  0  # atno 10167 bound_to 10162
  157.5976  131.1056  150.7867 H   0  0  0  0  0  0  0  0  0  0  0  0  # atno 10718 bound_to 10713
  154.6392  135.2896  155.0124 H   0  0  0  0  0  0  0  0  0  0  0  0  # atno 10763 bound_to 10752
  154.1257  135.6541  153.4916 H   0  0  0  0  0  0  0  0  0  0  0  0  # atno 10764 bound_to 10752
  153.0318  135.5298  154.7251 H   0  0  0  0  0  0  0  0  0  0  0  0  # atno 10765 bound_to 10752
  140.7567  133.8548  155.9090 H   0  0  0  0  0  0  0  0  0  0  0  0  # atno 11005 bound_to 11000
  146.3391  140.2424  142.8596 LP  0  0  0  0  0  0  0  0  0  0  0  0  # atno 17320 bound_to 7965
  144.9829  140.8476  143.5386 LP  0  0  0  0  0  0  0  0  0  0  0  0  # atno 17321 bound_to 7965
  140.1717  144.4929  150.6576 LP  0  0  0  0  0  0  0  0  0  0  0  0  # atno 17342 bound_to 10162
  140.6710  143.2286  151.5624 LP  0  0  0  0  0  0  0  0  0  0  0  0  # atno 17343 bound_to 10162
  156.8273  130.5004  149.5335 LP  0  0  0  0  0  0  0  0  0  0  0  0  # atno 17370 bound_to 10713
  156.1042  130.5992  150.9943 LP  0  0  0  0  0  0  0  0  0  0  0  0  # atno 17371 bound_to 10713
  140.9700  134.1543  157.4584 LP  0  0  0  0  0  0  0  0  0  0  0  0  # atno 17394 bound_to 11000
  139.8778  134.9975  156.5851 LP  0  0  0  0  0  0  0  0  0  0  0  0  # atno 17395 bound_to 11000

$$$$
