AV-unprocessed.smi:1424|AV-procd|sdf|5802|dock8
  -GOLD-   22720 5453D 1   1.00000     0.00000
 Structure written by MMmdl.
 46 48  0  0  0  0  0  0  0  0  2 V2000
  144.4604  136.5291  152.0595 O   0  0  0  0  0  0  0  0  0  0  0  0
  145.6671  136.2908  152.1046 C   0  0  0  0  0  0  0  0  0  0  0  0
  146.5929  137.2081  152.4174 N   0  0  0  0  0  0  0  0  0  0  0  0
  146.3113  138.6044  152.7344 C   0  0  0  0  0  0  0  0  0  0  0  0
  147.5915  139.3893  153.0817 C   0  0  1  0  0  0  0  0  0  0  0  0
  147.2912  140.8256  153.5514 C   0  0  0  0  0  0  0  0  0  0  0  0
  148.5762  141.4285  154.1265 C   0  0  0  0  0  0  0  0  0  0  0  0
  149.4528  140.0381  154.9332 S   0  0  0  0  0  0  0  0  0  0  0  0
  150.8300  139.9763  154.4212 O   0  0  0  0  0  0  0  0  0  0  0  0
  149.1816  140.0600  156.3785 O   0  0  0  0  0  0  0  0  0  0  0  0
  148.4515  138.7098  154.1619 C   0  0  0  0  0  0  0  0  0  0  0  0
  146.2309  135.1031  151.8278 N   0  0  0  0  0  0  0  0  0  0  0  0
  145.5858  133.8979  151.4288 C   0  0  0  0  0  0  0  0  0  0  0  0
  144.4969  133.9147  150.5193 C   0  0  0  0  0  0  0  0  0  0  0  0
  143.8896  132.7076  150.1259 C   0  0  0  0  0  0  0  0  0  0  0  0
  144.3766  131.4991  150.6516 C   0  0  0  0  0  0  0  0  0  0  0  0
  145.3998  131.5168  151.5304 N   0  3  0  0  0  0  0  0  0  0  0  0
  146.0167  132.6465  151.9593 C   0  0  0  0  0  0  0  0  0  0  0  0
  147.0689  132.5066  152.8934 N   0  0  0  0  0  0  0  0  0  0  0  0
  148.3596  133.1421  152.6538 C   0  0  0  0  0  0  0  0  0  0  0  0
  149.3099  132.4995  153.6605 C   0  0  0  0  0  0  0  0  0  0  0  0
  148.7893  131.0675  153.7353 C   0  0  0  0  0  0  0  0  0  0  0  0
  147.2757  131.2205  153.5517 C   0  0  0  0  0  0  0  0  0  0  0  0
  147.5624  136.9269  152.4289 H   0  0  0  0  0  0  0  0  0  0  0  0
  145.7908  139.0770  151.8995 H   0  0  0  0  0  0  0  0  0  0  0  0
  145.6200  138.6257  153.5774 H   0  0  0  0  0  0  0  0  0  0  0  0
  148.2041  139.4738  152.1827 H   0  0  0  0  0  0  0  0  0  0  0  0
  146.8908  141.4397  152.7443 H   0  0  0  0  0  0  0  0  0  0  0  0
  146.5337  140.7971  154.3359 H   0  0  0  0  0  0  0  0  0  0  0  0
  149.2136  141.8123  153.3295 H   0  0  0  0  0  0  0  0  0  0  0  0
  148.3917  142.2281  154.8439 H   0  0  0  0  0  0  0  0  0  0  0  0
  147.8297  138.2688  154.9415 H   0  0  0  0  0  0  0  0  0  0  0  0
  149.1048  137.9357  153.7594 H   0  0  0  0  0  0  0  0  0  0  0  0
  147.2399  135.0863  151.8040 H   0  0  0  0  0  0  0  0  0  0  0  0
  144.1116  134.8404  150.1189 H   0  0  0  0  0  0  0  0  0  0  0  0
  143.0632  132.7108  149.4300 H   0  0  0  0  0  0  0  0  0  0  0  0
  143.9769  130.5260  150.4050 H   0  0  0  0  0  0  0  0  0  0  0  0
  148.7046  132.9332  151.6401 H   0  0  0  0  0  0  0  0  0  0  0  0
  148.3030  134.2234  152.7835 H   0  0  0  0  0  0  0  0  0  0  0  0
  150.3553  132.5596  153.3567 H   0  0  0  0  0  0  0  0  0  0  0  0
  149.2091  132.9841  154.6329 H   0  0  0  0  0  0  0  0  0  0  0  0
  149.2025  130.4850  152.9107 H   0  0  0  0  0  0  0  0  0  0  0  0
  149.0547  130.5657  154.6663 H   0  0  0  0  0  0  0  0  0  0  0  0
  146.7839  131.2416  154.5247 H   0  0  0  0  0  0  0  0  0  0  0  0
  146.8603  130.3917  152.9769 H   0  0  0  0  0  0  0  0  0  0  0  0
  145.7240  130.6236  151.9015 H   0  0  0  0  0  0  0  0  0  0  0  0
  1  2  2  0  0  0  0
  2  3  1  0  0  0  0
  2 12  1  0  0  0  0
  3  4  1  0  0  0  0
  3 24  1  0  0  0  0
  4  5  1  0  0  0  0
  4 25  1  0  0  0  0
  4 26  1  0  0  0  0
  5 11  1  0  0  0  0
  5  6  1  0  0  0  0
  5 27  1  0  0  0  0
  6  7  1  0  0  0  0
  6 28  1  0  0  0  0
  6 29  1  0  0  0  0
  7  8  1  0  0  0  0
  7 30  1  0  0  0  0
  7 31  1  0  0  0  0
  8  9  2  0  0  0  0
  8 10  2  0  0  0  0
  8 11  1  0  0  0  0
 11 32  1  0  0  0  0
 11 33  1  0  0  0  0
 12 13  1  0  0  0  0
 12 34  1  0  0  0  0
 13 18  1  0  0  0  0
 13 14  2  0  0  0  0
 14 15  1  0  0  0  0
 14 35  1  0  0  0  0
 15 16  2  0  0  0  0
 15 36  1  0  0  0  0
 16 17  1  0  0  0  0
 16 37  1  0  0  0  0
 17 18  2  0  0  0  0
 17 46  1  0  0  0  0
 18 19  1  0  0  0  0
 19 23  1  0  0  0  0
 19 20  1  0  0  0  0
 20 21  1  0  0  0  0
 20 38  1  0  0  0  0
 20 39  1  0  0  0  0
 21 22  1  0  0  0  0
 21 40  1  0  0  0  0
 21 41  1  0  0  0  0
 22 23  1  0  0  0  0
 22 42  1  0  0  0  0
 22 43  1  0  0  0  0
 23 44  1  0  0  0  0
 23 45  1  0  0  0  0
M  CHG  1  17   1
M  END
> <s_m_source_file>
AV-unprocessed.smi

> <i_m_source_file_index>
1424

> <i_lp_mmshare_version>
43012

> <i_f3d_flags>
0

> <s_epik_input>
Tz1TMSg9TylbQ0gyXVtDSDJdW0NASF0oW0NIMl0xKVtDSDJdW05IXUMoPU8pW05IXWMyW2NIXVtjSF1bY0hdbmMyTjNbQ0gyXVtDSDJdW0NIMl1bQ0gyXTM=

> <s_epik_cmdline>
J2VwaWtfcHl0aG9uJywgJy1waCcsICc3LjAnLCAnLXRuJywgJzgnLCAnLW1hJywgJzIwMCcsICctbWV0YWxfYmluZGluZycsICctaW1hZScsICc8aW5maWxlLm1hZT4nLCAnLW9tYWUnLCAnPG91dGZpbGUubWFlPic=

> <r_lp_tautomer_probability>
0.999994

> <r_epik_Ionization_Penalty>
1.12573

> <r_epik_Ionization_Penalty_Charging>
1.12571

> <r_epik_Ionization_Penalty_Neutral>
1.92863e-05

> <r_epik_State_Penalty>
1.18495

> <r_epik_Charging_Adjusted_Penalty>
2.31065

> <i_epik_Tot_Q>
1

> <i_epik_Tot_abs_Q>
1

> <r_epik_Metal_State_Penalty>
1.26881

> <b_epik_Metal_Only>
0

> <s_lp_Force_Field>
OPLS_2005

> <r_lp_Energy>
39.7192

> <b_lp_Chiralities_Consistent>
1

> <s_lp_Variant>
AV-unprocessed.smi:1424-4

> <Gold.Version>
5.8.1

> <Gold.Id.Protein>
6NUR|6NUR_protein|mol2

> <Gold.PLP.Fitness>
48.2894

> <Gold.PLP.PLP>
-40.1769

> <Gold.PLP.part.hbond>
-3.0000

> <Gold.PLP.part.metal>
0.0000

> <Gold.PLP.part.buried>
-3.8724

> <Gold.PLP.part.nonpolar>
-34.8507

> <Gold.PLP.part.repulsive>
1.0896

> <Gold.PLP.ligand.clash>
0.0000

> <Gold.PLP.ligand.torsion>
0.5380

> <Gold.PLP.Chemscore.Hbond>
2.9280

> <Gold.PLP.Chemscore.CHOScore>
0.0000

> <Gold.PLP.Chemscore.Metal>
0.0000

> <Gold.Chemscore.Hbonds>
donor molecule, donor type, donor heavy atom, donor atom, acceptor molecule, acceptor atom, score
      L1  H     3    24       P1  7948  1.00
      L1  H    12    34       P1  7948  0.93
      P1  H  7989  7998       L1     9  0.96

> <Gold.PLP.Chemscore.Internal.Correction>
0.4046

> <Gold.Rescore>
     Score         DG    S(hbond)    S(metal)    S(lipo)     H(rot)  DE(clash)    DE(int)     intcor
     18.68     -21.32       2.88        0.00      86.03       1.50       0.09       2.55       ----

> <Gold.Chemscore.Fitness>
18.6833

> <Gold.Chemscore.DG>
-21.3184

> <Gold.Chemscore.ZeroCoef>
-5.4800

> <Gold.Chemscore.Hbond>
2.8751

> <Gold.Chemscore.Metal>
0.0000

> <Gold.Chemscore.Lipo>
86.0332

> <Gold.Chemscore.Internal_Hbond>
0.0000

> <Gold.Chemscore.DEClash>
0.0881

> <Gold.Chemscore.DEInternal>
2.5470

> <Gold.Chemscore.Rot>
1.4962

> <Gold.Chemscore.Internal.Correction>
   9.000000E+99

> <Gold.Chemscore.Hbonds>
donor molecule, donor type, donor heavy atom, donor atom, acceptor molecule, acceptor atom, score
      L1  H     3    24       P1  7948  0.98
      L1  H    12    34       P1  7948  0.80
      P1  H  7989  7998       L1     9  0.91

> <Gold.Chemscore.Hbond.Weighted>
-9.6028

> <Gold.Chemscore.Metal.Weighted>
-0.0000

> <Gold.Chemscore.Lipo.Weighted>
-10.0659

> <Gold.Chemscore.Internal_Hbond.Weighted>
0.0000

> <Gold.Chemscore.DEClash.Weighted>
0.0881

> <Gold.Chemscore.DEInternal.Weighted>
2.5470

> <Gold.Chemscore.Rot.Weighted>
3.8303

> <Gold.Chemscore.Internal.Correction.Weighted>
   9.000000E+99

> <Gold.Protein.RotatedTorsions>
[ 6907 6896 6895 6894 ] final   79.90 input  -60.11 | X-H torsion
[ 7974 7965 7964 7962 ] final  -55.50 input  175.53 | X-H torsion
[ 8008 7997 7996 7995 ] final  111.02 input   59.86 | X-H torsion
[ 10167 10162 10161 10158 ] final   81.74 input  -65.29 | X-H torsion
[ 10718 10713 10712 10709 ] final  -95.32 input   66.30 | X-H torsion
[ 10763 10752 10751 10750 ] final  144.77 input  -60.55 | X-H torsion
[ 11005 11000 10999 10996 ] final   -3.88 input  -57.11 | X-H torsion

> <Gold.Protein.ActiveResidues>
 VAL166  LYS551  ARG553  GLY616  TRP617  ASP618  TYR619  PRO620  LYS621  CYS622 
 ASP623  PHE694  ASN695  SER759  ASP760  ASP761  ALA762  ILE779  LEU786  VAL792 
 PHE793  MET794  SER795  GLU796  ALA797  LYS798  CYS799  TRP800  GLU811  SER814 

> <Gold.Protein.RotatedAtoms>
  152.5215  134.3441  159.9227 H   0  0  0  0  0  0  0  0  0  0  0  0  # atno 6907 bound_to 6896
  151.3391  133.3963  159.2677 H   0  0  0  0  0  0  0  0  0  0  0  0  # atno 6908 bound_to 6896
  150.9818  134.9190  159.7906 H   0  0  0  0  0  0  0  0  0  0  0  0  # atno 6909 bound_to 6896
  145.8734  140.8199  142.9876 H   0  0  0  0  0  0  0  0  0  0  0  0  # atno 7974 bound_to 7965
  156.2094  140.3027  155.9699 H   0  0  0  0  0  0  0  0  0  0  0  0  # atno 8008 bound_to 7997
  155.2761  140.0436  157.3028 H   0  0  0  0  0  0  0  0  0  0  0  0  # atno 8009 bound_to 7997
  154.5678  140.2339  155.8245 H   0  0  0  0  0  0  0  0  0  0  0  0  # atno 8010 bound_to 7997
  139.9360  144.6121  150.8298 H   0  0  0  0  0  0  0  0  0  0  0  0  # atno 10167 bound_to 10162
  156.0041  130.5104  150.6058 H   0  0  0  0  0  0  0  0  0  0  0  0  # atno 10718 bound_to 10713
  153.9944  135.2929  155.3409 H   0  0  0  0  0  0  0  0  0  0  0  0  # atno 10763 bound_to 10752
  154.7196  135.5115  153.8794 H   0  0  0  0  0  0  0  0  0  0  0  0  # atno 10764 bound_to 10752
  153.0794  135.6674  154.0193 H   0  0  0  0  0  0  0  0  0  0  0  0  # atno 10765 bound_to 10752
  140.6742  133.9210  155.8513 H   0  0  0  0  0  0  0  0  0  0  0  0  # atno 11005 bound_to 11000
  144.6726  140.1274  143.7446 LP  0  0  0  0  0  0  0  0  0  0  0  0  # atno 17320 bound_to 7965
  145.9109  139.2487  143.1438 LP  0  0  0  0  0  0  0  0  0  0  0  0  # atno 17321 bound_to 7965
  140.7624  143.3198  151.2649 LP  0  0  0  0  0  0  0  0  0  0  0  0  # atno 17342 bound_to 10162
  139.6743  143.9965  152.2771 LP  0  0  0  0  0  0  0  0  0  0  0  0  # atno 17343 bound_to 10162
  157.3899  131.0794  151.1402 LP  0  0  0  0  0  0  0  0  0  0  0  0  # atno 17370 bound_to 10713
  157.2097  130.6432  149.5769 LP  0  0  0  0  0  0  0  0  0  0  0  0  # atno 17371 bound_to 10713
  141.0368  134.0677  157.3949 LP  0  0  0  0  0  0  0  0  0  0  0  0  # atno 17394 bound_to 11000
  139.8972  135.0149  156.7088 LP  0  0  0  0  0  0  0  0  0  0  0  0  # atno 17395 bound_to 11000

$$$$
