AV-unprocessed.smi:1867|AV-procd|sdf|7573|dock8
  -GOLD-   22720 9283D 1   1.00000     0.00000
 Structure written by MMmdl.
 53 56  0  0  0  0  0  0  0  0  3 V2000
  146.6365  139.5735  154.0149 O   0  0  0  0  0  0  0  0  0  0  0  0
  147.5098  138.8645  153.5220 C   0  0  0  0  0  0  0  0  0  0  0  0
  148.8325  138.9972  153.7477 N   0  0  0  0  0  0  0  0  0  0  0  0
  149.5208  139.9365  154.5654 C   0  0  0  0  0  0  0  0  0  0  0  0
  150.6896  139.4925  155.2197 C   0  0  0  0  0  0  0  0  0  0  0  0
  151.4119  140.3754  156.0483 C   0  0  0  0  0  0  0  0  0  0  0  0
  150.9583  141.7044  156.2187 C   0  0  0  0  0  0  0  0  0  0  0  0
  151.6203  142.6417  157.0343 N   0  0  0  0  0  0  0  0  0  0  0  0
  151.2888  144.0560  156.9961 C   0  0  0  0  0  0  0  0  0  0  0  0
  152.1181  144.6767  158.1196 C   0  0  0  0  0  0  0  0  0  0  0  0
  152.1892  143.5575  159.1588 C   0  0  0  0  0  0  0  0  0  0  0  0
  152.1875  142.2711  158.3246 C   0  0  0  0  0  0  0  0  0  0  0  0
  149.8280  142.0865  155.5786 N   0  3  0  0  0  0  0  0  0  0  0  0
  149.1060  141.2742  154.7766 C   0  0  0  0  0  0  0  0  0  0  0  0
  147.1921  137.8637  152.6812 N   0  0  0  0  0  0  0  0  0  0  0  0
  145.8647  137.4487  152.2259 C   0  0  1  0  0  0  0  0  0  0  0  0
  145.8793  136.3877  151.1280 C   0  0  0  0  0  0  0  0  0  0  0  0
  144.4731  135.7938  151.2324 C   0  0  0  0  0  0  0  0  0  0  0  0
  144.1106  135.8531  152.6671 N   0  3  2  0  0  0  0  0  0  0  0  0
  142.6760  136.1214  152.9325 C   0  0  0  0  0  0  0  0  0  0  0  0
  142.3985  136.1521  154.4473 C   0  0  0  0  0  0  0  0  0  0  0  0
  143.3729  137.0632  155.2244 C   0  0  0  0  0  0  0  0  0  0  0  0
  144.3787  137.7684  154.3015 C   0  0  0  0  0  0  0  0  0  0  0  0
  145.0702  136.7666  153.3499 C   0  0  2  0  0  0  0  0  0  0  0  0
  149.4248  138.3488  153.2505 H   0  0  0  0  0  0  0  0  0  0  0  0
  151.0363  138.4776  155.0902 H   0  0  0  0  0  0  0  0  0  0  0  0
  152.3033  140.0199  156.5436 H   0  0  0  0  0  0  0  0  0  0  0  0
  151.5260  144.5023  156.0299 H   0  0  0  0  0  0  0  0  0  0  0  0
  150.2225  144.1847  157.1872 H   0  0  0  0  0  0  0  0  0  0  0  0
  153.1211  144.9047  157.7564 H   0  0  0  0  0  0  0  0  0  0  0  0
  151.6836  145.5972  158.5105 H   0  0  0  0  0  0  0  0  0  0  0  0
  153.0591  143.6370  159.8115 H   0  0  0  0  0  0  0  0  0  0  0  0
  151.2972  143.5871  159.7861 H   0  0  0  0  0  0  0  0  0  0  0  0
  151.6156  141.4861  158.8210 H   0  0  0  0  0  0  0  0  0  0  0  0
  153.2044  141.9088  158.1705 H   0  0  0  0  0  0  0  0  0  0  0  0
  148.2295  141.7367  154.3503 H   0  0  0  0  0  0  0  0  0  0  0  0
  147.9669  137.3256  152.3195 H   0  0  0  0  0  0  0  0  0  0  0  0
  145.3028  138.3152  151.8715 H   0  0  0  0  0  0  0  0  0  0  0  0
  146.0914  136.7963  150.1395 H   0  0  0  0  0  0  0  0  0  0  0  0
  146.6263  135.6226  151.3462 H   0  0  0  0  0  0  0  0  0  0  0  0
  143.7823  136.4045  150.6487 H   0  0  0  0  0  0  0  0  0  0  0  0
  144.4204  134.7744  150.8496 H   0  0  0  0  0  0  0  0  0  0  0  0
  142.3888  137.0717  152.4791 H   0  0  0  0  0  0  0  0  0  0  0  0
  142.0682  135.3509  152.4567 H   0  0  0  0  0  0  0  0  0  0  0  0
  141.3711  136.4740  154.6211 H   0  0  0  0  0  0  0  0  0  0  0  0
  142.4652  135.1387  154.8458 H   0  0  0  0  0  0  0  0  0  0  0  0
  142.8166  137.8050  155.7986 H   0  0  0  0  0  0  0  0  0  0  0  0
  143.9173  136.4634  155.9550 H   0  0  0  0  0  0  0  0  0  0  0  0
  143.8561  138.5340  153.7260 H   0  0  0  0  0  0  0  0  0  0  0  0
  145.1248  138.2973  154.8957 H   0  0  0  0  0  0  0  0  0  0  0  0
  145.7353  136.1235  153.9293 H   0  0  0  0  0  0  0  0  0  0  0  0
  144.2986  134.9365  153.0480 H   0  0  0  0  0  0  0  0  0  0  0  0
  149.5004  143.0436  155.7099 H   0  0  0  0  0  0  0  0  0  0  0  0
  1  2  2  0  0  0  0
  2  3  1  0  0  0  0
  2 15  1  0  0  0  0
  3  4  1  0  0  0  0
  3 25  1  0  0  0  0
  4 14  1  0  0  0  0
  4  5  2  0  0  0  0
  5  6  1  0  0  0  0
  5 26  1  0  0  0  0
  6  7  2  0  0  0  0
  6 27  1  0  0  0  0
  7  8  1  0  0  0  0
  7 13  1  0  0  0  0
  8 12  1  0  0  0  0
  8  9  1  0  0  0  0
  9 10  1  0  0  0  0
  9 28  1  0  0  0  0
  9 29  1  0  0  0  0
 10 11  1  0  0  0  0
 10 30  1  0  0  0  0
 10 31  1  0  0  0  0
 11 12  1  0  0  0  0
 11 32  1  0  0  0  0
 11 33  1  0  0  0  0
 12 34  1  0  0  0  0
 12 35  1  0  0  0  0
 13 14  2  0  0  0  0
 13 53  1  0  0  0  0
 14 36  1  0  0  0  0
 15 16  1  0  0  0  0
 15 37  1  0  0  0  0
 16 24  1  0  0  0  0
 16 17  1  0  0  0  0
 16 38  1  0  0  0  0
 17 18  1  0  0  0  0
 17 39  1  0  0  0  0
 17 40  1  0  0  0  0
 18 19  1  0  0  0  0
 18 41  1  0  0  0  0
 18 42  1  0  0  0  0
 19 24  1  0  0  0  0
 19 20  1  0  0  0  0
 19 52  1  0  0  0  0
 20 21  1  0  0  0  0
 20 43  1  0  0  0  0
 20 44  1  0  0  0  0
 21 22  1  0  0  0  0
 21 45  1  0  0  0  0
 21 46  1  0  0  0  0
 22 23  1  0  0  0  0
 22 47  1  0  0  0  0
 22 48  1  0  0  0  0
 23 24  1  0  0  0  0
 23 49  1  0  0  0  0
 23 50  1  0  0  0  0
 24 51  1  0  0  0  0
M  CHG  1  13   1
M  CHG  1  19   1
M  END
> <s_m_source_file>
AV-unprocessed.smi

> <i_m_source_file_index>
1867

> <i_lp_mmshare_version>
43012

> <i_f3d_flags>
0

> <s_epik_input>
W0NIMl0xW0NIMl1bQ0gyXVtDSDJdW0NASF0oTjEyKVtDQEBIXShbQ0gyXVtDSDJdMilbTkhdQyg9TylbTkhdYzNbY0hdW2NIXWMobltjSF0zKU40W0NIMl1bQ0gyXVtDSDJdW0NIMl00

> <s_epik_cmdline>
J2VwaWtfcHl0aG9uJywgJy1waCcsICc3LjAnLCAnLXRuJywgJzgnLCAnLW1hJywgJzIwMCcsICctbWV0YWxfYmluZGluZycsICctaW1hZScsICc8aW5maWxlLm1hZT4nLCAnLW9tYWUnLCAnPG91dGZpbGUubWFlPic=

> <r_lp_tautomer_probability>
0.999994

> <r_epik_Ionization_Penalty>
1.27347

> <r_epik_Ionization_Penalty_Charging>
1.27345

> <r_epik_Ionization_Penalty_Neutral>
1.96458e-05

> <r_epik_State_Penalty>
1.34393

> <r_epik_Charging_Adjusted_Penalty>
2.61738

> <i_epik_Tot_Q>
2

> <i_epik_Tot_abs_Q>
2

> <r_epik_Metal_State_Penalty>
1.41094

> <b_epik_Metal_Only>
0

> <s_lp_Force_Field>
OPLS_2005

> <r_lp_Energy>
84.8883

> <b_lp_Chiralities_Consistent>
1

> <s_lp_Variant>
AV-unprocessed.smi:1867-14

> <Gold.Version>
5.8.1

> <Gold.Id.Protein>
6NUR|6NUR_protein|mol2

> <Gold.PLP.Fitness>
49.8776

> <Gold.PLP.PLP>
-42.0628

> <Gold.PLP.part.hbond>
-2.9883

> <Gold.PLP.part.metal>
0.0000

> <Gold.PLP.part.buried>
-2.1783

> <Gold.PLP.part.nonpolar>
-36.4265

> <Gold.PLP.part.repulsive>
0.4375

> <Gold.PLP.ligand.clash>
0.0000

> <Gold.PLP.ligand.torsion>
0.6743

> <Gold.PLP.Chemscore.Hbond>
2.9913

> <Gold.PLP.Chemscore.CHOScore>
0.0000

> <Gold.PLP.Chemscore.Metal>
0.0000

> <Gold.Chemscore.Hbonds>
donor molecule, donor type, donor heavy atom, donor atom, acceptor molecule, acceptor atom, score
      L1  H    13    53       P1  8028  2.00
      L1  H    15    37       P1  7948  0.99

> <Gold.PLP.Chemscore.Internal.Correction>
0.1897

> <Gold.Rescore>
     Score         DG    S(hbond)    S(metal)    S(lipo)     H(rot)  DE(clash)    DE(int)     intcor
     19.43     -21.53       1.99        0.00     102.31       1.00       0.14       1.96       ----

> <Gold.Chemscore.Fitness>
19.4323

> <Gold.Chemscore.DG>
-21.5302

> <Gold.Chemscore.ZeroCoef>
-5.4800

> <Gold.Chemscore.Hbond>
1.9881

> <Gold.Chemscore.Metal>
0.0000

> <Gold.Chemscore.Lipo>
102.3064

> <Gold.Chemscore.Internal_Hbond>
0.0000

> <Gold.Chemscore.DEClash>
0.1387

> <Gold.Chemscore.DEInternal>
1.9592

> <Gold.Chemscore.Rot>
1.0000

> <Gold.Chemscore.Internal.Correction>
   9.000000E+99

> <Gold.Chemscore.Hbonds>
donor molecule, donor type, donor heavy atom, donor atom, acceptor molecule, acceptor atom, score
      L1  H    13    53       P1  8028  1.00
      L1  H    15    37       P1  7948  0.92

> <Gold.Chemscore.Hbond.Weighted>
-6.6404

> <Gold.Chemscore.Metal.Weighted>
-0.0000

> <Gold.Chemscore.Lipo.Weighted>
-11.9699

> <Gold.Chemscore.Internal_Hbond.Weighted>
0.0000

> <Gold.Chemscore.DEClash.Weighted>
0.1387

> <Gold.Chemscore.DEInternal.Weighted>
1.9592

> <Gold.Chemscore.Rot.Weighted>
2.5600

> <Gold.Chemscore.Internal.Correction.Weighted>
   9.000000E+99

> <Gold.Protein.RotatedTorsions>
[ 6907 6896 6895 6894 ] final   22.90 input  -60.11 | X-H torsion
[ 7974 7965 7964 7962 ] final -172.22 input  175.53 | X-H torsion
[ 8008 7997 7996 7995 ] final   52.02 input   59.86 | X-H torsion
[ 10167 10162 10161 10158 ] final -102.34 input  -65.29 | X-H torsion
[ 10718 10713 10712 10709 ] final -145.36 input   66.30 | X-H torsion
[ 10763 10752 10751 10750 ] final -131.16 input  -60.55 | X-H torsion
[ 11005 11000 10999 10996 ] final -147.30 input  -57.11 | X-H torsion

> <Gold.Protein.ActiveResidues>
 VAL166  LYS551  ARG553  GLY616  TRP617  ASP618  TYR619  PRO620  LYS621  CYS622 
 ASP623  PHE694  ASN695  SER759  ASP760  ASP761  ALA762  ILE779  LEU786  VAL792 
 PHE793  MET794  SER795  GLU796  ALA797  LYS798  CYS799  TRP800  GLU811  SER814 

> <Gold.Protein.RotatedAtoms>
  151.9342  135.0243  160.0531 H   0  0  0  0  0  0  0  0  0  0  0  0  # atno 6907 bound_to 6896
  152.2092  133.4894  159.5109 H   0  0  0  0  0  0  0  0  0  0  0  0  # atno 6908 bound_to 6896
  150.6972  134.1406  159.4146 H   0  0  0  0  0  0  0  0  0  0  0  0  # atno 6909 bound_to 6896
  144.7148  140.1805  143.6359 H   0  0  0  0  0  0  0  0  0  0  0  0  # atno 7974 bound_to 7965
  155.4449  140.3456  155.4294 H   0  0  0  0  0  0  0  0  0  0  0  0  # atno 8008 bound_to 7997
  156.1256  140.1499  156.9171 H   0  0  0  0  0  0  0  0  0  0  0  0  # atno 8009 bound_to 7997
  154.4855  140.0856  156.7457 H   0  0  0  0  0  0  0  0  0  0  0  0  # atno 8010 bound_to 7997
  140.2317  143.3602  152.0880 H   0  0  0  0  0  0  0  0  0  0  0  0  # atno 10167 bound_to 10162
  156.3815  130.7839  151.2032 H   0  0  0  0  0  0  0  0  0  0  0  0  # atno 10718 bound_to 10713
  154.8752  135.3839  154.4201 H   0  0  0  0  0  0  0  0  0  0  0  0  # atno 10763 bound_to 10752
  153.4906  135.7030  153.5891 H   0  0  0  0  0  0  0  0  0  0  0  0  # atno 10764 bound_to 10752
  153.4267  135.3888  155.2112 H   0  0  0  0  0  0  0  0  0  0  0  0  # atno 10765 bound_to 10752
  140.7730  134.3167  157.5069 H   0  0  0  0  0  0  0  0  0  0  0  0  # atno 11005 bound_to 11000
  145.8861  139.2349  143.1577 LP  0  0  0  0  0  0  0  0  0  0  0  0  # atno 17320 bound_to 7965
  145.9948  140.8571  143.0048 LP  0  0  0  0  0  0  0  0  0  0  0  0  # atno 17321 bound_to 7965
  139.5107  144.6889  151.5812 LP  0  0  0  0  0  0  0  0  0  0  0  0  # atno 17342 bound_to 10162
  140.6180  143.9312  150.6503 LP  0  0  0  0  0  0  0  0  0  0  0  0  # atno 17343 bound_to 10162
  157.7492  131.0342  150.4309 LP  0  0  0  0  0  0  0  0  0  0  0  0  # atno 17370 bound_to 10713
  156.4554  130.4020  149.6610 LP  0  0  0  0  0  0  0  0  0  0  0  0  # atno 17371 bound_to 10713
  139.8753  134.9272  156.3420 LP  0  0  0  0  0  0  0  0  0  0  0  0  # atno 17394 bound_to 11000
  140.9555  133.7422  156.0330 LP  0  0  0  0  0  0  0  0  0  0  0  0  # atno 17395 bound_to 11000

$$$$
