AV-unprocessed.smi:1703|AV-procd|sdf|6854|dock9
  -GOLD-   22720 8 33D 1   1.00000     0.00000
 Structure written by MMmdl.
 48 50  0  0  0  0  0  0  0  0  1 V2000
  155.5840  133.4684  163.3024 C   0  0  0  0  0  0  0  0  0  0  0  0
  154.6872  134.6967  163.1151 C   0  0  2  0  0  0  0  0  0  0  0  0
  154.7440  135.2465  161.6772 C   0  0  0  0  0  0  0  0  0  0  0  0
  153.9482  136.4589  161.5213 N   0  0  0  0  0  0  0  0  0  0  0  0
  154.0098  136.9482  160.1424 C   0  0  0  0  0  0  0  0  0  0  0  0
  152.8618  137.8854  159.7182 C   0  0  2  0  0  0  0  0  0  0  0  0
  151.7241  137.0987  159.4251 O   0  0  0  0  0  0  0  0  0  0  0  0
  153.2390  138.7194  158.4784 C   0  0  0  0  0  0  0  0  0  0  0  0
  152.5260  139.9893  158.4245 N   0  0  0  0  0  0  0  0  0  0  0  0
  151.6334  140.4194  157.4970 C   0  0  0  0  0  0  0  0  0  0  0  0
  151.2510  139.5671  156.3204 C   0  0  0  0  0  0  0  0  0  0  0  0
  150.9578  140.3043  155.1511 O   0  0  0  0  0  0  0  0  0  0  0  0
  151.1303  141.6391  157.7044 N   0  0  0  0  0  0  0  0  0  0  0  0
  151.7570  142.0358  158.8691 C   0  0  0  0  0  0  0  0  0  0  0  0
  151.6495  143.2357  159.6084 C   0  0  0  0  0  0  0  0  0  0  0  0
  152.4023  143.4174  160.7872 C   0  0  0  0  0  0  0  0  0  0  0  0
  153.2706  142.4043  161.2432 C   0  0  0  0  0  0  0  0  0  0  0  0
  153.3922  141.2013  160.5214 C   0  0  0  0  0  0  0  0  0  0  0  0
  152.6389  141.0256  159.3453 C   0  0  0  0  0  0  0  0  0  0  0  0
  154.4008  137.4484  162.4971 C   0  0  0  0  0  0  0  0  0  0  0  0
  154.3465  136.9036  163.9376 C   0  0  2  0  0  0  0  0  0  0  0  0
  154.8970  137.9064  164.9569 C   0  0  0  0  0  0  0  0  0  0  0  0
  155.1220  135.7109  164.0166 O   0  0  0  0  0  0  0  0  0  0  0  0
  155.2842  132.6585  162.6371 H   0  0  0  0  0  0  0  0  0  0  0  0
  155.5264  133.0966  164.3257 H   0  0  0  0  0  0  0  0  0  0  0  0
  156.6274  133.7058  163.0928 H   0  0  0  0  0  0  0  0  0  0  0  0
  153.6600  134.4212  163.3604 H   0  0  0  0  0  0  0  0  0  0  0  0
  155.7815  135.4501  161.4067 H   0  0  0  0  0  0  0  0  0  0  0  0
  154.3872  134.4816  160.9865 H   0  0  0  0  0  0  0  0  0  0  0  0
  154.9626  137.4576  159.9887 H   0  0  0  0  0  0  0  0  0  0  0  0
  154.0176  136.0970  159.4598 H   0  0  0  0  0  0  0  0  0  0  0  0
  152.6070  138.5697  160.5261 H   0  0  0  0  0  0  0  0  0  0  0  0
  150.9656  137.5262  159.7934 H   0  0  0  0  0  0  0  0  0  0  0  0
  154.3076  138.9375  158.4911 H   0  0  0  0  0  0  0  0  0  0  0  0
  153.0589  138.1539  157.5642 H   0  0  0  0  0  0  0  0  0  0  0  0
  152.0681  138.8797  156.1002 H   0  0  0  0  0  0  0  0  0  0  0  0
  150.3774  138.9675  156.5754 H   0  0  0  0  0  0  0  0  0  0  0  0
  150.0491  140.1636  154.9325 H   0  0  0  0  0  0  0  0  0  0  0  0
  150.9871  144.0175  159.2672 H   0  0  0  0  0  0  0  0  0  0  0  0
  152.3130  144.3385  161.3440 H   0  0  0  0  0  0  0  0  0  0  0  0
  153.8435  142.5512  162.1472 H   0  0  0  0  0  0  0  0  0  0  0  0
  154.0558  140.4229  160.8675 H   0  0  0  0  0  0  0  0  0  0  0  0
  155.4205  137.7584  162.2625 H   0  0  0  0  0  0  0  0  0  0  0  0
  153.7823  138.3433  162.4460 H   0  0  0  0  0  0  0  0  0  0  0  0
  153.3131  136.6706  164.2002 H   0  0  0  0  0  0  0  0  0  0  0  0
  154.3272  138.8358  164.9402 H   0  0  0  0  0  0  0  0  0  0  0  0
  155.9397  138.1485  164.7495 H   0  0  0  0  0  0  0  0  0  0  0  0
  154.8434  137.5023  165.9682 H   0  0  0  0  0  0  0  0  0  0  0  0
  1  2  1  0  0  0  0
  1 24  1  0  0  0  0
  1 25  1  0  0  0  0
  1 26  1  0  0  0  0
  2 23  1  0  0  0  0
  2  3  1  0  0  0  0
  2 27  1  0  0  0  0
  3  4  1  0  0  0  0
  3 28  1  0  0  0  0
  3 29  1  0  0  0  0
  4  5  1  0  0  0  0
  4 20  1  0  0  0  0
  5  6  1  0  0  0  0
  5 30  1  0  0  0  0
  5 31  1  0  0  0  0
  6  7  1  0  0  0  0
  6  8  1  0  0  0  0
  6 32  1  0  0  0  0
  7 33  1  0  0  0  0
  8  9  1  0  0  0  0
  8 34  1  0  0  0  0
  8 35  1  0  0  0  0
  9 19  1  0  0  0  0
  9 10  1  0  0  0  0
 10 11  1  0  0  0  0
 10 13  2  0  0  0  0
 11 12  1  0  0  0  0
 11 36  1  0  0  0  0
 11 37  1  0  0  0  0
 12 38  1  0  0  0  0
 13 14  1  0  0  0  0
 14 19  2  0  0  0  0
 14 15  1  0  0  0  0
 15 16  2  0  0  0  0
 15 39  1  0  0  0  0
 16 17  1  0  0  0  0
 16 40  1  0  0  0  0
 17 18  2  0  0  0  0
 17 41  1  0  0  0  0
 18 19  1  0  0  0  0
 18 42  1  0  0  0  0
 20 21  1  0  0  0  0
 20 43  1  0  0  0  0
 20 44  1  0  0  0  0
 21 22  1  0  0  0  0
 21 23  1  0  0  0  0
 21 45  1  0  0  0  0
 22 46  1  0  0  0  0
 22 47  1  0  0  0  0
 22 48  1  0  0  0  0
M  END
> <s_m_source_file>
AV-unprocessed.smi

> <i_m_source_file_index>
1703

> <i_lp_mmshare_version>
43012

> <i_f3d_flags>
0

> <s_epik_input>
W0NIM11bQ0BASF0xW0NIMl1OKFtDSDJdW0NASF0oTzEpW0NIM10pW0NIMl1bQ0BIXShbT0hdKVtDSDJdbihjKG4yKVtDSDJdW09IXSljKGMyMylbY0hdW2NIXVtjSF1bY0hdMw==

> <s_epik_cmdline>
J2VwaWtfcHl0aG9uJywgJy1waCcsICc3LjAnLCAnLXRuJywgJzgnLCAnLW1hJywgJzIwMCcsICctbWV0YWxfYmluZGluZycsICctaW1hZScsICc8aW5maWxlLm1hZT4nLCAnLW9tYWUnLCAnPG91dGZpbGUubWFlPic=

> <r_epik_Ionization_Penalty>
0.307685

> <r_epik_Ionization_Penalty_Charging>
0

> <r_epik_Ionization_Penalty_Neutral>
0.307685

> <r_epik_State_Penalty>
0.277856

> <r_epik_Charging_Adjusted_Penalty>
0.277856

> <i_epik_Tot_Q>
0

> <i_epik_Tot_abs_Q>
0

> <r_epik_Metal_State_Penalty>
0.238959

> <b_epik_Metal_Only>
0

> <s_lp_Force_Field>
OPLS_2005

> <r_lp_Energy>
28.9256

> <b_lp_Chiralities_Consistent>
1

> <s_lp_Variant>
AV-unprocessed.smi:1703-2

> <Gold.Version>
5.8.1

> <Gold.Id.Protein>
6NUR|6NUR_protein|mol2

> <Gold.PLP.Fitness>
48.3713

> <Gold.PLP.PLP>
-44.4467

> <Gold.PLP.part.hbond>
-2.0000

> <Gold.PLP.part.metal>
0.0000

> <Gold.PLP.part.buried>
-6.6900

> <Gold.PLP.part.nonpolar>
-36.2388

> <Gold.PLP.part.repulsive>
0.0966

> <Gold.PLP.ligand.clash>
0.0000

> <Gold.PLP.ligand.torsion>
1.0588

> <Gold.PLP.Chemscore.Hbond>
2.0000

> <Gold.PLP.Chemscore.CHOScore>
0.0000

> <Gold.PLP.Chemscore.Metal>
0.0000

> <Gold.Chemscore.Hbonds>
donor molecule, donor type, donor heavy atom, donor atom, acceptor molecule, acceptor atom, score
      P1  H  6896  6907       L1     7  1.00
      P1  H  7989  7998       L1    12  1.00

> <Gold.PLP.Chemscore.Internal.Correction>
0.0422

> <Gold.Rescore>
     Score         DG    S(hbond)    S(metal)    S(lipo)     H(rot)  DE(clash)    DE(int)     intcor
     17.08     -18.10       1.84        0.00     118.40       2.88       0.00       1.02       ----

> <Gold.Chemscore.Fitness>
17.0771

> <Gold.Chemscore.DG>
-18.1018

> <Gold.Chemscore.ZeroCoef>
-5.4800

> <Gold.Chemscore.Hbond>
1.8372

> <Gold.Chemscore.Metal>
0.0000

> <Gold.Chemscore.Lipo>
118.3977

> <Gold.Chemscore.Internal_Hbond>
0.0000

> <Gold.Chemscore.DEClash>
0.0000

> <Gold.Chemscore.DEInternal>
1.0246

> <Gold.Chemscore.Rot>
2.8778

> <Gold.Chemscore.Internal.Correction>
   9.000000E+99

> <Gold.Chemscore.Hbonds>
donor molecule, donor type, donor heavy atom, donor atom, acceptor molecule, acceptor atom, score
      P1  H  6896  6907       L1     7  0.47
      P1  H  7989  7998       L1    12  0.29

> <Gold.Chemscore.Hbond.Weighted>
-6.1363

> <Gold.Chemscore.Metal.Weighted>
-0.0000

> <Gold.Chemscore.Lipo.Weighted>
-13.8525

> <Gold.Chemscore.Internal_Hbond.Weighted>
0.0000

> <Gold.Chemscore.DEClash.Weighted>
0.0000

> <Gold.Chemscore.DEInternal.Weighted>
1.0246

> <Gold.Chemscore.Rot.Weighted>
7.3671

> <Gold.Chemscore.Internal.Correction.Weighted>
   9.000000E+99

> <Gold.Protein.RotatedTorsions>
[ 6907 6896 6895 6894 ] final    0.16 input  -60.11 | X-H torsion
[ 7974 7965 7964 7962 ] final  -28.37 input  175.53 | X-H torsion
[ 8008 7997 7996 7995 ] final  -35.12 input   59.86 | X-H torsion
[ 10167 10162 10161 10158 ] final  159.67 input  -65.29 | X-H torsion
[ 10718 10713 10712 10709 ] final -160.81 input   66.30 | X-H torsion
[ 10763 10752 10751 10750 ] final -179.50 input  -60.55 | X-H torsion
[ 11005 11000 10999 10996 ] final   56.78 input  -57.11 | X-H torsion

> <Gold.Protein.ActiveResidues>
 VAL166  LYS551  ARG553  GLY616  TRP617  ASP618  TYR619  PRO620  LYS621  CYS622 
 ASP623  PHE694  ASN695  SER759  ASP760  ASP761  ALA762  ILE779  LEU786  VAL792 
 PHE793  MET794  SER795  GLU796  ALA797  LYS798  CYS799  TRP800  GLU811  SER814 

> <Gold.Protein.RotatedAtoms>
  151.5719  135.1062  159.9996 H   0  0  0  0  0  0  0  0  0  0  0  0  # atno 6907 bound_to 6896
  152.4397  133.7420  159.6657 H   0  0  0  0  0  0  0  0  0  0  0  0  # atno 6908 bound_to 6896
  150.8300  133.8038  159.3126 H   0  0  0  0  0  0  0  0  0  0  0  0  # atno 6909 bound_to 6896
  146.1292  140.5274  142.8701 H   0  0  0  0  0  0  0  0  0  0  0  0  # atno 7974 bound_to 7965
  154.4103  140.1666  156.2160 H   0  0  0  0  0  0  0  0  0  0  0  0  # atno 8008 bound_to 7997
  155.9404  140.3408  155.6299 H   0  0  0  0  0  0  0  0  0  0  0  0  # atno 8009 bound_to 7997
  155.6996  140.0743  157.2406 H   0  0  0  0  0  0  0  0  0  0  0  0  # atno 8010 bound_to 7997
  139.4834  144.4707  151.8579 H   0  0  0  0  0  0  0  0  0  0  0  0  # atno 10167 bound_to 10162
  156.5873  130.8755  151.2880 H   0  0  0  0  0  0  0  0  0  0  0  0  # atno 10718 bound_to 10713
  154.5343  135.2802  155.1153 H   0  0  0  0  0  0  0  0  0  0  0  0  # atno 10763 bound_to 10752
  154.2660  135.6312  153.5296 H   0  0  0  0  0  0  0  0  0  0  0  0  # atno 10764 bound_to 10752
  152.9964  135.5617  154.5865 H   0  0  0  0  0  0  0  0  0  0  0  0  # atno 10765 bound_to 10752
  140.0503  134.5746  155.9272 H   0  0  0  0  0  0  0  0  0  0  0  0  # atno 11005 bound_to 11000
  144.7673  140.5560  143.6694 LP  0  0  0  0  0  0  0  0  0  0  0  0  # atno 17320 bound_to 7965
  145.5297  139.1475  143.3506 LP  0  0  0  0  0  0  0  0  0  0  0  0  # atno 17321 bound_to 7965
  140.4176  144.2286  150.5887 LP  0  0  0  0  0  0  0  0  0  0  0  0  # atno 17342 bound_to 10162
  140.4905  143.2349  151.8825 LP  0  0  0  0  0  0  0  0  0  0  0  0  # atno 17343 bound_to 10162
  157.7312  130.9697  150.1869 LP  0  0  0  0  0  0  0  0  0  0  0  0  # atno 17370 bound_to 10713
  156.2580  130.3707  149.8161 LP  0  0  0  0  0  0  0  0  0  0  0  0  # atno 17371 bound_to 10713
  141.1927  133.6576  156.5514 LP  0  0  0  0  0  0  0  0  0  0  0  0  # atno 17394 bound_to 11000
  140.3928  134.7425  157.4732 LP  0  0  0  0  0  0  0  0  0  0  0  0  # atno 17395 bound_to 11000

$$$$
