AV-unprocessed.smi:1413|AV-procd|sdf|5757|dock9
  -GOLD-   22720 5393D 1   1.00000     0.00000
 Structure written by MMmdl.
 53 55  0  0  0  0  0  0  0  0  1 V2000
  153.5367  142.1112  160.4737 C   0  0  0  0  0  0  0  0  0  0  0  0
  152.9110  142.3256  159.0915 C   0  0  1  0  0  0  0  0  0  0  0  0
  152.2973  141.0305  158.5301 C   0  0  0  0  0  0  0  0  0  0  0  0
  151.6223  141.3055  157.2700 N   0  0  0  0  0  0  0  0  0  0  0  0
  151.1782  140.1521  156.6101 C   0  0  0  0  0  0  0  0  0  0  0  0
  151.0818  138.9085  157.2751 C   0  0  0  0  0  0  0  0  0  0  0  0
  150.6426  137.7865  156.5476 C   0  0  0  0  0  0  0  0  0  0  0  0
  150.3230  137.9330  155.1830 C   0  0  0  0  0  0  0  0  0  0  0  0
  149.8755  136.7851  154.4748 N   0  0  0  0  0  0  0  0  0  0  0  0
  149.6583  135.5455  154.9470 C   0  0  0  0  0  0  0  0  0  0  0  0
  149.8208  135.1924  156.1147 O   0  0  0  0  0  0  0  0  0  0  0  0
  149.2171  134.7314  153.9771 N   0  0  0  0  0  0  0  0  0  0  0  0
  148.8854  133.3161  154.1311 C   0  0  1  0  0  0  0  0  0  0  0  0
  148.1508  132.8391  152.8681 C   0  0  0  0  0  0  0  0  0  0  0  0
  150.1746  132.5166  154.4041 C   0  0  2  0  0  0  0  0  0  0  0  0
  149.9799  131.0010  154.4843 C   0  0  0  0  0  0  0  0  0  0  0  0
  151.1542  130.5840  155.3386 C   0  0  0  0  0  0  0  0  0  0  0  0
  151.2205  131.7242  156.3487 C   0  0  0  0  0  0  0  0  0  0  0  0
  150.7241  132.8757  155.6716 O   0  0  0  0  0  0  0  0  0  0  0  0
  150.4347  139.2260  154.6157 C   0  0  0  0  0  0  0  0  0  0  0  0
  150.8540  140.3066  155.3085 N   0  0  0  0  0  0  0  0  0  0  0  0
  150.5998  142.3351  157.3979 C   0  0  0  0  0  0  0  0  0  0  0  0
  151.1963  143.6220  158.0026 C   0  0  2  0  0  0  0  0  0  0  0  0
  152.0712  144.4158  157.0160 C   0  0  0  0  0  0  0  0  0  0  0  0
  151.8922  143.3191  159.2155 O   0  0  0  0  0  0  0  0  0  0  0  0
  154.3290  141.3633  160.4341 H   0  0  0  0  0  0  0  0  0  0  0  0
  152.7927  141.7737  161.1958 H   0  0  0  0  0  0  0  0  0  0  0  0
  153.9721  143.0368  160.8513 H   0  0  0  0  0  0  0  0  0  0  0  0
  153.6918  142.6820  158.4193 H   0  0  0  0  0  0  0  0  0  0  0  0
  153.0755  140.2821  158.3744 H   0  0  0  0  0  0  0  0  0  0  0  0
  151.5862  140.6142  159.2452 H   0  0  0  0  0  0  0  0  0  0  0  0
  151.3405  138.8109  158.3191 H   0  0  0  0  0  0  0  0  0  0  0  0
  150.5615  136.8248  157.0327 H   0  0  0  0  0  0  0  0  0  0  0  0
  149.6251  136.9420  153.5097 H   0  0  0  0  0  0  0  0  0  0  0  0
  149.1142  135.1172  153.0502 H   0  0  0  0  0  0  0  0  0  0  0  0
  148.2141  133.1757  154.9801 H   0  0  0  0  0  0  0  0  0  0  0  0
  147.8397  131.7982  152.9577 H   0  0  0  0  0  0  0  0  0  0  0  0
  148.7833  132.9227  151.9836 H   0  0  0  0  0  0  0  0  0  0  0  0
  147.2521  133.4311  152.6917 H   0  0  0  0  0  0  0  0  0  0  0  0
  150.9268  132.7392  153.6450 H   0  0  0  0  0  0  0  0  0  0  0  0
  149.0457  130.7575  154.9929 H   0  0  0  0  0  0  0  0  0  0  0  0
  149.9738  130.5193  153.5061 H   0  0  0  0  0  0  0  0  0  0  0  0
  151.0231  129.6074  155.8048 H   0  0  0  0  0  0  0  0  0  0  0  0
  152.0644  130.5589  154.7379 H   0  0  0  0  0  0  0  0  0  0  0  0
  150.5703  131.5178  157.1997 H   0  0  0  0  0  0  0  0  0  0  0  0
  152.2304  131.8880  156.7255 H   0  0  0  0  0  0  0  0  0  0  0  0
  150.1696  139.4256  153.5893 H   0  0  0  0  0  0  0  0  0  0  0  0
  150.1534  142.5433  156.4244 H   0  0  0  0  0  0  0  0  0  0  0  0
  149.8003  141.9689  158.0434 H   0  0  0  0  0  0  0  0  0  0  0  0
  150.3671  144.2724  158.2817 H   0  0  0  0  0  0  0  0  0  0  0  0
  151.4850  144.7396  156.1558 H   0  0  0  0  0  0  0  0  0  0  0  0
  152.9047  143.8266  156.6346 H   0  0  0  0  0  0  0  0  0  0  0  0
  152.4807  145.3076  157.4906 H   0  0  0  0  0  0  0  0  0  0  0  0
  1  2  1  0  0  0  0
  1 26  1  0  0  0  0
  1 27  1  0  0  0  0
  1 28  1  0  0  0  0
  2 25  1  0  0  0  0
  2  3  1  0  0  0  0
  2 29  1  0  0  0  0
  3  4  1  0  0  0  0
  3 30  1  0  0  0  0
  3 31  1  0  0  0  0
  4  5  1  0  0  0  0
  4 22  1  0  0  0  0
  5 21  1  0  0  0  0
  5  6  2  0  0  0  0
  6  7  1  0  0  0  0
  6 32  1  0  0  0  0
  7  8  2  0  0  0  0
  7 33  1  0  0  0  0
  8  9  1  0  0  0  0
  8 20  1  0  0  0  0
  9 10  1  0  0  0  0
  9 34  1  0  0  0  0
 10 11  2  0  0  0  0
 10 12  1  0  0  0  0
 12 13  1  0  0  0  0
 12 35  1  0  0  0  0
 13 14  1  0  0  0  0
 13 15  1  0  0  0  0
 13 36  1  0  0  0  0
 14 37  1  0  0  0  0
 14 38  1  0  0  0  0
 14 39  1  0  0  0  0
 15 19  1  0  0  0  0
 15 16  1  0  0  0  0
 15 40  1  0  0  0  0
 16 17  1  0  0  0  0
 16 41  1  0  0  0  0
 16 42  1  0  0  0  0
 17 18  1  0  0  0  0
 17 43  1  0  0  0  0
 17 44  1  0  0  0  0
 18 19  1  0  0  0  0
 18 45  1  0  0  0  0
 18 46  1  0  0  0  0
 20 21  2  0  0  0  0
 20 47  1  0  0  0  0
 22 23  1  0  0  0  0
 22 48  1  0  0  0  0
 22 49  1  0  0  0  0
 23 24  1  0  0  0  0
 23 25  1  0  0  0  0
 23 50  1  0  0  0  0
 24 51  1  0  0  0  0
 24 52  1  0  0  0  0
 24 53  1  0  0  0  0
M  END
> <s_m_source_file>
AV-unprocessed.smi

> <i_m_source_file_index>
1413

> <i_lp_mmshare_version>
43012

> <i_f3d_flags>
0

> <s_epik_input>
W0NIM11bQ0BASF0xW0NIMl1OKFtDSDJdW0NASF0oTzEpW0NIM10pYzJbY0hdW2NIXWMoW2NIXW4yKVtOSF1DKD1PKVtOSF1bQ0BIXShbQ0gzXSlbQ0BASF0zW0NIMl1bQ0gyXVtDSDJdTzM=

> <s_epik_cmdline>
J2VwaWtfcHl0aG9uJywgJy1waCcsICc3LjAnLCAnLXRuJywgJzgnLCAnLW1hJywgJzIwMCcsICctbWV0YWxfYmluZGluZycsICctaW1hZScsICc8aW5maWxlLm1hZT4nLCAnLW9tYWUnLCAnPG91dGZpbGUubWFlPic=

> <r_lp_tautomer_probability>
1

> <r_epik_Ionization_Penalty>
0.00271172

> <r_epik_Ionization_Penalty_Charging>
0

> <r_epik_Ionization_Penalty_Neutral>
0.00271172

> <r_epik_State_Penalty>
0.00186503

> <r_epik_Charging_Adjusted_Penalty>
0.00186503

> <i_epik_Tot_Q>
0

> <i_epik_Tot_abs_Q>
0

> <r_epik_Metal_State_Penalty>
-0

> <b_epik_Metal_Only>
0

> <s_lp_Force_Field>
OPLS_2005

> <r_lp_Energy>
38.2473

> <b_lp_Chiralities_Consistent>
1

> <s_lp_Variant>
AV-unprocessed.smi:1413-10

> <Gold.Version>
5.8.1

> <Gold.Id.Protein>
6NUR|6NUR_protein|mol2

> <Gold.PLP.Fitness>
50.4834

> <Gold.PLP.PLP>
-41.6950

> <Gold.PLP.part.hbond>
-3.0000

> <Gold.PLP.part.metal>
0.0000

> <Gold.PLP.part.buried>
-5.3160

> <Gold.PLP.part.nonpolar>
-33.6236

> <Gold.PLP.part.repulsive>
0.1267

> <Gold.PLP.ligand.clash>
0.0475

> <Gold.PLP.ligand.torsion>
0.3745

> <Gold.PLP.Chemscore.Hbond>
2.2116

> <Gold.PLP.Chemscore.CHOScore>
0.9428

> <Gold.PLP.Chemscore.Metal>
0.0000

> <Gold.Chemscore.Hbonds>
donor molecule, donor type, donor heavy atom, donor atom, acceptor molecule, acceptor atom, score
      L1  H     9    34       P1  7948  0.98
      L1  H    12    35       P1  7948  0.75
      P1  H  7989  7998       L1    21  0.19
      L1  C    20    47       P1  7957  0.93

> <Gold.PLP.Chemscore.Internal.Correction>
0.1216

> <Gold.Rescore>
     Score         DG    S(hbond)    S(metal)    S(lipo)     H(rot)  DE(clash)    DE(int)     intcor
     17.35     -20.57       1.74        0.00     108.73       1.35       0.02       3.20       ----

> <Gold.Chemscore.Fitness>
17.3483

> <Gold.Chemscore.DG>
-20.5679

> <Gold.Chemscore.ZeroCoef>
-5.4800

> <Gold.Chemscore.Hbond>
1.7409

> <Gold.Chemscore.Metal>
0.0000

> <Gold.Chemscore.Lipo>
108.7333

> <Gold.Chemscore.Internal_Hbond>
0.0000

> <Gold.Chemscore.DEClash>
0.0219

> <Gold.Chemscore.DEInternal>
3.1977

> <Gold.Chemscore.Rot>
1.3471

> <Gold.Chemscore.Internal.Correction>
   9.000000E+99

> <Gold.Chemscore.Hbonds>
donor molecule, donor type, donor heavy atom, donor atom, acceptor molecule, acceptor atom, score
      L1  H     9    34       P1  7948  0.69
      L1  H    12    35       P1  7948  0.09

> <Gold.Chemscore.Hbond.Weighted>
-5.8146

> <Gold.Chemscore.Metal.Weighted>
-0.0000

> <Gold.Chemscore.Lipo.Weighted>
-12.7218

> <Gold.Chemscore.Internal_Hbond.Weighted>
0.0000

> <Gold.Chemscore.DEClash.Weighted>
0.0219

> <Gold.Chemscore.DEInternal.Weighted>
3.1977

> <Gold.Chemscore.Rot.Weighted>
3.4485

> <Gold.Chemscore.Internal.Correction.Weighted>
   9.000000E+99

> <Gold.Protein.RotatedTorsions>
[ 6907 6896 6895 6894 ] final  111.44 input  -60.11 | X-H torsion
[ 7974 7965 7964 7962 ] final  126.54 input  175.53 | X-H torsion
[ 8008 7997 7996 7995 ] final  -34.82 input   59.86 | X-H torsion
[ 10167 10162 10161 10158 ] final  -16.60 input  -65.29 | X-H torsion
[ 10718 10713 10712 10709 ] final -176.98 input   66.30 | X-H torsion
[ 10763 10752 10751 10750 ] final  -52.99 input  -60.55 | X-H torsion
[ 11005 11000 10999 10996 ] final   63.03 input  -57.11 | X-H torsion

> <Gold.Protein.ActiveResidues>
 VAL166  LYS551  ARG553  GLY616  TRP617  ASP618  TYR619  PRO620  LYS621  CYS622 
 ASP623  PHE694  ASN695  SER759  ASP760  ASP761  ALA762  ILE779  LEU786  VAL792 
 PHE793  MET794  SER795  GLU796  ALA797  LYS798  CYS799  TRP800  GLU811  SER814 

> <Gold.Protein.RotatedAtoms>
  152.4969  133.8657  159.7272 H   0  0  0  0  0  0  0  0  0  0  0  0  # atno 6907 bound_to 6896
  150.9157  133.6933  159.2851 H   0  0  0  0  0  0  0  0  0  0  0  0  # atno 6908 bound_to 6896
  151.4328  135.1016  159.9699 H   0  0  0  0  0  0  0  0  0  0  0  0  # atno 6909 bound_to 6896
  145.0606  139.3809  143.5008 H   0  0  0  0  0  0  0  0  0  0  0  0  # atno 7974 bound_to 7965
  154.4111  140.1674  156.2111 H   0  0  0  0  0  0  0  0  0  0  0  0  # atno 8008 bound_to 7997
  155.9443  140.3405  155.6331 H   0  0  0  0  0  0  0  0  0  0  0  0  # atno 8009 bound_to 7997
  155.6949  140.0738  157.2424 H   0  0  0  0  0  0  0  0  0  0  0  0  # atno 8010 bound_to 7997
  140.7236  143.5100  150.9762 H   0  0  0  0  0  0  0  0  0  0  0  0  # atno 10167 bound_to 10162
  156.8227  130.9625  151.3111 H   0  0  0  0  0  0  0  0  0  0  0  0  # atno 10718 bound_to 10713
  154.1517  135.6489  153.4965 H   0  0  0  0  0  0  0  0  0  0  0  0  # atno 10763 bound_to 10752
  153.0136  135.5339  154.6802 H   0  0  0  0  0  0  0  0  0  0  0  0  # atno 10764 bound_to 10752
  154.6091  135.2952  155.0423 H   0  0  0  0  0  0  0  0  0  0  0  0  # atno 10765 bound_to 10752
  140.0052  134.6381  155.9867 H   0  0  0  0  0  0  0  0  0  0  0  0  # atno 11005 bound_to 11000
  146.3524  140.0301  142.8651 LP  0  0  0  0  0  0  0  0  0  0  0  0  # atno 17320 bound_to 7965
  145.1414  140.9573  143.4486 LP  0  0  0  0  0  0  0  0  0  0  0  0  # atno 17321 bound_to 7965
  139.8813  143.7069  152.3156 LP  0  0  0  0  0  0  0  0  0  0  0  0  # atno 17342 bound_to 10162
  139.7352  144.7573  151.0739 LP  0  0  0  0  0  0  0  0  0  0  0  0  # atno 17343 bound_to 10162
  157.6448  130.8835  149.9517 LP  0  0  0  0  0  0  0  0  0  0  0  0  # atno 17370 bound_to 10713
  156.0979  130.3658  150.0272 LP  0  0  0  0  0  0  0  0  0  0  0  0  # atno 17371 bound_to 10713
  141.1671  133.6537  156.4519 LP  0  0  0  0  0  0  0  0  0  0  0  0  # atno 17394 bound_to 11000
  140.4655  134.6802  157.5105 LP  0  0  0  0  0  0  0  0  0  0  0  0  # atno 17395 bound_to 11000

$$$$
