AV-unprocessed.smi:2986|AV-procd|sdf|11384|dock7
  -GOLD-   2272016303D 1   1.00000     0.00000
 Structure written by MMmdl.
 42 44  0  0  0  0  0  0  0  0  3 V2000
  147.7266  127.8460  151.7094 C   0  0  0  0  0  0  0  0  0  0  0  0
  147.6684  128.3380  153.0365 O   0  0  0  0  0  0  0  0  0  0  0  0
  148.6513  129.3281  153.2933 C   0  0  0  0  0  0  0  0  0  0  0  0
  148.0785  130.4051  154.2256 C   0  0  0  0  0  0  0  0  0  0  0  0
  147.8890  131.6919  153.5399 N   0  0  0  0  0  0  0  0  0  0  0  0
  148.5104  132.8888  153.7317 C   0  0  0  0  0  0  0  0  0  0  0  0
  149.7712  133.2322  154.9153 S   0  0  0  0  0  0  0  0  0  0  0  0
  149.8019  135.0388  155.0736 C   0  0  0  0  0  0  0  0  0  0  0  0
  150.8147  135.5136  156.1161 C   0  0  0  0  0  0  0  0  0  0  0  0
  150.7837  135.0228  157.2457 O   0  0  0  0  0  0  0  0  0  0  0  0
  151.6489  136.4593  155.6199 N   0  5  0  0  0  0  0  0  0  0  0  0
  152.0751  137.4531  156.4135 C   0  0  0  0  0  0  0  0  0  0  0  0
  151.6912  137.6661  157.7658 C   0  0  0  0  0  0  0  0  0  0  0  0
  152.3822  138.7922  158.1126 C   0  0  0  0  0  0  0  0  0  0  0  0
  152.4696  139.5803  159.3743 C   0  0  0  0  0  0  0  0  0  0  0  0
  153.1186  139.2375  157.0593 O   0  0  0  0  0  0  0  0  0  0  0  0
  152.9114  138.3784  155.9734 N   0  0  0  0  0  0  0  0  0  0  0  0
  147.9782  133.7775  152.8481 N   0  3  0  0  0  0  0  0  0  0  0  0
  146.9969  133.1443  152.0841 C   0  0  0  0  0  0  0  0  0  0  0  0
  146.1799  133.6309  151.0682 C   0  0  0  0  0  0  0  0  0  0  0  0
  145.2707  132.7176  150.4950 C   0  0  0  0  0  0  0  0  0  0  0  0
  145.1990  131.3796  150.9341 C   0  0  0  0  0  0  0  0  0  0  0  0
  146.0341  130.8967  151.9629 C   0  0  0  0  0  0  0  0  0  0  0  0
  146.9315  131.8051  152.5243 C   0  0  0  0  0  0  0  0  0  0  0  0
  146.9518  127.0933  151.5639 H   0  0  0  0  0  0  0  0  0  0  0  0
  148.6913  127.3799  151.5041 H   0  0  0  0  0  0  0  0  0  0  0  0
  147.5614  128.6442  150.9846 H   0  0  0  0  0  0  0  0  0  0  0  0
  149.5302  128.8715  153.7518 H   0  0  0  0  0  0  0  0  0  0  0  0
  148.9730  129.7851  152.3564 H   0  0  0  0  0  0  0  0  0  0  0  0
  147.1081  130.0883  154.6084 H   0  0  0  0  0  0  0  0  0  0  0  0
  148.7172  130.5509  155.0965 H   0  0  0  0  0  0  0  0  0  0  0  0
  149.9992  135.4779  154.0938 H   0  0  0  0  0  0  0  0  0  0  0  0
  148.8105  135.3787  155.3739 H   0  0  0  0  0  0  0  0  0  0  0  0
  151.0222  137.0838  158.3815 H   0  0  0  0  0  0  0  0  0  0  0  0
  151.6462  139.3329  160.0446 H   0  0  0  0  0  0  0  0  0  0  0  0
  152.4269  140.6498  159.1676 H   0  0  0  0  0  0  0  0  0  0  0  0
  153.4045  139.3719  159.8944 H   0  0  0  0  0  0  0  0  0  0  0  0
  146.2318  134.6562  150.7322 H   0  0  0  0  0  0  0  0  0  0  0  0
  144.6138  133.0501  149.7042 H   0  0  0  0  0  0  0  0  0  0  0  0
  144.4876  130.7091  150.4736 H   0  0  0  0  0  0  0  0  0  0  0  0
  145.9656  129.8712  152.2950 H   0  0  0  0  0  0  0  0  0  0  0  0
  148.2667  134.7448  152.7785 H   0  0  0  0  0  0  0  0  0  0  0  0
  1  2  1  0  0  0  0
  1 25  1  0  0  0  0
  1 26  1  0  0  0  0
  1 27  1  0  0  0  0
  2  3  1  0  0  0  0
  3  4  1  0  0  0  0
  3 28  1  0  0  0  0
  3 29  1  0  0  0  0
  4  5  1  0  0  0  0
  4 30  1  0  0  0  0
  4 31  1  0  0  0  0
  5 24  1  0  0  0  0
  5  6  1  0  0  0  0
  6  7  1  0  0  0  0
  6 18  2  0  0  0  0
  7  8  1  0  0  0  0
  8  9  1  0  0  0  0
  8 32  1  0  0  0  0
  8 33  1  0  0  0  0
  9 10  2  0  0  0  0
  9 11  1  0  0  0  0
 11 12  1  0  0  0  0
 12 17  2  0  0  0  0
 12 13  1  0  0  0  0
 13 14  2  0  0  0  0
 13 34  1  0  0  0  0
 14 15  1  0  0  0  0
 14 16  1  0  0  0  0
 15 35  1  0  0  0  0
 15 36  1  0  0  0  0
 15 37  1  0  0  0  0
 16 17  1  0  0  0  0
 18 19  1  0  0  0  0
 18 42  1  0  0  0  0
 19 24  2  0  0  0  0
 19 20  1  0  0  0  0
 20 21  2  0  0  0  0
 20 38  1  0  0  0  0
 21 22  1  0  0  0  0
 21 39  1  0  0  0  0
 22 23  2  0  0  0  0
 22 40  1  0  0  0  0
 23 24  1  0  0  0  0
 23 41  1  0  0  0  0
M  CHG  1  11  -1
M  CHG  1  18   1
M  END
> <s_m_source_file>
AV-unprocessed.smi

> <i_m_source_file_index>
2986

> <i_lp_mmshare_version>
43012

> <i_f3d_flags>
0

> <s_epik_input>
W2NIXTFbY0hdW2NIXVtjSF1jKGMxMiluKFtDSDJdW0NIMl1PW0NIM10pYyhuMilTW0NIMl1DKD1PKVtOSF1jM1tjSF1jKFtDSDNdKW9uMw==

> <s_epik_cmdline>
J2VwaWtfcHl0aG9uJywgJy1waCcsICc3LjAnLCAnLXRuJywgJzgnLCAnLW1hJywgJzIwMCcsICctbWV0YWxfYmluZGluZycsICctaW1hZScsICc8aW5maWxlLm1hZT4nLCAnLW9tYWUnLCAnPG91dGZpbGUubWFlPic=

> <r_epik_Ionization_Penalty>
5.85337

> <r_epik_Ionization_Penalty_Charging>
5.85335

> <r_epik_Ionization_Penalty_Neutral>
1.96301e-05

> <r_epik_State_Penalty>
6.06575

> <r_epik_Charging_Adjusted_Penalty>
11.9191

> <i_epik_Tot_Q>
0

> <i_epik_Tot_abs_Q>
2

> <r_epik_Metal_State_Penalty>
2.64129

> <b_epik_Metal_Only>
1

> <s_lp_Force_Field>
OPLS_2005

> <r_lp_Energy>
5.16942

> <b_lp_Chiralities_Consistent>
1

> <s_lp_Variant>
AV-unprocessed.smi:2986-4

> <Gold.Version>
5.8.1

> <Gold.Id.Protein>
6NUR|6NUR_protein|mol2

> <Gold.PLP.Fitness>
54.2381

> <Gold.PLP.PLP>
-41.2840

> <Gold.PLP.part.hbond>
-4.4803

> <Gold.PLP.part.metal>
0.0000

> <Gold.PLP.part.buried>
-5.6214

> <Gold.PLP.part.nonpolar>
-31.6891

> <Gold.PLP.part.repulsive>
0.1555

> <Gold.PLP.ligand.clash>
0.0000

> <Gold.PLP.ligand.torsion>
1.2070

> <Gold.PLP.Chemscore.Hbond>
5.0256

> <Gold.PLP.Chemscore.CHOScore>
0.0000

> <Gold.PLP.Chemscore.Metal>
0.0000

> <Gold.Chemscore.Hbonds>
donor molecule, donor type, donor heavy atom, donor atom, acceptor molecule, acceptor atom, score
      L1  H    18    42       P1  7948  2.00
      P1  H  6896  6907       L1    10  0.13
      P1  H  7997  8008       L1    16  1.00
      P1  H 10752 10764       L1    11  1.95

> <Gold.PLP.Chemscore.Internal.Correction>
0.2915

> <Gold.Rescore>
     Score         DG    S(hbond)    S(metal)    S(lipo)     H(rot)  DE(clash)    DE(int)     intcor
     15.36     -17.87       2.45        0.00      85.59       2.27       0.00       2.51       ----

> <Gold.Chemscore.Fitness>
15.3555

> <Gold.Chemscore.DG>
-17.8675

> <Gold.Chemscore.ZeroCoef>
-5.4800

> <Gold.Chemscore.Hbond>
2.4533

> <Gold.Chemscore.Metal>
0.0000

> <Gold.Chemscore.Lipo>
85.5926

> <Gold.Chemscore.Internal_Hbond>
0.0000

> <Gold.Chemscore.DEClash>
0.0000

> <Gold.Chemscore.DEInternal>
2.5120

> <Gold.Chemscore.Rot>
2.2738

> <Gold.Chemscore.Internal.Correction>
   9.000000E+99

> <Gold.Chemscore.Hbonds>
donor molecule, donor type, donor heavy atom, donor atom, acceptor molecule, acceptor atom, score
      L1  H    18    42       P1  7948  0.53
      P1  H  6896  6907       L1    10  0.13
      P1  H  7997  8008       L1    16  0.58
      P1  H 10752 10764       L1    11  0.62

> <Gold.Chemscore.Hbond.Weighted>
-8.1940

> <Gold.Chemscore.Metal.Weighted>
-0.0000

> <Gold.Chemscore.Lipo.Weighted>
-10.0143

> <Gold.Chemscore.Internal_Hbond.Weighted>
0.0000

> <Gold.Chemscore.DEClash.Weighted>
0.0000

> <Gold.Chemscore.DEInternal.Weighted>
2.5120

> <Gold.Chemscore.Rot.Weighted>
5.8209

> <Gold.Chemscore.Internal.Correction.Weighted>
   9.000000E+99

> <Gold.Protein.RotatedTorsions>
[ 6907 6896 6895 6894 ] final  -78.09 input  -60.11 | X-H torsion
[ 7974 7965 7964 7962 ] final -178.25 input  175.53 | X-H torsion
[ 8008 7997 7996 7995 ] final  -67.30 input   59.86 | X-H torsion
[ 10167 10162 10161 10158 ] final  -61.88 input  -65.29 | X-H torsion
[ 10718 10713 10712 10709 ] final  138.27 input   66.30 | X-H torsion
[ 10763 10752 10751 10750 ] final  -67.41 input  -60.55 | X-H torsion
[ 11005 11000 10999 10996 ] final -100.52 input  -57.11 | X-H torsion

> <Gold.Protein.ActiveResidues>
 VAL166  LYS551  ARG553  GLY616  TRP617  ASP618  TYR619  PRO620  LYS621  CYS622 
 ASP623  PHE694  ASN695  SER759  ASP760  ASP761  ALA762  ILE779  LEU786  VAL792 
 PHE793  MET794  SER795  GLU796  ALA797  LYS798  CYS799  TRP800  GLU811  SER814 

> <Gold.Protein.RotatedAtoms>
  150.6982  134.4325  159.5254 H   0  0  0  0  0  0  0  0  0  0  0  0  # atno 6907 bound_to 6896
  152.2049  134.8551  160.0513 H   0  0  0  0  0  0  0  0  0  0  0  0  # atno 6908 bound_to 6896
  151.9458  133.3616  159.4018 H   0  0  0  0  0  0  0  0  0  0  0  0  # atno 6909 bound_to 6896
  144.7130  140.0897  143.6422 H   0  0  0  0  0  0  0  0  0  0  0  0  # atno 7974 bound_to 7965
  154.4791  140.0895  156.7333 H   0  0  0  0  0  0  0  0  0  0  0  0  # atno 8008 bound_to 7997
  155.4518  140.3457  155.4283 H   0  0  0  0  0  0  0  0  0  0  0  0  # atno 8009 bound_to 7997
  156.1163  140.1461  156.9256 H   0  0  0  0  0  0  0  0  0  0  0  0  # atno 8010 bound_to 7997
  140.5976  143.2354  151.6000 H   0  0  0  0  0  0  0  0  0  0  0  0  # atno 10167 bound_to 10162
  157.4271  131.1044  151.0291 H   0  0  0  0  0  0  0  0  0  0  0  0  # atno 10718 bound_to 10713
  154.3740  135.6089  153.5755 H   0  0  0  0  0  0  0  0  0  0  0  0  # atno 10763 bound_to 10752
  152.9789  135.5845  154.4488 H   0  0  0  0  0  0  0  0  0  0  0  0  # atno 10764 bound_to 10752
  154.4247  135.2846  155.1930 H   0  0  0  0  0  0  0  0  0  0  0  0  # atno 10765 bound_to 10752
  141.1267  133.8405  157.1113 H   0  0  0  0  0  0  0  0  0  0  0  0  # atno 11005 bound_to 11000
  145.9631  139.2815  143.1143 LP  0  0  0  0  0  0  0  0  0  0  0  0  # atno 17320 bound_to 7965
  145.9199  140.9122  143.0410 LP  0  0  0  0  0  0  0  0  0  0  0  0  # atno 17321 bound_to 7965
  139.5269  144.3032  152.1056 LP  0  0  0  0  0  0  0  0  0  0  0  0  # atno 17342 bound_to 10162
  140.2207  144.4469  150.6343 LP  0  0  0  0  0  0  0  0  0  0  0  0  # atno 17343 bound_to 10162
  157.1200  130.6058  149.5503 LP  0  0  0  0  0  0  0  0  0  0  0  0  # atno 17370 bound_to 10713
  155.9900  130.4950  150.7239 LP  0  0  0  0  0  0  0  0  0  0  0  0  # atno 17371 bound_to 10713
  140.0273  134.9918  157.0712 LP  0  0  0  0  0  0  0  0  0  0  0  0  # atno 17394 bound_to 11000
  140.4342  134.1749  155.7170 LP  0  0  0  0  0  0  0  0  0  0  0  0  # atno 17395 bound_to 11000

$$$$
