AV-unprocessed.smi:2883|AV-procd|sdf|11077|dock8
  -GOLD-   2272015553D 1   1.00000     0.00000
 Structure written by MMmdl.
 40 42  0  0  0  0  0  0  0  0  2 V2000
  152.5824  144.7341  157.7270 C   0  0  0  0  0  0  0  0  0  0  0  0
  151.8346  143.8362  158.7402 C   0  0  0  0  0  0  0  0  0  0  0  0
  152.8947  143.3522  159.7556 C   0  0  0  0  0  0  0  0  0  0  0  0
  150.7577  144.6592  159.4706 C   0  0  0  0  0  0  0  0  0  0  0  0
  151.1740  142.6457  158.0309 C   0  0  0  0  0  0  0  0  0  0  0  0
  150.2301  142.8751  157.1003 N   0  3  0  0  0  0  0  0  0  0  0  0
  149.7121  141.8455  156.3874 C   0  0  0  0  0  0  0  0  0  0  0  0
  150.1792  140.5342  156.5884 C   0  0  0  0  0  0  0  0  0  0  0  0
  151.1982  140.3631  157.5395 C   0  0  0  0  0  0  0  0  0  0  0  0
  151.7197  139.0834  157.7736 N   0  0  0  0  0  0  0  0  0  0  0  0
  152.4402  138.3639  156.7270 C   0  0  2  0  0  0  0  0  0  0  0  0
  152.5919  139.1728  155.4365 C   0  0  0  0  0  0  0  0  0  0  0  0
  152.0291  138.2023  154.3885 C   0  0  2  0  0  0  0  0  0  0  0  0
  150.4984  138.1270  154.4563 C   0  0  0  0  0  0  0  0  0  0  0  0
  150.2839  137.3374  155.7462 C   0  0  0  0  0  0  0  0  0  0  0  0
  151.7287  137.0945  156.2160 C   0  0  1  0  0  0  0  0  0  0  0  0
  152.3745  136.9523  154.9623 O   0  0  0  0  0  0  0  0  0  0  0  0
  151.6871  141.4205  158.2228 N   0  0  0  0  0  0  0  0  0  0  0  0
  153.0914  145.5585  158.2278 H   0  0  0  0  0  0  0  0  0  0  0  0
  151.9054  145.1792  156.9969 H   0  0  0  0  0  0  0  0  0  0  0  0
  153.3366  144.1702  157.1763 H   0  0  0  0  0  0  0  0  0  0  0  0
  153.6595  142.7432  159.2718 H   0  0  0  0  0  0  0  0  0  0  0  0
  152.4531  142.7571  160.5557 H   0  0  0  0  0  0  0  0  0  0  0  0
  153.4003  144.1932  160.2317 H   0  0  0  0  0  0  0  0  0  0  0  0
  151.1930  145.5147  159.9885 H   0  0  0  0  0  0  0  0  0  0  0  0
  150.2339  144.0566  160.2137 H   0  0  0  0  0  0  0  0  0  0  0  0
  150.0114  145.0424  158.7734 H   0  0  0  0  0  0  0  0  0  0  0  0
  148.9460  142.1067  155.6723 H   0  0  0  0  0  0  0  0  0  0  0  0
  149.7774  139.7028  156.0273 H   0  0  0  0  0  0  0  0  0  0  0  0
  151.7955  138.7468  158.7226 H   0  0  0  0  0  0  0  0  0  0  0  0
  153.4360  138.1015  157.0882 H   0  0  0  0  0  0  0  0  0  0  0  0
  152.0534  140.1218  155.4438 H   0  0  0  0  0  0  0  0  0  0  0  0
  153.6447  139.3844  155.2459 H   0  0  0  0  0  0  0  0  0  0  0  0
  152.4196  138.3603  153.3830 H   0  0  0  0  0  0  0  0  0  0  0  0
  150.0340  139.1134  154.4797 H   0  0  0  0  0  0  0  0  0  0  0  0
  150.0979  137.5802  153.6019 H   0  0  0  0  0  0  0  0  0  0  0  0
  149.6781  137.8725  156.4780 H   0  0  0  0  0  0  0  0  0  0  0  0
  149.7885  136.3902  155.5302 H   0  0  0  0  0  0  0  0  0  0  0  0
  151.8390  136.2294  156.8704 H   0  0  0  0  0  0  0  0  0  0  0  0
  149.8931  143.8229  156.9296 H   0  0  0  0  0  0  0  0  0  0  0  0
  1  2  1  0  0  0  0
  1 19  1  0  0  0  0
  1 20  1  0  0  0  0
  1 21  1  0  0  0  0
  2  3  1  0  0  0  0
  2  4  1  0  0  0  0
  2  5  1  0  0  0  0
  3 22  1  0  0  0  0
  3 23  1  0  0  0  0
  3 24  1  0  0  0  0
  4 25  1  0  0  0  0
  4 26  1  0  0  0  0
  4 27  1  0  0  0  0
  5 18  1  0  0  0  0
  5  6  2  0  0  0  0
  6  7  1  0  0  0  0
  6 40  1  0  0  0  0
  7  8  2  0  0  0  0
  7 28  1  0  0  0  0
  8  9  1  0  0  0  0
  8 29  1  0  0  0  0
  9 10  1  0  0  0  0
  9 18  2  0  0  0  0
 10 11  1  0  0  0  0
 10 30  1  0  0  0  0
 11 16  1  0  0  0  0
 11 12  1  0  0  0  0
 11 31  1  0  0  0  0
 12 13  1  0  0  0  0
 12 32  1  0  0  0  0
 12 33  1  0  0  0  0
 13 17  1  0  0  0  0
 13 14  1  0  0  0  0
 13 34  1  0  0  0  0
 14 15  1  0  0  0  0
 14 35  1  0  0  0  0
 14 36  1  0  0  0  0
 15 16  1  0  0  0  0
 15 37  1  0  0  0  0
 15 38  1  0  0  0  0
 16 17  1  0  0  0  0
 16 39  1  0  0  0  0
M  CHG  1   6   1
M  END
> <s_m_source_file>
AV-unprocessed.smi

> <i_m_source_file_index>
2883

> <i_lp_mmshare_version>
43012

> <i_f3d_flags>
0

> <s_epik_input>
W0NIM11DKFtDSDNdKShbQ0gzXSljMW5bY0hdW2NIXWMobjEpW05IXVtDQEhdKFtDSDJdW0NAQEhdMjMpW0NAQEhdKE8zKVtDSDJdW0NIMl0y

> <s_epik_cmdline>
J2VwaWtfcHl0aG9uJywgJy1waCcsICc3LjAnLCAnLXRuJywgJzgnLCAnLW1hJywgJzIwMCcsICctbWV0YWxfYmluZGluZycsICctaW1hZScsICc8aW5maWxlLm1hZT4nLCAnLW9tYWUnLCAnPG91dGZpbGUubWFlPic=

> <r_lp_tautomer_probability>
0.999336

> <r_epik_Ionization_Penalty>
0.371831

> <r_epik_Ionization_Penalty_Charging>
0.371821

> <r_epik_Ionization_Penalty_Neutral>
1.06897e-05

> <r_epik_State_Penalty>
0.369311

> <r_epik_Charging_Adjusted_Penalty>
0.741132

> <i_epik_Tot_Q>
1

> <i_epik_Tot_abs_Q>
1

> <r_epik_Metal_State_Penalty>
0.621338

> <b_epik_Metal_Only>
0

> <s_lp_Force_Field>
OPLS_2005

> <r_lp_Energy>
39.227

> <b_lp_Chiralities_Consistent>
1

> <s_lp_Variant>
AV-unprocessed.smi:2883-3

> <Gold.Version>
5.8.1

> <Gold.Id.Protein>
6NUR|6NUR_protein|mol2

> <Gold.PLP.Fitness>
40.4222

> <Gold.PLP.PLP>
-34.7186

> <Gold.PLP.part.hbond>
-1.5986

> <Gold.PLP.part.metal>
0.0000

> <Gold.PLP.part.buried>
-4.7227

> <Gold.PLP.part.nonpolar>
-28.5823

> <Gold.PLP.part.repulsive>
0.1530

> <Gold.PLP.ligand.clash>
0.0000

> <Gold.PLP.ligand.torsion>
0.7722

> <Gold.PLP.Chemscore.Hbond>
2.3680

> <Gold.PLP.Chemscore.CHOScore>
0.0000

> <Gold.PLP.Chemscore.Metal>
0.0000

> <Gold.Chemscore.Hbonds>
donor molecule, donor type, donor heavy atom, donor atom, acceptor molecule, acceptor atom, score
      L1  H     6    40       P1  8028  1.57
      P1  H 10752 10764       L1    17  0.70

> <Gold.PLP.Chemscore.Internal.Correction>
0.1438

> <Gold.Rescore>
     Score         DG    S(hbond)    S(metal)    S(lipo)     H(rot)  DE(clash)    DE(int)     intcor
     18.17     -19.17       1.83        0.00      90.15       1.16       0.12       0.88       ----

> <Gold.Chemscore.Fitness>
18.1705

> <Gold.Chemscore.DG>
-19.1728

> <Gold.Chemscore.ZeroCoef>
-5.4800

> <Gold.Chemscore.Hbond>
1.8330

> <Gold.Chemscore.Metal>
0.0000

> <Gold.Chemscore.Lipo>
90.1453

> <Gold.Chemscore.Internal_Hbond>
0.0000

> <Gold.Chemscore.DEClash>
0.1232

> <Gold.Chemscore.DEInternal>
0.8791

> <Gold.Chemscore.Rot>
1.1626

> <Gold.Chemscore.Internal.Correction>
   9.000000E+99

> <Gold.Chemscore.Hbonds>
donor molecule, donor type, donor heavy atom, donor atom, acceptor molecule, acceptor atom, score
      L1  H     6    40       P1  8028  0.75
      P1  H 10752 10764       L1    17  0.56

> <Gold.Chemscore.Hbond.Weighted>
-6.1221

> <Gold.Chemscore.Metal.Weighted>
-0.0000

> <Gold.Chemscore.Lipo.Weighted>
-10.5470

> <Gold.Chemscore.Internal_Hbond.Weighted>
0.0000

> <Gold.Chemscore.DEClash.Weighted>
0.1232

> <Gold.Chemscore.DEInternal.Weighted>
0.8791

> <Gold.Chemscore.Rot.Weighted>
2.9763

> <Gold.Chemscore.Internal.Correction.Weighted>
   9.000000E+99

> <Gold.Protein.RotatedTorsions>
[ 6907 6896 6895 6894 ] final -152.99 input  -60.11 | X-H torsion
[ 7974 7965 7964 7962 ] final -106.56 input  175.53 | X-H torsion
[ 8008 7997 7996 7995 ] final  -40.61 input   59.86 | X-H torsion
[ 10167 10162 10161 10158 ] final -123.94 input  -65.29 | X-H torsion
[ 10718 10713 10712 10709 ] final -152.09 input   66.30 | X-H torsion
[ 10763 10752 10751 10750 ] final  -46.95 input  -60.55 | X-H torsion
[ 11005 11000 10999 10996 ] final  -21.52 input  -57.11 | X-H torsion

> <Gold.Protein.ActiveResidues>
 VAL166  LYS551  ARG553  GLY616  TRP617  ASP618  TYR619  PRO620  LYS621  CYS622 
 ASP623  PHE694  ASN695  SER759  ASP760  ASP761  ALA762  ILE779  LEU786  VAL792 
 PHE793  MET794  SER795  GLU796  ALA797  LYS798  CYS799  TRP800  GLU811  SER814 

> <Gold.Protein.RotatedAtoms>
  151.2360  133.4425  159.2605 H   0  0  0  0  0  0  0  0  0  0  0  0  # atno 6907 bound_to 6896
  151.0750  134.9822  159.8337 H   0  0  0  0  0  0  0  0  0  0  0  0  # atno 6908 bound_to 6896
  152.5417  134.2303  159.8875 H   0  0  0  0  0  0  0  0  0  0  0  0  # atno 6909 bound_to 6896
  145.2163  140.9116  143.3285 H   0  0  0  0  0  0  0  0  0  0  0  0  # atno 7974 bound_to 7965
  154.4010  140.1521  156.3056 H   0  0  0  0  0  0  0  0  0  0  0  0  # atno 8008 bound_to 7997
  155.8661  140.3451  155.5768 H   0  0  0  0  0  0  0  0  0  0  0  0  # atno 8009 bound_to 7997
  155.7826  140.0845  157.2042 H   0  0  0  0  0  0  0  0  0  0  0  0  # atno 8010 bound_to 7997
  139.9982  143.5569  152.2314 H   0  0  0  0  0  0  0  0  0  0  0  0  # atno 10167 bound_to 10162
  156.4679  130.8244  151.2474 H   0  0  0  0  0  0  0  0  0  0  0  0  # atno 10718 bound_to 10713
  154.0533  135.6628  153.4803 H   0  0  0  0  0  0  0  0  0  0  0  0  # atno 10763 bound_to 10752
  153.0455  135.5117  154.7729 H   0  0  0  0  0  0  0  0  0  0  0  0  # atno 10764 bound_to 10752
  154.6743  135.3034  154.9666 H   0  0  0  0  0  0  0  0  0  0  0  0  # atno 10765 bound_to 10752
  140.8569  133.7816  156.0030 H   0  0  0  0  0  0  0  0  0  0  0  0  # atno 11005 bound_to 11000
  144.9807  139.3786  143.6263 LP  0  0  0  0  0  0  0  0  0  0  0  0  # atno 17320 bound_to 7965
  146.3386  139.8947  142.8803 LP  0  0  0  0  0  0  0  0  0  0  0  0  # atno 17321 bound_to 7965
  139.6291  144.7641  151.2575 LP  0  0  0  0  0  0  0  0  0  0  0  0  # atno 17342 bound_to 10162
  140.7429  143.6511  150.8248 LP  0  0  0  0  0  0  0  0  0  0  0  0  # atno 17343 bound_to 10162
  157.7493  131.0086  150.3234 LP  0  0  0  0  0  0  0  0  0  0  0  0  # atno 17370 bound_to 10713
  156.3649  130.3853  149.7222 LP  0  0  0  0  0  0  0  0  0  0  0  0  # atno 17371 bound_to 10713
  140.8727  134.2707  157.5183 LP  0  0  0  0  0  0  0  0  0  0  0  0  # atno 17394 bound_to 11000
  139.8705  134.9575  156.4271 LP  0  0  0  0  0  0  0  0  0  0  0  0  # atno 17395 bound_to 11000

$$$$
