AV-unprocessed.smi:1662|AV-procd|sdf|6662|dock6
  -GOLD-   22720 7373D 1   1.00000     0.00000
 Structure written by MMmdl.
 47 48  0  0  0  0  0  0  0  0  1 V2000
  146.5428  138.3776  158.0404 C   0  0  0  0  0  0  0  0  0  0  0  0
  147.0671  139.3121  156.9837 C   0  0  0  0  0  0  0  0  0  0  0  0
  148.2370  139.0464  156.5027 N   0  0  0  0  0  0  0  0  0  0  0  0
  148.8134  139.8431  155.5324 N   0  0  0  0  0  0  0  0  0  0  0  0
  150.1563  139.4106  155.1189 C   0  0  0  0  0  0  0  0  0  0  0  0
  151.2709  140.2998  155.6875 C   0  0  0  0  0  0  0  0  0  0  0  0
  152.3914  140.3036  155.1757 O   0  0  0  0  0  0  0  0  0  0  0  0
  150.9379  141.0614  156.7404 N   0  0  0  0  0  0  0  0  0  0  0  0
  151.8415  141.9563  157.4607 C   0  0  1  0  0  0  0  0  0  0  0  0
  151.2283  143.3686  157.5014 C   0  0  0  0  0  0  0  0  0  0  0  0
  152.1176  144.3386  158.2844 C   0  0  0  0  0  0  0  0  0  0  0  0
  152.3668  143.8164  159.7036 C   0  0  0  0  0  0  0  0  0  0  0  0
  153.0017  142.4112  159.6960 C   0  0  1  0  0  0  0  0  0  0  0  0
  153.2592  141.9553  161.1441 C   0  0  0  0  0  0  0  0  0  0  0  0
  152.1331  141.4082  158.8841 C   0  0  2  0  0  0  0  0  0  0  0  0
  152.7800  140.0068  158.8169 C   0  0  0  0  0  0  0  0  0  0  0  0
  148.2273  140.9465  154.9841 C   0  0  0  0  0  0  0  0  0  0  0  0
  148.7738  141.6217  154.1099 O   0  0  0  0  0  0  0  0  0  0  0  0
  146.9029  141.2423  155.5349 C   0  0  0  0  0  0  0  0  0  0  0  0
  146.2579  142.3955  154.9951 C   0  0  0  0  0  0  0  0  0  0  0  0
  145.7275  143.3350  154.5755 N   0  0  0  0  0  0  0  0  0  0  0  0
  146.3305  140.4733  156.4947 C   0  0  0  0  0  0  0  0  0  0  0  0
  144.9585  140.7376  157.0994 C   0  0  0  0  0  0  0  0  0  0  0  0
  145.5734  137.9701  157.7527 H   0  0  0  0  0  0  0  0  0  0  0  0
  146.4228  138.8986  158.9902 H   0  0  0  0  0  0  0  0  0  0  0  0
  147.2157  137.5353  158.2092 H   0  0  0  0  0  0  0  0  0  0  0  0
  150.3440  138.3860  155.4452 H   0  0  0  0  0  0  0  0  0  0  0  0
  150.2177  139.3866  154.0290 H   0  0  0  0  0  0  0  0  0  0  0  0
  149.9914  140.9994  157.0871 H   0  0  0  0  0  0  0  0  0  0  0  0
  152.7926  142.0113  156.9269 H   0  0  0  0  0  0  0  0  0  0  0  0
  151.0845  143.7459  156.4880 H   0  0  0  0  0  0  0  0  0  0  0  0
  150.2391  143.3315  157.9605 H   0  0  0  0  0  0  0  0  0  0  0  0
  153.0683  144.4690  157.7658 H   0  0  0  0  0  0  0  0  0  0  0  0
  151.6487  145.3219  158.3265 H   0  0  0  0  0  0  0  0  0  0  0  0
  153.0141  144.5158  160.2341 H   0  0  0  0  0  0  0  0  0  0  0  0
  151.4242  143.7927  160.2523 H   0  0  0  0  0  0  0  0  0  0  0  0
  153.9715  142.4926  159.2025 H   0  0  0  0  0  0  0  0  0  0  0  0
  152.3248  141.7654  161.6729 H   0  0  0  0  0  0  0  0  0  0  0  0
  153.8058  142.7164  161.7017 H   0  0  0  0  0  0  0  0  0  0  0  0
  153.8603  141.0475  161.1848 H   0  0  0  0  0  0  0  0  0  0  0  0
  151.1777  141.3029  159.4012 H   0  0  0  0  0  0  0  0  0  0  0  0
  153.7704  140.0513  158.3633 H   0  0  0  0  0  0  0  0  0  0  0  0
  152.1821  139.3078  158.2323 H   0  0  0  0  0  0  0  0  0  0  0  0
  152.8847  139.5614  159.8053 H   0  0  0  0  0  0  0  0  0  0  0  0
  144.5142  141.6606  156.7279 H   0  0  0  0  0  0  0  0  0  0  0  0
  145.0260  140.8234  158.1844 H   0  0  0  0  0  0  0  0  0  0  0  0
  144.2739  139.9229  156.8605 H   0  0  0  0  0  0  0  0  0  0  0  0
  1  2  1  0  0  0  0
  1 24  1  0  0  0  0
  1 25  1  0  0  0  0
  1 26  1  0  0  0  0
  2 22  1  0  0  0  0
  2  3  2  0  0  0  0
  3  4  1  0  0  0  0
  4  5  1  0  0  0  0
  4 17  1  0  0  0  0
  5  6  1  0  0  0  0
  5 27  1  0  0  0  0
  5 28  1  0  0  0  0
  6  7  2  0  0  0  0
  6  8  1  0  0  0  0
  8  9  1  0  0  0  0
  8 29  1  0  0  0  0
  9 15  1  0  0  0  0
  9 10  1  0  0  0  0
  9 30  1  0  0  0  0
 10 11  1  0  0  0  0
 10 31  1  0  0  0  0
 10 32  1  0  0  0  0
 11 12  1  0  0  0  0
 11 33  1  0  0  0  0
 11 34  1  0  0  0  0
 12 13  1  0  0  0  0
 12 35  1  0  0  0  0
 12 36  1  0  0  0  0
 13 14  1  0  0  0  0
 13 15  1  0  0  0  0
 13 37  1  0  0  0  0
 14 38  1  0  0  0  0
 14 39  1  0  0  0  0
 14 40  1  0  0  0  0
 15 16  1  0  0  0  0
 15 41  1  0  0  0  0
 16 42  1  0  0  0  0
 16 43  1  0  0  0  0
 16 44  1  0  0  0  0
 17 18  2  0  0  0  0
 17 19  1  0  0  0  0
 19 20  1  0  0  0  0
 19 22  2  0  0  0  0
 20 21  3  0  0  0  0
 22 23  1  0  0  0  0
 23 45  1  0  0  0  0
 23 46  1  0  0  0  0
 23 47  1  0  0  0  0
M  END
> <s_m_source_file>
AV-unprocessed.smi

> <i_m_source_file_index>
1662

> <i_lp_mmshare_version>
43012

> <i_f3d_flags>
0

> <s_epik_input>
TiNDYyhjMVtDSDNdKWMoPU8pbihuYzFbQ0gzXSlbQ0gyXUMoPU8pW05IXVtDQEBIXTJbQ0gyXVtDSDJdW0NIMl1bQ0BASF0oW0NIM10pW0NASF0yW0NIM10=

> <s_epik_cmdline>
J2VwaWtfcHl0aG9uJywgJy1waCcsICc3LjAnLCAnLXRuJywgJzgnLCAnLW1hJywgJzIwMCcsICctbWV0YWxfYmluZGluZycsICctaW1hZScsICc8aW5maWxlLm1hZT4nLCAnLW9tYWUnLCAnPG91dGZpbGUubWFlPic=

> <r_lp_tautomer_probability>
1

> <r_epik_Ionization_Penalty>
1.90709e-08

> <r_epik_Ionization_Penalty_Charging>
2.37982e-11

> <r_epik_Ionization_Penalty_Neutral>
1.90471e-08

> <r_epik_State_Penalty>
-0

> <r_epik_Charging_Adjusted_Penalty>
2.37982e-11

> <i_epik_Tot_Q>
0

> <i_epik_Tot_abs_Q>
0

> <r_epik_Metal_State_Penalty>
-0

> <b_epik_Metal_Only>
0

> <s_lp_Force_Field>
OPLS_2005

> <r_lp_Energy>
26.9998

> <b_lp_Chiralities_Consistent>
1

> <s_lp_Variant>
AV-unprocessed.smi:1662-6

> <Gold.Version>
5.8.1

> <Gold.Id.Protein>
6NUR|6NUR_protein|mol2

> <Gold.PLP.Fitness>
45.8106

> <Gold.PLP.PLP>
-41.4212

> <Gold.PLP.part.hbond>
-4.8842

> <Gold.PLP.part.metal>
0.0000

> <Gold.PLP.part.buried>
-4.4926

> <Gold.PLP.part.nonpolar>
-33.4727

> <Gold.PLP.part.repulsive>
1.1395

> <Gold.PLP.ligand.clash>
0.0000

> <Gold.PLP.ligand.torsion>
0.5054

> <Gold.PLP.Chemscore.Hbond>
1.7969

> <Gold.PLP.Chemscore.CHOScore>
0.0000

> <Gold.PLP.Chemscore.Metal>
0.0000

> <Gold.Chemscore.Hbonds>
donor molecule, donor type, donor heavy atom, donor atom, acceptor molecule, acceptor atom, score
      P1  H  7989  7998       L1     7  0.33
      P1  H  7997  8009       L1     7  0.51
      P1  H  8011  8017       L1    18  0.35

> <Gold.PLP.Chemscore.Internal.Correction>
0.0094

> <Gold.Rescore>
     Score         DG    S(hbond)    S(metal)    S(lipo)     H(rot)  DE(clash)    DE(int)     intcor
     17.83     -18.85       1.79        0.00      95.03       1.45       0.34       0.68       ----

> <Gold.Chemscore.Fitness>
17.8320

> <Gold.Chemscore.DG>
-18.8491

> <Gold.Chemscore.ZeroCoef>
-5.4800

> <Gold.Chemscore.Hbond>
1.7856

> <Gold.Chemscore.Metal>
0.0000

> <Gold.Chemscore.Lipo>
95.0274

> <Gold.Chemscore.Internal_Hbond>
0.0000

> <Gold.Chemscore.DEClash>
0.3404

> <Gold.Chemscore.DEInternal>
0.6766

> <Gold.Chemscore.Rot>
1.4504

> <Gold.Chemscore.Internal.Correction>
   9.000000E+99

> <Gold.Chemscore.Hbonds>
donor molecule, donor type, donor heavy atom, donor atom, acceptor molecule, acceptor atom, score
      P1  H  7989  7998       L1     7  0.02
      P1  H  7997  8009       L1     7  0.49
      P1  H  8011  8017       L1    18  0.35

> <Gold.Chemscore.Hbond.Weighted>
-5.9638

> <Gold.Chemscore.Metal.Weighted>
-0.0000

> <Gold.Chemscore.Lipo.Weighted>
-11.1182

> <Gold.Chemscore.Internal_Hbond.Weighted>
0.0000

> <Gold.Chemscore.DEClash.Weighted>
0.3404

> <Gold.Chemscore.DEInternal.Weighted>
0.6766

> <Gold.Chemscore.Rot.Weighted>
3.7129

> <Gold.Chemscore.Internal.Correction.Weighted>
   9.000000E+99

> <Gold.Protein.RotatedTorsions>
[ 6907 6896 6895 6894 ] final  -56.41 input  -60.11 | X-H torsion
[ 7974 7965 7964 7962 ] final  173.62 input  175.53 | X-H torsion
[ 8008 7997 7996 7995 ] final -157.95 input   59.86 | X-H torsion
[ 10167 10162 10161 10158 ] final  -65.55 input  -65.29 | X-H torsion
[ 10718 10713 10712 10709 ] final   98.42 input   66.30 | X-H torsion
[ 10763 10752 10751 10750 ] final  114.02 input  -60.55 | X-H torsion
[ 11005 11000 10999 10996 ] final  -47.69 input  -57.11 | X-H torsion

> <Gold.Protein.ActiveResidues>
 VAL166  LYS551  ARG553  GLY616  TRP617  ASP618  TYR619  PRO620  LYS621  CYS622 
 ASP623  PHE694  ASN695  SER759  ASP760  ASP761  ALA762  ILE779  LEU786  VAL792 
 PHE793  MET794  SER795  GLU796  ALA797  LYS798  CYS799  TRP800  GLU811  SER814 

> <Gold.Protein.RotatedAtoms>
  150.8170  134.7357  159.6738 H   0  0  0  0  0  0  0  0  0  0  0  0  # atno 6907 bound_to 6896
  152.4288  134.5815  159.9959 H   0  0  0  0  0  0  0  0  0  0  0  0  # atno 6908 bound_to 6896
  151.6009  133.3319  159.3083 H   0  0  0  0  0  0  0  0  0  0  0  0  # atno 6909 bound_to 6896
  144.7239  139.9675  143.6436 H   0  0  0  0  0  0  0  0  0  0  0  0  # atno 7974 bound_to 7965
  155.7402  140.0813  157.2249 H   0  0  0  0  0  0  0  0  0  0  0  0  # atno 8008 bound_to 7997
  154.4023  140.1579  156.2662 H   0  0  0  0  0  0  0  0  0  0  0  0  # atno 8009 bound_to 7997
  155.9028  140.3408  155.6042 H   0  0  0  0  0  0  0  0  0  0  0  0  # atno 8010 bound_to 7997
  140.5721  143.2318  151.6516 H   0  0  0  0  0  0  0  0  0  0  0  0  # atno 10167 bound_to 10162
  157.6896  131.0639  150.4793 H   0  0  0  0  0  0  0  0  0  0  0  0  # atno 10718 bound_to 10713
  153.5011  135.3638  155.2540 H   0  0  0  0  0  0  0  0  0  0  0  0  # atno 10763 bound_to 10752
  154.8747  135.4000  154.3478 H   0  0  0  0  0  0  0  0  0  0  0  0  # atno 10764 bound_to 10752
  153.4114  135.7078  153.6423 H   0  0  0  0  0  0  0  0  0  0  0  0  # atno 10765 bound_to 10752
  141.0656  133.6695  156.3333 H   0  0  0  0  0  0  0  0  0  0  0  0  # atno 11005 bound_to 11000
  146.0589  139.3583  143.0594 LP  0  0  0  0  0  0  0  0  0  0  0  0  # atno 17320 bound_to 7965
  145.8119  140.9722  143.0944 LP  0  0  0  0  0  0  0  0  0  0  0  0  # atno 17321 bound_to 7965
  139.5123  144.3480  152.0679 LP  0  0  0  0  0  0  0  0  0  0  0  0  # atno 17342 bound_to 10162
  140.2619  144.4058  150.6182 LP  0  0  0  0  0  0  0  0  0  0  0  0  # atno 17343 bound_to 10162
  156.5126  130.4143  149.6293 LP  0  0  0  0  0  0  0  0  0  0  0  0  # atno 17370 bound_to 10713
  156.3226  130.7289  151.2204 LP  0  0  0  0  0  0  0  0  0  0  0  0  # atno 17371 bound_to 10713
  140.5781  134.5773  157.5473 LP  0  0  0  0  0  0  0  0  0  0  0  0  # atno 17394 bound_to 11000
  139.9473  134.7679  156.0532 LP  0  0  0  0  0  0  0  0  0  0  0  0  # atno 17395 bound_to 11000

$$$$
