AV-unprocessed.smi:2154|AV-procd|sdf|8771|dock2
  -GOLD-   2272011553D 1   1.00000     0.00000
 Structure written by MMmdl.
 32 33  0  0  0  0  0  0  0  0  1 V2000
  152.6413  143.0278  160.5024 C   0  0  0  0  0  0  0  0  0  0  0  0
  151.5464  144.0718  160.4073 C   0  0  1  0  0  0  0  0  0  0  0  0
  151.8696  145.4928  160.0105 C   0  0  0  0  0  0  0  0  0  0  0  0
  151.0594  144.6193  159.0798 C   0  0  1  0  0  0  0  0  0  0  0  0
  151.6318  144.1440  157.7550 C   0  0  0  0  0  0  0  0  0  0  0  0
  150.7477  143.2843  156.9799 N   0  0  0  0  0  0  0  0  0  0  0  0
  150.9179  141.9651  156.8059 C   0  0  0  0  0  0  0  0  0  0  0  0
  151.8440  141.3323  157.3152 O   0  0  0  0  0  0  0  0  0  0  0  0
  149.8652  141.2565  155.9413 C   0  0  0  0  0  0  0  0  0  0  0  0
  150.1458  139.8259  155.7506 N   0  0  0  0  0  0  0  0  0  0  0  0
  150.3914  139.3230  154.4806 C   0  0  0  0  0  0  0  0  0  0  0  0
  150.6493  138.0170  154.2326 C   0  0  0  0  0  0  0  0  0  0  0  0
  150.6802  137.0500  155.3247 C   0  0  0  0  0  0  0  0  0  0  0  0
  150.9065  135.8483  155.2018 O   0  0  0  0  0  0  0  0  0  0  0  0
  150.4250  137.5936  156.5865 N   0  0  0  0  0  0  0  0  0  0  0  0
  150.1572  138.9382  156.8486 C   0  0  0  0  0  0  0  0  0  0  0  0
  149.9419  139.3125  158.0010 O   0  0  0  0  0  0  0  0  0  0  0  0
  150.4332  136.9611  157.3735 H   0  0  0  0  0  0  0  0  0  0  0  0
  153.4547  143.2422  159.8094 H   0  0  0  0  0  0  0  0  0  0  0  0
  152.2382  142.0410  160.2748 H   0  0  0  0  0  0  0  0  0  0  0  0
  153.0508  143.0107  161.5125 H   0  0  0  0  0  0  0  0  0  0  0  0
  150.7768  143.9529  161.1677 H   0  0  0  0  0  0  0  0  0  0  0  0
  151.3451  146.2923  160.5293 H   0  0  0  0  0  0  0  0  0  0  0  0
  152.8948  145.7203  159.7247 H   0  0  0  0  0  0  0  0  0  0  0  0
  149.9906  144.8214  159.0376 H   0  0  0  0  0  0  0  0  0  0  0  0
  151.9324  144.9992  157.1480 H   0  0  0  0  0  0  0  0  0  0  0  0
  152.5407  143.5788  157.9616 H   0  0  0  0  0  0  0  0  0  0  0  0
  149.9570  143.7255  156.5329 H   0  0  0  0  0  0  0  0  0  0  0  0
  148.8921  141.3916  156.4155 H   0  0  0  0  0  0  0  0  0  0  0  0
  149.7848  141.7544  154.9726 H   0  0  0  0  0  0  0  0  0  0  0  0
  150.3741  140.0024  153.6402 H   0  0  0  0  0  0  0  0  0  0  0  0
  150.8326  137.6854  153.2208 H   0  0  0  0  0  0  0  0  0  0  0  0
  1  2  1  0  0  0  0
  1 19  1  0  0  0  0
  1 20  1  0  0  0  0
  1 21  1  0  0  0  0
  2  4  1  0  0  0  0
  2  3  1  0  0  0  0
  2 22  1  0  0  0  0
  3  4  1  0  0  0  0
  3 23  1  0  0  0  0
  3 24  1  0  0  0  0
  4  5  1  0  0  0  0
  4 25  1  0  0  0  0
  5  6  1  0  0  0  0
  5 26  1  0  0  0  0
  5 27  1  0  0  0  0
  6  7  1  0  0  0  0
  6 28  1  0  0  0  0
  7  8  2  0  0  0  0
  7  9  1  0  0  0  0
  9 10  1  0  0  0  0
  9 29  1  0  0  0  0
  9 30  1  0  0  0  0
 10 16  1  0  0  0  0
 10 11  1  0  0  0  0
 11 12  2  0  0  0  0
 11 31  1  0  0  0  0
 12 13  1  0  0  0  0
 12 32  1  0  0  0  0
 13 14  2  0  0  0  0
 13 15  1  0  0  0  0
 15 18  1  0  0  0  0
 15 16  1  0  0  0  0
 16 17  2  0  0  0  0
M  END
> <s_m_source_file>
AV-unprocessed.smi

> <i_m_source_file_index>
2154

> <i_lp_mmshare_version>
43012

> <i_f3d_flags>
0

> <s_epik_input>
W0NIM11bQ0BASF0xW0NIMl1bQ0BIXTFbQ0gyXVtOSF1DKD1PKVtDSDJdbjJbY0hdW2NIXWMoPU8pW25IXWMyPU8=

> <s_epik_cmdline>
J2VwaWtfcHl0aG9uJywgJy1waCcsICc3LjAnLCAnLXRuJywgJzgnLCAnLW1hJywgJzIwMCcsICctbWV0YWxfYmluZGluZycsICctaW1hZScsICc8aW5maWxlLm1hZT4nLCAnLW9tYWUnLCAnPG91dGZpbGUubWFlPic=

> <r_lp_tautomer_probability>
0.999537

> <r_epik_Ionization_Penalty>
0.00305319

> <r_epik_Ionization_Penalty_Charging>
0.00305317

> <r_epik_Ionization_Penalty_Neutral>
2.06703e-08

> <r_epik_State_Penalty>
0.00214626

> <r_epik_Charging_Adjusted_Penalty>
0.00519944

> <i_epik_Tot_Q>
0

> <i_epik_Tot_abs_Q>
0

> <r_epik_Metal_State_Penalty>
0.361976

> <b_epik_Metal_Only>
0

> <s_lp_Force_Field>
OPLS_2005

> <r_lp_Energy>
15.5744

> <b_lp_Chiralities_Consistent>
1

> <s_lp_Variant>
AV-unprocessed.smi:2154-2

> <Gold.Version>
5.8.1

> <Gold.Id.Protein>
6NUR|6NUR_protein|mol2

> <Gold.PLP.Fitness>
44.1699

> <Gold.PLP.PLP>
-35.4604

> <Gold.PLP.part.hbond>
-2.0000

> <Gold.PLP.part.metal>
0.0000

> <Gold.PLP.part.buried>
-2.1592

> <Gold.PLP.part.nonpolar>
-31.4576

> <Gold.PLP.part.repulsive>
0.1881

> <Gold.PLP.ligand.clash>
0.0000

> <Gold.PLP.ligand.torsion>
0.4194

> <Gold.PLP.Chemscore.Hbond>
2.0000

> <Gold.PLP.Chemscore.CHOScore>
1.0000

> <Gold.PLP.Chemscore.Metal>
0.0000

> <Gold.Chemscore.Hbonds>
donor molecule, donor type, donor heavy atom, donor atom, acceptor molecule, acceptor atom, score
      L1  H     6    28       P1  8028  1.00
      P1  H 10752 10765       L1    14  0.76
      L1  C    11    31       P1  7957  0.86

> <Gold.PLP.Chemscore.Internal.Correction>
0.5484

> <Gold.Rescore>
     Score         DG    S(hbond)    S(metal)    S(lipo)     H(rot)  DE(clash)    DE(int)     intcor
     15.21     -15.68       1.90        0.00      76.85       2.01       0.01       0.47       ----

> <Gold.Chemscore.Fitness>
15.2057

> <Gold.Chemscore.DG>
-15.6835

> <Gold.Chemscore.ZeroCoef>
-5.4800

> <Gold.Chemscore.Hbond>
1.9009

> <Gold.Chemscore.Metal>
0.0000

> <Gold.Chemscore.Lipo>
76.8481

> <Gold.Chemscore.Internal_Hbond>
0.0000

> <Gold.Chemscore.DEClash>
0.0052

> <Gold.Chemscore.DEInternal>
0.4726

> <Gold.Chemscore.Rot>
2.0065

> <Gold.Chemscore.Internal.Correction>
   9.000000E+99

> <Gold.Chemscore.Hbonds>
donor molecule, donor type, donor heavy atom, donor atom, acceptor molecule, acceptor atom, score
      L1  H     6    28       P1  8028  1.00
      P1  H 10752 10765       L1    14  0.56

> <Gold.Chemscore.Hbond.Weighted>
-6.3489

> <Gold.Chemscore.Metal.Weighted>
-0.0000

> <Gold.Chemscore.Lipo.Weighted>
-8.9912

> <Gold.Chemscore.Internal_Hbond.Weighted>
0.0000

> <Gold.Chemscore.DEClash.Weighted>
0.0052

> <Gold.Chemscore.DEInternal.Weighted>
0.4726

> <Gold.Chemscore.Rot.Weighted>
5.1366

> <Gold.Chemscore.Internal.Correction.Weighted>
   9.000000E+99

> <Gold.Protein.RotatedTorsions>
[ 6907 6896 6895 6894 ] final  128.46 input  -60.11 | X-H torsion
[ 7974 7965 7964 7962 ] final  -76.48 input  175.53 | X-H torsion
[ 8008 7997 7996 7995 ] final  140.15 input   59.86 | X-H torsion
[ 10167 10162 10161 10158 ] final   59.79 input  -65.29 | X-H torsion
[ 10718 10713 10712 10709 ] final  -42.30 input   66.30 | X-H torsion
[ 10763 10752 10751 10750 ] final -175.74 input  -60.55 | X-H torsion
[ 11005 11000 10999 10996 ] final -124.71 input  -57.11 | X-H torsion

> <Gold.Protein.ActiveResidues>
 VAL166  LYS551  ARG553  GLY616  TRP617  ASP618  TYR619  PRO620  LYS621  CYS622 
 ASP623  PHE694  ASN695  SER759  ASP760  ASP761  ALA762  ILE779  LEU786  VAL792 
 PHE793  MET794  SER795  GLU796  ALA797  LYS798  CYS799  TRP800  GLU811  SER814 

> <Gold.Protein.RotatedAtoms>
  152.3717  133.6427  159.6091 H   0  0  0  0  0  0  0  0  0  0  0  0  # atno 6907 bound_to 6896
  150.7673  133.9260  159.3421 H   0  0  0  0  0  0  0  0  0  0  0  0  # atno 6908 bound_to 6896
  151.7081  135.0919  160.0314 H   0  0  0  0  0  0  0  0  0  0  0  0  # atno 6909 bound_to 6896
  145.6124  140.9383  143.1182 H   0  0  0  0  0  0  0  0  0  0  0  0  # atno 7974 bound_to 7965
  156.2982  140.2349  156.4353 H   0  0  0  0  0  0  0  0  0  0  0  0  # atno 8008 bound_to 7997
  154.8234  140.0436  157.1447 H   0  0  0  0  0  0  0  0  0  0  0  0  # atno 8009 bound_to 7997
  154.9289  140.3014  155.5181 H   0  0  0  0  0  0  0  0  0  0  0  0  # atno 8010 bound_to 7997
  140.1726  144.4262  150.6654 H   0  0  0  0  0  0  0  0  0  0  0  0  # atno 10167 bound_to 10162
  156.2610  130.4197  149.8542 H   0  0  0  0  0  0  0  0  0  0  0  0  # atno 10718 bound_to 10713
  154.5808  135.2836  155.0734 H   0  0  0  0  0  0  0  0  0  0  0  0  # atno 10763 bound_to 10752
  154.2071  135.6414  153.5108 H   0  0  0  0  0  0  0  0  0  0  0  0  # atno 10764 bound_to 10752
  153.0088  135.5483  154.6462 H   0  0  0  0  0  0  0  0  0  0  0  0  # atno 10765 bound_to 10752
  140.9820  134.0660  157.3754 H   0  0  0  0  0  0  0  0  0  0  0  0  # atno 11005 bound_to 11000
  144.7264  139.7861  143.7363 LP  0  0  0  0  0  0  0  0  0  0  0  0  # atno 17320 bound_to 7965
  146.1494  139.4573  143.0058 LP  0  0  0  0  0  0  0  0  0  0  0  0  # atno 17321 bound_to 7965
  140.6572  143.2241  151.5941 LP  0  0  0  0  0  0  0  0  0  0  0  0  # atno 17342 bound_to 10162
  139.5331  144.2858  152.1192 LP  0  0  0  0  0  0  0  0  0  0  0  0  # atno 17343 bound_to 10162
  156.6057  130.8565  151.3442 LP  0  0  0  0  0  0  0  0  0  0  0  0  # atno 17370 bound_to 10713
  157.7250  130.9611  150.1598 LP  0  0  0  0  0  0  0  0  0  0  0  0  # atno 17371 bound_to 10713
  139.8954  135.0141  156.7000 LP  0  0  0  0  0  0  0  0  0  0  0  0  # atno 17394 bound_to 11000
  140.7172  133.9172  155.8123 LP  0  0  0  0  0  0  0  0  0  0  0  0  # atno 17395 bound_to 11000

$$$$
