AV-unprocessed.smi:1439|AV-procd|sdf|5869|dock3
  -GOLD-   22720 5543D 1   1.00000     0.00000
 Structure written by MMmdl.
 36 37  0  0  0  0  0  0  0  0  1 V2000
  143.8108  141.5974  155.0808 N   0  0  0  0  0  0  0  0  0  0  0  0
  144.8939  142.3358  155.3376 C   0  0  0  0  0  0  0  0  0  0  0  0
  145.1070  142.8272  156.4440 O   0  0  0  0  0  0  0  0  0  0  0  0
  145.8770  142.5601  154.1869 C   0  0  0  0  0  0  0  0  0  0  0  0
  147.1867  141.8859  154.4784 C   0  0  0  0  0  0  0  0  0  0  0  0
  147.8791  141.0373  153.6476 C   0  0  0  0  0  0  0  0  0  0  0  0
  149.3601  140.4734  154.3723 S   0  0  0  0  0  0  0  0  0  0  0  0
  148.9694  141.4235  155.8071 C   0  0  0  0  0  0  0  0  0  0  0  0
  149.7257  141.5320  157.0005 N   0  0  0  0  0  0  0  0  0  0  0  0
  150.8033  140.8155  157.3651 C   0  0  0  0  0  0  0  0  0  0  0  0
  151.3102  139.9232  156.6855 O   0  0  0  0  0  0  0  0  0  0  0  0
  151.4015  141.1663  158.7311 C   0  0  0  0  0  0  0  0  0  0  0  0
  152.0659  142.5549  158.7552 C   0  0  0  0  0  0  0  0  0  0  0  0
  152.7489  142.8589  160.0965 C   0  0  2  0  0  0  0  0  0  0  0  0
  153.5471  141.6896  160.6646 C   0  0  0  0  0  0  0  0  0  0  0  0
  153.6331  142.0292  162.1417 C   0  0  0  0  0  0  0  0  0  0  0  0
  152.4371  142.9583  162.3770 C   0  0  0  0  0  0  0  0  0  0  0  0
  151.7896  143.0891  161.1164 O   0  0  0  0  0  0  0  0  0  0  0  0
  147.8197  142.0931  155.7098 N   0  0  0  0  0  0  0  0  0  0  0  0
  143.1407  141.4189  155.8148 H   0  0  0  0  0  0  0  0  0  0  0  0
  143.6690  141.2140  154.1574 H   0  0  0  0  0  0  0  0  0  0  0  0
  145.4392  142.1857  153.2602 H   0  0  0  0  0  0  0  0  0  0  0  0
  146.0239  143.6313  154.0443 H   0  0  0  0  0  0  0  0  0  0  0  0
  147.6087  140.7153  152.6528 H   0  0  0  0  0  0  0  0  0  0  0  0
  149.4135  142.2382  157.6509 H   0  0  0  0  0  0  0  0  0  0  0  0
  150.6210  141.1229  159.4924 H   0  0  0  0  0  0  0  0  0  0  0  0
  152.1319  140.3991  158.9901 H   0  0  0  0  0  0  0  0  0  0  0  0
  152.7990  142.6353  157.9513 H   0  0  0  0  0  0  0  0  0  0  0  0
  151.3106  143.3181  158.5616 H   0  0  0  0  0  0  0  0  0  0  0  0
  153.3921  143.7365  160.0082 H   0  0  0  0  0  0  0  0  0  0  0  0
  152.9959  140.7571  160.5347 H   0  0  0  0  0  0  0  0  0  0  0  0
  154.5248  141.5738  160.1957 H   0  0  0  0  0  0  0  0  0  0  0  0
  153.5942  141.1355  162.7652 H   0  0  0  0  0  0  0  0  0  0  0  0
  154.5643  142.5527  162.3616 H   0  0  0  0  0  0  0  0  0  0  0  0
  151.7436  142.5590  163.1175 H   0  0  0  0  0  0  0  0  0  0  0  0
  152.7722  143.9379  162.7199 H   0  0  0  0  0  0  0  0  0  0  0  0
  1  2  1  0  0  0  0
  1 20  1  0  0  0  0
  1 21  1  0  0  0  0
  2  3  2  0  0  0  0
  2  4  1  0  0  0  0
  4  5  1  0  0  0  0
  4 22  1  0  0  0  0
  4 23  1  0  0  0  0
  5 19  1  0  0  0  0
  5  6  2  0  0  0  0
  6  7  1  0  0  0  0
  6 24  1  0  0  0  0
  7  8  1  0  0  0  0
  8  9  1  0  0  0  0
  8 19  2  0  0  0  0
  9 10  1  0  0  0  0
  9 25  1  0  0  0  0
 10 11  2  0  0  0  0
 10 12  1  0  0  0  0
 12 13  1  0  0  0  0
 12 26  1  0  0  0  0
 12 27  1  0  0  0  0
 13 14  1  0  0  0  0
 13 28  1  0  0  0  0
 13 29  1  0  0  0  0
 14 18  1  0  0  0  0
 14 15  1  0  0  0  0
 14 30  1  0  0  0  0
 15 16  1  0  0  0  0
 15 31  1  0  0  0  0
 15 32  1  0  0  0  0
 16 17  1  0  0  0  0
 16 33  1  0  0  0  0
 16 34  1  0  0  0  0
 17 18  1  0  0  0  0
 17 35  1  0  0  0  0
 17 36  1  0  0  0  0
M  END
> <s_m_source_file>
AV-unprocessed.smi

> <i_m_source_file_index>
1439

> <i_lp_mmshare_version>
43012

> <i_f3d_flags>
0

> <s_epik_input>
W05IMl1DKD1PKVtDSDJdYzFbY0hdc2MobjEpW05IXUMoPU8pW0NIMl1bQ0gyXVtDQEBIXTJbQ0gyXVtDSDJdW0NIMl1PMg==

> <s_epik_cmdline>
J2VwaWtfcHl0aG9uJywgJy1waCcsICc3LjAnLCAnLXRuJywgJzgnLCAnLW1hJywgJzIwMCcsICctbWV0YWxfYmluZGluZycsICctaW1hZScsICc8aW5maWxlLm1hZT4nLCAnLW9tYWUnLCAnPG91dGZpbGUubWFlPic=

> <r_lp_tautomer_probability>
1

> <r_epik_Ionization_Penalty>
0.000300833

> <r_epik_Ionization_Penalty_Charging>
0

> <r_epik_Ionization_Penalty_Neutral>
0.000300833

> <r_epik_State_Penalty>
-0

> <r_epik_Charging_Adjusted_Penalty>
0

> <i_epik_Tot_Q>
0

> <i_epik_Tot_abs_Q>
0

> <r_epik_Metal_State_Penalty>
0.167159

> <b_epik_Metal_Only>
0

> <s_lp_Force_Field>
OPLS_2005

> <r_lp_Energy>
15.8288

> <b_lp_Chiralities_Consistent>
1

> <s_lp_Variant>
AV-unprocessed.smi:1439-1

> <Gold.Version>
5.8.1

> <Gold.Id.Protein>
6NUR|6NUR_protein|mol2

> <Gold.PLP.Fitness>
43.7904

> <Gold.PLP.PLP>
-39.1575

> <Gold.PLP.part.hbond>
-1.7324

> <Gold.PLP.part.metal>
0.0000

> <Gold.PLP.part.buried>
-3.2779

> <Gold.PLP.part.nonpolar>
-36.1221

> <Gold.PLP.part.repulsive>
2.8137

> <Gold.PLP.ligand.clash>
0.0000

> <Gold.PLP.ligand.torsion>
0.3315

> <Gold.PLP.Chemscore.Hbond>
1.0000

> <Gold.PLP.Chemscore.CHOScore>
0.7388

> <Gold.PLP.Chemscore.Metal>
0.0000

> <Gold.Chemscore.Hbonds>
donor molecule, donor type, donor heavy atom, donor atom, acceptor molecule, acceptor atom, score
      L1  H     1    21       P1 10175  1.00
      L1  C     6    24       P1  7957  0.65

> <Gold.PLP.Chemscore.Internal.Correction>
0.0794

> <Gold.Rescore>
     Score         DG    S(hbond)    S(metal)    S(lipo)     H(rot)  DE(clash)    DE(int)     intcor
     10.46     -12.95       0.97        0.00      92.30       2.56       0.46       2.03       ----

> <Gold.Chemscore.Fitness>
10.4632

> <Gold.Chemscore.DG>
-12.9543

> <Gold.Chemscore.ZeroCoef>
-5.4800

> <Gold.Chemscore.Hbond>
0.9667

> <Gold.Chemscore.Metal>
0.0000

> <Gold.Chemscore.Lipo>
92.2966

> <Gold.Chemscore.Internal_Hbond>
0.0000

> <Gold.Chemscore.DEClash>
0.4611

> <Gold.Chemscore.DEInternal>
2.0300

> <Gold.Chemscore.Rot>
2.5598

> <Gold.Chemscore.Internal.Correction>
   9.000000E+99

> <Gold.Chemscore.Hbonds>
donor molecule, donor type, donor heavy atom, donor atom, acceptor molecule, acceptor atom, score
      L1  H     1    21       P1 10175  0.45

> <Gold.Chemscore.Hbond.Weighted>
-3.2288

> <Gold.Chemscore.Metal.Weighted>
-0.0000

> <Gold.Chemscore.Lipo.Weighted>
-10.7987

> <Gold.Chemscore.Internal_Hbond.Weighted>
0.0000

> <Gold.Chemscore.DEClash.Weighted>
0.4611

> <Gold.Chemscore.DEInternal.Weighted>
2.0300

> <Gold.Chemscore.Rot.Weighted>
6.5532

> <Gold.Chemscore.Internal.Correction.Weighted>
   9.000000E+99

> <Gold.Protein.RotatedTorsions>
[ 6907 6896 6895 6894 ] final -109.43 input  -60.11 | X-H torsion
[ 7974 7965 7964 7962 ] final   55.48 input  175.53 | X-H torsion
[ 8008 7997 7996 7995 ] final  174.79 input   59.86 | X-H torsion
[ 10167 10162 10161 10158 ] final  174.61 input  -65.29 | X-H torsion
[ 10718 10713 10712 10709 ] final   -6.56 input   66.30 | X-H torsion
[ 10763 10752 10751 10750 ] final   69.30 input  -60.55 | X-H torsion
[ 11005 11000 10999 10996 ] final -144.29 input  -57.11 | X-H torsion

> <Gold.Protein.ActiveResidues>
 VAL166  LYS551  ARG553  GLY616  TRP617  ASP618  TYR619  PRO620  LYS621  CYS622 
 ASP623  PHE694  ASN695  SER759  ASP760  ASP761  ALA762  ILE779  LEU786  VAL792 
 PHE793  MET794  SER795  GLU796  ALA797  LYS798  CYS799  TRP800  GLU811  SER814 

> <Gold.Protein.RotatedAtoms>
  150.7562  133.9530  159.3491 H   0  0  0  0  0  0  0  0  0  0  0  0  # atno 6907 bound_to 6896
  151.7449  135.0844  160.0331 H   0  0  0  0  0  0  0  0  0  0  0  0  # atno 6908 bound_to 6896
  152.3504  133.6136  159.5977 H   0  0  0  0  0  0  0  0  0  0  0  0  # atno 6909 bound_to 6896
  145.9499  139.3963  143.0312 H   0  0  0  0  0  0  0  0  0  0  0  0  # atno 7974 bound_to 7965
  156.0938  140.1425  156.9558 H   0  0  0  0  0  0  0  0  0  0  0  0  # atno 8008 bound_to 7997
  154.4658  140.0927  156.7063 H   0  0  0  0  0  0  0  0  0  0  0  0  # atno 8009 bound_to 7997
  155.4876  140.3447  155.4352 H   0  0  0  0  0  0  0  0  0  0  0  0  # atno 8010 bound_to 7997
  139.5148  144.3127  152.0277 H   0  0  0  0  0  0  0  0  0  0  0  0  # atno 10167 bound_to 10162
  156.7301  130.5177  149.5847 H   0  0  0  0  0  0  0  0  0  0  0  0  # atno 10718 bound_to 10713
  153.0280  135.5215  154.7267 H   0  0  0  0  0  0  0  0  0  0  0  0  # atno 10763 bound_to 10752
  154.6307  135.2900  155.0222 H   0  0  0  0  0  0  0  0  0  0  0  0  # atno 10764 bound_to 10752
  154.1175  135.6612  153.4949 H   0  0  0  0  0  0  0  0  0  0  0  0  # atno 10765 bound_to 10752
  140.8039  134.2824  157.4968 H   0  0  0  0  0  0  0  0  0  0  0  0  # atno 11005 bound_to 11000
  145.8185  140.9691  143.0911 LP  0  0  0  0  0  0  0  0  0  0  0  0  # atno 17320 bound_to 7965
  144.6794  140.0011  143.7484 LP  0  0  0  0  0  0  0  0  0  0  0  0  # atno 17321 bound_to 7965
  140.2571  144.4107  150.6199 LP  0  0  0  0  0  0  0  0  0  0  0  0  # atno 17342 bound_to 10162
  140.6184  143.2174  151.6745 LP  0  0  0  0  0  0  0  0  0  0  0  0  # atno 17343 bound_to 10162
  156.1535  130.6326  151.0626 LP  0  0  0  0  0  0  0  0  0  0  0  0  # atno 17370 bound_to 10713
  157.6862  131.0824  150.7235 LP  0  0  0  0  0  0  0  0  0  0  0  0  # atno 17371 bound_to 10713
  139.8719  134.9445  156.3883 LP  0  0  0  0  0  0  0  0  0  0  0  0  # atno 17394 bound_to 11000
  140.9267  133.7608  155.9973 LP  0  0  0  0  0  0  0  0  0  0  0  0  # atno 17395 bound_to 11000

$$$$
