AV-unprocessed.smi:2895|AV-procd|sdf|11135|dock9
  -GOLD-   2272016 13D 1   1.00000     0.00000
 Structure written by MMmdl.
 54 57  0  0  0  0  0  0  0  0  3 V2000
  150.2462  138.2843  154.4918 O   0  0  0  0  0  0  0  0  0  0  0  0
  149.5810  139.1486  155.0638 C   0  0  0  0  0  0  0  0  0  0  0  0
  148.2482  139.0427  155.2018 N   0  0  0  0  0  0  0  0  0  0  0  0
  147.4355  137.9326  154.7167 C   0  0  0  0  0  0  0  0  0  0  0  0
  147.8175  136.6046  155.3926 C   0  0  0  0  0  0  0  0  0  0  0  0
  146.7271  135.5585  155.2605 C   0  0  0  0  0  0  0  0  0  0  0  0
  145.4427  135.7935  155.7992 C   0  0  0  0  0  0  0  0  0  0  0  0
  144.4470  134.8046  155.6613 C   0  0  0  0  0  0  0  0  0  0  0  0
  144.7307  133.6490  155.0211 N   0  3  0  0  0  0  0  0  0  0  0  0
  145.9455  133.3846  154.4921 C   0  0  0  0  0  0  0  0  0  0  0  0
  146.9796  134.3372  154.5970 C   0  0  0  0  0  0  0  0  0  0  0  0
  150.1279  140.2575  155.6253 N   0  0  0  0  0  0  0  0  0  0  0  0
  151.5016  140.3905  156.1375 C   0  0  0  0  0  0  0  0  0  0  0  0
  151.4560  140.5437  157.6707 C   0  0  0  0  0  0  0  0  0  0  0  0
  150.6092  141.6962  158.0936 N   0  3  0  0  0  0  0  0  0  0  0  0
  151.2628  143.0325  157.9466 C   0  0  1  0  0  0  0  0  0  0  0  0
  150.4477  144.2038  158.5491 C   0  0  0  0  0  0  0  0  0  0  0  0
  151.4804  144.9407  159.4223 C   0  0  1  0  0  0  0  0  0  0  0  0
  151.7189  144.1237  160.7036 C   0  0  0  0  0  0  0  0  0  0  0  0
  152.5028  142.9065  160.1818 C   0  0  0  0  0  0  0  0  0  0  0  0
  152.6246  143.1942  158.6693 C   0  0  2  0  0  0  0  0  0  0  0  0
  152.7802  144.7114  158.6613 C   0  0  0  0  0  0  0  0  0  0  0  0
  149.2545  141.6269  157.4737 C   0  0  0  0  0  0  0  0  0  0  0  0
  149.3230  141.4429  155.9435 C   0  0  0  0  0  0  0  0  0  0  0  0
  147.7643  139.7787  155.6953 H   0  0  0  0  0  0  0  0  0  0  0  0
  146.3777  138.1530  154.8710 H   0  0  0  0  0  0  0  0  0  0  0  0
  147.5826  137.8555  153.6390 H   0  0  0  0  0  0  0  0  0  0  0  0
  148.7417  136.2185  154.9609 H   0  0  0  0  0  0  0  0  0  0  0  0
  148.0172  136.7617  156.4534 H   0  0  0  0  0  0  0  0  0  0  0  0
  145.2217  136.7196  156.3100 H   0  0  0  0  0  0  0  0  0  0  0  0
  143.4404  134.9023  156.0412 H   0  0  0  0  0  0  0  0  0  0  0  0
  146.0531  132.4264  154.0047 H   0  0  0  0  0  0  0  0  0  0  0  0
  147.9520  134.1299  154.1738 H   0  0  0  0  0  0  0  0  0  0  0  0
  152.1538  139.5553  155.8834 H   0  0  0  0  0  0  0  0  0  0  0  0
  151.9669  141.2654  155.6819 H   0  0  0  0  0  0  0  0  0  0  0  0
  151.0245  139.6395  158.1022 H   0  0  0  0  0  0  0  0  0  0  0  0
  152.4619  140.6057  158.0822 H   0  0  0  0  0  0  0  0  0  0  0  0
  151.4219  143.2271  156.8851 H   0  0  0  0  0  0  0  0  0  0  0  0
  150.0696  144.8514  157.7571 H   0  0  0  0  0  0  0  0  0  0  0  0
  149.5950  143.8793  159.1466 H   0  0  0  0  0  0  0  0  0  0  0  0
  151.2310  145.9855  159.6106 H   0  0  0  0  0  0  0  0  0  0  0  0
  152.3187  144.6891  161.4185 H   0  0  0  0  0  0  0  0  0  0  0  0
  150.7888  143.8415  161.1987 H   0  0  0  0  0  0  0  0  0  0  0  0
  153.4892  142.8647  160.6456 H   0  0  0  0  0  0  0  0  0  0  0  0
  151.9993  141.9641  160.3973 H   0  0  0  0  0  0  0  0  0  0  0  0
  153.4484  142.6687  158.1857 H   0  0  0  0  0  0  0  0  0  0  0  0
  152.7785  145.1452  157.6597 H   0  0  0  0  0  0  0  0  0  0  0  0
  153.6640  145.0595  159.1994 H   0  0  0  0  0  0  0  0  0  0  0  0
  148.7302  140.7756  157.9099 H   0  0  0  0  0  0  0  0  0  0  0  0
  148.6541  142.5014  157.7206 H   0  0  0  0  0  0  0  0  0  0  0  0
  149.7727  142.3163  155.4706 H   0  0  0  0  0  0  0  0  0  0  0  0
  148.3105  141.3880  155.5416 H   0  0  0  0  0  0  0  0  0  0  0  0
  150.4709  141.5870  159.0884 H   0  0  0  0  0  0  0  0  0  0  0  0
  143.9964  132.9457  154.9342 H   0  0  0  0  0  0  0  0  0  0  0  0
  1  2  2  0  0  0  0
  2  3  1  0  0  0  0
  2 12  1  0  0  0  0
  3  4  1  0  0  0  0
  3 25  1  0  0  0  0
  4  5  1  0  0  0  0
  4 26  1  0  0  0  0
  4 27  1  0  0  0  0
  5  6  1  0  0  0  0
  5 28  1  0  0  0  0
  5 29  1  0  0  0  0
  6 11  1  0  0  0  0
  6  7  2  0  0  0  0
  7  8  1  0  0  0  0
  7 30  1  0  0  0  0
  8  9  2  0  0  0  0
  8 31  1  0  0  0  0
  9 10  1  0  0  0  0
  9 54  1  0  0  0  0
 10 11  2  0  0  0  0
 10 32  1  0  0  0  0
 11 33  1  0  0  0  0
 12 24  1  0  0  0  0
 12 13  1  0  0  0  0
 13 14  1  0  0  0  0
 13 34  1  0  0  0  0
 13 35  1  0  0  0  0
 14 15  1  0  0  0  0
 14 36  1  0  0  0  0
 14 37  1  0  0  0  0
 15 16  1  0  0  0  0
 15 23  1  0  0  0  0
 15 53  1  0  0  0  0
 16 21  1  0  0  0  0
 16 17  1  0  0  0  0
 16 38  1  0  0  0  0
 17 18  1  0  0  0  0
 17 39  1  0  0  0  0
 17 40  1  0  0  0  0
 18 22  1  0  0  0  0
 18 19  1  0  0  0  0
 18 41  1  0  0  0  0
 19 20  1  0  0  0  0
 19 42  1  0  0  0  0
 19 43  1  0  0  0  0
 20 21  1  0  0  0  0
 20 44  1  0  0  0  0
 20 45  1  0  0  0  0
 21 22  1  0  0  0  0
 21 46  1  0  0  0  0
 22 47  1  0  0  0  0
 22 48  1  0  0  0  0
 23 24  1  0  0  0  0
 23 49  1  0  0  0  0
 23 50  1  0  0  0  0
 24 51  1  0  0  0  0
 24 52  1  0  0  0  0
M  CHG  1   9   1
M  CHG  1  15   1
M  END
> <s_m_source_file>
AV-unprocessed.smi

> <i_m_source_file_index>
2895

> <i_lp_mmshare_version>
43012

> <i_f3d_flags>
0

> <s_epik_input>
W0NIMl0xW0NIMl1bQ0BASF0oW0NIMl0yKVtDQEBIXShbQ0gyXVtDQEhdMTIpTihbQ0gyXVtDSDJdMylbQ0gyXVtDSDJdTjNDKD1PKVtOSF1bQ0gyXVtDSDJdYzRbY0hdW2NIXW5bY0hdW2NIXTQ=

> <s_epik_cmdline>
J2VwaWtfcHl0aG9uJywgJy1waCcsICc3LjAnLCAnLXRuJywgJzgnLCAnLW1hJywgJzIwMCcsICctbWV0YWxfYmluZGluZycsICctaW1hZScsICc8aW5maWxlLm1hZT4nLCAnLW9tYWUnLCAnPG91dGZpbGUubWFlPic=

> <r_epik_Ionization_Penalty>
1.44916

> <r_epik_Ionization_Penalty_Charging>
1.44913

> <r_epik_Ionization_Penalty_Neutral>
2.64641e-05

> <r_epik_State_Penalty>
1.53218

> <r_epik_Charging_Adjusted_Penalty>
2.98131

> <i_epik_Tot_Q>
2

> <i_epik_Tot_abs_Q>
2

> <r_epik_Metal_State_Penalty>
1.58241

> <b_epik_Metal_Only>
0

> <s_lp_Force_Field>
OPLS_2005

> <r_lp_Energy>
107.439

> <b_lp_Chiralities_Consistent>
1

> <s_lp_Variant>
AV-unprocessed.smi:2895-8

> <Gold.Version>
5.8.1

> <Gold.Id.Protein>
6NUR|6NUR_protein|mol2

> <Gold.PLP.Fitness>
44.7724

> <Gold.PLP.PLP>
-40.0038

> <Gold.PLP.part.hbond>
-1.0000

> <Gold.PLP.part.metal>
0.0000

> <Gold.PLP.part.buried>
-6.1717

> <Gold.PLP.part.nonpolar>
-33.9548

> <Gold.PLP.part.repulsive>
0.3037

> <Gold.PLP.ligand.clash>
0.6376

> <Gold.PLP.ligand.torsion>
0.3445

> <Gold.PLP.Chemscore.Hbond>
2.0000

> <Gold.PLP.Chemscore.CHOScore>
0.0000

> <Gold.PLP.Chemscore.Metal>
0.0000

> <Gold.Chemscore.Hbonds>
donor molecule, donor type, donor heavy atom, donor atom, acceptor molecule, acceptor atom, score
      L1  H     9    54       P1 10957  2.00

> <Gold.PLP.Chemscore.Internal.Correction>
0.0952

> <Gold.Rescore>
     Score         DG    S(hbond)    S(metal)    S(lipo)     H(rot)  DE(clash)    DE(int)     intcor
     18.33     -18.71       1.00        0.00     116.52       1.46       0.06       0.31       ----

> <Gold.Chemscore.Fitness>
18.3340

> <Gold.Chemscore.DG>
-18.7092

> <Gold.Chemscore.ZeroCoef>
-5.4800

> <Gold.Chemscore.Hbond>
0.9960

> <Gold.Chemscore.Metal>
0.0000

> <Gold.Chemscore.Lipo>
116.5213

> <Gold.Chemscore.Internal_Hbond>
0.0000

> <Gold.Chemscore.DEClash>
0.0649

> <Gold.Chemscore.DEInternal>
0.3103

> <Gold.Chemscore.Rot>
1.4572

> <Gold.Chemscore.Internal.Correction>
   9.000000E+99

> <Gold.Chemscore.Hbonds>
donor molecule, donor type, donor heavy atom, donor atom, acceptor molecule, acceptor atom, score
      L1  H     9    54       P1 10957  1.00

> <Gold.Chemscore.Hbond.Weighted>
-3.3267

> <Gold.Chemscore.Metal.Weighted>
-0.0000

> <Gold.Chemscore.Lipo.Weighted>
-13.6330

> <Gold.Chemscore.Internal_Hbond.Weighted>
0.0000

> <Gold.Chemscore.DEClash.Weighted>
0.0649

> <Gold.Chemscore.DEInternal.Weighted>
0.3103

> <Gold.Chemscore.Rot.Weighted>
3.7305

> <Gold.Chemscore.Internal.Correction.Weighted>
   9.000000E+99

> <Gold.Protein.RotatedTorsions>
[ 6907 6896 6895 6894 ] final -137.11 input  -60.11 | X-H torsion
[ 7974 7965 7964 7962 ] final  104.30 input  175.53 | X-H torsion
[ 8008 7997 7996 7995 ] final  102.87 input   59.86 | X-H torsion
[ 10167 10162 10161 10158 ] final  -32.29 input  -65.29 | X-H torsion
[ 10718 10713 10712 10709 ] final   90.45 input   66.30 | X-H torsion
[ 10763 10752 10751 10750 ] final    3.74 input  -60.55 | X-H torsion
[ 11005 11000 10999 10996 ] final  -99.37 input  -57.11 | X-H torsion

> <Gold.Protein.ActiveResidues>
 VAL166  LYS551  ARG553  GLY616  TRP617  ASP618  TYR619  PRO620  LYS621  CYS622 
 ASP623  PHE694  ASN695  SER759  ASP760  ASP761  ALA762  ILE779  LEU786  VAL792 
 PHE793  MET794  SER795  GLU796  ALA797  LYS798  CYS799  TRP800  GLU811  SER814 

> <Gold.Protein.RotatedAtoms>
  151.0184  133.5900  159.2673 H   0  0  0  0  0  0  0  0  0  0  0  0  # atno 6907 bound_to 6896
  151.3026  135.0772  159.9253 H   0  0  0  0  0  0  0  0  0  0  0  0  # atno 6908 bound_to 6896
  152.5317  133.9863  159.7884 H   0  0  0  0  0  0  0  0  0  0  0  0  # atno 6909 bound_to 6896
  145.3345  139.2478  143.3642 H   0  0  0  0  0  0  0  0  0  0  0  0  # atno 7974 bound_to 7965
  156.1432  140.3174  155.8529 H   0  0  0  0  0  0  0  0  0  0  0  0  # atno 8008 bound_to 7997
  155.4114  140.0506  157.3048 H   0  0  0  0  0  0  0  0  0  0  0  0  # atno 8009 bound_to 7997
  154.4994  140.2123  155.9391 H   0  0  0  0  0  0  0  0  0  0  0  0  # atno 8010 bound_to 7997
  140.7223  143.3706  151.1786 H   0  0  0  0  0  0  0  0  0  0  0  0  # atno 10167 bound_to 10162
  157.6959  131.0371  150.3579 H   0  0  0  0  0  0  0  0  0  0  0  0  # atno 10718 bound_to 10713
  153.2797  135.6939  153.7398 H   0  0  0  0  0  0  0  0  0  0  0  0  # atno 10763 bound_to 10752
  153.6390  135.3396  155.3066 H   0  0  0  0  0  0  0  0  0  0  0  0  # atno 10764 bound_to 10752
  154.8491  135.4427  154.1846 H   0  0  0  0  0  0  0  0  0  0  0  0  # atno 10765 bound_to 10752
  141.1311  133.8316  157.0963 H   0  0  0  0  0  0  0  0  0  0  0  0  # atno 11005 bound_to 11000
  146.3032  140.3930  142.8696 LP  0  0  0  0  0  0  0  0  0  0  0  0  # atno 17320 bound_to 7965
  144.8838  140.7435  143.5970 LP  0  0  0  0  0  0  0  0  0  0  0  0  # atno 17321 bound_to 7965
  139.7276  143.9123  152.3008 LP  0  0  0  0  0  0  0  0  0  0  0  0  # atno 17342 bound_to 10162
  139.8901  144.6970  150.8780 LP  0  0  0  0  0  0  0  0  0  0  0  0  # atno 17343 bound_to 10162
  156.4019  130.3917  149.6954 LP  0  0  0  0  0  0  0  0  0  0  0  0  # atno 17370 bound_to 10713
  156.4268  130.7795  151.2814 LP  0  0  0  0  0  0  0  0  0  0  0  0  # atno 17371 bound_to 10713
  140.0361  134.9877  157.0874 LP  0  0  0  0  0  0  0  0  0  0  0  0  # atno 17394 bound_to 11000
  140.4208  134.1883  155.7164 LP  0  0  0  0  0  0  0  0  0  0  0  0  # atno 17395 bound_to 11000

$$$$
