AV-unprocessed.smi:2283|AV-procd|sdf|9200|dock1
  -GOLD-   2272012413D 1   1.00000     0.00000
 Structure written by MMmdl.
 37 38  0  0  0  0  0  0  0  0  1 V2000
  150.3513  145.0862  159.8863 C   0  0  0  0  0  0  0  0  0  0  0  0
  151.3681  144.0200  160.2577 C   0  0  0  0  0  0  0  0  0  0  0  0
  151.9478  144.0599  161.5444 C   0  0  0  0  0  0  0  0  0  0  0  0
  152.8826  143.0859  161.9395 C   0  0  0  0  0  0  0  0  0  0  0  0
  153.2424  142.0595  161.0493 C   0  0  0  0  0  0  0  0  0  0  0  0
  152.6714  142.0128  159.7643 C   0  0  0  0  0  0  0  0  0  0  0  0
  151.7386  142.9920  159.3499 C   0  0  0  0  0  0  0  0  0  0  0  0
  151.1357  142.9025  157.9479 C   0  0  1  0  0  0  0  0  0  0  0  0
  151.3727  144.0825  157.2049 O   0  0  0  0  0  0  0  0  0  0  0  0
  151.7234  141.6988  157.1763 C   0  0  0  0  0  0  0  0  0  0  0  0
  150.7696  141.1301  156.2074 N   0  0  0  0  0  0  0  0  0  0  0  0
  149.6689  141.9354  155.8695 C   0  0  0  0  0  0  0  0  0  0  0  0
  148.7721  141.5429  155.0253 N   0  0  0  0  0  0  0  0  0  0  0  0
  148.8854  140.2872  154.4222 C   0  0  0  0  0  0  0  0  0  0  0  0
  147.7802  139.9266  153.4454 C   0  0  0  0  0  0  0  0  0  0  0  0
  149.9267  139.4580  154.7064 C   0  0  0  0  0  0  0  0  0  0  0  0
  150.1024  138.0801  154.0801 C   0  0  0  0  0  0  0  0  0  0  0  0
  150.9545  139.8908  155.6672 C   0  0  0  0  0  0  0  0  0  0  0  0
  151.9210  139.1885  155.9696 O   0  0  0  0  0  0  0  0  0  0  0  0
  150.1053  145.7158  160.7418 H   0  0  0  0  0  0  0  0  0  0  0  0
  149.4257  144.6297  159.5362 H   0  0  0  0  0  0  0  0  0  0  0  0
  150.7440  145.7309  159.0997 H   0  0  0  0  0  0  0  0  0  0  0  0
  151.6748  144.8402  162.2398 H   0  0  0  0  0  0  0  0  0  0  0  0
  153.3195  143.1240  162.9266 H   0  0  0  0  0  0  0  0  0  0  0  0
  153.9552  141.3064  161.3518 H   0  0  0  0  0  0  0  0  0  0  0  0
  152.9544  141.2128  159.0958 H   0  0  0  0  0  0  0  0  0  0  0  0
  150.0536  142.8061  158.0211 H   0  0  0  0  0  0  0  0  0  0  0  0
  150.5876  144.2969  156.7244 H   0  0  0  0  0  0  0  0  0  0  0  0
  152.6715  141.9702  156.7083 H   0  0  0  0  0  0  0  0  0  0  0  0
  151.9939  140.9177  157.8902 H   0  0  0  0  0  0  0  0  0  0  0  0
  149.6292  142.9071  156.3646 H   0  0  0  0  0  0  0  0  0  0  0  0
  148.1920  139.7462  152.4521 H   0  0  0  0  0  0  0  0  0  0  0  0
  147.0460  140.7288  153.3616 H   0  0  0  0  0  0  0  0  0  0  0  0
  147.2572  139.0286  153.7753 H   0  0  0  0  0  0  0  0  0  0  0  0
  150.1135  137.3130  154.8551 H   0  0  0  0  0  0  0  0  0  0  0  0
  151.0494  138.0310  153.5414 H   0  0  0  0  0  0  0  0  0  0  0  0
  149.3125  137.8237  153.3763 H   0  0  0  0  0  0  0  0  0  0  0  0
  1  2  1  0  0  0  0
  1 20  1  0  0  0  0
  1 21  1  0  0  0  0
  1 22  1  0  0  0  0
  2  7  1  0  0  0  0
  2  3  2  0  0  0  0
  3  4  1  0  0  0  0
  3 23  1  0  0  0  0
  4  5  2  0  0  0  0
  4 24  1  0  0  0  0
  5  6  1  0  0  0  0
  5 25  1  0  0  0  0
  6  7  2  0  0  0  0
  6 26  1  0  0  0  0
  7  8  1  0  0  0  0
  8  9  1  0  0  0  0
  8 10  1  0  0  0  0
  8 27  1  0  0  0  0
  9 28  1  0  0  0  0
 10 11  1  0  0  0  0
 10 29  1  0  0  0  0
 10 30  1  0  0  0  0
 11 18  1  0  0  0  0
 11 12  1  0  0  0  0
 12 13  2  0  0  0  0
 12 31  1  0  0  0  0
 13 14  1  0  0  0  0
 14 15  1  0  0  0  0
 14 16  2  0  0  0  0
 15 32  1  0  0  0  0
 15 33  1  0  0  0  0
 15 34  1  0  0  0  0
 16 17  1  0  0  0  0
 16 18  1  0  0  0  0
 17 35  1  0  0  0  0
 17 36  1  0  0  0  0
 17 37  1  0  0  0  0
 18 19  2  0  0  0  0
M  END
> <s_m_source_file>
AV-unprocessed.smi

> <i_m_source_file_index>
2283

> <i_lp_mmshare_version>
43012

> <i_f3d_flags>
0

> <s_epik_input>
W0NIM11jMVtjSF1bY0hdW2NIXVtjSF1jMVtDQEhdKFtPSF0pW0NIMl1uMltjSF1uYyhbQ0gzXSljKFtDSDNdKWMyPU8=

> <s_epik_cmdline>
J2VwaWtfcHl0aG9uJywgJy1waCcsICc3LjAnLCAnLXRuJywgJzgnLCAnLW1hJywgJzIwMCcsICctbWV0YWxfYmluZGluZycsICctaW1hZScsICc8aW5maWxlLm1hZT4nLCAnLW9tYWUnLCAnPG91dGZpbGUubWFlPic=

> <r_lp_tautomer_probability>
1

> <r_epik_Ionization_Penalty>
5.07259e-05

> <r_epik_Ionization_Penalty_Charging>
7.56727e-08

> <r_epik_Ionization_Penalty_Neutral>
5.06502e-05

> <r_epik_State_Penalty>
-0

> <r_epik_Charging_Adjusted_Penalty>
7.56727e-08

> <i_epik_Tot_Q>
0

> <i_epik_Tot_abs_Q>
0

> <r_epik_Metal_State_Penalty>
-0

> <b_epik_Metal_Only>
0

> <s_lp_Force_Field>
OPLS_2005

> <r_lp_Energy>
21.1785

> <b_lp_Chiralities_Consistent>
1

> <s_lp_Variant>
AV-unprocessed.smi:2283-2

> <Gold.Version>
5.8.1

> <Gold.Id.Protein>
6NUR|6NUR_protein|mol2

> <Gold.PLP.Fitness>
45.3263

> <Gold.PLP.PLP>
-41.5318

> <Gold.PLP.part.hbond>
-1.0000

> <Gold.PLP.part.metal>
0.0000

> <Gold.PLP.part.buried>
-1.7389

> <Gold.PLP.part.nonpolar>
-40.2971

> <Gold.PLP.part.repulsive>
0.1364

> <Gold.PLP.ligand.clash>
1.0313

> <Gold.PLP.ligand.torsion>
0.5737

> <Gold.PLP.Chemscore.Hbond>
0.9913

> <Gold.PLP.Chemscore.CHOScore>
0.9964

> <Gold.PLP.Chemscore.Metal>
0.0000

> <Gold.Chemscore.Hbonds>
donor molecule, donor type, donor heavy atom, donor atom, acceptor molecule, acceptor atom, score
      L1  H     9    28       P1  8028  1.00
      L1  C    12    31       P1  8028  0.99

> <Gold.PLP.Chemscore.Internal.Correction>
0.0102

> <Gold.Rescore>
     Score         DG    S(hbond)    S(metal)    S(lipo)     H(rot)  DE(clash)    DE(int)     intcor
     15.82     -17.62       0.99        0.00     117.05       1.91       0.46       1.34       ----

> <Gold.Chemscore.Fitness>
15.8185

> <Gold.Chemscore.DG>
-17.6180

> <Gold.Chemscore.ZeroCoef>
-5.4800

> <Gold.Chemscore.Hbond>
0.9948

> <Gold.Chemscore.Metal>
0.0000

> <Gold.Chemscore.Lipo>
117.0529

> <Gold.Chemscore.Internal_Hbond>
0.0000

> <Gold.Chemscore.DEClash>
0.4618

> <Gold.Chemscore.DEInternal>
1.3377

> <Gold.Chemscore.Rot>
1.9061

> <Gold.Chemscore.Internal.Correction>
   9.000000E+99

> <Gold.Chemscore.Hbonds>
donor molecule, donor type, donor heavy atom, donor atom, acceptor molecule, acceptor atom, score
      L1  H     9    28       P1  8028  0.92

> <Gold.Chemscore.Hbond.Weighted>
-3.3225

> <Gold.Chemscore.Metal.Weighted>
-0.0000

> <Gold.Chemscore.Lipo.Weighted>
-13.6952

> <Gold.Chemscore.Internal_Hbond.Weighted>
0.0000

> <Gold.Chemscore.DEClash.Weighted>
0.4618

> <Gold.Chemscore.DEInternal.Weighted>
1.3377

> <Gold.Chemscore.Rot.Weighted>
4.8797

> <Gold.Chemscore.Internal.Correction.Weighted>
   9.000000E+99

> <Gold.Protein.RotatedTorsions>
[ 6907 6896 6895 6894 ] final  -77.62 input  -60.11 | X-H torsion
[ 7974 7965 7964 7962 ] final  -91.39 input  175.53 | X-H torsion
[ 8008 7997 7996 7995 ] final   11.95 input   59.86 | X-H torsion
[ 10167 10162 10161 10158 ] final -108.98 input  -65.29 | X-H torsion
[ 10718 10713 10712 10709 ] final  -95.81 input   66.30 | X-H torsion
[ 10763 10752 10751 10750 ] final  121.31 input  -60.55 | X-H torsion
[ 11005 11000 10999 10996 ] final -160.53 input  -57.11 | X-H torsion

> <Gold.Protein.ActiveResidues>
 VAL166  LYS551  ARG553  GLY616  TRP617  ASP618  TYR619  PRO620  LYS621  CYS622 
 ASP623  PHE694  ASN695  SER759  ASP760  ASP761  ALA762  ILE779  LEU786  VAL792 
 PHE793  MET794  SER795  GLU796  ALA797  LYS798  CYS799  TRP800  GLU811  SER814 

> <Gold.Protein.RotatedAtoms>
  150.6994  134.4395  159.5285 H   0  0  0  0  0  0  0  0  0  0  0  0  # atno 6907 bound_to 6896
  152.2107  134.8501  160.0507 H   0  0  0  0  0  0  0  0  0  0  0  0  # atno 6908 bound_to 6896
  151.9387  133.3597  159.3994 H   0  0  0  0  0  0  0  0  0  0  0  0  # atno 6909 bound_to 6896
  145.4138  140.9547  143.2219 H   0  0  0  0  0  0  0  0  0  0  0  0  # atno 7974 bound_to 7965
  154.8140  140.2873  155.5833 H   0  0  0  0  0  0  0  0  0  0  0  0  # atno 8008 bound_to 7997
  156.2991  140.2563  156.2963 H   0  0  0  0  0  0  0  0  0  0  0  0  # atno 8009 bound_to 7997
  154.9415  140.0381  157.2088 H   0  0  0  0  0  0  0  0  0  0  0  0  # atno 8010 bound_to 7997
  140.1603  143.4125  152.1430 H   0  0  0  0  0  0  0  0  0  0  0  0  # atno 10167 bound_to 10162
  156.0050  130.5125  150.6132 H   0  0  0  0  0  0  0  0  0  0  0  0  # atno 10718 bound_to 10713
  153.6121  135.3428  155.2982 H   0  0  0  0  0  0  0  0  0  0  0  0  # atno 10763 bound_to 10752
  154.8616  135.4252  154.2299 H   0  0  0  0  0  0  0  0  0  0  0  0  # atno 10764 bound_to 10752
  153.3152  135.7034  153.7152 H   0  0  0  0  0  0  0  0  0  0  0  0  # atno 10765 bound_to 10752
  140.6305  134.4656  157.5229 H   0  0  0  0  0  0  0  0  0  0  0  0  # atno 11005 bound_to 11000
  144.8291  139.5659  143.6952 LP  0  0  0  0  0  0  0  0  0  0  0  0  # atno 17320 bound_to 7965
  146.2691  139.6593  142.9308 LP  0  0  0  0  0  0  0  0  0  0  0  0  # atno 17321 bound_to 7965
  139.5384  144.7233  151.4815 LP  0  0  0  0  0  0  0  0  0  0  0  0  # atno 17342 bound_to 10162
  140.6647  143.8423  150.6928 LP  0  0  0  0  0  0  0  0  0  0  0  0  # atno 17343 bound_to 10162
  157.3960  131.0803  151.1351 LP  0  0  0  0  0  0  0  0  0  0  0  0  # atno 17370 bound_to 10713
  157.2027  130.6402  149.5744 LP  0  0  0  0  0  0  0  0  0  0  0  0  # atno 17371 bound_to 10713
  139.9118  134.8329  156.1502 LP  0  0  0  0  0  0  0  0  0  0  0  0  # atno 17394 bound_to 11000
  141.0679  133.6810  156.2081 LP  0  0  0  0  0  0  0  0  0  0  0  0  # atno 17395 bound_to 11000

$$$$
