AV-unprocessed.smi:20|AV-procd|sdf|119|dock6
  -GOLD-   2262015293D 1   1.00000     0.00000
 Structure written by MMmdl.
 57 61  0  0  0  0  0  0  0  0  1 V2000
  151.2646  146.3785  159.9414 O   0  0  0  0  0  0  0  0  0  0  0  0
  151.4536  145.3583  159.2833 C   0  0  0  0  0  0  0  0  0  0  0  0
  150.5977  144.1077  159.3989 C   0  0  0  0  0  0  0  0  0  0  0  0
  151.4474  143.0281  158.6946 C   0  0  2  0  0  0  0  0  0  0  0  0
  150.5716  142.0131  157.9241 C   0  0  0  0  0  0  0  0  0  0  0  0
  151.4161  140.8770  157.3241 C   0  0  0  0  0  0  0  0  0  0  0  0
  152.2618  140.1911  158.4063 C   0  0  0  0  0  0  0  0  0  0  0  0
  153.0628  141.1746  159.1309 N   0  0  0  0  0  0  0  0  0  0  0  0
  154.1115  140.6638  159.8232 C   0  0  0  0  0  0  0  0  0  0  0  0
  155.0012  139.8450  159.2010 N   0  0  0  0  0  0  0  0  0  0  0  0
  156.0413  139.3444  159.8741 C   0  0  0  0  0  0  0  0  0  0  0  0
  156.3710  139.5243  161.1542 N   0  0  0  0  0  0  0  0  0  0  0  0
  155.4751  140.3333  161.7880 C   0  0  0  0  0  0  0  0  0  0  0  0
  154.3320  140.9455  161.2006 C   0  0  0  0  0  0  0  0  0  0  0  0
  153.6581  141.7014  162.1525 N   0  0  0  0  0  0  0  0  0  0  0  0
  154.3666  141.5522  163.2380 C   0  0  0  0  0  0  0  0  0  0  0  0
  155.4610  140.7251  163.1163 N   0  0  0  0  0  0  0  0  0  0  0  0
  156.4126  140.3931  164.1634 C   0  0  0  0  0  0  0  0  0  0  0  0
  155.8968  140.5937  165.6167 C   0  0  1  0  0  0  0  0  0  0  0  0
  156.5002  139.4927  166.5224 C   0  0  0  0  0  0  0  0  0  0  0  0
  156.0696  138.2063  166.1276 O   0  0  0  0  0  0  0  0  0  0  0  0
  156.1882  142.0108  166.1956 C   0  0  1  0  0  0  0  0  0  0  0  0
  155.6793  143.1911  165.3804 C   0  0  0  0  0  0  0  0  0  0  0  0
  155.6706  144.3254  166.3973 C   0  0  0  0  0  0  0  0  0  0  0  0
  155.3758  143.7164  167.6461 O   0  0  0  0  0  0  0  0  0  0  0  0
  155.4906  142.3027  167.5327 C   0  0  0  0  0  0  0  0  0  0  0  0
  152.3083  142.2715  159.7404 C   0  0  0  0  0  0  0  0  0  0  0  0
  152.3525  143.8677  157.7581 C   0  0  0  0  0  0  0  0  0  0  0  0
  152.4128  145.1768  158.3784 N   0  0  0  0  0  0  0  0  0  0  0  0
  150.3736  143.8655  160.4386 H   0  0  0  0  0  0  0  0  0  0  0  0
  149.6552  144.2844  158.8789 H   0  0  0  0  0  0  0  0  0  0  0  0
  149.8315  141.5859  158.6021 H   0  0  0  0  0  0  0  0  0  0  0  0
  150.0084  142.5135  157.1355 H   0  0  0  0  0  0  0  0  0  0  0  0
  150.7685  140.1457  156.8398 H   0  0  0  0  0  0  0  0  0  0  0  0
  152.0700  141.2726  156.5461 H   0  0  0  0  0  0  0  0  0  0  0  0
  151.6119  139.6790  159.1171 H   0  0  0  0  0  0  0  0  0  0  0  0
  152.8861  139.4250  157.9474 H   0  0  0  0  0  0  0  0  0  0  0  0
  156.7031  138.7074  159.3060 H   0  0  0  0  0  0  0  0  0  0  0  0
  154.0979  142.0315  164.1681 H   0  0  0  0  0  0  0  0  0  0  0  0
  156.6991  139.3539  164.0001 H   0  0  0  0  0  0  0  0  0  0  0  0
  157.3174  140.9827  164.0103 H   0  0  0  0  0  0  0  0  0  0  0  0
  154.8156  140.4531  165.6268 H   0  0  0  0  0  0  0  0  0  0  0  0
  157.5899  139.5303  166.5039 H   0  0  0  0  0  0  0  0  0  0  0  0
  156.1947  139.6136  167.5607 H   0  0  0  0  0  0  0  0  0  0  0  0
  155.4657  138.2996  165.4068 H   0  0  0  0  0  0  0  0  0  0  0  0
  157.2640  142.1272  166.3373 H   0  0  0  0  0  0  0  0  0  0  0  0
  156.3073  143.4386  164.5266 H   0  0  0  0  0  0  0  0  0  0  0  0
  154.6665  143.0015  165.0213 H   0  0  0  0  0  0  0  0  0  0  0  0
  156.6570  144.7864  166.4607 H   0  0  0  0  0  0  0  0  0  0  0  0
  154.9472  145.1027  166.1496 H   0  0  0  0  0  0  0  0  0  0  0  0
  154.4842  141.8815  167.5431 H   0  0  0  0  0  0  0  0  0  0  0  0
  156.0347  141.8954  168.3852 H   0  0  0  0  0  0  0  0  0  0  0  0
  152.9920  142.9667  160.2305 H   0  0  0  0  0  0  0  0  0  0  0  0
  151.6667  141.8570  160.5192 H   0  0  0  0  0  0  0  0  0  0  0  0
  153.3498  143.4453  157.6316 H   0  0  0  0  0  0  0  0  0  0  0  0
  151.9107  143.9792  156.7669 H   0  0  0  0  0  0  0  0  0  0  0  0
  153.1037  145.8704  158.1307 H   0  0  0  0  0  0  0  0  0  0  0  0
  1  2  2  0  0  0  0
  2 29  1  0  0  0  0
  2  3  1  0  0  0  0
  3  4  1  0  0  0  0
  3 30  1  0  0  0  0
  3 31  1  0  0  0  0
  4 27  1  0  0  0  0
  4  5  1  0  0  0  0
  4 28  1  0  0  0  0
  5  6  1  0  0  0  0
  5 32  1  0  0  0  0
  5 33  1  0  0  0  0
  6  7  1  0  0  0  0
  6 34  1  0  0  0  0
  6 35  1  0  0  0  0
  7  8  1  0  0  0  0
  7 36  1  0  0  0  0
  7 37  1  0  0  0  0
  8  9  1  0  0  0  0
  8 27  1  0  0  0  0
  9 14  1  0  0  0  0
  9 10  2  0  0  0  0
 10 11  1  0  0  0  0
 11 12  2  0  0  0  0
 11 38  1  0  0  0  0
 12 13  1  0  0  0  0
 13 17  1  0  0  0  0
 13 14  2  0  0  0  0
 14 15  1  0  0  0  0
 15 16  2  0  0  0  0
 16 17  1  0  0  0  0
 16 39  1  0  0  0  0
 17 18  1  0  0  0  0
 18 19  1  0  0  0  0
 18 40  1  0  0  0  0
 18 41  1  0  0  0  0
 19 20  1  0  0  0  0
 19 22  1  0  0  0  0
 19 42  1  0  0  0  0
 20 21  1  0  0  0  0
 20 43  1  0  0  0  0
 20 44  1  0  0  0  0
 21 45  1  0  0  0  0
 22 26  1  0  0  0  0
 22 23  1  0  0  0  0
 22 46  1  0  0  0  0
 23 24  1  0  0  0  0
 23 47  1  0  0  0  0
 23 48  1  0  0  0  0
 24 25  1  0  0  0  0
 24 49  1  0  0  0  0
 24 50  1  0  0  0  0
 25 26  1  0  0  0  0
 26 51  1  0  0  0  0
 26 52  1  0  0  0  0
 27 53  1  0  0  0  0
 27 54  1  0  0  0  0
 28 29  1  0  0  0  0
 28 55  1  0  0  0  0
 28 56  1  0  0  0  0
 29 57  1  0  0  0  0
M  END
> <s_m_source_file>
AV-unprocessed.smi

> <i_m_source_file_index>
20

> <i_lp_mmshare_version>
43012

> <i_f3d_flags>
0

> <s_epik_input>
W0NIMl0xW05IXUMoPU8pW0NIMl1bQ0BAXTEyW0NIMl1bQ0gyXVtDSDJdTihbQ0gyXTIpYyhuW2NIXW4zKWMoYzM0KW5bY0hdbjRbQ0gyXVtDQEhdKFtDSDJdW09IXSlbQ0BASF01W0NIMl1bQ0gyXU9bQ0gyXTU=

> <s_epik_cmdline>
J2VwaWtfcHl0aG9uJywgJy1waCcsICc3LjAnLCAnLXRuJywgJzgnLCAnLW1hJywgJzIwMCcsICctbWV0YWxfYmluZGluZycsICctaW1hZScsICc8aW5maWxlLm1hZT4nLCAnLW9tYWUnLCAnPG91dGZpbGUubWFlPic=

> <r_lp_tautomer_probability>
1

> <r_epik_Ionization_Penalty>
0.0019697

> <r_epik_Ionization_Penalty_Charging>
0

> <r_epik_Ionization_Penalty_Neutral>
0.0019697

> <r_epik_State_Penalty>
0.00113613

> <r_epik_Charging_Adjusted_Penalty>
0.00113613

> <i_epik_Tot_Q>
0

> <i_epik_Tot_abs_Q>
0

> <r_epik_Metal_State_Penalty>
-0

> <b_epik_Metal_Only>
0

> <s_lp_Force_Field>
OPLS_2005

> <r_lp_Energy>
59.3743

> <b_lp_Chiralities_Consistent>
1

> <s_lp_Variant>
AV-unprocessed.smi:20-7

> <Gold.Version>
5.8.1

> <Gold.Id.Protein>
6NUR|6NUR_protein|mol2

> <Gold.PLP.Fitness>
50.0948

> <Gold.PLP.PLP>
-48.5955

> <Gold.PLP.part.hbond>
-3.9661

> <Gold.PLP.part.metal>
0.0000

> <Gold.PLP.part.buried>
-1.9484

> <Gold.PLP.part.nonpolar>
-41.0608

> <Gold.PLP.part.repulsive>
0.4669

> <Gold.PLP.ligand.clash>
0.0070

> <Gold.PLP.ligand.torsion>
0.9988

> <Gold.PLP.Chemscore.Hbond>
1.0000

> <Gold.PLP.Chemscore.CHOScore>
0.0000

> <Gold.PLP.Chemscore.Metal>
0.0000

> <Gold.Chemscore.Hbonds>
donor molecule, donor type, donor heavy atom, donor atom, acceptor molecule, acceptor atom, score
      P1  H  7997  8009       L1    10  1.00

> <Gold.PLP.Chemscore.Internal.Correction>
0.5039

> <Gold.Rescore>
     Score         DG    S(hbond)    S(metal)    S(lipo)     H(rot)  DE(clash)    DE(int)     intcor
      8.01     -13.88       0.89        0.00     106.27       2.74       2.43       3.44       ----

> <Gold.Chemscore.Fitness>
8.0132

> <Gold.Chemscore.DG>
-13.8771

> <Gold.Chemscore.ZeroCoef>
-5.4800

> <Gold.Chemscore.Hbond>
0.8926

> <Gold.Chemscore.Metal>
0.0000

> <Gold.Chemscore.Lipo>
106.2726

> <Gold.Chemscore.Internal_Hbond>
0.0000

> <Gold.Chemscore.DEClash>
2.4281

> <Gold.Chemscore.DEInternal>
3.4359

> <Gold.Chemscore.Rot>
2.7415

> <Gold.Chemscore.Internal.Correction>
   9.000000E+99

> <Gold.Chemscore.Hbonds>
donor molecule, donor type, donor heavy atom, donor atom, acceptor molecule, acceptor atom, score
      P1  H  7997  8009       L1    10  0.88

> <Gold.Chemscore.Hbond.Weighted>
-2.9814

> <Gold.Chemscore.Metal.Weighted>
-0.0000

> <Gold.Chemscore.Lipo.Weighted>
-12.4339

> <Gold.Chemscore.Internal_Hbond.Weighted>
0.0000

> <Gold.Chemscore.DEClash.Weighted>
2.4281

> <Gold.Chemscore.DEInternal.Weighted>
3.4359

> <Gold.Chemscore.Rot.Weighted>
7.0182

> <Gold.Chemscore.Internal.Correction.Weighted>
   9.000000E+99

> <Gold.Protein.RotatedTorsions>
[ 6907 6896 6895 6894 ] final  -38.09 input  -60.11 | X-H torsion
[ 7974 7965 7964 7962 ] final  -16.11 input  175.53 | X-H torsion
[ 8008 7997 7996 7995 ] final  113.48 input   59.86 | X-H torsion
[ 10167 10162 10161 10158 ] final  -70.28 input  -65.29 | X-H torsion
[ 10718 10713 10712 10709 ] final   -3.57 input   66.30 | X-H torsion
[ 10763 10752 10751 10750 ] final -106.39 input  -60.55 | X-H torsion
[ 11005 11000 10999 10996 ] final -111.59 input  -57.11 | X-H torsion

> <Gold.Protein.ActiveResidues>
 VAL166  LYS551  ARG553  GLY616  TRP617  ASP618  TYR619  PRO620  LYS621  CYS622 
 ASP623  PHE694  ASN695  SER759  ASP760  ASP761  ALA762  ILE779  LEU786  VAL792 
 PHE793  MET794  SER795  GLU796  ALA797  LYS798  CYS799  TRP800  GLU811  SER814 

> <Gold.Protein.RotatedAtoms>
  151.0067  134.9365  159.7984 H   0  0  0  0  0  0  0  0  0  0  0  0  # atno 6907 bound_to 6896
  152.5292  134.3082  159.9113 H   0  0  0  0  0  0  0  0  0  0  0  0  # atno 6908 bound_to 6896
  151.3088  133.4048  159.2679 H   0  0  0  0  0  0  0  0  0  0  0  0  # atno 6909 bound_to 6896
  146.2002  140.3589  142.8426 H   0  0  0  0  0  0  0  0  0  0  0  0  # atno 7974 bound_to 7965
  156.2261  140.2978  156.0070 H   0  0  0  0  0  0  0  0  0  0  0  0  # atno 8008 bound_to 7997
  155.2353  140.0420  157.2985 H   0  0  0  0  0  0  0  0  0  0  0  0  # atno 8009 bound_to 7997
  154.5917  140.2403  155.7919 H   0  0  0  0  0  0  0  0  0  0  0  0  # atno 8010 bound_to 7997
  140.5365  143.2317  151.7168 H   0  0  0  0  0  0  0  0  0  0  0  0  # atno 10167 bound_to 10162
  156.7741  130.5309  149.5762 H   0  0  0  0  0  0  0  0  0  0  0  0  # atno 10718 bound_to 10713
  154.8009  135.4714  154.0273 H   0  0  0  0  0  0  0  0  0  0  0  0  # atno 10763 bound_to 10752
  153.1779  135.6836  153.8524 H   0  0  0  0  0  0  0  0  0  0  0  0  # atno 10764 bound_to 10752
  153.8084  135.3220  155.3375 H   0  0  0  0  0  0  0  0  0  0  0  0  # atno 10765 bound_to 10752
  141.0725  133.9356  157.2456 H   0  0  0  0  0  0  0  0  0  0  0  0  # atno 11005 bound_to 11000
  144.8667  140.7216  143.6073 LP  0  0  0  0  0  0  0  0  0  0  0  0  # atno 17320 bound_to 7965
  145.3509  139.1706  143.4435 LP  0  0  0  0  0  0  0  0  0  0  0  0  # atno 17321 bound_to 7965
  139.4973  144.4035  152.0156 LP  0  0  0  0  0  0  0  0  0  0  0  0  # atno 17342 bound_to 10162
  140.3140  144.3504  150.6026 LP  0  0  0  0  0  0  0  0  0  0  0  0  # atno 17343 bound_to 10162
  156.1259  130.6143  151.0263 LP  0  0  0  0  0  0  0  0  0  0  0  0  # atno 17370 bound_to 10713
  157.6677  131.0868  150.7688 LP  0  0  0  0  0  0  0  0  0  0  0  0  # atno 17371 bound_to 10713
  139.9538  135.0170  156.9070 LP  0  0  0  0  0  0  0  0  0  0  0  0  # atno 17394 bound_to 11000
  140.5643  134.0505  155.7409 LP  0  0  0  0  0  0  0  0  0  0  0  0  # atno 17395 bound_to 11000

$$$$
