AV-unprocessed.smi:3329|AV-procd|sdf|12799|dock1
  -GOLD-   2272019153D 1   1.00000     0.00000
 Structure written by MMmdl.
 41 42  0  0  0  0  0  0  0  0  3 V2000
  153.1301  143.0077  162.9313 C   0  0  0  0  0  0  0  0  0  0  0  0
  152.7472  142.7406  161.5039 C   0  0  0  0  0  0  0  0  0  0  0  0
  153.1819  141.6712  160.6703 C   0  0  0  0  0  0  0  0  0  0  0  0
  152.6529  141.7168  159.4582 N   0  0  0  0  0  0  0  0  0  0  0  0
  151.8650  142.8124  159.4749 N   0  0  0  0  0  0  0  0  0  0  0  0
  151.1101  143.1758  158.2892 C   0  0  0  0  0  0  0  0  0  0  0  0
  151.2985  142.1652  157.1462 C   0  0  0  0  0  0  0  0  0  0  0  0
  150.3492  142.4153  156.0442 N   0  3  0  0  0  0  0  0  0  0  0  0
  149.3276  141.3646  155.8748 C   0  0  0  0  0  0  0  0  0  0  0  0
  149.9695  140.1065  155.2816 C   0  0  0  0  0  0  0  0  0  0  0  0
  150.2715  140.0768  154.0879 O   0  0  0  0  0  0  0  0  0  0  0  0
  150.1200  139.1406  156.2192 N   0  5  0  0  0  0  0  0  0  0  0  0
  151.0912  138.0453  156.1011 C   0  0  1  0  0  0  0  0  0  0  0  0
  150.6322  137.0578  155.0087 C   0  0  0  0  0  0  0  0  0  0  0  0
  152.4342  138.5734  155.7865 C   0  0  0  0  0  0  0  0  0  0  0  0
  153.4872  138.9870  155.5407 N   0  0  0  0  0  0  0  0  0  0  0  0
  151.2132  137.2949  157.4310 C   0  0  0  0  0  0  0  0  0  0  0  0
  150.0901  137.1636  158.4356 C   0  0  0  0  0  0  0  0  0  0  0  0
  151.3197  137.9875  158.7708 C   0  0  0  0  0  0  0  0  0  0  0  0
  151.9067  143.4524  160.6956 C   0  0  0  0  0  0  0  0  0  0  0  0
  154.2122  143.0190  163.0622 H   0  0  0  0  0  0  0  0  0  0  0  0
  152.7330  142.2454  163.6017 H   0  0  0  0  0  0  0  0  0  0  0  0
  152.7543  143.9700  163.2803 H   0  0  0  0  0  0  0  0  0  0  0  0
  153.8614  140.8664  160.9100 H   0  0  0  0  0  0  0  0  0  0  0  0
  150.0553  143.2601  158.5545 H   0  0  0  0  0  0  0  0  0  0  0  0
  151.4324  144.1674  157.9685 H   0  0  0  0  0  0  0  0  0  0  0  0
  152.3153  142.2348  156.7582 H   0  0  0  0  0  0  0  0  0  0  0  0
  151.1689  141.1470  157.5163 H   0  0  0  0  0  0  0  0  0  0  0  0
  149.8700  143.2870  156.2204 H   0  0  0  0  0  0  0  0  0  0  0  0
  148.8674  141.1557  156.8427 H   0  0  0  0  0  0  0  0  0  0  0  0
  148.5431  141.7148  155.2027 H   0  0  0  0  0  0  0  0  0  0  0  0
  151.3139  136.2099  154.9378 H   0  0  0  0  0  0  0  0  0  0  0  0
  150.5992  137.5214  154.0225 H   0  0  0  0  0  0  0  0  0  0  0  0
  149.6387  136.6617  155.2228 H   0  0  0  0  0  0  0  0  0  0  0  0
  151.8416  136.4103  157.3388 H   0  0  0  0  0  0  0  0  0  0  0  0
  149.1609  137.6992  158.2520 H   0  0  0  0  0  0  0  0  0  0  0  0
  149.9776  136.2034  158.9345 H   0  0  0  0  0  0  0  0  0  0  0  0
  152.0203  137.5732  159.4930 H   0  0  0  0  0  0  0  0  0  0  0  0
  151.2053  139.0689  158.8061 H   0  0  0  0  0  0  0  0  0  0  0  0
  151.3368  144.3495  160.8890 H   0  0  0  0  0  0  0  0  0  0  0  0
  150.8627  142.5004  155.1788 H   0  0  0  0  0  0  0  0  0  0  0  0
  1  2  1  0  0  0  0
  1 21  1  0  0  0  0
  1 22  1  0  0  0  0
  1 23  1  0  0  0  0
  2 20  2  0  0  0  0
  2  3  1  0  0  0  0
  3  4  2  0  0  0  0
  3 24  1  0  0  0  0
  4  5  1  0  0  0  0
  5  6  1  0  0  0  0
  5 20  1  0  0  0  0
  6  7  1  0  0  0  0
  6 25  1  0  0  0  0
  6 26  1  0  0  0  0
  7  8  1  0  0  0  0
  7 27  1  0  0  0  0
  7 28  1  0  0  0  0
  8  9  1  0  0  0  0
  8 29  1  0  0  0  0
  8 41  1  0  0  0  0
  9 10  1  0  0  0  0
  9 30  1  0  0  0  0
  9 31  1  0  0  0  0
 10 11  2  0  0  0  0
 10 12  1  0  0  0  0
 12 13  1  0  0  0  0
 13 14  1  0  0  0  0
 13 15  1  0  0  0  0
 13 17  1  0  0  0  0
 14 32  1  0  0  0  0
 14 33  1  0  0  0  0
 14 34  1  0  0  0  0
 15 16  3  0  0  0  0
 17 19  1  0  0  0  0
 17 18  1  0  0  0  0
 17 35  1  0  0  0  0
 18 19  1  0  0  0  0
 18 36  1  0  0  0  0
 18 37  1  0  0  0  0
 19 38  1  0  0  0  0
 19 39  1  0  0  0  0
 20 40  1  0  0  0  0
M  CHG  1   8   1
M  CHG  1  12  -1
M  END
> <s_m_source_file>
AV-unprocessed.smi

> <i_m_source_file_index>
3329

> <i_lp_mmshare_version>
43012

> <i_f3d_flags>
0

> <s_epik_input>
W0NIM11jMVtjSF1ubihbY0hdMSlbQ0gyXVtDSDJdW05IXVtDSDJdQyg9TylbTkhdW0NAQF0oW0NIM10pKEMjTilbQ0hdMltDSDJdW0NIMl0y

> <s_epik_cmdline>
J2VwaWtfcHl0aG9uJywgJy1waCcsICc3LjAnLCAnLXRuJywgJzgnLCAnLW1hJywgJzIwMCcsICctbWV0YWxfYmluZGluZycsICctaW1hZScsICc8aW5maWxlLm1hZT4nLCAnLW9tYWUnLCAnPG91dGZpbGUubWFlPic=

> <r_lp_tautomer_probability>
1

> <r_epik_Ionization_Penalty>
5.61187

> <r_epik_Ionization_Penalty_Charging>
5.61186

> <r_epik_Ionization_Penalty_Neutral>
4.91277e-06

> <r_epik_State_Penalty>
5.94522

> <r_epik_Charging_Adjusted_Penalty>
11.5571

> <i_epik_Tot_Q>
0

> <i_epik_Tot_abs_Q>
2

> <r_epik_Metal_State_Penalty>
1.9215

> <b_epik_Metal_Only>
1

> <s_lp_Force_Field>
OPLS_2005

> <r_lp_Energy>
13.6964

> <b_lp_Chiralities_Consistent>
1

> <s_lp_Variant>
AV-unprocessed.smi:3329-5

> <Gold.Version>
5.8.1

> <Gold.Id.Protein>
6NUR|6NUR_protein|mol2

> <Gold.PLP.Fitness>
50.0558

> <Gold.PLP.PLP>
-39.3541

> <Gold.PLP.part.hbond>
-2.9884

> <Gold.PLP.part.metal>
0.0000

> <Gold.PLP.part.buried>
-7.6790

> <Gold.PLP.part.nonpolar>
-29.4316

> <Gold.PLP.part.repulsive>
1.0848

> <Gold.PLP.ligand.clash>
0.0000

> <Gold.PLP.ligand.torsion>
1.6289

> <Gold.PLP.Chemscore.Hbond>
4.0000

> <Gold.PLP.Chemscore.CHOScore>
0.0000

> <Gold.PLP.Chemscore.Metal>
0.0000

> <Gold.Chemscore.Hbonds>
donor molecule, donor type, donor heavy atom, donor atom, acceptor molecule, acceptor atom, score
      L1  H     8    29       P1  8028  2.00
      P1  H  7989  7998       L1    11  1.00
      P1  H  7997  8010       L1    16  0.99

> <Gold.PLP.Chemscore.Internal.Correction>
1.9595

> <Gold.Rescore>
     Score         DG    S(hbond)    S(metal)    S(lipo)     H(rot)  DE(clash)    DE(int)     intcor
     18.26     -19.84       2.91        0.00      90.27       2.31       0.07       1.51       ----

> <Gold.Chemscore.Fitness>
18.2619

> <Gold.Chemscore.DG>
-19.8387

> <Gold.Chemscore.ZeroCoef>
-5.4800

> <Gold.Chemscore.Hbond>
2.9103

> <Gold.Chemscore.Metal>
0.0000

> <Gold.Chemscore.Lipo>
90.2750

> <Gold.Chemscore.Internal_Hbond>
0.0000

> <Gold.Chemscore.DEClash>
0.0694

> <Gold.Chemscore.DEInternal>
1.5074

> <Gold.Chemscore.Rot>
2.3140

> <Gold.Chemscore.Internal.Correction>
   9.000000E+99

> <Gold.Chemscore.Hbonds>
donor molecule, donor type, donor heavy atom, donor atom, acceptor molecule, acceptor atom, score
      L1  H     8    29       P1  8028  0.96
      P1  H  7989  7998       L1    11  0.95
      P1  H  7997  8010       L1    16  0.91

> <Gold.Chemscore.Hbond.Weighted>
-9.7203

> <Gold.Chemscore.Metal.Weighted>
-0.0000

> <Gold.Chemscore.Lipo.Weighted>
-10.5622

> <Gold.Chemscore.Internal_Hbond.Weighted>
0.0000

> <Gold.Chemscore.DEClash.Weighted>
0.0694

> <Gold.Chemscore.DEInternal.Weighted>
1.5074

> <Gold.Chemscore.Rot.Weighted>
5.9238

> <Gold.Chemscore.Internal.Correction.Weighted>
   9.000000E+99

> <Gold.Protein.RotatedTorsions>
[ 6907 6896 6895 6894 ] final -111.04 input  -60.11 | X-H torsion
[ 7974 7965 7964 7962 ] final   -5.94 input  175.53 | X-H torsion
[ 8008 7997 7996 7995 ] final   87.41 input   59.86 | X-H torsion
[ 10167 10162 10161 10158 ] final  -37.22 input  -65.29 | X-H torsion
[ 10718 10713 10712 10709 ] final   37.23 input   66.30 | X-H torsion
[ 10763 10752 10751 10750 ] final  -53.93 input  -60.55 | X-H torsion
[ 11005 11000 10999 10996 ] final   97.80 input  -57.11 | X-H torsion

> <Gold.Protein.ActiveResidues>
 VAL166  LYS551  ARG553  GLY616  TRP617  ASP618  TYR619  PRO620  LYS621  CYS622 
 ASP623  PHE694  ASN695  SER759  ASP760  ASP761  ALA762  ILE779  LEU786  VAL792 
 PHE793  MET794  SER795  GLU796  ALA797  LYS798  CYS799  TRP800  GLU811  SER814 

> <Gold.Protein.RotatedAtoms>
  150.7664  133.9294  159.3422 H   0  0  0  0  0  0  0  0  0  0  0  0  # atno 6907 bound_to 6896
  151.7191  135.0896  160.0290 H   0  0  0  0  0  0  0  0  0  0  0  0  # atno 6908 bound_to 6896
  152.3661  133.6321  159.6087 H   0  0  0  0  0  0  0  0  0  0  0  0  # atno 6909 bound_to 6896
  146.2342  140.2096  142.8335 H   0  0  0  0  0  0  0  0  0  0  0  0  # atno 7974 bound_to 7965
  155.9750  140.3382  155.6610 H   0  0  0  0  0  0  0  0  0  0  0  0  # atno 8008 bound_to 7997
  155.6624  140.0717  157.2567 H   0  0  0  0  0  0  0  0  0  0  0  0  # atno 8009 bound_to 7997
  154.4176  140.1706  156.1779 H   0  0  0  0  0  0  0  0  0  0  0  0  # atno 8010 bound_to 7997
  140.7123  143.3356  151.2470 H   0  0  0  0  0  0  0  0  0  0  0  0  # atno 10167 bound_to 10162
  157.3444  130.7565  149.6934 H   0  0  0  0  0  0  0  0  0  0  0  0  # atno 10718 bound_to 10713
  154.1668  135.6466  153.4999 H   0  0  0  0  0  0  0  0  0  0  0  0  # atno 10763 bound_to 10752
  153.0095  135.5374  154.6654 H   0  0  0  0  0  0  0  0  0  0  0  0  # atno 10764 bound_to 10752
  154.5983  135.2941  155.0535 H   0  0  0  0  0  0  0  0  0  0  0  0  # atno 10765 bound_to 10752
  139.8774  134.9018  156.4360 H   0  0  0  0  0  0  0  0  0  0  0  0  # atno 11005 bound_to 11000
  144.9717  140.8375  143.5451 LP  0  0  0  0  0  0  0  0  0  0  0  0  # atno 17320 bound_to 7965
  145.2078  139.2219  143.5159 LP  0  0  0  0  0  0  0  0  0  0  0  0  # atno 17321 bound_to 7965
  139.6850  143.9789  152.2829 LP  0  0  0  0  0  0  0  0  0  0  0  0  # atno 17342 bound_to 10162
  139.9431  144.6668  150.8246 LP  0  0  0  0  0  0  0  0  0  0  0  0  # atno 17343 bound_to 10162
  155.9712  130.4158  150.4201 LP  0  0  0  0  0  0  0  0  0  0  0  0  # atno 17370 bound_to 10713
  157.2254  131.0492  151.2523 LP  0  0  0  0  0  0  0  0  0  0  0  0  # atno 17371 bound_to 10713
  140.9033  133.7764  155.9705 LP  0  0  0  0  0  0  0  0  0  0  0  0  # atno 17394 bound_to 11000
  140.8627  134.2821  157.5227 LP  0  0  0  0  0  0  0  0  0  0  0  0  # atno 17395 bound_to 11000

$$$$
