AV-unprocessed.smi:1067|AV-procd|sdf|4672|dock1
  -GOLD-   22720 3183D 1   1.00000     0.00000
 Structure written by MMmdl.
 50 52  0  0  0  0  0  0  0  0  1 V2000
  144.9929  135.8616  149.6749 N   0  0  0  0  0  0  0  0  0  0  0  0
  145.4010  135.4638  150.8841 C   0  0  0  0  0  0  0  0  0  0  0  0
  146.0119  134.4054  151.0248 O   0  0  0  0  0  0  0  0  0  0  0  0
  145.1024  136.3770  152.1080 C   0  0  0  0  0  0  0  0  0  0  0  0
  145.7117  137.7850  151.8490 C   0  0  0  0  0  0  0  0  0  0  0  0
  147.0768  137.9496  152.3521 N   0  0  0  0  0  0  0  0  0  0  0  0
  147.4754  138.8721  153.2392 C   0  0  0  0  0  0  0  0  0  0  0  0
  146.7233  139.7153  153.7276 O   0  0  0  0  0  0  0  0  0  0  0  0
  148.7876  138.7542  153.5043 N   0  0  0  0  0  0  0  0  0  0  0  0
  149.5830  139.5374  154.3832 C   0  0  0  0  0  0  0  0  0  0  0  0
  150.8496  139.1441  154.8738 C   0  0  0  0  0  0  0  0  0  0  0  0
  151.5491  140.0142  155.7315 C   0  0  0  0  0  0  0  0  0  0  0  0
  150.9720  141.2609  156.0705 C   0  0  0  0  0  0  0  0  0  0  0  0
  151.6336  142.1541  156.9358 N   0  0  0  0  0  0  0  0  0  0  0  0
  152.2381  141.7152  158.1836 C   0  0  0  0  0  0  0  0  0  0  0  0
  152.7481  142.9997  158.8352 C   0  0  0  0  0  0  0  0  0  0  0  0
  151.7337  144.0478  158.3768 C   0  0  0  0  0  0  0  0  0  0  0  0
  151.3046  143.5717  156.9838 C   0  0  0  0  0  0  0  0  0  0  0  0
  149.7643  141.6405  155.5892 N   0  0  0  0  0  0  0  0  0  0  0  0
  149.0987  140.8037  154.7661 C   0  0  0  0  0  0  0  0  0  0  0  0
  143.5788  136.5351  152.3714 C   0  0  0  0  0  0  0  0  0  0  0  0
  142.9214  135.2325  152.8688 C   0  0  0  0  0  0  0  0  0  0  0  0
  143.5675  134.7897  154.0555 O   0  0  0  0  0  0  0  0  0  0  0  0
  144.9448  134.4945  153.8588 C   0  0  0  0  0  0  0  0  0  0  0  0
  145.6944  135.7628  153.4068 C   0  0  0  0  0  0  0  0  0  0  0  0
  145.1727  135.2801  148.8691 H   0  0  0  0  0  0  0  0  0  0  0  0
  144.5023  136.7378  149.5704 H   0  0  0  0  0  0  0  0  0  0  0  0
  145.7381  137.9809  150.7763 H   0  0  0  0  0  0  0  0  0  0  0  0
  145.0626  138.5578  152.2643 H   0  0  0  0  0  0  0  0  0  0  0  0
  147.7660  137.2968  152.0081 H   0  0  0  0  0  0  0  0  0  0  0  0
  149.2894  138.0618  152.9676 H   0  0  0  0  0  0  0  0  0  0  0  0
  151.3024  138.2027  154.6040 H   0  0  0  0  0  0  0  0  0  0  0  0
  152.5105  139.7119  156.1186 H   0  0  0  0  0  0  0  0  0  0  0  0
  151.4795  141.2407  158.8074 H   0  0  0  0  0  0  0  0  0  0  0  0
  153.0443  141.0010  158.0138 H   0  0  0  0  0  0  0  0  0  0  0  0
  152.8264  142.9239  159.9199 H   0  0  0  0  0  0  0  0  0  0  0  0
  153.7349  143.2468  158.4410 H   0  0  0  0  0  0  0  0  0  0  0  0
  150.8731  144.0368  159.0471 H   0  0  0  0  0  0  0  0  0  0  0  0
  152.1402  145.0593  158.3711 H   0  0  0  0  0  0  0  0  0  0  0  0
  151.8670  144.0905  156.2069 H   0  0  0  0  0  0  0  0  0  0  0  0
  150.2420  143.7536  156.8193 H   0  0  0  0  0  0  0  0  0  0  0  0
  148.1422  141.1562  154.4086 H   0  0  0  0  0  0  0  0  0  0  0  0
  143.4243  137.3006  153.1334 H   0  0  0  0  0  0  0  0  0  0  0  0
  143.0566  136.9049  151.4881 H   0  0  0  0  0  0  0  0  0  0  0  0
  141.8694  135.4099  153.0927 H   0  0  0  0  0  0  0  0  0  0  0  0
  142.9519  134.4491  152.1106 H   0  0  0  0  0  0  0  0  0  0  0  0
  145.3603  134.1345  154.8002 H   0  0  0  0  0  0  0  0  0  0  0  0
  145.0566  133.6843  153.1371 H   0  0  0  0  0  0  0  0  0  0  0  0
  146.7539  135.5315  153.2914 H   0  0  0  0  0  0  0  0  0  0  0  0
  145.6429  136.4991  154.2101 H   0  0  0  0  0  0  0  0  0  0  0  0
  1  2  1  0  0  0  0
  1 26  1  0  0  0  0
  1 27  1  0  0  0  0
  2  3  2  0  0  0  0
  2  4  1  0  0  0  0
  4 25  1  0  0  0  0
  4  5  1  0  0  0  0
  4 21  1  0  0  0  0
  5  6  1  0  0  0  0
  5 28  1  0  0  0  0
  5 29  1  0  0  0  0
  6  7  1  0  0  0  0
  6 30  1  0  0  0  0
  7  8  2  0  0  0  0
  7  9  1  0  0  0  0
  9 10  1  0  0  0  0
  9 31  1  0  0  0  0
 10 20  1  0  0  0  0
 10 11  2  0  0  0  0
 11 12  1  0  0  0  0
 11 32  1  0  0  0  0
 12 13  2  0  0  0  0
 12 33  1  0  0  0  0
 13 14  1  0  0  0  0
 13 19  1  0  0  0  0
 14 18  1  0  0  0  0
 14 15  1  0  0  0  0
 15 16  1  0  0  0  0
 15 34  1  0  0  0  0
 15 35  1  0  0  0  0
 16 17  1  0  0  0  0
 16 36  1  0  0  0  0
 16 37  1  0  0  0  0
 17 18  1  0  0  0  0
 17 38  1  0  0  0  0
 17 39  1  0  0  0  0
 18 40  1  0  0  0  0
 18 41  1  0  0  0  0
 19 20  2  0  0  0  0
 20 42  1  0  0  0  0
 21 22  1  0  0  0  0
 21 43  1  0  0  0  0
 21 44  1  0  0  0  0
 22 23  1  0  0  0  0
 22 45  1  0  0  0  0
 22 46  1  0  0  0  0
 23 24  1  0  0  0  0
 24 25  1  0  0  0  0
 24 47  1  0  0  0  0
 24 48  1  0  0  0  0
 25 49  1  0  0  0  0
 25 50  1  0  0  0  0
M  END
> <s_m_source_file>
AV-unprocessed.smi

> <i_m_source_file_index>
1067

> <i_lp_mmshare_version>
43012

> <i_f3d_flags>
0

> <s_epik_input>
W0NIMl0xW0NIMl1PW0NIMl1bQ0gyXUMxKEMoPU8pW05IMl0pW0NIMl1bTkhdQyg9TylbTkhdYzJbY0hdW2NIXWMobltjSF0yKU4zW0NIMl1bQ0gyXVtDSDJdW0NIMl0z

> <s_epik_cmdline>
J2VwaWtfcHl0aG9uJywgJy1waCcsICc3LjAnLCAnLXRuJywgJzgnLCAnLW1hJywgJzIwMCcsICctbWV0YWxfYmluZGluZycsICctaW1hZScsICc8aW5maWxlLm1hZT4nLCAnLW9tYWUnLCAnPG91dGZpbGUubWFlPic=

> <r_lp_tautomer_probability>
1

> <r_epik_Ionization_Penalty>
0.0944962

> <r_epik_Ionization_Penalty_Charging>
0

> <r_epik_Ionization_Penalty_Neutral>
0.0944962

> <r_epik_State_Penalty>
0.0841646

> <r_epik_Charging_Adjusted_Penalty>
0.0841646

> <i_epik_Tot_Q>
0

> <i_epik_Tot_abs_Q>
0

> <r_epik_Metal_State_Penalty>
0.0725577

> <b_epik_Metal_Only>
0

> <s_lp_Force_Field>
OPLS_2005

> <r_lp_Energy>
34.2759

> <b_lp_Chiralities_Consistent>
1

> <s_lp_Variant>
AV-unprocessed.smi:1067-1

> <Gold.Version>
5.8.1

> <Gold.Id.Protein>
6NUR|6NUR_protein|mol2

> <Gold.PLP.Fitness>
53.2088

> <Gold.PLP.PLP>
-44.3008

> <Gold.PLP.part.hbond>
-4.9416

> <Gold.PLP.part.metal>
0.0000

> <Gold.PLP.part.buried>
-3.2874

> <Gold.PLP.part.nonpolar>
-36.9342

> <Gold.PLP.part.repulsive>
0.8300

> <Gold.PLP.ligand.clash>
0.0000

> <Gold.PLP.ligand.torsion>
1.2023

> <Gold.PLP.Chemscore.Hbond>
3.6752

> <Gold.PLP.Chemscore.CHOScore>
0.0000

> <Gold.PLP.Chemscore.Metal>
0.0000

> <Gold.Chemscore.Hbonds>
donor molecule, donor type, donor heavy atom, donor atom, acceptor molecule, acceptor atom, score
      L1  H     1    26       P1  7921  1.00
      L1  H     1    27       P1 10171  1.00
      L1  H     6    30       P1  7948  1.00
      L1  H     9    31       P1  7948  0.63

> <Gold.PLP.Chemscore.Internal.Correction>
0.2869

> <Gold.Rescore>
     Score         DG    S(hbond)    S(metal)    S(lipo)     H(rot)  DE(clash)    DE(int)     intcor
     19.18     -22.60       3.25        0.00      93.03       1.81       0.31       3.10       ----

> <Gold.Chemscore.Fitness>
19.1833

> <Gold.Chemscore.DG>
-22.6000

> <Gold.Chemscore.ZeroCoef>
-5.4800

> <Gold.Chemscore.Hbond>
3.2524

> <Gold.Chemscore.Metal>
0.0000

> <Gold.Chemscore.Lipo>
93.0280

> <Gold.Chemscore.Internal_Hbond>
0.0000

> <Gold.Chemscore.DEClash>
0.3150

> <Gold.Chemscore.DEInternal>
3.1017

> <Gold.Chemscore.Rot>
1.8075

> <Gold.Chemscore.Internal.Correction>
   9.000000E+99

> <Gold.Chemscore.Hbonds>
donor molecule, donor type, donor heavy atom, donor atom, acceptor molecule, acceptor atom, score
      L1  H     1    26       P1  7921  0.94
      L1  H     1    27       P1 10171  0.99
      L1  H     6    30       P1  7948  0.97
      L1  H     9    31       P1  7948  0.60

> <Gold.Chemscore.Hbond.Weighted>
-10.8629

> <Gold.Chemscore.Metal.Weighted>
-0.0000

> <Gold.Chemscore.Lipo.Weighted>
-10.8843

> <Gold.Chemscore.Internal_Hbond.Weighted>
0.0000

> <Gold.Chemscore.DEClash.Weighted>
0.3150

> <Gold.Chemscore.DEInternal.Weighted>
3.1017

> <Gold.Chemscore.Rot.Weighted>
4.6272

> <Gold.Chemscore.Internal.Correction.Weighted>
   9.000000E+99

> <Gold.Protein.RotatedTorsions>
[ 6907 6896 6895 6894 ] final   14.52 input  -60.11 | X-H torsion
[ 7974 7965 7964 7962 ] final -149.27 input  175.53 | X-H torsion
[ 8008 7997 7996 7995 ] final  -30.40 input   59.86 | X-H torsion
[ 10167 10162 10161 10158 ] final   63.66 input  -65.29 | X-H torsion
[ 10718 10713 10712 10709 ] final   43.89 input   66.30 | X-H torsion
[ 10763 10752 10751 10750 ] final  -96.59 input  -60.55 | X-H torsion
[ 11005 11000 10999 10996 ] final    8.65 input  -57.11 | X-H torsion

> <Gold.Protein.ActiveResidues>
 VAL166  LYS551  ARG553  GLY616  TRP617  ASP618  TYR619  PRO620  LYS621  CYS622 
 ASP623  PHE694  ASN695  SER759  ASP760  ASP761  ALA762  ILE779  LEU786  VAL792 
 PHE793  MET794  SER795  GLU796  ALA797  LYS798  CYS799  TRP800  GLU811  SER814 

> <Gold.Protein.RotatedAtoms>
  151.8036  135.0701  160.0403 H   0  0  0  0  0  0  0  0  0  0  0  0  # atno 6907 bound_to 6896
  152.3071  133.5710  159.5665 H   0  0  0  0  0  0  0  0  0  0  0  0  # atno 6908 bound_to 6896
  150.7301  134.0123  159.3715 H   0  0  0  0  0  0  0  0  0  0  0  0  # atno 6909 bound_to 6896
  144.7977  140.5086  143.5728 H   0  0  0  0  0  0  0  0  0  0  0  0  # atno 7974 bound_to 7965
  154.4252  140.1792  156.1400 H   0  0  0  0  0  0  0  0  0  0  0  0  # atno 8008 bound_to 7997
  155.9999  140.3361  155.6810 H   0  0  0  0  0  0  0  0  0  0  0  0  # atno 8009 bound_to 7997
  155.6257  140.0664  157.2655 H   0  0  0  0  0  0  0  0  0  0  0  0  # atno 8010 bound_to 7997
  140.1306  144.4646  150.6867 H   0  0  0  0  0  0  0  0  0  0  0  0  # atno 10167 bound_to 10162
  157.4209  130.7968  149.7514 H   0  0  0  0  0  0  0  0  0  0  0  0  # atno 10718 bound_to 10713
  154.7253  135.5078  153.8876 H   0  0  0  0  0  0  0  0  0  0  0  0  # atno 10763 bound_to 10752
  153.0899  135.6656  153.9883 H   0  0  0  0  0  0  0  0  0  0  0  0  # atno 10764 bound_to 10752
  153.9697  135.3039  155.3407 H   0  0  0  0  0  0  0  0  0  0  0  0  # atno 10765 bound_to 10752
  140.5345  134.0434  155.7884 H   0  0  0  0  0  0  0  0  0  0  0  0  # atno 11005 bound_to 11000
  145.5630  139.1480  143.3330 LP  0  0  0  0  0  0  0  0  0  0  0  0  # atno 17320 bound_to 7965
  146.2251  140.5766  142.9000 LP  0  0  0  0  0  0  0  0  0  0  0  0  # atno 17321 bound_to 7965
  140.6819  143.2331  151.5362 LP  0  0  0  0  0  0  0  0  0  0  0  0  # atno 17342 bound_to 10162
  139.5521  144.2368  152.1549 LP  0  0  0  0  0  0  0  0  0  0  0  0  # atno 17343 bound_to 10162
  155.9880  130.3962  150.3138 LP  0  0  0  0  0  0  0  0  0  0  0  0  # atno 17370 bound_to 10713
  157.1286  131.0265  151.2979 LP  0  0  0  0  0  0  0  0  0  0  0  0  # atno 17371 bound_to 10713
  141.1262  133.9379  157.2630 LP  0  0  0  0  0  0  0  0  0  0  0  0  # atno 17394 bound_to 11000
  139.9536  135.0170  156.9065 LP  0  0  0  0  0  0  0  0  0  0  0  0  # atno 17395 bound_to 11000

$$$$
