AV-unprocessed.smi:3276|AV-procd|sdf|12535|dock6
  -GOLD-   2272018453D 1   1.00000     0.00000
 Structure written by MMmdl.
 39 40  0  0  0  0  0  0  0  0  1 V2000
  152.5955  143.3151  161.3957 C   0  0  0  0  0  0  0  0  0  0  0  0
  152.0928  142.9772  160.0085 C   0  0  0  0  0  0  0  0  0  0  0  0
  152.0676  143.9388  158.9761 C   0  0  0  0  0  0  0  0  0  0  0  0
  151.6155  143.6374  157.7398 N   0  0  0  0  0  0  0  0  0  0  0  0
  151.1869  142.3697  157.5384 C   0  0  0  0  0  0  0  0  0  0  0  0
  150.6759  142.0503  156.1449 C   0  0  0  0  0  0  0  0  0  0  0  0
  151.2078  141.3989  158.5722 C   0  0  0  0  0  0  0  0  0  0  0  0
  150.7553  140.0930  158.3253 N   0  0  0  0  0  0  0  0  0  0  0  0
  149.4071  139.8479  157.8263 C   0  0  0  0  0  0  0  0  0  0  0  0
  149.0122  138.3667  157.9161 C   0  0  0  0  0  0  0  0  0  0  0  0
  149.1877  137.9289  159.2525 O   0  0  0  0  0  0  0  0  0  0  0  0
  149.0913  136.5207  159.3905 C   0  0  0  0  0  0  0  0  0  0  0  0
  147.8428  136.1674  160.2107 C   0  0  1  0  0  0  0  0  0  0  0  0
  147.8008  134.7333  160.7466 C   0  0  0  0  0  0  0  0  0  0  0  0
  146.9746  134.8998  162.0018 C   0  0  0  0  0  0  0  0  0  0  0  0
  147.4626  136.2524  162.5099 C   0  0  0  0  0  0  0  0  0  0  0  0
  147.7170  137.0261  161.3422 O   0  0  0  0  0  0  0  0  0  0  0  0
  151.6658  141.7109  159.8095 N   0  0  0  0  0  0  0  0  0  0  0  0
  153.0755  144.2940  161.4117 H   0  0  0  0  0  0  0  0  0  0  0  0
  153.3233  142.5746  161.7290 H   0  0  0  0  0  0  0  0  0  0  0  0
  151.7673  143.3284  162.1046 H   0  0  0  0  0  0  0  0  0  0  0  0
  152.4090  144.9504  159.1396 H   0  0  0  0  0  0  0  0  0  0  0  0
  149.6370  141.7220  156.1889 H   0  0  0  0  0  0  0  0  0  0  0  0
  151.2711  141.2548  155.6958 H   0  0  0  0  0  0  0  0  0  0  0  0
  150.7274  142.9214  155.4904 H   0  0  0  0  0  0  0  0  0  0  0  0
  151.4449  139.3710  158.1742 H   0  0  0  0  0  0  0  0  0  0  0  0
  148.7099  140.4495  158.4098 H   0  0  0  0  0  0  0  0  0  0  0  0
  149.3243  140.1995  156.7974 H   0  0  0  0  0  0  0  0  0  0  0  0
  147.9660  138.2491  157.6304 H   0  0  0  0  0  0  0  0  0  0  0  0
  149.6062  137.7618  157.2294 H   0  0  0  0  0  0  0  0  0  0  0  0
  149.0418  136.0483  158.4083 H   0  0  0  0  0  0  0  0  0  0  0  0
  149.9790  136.1364  159.8949 H   0  0  0  0  0  0  0  0  0  0  0  0
  146.9569  136.3348  159.5967 H   0  0  0  0  0  0  0  0  0  0  0  0
  147.3665  134.0274  160.0381 H   0  0  0  0  0  0  0  0  0  0  0  0
  148.7980  134.3783  161.0102 H   0  0  0  0  0  0  0  0  0  0  0  0
  145.9140  134.9507  161.7514 H   0  0  0  0  0  0  0  0  0  0  0  0
  147.1210  134.0949  162.7227 H   0  0  0  0  0  0  0  0  0  0  0  0
  146.7417  136.7414  163.1655 H   0  0  0  0  0  0  0  0  0  0  0  0
  148.3975  136.1350  163.0595 H   0  0  0  0  0  0  0  0  0  0  0  0
  1  2  1  0  0  0  0
  1 19  1  0  0  0  0
  1 20  1  0  0  0  0
  1 21  1  0  0  0  0
  2 18  1  0  0  0  0
  2  3  2  0  0  0  0
  3  4  1  0  0  0  0
  3 22  1  0  0  0  0
  4  5  2  0  0  0  0
  5  6  1  0  0  0  0
  5  7  1  0  0  0  0
  6 23  1  0  0  0  0
  6 24  1  0  0  0  0
  6 25  1  0  0  0  0
  7  8  1  0  0  0  0
  7 18  2  0  0  0  0
  8  9  1  0  0  0  0
  8 26  1  0  0  0  0
  9 10  1  0  0  0  0
  9 27  1  0  0  0  0
  9 28  1  0  0  0  0
 10 11  1  0  0  0  0
 10 29  1  0  0  0  0
 10 30  1  0  0  0  0
 11 12  1  0  0  0  0
 12 13  1  0  0  0  0
 12 31  1  0  0  0  0
 12 32  1  0  0  0  0
 13 17  1  0  0  0  0
 13 14  1  0  0  0  0
 13 33  1  0  0  0  0
 14 15  1  0  0  0  0
 14 34  1  0  0  0  0
 14 35  1  0  0  0  0
 15 16  1  0  0  0  0
 15 36  1  0  0  0  0
 15 37  1  0  0  0  0
 16 17  1  0  0  0  0
 16 38  1  0  0  0  0
 16 39  1  0  0  0  0
M  END
> <s_m_source_file>
AV-unprocessed.smi

> <i_m_source_file_index>
3276

> <i_lp_mmshare_version>
43012

> <i_f3d_flags>
0

> <s_epik_input>
W0NIM11jMVtjSF1uYyhbQ0gzXSljKG4xKVtOSF1bQ0gyXVtDSDJdT1tDSDJdW0NAQEhdMltDSDJdW0NIMl1bQ0gyXU8y

> <s_epik_cmdline>
J2VwaWtfcHl0aG9uJywgJy1waCcsICc3LjAnLCAnLXRuJywgJzgnLCAnLW1hJywgJzIwMCcsICctbWV0YWxfYmluZGluZycsICctaW1hZScsICc8aW5maWxlLm1hZT4nLCAnLW9tYWUnLCAnPG91dGZpbGUubWFlPic=

> <r_lp_tautomer_probability>
1

> <r_epik_Ionization_Penalty>
0.000506

> <r_epik_Ionization_Penalty_Charging>
0

> <r_epik_Ionization_Penalty_Neutral>
0.000506

> <r_epik_State_Penalty>
-0

> <r_epik_Charging_Adjusted_Penalty>
0

> <i_epik_Tot_Q>
0

> <i_epik_Tot_abs_Q>
0

> <r_epik_Metal_State_Penalty>
-0

> <b_epik_Metal_Only>
0

> <s_lp_Force_Field>
OPLS_2005

> <r_lp_Energy>
26.2022

> <b_lp_Chiralities_Consistent>
1

> <s_lp_Variant>
AV-unprocessed.smi:3276-2

> <Gold.Version>
5.8.1

> <Gold.Id.Protein>
6NUR|6NUR_protein|mol2

> <Gold.PLP.Fitness>
43.6819

> <Gold.PLP.PLP>
-40.5918

> <Gold.PLP.part.hbond>
-4.7897

> <Gold.PLP.part.metal>
0.0000

> <Gold.PLP.part.buried>
-4.4760

> <Gold.PLP.part.nonpolar>
-31.0699

> <Gold.PLP.part.repulsive>
0.2757

> <Gold.PLP.ligand.clash>
0.0000

> <Gold.PLP.ligand.torsion>
1.1116

> <Gold.PLP.Chemscore.Hbond>
1.7520

> <Gold.PLP.Chemscore.CHOScore>
0.0000

> <Gold.PLP.Chemscore.Metal>
0.0000

> <Gold.Chemscore.Hbonds>
donor molecule, donor type, donor heavy atom, donor atom, acceptor molecule, acceptor atom, score
      P1  H  6931  6943       L1    17  1.00
      P1  H  6934  6947       L1    17  0.68

> <Gold.PLP.Chemscore.Internal.Correction>
0.0573

> <Gold.Rescore>
     Score         DG    S(hbond)    S(metal)    S(lipo)     H(rot)  DE(clash)    DE(int)     intcor
     15.21     -16.33       1.37        0.00      90.40       1.68       0.07       1.05       ----

> <Gold.Chemscore.Fitness>
15.2120

> <Gold.Chemscore.DG>
-16.3260

> <Gold.Chemscore.ZeroCoef>
-5.4800

> <Gold.Chemscore.Hbond>
1.3699

> <Gold.Chemscore.Metal>
0.0000

> <Gold.Chemscore.Lipo>
90.3966

> <Gold.Chemscore.Internal_Hbond>
0.0000

> <Gold.Chemscore.DEClash>
0.0686

> <Gold.Chemscore.DEInternal>
1.0454

> <Gold.Chemscore.Rot>
1.6820

> <Gold.Chemscore.Internal.Correction>
   9.000000E+99

> <Gold.Chemscore.Hbonds>
donor molecule, donor type, donor heavy atom, donor atom, acceptor molecule, acceptor atom, score
      P1  H  6931  6943       L1    17  0.38
      P1  H  6934  6947       L1    17  0.62

> <Gold.Chemscore.Hbond.Weighted>
-4.5754

> <Gold.Chemscore.Metal.Weighted>
-0.0000

> <Gold.Chemscore.Lipo.Weighted>
-10.5764

> <Gold.Chemscore.Internal_Hbond.Weighted>
0.0000

> <Gold.Chemscore.DEClash.Weighted>
0.0686

> <Gold.Chemscore.DEInternal.Weighted>
1.0454

> <Gold.Chemscore.Rot.Weighted>
4.3058

> <Gold.Chemscore.Internal.Correction.Weighted>
   9.000000E+99

> <Gold.Protein.RotatedTorsions>
[ 6907 6896 6895 6894 ] final  100.23 input  -60.11 | X-H torsion
[ 7974 7965 7964 7962 ] final   34.34 input  175.53 | X-H torsion
[ 8008 7997 7996 7995 ] final  -91.04 input   59.86 | X-H torsion
[ 10167 10162 10161 10158 ] final    6.79 input  -65.29 | X-H torsion
[ 10718 10713 10712 10709 ] final -135.35 input   66.30 | X-H torsion
[ 10763 10752 10751 10750 ] final   38.66 input  -60.55 | X-H torsion
[ 11005 11000 10999 10996 ] final   23.44 input  -57.11 | X-H torsion

> <Gold.Protein.ActiveResidues>
 VAL166  LYS551  ARG553  GLY616  TRP617  ASP618  TYR619  PRO620  LYS621  CYS622 
 ASP623  PHE694  ASN695  SER759  ASP760  ASP761  ALA762  ILE779  LEU786  VAL792 
 PHE793  MET794  SER795  GLU796  ALA797  LYS798  CYS799  TRP800  GLU811  SER814 

> <Gold.Protein.RotatedAtoms>
  152.5376  134.0308  159.8023 H   0  0  0  0  0  0  0  0  0  0  0  0  # atno 6907 bound_to 6896
  151.0479  133.5641  159.2652 H   0  0  0  0  0  0  0  0  0  0  0  0  # atno 6908 bound_to 6896
  151.2586  135.0654  159.9143 H   0  0  0  0  0  0  0  0  0  0  0  0  # atno 6909 bound_to 6896
  146.1360  139.6282  142.9195 H   0  0  0  0  0  0  0  0  0  0  0  0  # atno 7974 bound_to 7965
  154.7059  140.0524  157.0503 H   0  0  0  0  0  0  0  0  0  0  0  0  # atno 8008 bound_to 7997
  155.0620  140.3190  155.4638 H   0  0  0  0  0  0  0  0  0  0  0  0  # atno 8009 bound_to 7997
  156.2774  140.2097  156.5747 H   0  0  0  0  0  0  0  0  0  0  0  0  # atno 8010 bound_to 7997
  140.6408  143.7779  150.7425 H   0  0  0  0  0  0  0  0  0  0  0  0  # atno 10167 bound_to 10162
  156.2653  130.7233  151.1182 H   0  0  0  0  0  0  0  0  0  0  0  0  # atno 10718 bound_to 10713
  152.9993  135.6243  154.2340 H   0  0  0  0  0  0  0  0  0  0  0  0  # atno 10763 bound_to 10752
  154.2081  135.2801  155.2969 H   0  0  0  0  0  0  0  0  0  0  0  0  # atno 10764 bound_to 10752
  154.5629  135.5700  153.7082 H   0  0  0  0  0  0  0  0  0  0  0  0  # atno 10765 bound_to 10752
  140.3695  134.2037  155.7667 H   0  0  0  0  0  0  0  0  0  0  0  0  # atno 11005 bound_to 11000
  145.5156  141.0434  143.2464 LP  0  0  0  0  0  0  0  0  0  0  0  0  # atno 17320 bound_to 7965
  144.7740  139.6671  143.7183 LP  0  0  0  0  0  0  0  0  0  0  0  0  # atno 17321 bound_to 7965
  140.1410  143.4441  152.2194 LP  0  0  0  0  0  0  0  0  0  0  0  0  # atno 17342 bound_to 10162
  139.5617  144.7410  151.4136 LP  0  0  0  0  0  0  0  0  0  0  0  0  # atno 17343 bound_to 10162
  157.7265  131.0646  150.5907 LP  0  0  0  0  0  0  0  0  0  0  0  0  # atno 17370 bound_to 10713
  156.5998  130.4351  149.5902 LP  0  0  0  0  0  0  0  0  0  0  0  0  # atno 17371 bound_to 10713
  141.1959  133.8095  157.0696 LP  0  0  0  0  0  0  0  0  0  0  0  0  # atno 17394 bound_to 11000
  140.0563  134.9779  157.1225 LP  0  0  0  0  0  0  0  0  0  0  0  0  # atno 17395 bound_to 11000

$$$$
