AV-unprocessed.smi:2659|AV-procd|sdf|10313|dock9
  -GOLD-   2272014333D 1   1.00000     0.00000
 Structure written by MMmdl.
 47 48  0  0  0  0  0  0  0  0  1 V2000
  147.0711  141.3004  153.6139 C   0  0  0  0  0  0  0  0  0  0  0  0
  148.2631  140.6977  154.1775 N   0  0  0  0  0  0  0  0  0  0  0  0
  149.0728  141.4225  154.9786 N   0  0  0  0  0  0  0  0  0  0  0  0
  150.0529  140.5952  155.3271 C   0  0  0  0  0  0  0  0  0  0  0  0
  151.1495  141.0795  156.2415 C   0  0  0  0  0  0  0  0  0  0  0  0
  150.7521  141.2156  157.7390 C   0  0  0  0  0  0  0  0  0  0  0  0
  149.5391  142.1568  157.8810 C   0  0  0  0  0  0  0  0  0  0  0  0
  151.9380  141.8270  158.5105 C   0  0  0  0  0  0  0  0  0  0  0  0
  150.4075  139.8511  158.3742 C   0  0  0  0  0  0  0  0  0  0  0  0
  149.9094  139.3012  154.7459 C   0  0  0  0  0  0  0  0  0  0  0  0
  148.7515  139.4191  154.0272 C   0  0  0  0  0  0  0  0  0  0  0  0
  148.1196  138.4881  153.2641 N   0  0  0  0  0  0  0  0  0  0  0  0
  146.8094  138.1918  153.2127 C   0  0  0  0  0  0  0  0  0  0  0  0
  145.9263  138.7363  153.8757 O   0  0  0  0  0  0  0  0  0  0  0  0
  146.5713  137.2090  152.3330 N   0  0  0  0  0  0  0  0  0  0  0  0
  145.2589  136.6414  152.0458 C   0  0  0  0  0  0  0  0  0  0  0  0
  145.3476  135.5007  151.0190 C   0  0  1  0  0  0  0  0  0  0  0  0
  146.1622  134.3029  151.5007 C   0  0  0  0  0  0  0  0  0  0  0  0
  145.6200  133.1979  150.6233 C   0  0  0  0  0  0  0  0  0  0  0  0
  144.1384  133.5570  150.5368 C   0  0  0  0  0  0  0  0  0  0  0  0
  144.0553  134.9650  150.7474 O   0  0  0  0  0  0  0  0  0  0  0  0
  146.2002  140.6953  153.8664 H   0  0  0  0  0  0  0  0  0  0  0  0
  147.1668  141.3536  152.5293 H   0  0  0  0  0  0  0  0  0  0  0  0
  146.9265  142.3074  154.0076 H   0  0  0  0  0  0  0  0  0  0  0  0
  151.9763  140.3723  156.1626 H   0  0  0  0  0  0  0  0  0  0  0  0
  151.5556  142.0232  155.8744 H   0  0  0  0  0  0  0  0  0  0  0  0
  149.2749  142.3082  158.9282 H   0  0  0  0  0  0  0  0  0  0  0  0
  148.6577  141.7549  157.3811 H   0  0  0  0  0  0  0  0  0  0  0  0
  149.7420  143.1380  157.4505 H   0  0  0  0  0  0  0  0  0  0  0  0
  152.2230  142.7956  158.0981 H   0  0  0  0  0  0  0  0  0  0  0  0
  152.8159  141.1811  158.4695 H   0  0  0  0  0  0  0  0  0  0  0  0
  151.6947  141.9777  159.5628 H   0  0  0  0  0  0  0  0  0  0  0  0
  150.2133  139.9509  159.4427 H   0  0  0  0  0  0  0  0  0  0  0  0
  151.2272  139.1416  158.2556 H   0  0  0  0  0  0  0  0  0  0  0  0
  149.5164  139.4060  157.9306 H   0  0  0  0  0  0  0  0  0  0  0  0
  150.5572  138.4450  154.8562 H   0  0  0  0  0  0  0  0  0  0  0  0
  148.7192  137.9554  152.6514 H   0  0  0  0  0  0  0  0  0  0  0  0
  147.3549  136.8138  151.8343 H   0  0  0  0  0  0  0  0  0  0  0  0
  144.7999  136.2842  152.9691 H   0  0  0  0  0  0  0  0  0  0  0  0
  144.6155  137.4366  151.6682 H   0  0  0  0  0  0  0  0  0  0  0  0
  145.7707  135.8602  150.0794 H   0  0  0  0  0  0  0  0  0  0  0  0
  147.2373  134.4479  151.3919 H   0  0  0  0  0  0  0  0  0  0  0  0
  145.9488  134.0868  152.5486 H   0  0  0  0  0  0  0  0  0  0  0  0
  146.0771  133.2497  149.6343 H   0  0  0  0  0  0  0  0  0  0  0  0
  145.7946  132.2012  151.0289 H   0  0  0  0  0  0  0  0  0  0  0  0
  143.7027  133.2738  149.5784 H   0  0  0  0  0  0  0  0  0  0  0  0
  143.5758  133.0566  151.3255 H   0  0  0  0  0  0  0  0  0  0  0  0
  1  2  1  0  0  0  0
  1 22  1  0  0  0  0
  1 23  1  0  0  0  0
  1 24  1  0  0  0  0
  2 11  1  0  0  0  0
  2  3  1  0  0  0  0
  3  4  2  0  0  0  0
  4  5  1  0  0  0  0
  4 10  1  0  0  0  0
  5  6  1  0  0  0  0
  5 25  1  0  0  0  0
  5 26  1  0  0  0  0
  6  7  1  0  0  0  0
  6  8  1  0  0  0  0
  6  9  1  0  0  0  0
  7 27  1  0  0  0  0
  7 28  1  0  0  0  0
  7 29  1  0  0  0  0
  8 30  1  0  0  0  0
  8 31  1  0  0  0  0
  8 32  1  0  0  0  0
  9 33  1  0  0  0  0
  9 34  1  0  0  0  0
  9 35  1  0  0  0  0
 10 11  2  0  0  0  0
 10 36  1  0  0  0  0
 11 12  1  0  0  0  0
 12 13  1  0  0  0  0
 12 37  1  0  0  0  0
 13 14  2  0  0  0  0
 13 15  1  0  0  0  0
 15 16  1  0  0  0  0
 15 38  1  0  0  0  0
 16 17  1  0  0  0  0
 16 39  1  0  0  0  0
 16 40  1  0  0  0  0
 17 21  1  0  0  0  0
 17 18  1  0  0  0  0
 17 41  1  0  0  0  0
 18 19  1  0  0  0  0
 18 42  1  0  0  0  0
 18 43  1  0  0  0  0
 19 20  1  0  0  0  0
 19 44  1  0  0  0  0
 19 45  1  0  0  0  0
 20 21  1  0  0  0  0
 20 46  1  0  0  0  0
 20 47  1  0  0  0  0
M  END
> <s_m_source_file>
AV-unprocessed.smi

> <i_m_source_file_index>
2659

> <i_lp_mmshare_version>
43012

> <i_f3d_flags>
0

> <s_epik_input>
W0NIM11uMW5jKFtDSDJdQyhbQ0gzXSkoW0NIM10pW0NIM10pW2NIXWMxW05IXUMoPU8pW05IXVtDSDJdW0NAQEhdMltDSDJdW0NIMl1bQ0gyXU8y

> <s_epik_cmdline>
J2VwaWtfcHl0aG9uJywgJy1waCcsICc3LjAnLCAnLXRuJywgJzgnLCAnLW1hJywgJzIwMCcsICctbWV0YWxfYmluZGluZycsICctaW1hZScsICc8aW5maWxlLm1hZT4nLCAnLW9tYWUnLCAnPG91dGZpbGUubWFlPic=

> <r_lp_tautomer_probability>
1

> <r_epik_Ionization_Penalty>
9.6187e-05

> <r_epik_Ionization_Penalty_Charging>
0

> <r_epik_Ionization_Penalty_Neutral>
9.6187e-05

> <r_epik_State_Penalty>
-0

> <r_epik_Charging_Adjusted_Penalty>
0

> <i_epik_Tot_Q>
0

> <i_epik_Tot_abs_Q>
0

> <r_epik_Metal_State_Penalty>
-0

> <b_epik_Metal_Only>
0

> <s_lp_Force_Field>
OPLS_2005

> <r_lp_Energy>
21.1922

> <b_lp_Chiralities_Consistent>
1

> <s_lp_Variant>
AV-unprocessed.smi:2659-2

> <Gold.Version>
5.8.1

> <Gold.Id.Protein>
6NUR|6NUR_protein|mol2

> <Gold.PLP.Fitness>
42.0878

> <Gold.PLP.PLP>
-37.7067

> <Gold.PLP.part.hbond>
-3.0000

> <Gold.PLP.part.metal>
0.0000

> <Gold.PLP.part.buried>
-4.3187

> <Gold.PLP.part.nonpolar>
-31.1123

> <Gold.PLP.part.repulsive>
0.7449

> <Gold.PLP.ligand.clash>
0.0000

> <Gold.PLP.ligand.torsion>
0.5758

> <Gold.PLP.Chemscore.Hbond>
1.8400

> <Gold.PLP.Chemscore.CHOScore>
0.0000

> <Gold.PLP.Chemscore.Metal>
0.0000

> <Gold.Chemscore.Hbonds>
donor molecule, donor type, donor heavy atom, donor atom, acceptor molecule, acceptor atom, score
      L1  H    12    37       P1  7948  0.90
      L1  H    15    38       P1  7948  1.00

> <Gold.PLP.Chemscore.Internal.Correction>
0.0127

> <Gold.Rescore>
     Score         DG    S(hbond)    S(metal)    S(lipo)     H(rot)  DE(clash)    DE(int)     intcor
     14.89     -17.04       1.91        0.00      76.80       1.49       0.01       2.15       ----

> <Gold.Chemscore.Fitness>
14.8872

> <Gold.Chemscore.DG>
-17.0425

> <Gold.Chemscore.ZeroCoef>
-5.4800

> <Gold.Chemscore.Hbond>
1.9129

> <Gold.Chemscore.Metal>
0.0000

> <Gold.Chemscore.Lipo>
76.8049

> <Gold.Chemscore.Internal_Hbond>
0.0000

> <Gold.Chemscore.DEClash>
0.0050

> <Gold.Chemscore.DEInternal>
2.1503

> <Gold.Chemscore.Rot>
1.4894

> <Gold.Chemscore.Internal.Correction>
   9.000000E+99

> <Gold.Chemscore.Hbonds>
donor molecule, donor type, donor heavy atom, donor atom, acceptor molecule, acceptor atom, score
      L1  H    12    37       P1  7948  0.88
      L1  H    15    38       P1  7948  0.95

> <Gold.Chemscore.Hbond.Weighted>
-6.3892

> <Gold.Chemscore.Metal.Weighted>
-0.0000

> <Gold.Chemscore.Lipo.Weighted>
-8.9862

> <Gold.Chemscore.Internal_Hbond.Weighted>
0.0000

> <Gold.Chemscore.DEClash.Weighted>
0.0050

> <Gold.Chemscore.DEInternal.Weighted>
2.1503

> <Gold.Chemscore.Rot.Weighted>
3.8129

> <Gold.Chemscore.Internal.Correction.Weighted>
   9.000000E+99

> <Gold.Protein.RotatedTorsions>
[ 6907 6896 6895 6894 ] final   80.47 input  -60.11 | X-H torsion
[ 7974 7965 7964 7962 ] final  -31.65 input  175.53 | X-H torsion
[ 8008 7997 7996 7995 ] final -155.75 input   59.86 | X-H torsion
[ 10167 10162 10161 10158 ] final  -20.92 input  -65.29 | X-H torsion
[ 10718 10713 10712 10709 ] final  142.68 input   66.30 | X-H torsion
[ 10763 10752 10751 10750 ] final  -78.37 input  -60.55 | X-H torsion
[ 11005 11000 10999 10996 ] final  124.99 input  -57.11 | X-H torsion

> <Gold.Protein.ActiveResidues>
 VAL166  LYS551  ARG553  GLY616  TRP617  ASP618  TYR619  PRO620  LYS621  CYS622 
 ASP623  PHE694  ASN695  SER759  ASP760  ASP761  ALA762  ILE779  LEU786  VAL792 
 PHE793  MET794  SER795  GLU796  ALA797  LYS798  CYS799  TRP800  GLU811  SER814 

> <Gold.Protein.RotatedAtoms>
  152.5236  134.3352  159.9196 H   0  0  0  0  0  0  0  0  0  0  0  0  # atno 6907 bound_to 6896
  151.3301  133.3997  159.2669 H   0  0  0  0  0  0  0  0  0  0  0  0  # atno 6908 bound_to 6896
  150.9887  134.9244  159.7945 H   0  0  0  0  0  0  0  0  0  0  0  0  # atno 6909 bound_to 6896
  146.1051  140.5694  142.8803 H   0  0  0  0  0  0  0  0  0  0  0  0  # atno 7974 bound_to 7965
  155.7066  140.0773  157.2388 H   0  0  0  0  0  0  0  0  0  0  0  0  # atno 8008 bound_to 7997
  154.4065  140.1638  156.2303 H   0  0  0  0  0  0  0  0  0  0  0  0  # atno 8009 bound_to 7997
  155.9320  140.3390  155.6260 H   0  0  0  0  0  0  0  0  0  0  0  0  # atno 8010 bound_to 7997
  140.7279  143.4677  151.0291 H   0  0  0  0  0  0  0  0  0  0  0  0  # atno 10167 bound_to 10162
  157.3778  131.0988  151.0768 H   0  0  0  0  0  0  0  0  0  0  0  0  # atno 10718 bound_to 10713
  154.5250  135.5732  153.6712 H   0  0  0  0  0  0  0  0  0  0  0  0  # atno 10763 bound_to 10752
  152.9926  135.6191  154.2704 H   0  0  0  0  0  0  0  0  0  0  0  0  # atno 10764 bound_to 10752
  154.2627  135.2855  155.2751 H   0  0  0  0  0  0  0  0  0  0  0  0  # atno 10765 bound_to 10752
  139.9385  134.9637  156.8492 H   0  0  0  0  0  0  0  0  0  0  0  0  # atno 11005 bound_to 11000
  144.7464  140.5078  143.6833 LP  0  0  0  0  0  0  0  0  0  0  0  0  # atno 17320 bound_to 7965
  145.5778  139.1487  143.3252 LP  0  0  0  0  0  0  0  0  0  0  0  0  # atno 17321 bound_to 7965
  139.8366  143.7620  152.3180 LP  0  0  0  0  0  0  0  0  0  0  0  0  # atno 17342 bound_to 10162
  139.7754  144.7463  151.0165 LP  0  0  0  0  0  0  0  0  0  0  0  0  # atno 17343 bound_to 10162
  157.1848  130.6325  149.5684 LP  0  0  0  0  0  0  0  0  0  0  0  0  # atno 17370 bound_to 10713
  155.9769  130.4741  150.6558 LP  0  0  0  0  0  0  0  0  0  0  0  0  # atno 17371 bound_to 10713
  140.6013  134.0169  155.7538 LP  0  0  0  0  0  0  0  0  0  0  0  0  # atno 17394 bound_to 11000
  141.1009  133.9769  157.3080 LP  0  0  0  0  0  0  0  0  0  0  0  0  # atno 17395 bound_to 11000

$$$$
