AV-unprocessed.smi:3057|AV-procd|sdf|11666|dock2
  -GOLD-   2272017 73D 1   1.00000     0.00000
 Structure written by MMmdl.
 41 43  0  0  0  0  0  0  0  0  2 V2000
  152.4139  144.0422  158.6754 C   0  0  0  0  0  0  0  0  0  0  0  0
  151.8912  142.7104  159.2529 C   0  0  2  0  0  0  0  0  0  0  0  0
  152.2296  142.5783  160.7466 C   0  0  0  0  0  0  0  0  0  0  0  0
  153.5834  141.8515  160.7590 C   0  0  0  0  0  0  0  0  0  0  0  0
  153.5801  141.1261  159.4213 C   0  0  0  0  0  0  0  0  0  0  0  0
  154.3618  140.2167  159.1464 O   0  0  0  0  0  0  0  0  0  0  0  0
  152.5772  141.5814  158.6529 N   0  0  0  0  0  0  0  0  0  0  0  0
  151.9525  140.9774  157.4663 C   0  0  1  0  0  0  0  0  0  0  0  0
  151.7153  139.4622  157.6069 C   0  0  0  0  0  0  0  0  0  0  0  0
  151.2030  139.0053  158.6296 O   0  0  0  0  0  0  0  0  0  0  0  0
  152.0816  138.6995  156.5664 N   0  0  0  0  0  0  0  0  0  0  0  0
  151.9500  137.2499  156.5187 C   0  0  0  0  0  0  0  0  0  0  0  0
  151.1915  136.8177  155.2564 C   0  0  0  0  0  0  0  0  0  0  0  0
  151.4007  135.3504  154.9360 C   0  0  0  0  0  0  0  0  0  0  0  0
  152.0962  134.4823  155.8056 C   0  0  0  0  0  0  0  0  0  0  0  0
  152.2611  133.1295  155.4413 C   0  0  0  0  0  0  0  0  0  0  0  0
  151.7286  132.6741  154.2173 C   0  0  0  0  0  0  0  0  0  0  0  0
  151.0430  133.5844  153.3871 C   0  0  0  0  0  0  0  0  0  0  0  0
  150.9057  134.8727  153.7710 N   0  3  0  0  0  0  0  0  0  0  0  0
  150.6377  141.7498  157.2182 C   0  0  0  0  0  0  0  0  0  0  0  0
  150.1591  142.4435  158.8242 S   0  0  0  0  0  0  0  0  0  0  0  0
  153.4768  144.1774  158.8786 H   0  0  0  0  0  0  0  0  0  0  0  0
  151.8868  144.8898  159.1143 H   0  0  0  0  0  0  0  0  0  0  0  0
  152.2812  144.0982  157.5952 H   0  0  0  0  0  0  0  0  0  0  0  0
  152.2683  143.5409  161.2575 H   0  0  0  0  0  0  0  0  0  0  0  0
  151.4836  141.9666  161.2565 H   0  0  0  0  0  0  0  0  0  0  0  0
  154.4158  142.5551  160.7877 H   0  0  0  0  0  0  0  0  0  0  0  0
  153.6745  141.1600  161.5970 H   0  0  0  0  0  0  0  0  0  0  0  0
  152.6209  141.1438  156.6198 H   0  0  0  0  0  0  0  0  0  0  0  0
  152.4889  139.1538  155.7618 H   0  0  0  0  0  0  0  0  0  0  0  0
  152.9376  136.7848  156.5317 H   0  0  0  0  0  0  0  0  0  0  0  0
  151.4227  136.9129  157.4124 H   0  0  0  0  0  0  0  0  0  0  0  0
  150.1241  137.0087  155.3772 H   0  0  0  0  0  0  0  0  0  0  0  0
  151.5166  137.4135  154.4021 H   0  0  0  0  0  0  0  0  0  0  0  0
  152.5007  134.8458  156.7391 H   0  0  0  0  0  0  0  0  0  0  0  0
  152.7906  132.4497  156.0928 H   0  0  0  0  0  0  0  0  0  0  0  0
  151.8449  131.6423  153.9193 H   0  0  0  0  0  0  0  0  0  0  0  0
  150.6049  133.3237  152.4346 H   0  0  0  0  0  0  0  0  0  0  0  0
  150.8067  142.5694  156.5194 H   0  0  0  0  0  0  0  0  0  0  0  0
  149.8386  141.1310  156.8073 H   0  0  0  0  0  0  0  0  0  0  0  0
  150.4078  135.5146  153.1535 H   0  0  0  0  0  0  0  0  0  0  0  0
  1  2  1  0  0  0  0
  1 22  1  0  0  0  0
  1 23  1  0  0  0  0
  1 24  1  0  0  0  0
  2  7  1  0  0  0  0
  2 21  1  0  0  0  0
  2  3  1  0  0  0  0
  3  4  1  0  0  0  0
  3 25  1  0  0  0  0
  3 26  1  0  0  0  0
  4  5  1  0  0  0  0
  4 27  1  0  0  0  0
  4 28  1  0  0  0  0
  5  6  2  0  0  0  0
  5  7  1  0  0  0  0
  7  8  1  0  0  0  0
  8  9  1  0  0  0  0
  8 20  1  0  0  0  0
  8 29  1  0  0  0  0
  9 10  2  0  0  0  0
  9 11  1  0  0  0  0
 11 12  1  0  0  0  0
 11 30  1  0  0  0  0
 12 13  1  0  0  0  0
 12 31  1  0  0  0  0
 12 32  1  0  0  0  0
 13 14  1  0  0  0  0
 13 33  1  0  0  0  0
 13 34  1  0  0  0  0
 14 19  1  0  0  0  0
 14 15  2  0  0  0  0
 15 16  1  0  0  0  0
 15 35  1  0  0  0  0
 16 17  2  0  0  0  0
 16 36  1  0  0  0  0
 17 18  1  0  0  0  0
 17 37  1  0  0  0  0
 18 19  2  0  0  0  0
 18 38  1  0  0  0  0
 19 41  1  0  0  0  0
 20 21  1  0  0  0  0
 20 39  1  0  0  0  0
 20 40  1  0  0  0  0
M  CHG  1  19   1
M  END
> <s_m_source_file>
AV-unprocessed.smi

> <i_m_source_file_index>
3057

> <i_lp_mmshare_version>
43012

> <i_f3d_flags>
0

> <s_epik_input>
W0NIMl0xW0NIMl1DKD1PKU4oW0NAQF0xMltDSDNdKVtDQEhdKFtDSDJdUzIpQyg9TylbTkhdW0NIMl1bQ0gyXWMzW2NIXVtjSF1bY0hdW2NIXW4z

> <s_epik_cmdline>
J2VwaWtfcHl0aG9uJywgJy1waCcsICc3LjAnLCAnLXRuJywgJzgnLCAnLW1hJywgJzIwMCcsICctbWV0YWxfYmluZGluZycsICctaW1hZScsICc8aW5maWxlLm1hZT4nLCAnLW9tYWUnLCAnPG91dGZpbGUubWFlPic=

> <r_epik_Ionization_Penalty>
1.8888

> <r_epik_Ionization_Penalty_Charging>
1.8888

> <r_epik_Ionization_Penalty_Neutral>
1.66252e-07

> <r_epik_State_Penalty>
2.00916

> <r_epik_Charging_Adjusted_Penalty>
3.89796

> <i_epik_Tot_Q>
1

> <i_epik_Tot_abs_Q>
1

> <r_epik_Metal_State_Penalty>
2.03343

> <b_epik_Metal_Only>
0

> <s_lp_Force_Field>
OPLS_2005

> <r_lp_Energy>
32.3734

> <b_lp_Chiralities_Consistent>
1

> <s_lp_Variant>
AV-unprocessed.smi:3057-6

> <Gold.Version>
5.8.1

> <Gold.Id.Protein>
6NUR|6NUR_protein|mol2

> <Gold.PLP.Fitness>
48.1211

> <Gold.PLP.PLP>
-40.0800

> <Gold.PLP.part.hbond>
-2.0000

> <Gold.PLP.part.metal>
0.0000

> <Gold.PLP.part.buried>
-5.3124

> <Gold.PLP.part.nonpolar>
-31.8609

> <Gold.PLP.part.repulsive>
0.0890

> <Gold.PLP.ligand.clash>
0.0000

> <Gold.PLP.ligand.torsion>
0.4641

> <Gold.PLP.Chemscore.Hbond>
2.9833

> <Gold.PLP.Chemscore.CHOScore>
0.0000

> <Gold.PLP.Chemscore.Metal>
0.0000

> <Gold.Chemscore.Hbonds>
donor molecule, donor type, donor heavy atom, donor atom, acceptor molecule, acceptor atom, score
      P1  H  7997  8008       L1     6  0.88

> <Gold.PLP.Chemscore.Internal.Correction>
0.0192

> <Gold.Rescore>
     Score         DG    S(hbond)    S(metal)    S(lipo)     H(rot)  DE(clash)    DE(int)     intcor
     17.45     -17.95       1.79        0.00      90.97       1.62       0.03       0.47       ----

> <Gold.Chemscore.Fitness>
17.4521

> <Gold.Chemscore.DG>
-17.9508

> <Gold.Chemscore.ZeroCoef>
-5.4800

> <Gold.Chemscore.Hbond>
1.7913

> <Gold.Chemscore.Metal>
0.0000

> <Gold.Chemscore.Lipo>
90.9708

> <Gold.Chemscore.Internal_Hbond>
0.0000

> <Gold.Chemscore.DEClash>
0.0303

> <Gold.Chemscore.DEInternal>
0.4684

> <Gold.Chemscore.Rot>
1.6234

> <Gold.Chemscore.Internal.Correction>
   9.000000E+99

> <Gold.Chemscore.Hbonds>
donor molecule, donor type, donor heavy atom, donor atom, acceptor molecule, acceptor atom, score
      P1  H  7997  8008       L1     6  0.80

> <Gold.Chemscore.Hbond.Weighted>
-5.9830

> <Gold.Chemscore.Metal.Weighted>
-0.0000

> <Gold.Chemscore.Lipo.Weighted>
-10.6436

> <Gold.Chemscore.Internal_Hbond.Weighted>
0.0000

> <Gold.Chemscore.DEClash.Weighted>
0.0303

> <Gold.Chemscore.DEInternal.Weighted>
0.4684

> <Gold.Chemscore.Rot.Weighted>
4.1558

> <Gold.Chemscore.Internal.Correction.Weighted>
   9.000000E+99

> <Gold.Protein.RotatedTorsions>
[ 6907 6896 6895 6894 ] final   46.42 input  -60.11 | X-H torsion
[ 7974 7965 7964 7962 ] final -110.55 input  175.53 | X-H torsion
[ 8008 7997 7996 7995 ] final -106.21 input   59.86 | X-H torsion
[ 10167 10162 10161 10158 ] final  155.84 input  -65.29 | X-H torsion
[ 10718 10713 10712 10709 ] final   70.86 input   66.30 | X-H torsion
[ 10763 10752 10751 10750 ] final   56.49 input  -60.55 | X-H torsion
[ 11005 11000 10999 10996 ] final -142.68 input  -57.11 | X-H torsion

> <Gold.Protein.ActiveResidues>
 VAL166  LYS551  ARG553  GLY616  TRP617  ASP618  TYR619  PRO620  LYS621  CYS622 
 ASP623  PHE694  ASN695  SER759  ASP760  ASP761  ALA762  ILE779  LEU786  VAL792 
 PHE793  MET794  SER795  GLU796  ALA797  LYS798  CYS799  TRP800  GLU811  SER814 

> <Gold.Protein.RotatedAtoms>
  152.2562  134.8081  160.0437 H   0  0  0  0  0  0  0  0  0  0  0  0  # atno 6907 bound_to 6896
  151.8744  133.3477  159.3753 H   0  0  0  0  0  0  0  0  0  0  0  0  # atno 6908 bound_to 6896
  150.7101  134.5008  159.5604 H   0  0  0  0  0  0  0  0  0  0  0  0  # atno 6909 bound_to 6896
  145.1669  140.8906  143.3558 H   0  0  0  0  0  0  0  0  0  0  0  0  # atno 7974 bound_to 7965
  154.9112  140.0410  157.1947 H   0  0  0  0  0  0  0  0  0  0  0  0  # atno 8008 bound_to 7997
  154.8346  140.2904  155.5678 H   0  0  0  0  0  0  0  0  0  0  0  0  # atno 8009 bound_to 7997
  156.2989  140.2494  156.3278 H   0  0  0  0  0  0  0  0  0  0  0  0  # atno 8010 bound_to 7997
  139.4821  144.5063  151.8093 H   0  0  0  0  0  0  0  0  0  0  0  0  # atno 10167 bound_to 10162
  157.6422  130.9499  150.0709 H   0  0  0  0  0  0  0  0  0  0  0  0  # atno 10718 bound_to 10713
  152.9833  135.5674  154.5238 H   0  0  0  0  0  0  0  0  0  0  0  0  # atno 10763 bound_to 10752
  154.4721  135.2785  155.1637 H   0  0  0  0  0  0  0  0  0  0  0  0  # atno 10764 bound_to 10752
  154.3180  135.6274  153.5548 H   0  0  0  0  0  0  0  0  0  0  0  0  # atno 10765 bound_to 10752
  140.8201  134.2641  157.4904 H   0  0  0  0  0  0  0  0  0  0  0  0  # atno 11005 bound_to 11000
  145.0273  139.3371  143.6042 LP  0  0  0  0  0  0  0  0  0  0  0  0  # atno 17320 bound_to 7965
  146.3474  139.9597  142.8719 LP  0  0  0  0  0  0  0  0  0  0  0  0  # atno 17321 bound_to 7965
  140.4561  144.1787  150.5901 LP  0  0  0  0  0  0  0  0  0  0  0  0  # atno 17342 bound_to 10162
  140.4534  143.2477  151.9317 LP  0  0  0  0  0  0  0  0  0  0  0  0  # atno 17343 bound_to 10162
  156.1713  130.3646  149.9161 LP  0  0  0  0  0  0  0  0  0  0  0  0  # atno 17370 bound_to 10713
  156.7136  130.8979  151.3611 LP  0  0  0  0  0  0  0  0  0  0  0  0  # atno 17371 bound_to 10713
  139.8709  134.9531  156.4134 LP  0  0  0  0  0  0  0  0  0  0  0  0  # atno 17394 bound_to 11000
  140.9108  133.7713  155.9789 LP  0  0  0  0  0  0  0  0  0  0  0  0  # atno 17395 bound_to 11000

$$$$
