AV-unprocessed.smi:703|AV-procd|sdf|3439|dock2
  -GOLD-   22720 0423D 1   1.00000     0.00000
 Structure written by MMmdl.
 37 38  0  0  0  0  0  0  0  0  3 V2000
  148.4155  131.6950  153.7361 C   0  0  0  0  0  0  0  0  0  0  0  0
  148.2451  132.9597  152.8835 C   0  0  0  0  0  0  0  0  0  0  0  0
  148.5081  134.1968  153.6568 N   0  3  2  0  0  0  0  0  0  0  0  0
  149.7823  134.1846  154.4156 C   0  0  0  0  0  0  0  0  0  0  0  0
  149.4593  134.6566  155.8431 C   0  0  1  0  0  0  0  0  0  0  0  0
  150.6033  135.4587  156.4944 C   0  0  0  0  0  0  0  0  0  0  0  0
  148.1290  135.4077  155.6826 C   0  0  2  0  0  0  0  0  0  0  0  0
  147.3714  135.4190  156.9239 N   0  5  0  0  0  0  0  0  0  0  0  0
  148.1278  135.7088  158.3296 S   0  0  0  0  0  0  0  0  0  0  0  0
  149.0912  134.6481  158.6653 O   0  0  0  0  0  0  0  0  0  0  0  0
  148.5960  137.1001  158.4447 O   0  0  0  0  0  0  0  0  0  0  0  0
  146.7305  135.5187  159.5231 C   0  0  0  0  0  0  0  0  0  0  0  0
  147.1640  135.8969  160.9126 C   0  0  0  0  0  0  0  0  0  0  0  0
  147.2684  135.0652  162.0622 C   0  0  0  0  0  0  0  0  0  0  0  0
  147.7022  135.9184  163.0351 C   0  0  0  0  0  0  0  0  0  0  0  0
  147.8470  137.1724  162.5378 O   0  0  0  0  0  0  0  0  0  0  0  0
  147.4963  137.1499  161.1832 N   0  0  0  0  0  0  0  0  0  0  0  0
  147.4326  134.5908  154.5921 C   0  0  0  0  0  0  0  0  0  0  0  0
  148.1642  130.8051  153.1590 H   0  0  0  0  0  0  0  0  0  0  0  0
  147.7642  131.7182  154.6103 H   0  0  0  0  0  0  0  0  0  0  0  0
  149.4425  131.5796  154.0838 H   0  0  0  0  0  0  0  0  0  0  0  0
  148.8983  132.9210  152.0103 H   0  0  0  0  0  0  0  0  0  0  0  0
  147.2210  132.9933  152.5095 H   0  0  0  0  0  0  0  0  0  0  0  0
  150.2429  133.1955  154.4349 H   0  0  0  0  0  0  0  0  0  0  0  0
  150.4834  134.8560  153.9159 H   0  0  0  0  0  0  0  0  0  0  0  0
  149.2818  133.7636  156.4464 H   0  0  0  0  0  0  0  0  0  0  0  0
  150.8513  136.3597  155.9304 H   0  0  0  0  0  0  0  0  0  0  0  0
  151.5084  134.8535  156.5496 H   0  0  0  0  0  0  0  0  0  0  0  0
  150.3578  135.7602  157.5144 H   0  0  0  0  0  0  0  0  0  0  0  0
  148.3312  136.4107  155.3037 H   0  0  0  0  0  0  0  0  0  0  0  0
  145.8862  136.1157  159.1777 H   0  0  0  0  0  0  0  0  0  0  0  0
  146.4210  134.4742  159.5013 H   0  0  0  0  0  0  0  0  0  0  0  0
  147.0640  134.0090  162.1550 H   0  0  0  0  0  0  0  0  0  0  0  0
  147.9407  135.7920  164.0808 H   0  0  0  0  0  0  0  0  0  0  0  0
  146.6537  135.1577  154.0813 H   0  0  0  0  0  0  0  0  0  0  0  0
  146.9738  133.6970  155.0204 H   0  0  0  0  0  0  0  0  0  0  0  0
  148.5944  134.9532  152.9932 H   0  0  0  0  0  0  0  0  0  0  0  0
  1  2  1  0  0  0  0
  1 19  1  0  0  0  0
  1 20  1  0  0  0  0
  1 21  1  0  0  0  0
  2  3  1  0  0  0  0
  2 22  1  0  0  0  0
  2 23  1  0  0  0  0
  3 18  1  0  0  0  0
  3  4  1  0  0  0  0
  3 37  1  0  0  0  0
  4  5  1  0  0  0  0
  4 24  1  0  0  0  0
  4 25  1  0  0  0  0
  5  6  1  0  0  0  0
  5  7  1  0  0  0  0
  5 26  1  0  0  0  0
  6 27  1  0  0  0  0
  6 28  1  0  0  0  0
  6 29  1  0  0  0  0
  7  8  1  0  0  0  0
  7 18  1  0  0  0  0
  7 30  1  0  0  0  0
  8  9  1  0  0  0  0
  9 10  2  0  0  0  0
  9 11  2  0  0  0  0
  9 12  1  0  0  0  0
 12 13  1  0  0  0  0
 12 31  1  0  0  0  0
 12 32  1  0  0  0  0
 13 17  2  0  0  0  0
 13 14  1  0  0  0  0
 14 15  2  0  0  0  0
 14 33  1  0  0  0  0
 15 16  1  0  0  0  0
 15 34  1  0  0  0  0
 16 17  1  0  0  0  0
 18 35  1  0  0  0  0
 18 36  1  0  0  0  0
M  CHG  1   3   1
M  CHG  1   8  -1
M  END
> <s_m_source_file>
AV-unprocessed.smi

> <i_m_source_file_index>
703

> <i_lp_mmshare_version>
43012

> <i_f3d_flags>
0

> <s_epik_input>
W0NIM11bQ0gyXU4xW0NIMl1bQ0BASF0oW0NIM10pW0NASF0oW0NIMl0xKVtOSF1TKD1PKSg9TylbQ0gyXWMyW2NIXVtjSF1vbjI=

> <s_epik_cmdline>
J2VwaWtfcHl0aG9uJywgJy1waCcsICc3LjAnLCAnLXRuJywgJzgnLCAnLW1hJywgJzIwMCcsICctbWV0YWxfYmluZGluZycsICctaW1hZScsICc8aW5maWxlLm1hZT4nLCAnLW9tYWUnLCAnPG91dGZpbGUubWFlPic=

> <r_epik_Ionization_Penalty>
3.62494

> <r_epik_Ionization_Penalty_Charging>
3.62494

> <r_epik_Ionization_Penalty_Neutral>
2.0321e-10

> <r_epik_State_Penalty>
3.62558

> <r_epik_Charging_Adjusted_Penalty>
7.25052

> <i_epik_Tot_Q>
0

> <i_epik_Tot_abs_Q>
2

> <r_epik_Metal_State_Penalty>
0.530836

> <b_epik_Metal_Only>
1

> <s_lp_Force_Field>
OPLS_2005

> <r_lp_Energy>
15.0444

> <b_lp_Chiralities_Consistent>
1

> <s_lp_Variant>
AV-unprocessed.smi:703-14

> <Gold.Version>
5.8.1

> <Gold.Id.Protein>
6NUR|6NUR_protein|mol2

> <Gold.PLP.Fitness>
39.9150

> <Gold.PLP.PLP>
-29.1762

> <Gold.PLP.part.hbond>
-5.7441

> <Gold.PLP.part.metal>
0.0000

> <Gold.PLP.part.buried>
-3.3123

> <Gold.PLP.part.nonpolar>
-19.8993

> <Gold.PLP.part.repulsive>
0.0000

> <Gold.PLP.ligand.clash>
0.0000

> <Gold.PLP.ligand.torsion>
1.0980

> <Gold.PLP.Chemscore.Hbond>
3.9648

> <Gold.PLP.Chemscore.CHOScore>
0.0000

> <Gold.PLP.Chemscore.Metal>
0.0000

> <Gold.Chemscore.Hbonds>
donor molecule, donor type, donor heavy atom, donor atom, acceptor molecule, acceptor atom, score
      L1  H     3    37       P1  7948  2.00
      P1  H  6896  6908       L1    10  1.00
      P1  H  6931  6943       L1    16  0.04
      P1  H  6934  6947       L1    17  0.86

> <Gold.PLP.Chemscore.Internal.Correction>
1.0404

> <Gold.Rescore>
     Score         DG    S(hbond)    S(metal)    S(lipo)     H(rot)  DE(clash)    DE(int)     intcor
     11.02     -16.03       2.44        0.00      56.18       1.63       0.01       4.99       ----

> <Gold.Chemscore.Fitness>
11.0245

> <Gold.Chemscore.DG>
-16.0296

> <Gold.Chemscore.ZeroCoef>
-5.4800

> <Gold.Chemscore.Hbond>
2.4427

> <Gold.Chemscore.Metal>
0.0000

> <Gold.Chemscore.Lipo>
56.1827

> <Gold.Chemscore.Internal_Hbond>
0.0000

> <Gold.Chemscore.DEClash>
0.0149

> <Gold.Chemscore.DEInternal>
4.9902

> <Gold.Chemscore.Rot>
1.6338

> <Gold.Chemscore.Internal.Correction>
   9.000000E+99

> <Gold.Chemscore.Hbonds>
donor molecule, donor type, donor heavy atom, donor atom, acceptor molecule, acceptor atom, score
      L1  H     3    37       P1  7948  0.50
      P1  H  6896  6908       L1    10  0.96
      P1  H  6934  6947       L1    17  0.16

> <Gold.Chemscore.Hbond.Weighted>
-8.1587

> <Gold.Chemscore.Metal.Weighted>
-0.0000

> <Gold.Chemscore.Lipo.Weighted>
-6.5734

> <Gold.Chemscore.Internal_Hbond.Weighted>
0.0000

> <Gold.Chemscore.DEClash.Weighted>
0.0149

> <Gold.Chemscore.DEInternal.Weighted>
4.9902

> <Gold.Chemscore.Rot.Weighted>
4.1825

> <Gold.Chemscore.Internal.Correction.Weighted>
   9.000000E+99

> <Gold.Protein.RotatedTorsions>
[ 6907 6896 6895 6894 ] final  133.74 input  -60.11 | X-H torsion
[ 7974 7965 7964 7962 ] final -133.26 input  175.53 | X-H torsion
[ 8008 7997 7996 7995 ] final -113.81 input   59.86 | X-H torsion
[ 10167 10162 10161 10158 ] final -145.32 input  -65.29 | X-H torsion
[ 10718 10713 10712 10709 ] final  118.58 input   66.30 | X-H torsion
[ 10763 10752 10751 10750 ] final   30.10 input  -60.55 | X-H torsion
[ 11005 11000 10999 10996 ] final   51.51 input  -57.11 | X-H torsion

> <Gold.Protein.ActiveResidues>
 VAL166  LYS551  ARG553  GLY616  TRP617  ASP618  TYR619  PRO620  LYS621  CYS622 
 ASP623  PHE694  ASN695  SER759  ASP760  ASP761  ALA762  ILE779  LEU786  VAL792 
 PHE793  MET794  SER795  GLU796  ALA797  LYS798  CYS799  TRP800  GLU811  SER814 

> <Gold.Protein.RotatedAtoms>
  152.3187  133.5831  159.5729 H   0  0  0  0  0  0  0  0  0  0  0  0  # atno 6907 bound_to 6896
  150.7360  134.0043  159.3657 H   0  0  0  0  0  0  0  0  0  0  0  0  # atno 6908 bound_to 6896
  151.7929  135.0731  160.0441 H   0  0  0  0  0  0  0  0  0  0  0  0  # atno 6909 bound_to 6896
  144.9209  140.7013  143.4966 H   0  0  0  0  0  0  0  0  0  0  0  0  # atno 7974 bound_to 7965
  155.0266  140.0393  157.2458 H   0  0  0  0  0  0  0  0  0  0  0  0  # atno 8008 bound_to 7997
  154.7333  140.2734  155.6414 H   0  0  0  0  0  0  0  0  0  0  0  0  # atno 8009 bound_to 7997
  156.2847  140.2680  156.2039 H   0  0  0  0  0  0  0  0  0  0  0  0  # atno 8010 bound_to 7997
  139.7817  143.8092  152.2639 H   0  0  0  0  0  0  0  0  0  0  0  0  # atno 10167 bound_to 10162
  157.6020  131.1049  150.7776 H   0  0  0  0  0  0  0  0  0  0  0  0  # atno 10718 bound_to 10713
  153.0391  135.6472  154.0993 H   0  0  0  0  0  0  0  0  0  0  0  0  # atno 10763 bound_to 10752
  154.0702  135.2881  155.3311 H   0  0  0  0  0  0  0  0  0  0  0  0  # atno 10764 bound_to 10752
  154.6599  135.5395  153.8070 H   0  0  0  0  0  0  0  0  0  0  0  0  # atno 10765 bound_to 10752
  140.0927  134.5188  155.8837 H   0  0  0  0  0  0  0  0  0  0  0  0  # atno 11005 bound_to 11000
  145.3298  139.1763  143.4543 LP  0  0  0  0  0  0  0  0  0  0  0  0  # atno 17320 bound_to 7965
  146.3204  140.3326  142.8641 LP  0  0  0  0  0  0  0  0  0  0  0  0  # atno 17321 bound_to 7965
  139.8156  144.7317  150.9639 LP  0  0  0  0  0  0  0  0  0  0  0  0  # atno 17342 bound_to 10162
  140.7818  143.4208  151.0845 LP  0  0  0  0  0  0  0  0  0  0  0  0  # atno 17343 bound_to 10162
  156.8173  130.4972  149.5348 LP  0  0  0  0  0  0  0  0  0  0  0  0  # atno 17370 bound_to 10713
  156.1096  130.6030  151.0026 LP  0  0  0  0  0  0  0  0  0  0  0  0  # atno 17371 bound_to 10713
  141.2082  133.6672  156.6359 LP  0  0  0  0  0  0  0  0  0  0  0  0  # atno 17394 bound_to 11000
  140.3330  134.7913  157.4340 LP  0  0  0  0  0  0  0  0  0  0  0  0  # atno 17395 bound_to 11000

$$$$
