AV-unprocessed.smi:919|AV-procd|sdf|4167|dock3
  -GOLD-   22720 2 73D 1   1.00000     0.00000
 Structure written by MMmdl.
 43 45  0  0  0  0  0  0  0  0  1 V2000
  147.3944  142.2153  154.2317 C   0  0  0  0  0  0  0  0  0  0  0  0
  148.5288  141.2420  154.3775 C   0  0  0  0  0  0  0  0  0  0  0  0
  149.7396  141.6864  154.6700 N   0  0  0  0  0  0  0  0  0  0  0  0
  150.5577  140.5540  154.7330 O   0  0  0  0  0  0  0  0  0  0  0  0
  149.7978  139.4594  154.4738 C   0  0  0  0  0  0  0  0  0  0  0  0
  150.4983  138.1431  154.4912 C   0  0  0  0  0  0  0  0  0  0  0  0
  148.5001  139.8247  154.2435 C   0  0  0  0  0  0  0  0  0  0  0  0
  147.3163  138.9551  153.9196 C   0  0  0  0  0  0  0  0  0  0  0  0
  147.3584  137.6361  154.7068 C   0  0  0  0  0  0  0  0  0  0  0  0
  147.3695  136.4830  153.8155 N   0  0  0  0  0  0  0  0  0  0  0  0
  146.4144  135.5389  153.7645 C   0  0  0  0  0  0  0  0  0  0  0  0
  145.4055  135.5566  154.4673 O   0  0  0  0  0  0  0  0  0  0  0  0
  146.6447  134.5549  152.8773 N   0  0  0  0  0  0  0  0  0  0  0  0
  145.8033  133.3919  152.5865 C   0  0  1  0  0  0  0  0  0  0  0  0
  144.4833  133.7632  151.8695 C   0  0  0  0  0  0  0  0  0  0  0  0
  144.5580  132.9450  150.5673 C   0  0  2  0  0  0  0  0  0  0  0  0
  144.4113  131.4454  150.8910 C   0  0  0  0  0  0  0  0  0  0  0  0
  145.7589  131.1057  151.5582 C   0  0  0  0  0  0  0  0  0  0  0  0
  146.4852  132.4639  151.5576 C   0  0  1  0  0  0  0  0  0  0  0  0
  146.0370  133.0497  150.2217 C   0  0  0  0  0  0  0  0  0  0  0  0
  146.7167  141.9106  153.4336 H   0  0  0  0  0  0  0  0  0  0  0  0
  147.7522  143.2178  153.9940 H   0  0  0  0  0  0  0  0  0  0  0  0
  146.8150  142.2776  155.1528 H   0  0  0  0  0  0  0  0  0  0  0  0
  149.8840  137.3661  154.0360 H   0  0  0  0  0  0  0  0  0  0  0  0
  150.7246  137.8406  155.5137 H   0  0  0  0  0  0  0  0  0  0  0  0
  151.4362  138.1965  153.9379 H   0  0  0  0  0  0  0  0  0  0  0  0
  146.3844  139.4773  154.1393 H   0  0  0  0  0  0  0  0  0  0  0  0
  147.2861  138.7418  152.8504 H   0  0  0  0  0  0  0  0  0  0  0  0
  148.2299  137.6088  155.3635 H   0  0  0  0  0  0  0  0  0  0  0  0
  146.4823  137.5591  155.3515 H   0  0  0  0  0  0  0  0  0  0  0  0
  148.1636  136.3886  153.1993 H   0  0  0  0  0  0  0  0  0  0  0  0
  147.4936  134.6275  152.3351 H   0  0  0  0  0  0  0  0  0  0  0  0
  145.6137  132.8467  153.5131 H   0  0  0  0  0  0  0  0  0  0  0  0
  143.6048  133.5119  152.4652 H   0  0  0  0  0  0  0  0  0  0  0  0
  144.4344  134.8295  151.6435 H   0  0  0  0  0  0  0  0  0  0  0  0
  143.8772  133.2953  149.7909 H   0  0  0  0  0  0  0  0  0  0  0  0
  143.5609  131.2462  151.5443 H   0  0  0  0  0  0  0  0  0  0  0  0
  144.2776  130.8612  149.9797 H   0  0  0  0  0  0  0  0  0  0  0  0
  145.6374  130.6953  152.5612 H   0  0  0  0  0  0  0  0  0  0  0  0
  146.3066  130.3742  150.9627 H   0  0  0  0  0  0  0  0  0  0  0  0
  147.5648  132.3747  151.6844 H   0  0  0  0  0  0  0  0  0  0  0  0
  146.3257  132.4414  149.3625 H   0  0  0  0  0  0  0  0  0  0  0  0
  146.3729  134.0759  150.0621 H   0  0  0  0  0  0  0  0  0  0  0  0
  1  2  1  0  0  0  0
  1 21  1  0  0  0  0
  1 22  1  0  0  0  0
  1 23  1  0  0  0  0
  2  7  1  0  0  0  0
  2  3  2  0  0  0  0
  3  4  1  0  0  0  0
  4  5  1  0  0  0  0
  5  6  1  0  0  0  0
  5  7  2  0  0  0  0
  6 24  1  0  0  0  0
  6 25  1  0  0  0  0
  6 26  1  0  0  0  0
  7  8  1  0  0  0  0
  8  9  1  0  0  0  0
  8 27  1  0  0  0  0
  8 28  1  0  0  0  0
  9 10  1  0  0  0  0
  9 29  1  0  0  0  0
  9 30  1  0  0  0  0
 10 11  1  0  0  0  0
 10 31  1  0  0  0  0
 11 12  2  0  0  0  0
 11 13  1  0  0  0  0
 13 14  1  0  0  0  0
 13 32  1  0  0  0  0
 14 19  1  0  0  0  0
 14 15  1  0  0  0  0
 14 33  1  0  0  0  0
 15 16  1  0  0  0  0
 15 34  1  0  0  0  0
 15 35  1  0  0  0  0
 16 20  1  0  0  0  0
 16 17  1  0  0  0  0
 16 36  1  0  0  0  0
 17 18  1  0  0  0  0
 17 37  1  0  0  0  0
 17 38  1  0  0  0  0
 18 19  1  0  0  0  0
 18 39  1  0  0  0  0
 18 40  1  0  0  0  0
 19 20  1  0  0  0  0
 19 41  1  0  0  0  0
 20 42  1  0  0  0  0
 20 43  1  0  0  0  0
M  END
> <s_m_source_file>
AV-unprocessed.smi

> <i_m_source_file_index>
919

> <i_lp_mmshare_version>
43012

> <i_f3d_flags>
0

> <s_epik_input>
W0NIM11jMW5vYyhbQ0gzXSljMVtDSDJdW0NIMl1bTkhdQyg9TylbTkhdW0NASF0oW0NIMl1bQ0BASF0yMylbQ0BASF0oW0NIMl0zKVtDSDJdW0NIMl0y

> <s_epik_cmdline>
J2VwaWtfcHl0aG9uJywgJy1waCcsICc3LjAnLCAnLXRuJywgJzgnLCAnLW1hJywgJzIwMCcsICctbWV0YWxfYmluZGluZycsICctaW1hZScsICc8aW5maWxlLm1hZT4nLCAnLW9tYWUnLCAnPG91dGZpbGUubWFlPic=

> <r_lp_tautomer_probability>
1

> <r_epik_Ionization_Penalty>
6.40771e-05

> <r_epik_Ionization_Penalty_Charging>
0

> <r_epik_Ionization_Penalty_Neutral>
6.40771e-05

> <r_epik_State_Penalty>
-0

> <r_epik_Charging_Adjusted_Penalty>
0

> <i_epik_Tot_Q>
0

> <i_epik_Tot_abs_Q>
0

> <r_epik_Metal_State_Penalty>
-0

> <b_epik_Metal_Only>
0

> <s_lp_Force_Field>
OPLS_2005

> <r_lp_Energy>
47.296

> <b_lp_Chiralities_Consistent>
1

> <s_lp_Variant>
AV-unprocessed.smi:919-4

> <Gold.Version>
5.8.1

> <Gold.Id.Protein>
6NUR|6NUR_protein|mol2

> <Gold.PLP.Fitness>
41.4339

> <Gold.PLP.PLP>
-35.4506

> <Gold.PLP.part.hbond>
-4.8268

> <Gold.PLP.part.metal>
0.0000

> <Gold.PLP.part.buried>
-0.3655

> <Gold.PLP.part.nonpolar>
-28.6055

> <Gold.PLP.part.repulsive>
0.3276

> <Gold.PLP.ligand.clash>
0.0000

> <Gold.PLP.ligand.torsion>
0.7387

> <Gold.PLP.Chemscore.Hbond>
2.4792

> <Gold.PLP.Chemscore.CHOScore>
0.0000

> <Gold.PLP.Chemscore.Metal>
0.0000

> <Gold.Chemscore.Hbonds>
donor molecule, donor type, donor heavy atom, donor atom, acceptor molecule, acceptor atom, score
      L1  H    10    31       P1  7948  1.00
      L1  H    13    32       P1  7948  0.48
      P1  H  7989  7998       L1     4  0.99

> <Gold.PLP.Chemscore.Internal.Correction>
0.0232

> <Gold.Rescore>
     Score         DG    S(hbond)    S(metal)    S(lipo)     H(rot)  DE(clash)    DE(int)     intcor
     18.27     -19.36       2.06        0.00      93.09       1.52       0.32       0.77       ----

> <Gold.Chemscore.Fitness>
18.2693

> <Gold.Chemscore.DG>
-19.3565

> <Gold.Chemscore.ZeroCoef>
-5.4800

> <Gold.Chemscore.Hbond>
2.0559

> <Gold.Chemscore.Metal>
0.0000

> <Gold.Chemscore.Lipo>
93.0871

> <Gold.Chemscore.Internal_Hbond>
0.0000

> <Gold.Chemscore.DEClash>
0.3191

> <Gold.Chemscore.DEInternal>
0.7681

> <Gold.Chemscore.Rot>
1.5161

> <Gold.Chemscore.Internal.Correction>
   9.000000E+99

> <Gold.Chemscore.Hbonds>
donor molecule, donor type, donor heavy atom, donor atom, acceptor molecule, acceptor atom, score
      L1  H    10    31       P1  7948  0.95
      L1  H    13    32       P1  7948  0.39
      P1  H  7989  7998       L1     4  0.20

> <Gold.Chemscore.Hbond.Weighted>
-6.8666

> <Gold.Chemscore.Metal.Weighted>
-0.0000

> <Gold.Chemscore.Lipo.Weighted>
-10.8912

> <Gold.Chemscore.Internal_Hbond.Weighted>
0.0000

> <Gold.Chemscore.DEClash.Weighted>
0.3191

> <Gold.Chemscore.DEInternal.Weighted>
0.7681

> <Gold.Chemscore.Rot.Weighted>
3.8813

> <Gold.Chemscore.Internal.Correction.Weighted>
   9.000000E+99

> <Gold.Protein.RotatedTorsions>
[ 6907 6896 6895 6894 ] final -167.91 input  -60.11 | X-H torsion
[ 7974 7965 7964 7962 ] final  -86.75 input  175.53 | X-H torsion
[ 8008 7997 7996 7995 ] final -165.65 input   59.86 | X-H torsion
[ 10167 10162 10161 10158 ] final  152.66 input  -65.29 | X-H torsion
[ 10718 10713 10712 10709 ] final -111.45 input   66.30 | X-H torsion
[ 10763 10752 10751 10750 ] final  -68.75 input  -60.55 | X-H torsion
[ 11005 11000 10999 10996 ] final  -43.91 input  -57.11 | X-H torsion

> <Gold.Protein.ActiveResidues>
 VAL166  LYS551  ARG553  GLY616  TRP617  ASP618  TYR619  PRO620  LYS621  CYS622 
 ASP623  PHE694  ASN695  SER759  ASP760  ASP761  ALA762  ILE779  LEU786  VAL792 
 PHE793  MET794  SER795  GLU796  ALA797  LYS798  CYS799  TRP800  GLU811  SER814 

> <Gold.Protein.RotatedAtoms>
  151.4671  133.3578  159.2817 H   0  0  0  0  0  0  0  0  0  0  0  0  # atno 6907 bound_to 6896
  150.8986  134.8398  159.7355 H   0  0  0  0  0  0  0  0  0  0  0  0  # atno 6908 bound_to 6896
  152.4866  134.4589  159.9650 H   0  0  0  0  0  0  0  0  0  0  0  0  # atno 6909 bound_to 6896
  145.4757  140.9558  143.1892 H   0  0  0  0  0  0  0  0  0  0  0  0  # atno 7974 bound_to 7965
  155.8528  140.0965  157.1664 H   0  0  0  0  0  0  0  0  0  0  0  0  # atno 8008 bound_to 7997
  154.3986  140.1380  156.3927 H   0  0  0  0  0  0  0  0  0  0  0  0  # atno 8009 bound_to 7997
  155.7943  140.3455  155.5369 H   0  0  0  0  0  0  0  0  0  0  0  0  # atno 8010 bound_to 7997
  139.4831  144.5339  151.7677 H   0  0  0  0  0  0  0  0  0  0  0  0  # atno 10167 bound_to 10162
  156.0648  130.5868  150.8375 H   0  0  0  0  0  0  0  0  0  0  0  0  # atno 10718 bound_to 10713
  154.3935  135.6047  153.5857 H   0  0  0  0  0  0  0  0  0  0  0  0  # atno 10763 bound_to 10752
  152.9787  135.5889  154.4269 H   0  0  0  0  0  0  0  0  0  0  0  0  # atno 10764 bound_to 10752
  154.4057  135.2843  155.2047 H   0  0  0  0  0  0  0  0  0  0  0  0  # atno 10765 bound_to 10752
  141.0415  133.6778  156.2799 H   0  0  0  0  0  0  0  0  0  0  0  0  # atno 11005 bound_to 11000
  144.7918  139.6312  143.7110 LP  0  0  0  0  0  0  0  0  0  0  0  0  # atno 17320 bound_to 7965
  146.2370  139.5926  142.9517 LP  0  0  0  0  0  0  0  0  0  0  0  0  # atno 17321 bound_to 7965
  140.4869  144.1368  150.5943 LP  0  0  0  0  0  0  0  0  0  0  0  0  # atno 17342 bound_to 10162
  140.4215  143.2609  151.9709 LP  0  0  0  0  0  0  0  0  0  0  0  0  # atno 17343 bound_to 10162
  157.5682  131.0946  150.9458 LP  0  0  0  0  0  0  0  0  0  0  0  0  # atno 17370 bound_to 10713
  156.9681  130.5480  149.5289 LP  0  0  0  0  0  0  0  0  0  0  0  0  # atno 17371 bound_to 10713
  140.6225  134.5347  157.5549 LP  0  0  0  0  0  0  0  0  0  0  0  0  # atno 17394 bound_to 11000
  139.9280  134.8019  156.1013 LP  0  0  0  0  0  0  0  0  0  0  0  0  # atno 17395 bound_to 11000

$$$$
