AV-unprocessed.smi:396|AV-procd|sdf|2487|dock4
  -GOLD-   2262022433D 1   1.00000     0.00000
 Structure written by MMmdl.
 40 42  0  0  0  0  0  0  0  0  1 V2000
  151.8411  136.6019  154.6241 N   0  0  0  0  0  0  0  0  0  0  0  0
  151.0821  137.4721  154.5431 C   0  0  0  0  0  0  0  0  0  0  0  0
  150.1691  138.5629  154.4542 C   0  0  0  0  0  0  0  0  0  0  0  0
  148.9350  138.4159  153.9300 C   0  0  0  0  0  0  0  0  0  0  0  0
  148.0360  139.4568  153.8482 N   0  0  0  0  0  0  0  0  0  0  0  0
  146.7809  139.3118  153.1662 C   0  0  0  0  0  0  0  0  0  0  0  0
  146.2804  137.9359  152.7711 C   0  0  0  0  0  0  0  0  0  0  0  0
  146.7797  138.8890  151.7132 C   0  0  0  0  0  0  0  0  0  0  0  0
  148.4184  140.7579  154.2413 C   0  0  0  0  0  0  0  0  0  0  0  0
  147.6562  141.7176  154.0995 O   0  0  0  0  0  0  0  0  0  0  0  0
  149.7063  140.9280  154.8050 N   0  0  0  0  0  0  0  0  0  0  0  0
  150.0950  142.2716  155.2872 C   0  0  0  0  0  0  0  0  0  0  0  0
  150.6071  142.2758  156.7356 C   0  0  0  0  0  0  0  0  0  0  0  0
  150.4615  141.2937  157.4655 O   0  0  0  0  0  0  0  0  0  0  0  0
  151.2183  143.4007  157.1360 N   0  0  0  0  0  0  0  0  0  0  0  0
  151.7820  143.6190  158.4654 C   0  0  0  0  0  0  0  0  0  0  0  0
  150.6748  143.5947  159.5349 C   0  0  0  0  0  0  0  0  0  0  0  0
  150.5128  145.0404  160.0056 C   0  0  0  0  0  0  0  0  0  0  0  0
  151.9090  145.6368  159.8596 C   0  0  0  0  0  0  0  0  0  0  0  0
  152.4583  145.0013  158.5813 C   0  0  0  0  0  0  0  0  0  0  0  0
  150.6253  139.8579  154.9541 C   0  0  0  0  0  0  0  0  0  0  0  0
  151.7280  140.0351  155.4748 O   0  0  0  0  0  0  0  0  0  0  0  0
  148.6335  137.4436  153.5677 H   0  0  0  0  0  0  0  0  0  0  0  0
  146.0140  140.0306  153.4493 H   0  0  0  0  0  0  0  0  0  0  0  0
  146.9063  137.0748  152.9982 H   0  0  0  0  0  0  0  0  0  0  0  0
  145.2084  137.7590  152.8251 H   0  0  0  0  0  0  0  0  0  0  0  0
  146.0404  139.3468  151.0592 H   0  0  0  0  0  0  0  0  0  0  0  0
  147.7343  138.6561  151.2452 H   0  0  0  0  0  0  0  0  0  0  0  0
  150.8637  142.7125  154.6506 H   0  0  0  0  0  0  0  0  0  0  0  0
  149.2590  142.9688  155.2101 H   0  0  0  0  0  0  0  0  0  0  0  0
  151.2983  144.1600  156.4752 H   0  0  0  0  0  0  0  0  0  0  0  0
  152.5008  142.8274  158.6860 H   0  0  0  0  0  0  0  0  0  0  0  0
  149.7349  143.1712  159.1781 H   0  0  0  0  0  0  0  0  0  0  0  0
  151.0022  142.9807  160.3752 H   0  0  0  0  0  0  0  0  0  0  0  0
  149.8179  145.5662  159.3492 H   0  0  0  0  0  0  0  0  0  0  0  0
  150.1295  145.1102  161.0239 H   0  0  0  0  0  0  0  0  0  0  0  0
  151.8996  146.7263  159.8164 H   0  0  0  0  0  0  0  0  0  0  0  0
  152.5242  145.3417  160.7107 H   0  0  0  0  0  0  0  0  0  0  0  0
  153.5459  144.9259  158.5985 H   0  0  0  0  0  0  0  0  0  0  0  0
  152.1939  145.6323  157.7308 H   0  0  0  0  0  0  0  0  0  0  0  0
  1  2  3  0  0  0  0
  2  3  1  0  0  0  0
  3 21  1  0  0  0  0
  3  4  2  0  0  0  0
  4  5  1  0  0  0  0
  4 23  1  0  0  0  0
  5  6  1  0  0  0  0
  5  9  1  0  0  0  0
  6  8  1  0  0  0  0
  6  7  1  0  0  0  0
  6 24  1  0  0  0  0
  7  8  1  0  0  0  0
  7 25  1  0  0  0  0
  7 26  1  0  0  0  0
  8 27  1  0  0  0  0
  8 28  1  0  0  0  0
  9 10  2  0  0  0  0
  9 11  1  0  0  0  0
 11 12  1  0  0  0  0
 11 21  1  0  0  0  0
 12 13  1  0  0  0  0
 12 29  1  0  0  0  0
 12 30  1  0  0  0  0
 13 14  2  0  0  0  0
 13 15  1  0  0  0  0
 15 16  1  0  0  0  0
 15 31  1  0  0  0  0
 16 20  1  0  0  0  0
 16 17  1  0  0  0  0
 16 32  1  0  0  0  0
 17 18  1  0  0  0  0
 17 33  1  0  0  0  0
 17 34  1  0  0  0  0
 18 19  1  0  0  0  0
 18 35  1  0  0  0  0
 18 36  1  0  0  0  0
 19 20  1  0  0  0  0
 19 37  1  0  0  0  0
 19 38  1  0  0  0  0
 20 39  1  0  0  0  0
 20 40  1  0  0  0  0
 21 22  2  0  0  0  0
M  END
> <s_m_source_file>
AV-unprocessed.smi

> <i_m_source_file_index>
396

> <i_lp_mmshare_version>
43012

> <i_f3d_flags>
0

> <s_epik_input>
TiNDYzFbY0hdbihbQ0hdMltDSDJdW0NIMl0yKWMoPU8pbihjMT1PKVtDSDJdQyg9TylbTkhdW0NIXTNbQ0gyXVtDSDJdW0NIMl1bQ0gyXTM=

> <s_epik_cmdline>
J2VwaWtfcHl0aG9uJywgJy1waCcsICc3LjAnLCAnLXRuJywgJzgnLCAnLW1hJywgJzIwMCcsICctbWV0YWxfYmluZGluZycsICctaW1hZScsICc8aW5maWxlLm1hZT4nLCAnLW9tYWUnLCAnPG91dGZpbGUubWFlPic=

> <r_lp_tautomer_probability>
1

> <r_epik_Ionization_Penalty>
1.93885e-08

> <r_epik_Ionization_Penalty_Charging>
8.67893e-11

> <r_epik_Ionization_Penalty_Neutral>
1.93017e-08

> <r_epik_State_Penalty>
-0

> <r_epik_Charging_Adjusted_Penalty>
8.67893e-11

> <i_epik_Tot_Q>
0

> <i_epik_Tot_abs_Q>
0

> <r_epik_Metal_State_Penalty>
-0

> <b_epik_Metal_Only>
0

> <s_lp_Force_Field>
OPLS_2005

> <r_lp_Energy>
43.3866

> <b_lp_Chiralities_Consistent>
1

> <s_lp_Variant>
AV-unprocessed.smi:396-1

> <Gold.Version>
5.8.1

> <Gold.Id.Protein>
6NUR|6NUR_protein|mol2

> <Gold.PLP.Fitness>
49.0836

> <Gold.PLP.PLP>
-43.5255

> <Gold.PLP.part.hbond>
-2.5250

> <Gold.PLP.part.metal>
0.0000

> <Gold.PLP.part.buried>
2.6445

> <Gold.PLP.part.nonpolar>
-44.3308

> <Gold.PLP.part.repulsive>
0.3607

> <Gold.PLP.ligand.clash>
0.0000

> <Gold.PLP.ligand.torsion>
0.3210

> <Gold.PLP.Chemscore.Hbond>
1.0000

> <Gold.PLP.Chemscore.CHOScore>
1.0000

> <Gold.PLP.Chemscore.Metal>
0.0000

> <Gold.Chemscore.Hbonds>
donor molecule, donor type, donor heavy atom, donor atom, acceptor molecule, acceptor atom, score
      P1  H 10752 10763       L1     1  0.93
      L1  C     4    23       P1  7948  1.00

> <Gold.PLP.Chemscore.Internal.Correction>
0.2002

> <Gold.Rescore>
     Score         DG    S(hbond)    S(metal)    S(lipo)     H(rot)  DE(clash)    DE(int)     intcor
      9.80     -15.65       0.99        0.00      97.26       1.76       1.39       4.46       ----

> <Gold.Chemscore.Fitness>
9.7982

> <Gold.Chemscore.DG>
-15.6486

> <Gold.Chemscore.ZeroCoef>
-5.4800

> <Gold.Chemscore.Hbond>
0.9885

> <Gold.Chemscore.Metal>
0.0000

> <Gold.Chemscore.Lipo>
97.2603

> <Gold.Chemscore.Internal_Hbond>
0.0000

> <Gold.Chemscore.DEClash>
1.3935

> <Gold.Chemscore.DEInternal>
4.4568

> <Gold.Chemscore.Rot>
1.7627

> <Gold.Chemscore.Internal.Correction>
   9.000000E+99

> <Gold.Chemscore.Hbonds>
donor molecule, donor type, donor heavy atom, donor atom, acceptor molecule, acceptor atom, score
      P1  H 10752 10763       L1     1  0.86

> <Gold.Chemscore.Hbond.Weighted>
-3.3017

> <Gold.Chemscore.Metal.Weighted>
-0.0000

> <Gold.Chemscore.Lipo.Weighted>
-11.3795

> <Gold.Chemscore.Internal_Hbond.Weighted>
0.0000

> <Gold.Chemscore.DEClash.Weighted>
1.3935

> <Gold.Chemscore.DEInternal.Weighted>
4.4568

> <Gold.Chemscore.Rot.Weighted>
4.5126

> <Gold.Chemscore.Internal.Correction.Weighted>
   9.000000E+99

> <Gold.Protein.RotatedTorsions>
[ 6907 6896 6895 6894 ] final   84.61 input  -60.11 | X-H torsion
[ 7974 7965 7964 7962 ] final  -85.36 input  175.53 | X-H torsion
[ 8008 7997 7996 7995 ] final  112.52 input   59.86 | X-H torsion
[ 10167 10162 10161 10158 ] final   67.11 input  -65.29 | X-H torsion
[ 10718 10713 10712 10709 ] final  154.46 input   66.30 | X-H torsion
[ 10763 10752 10751 10750 ] final   36.98 input  -60.55 | X-H torsion
[ 11005 11000 10999 10996 ] final -116.60 input  -57.11 | X-H torsion

> <Gold.Protein.ActiveResidues>
 VAL166  LYS551  ARG553  GLY616  TRP617  ASP618  TYR619  PRO620  LYS621  CYS622 
 ASP623  PHE694  ASN695  SER759  ASP760  ASP761  ALA762  ILE779  LEU786  VAL792 
 PHE793  MET794  SER795  GLU796  ALA797  LYS798  CYS799  TRP800  GLU811  SER814 

> <Gold.Protein.RotatedAtoms>
  152.5356  134.2714  159.8972 H   0  0  0  0  0  0  0  0  0  0  0  0  # atno 6907 bound_to 6896
  151.2670  133.4267  159.2627 H   0  0  0  0  0  0  0  0  0  0  0  0  # atno 6908 bound_to 6896
  151.0401  134.9616  159.8214 H   0  0  0  0  0  0  0  0  0  0  0  0  # atno 6909 bound_to 6896
  145.4942  140.9551  143.1795 H   0  0  0  0  0  0  0  0  0  0  0  0  # atno 7974 bound_to 7965
  156.2198  140.2998  155.9924 H   0  0  0  0  0  0  0  0  0  0  0  0  # atno 8008 bound_to 7997
  155.2512  140.0426  157.3004 H   0  0  0  0  0  0  0  0  0  0  0  0  # atno 8009 bound_to 7997
  154.5822  140.2378  155.8045 H   0  0  0  0  0  0  0  0  0  0  0  0  # atno 8010 bound_to 7997
  140.0931  144.4970  150.7085 H   0  0  0  0  0  0  0  0  0  0  0  0  # atno 10167 bound_to 10162
  157.2314  131.0740  151.1851 H   0  0  0  0  0  0  0  0  0  0  0  0  # atno 10718 bound_to 10713
  153.0055  135.6291  154.2071 H   0  0  0  0  0  0  0  0  0  0  0  0  # atno 10763 bound_to 10752
  154.1814  135.2813  155.3052 H   0  0  0  0  0  0  0  0  0  0  0  0  # atno 10764 bound_to 10752
  154.5831  135.5641  153.7264 H   0  0  0  0  0  0  0  0  0  0  0  0  # atno 10765 bound_to 10752
  141.0411  133.9834  157.2992 H   0  0  0  0  0  0  0  0  0  0  0  0  # atno 11005 bound_to 11000
  144.7816  139.6513  143.7152 LP  0  0  0  0  0  0  0  0  0  0  0  0  # atno 17320 bound_to 7965
  146.2265  139.5733  142.9583 LP  0  0  0  0  0  0  0  0  0  0  0  0  # atno 17321 bound_to 7965
  140.7018  143.2440  151.4843 LP  0  0  0  0  0  0  0  0  0  0  0  0  # atno 17342 bound_to 10162
  139.5713  144.1922  152.1840 LP  0  0  0  0  0  0  0  0  0  0  0  0  # atno 17343 bound_to 10162
  157.3474  130.7065  149.6419 LP  0  0  0  0  0  0  0  0  0  0  0  0  # atno 17370 bound_to 10713
  155.9675  130.4262  150.4689 LP  0  0  0  0  0  0  0  0  0  0  0  0  # atno 17371 bound_to 10713
  139.9277  135.0201  156.8291 LP  0  0  0  0  0  0  0  0  0  0  0  0  # atno 17394 bound_to 11000
  140.6232  133.9974  155.7628 LP  0  0  0  0  0  0  0  0  0  0  0  0  # atno 17395 bound_to 11000

$$$$
