AV-unprocessed.smi:1413|AV-procd|sdf|5752|dock3
  -GOLD-   22720 5393D 1   1.00000     0.00000
 Structure written by MMmdl.
 53 55  0  0  0  0  0  0  0  0  1 V2000
  151.8147  145.1627  158.2930 C   0  0  0  0  0  0  0  0  0  0  0  0
  152.1282  143.6631  158.2693 C   0  0  2  0  0  0  0  0  0  0  0  0
  151.1580  142.8881  157.3591 C   0  0  0  0  0  0  0  0  0  0  0  0
  151.4206  141.4591  157.4521 N   0  0  0  0  0  0  0  0  0  0  0  0
  150.6877  140.7009  156.5282 C   0  0  0  0  0  0  0  0  0  0  0  0
  151.3649  139.7589  155.7272 C   0  0  0  0  0  0  0  0  0  0  0  0
  150.6235  138.9991  154.8029 C   0  0  0  0  0  0  0  0  0  0  0  0
  149.2343  139.2106  154.6963 C   0  0  0  0  0  0  0  0  0  0  0  0
  148.5053  138.4146  153.7726 N   0  0  0  0  0  0  0  0  0  0  0  0
  147.1849  138.4270  153.5234 C   0  0  0  0  0  0  0  0  0  0  0  0
  146.3719  139.1879  154.0474 O   0  0  0  0  0  0  0  0  0  0  0  0
  146.8614  137.5115  152.5985 N   0  0  0  0  0  0  0  0  0  0  0  0
  145.5287  137.2915  152.0409 C   0  0  2  0  0  0  0  0  0  0  0  0
  144.5187  137.1930  153.1946 C   0  0  0  0  0  0  0  0  0  0  0  0
  145.5469  136.0235  151.1646 C   0  0  1  0  0  0  0  0  0  0  0  0
  146.0037  134.7507  151.8844 C   0  0  0  0  0  0  0  0  0  0  0  0
  145.2463  133.6307  151.1832 C   0  0  0  0  0  0  0  0  0  0  0  0
  144.2902  134.3593  150.2384 C   0  0  0  0  0  0  0  0  0  0  0  0
  144.2332  135.6814  150.7485 O   0  0  0  0  0  0  0  0  0  0  0  0
  148.6464  140.1748  155.5504 C   0  0  0  0  0  0  0  0  0  0  0  0
  149.3517  140.9036  156.4420 N   0  0  0  0  0  0  0  0  0  0  0  0
  151.3331  140.9682  158.8221 C   0  0  0  0  0  0  0  0  0  0  0  0
  152.2722  141.7661  159.7486 C   0  0  1  0  0  0  0  0  0  0  0  0
  153.7595  141.4153  159.5647 C   0  0  0  0  0  0  0  0  0  0  0  0
  152.0280  143.1684  159.6056 O   0  0  0  0  0  0  0  0  0  0  0  0
  151.8865  145.5945  157.2944 H   0  0  0  0  0  0  0  0  0  0  0  0
  152.5139  145.6969  158.9368 H   0  0  0  0  0  0  0  0  0  0  0  0
  150.8076  145.3492  158.6672 H   0  0  0  0  0  0  0  0  0  0  0  0
  153.1489  143.5368  157.9075 H   0  0  0  0  0  0  0  0  0  0  0  0
  150.1266  143.0900  157.6528 H   0  0  0  0  0  0  0  0  0  0  0  0
  151.2695  143.2174  156.3251 H   0  0  0  0  0  0  0  0  0  0  0  0
  152.4316  139.6169  155.8211 H   0  0  0  0  0  0  0  0  0  0  0  0
  151.1190  138.2663  154.1827 H   0  0  0  0  0  0  0  0  0  0  0  0
  149.0611  137.8024  153.1935 H   0  0  0  0  0  0  0  0  0  0  0  0
  147.6035  136.9384  152.2251 H   0  0  0  0  0  0  0  0  0  0  0  0
  145.2366  138.1374  151.4162 H   0  0  0  0  0  0  0  0  0  0  0  0
  143.5020  137.0669  152.8224 H   0  0  0  0  0  0  0  0  0  0  0  0
  144.5309  138.0973  153.8039 H   0  0  0  0  0  0  0  0  0  0  0  0
  144.7410  136.3483  153.8476 H   0  0  0  0  0  0  0  0  0  0  0  0
  146.1618  136.1843  150.2764 H   0  0  0  0  0  0  0  0  0  0  0  0
  147.0852  134.6187  151.8388 H   0  0  0  0  0  0  0  0  0  0  0  0
  145.7151  134.7796  152.9360 H   0  0  0  0  0  0  0  0  0  0  0  0
  145.9108  132.9617  150.6357 H   0  0  0  0  0  0  0  0  0  0  0  0
  144.6956  133.0347  151.9117 H   0  0  0  0  0  0  0  0  0  0  0  0
  144.6927  134.3828  149.2246 H   0  0  0  0  0  0  0  0  0  0  0  0
  143.3014  133.9017  150.2031 H   0  0  0  0  0  0  0  0  0  0  0  0
  147.5844  140.3651  155.5511 H   0  0  0  0  0  0  0  0  0  0  0  0
  150.3060  141.0695  159.1756 H   0  0  0  0  0  0  0  0  0  0  0  0
  151.5784  139.9059  158.8556 H   0  0  0  0  0  0  0  0  0  0  0  0
  152.0144  141.5157  160.7781 H   0  0  0  0  0  0  0  0  0  0  0  0
  153.9403  140.3668  159.8033 H   0  0  0  0  0  0  0  0  0  0  0  0
  154.3852  142.0165  160.2248 H   0  0  0  0  0  0  0  0  0  0  0  0
  154.0994  141.5767  158.5420 H   0  0  0  0  0  0  0  0  0  0  0  0
  1  2  1  0  0  0  0
  1 26  1  0  0  0  0
  1 27  1  0  0  0  0
  1 28  1  0  0  0  0
  2 25  1  0  0  0  0
  2  3  1  0  0  0  0
  2 29  1  0  0  0  0
  3  4  1  0  0  0  0
  3 30  1  0  0  0  0
  3 31  1  0  0  0  0
  4  5  1  0  0  0  0
  4 22  1  0  0  0  0
  5 21  1  0  0  0  0
  5  6  2  0  0  0  0
  6  7  1  0  0  0  0
  6 32  1  0  0  0  0
  7  8  2  0  0  0  0
  7 33  1  0  0  0  0
  8  9  1  0  0  0  0
  8 20  1  0  0  0  0
  9 10  1  0  0  0  0
  9 34  1  0  0  0  0
 10 11  2  0  0  0  0
 10 12  1  0  0  0  0
 12 13  1  0  0  0  0
 12 35  1  0  0  0  0
 13 14  1  0  0  0  0
 13 15  1  0  0  0  0
 13 36  1  0  0  0  0
 14 37  1  0  0  0  0
 14 38  1  0  0  0  0
 14 39  1  0  0  0  0
 15 19  1  0  0  0  0
 15 16  1  0  0  0  0
 15 40  1  0  0  0  0
 16 17  1  0  0  0  0
 16 41  1  0  0  0  0
 16 42  1  0  0  0  0
 17 18  1  0  0  0  0
 17 43  1  0  0  0  0
 17 44  1  0  0  0  0
 18 19  1  0  0  0  0
 18 45  1  0  0  0  0
 18 46  1  0  0  0  0
 20 21  2  0  0  0  0
 20 47  1  0  0  0  0
 22 23  1  0  0  0  0
 22 48  1  0  0  0  0
 22 49  1  0  0  0  0
 23 24  1  0  0  0  0
 23 25  1  0  0  0  0
 23 50  1  0  0  0  0
 24 51  1  0  0  0  0
 24 52  1  0  0  0  0
 24 53  1  0  0  0  0
M  END
> <s_m_source_file>
AV-unprocessed.smi

> <i_m_source_file_index>
1413

> <i_lp_mmshare_version>
43012

> <i_f3d_flags>
0

> <s_epik_input>
W0NIM11bQ0BASF0xW0NIMl1OKFtDSDJdW0NASF0oTzEpW0NIM10pYzJbY0hdW2NIXWMoW2NIXW4yKVtOSF1DKD1PKVtOSF1bQ0BIXShbQ0gzXSlbQ0BASF0zW0NIMl1bQ0gyXVtDSDJdTzM=

> <s_epik_cmdline>
J2VwaWtfcHl0aG9uJywgJy1waCcsICc3LjAnLCAnLXRuJywgJzgnLCAnLW1hJywgJzIwMCcsICctbWV0YWxfYmluZGluZycsICctaW1hZScsICc8aW5maWxlLm1hZT4nLCAnLW9tYWUnLCAnPG91dGZpbGUubWFlPic=

> <r_lp_tautomer_probability>
1

> <r_epik_Ionization_Penalty>
0.00271172

> <r_epik_Ionization_Penalty_Charging>
0

> <r_epik_Ionization_Penalty_Neutral>
0.00271172

> <r_epik_State_Penalty>
0.00186503

> <r_epik_Charging_Adjusted_Penalty>
0.00186503

> <i_epik_Tot_Q>
0

> <i_epik_Tot_abs_Q>
0

> <r_epik_Metal_State_Penalty>
-0

> <b_epik_Metal_Only>
0

> <s_lp_Force_Field>
OPLS_2005

> <r_lp_Energy>
38.8739

> <b_lp_Chiralities_Consistent>
1

> <s_lp_Variant>
AV-unprocessed.smi:1413-5

> <Gold.Version>
5.8.1

> <Gold.Id.Protein>
6NUR|6NUR_protein|mol2

> <Gold.PLP.Fitness>
47.3947

> <Gold.PLP.PLP>
-42.6773

> <Gold.PLP.part.hbond>
-2.2419

> <Gold.PLP.part.metal>
0.0000

> <Gold.PLP.part.buried>
-6.1607

> <Gold.PLP.part.nonpolar>
-36.1113

> <Gold.PLP.part.repulsive>
0.8621

> <Gold.PLP.ligand.clash>
0.0000

> <Gold.PLP.ligand.torsion>
0.4982

> <Gold.PLP.Chemscore.Hbond>
1.8636

> <Gold.PLP.Chemscore.CHOScore>
0.0000

> <Gold.PLP.Chemscore.Metal>
0.0000

> <Gold.Chemscore.Hbonds>
donor molecule, donor type, donor heavy atom, donor atom, acceptor molecule, acceptor atom, score
      L1  H     9    34       P1  7948  0.89
      L1  H    12    35       P1  7948  1.00

> <Gold.PLP.Chemscore.Internal.Correction>
0.1231

> <Gold.Rescore>
     Score         DG    S(hbond)    S(metal)    S(lipo)     H(rot)  DE(clash)    DE(int)     intcor
     17.93     -22.26       1.88        0.00     119.13       1.35       1.61       2.71       ----

> <Gold.Chemscore.Fitness>
17.9312

> <Gold.Chemscore.DG>
-22.2586

> <Gold.Chemscore.ZeroCoef>
-5.4800

> <Gold.Chemscore.Hbond>
1.8829

> <Gold.Chemscore.Metal>
0.0000

> <Gold.Chemscore.Lipo>
119.1305

> <Gold.Chemscore.Internal_Hbond>
0.0000

> <Gold.Chemscore.DEClash>
1.6140

> <Gold.Chemscore.DEInternal>
2.7134

> <Gold.Chemscore.Rot>
1.3471

> <Gold.Chemscore.Internal.Correction>
   9.000000E+99

> <Gold.Chemscore.Hbonds>
donor molecule, donor type, donor heavy atom, donor atom, acceptor molecule, acceptor atom, score
      L1  H     9    34       P1  7948  0.81
      L1  H    12    35       P1  7948  0.95

> <Gold.Chemscore.Hbond.Weighted>
-6.2888

> <Gold.Chemscore.Metal.Weighted>
-0.0000

> <Gold.Chemscore.Lipo.Weighted>
-13.9383

> <Gold.Chemscore.Internal_Hbond.Weighted>
0.0000

> <Gold.Chemscore.DEClash.Weighted>
1.6140

> <Gold.Chemscore.DEInternal.Weighted>
2.7134

> <Gold.Chemscore.Rot.Weighted>
3.4485

> <Gold.Chemscore.Internal.Correction.Weighted>
   9.000000E+99

> <Gold.Protein.RotatedTorsions>
[ 6907 6896 6895 6894 ] final   85.51 input  -60.11 | X-H torsion
[ 7974 7965 7964 7962 ] final -129.70 input  175.53 | X-H torsion
[ 8008 7997 7996 7995 ] final -143.01 input   59.86 | X-H torsion
[ 10167 10162 10161 10158 ] final  -22.16 input  -65.29 | X-H torsion
[ 10718 10713 10712 10709 ] final   42.08 input   66.30 | X-H torsion
[ 10763 10752 10751 10750 ] final  -55.55 input  -60.55 | X-H torsion
[ 11005 11000 10999 10996 ] final -177.50 input  -57.11 | X-H torsion

> <Gold.Protein.ActiveResidues>
 VAL166  LYS551  ARG553  GLY616  TRP617  ASP618  TYR619  PRO620  LYS621  CYS622 
 ASP623  PHE694  ASN695  SER759  ASP760  ASP761  ALA762  ILE779  LEU786  VAL792 
 PHE793  MET794  SER795  GLU796  ALA797  LYS798  CYS799  TRP800  GLU811  SER814 

> <Gold.Protein.RotatedAtoms>
  152.5376  134.2576  159.8922 H   0  0  0  0  0  0  0  0  0  0  0  0  # atno 6907 bound_to 6896
  151.2537  133.4330  159.2620 H   0  0  0  0  0  0  0  0  0  0  0  0  # atno 6908 bound_to 6896
  151.0516  134.9691  159.8271 H   0  0  0  0  0  0  0  0  0  0  0  0  # atno 6909 bound_to 6896
  144.9546  140.7382  143.4766 H   0  0  0  0  0  0  0  0  0  0  0  0  # atno 7974 bound_to 7965
  155.5037  140.0577  157.2935 H   0  0  0  0  0  0  0  0  0  0  0  0  # atno 8008 bound_to 7997
  154.4578  140.1981  156.0280 H   0  0  0  0  0  0  0  0  0  0  0  0  # atno 8009 bound_to 7997
  156.0832  140.3244  155.7724 H   0  0  0  0  0  0  0  0  0  0  0  0  # atno 8010 bound_to 7997
  140.7285  143.4560  151.0447 H   0  0  0  0  0  0  0  0  0  0  0  0  # atno 10167 bound_to 10162
  157.4008  130.7859  149.7347 H   0  0  0  0  0  0  0  0  0  0  0  0  # atno 10718 bound_to 10713
  154.1926  135.6424  153.5064 H   0  0  0  0  0  0  0  0  0  0  0  0  # atno 10763 bound_to 10752
  153.0031  135.5432  154.6399 H   0  0  0  0  0  0  0  0  0  0  0  0  # atno 10764 bound_to 10752
  154.5791  135.2923  155.0723 H   0  0  0  0  0  0  0  0  0  0  0  0  # atno 10765 bound_to 10752
  140.4402  134.6439  157.4754 H   0  0  0  0  0  0  0  0  0  0  0  0  # atno 11005 bound_to 11000
  145.2791  139.1925  143.4800 LP  0  0  0  0  0  0  0  0  0  0  0  0  # atno 17320 bound_to 7965
  146.3333  140.2750  142.8607 LP  0  0  0  0  0  0  0  0  0  0  0  0  # atno 17321 bound_to 7965
  139.8240  143.7780  152.3178 LP  0  0  0  0  0  0  0  0  0  0  0  0  # atno 17342 bound_to 10162
  139.7873  144.7423  151.0004 LP  0  0  0  0  0  0  0  0  0  0  0  0  # atno 17343 bound_to 10162
  155.9823  130.4011  150.3425 LP  0  0  0  0  0  0  0  0  0  0  0  0  # atno 17370 bound_to 10713
  157.1553  131.0331  151.2866 LP  0  0  0  0  0  0  0  0  0  0  0  0  # atno 17371 bound_to 10713
  140.0075  134.6741  155.9432 LP  0  0  0  0  0  0  0  0  0  0  0  0  # atno 17394 bound_to 11000
  141.1709  133.6537  156.4647 LP  0  0  0  0  0  0  0  0  0  0  0  0  # atno 17395 bound_to 11000

$$$$
