AV-unprocessed.smi:151|AV-procd|sdf|1245|dock9
  -GOLD-   2262018463D 1   1.00000     0.00000
 Structure written by MMmdl.
 56 59  0  0  0  0  0  0  0  0  1 V2000
  146.7683  137.5400  156.0660 C   0  0  0  0  0  0  0  0  0  0  0  0
  145.6412  137.2882  157.0769 C   0  0  0  0  0  0  0  0  0  0  0  0
  144.5830  138.4211  157.1469 C   0  0  1  0  0  0  0  0  0  0  0  0
  145.1702  139.6884  157.8084 C   0  0  0  0  0  0  0  0  0  0  0  0
  144.2262  140.7562  157.8152 O   0  0  0  0  0  0  0  0  0  0  0  0
  143.7217  141.1340  156.5332 C   0  0  0  0  0  0  0  0  0  0  0  0
  142.6280  142.1762  156.8133 C   0  0  0  0  0  0  0  0  0  0  0  0
  144.8221  141.7729  155.6591 C   0  0  0  0  0  0  0  0  0  0  0  0
  143.1024  139.8878  155.8692 C   0  0  0  0  0  0  0  0  0  0  0  0
  144.0532  138.7809  155.8265 N   0  0  0  0  0  0  0  0  0  0  0  0
  143.5868  137.7514  155.0841 C   0  0  0  0  0  0  0  0  0  0  0  0
  142.4696  137.0814  155.4719 N   0  0  0  0  0  0  0  0  0  0  0  0
  142.0271  136.0511  154.7451 C   0  0  0  0  0  0  0  0  0  0  0  0
  142.5429  135.5352  153.6272 N   0  0  0  0  0  0  0  0  0  0  0  0
  143.6669  136.2055  153.2392 C   0  0  0  0  0  0  0  0  0  0  0  0
  144.2490  137.3195  153.9058 C   0  0  0  0  0  0  0  0  0  0  0  0
  145.3849  137.7434  153.2299 N   0  0  0  0  0  0  0  0  0  0  0  0
  145.4722  136.9238  152.2176 C   0  0  0  0  0  0  0  0  0  0  0  0
  144.4845  135.9656  152.1459 N   0  0  0  0  0  0  0  0  0  0  0  0
  144.3532  134.9475  151.1411 C   0  0  0  0  0  0  0  0  0  0  0  0
  143.7752  133.5723  151.4814 C   0  0  0  0  0  0  0  0  0  0  0  0
  144.7918  132.8943  150.5352 C   0  0  0  0  0  0  0  0  0  0  0  0
  145.5385  131.6949  151.1388 C   0  0  0  0  0  0  0  0  0  0  0  0
  146.5550  131.2323  150.2728 O   0  0  0  0  0  0  0  0  0  0  0  0
  144.2762  132.4600  149.1459 C   0  0  0  0  0  0  0  0  0  0  0  0
  143.0015  131.8510  149.1945 O   0  0  0  0  0  0  0  0  0  0  0  0
  145.5801  134.2232  150.5806 C   0  0  0  0  0  0  0  0  0  0  0  0
  147.5283  136.7617  156.1378 H   0  0  0  0  0  0  0  0  0  0  0  0
  147.2567  138.4967  156.2516 H   0  0  0  0  0  0  0  0  0  0  0  0
  146.4020  137.5387  155.0398 H   0  0  0  0  0  0  0  0  0  0  0  0
  145.1527  136.3399  156.8489 H   0  0  0  0  0  0  0  0  0  0  0  0
  146.1160  137.1551  158.0490 H   0  0  0  0  0  0  0  0  0  0  0  0
  143.7456  138.0759  157.7555 H   0  0  0  0  0  0  0  0  0  0  0  0
  145.4328  139.4883  158.8465 H   0  0  0  0  0  0  0  0  0  0  0  0
  146.0915  139.9979  157.3145 H   0  0  0  0  0  0  0  0  0  0  0  0
  142.1572  142.5157  155.8901 H   0  0  0  0  0  0  0  0  0  0  0  0
  143.0377  143.0518  157.3182 H   0  0  0  0  0  0  0  0  0  0  0  0
  141.8452  141.7664  157.4524 H   0  0  0  0  0  0  0  0  0  0  0  0
  144.4038  142.1622  154.7304 H   0  0  0  0  0  0  0  0  0  0  0  0
  145.5997  141.0619  155.3810 H   0  0  0  0  0  0  0  0  0  0  0  0
  145.3026  142.6030  156.1775 H   0  0  0  0  0  0  0  0  0  0  0  0
  142.2205  139.5761  156.4312 H   0  0  0  0  0  0  0  0  0  0  0  0
  142.7647  140.1305  154.8603 H   0  0  0  0  0  0  0  0  0  0  0  0
  141.1342  135.5681  155.1135 H   0  0  0  0  0  0  0  0  0  0  0  0
  146.2688  136.9968  151.4912 H   0  0  0  0  0  0  0  0  0  0  0  0
  143.7838  135.3932  150.3242 H   0  0  0  0  0  0  0  0  0  0  0  0
  143.9230  133.2985  152.5268 H   0  0  0  0  0  0  0  0  0  0  0  0
  142.7314  133.4444  151.1935 H   0  0  0  0  0  0  0  0  0  0  0  0
  145.9829  131.9486  152.1018 H   0  0  0  0  0  0  0  0  0  0  0  0
  144.8563  130.8640  151.3228 H   0  0  0  0  0  0  0  0  0  0  0  0
  147.3806  131.5898  150.5626 H   0  0  0  0  0  0  0  0  0  0  0  0
  144.2094  133.3166  148.4742 H   0  0  0  0  0  0  0  0  0  0  0  0
  144.9586  131.7497  148.6784 H   0  0  0  0  0  0  0  0  0  0  0  0
  142.3512  132.5261  149.3153 H   0  0  0  0  0  0  0  0  0  0  0  0
  145.9086  134.5934  149.6088 H   0  0  0  0  0  0  0  0  0  0  0  0
  146.4155  134.1997  151.2811 H   0  0  0  0  0  0  0  0  0  0  0  0
  1  2  1  0  0  0  0
  1 28  1  0  0  0  0
  1 29  1  0  0  0  0
  1 30  1  0  0  0  0
  2  3  1  0  0  0  0
  2 31  1  0  0  0  0
  2 32  1  0  0  0  0
  3 10  1  0  0  0  0
  3  4  1  0  0  0  0
  3 33  1  0  0  0  0
  4  5  1  0  0  0  0
  4 34  1  0  0  0  0
  4 35  1  0  0  0  0
  5  6  1  0  0  0  0
  6  7  1  0  0  0  0
  6  8  1  0  0  0  0
  6  9  1  0  0  0  0
  7 36  1  0  0  0  0
  7 37  1  0  0  0  0
  7 38  1  0  0  0  0
  8 39  1  0  0  0  0
  8 40  1  0  0  0  0
  8 41  1  0  0  0  0
  9 10  1  0  0  0  0
  9 42  1  0  0  0  0
  9 43  1  0  0  0  0
 10 11  1  0  0  0  0
 11 16  1  0  0  0  0
 11 12  2  0  0  0  0
 12 13  1  0  0  0  0
 13 14  2  0  0  0  0
 13 44  1  0  0  0  0
 14 15  1  0  0  0  0
 15 19  1  0  0  0  0
 15 16  2  0  0  0  0
 16 17  1  0  0  0  0
 17 18  2  0  0  0  0
 18 19  1  0  0  0  0
 18 45  1  0  0  0  0
 19 20  1  0  0  0  0
 20 27  1  0  0  0  0
 20 21  1  0  0  0  0
 20 46  1  0  0  0  0
 21 22  1  0  0  0  0
 21 47  1  0  0  0  0
 21 48  1  0  0  0  0
 22 23  1  0  0  0  0
 22 25  1  0  0  0  0
 22 27  1  0  0  0  0
 23 24  1  0  0  0  0
 23 49  1  0  0  0  0
 23 50  1  0  0  0  0
 24 51  1  0  0  0  0
 25 26  1  0  0  0  0
 25 52  1  0  0  0  0
 25 53  1  0  0  0  0
 26 54  1  0  0  0  0
 27 55  1  0  0  0  0
 27 56  1  0  0  0  0
M  END
> <s_m_source_file>
AV-unprocessed.smi

> <i_m_source_file_index>
151

> <i_lp_mmshare_version>
43012

> <i_f3d_flags>
0

> <s_epik_input>
W0NIM11DMShbQ0gzXSlPW0NIMl1bQ0BASF0oW0NIMl1bQ0gzXSlOKFtDSDJdMSljKG5bY0hdbjIpYyhjMjMpbltjSF1uM1tDSF0oW0NIMl00KVtDSDJdQzQoW0NIMl1bT0hdKVtDSDJdW09IXQ==

> <s_epik_cmdline>
J2VwaWtfcHl0aG9uJywgJy1waCcsICc3LjAnLCAnLXRuJywgJzgnLCAnLW1hJywgJzIwMCcsICctbWV0YWxfYmluZGluZycsICctaW1hZScsICc8aW5maWxlLm1hZT4nLCAnLW9tYWUnLCAnPG91dGZpbGUubWFlPic=

> <r_lp_tautomer_probability>
1

> <r_epik_Ionization_Penalty>
0.000102837

> <r_epik_Ionization_Penalty_Charging>
0

> <r_epik_Ionization_Penalty_Neutral>
0.000102837

> <r_epik_State_Penalty>
-0

> <r_epik_Charging_Adjusted_Penalty>
0

> <i_epik_Tot_Q>
0

> <i_epik_Tot_abs_Q>
0

> <r_epik_Metal_State_Penalty>
-0

> <b_epik_Metal_Only>
0

> <s_lp_Force_Field>
OPLS_2005

> <r_lp_Energy>
49.3626

> <b_lp_Chiralities_Consistent>
1

> <s_lp_Variant>
AV-unprocessed.smi:151-2

> <Gold.Version>
5.8.1

> <Gold.Id.Protein>
6NUR|6NUR_protein|mol2

> <Gold.PLP.Fitness>
40.7953

> <Gold.PLP.PLP>
-30.0014

> <Gold.PLP.part.hbond>
-4.0000

> <Gold.PLP.part.metal>
0.0000

> <Gold.PLP.part.buried>
-7.3369

> <Gold.PLP.part.nonpolar>
-20.8949

> <Gold.PLP.part.repulsive>
0.3929

> <Gold.PLP.ligand.clash>
0.0000

> <Gold.PLP.ligand.torsion>
1.3604

> <Gold.PLP.Chemscore.Hbond>
2.5905

> <Gold.PLP.Chemscore.CHOScore>
1.7411

> <Gold.PLP.Chemscore.Metal>
0.0000

> <Gold.Chemscore.Hbonds>
donor molecule, donor type, donor heavy atom, donor atom, acceptor molecule, acceptor atom, score
      L1  H    24    51       P1 10747  0.50
      L1  H    26    54       P1 10186  0.26
      P1  H 10785 10796       L1    26  1.00
      L1  C    13    44       P1 11000  0.76
      L1  C    18    45       P1  7948  0.35

> <Gold.PLP.Chemscore.Internal.Correction>
0.5198

> <Gold.Rescore>
     Score         DG    S(hbond)    S(metal)    S(lipo)     H(rot)  DE(clash)    DE(int)     intcor
      7.85      -8.94       1.79        0.00      49.90       3.26       0.01       1.08       ----

> <Gold.Chemscore.Fitness>
7.8484

> <Gold.Chemscore.DG>
-8.9383

> <Gold.Chemscore.ZeroCoef>
-5.4800

> <Gold.Chemscore.Hbond>
1.7858

> <Gold.Chemscore.Metal>
0.0000

> <Gold.Chemscore.Lipo>
49.8999

> <Gold.Chemscore.Internal_Hbond>
0.0000

> <Gold.Chemscore.DEClash>
0.0144

> <Gold.Chemscore.DEInternal>
1.0754

> <Gold.Chemscore.Rot>
3.2596

> <Gold.Chemscore.Internal.Correction>
   9.000000E+99

> <Gold.Chemscore.Hbonds>
donor molecule, donor type, donor heavy atom, donor atom, acceptor molecule, acceptor atom, score
      L1  H    24    51       P1 10747  0.50
      L1  H    26    54       P1 10186  0.27
      P1  H 10785 10796       L1    26  0.65

> <Gold.Chemscore.Hbond.Weighted>
-5.9647

> <Gold.Chemscore.Metal.Weighted>
-0.0000

> <Gold.Chemscore.Lipo.Weighted>
-5.8383

> <Gold.Chemscore.Internal_Hbond.Weighted>
0.0000

> <Gold.Chemscore.DEClash.Weighted>
0.0144

> <Gold.Chemscore.DEInternal.Weighted>
1.0754

> <Gold.Chemscore.Rot.Weighted>
8.3447

> <Gold.Chemscore.Internal.Correction.Weighted>
   9.000000E+99

> <Gold.Protein.RotatedTorsions>
[ 6907 6896 6895 6894 ] final   40.81 input  -60.11 | X-H torsion
[ 7974 7965 7964 7962 ] final  117.62 input  175.53 | X-H torsion
[ 8008 7997 7996 7995 ] final  -84.49 input   59.86 | X-H torsion
[ 10167 10162 10161 10158 ] final  173.58 input  -65.29 | X-H torsion
[ 10718 10713 10712 10709 ] final   23.79 input   66.30 | X-H torsion
[ 10763 10752 10751 10750 ] final -160.03 input  -60.55 | X-H torsion
[ 11005 11000 10999 10996 ] final  -89.11 input  -57.11 | X-H torsion

> <Gold.Protein.ActiveResidues>
 VAL166  LYS551  ARG553  GLY616  TRP617  ASP618  TYR619  PRO620  LYS621  CYS622 
 ASP623  PHE694  ASN695  SER759  ASP760  ASP761  ALA762  ILE779  LEU786  VAL792 
 PHE793  MET794  SER795  GLU796  ALA797  LYS798  CYS799  TRP800  GLU811  SER814 

> <Gold.Protein.RotatedAtoms>
  152.1872  134.8703  160.0520 H   0  0  0  0  0  0  0  0  0  0  0  0  # atno 6907 bound_to 6896
  151.9605  133.3689  159.4042 H   0  0  0  0  0  0  0  0  0  0  0  0  # atno 6908 bound_to 6896
  150.6928  134.4168  159.5231 H   0  0  0  0  0  0  0  0  0  0  0  0  # atno 6909 bound_to 6896
  145.1651  139.3133  143.4497 H   0  0  0  0  0  0  0  0  0  0  0  0  # atno 7974 bound_to 7965
  154.6304  140.0604  156.9725 H   0  0  0  0  0  0  0  0  0  0  0  0  # atno 8008 bound_to 7997
  155.1675  140.3288  155.4381 H   0  0  0  0  0  0  0  0  0  0  0  0  # atno 8009 bound_to 7997
  156.2480  140.1920  156.6779 H   0  0  0  0  0  0  0  0  0  0  0  0  # atno 8010 bound_to 7997
  139.5113  144.3245  152.0171 H   0  0  0  0  0  0  0  0  0  0  0  0  # atno 10167 bound_to 10162
  157.1709  130.6759  149.6077 H   0  0  0  0  0  0  0  0  0  0  0  0  # atno 10718 bound_to 10713
  154.7424  135.3072  154.8704 H   0  0  0  0  0  0  0  0  0  0  0  0  # atno 10763 bound_to 10752
  153.9514  135.6763  153.4748 H   0  0  0  0  0  0  0  0  0  0  0  0  # atno 10764 bound_to 10752
  153.1022  135.4906  154.8813 H   0  0  0  0  0  0  0  0  0  0  0  0  # atno 10765 bound_to 10752
  141.1590  133.7610  156.9548 H   0  0  0  0  0  0  0  0  0  0  0  0  # atno 11005 bound_to 11000
  146.3477  140.1776  142.8589 LP  0  0  0  0  0  0  0  0  0  0  0  0  # atno 17320 bound_to 7965
  145.0291  140.8856  143.5121 LP  0  0  0  0  0  0  0  0  0  0  0  0  # atno 17321 bound_to 7965
  140.2686  144.3989  150.6159 LP  0  0  0  0  0  0  0  0  0  0  0  0  # atno 17342 bound_to 10162
  140.6105  143.2169  151.6895 LP  0  0  0  0  0  0  0  0  0  0  0  0  # atno 17343 bound_to 10162
  155.9738  130.4679  150.6341 LP  0  0  0  0  0  0  0  0  0  0  0  0  # atno 17370 bound_to 10713
  157.4044  131.0814  151.1279 LP  0  0  0  0  0  0  0  0  0  0  0  0  # atno 17371 bound_to 10713
  140.1233  134.9403  157.2234 LP  0  0  0  0  0  0  0  0  0  0  0  0  # atno 17394 bound_to 11000
  140.3045  134.3094  155.7281 LP  0  0  0  0  0  0  0  0  0  0  0  0  # atno 17395 bound_to 11000

$$$$
