AV-unprocessed.smi:837|AV-procd|sdf|3899|dock10
  -GOLD-   22720 1363D 1   1.00000     0.00000
 Structure written by MMmdl.
 50 52  0  0  0  0  0  0  0  0  2 V2000
  146.2615  133.8371  153.2974 C   0  0  0  0  0  0  0  0  0  0  0  0
  145.8933  133.5044  151.8352 C   0  0  1  0  0  0  0  0  0  0  0  0
  145.8758  131.9745  151.6260 C   0  0  0  0  0  0  0  0  0  0  0  0
  145.5816  131.5958  150.1660 C   0  0  0  0  0  0  0  0  0  0  0  0
  144.2649  132.2168  149.6800 C   0  0  0  0  0  0  0  0  0  0  0  0
  144.2733  133.7423  149.8689 C   0  0  0  0  0  0  0  0  0  0  0  0
  144.5596  134.1424  151.3362 C   0  0  1  0  0  0  0  0  0  0  0  0
  143.4339  133.8086  152.1935 N   0  0  0  0  0  0  0  0  0  0  0  0
  142.8556  134.8861  152.7378 C   0  0  0  0  0  0  0  0  0  0  0  0
  141.8919  134.8636  153.5023 O   0  0  0  0  0  0  0  0  0  0  0  0
  143.5144  135.9802  152.3144 N   0  0  0  0  0  0  0  0  0  0  0  0
  143.1992  137.3485  152.7435 C   0  0  0  0  0  0  0  0  0  0  0  0
  144.2993  137.9646  153.6188 C   0  0  0  0  0  0  0  0  0  0  0  0
  144.7598  137.3491  154.5812 O   0  0  0  0  0  0  0  0  0  0  0  0
  144.7104  139.1922  153.2691 N   0  0  0  0  0  0  0  0  0  0  0  0
  145.7094  139.9812  153.9844 C   0  0  0  0  0  0  0  0  0  0  0  0
  147.1101  139.9089  153.3411 C   0  0  0  0  0  0  0  0  0  0  0  0
  148.1383  140.7993  154.0187 C   0  0  0  0  0  0  0  0  0  0  0  0
  149.3890  140.2783  154.4194 C   0  0  0  0  0  0  0  0  0  0  0  0
  150.3181  141.1241  155.0596 C   0  0  0  0  0  0  0  0  0  0  0  0
  149.9764  142.4733  155.2839 C   0  0  0  0  0  0  0  0  0  0  0  0
  148.7716  142.9371  154.8850 N   0  3  0  0  0  0  0  0  0  0  0  0
  147.8546  142.1594  154.2682 C   0  0  0  0  0  0  0  0  0  0  0  0
  144.5263  135.6574  151.4971 C   0  0  0  0  0  0  0  0  0  0  0  0
  145.3234  136.4264  150.9595 O   0  0  0  0  0  0  0  0  0  0  0  0
  145.5077  133.4745  153.9965 H   0  0  0  0  0  0  0  0  0  0  0  0
  146.3737  134.9098  153.4550 H   0  0  0  0  0  0  0  0  0  0  0  0
  147.2102  133.3760  153.5725 H   0  0  0  0  0  0  0  0  0  0  0  0
  146.6972  133.9006  151.2124 H   0  0  0  0  0  0  0  0  0  0  0  0
  146.8361  131.5490  151.9193 H   0  0  0  0  0  0  0  0  0  0  0  0
  145.1291  131.5187  152.2774 H   0  0  0  0  0  0  0  0  0  0  0  0
  146.4009  131.9331  149.5300 H   0  0  0  0  0  0  0  0  0  0  0  0
  145.5388  130.5110  150.0652 H   0  0  0  0  0  0  0  0  0  0  0  0
  144.1071  131.9748  148.6286 H   0  0  0  0  0  0  0  0  0  0  0  0
  143.4277  131.7790  150.2249 H   0  0  0  0  0  0  0  0  0  0  0  0
  145.0336  134.1736  149.2156 H   0  0  0  0  0  0  0  0  0  0  0  0
  143.3195  134.1552  149.5366 H   0  0  0  0  0  0  0  0  0  0  0  0
  143.1330  132.8579  152.3524 H   0  0  0  0  0  0  0  0  0  0  0  0
  143.0417  137.9963  151.8799 H   0  0  0  0  0  0  0  0  0  0  0  0
  142.2544  137.3464  153.2902 H   0  0  0  0  0  0  0  0  0  0  0  0
  144.2887  139.6183  152.4564 H   0  0  0  0  0  0  0  0  0  0  0  0
  145.3815  141.0184  154.0706 H   0  0  0  0  0  0  0  0  0  0  0  0
  145.7587  139.5896  155.0007 H   0  0  0  0  0  0  0  0  0  0  0  0
  147.4690  138.8789  153.3577 H   0  0  0  0  0  0  0  0  0  0  0  0
  147.0454  140.1838  152.2877 H   0  0  0  0  0  0  0  0  0  0  0  0
  149.6323  139.2394  154.2481 H   0  0  0  0  0  0  0  0  0  0  0  0
  151.2766  140.7401  155.3775 H   0  0  0  0  0  0  0  0  0  0  0  0
  150.6250  143.1895  155.7672 H   0  0  0  0  0  0  0  0  0  0  0  0
  146.9270  142.6442  153.9999 H   0  0  0  0  0  0  0  0  0  0  0  0
  148.5439  143.9166  155.0579 H   0  0  0  0  0  0  0  0  0  0  0  0
  1  2  1  0  0  0  0
  1 26  1  0  0  0  0
  1 27  1  0  0  0  0
  1 28  1  0  0  0  0
  2  7  1  0  0  0  0
  2  3  1  0  0  0  0
  2 29  1  0  0  0  0
  3  4  1  0  0  0  0
  3 30  1  0  0  0  0
  3 31  1  0  0  0  0
  4  5  1  0  0  0  0
  4 32  1  0  0  0  0
  4 33  1  0  0  0  0
  5  6  1  0  0  0  0
  5 34  1  0  0  0  0
  5 35  1  0  0  0  0
  6  7  1  0  0  0  0
  6 36  1  0  0  0  0
  6 37  1  0  0  0  0
  7 24  1  0  0  0  0
  7  8  1  0  0  0  0
  8  9  1  0  0  0  0
  8 38  1  0  0  0  0
  9 10  2  0  0  0  0
  9 11  1  0  0  0  0
 11 12  1  0  0  0  0
 11 24  1  0  0  0  0
 12 13  1  0  0  0  0
 12 39  1  0  0  0  0
 12 40  1  0  0  0  0
 13 14  2  0  0  0  0
 13 15  1  0  0  0  0
 15 16  1  0  0  0  0
 15 41  1  0  0  0  0
 16 17  1  0  0  0  0
 16 42  1  0  0  0  0
 16 43  1  0  0  0  0
 17 18  1  0  0  0  0
 17 44  1  0  0  0  0
 17 45  1  0  0  0  0
 18 23  1  0  0  0  0
 18 19  2  0  0  0  0
 19 20  1  0  0  0  0
 19 46  1  0  0  0  0
 20 21  2  0  0  0  0
 20 47  1  0  0  0  0
 21 22  1  0  0  0  0
 21 48  1  0  0  0  0
 22 23  2  0  0  0  0
 22 50  1  0  0  0  0
 23 49  1  0  0  0  0
 24 25  2  0  0  0  0
M  CHG  1  22   1
M  END
> <s_m_source_file>
AV-unprocessed.smi

> <i_m_source_file_index>
837

> <i_lp_mmshare_version>
43012

> <i_f3d_flags>
0

> <s_epik_input>
W0NIMl0xW0NIMl1bQ0gyXVtDSDJdW0NAQEhdKFtDSDNdKVtDQEBdMTJbTkhdQyg9TylOKEMyPU8pW0NIMl1DKD1PKVtOSF1bQ0gyXVtDSDJdYzNbY0hdW2NIXVtjSF1uW2NIXTM=

> <s_epik_cmdline>
J2VwaWtfcHl0aG9uJywgJy1waCcsICc3LjAnLCAnLXRuJywgJzgnLCAnLW1hJywgJzIwMCcsICctbWV0YWxfYmluZGluZycsICctaW1hZScsICc8aW5maWxlLm1hZT4nLCAnLW9tYWUnLCAnPG91dGZpbGUubWFlPic=

> <r_lp_tautomer_probability>
1

> <r_epik_Ionization_Penalty>
2.28139

> <r_epik_Ionization_Penalty_Charging>
2.28135

> <r_epik_Ionization_Penalty_Neutral>
4.65525e-05

> <r_epik_State_Penalty>
2.43066

> <r_epik_Charging_Adjusted_Penalty>
4.71201

> <i_epik_Tot_Q>
1

> <i_epik_Tot_abs_Q>
1

> <r_epik_Metal_State_Penalty>
2.4646

> <b_epik_Metal_Only>
0

> <s_lp_Force_Field>
OPLS_2005

> <r_lp_Energy>
30.2127

> <b_lp_Chiralities_Consistent>
1

> <s_lp_Variant>
AV-unprocessed.smi:837-8

> <Gold.Version>
5.8.1

> <Gold.Id.Protein>
6NUR|6NUR_protein|mol2

> <Gold.PLP.Fitness>
50.3091

> <Gold.PLP.PLP>
-42.2709

> <Gold.PLP.part.hbond>
-2.1415

> <Gold.PLP.part.metal>
0.0000

> <Gold.PLP.part.buried>
-7.1078

> <Gold.PLP.part.nonpolar>
-34.4552

> <Gold.PLP.part.repulsive>
0.6207

> <Gold.PLP.ligand.clash>
0.0000

> <Gold.PLP.ligand.torsion>
0.3932

> <Gold.PLP.Chemscore.Hbond>
2.9280

> <Gold.PLP.Chemscore.CHOScore>
0.0000

> <Gold.PLP.Chemscore.Metal>
0.0000

> <Gold.PLP.Chemscore.Internal.Correction>
0.0408

> <Gold.Rescore>
     Score         DG    S(hbond)    S(metal)    S(lipo)     H(rot)  DE(clash)    DE(int)     intcor
     17.56     -18.11       1.98        0.00      94.29       1.96       0.03       0.52       ----

> <Gold.Chemscore.Fitness>
17.5611

> <Gold.Chemscore.DG>
-18.1129

> <Gold.Chemscore.ZeroCoef>
-5.4800

> <Gold.Chemscore.Hbond>
1.9844

> <Gold.Chemscore.Metal>
0.0000

> <Gold.Chemscore.Lipo>
94.2933

> <Gold.Chemscore.Internal_Hbond>
0.0000

> <Gold.Chemscore.DEClash>
0.0274

> <Gold.Chemscore.DEInternal>
0.5244

> <Gold.Chemscore.Rot>
1.9638

> <Gold.Chemscore.Internal.Correction>
   9.000000E+99

> <Gold.Chemscore.Hbond.Weighted>
-6.6280

> <Gold.Chemscore.Metal.Weighted>
-0.0000

> <Gold.Chemscore.Lipo.Weighted>
-11.0323

> <Gold.Chemscore.Internal_Hbond.Weighted>
0.0000

> <Gold.Chemscore.DEClash.Weighted>
0.0274

> <Gold.Chemscore.DEInternal.Weighted>
0.5244

> <Gold.Chemscore.Rot.Weighted>
5.0274

> <Gold.Chemscore.Internal.Correction.Weighted>
   9.000000E+99

> <Gold.Protein.RotatedTorsions>
[ 6907 6896 6895 6894 ] final  -35.85 input  -60.11 | X-H torsion
[ 7974 7965 7964 7962 ] final  -65.86 input  175.53 | X-H torsion
[ 8008 7997 7996 7995 ] final   83.70 input   59.86 | X-H torsion
[ 10167 10162 10161 10158 ] final  -95.96 input  -65.29 | X-H torsion
[ 10718 10713 10712 10709 ] final  117.69 input   66.30 | X-H torsion
[ 10763 10752 10751 10750 ] final  124.00 input  -60.55 | X-H torsion
[ 11005 11000 10999 10996 ] final  126.19 input  -57.11 | X-H torsion

> <Gold.Protein.ActiveResidues>
 VAL166  LYS551  ARG553  GLY616  TRP617  ASP618  TYR619  PRO620  LYS621  CYS622 
 ASP623  PHE694  ASN695  SER759  ASP760  ASP761  ALA762  ILE779  LEU786  VAL792 
 PHE793  MET794  SER795  GLU796  ALA797  LYS798  CYS799  TRP800  GLU811  SER814 

> <Gold.Protein.RotatedAtoms>
  151.0346  134.9564  159.8128 H   0  0  0  0  0  0  0  0  0  0  0  0  # atno 6907 bound_to 6896
  152.5352  134.2736  159.8991 H   0  0  0  0  0  0  0  0  0  0  0  0  # atno 6908 bound_to 6896
  151.2747  133.4196  159.2657 H   0  0  0  0  0  0  0  0  0  0  0  0  # atno 6909 bound_to 6896
  145.7490  140.8917  143.0490 H   0  0  0  0  0  0  0  0  0  0  0  0  # atno 7974 bound_to 7965
  155.9274  140.3417  155.6221 H   0  0  0  0  0  0  0  0  0  0  0  0  # atno 8008 bound_to 7997
  155.7200  140.0782  157.2353 H   0  0  0  0  0  0  0  0  0  0  0  0  # atno 8009 bound_to 7997
  154.4079  140.1607  156.2378 H   0  0  0  0  0  0  0  0  0  0  0  0  # atno 8010 bound_to 7997
  140.2987  143.3176  152.0271 H   0  0  0  0  0  0  0  0  0  0  0  0  # atno 10167 bound_to 10162
  157.6080  131.1040  150.7650 H   0  0  0  0  0  0  0  0  0  0  0  0  # atno 10718 bound_to 10713
  153.6544  135.3357  155.3109 H   0  0  0  0  0  0  0  0  0  0  0  0  # atno 10763 bound_to 10752
  154.8530  135.4348  154.1870 H   0  0  0  0  0  0  0  0  0  0  0  0  # atno 10764 bound_to 10752
  153.2821  135.7010  153.7450 H   0  0  0  0  0  0  0  0  0  0  0  0  # atno 10765 bound_to 10752
  139.9444  134.9631  156.8670 H   0  0  0  0  0  0  0  0  0  0  0  0  # atno 11005 bound_to 11000
  144.6854  139.9565  143.7479 LP  0  0  0  0  0  0  0  0  0  0  0  0  # atno 17320 bound_to 7965
  146.0375  139.3391  143.0718 LP  0  0  0  0  0  0  0  0  0  0  0  0  # atno 17321 bound_to 7965
  139.4920  144.6472  151.6754 LP  0  0  0  0  0  0  0  0  0  0  0  0  # atno 17342 bound_to 10162
  140.5670  144.0174  150.6197 LP  0  0  0  0  0  0  0  0  0  0  0  0  # atno 17343 bound_to 10162
  156.8034  130.4928  149.5366 LP  0  0  0  0  0  0  0  0  0  0  0  0  # atno 17370 bound_to 10713
  156.1173  130.6084  151.0139 LP  0  0  0  0  0  0  0  0  0  0  0  0  # atno 17371 bound_to 10713
  140.5872  134.0296  155.7486 LP  0  0  0  0  0  0  0  0  0  0  0  0  # atno 17394 bound_to 11000
  141.1089  133.9648  157.2946 LP  0  0  0  0  0  0  0  0  0  0  0  0  # atno 17395 bound_to 11000

$$$$
