AV-unprocessed.smi:2493|AV-procd|sdf|9819|dock7
  -GOLD-   2272013453D 1   1.00000     0.00000
 Structure written by MMmdl.
 41 42  0  0  0  0  0  0  0  0  1 V2000
  143.7488  135.3719  152.8573 C   0  0  0  0  0  0  0  0  0  0  0  0
  144.8071  134.9974  151.7939 C   0  0  0  0  0  0  0  0  0  0  0  0
  145.4784  136.2935  151.2572 C   0  0  0  0  0  0  0  0  0  0  0  0
  146.4339  136.8872  152.1915 N   0  0  0  0  0  0  0  0  0  0  0  0
  146.1244  137.6235  153.2705 C   0  0  0  0  0  0  0  0  0  0  0  0
  144.9712  137.9002  153.5991 O   0  0  0  0  0  0  0  0  0  0  0  0
  147.2991  138.1353  154.1046 C   0  0  0  0  0  0  0  0  0  0  0  0
  147.3551  139.6296  154.0986 C   0  0  0  0  0  0  0  0  0  0  0  0
  148.3281  140.4983  154.5084 C   0  0  0  0  0  0  0  0  0  0  0  0
  147.7789  141.7860  154.2427 C   0  0  0  0  0  0  0  0  0  0  0  0
  146.5683  141.7279  153.7109 N   0  0  0  0  0  0  0  0  0  0  0  0
  146.3210  140.4073  153.6260 N   0  0  0  0  0  0  0  0  0  0  0  0
  145.8929  134.1374  152.4982 C   0  0  0  0  0  0  0  0  0  0  0  0
  146.7858  133.2758  151.5855 C   0  0  0  0  0  0  0  0  0  0  0  0
  146.2013  131.8767  151.3285 C   0  0  0  0  0  0  0  0  0  0  0  0
  144.9857  131.8536  150.3911 C   0  0  0  0  0  0  0  0  0  0  0  0
  143.8187  132.7545  150.8306 C   0  0  0  0  0  0  0  0  0  0  0  0
  144.1083  134.2525  150.6209 C   0  0  0  0  0  0  0  0  0  0  0  0
  145.4512  140.0541  153.2527 H   0  0  0  0  0  0  0  0  0  0  0  0
  144.1939  135.9433  153.6728 H   0  0  0  0  0  0  0  0  0  0  0  0
  143.2874  134.4861  153.2943 H   0  0  0  0  0  0  0  0  0  0  0  0
  142.9422  135.9746  152.4401 H   0  0  0  0  0  0  0  0  0  0  0  0
  145.9550  136.1048  150.2935 H   0  0  0  0  0  0  0  0  0  0  0  0
  144.7193  137.0508  151.0610 H   0  0  0  0  0  0  0  0  0  0  0  0
  147.4114  136.7160  152.0053 H   0  0  0  0  0  0  0  0  0  0  0  0
  147.2015  137.7668  155.1265 H   0  0  0  0  0  0  0  0  0  0  0  0
  148.2307  137.7235  153.7138 H   0  0  0  0  0  0  0  0  0  0  0  0
  149.2885  140.2522  154.9366 H   0  0  0  0  0  0  0  0  0  0  0  0
  148.2222  142.7549  154.4200 H   0  0  0  0  0  0  0  0  0  0  0  0
  146.5334  134.7972  153.0853 H   0  0  0  0  0  0  0  0  0  0  0  0
  145.4312  133.4841  153.2400 H   0  0  0  0  0  0  0  0  0  0  0  0
  147.0119  133.7842  150.6481 H   0  0  0  0  0  0  0  0  0  0  0  0
  147.7453  133.1420  152.0865 H   0  0  0  0  0  0  0  0  0  0  0  0
  146.9786  131.2478  150.8936 H   0  0  0  0  0  0  0  0  0  0  0  0
  145.9408  131.4067  152.2777 H   0  0  0  0  0  0  0  0  0  0  0  0
  145.2972  132.1217  149.3810 H   0  0  0  0  0  0  0  0  0  0  0  0
  144.6273  130.8260  150.3241 H   0  0  0  0  0  0  0  0  0  0  0  0
  142.9560  132.4924  150.2172 H   0  0  0  0  0  0  0  0  0  0  0  0
  143.5235  132.5437  151.8586 H   0  0  0  0  0  0  0  0  0  0  0  0
  143.1646  134.7538  150.4008 H   0  0  0  0  0  0  0  0  0  0  0  0
  144.6950  134.3651  149.7081 H   0  0  0  0  0  0  0  0  0  0  0  0
  1  2  1  0  0  0  0
  1 20  1  0  0  0  0
  1 21  1  0  0  0  0
  1 22  1  0  0  0  0
  2 18  1  0  0  0  0
  2  3  1  0  0  0  0
  2 13  1  0  0  0  0
  3  4  1  0  0  0  0
  3 23  1  0  0  0  0
  3 24  1  0  0  0  0
  4  5  1  0  0  0  0
  4 25  1  0  0  0  0
  5  6  2  0  0  0  0
  5  7  1  0  0  0  0
  7  8  1  0  0  0  0
  7 26  1  0  0  0  0
  7 27  1  0  0  0  0
  8 12  1  0  0  0  0
  8  9  2  0  0  0  0
  9 10  1  0  0  0  0
  9 28  1  0  0  0  0
 10 11  2  0  0  0  0
 10 29  1  0  0  0  0
 11 12  1  0  0  0  0
 12 19  1  0  0  0  0
 13 14  1  0  0  0  0
 13 30  1  0  0  0  0
 13 31  1  0  0  0  0
 14 15  1  0  0  0  0
 14 32  1  0  0  0  0
 14 33  1  0  0  0  0
 15 16  1  0  0  0  0
 15 34  1  0  0  0  0
 15 35  1  0  0  0  0
 16 17  1  0  0  0  0
 16 36  1  0  0  0  0
 16 37  1  0  0  0  0
 17 18  1  0  0  0  0
 17 38  1  0  0  0  0
 17 39  1  0  0  0  0
 18 40  1  0  0  0  0
 18 41  1  0  0  0  0
M  END
> <s_m_source_file>
AV-unprocessed.smi

> <i_m_source_file_index>
2493

> <i_lp_mmshare_version>
43012

> <i_f3d_flags>
0

> <s_epik_input>
W0NIMl0xW0NIMl1bQ0gyXVtDSDJdW0NIMl1bQ0gyXUMxKFtDSDNdKVtDSDJdW05IXUMoPU8pW0NIMl1jMltjSF1bY0hdbltuSF0y

> <s_epik_cmdline>
J2VwaWtfcHl0aG9uJywgJy1waCcsICc3LjAnLCAnLXRuJywgJzgnLCAnLW1hJywgJzIwMCcsICctbWV0YWxfYmluZGluZycsICctaW1hZScsICc8aW5maWxlLm1hZT4nLCAnLW9tYWUnLCAnPG91dGZpbGUubWFlPic=

> <r_lp_tautomer_probability>
0.5

> <r_epik_Ionization_Penalty>
2.55018e-05

> <r_epik_Ionization_Penalty_Charging>
0

> <r_epik_Ionization_Penalty_Neutral>
2.55018e-05

> <r_epik_State_Penalty>
0.41068

> <r_epik_Charging_Adjusted_Penalty>
0.41068

> <i_epik_Tot_Q>
0

> <i_epik_Tot_abs_Q>
0

> <r_epik_Metal_State_Penalty>
0.410675

> <b_epik_Metal_Only>
0

> <s_lp_Force_Field>
OPLS_2005

> <r_lp_Energy>
19.8643

> <b_lp_Chiralities_Consistent>
1

> <s_lp_Variant>
AV-unprocessed.smi:2493-1

> <Gold.Version>
5.8.1

> <Gold.Id.Protein>
6NUR|6NUR_protein|mol2

> <Gold.PLP.Fitness>
38.5538

> <Gold.PLP.PLP>
-30.5633

> <Gold.PLP.part.hbond>
-2.0000

> <Gold.PLP.part.metal>
0.0000

> <Gold.PLP.part.buried>
-4.1281

> <Gold.PLP.part.nonpolar>
-25.9640

> <Gold.PLP.part.repulsive>
0.6840

> <Gold.PLP.ligand.clash>
0.0000

> <Gold.PLP.ligand.torsion>
0.4484

> <Gold.PLP.Chemscore.Hbond>
1.9600

> <Gold.PLP.Chemscore.CHOScore>
1.0000

> <Gold.PLP.Chemscore.Metal>
0.0000

> <Gold.Chemscore.Hbonds>
donor molecule, donor type, donor heavy atom, donor atom, acceptor molecule, acceptor atom, score
      L1  H     4    25       P1  7948  1.00
      L1  H    12    19       P1 10175  0.94
      L1  C    10    29       P1  8028  1.00

> <Gold.PLP.Chemscore.Internal.Correction>
0.0074

> <Gold.Rescore>
     Score         DG    S(hbond)    S(metal)    S(lipo)     H(rot)  DE(clash)    DE(int)     intcor
     15.41     -17.12       1.87        0.00      82.40       1.66       0.10       1.61       ----

> <Gold.Chemscore.Fitness>
15.4089

> <Gold.Chemscore.DG>
-17.1200

> <Gold.Chemscore.ZeroCoef>
-5.4800

> <Gold.Chemscore.Hbond>
1.8702

> <Gold.Chemscore.Metal>
0.0000

> <Gold.Chemscore.Lipo>
82.4033

> <Gold.Chemscore.Internal_Hbond>
0.0000

> <Gold.Chemscore.DEClash>
0.1020

> <Gold.Chemscore.DEInternal>
1.6091

> <Gold.Chemscore.Rot>
1.6592

> <Gold.Chemscore.Internal.Correction>
   9.000000E+99

> <Gold.Chemscore.Hbonds>
donor molecule, donor type, donor heavy atom, donor atom, acceptor molecule, acceptor atom, score
      L1  H     4    25       P1  7948  0.99
      L1  H    12    19       P1 10175  0.89

> <Gold.Chemscore.Hbond.Weighted>
-6.2463

> <Gold.Chemscore.Metal.Weighted>
-0.0000

> <Gold.Chemscore.Lipo.Weighted>
-9.6412

> <Gold.Chemscore.Internal_Hbond.Weighted>
0.0000

> <Gold.Chemscore.DEClash.Weighted>
0.1020

> <Gold.Chemscore.DEInternal.Weighted>
1.6091

> <Gold.Chemscore.Rot.Weighted>
4.2475

> <Gold.Chemscore.Internal.Correction.Weighted>
   9.000000E+99

> <Gold.Protein.RotatedTorsions>
[ 6907 6896 6895 6894 ] final  148.15 input  -60.11 | X-H torsion
[ 7974 7965 7964 7962 ] final  106.13 input  175.53 | X-H torsion
[ 8008 7997 7996 7995 ] final -141.35 input   59.86 | X-H torsion
[ 10167 10162 10161 10158 ] final  -30.13 input  -65.29 | X-H torsion
[ 10718 10713 10712 10709 ] final  167.84 input   66.30 | X-H torsion
[ 10763 10752 10751 10750 ] final  -16.01 input  -60.55 | X-H torsion
[ 11005 11000 10999 10996 ] final  126.28 input  -57.11 | X-H torsion

> <Gold.Protein.ActiveResidues>
 VAL166  LYS551  ARG553  GLY616  TRP617  ASP618  TYR619  PRO620  LYS621  CYS622 
 ASP623  PHE694  ASN695  SER759  ASP760  ASP761  ALA762  ILE779  LEU786  VAL792 
 PHE793  MET794  SER795  GLU796  ALA797  LYS798  CYS799  TRP800  GLU811  SER814 

> <Gold.Protein.RotatedAtoms>
  152.1453  133.4488  159.4786 H   0  0  0  0  0  0  0  0  0  0  0  0  # atno 6907 bound_to 6896
  150.6890  134.2256  159.4423 H   0  0  0  0  0  0  0  0  0  0  0  0  # atno 6908 bound_to 6896
  152.0149  134.9855  160.0620 H   0  0  0  0  0  0  0  0  0  0  0  0  # atno 6909 bound_to 6896
  145.3106  139.2541  143.3765 H   0  0  0  0  0  0  0  0  0  0  0  0  # atno 7974 bound_to 7965
  155.4764  140.0557  157.2973 H   0  0  0  0  0  0  0  0  0  0  0  0  # atno 8008 bound_to 7997
  154.4678  140.2026  156.0027 H   0  0  0  0  0  0  0  0  0  0  0  0  # atno 8009 bound_to 7997
  156.1004  140.3220  155.7938 H   0  0  0  0  0  0  0  0  0  0  0  0  # atno 8010 bound_to 7997
  140.7253  143.3873  151.1493 H   0  0  0  0  0  0  0  0  0  0  0  0  # atno 10167 bound_to 10162
  157.0457  131.0299  151.2698 H   0  0  0  0  0  0  0  0  0  0  0  0  # atno 10718 bound_to 10713
  153.5520  135.7011  153.5587 H   0  0  0  0  0  0  0  0  0  0  0  0  # atno 10763 bound_to 10752
  153.3507  135.3996  155.1643 H   0  0  0  0  0  0  0  0  0  0  0  0  # atno 10764 bound_to 10752
  154.8660  135.3764  154.5031 H   0  0  0  0  0  0  0  0  0  0  0  0  # atno 10765 bound_to 10752
  139.9448  134.9631  156.8683 H   0  0  0  0  0  0  0  0  0  0  0  0  # atno 11005 bound_to 11000
  146.3119  140.3642  142.8668 LP  0  0  0  0  0  0  0  0  0  0  0  0  # atno 17320 bound_to 7965
  144.9019  140.7652  143.5862 LP  0  0  0  0  0  0  0  0  0  0  0  0  # atno 17321 bound_to 7965
  139.7472  143.8834  152.3067 LP  0  0  0  0  0  0  0  0  0  0  0  0  # atno 17342 bound_to 10162
  139.8675  144.7085  150.9026 LP  0  0  0  0  0  0  0  0  0  0  0  0  # atno 17343 bound_to 10162
  157.5070  130.7915  149.7664 LP  0  0  0  0  0  0  0  0  0  0  0  0  # atno 17370 bound_to 10713
  156.0024  130.3873  150.2557 LP  0  0  0  0  0  0  0  0  0  0  0  0  # atno 17371 bound_to 10713
  140.5862  134.0305  155.7482 LP  0  0  0  0  0  0  0  0  0  0  0  0  # atno 17394 bound_to 11000
  141.1095  133.9640  157.2937 LP  0  0  0  0  0  0  0  0  0  0  0  0  # atno 17395 bound_to 11000

$$$$
