AV-unprocessed.smi:2027|AV-procd|sdf|8215|dock3
  -GOLD-   2272010483D 1   1.00000     0.00000
 Structure written by MMmdl.
 50 52  0  0  0  0  0  0  0  0  2 V2000
  152.3449  145.0892  160.1925 C   0  0  0  0  0  0  0  0  0  0  0  0
  152.0069  143.8447  159.3896 C   0  0  0  0  0  0  0  0  0  0  0  0
  151.2349  143.9890  158.2148 C   0  0  0  0  0  0  0  0  0  0  0  0
  150.9458  142.8328  157.4997 C   0  0  0  0  0  0  0  0  0  0  0  0
  150.2226  142.6423  156.3200 N   0  3  0  0  0  0  0  0  0  0  0  0
  150.2179  141.3189  155.9982 C   0  0  0  0  0  0  0  0  0  0  0  0
  150.9274  140.6622  156.9553 N   0  0  0  0  0  0  0  0  0  0  0  0
  151.2516  139.2347  157.0812 C   0  0  0  0  0  0  0  0  0  0  0  0
  152.7672  138.9702  157.0070 C   0  0  2  0  0  0  0  0  0  0  0  0
  153.2098  139.1849  155.6809 O   0  0  0  0  0  0  0  0  0  0  0  0
  153.1284  137.5288  157.4240 C   0  0  0  0  0  0  0  0  0  0  0  0
  153.8980  137.3753  158.6695 N   0  0  0  0  0  0  0  0  0  0  0  0
  154.3911  136.0065  158.7703 C   0  0  0  0  0  0  0  0  0  0  0  0
  153.1338  137.6967  159.8835 C   0  0  0  0  0  0  0  0  0  0  0  0
  153.9581  137.8522  161.1325 C   0  0  0  0  0  0  0  0  0  0  0  0
  155.0028  138.7902  161.3701 C   0  0  0  0  0  0  0  0  0  0  0  0
  155.5577  138.6514  162.5626 N   0  0  0  0  0  0  0  0  0  0  0  0
  154.8802  137.6343  163.1320 N   0  0  0  0  0  0  0  0  0  0  0  0
  155.2432  137.1943  164.4617 C   0  0  0  0  0  0  0  0  0  0  0  0
  153.8947  137.1455  162.3015 C   0  0  0  0  0  0  0  0  0  0  0  0
  151.3962  141.5653  157.9157 C   0  0  0  0  0  0  0  0  0  0  0  0
  152.1539  141.4047  159.0731 C   0  0  0  0  0  0  0  0  0  0  0  0
  152.4584  142.5684  159.8145 C   0  0  0  0  0  0  0  0  0  0  0  0
  153.2839  142.4250  161.0817 C   0  0  0  0  0  0  0  0  0  0  0  0
  151.9574  145.9897  159.7153 H   0  0  0  0  0  0  0  0  0  0  0  0
  153.4249  145.2027  160.2879 H   0  0  0  0  0  0  0  0  0  0  0  0
  151.9128  145.0288  161.1917 H   0  0  0  0  0  0  0  0  0  0  0  0
  150.8869  144.9573  157.8861 H   0  0  0  0  0  0  0  0  0  0  0  0
  149.7463  140.8730  155.1343 H   0  0  0  0  0  0  0  0  0  0  0  0
  150.8372  138.8727  158.0230 H   0  0  0  0  0  0  0  0  0  0  0  0
  150.7289  138.7039  156.2842 H   0  0  0  0  0  0  0  0  0  0  0  0
  153.2520  139.7014  157.6431 H   0  0  0  0  0  0  0  0  0  0  0  0
  152.4779  139.0608  155.0964 H   0  0  0  0  0  0  0  0  0  0  0  0
  152.2182  136.9313  157.4935 H   0  0  0  0  0  0  0  0  0  0  0  0
  153.6902  137.0946  156.5951 H   0  0  0  0  0  0  0  0  0  0  0  0
  155.0057  135.8779  159.6621 H   0  0  0  0  0  0  0  0  0  0  0  0
  155.0126  135.7522  157.9111 H   0  0  0  0  0  0  0  0  0  0  0  0
  153.5676  135.2924  158.8183 H   0  0  0  0  0  0  0  0  0  0  0  0
  152.5357  138.5918  159.7066 H   0  0  0  0  0  0  0  0  0  0  0  0
  152.4054  136.9033  160.0570 H   0  0  0  0  0  0  0  0  0  0  0  0
  155.3844  139.5521  160.7065 H   0  0  0  0  0  0  0  0  0  0  0  0
  154.6031  136.3672  164.7700 H   0  0  0  0  0  0  0  0  0  0  0  0
  155.1256  138.0169  165.1678 H   0  0  0  0  0  0  0  0  0  0  0  0
  156.2815  136.8607  164.4683 H   0  0  0  0  0  0  0  0  0  0  0  0
  153.2528  136.3279  162.5947 H   0  0  0  0  0  0  0  0  0  0  0  0
  152.5022  140.4341  159.3931 H   0  0  0  0  0  0  0  0  0  0  0  0
  153.5218  141.3808  161.2867 H   0  0  0  0  0  0  0  0  0  0  0  0
  152.7400  142.8161  161.9415 H   0  0  0  0  0  0  0  0  0  0  0  0
  154.2241  142.9686  160.9874 H   0  0  0  0  0  0  0  0  0  0  0  0
  149.7693  143.3607  155.7699 H   0  0  0  0  0  0  0  0  0  0  0  0
  1  2  1  0  0  0  0
  1 25  1  0  0  0  0
  1 26  1  0  0  0  0
  1 27  1  0  0  0  0
  2 23  1  0  0  0  0
  2  3  2  0  0  0  0
  3  4  1  0  0  0  0
  3 28  1  0  0  0  0
  4 21  2  0  0  0  0
  4  5  1  0  0  0  0
  5  6  2  0  0  0  0
  5 50  1  0  0  0  0
  6  7  1  0  0  0  0
  6 29  1  0  0  0  0
  7  8  1  0  0  0  0
  7 21  1  0  0  0  0
  8  9  1  0  0  0  0
  8 30  1  0  0  0  0
  8 31  1  0  0  0  0
  9 10  1  0  0  0  0
  9 11  1  0  0  0  0
  9 32  1  0  0  0  0
 10 33  1  0  0  0  0
 11 12  1  0  0  0  0
 11 34  1  0  0  0  0
 11 35  1  0  0  0  0
 12 13  1  0  0  0  0
 12 14  1  0  0  0  0
 13 36  1  0  0  0  0
 13 37  1  0  0  0  0
 13 38  1  0  0  0  0
 14 15  1  0  0  0  0
 14 39  1  0  0  0  0
 14 40  1  0  0  0  0
 15 20  2  0  0  0  0
 15 16  1  0  0  0  0
 16 17  2  0  0  0  0
 16 41  1  0  0  0  0
 17 18  1  0  0  0  0
 18 19  1  0  0  0  0
 18 20  1  0  0  0  0
 19 42  1  0  0  0  0
 19 43  1  0  0  0  0
 19 44  1  0  0  0  0
 20 45  1  0  0  0  0
 21 22  1  0  0  0  0
 22 23  2  0  0  0  0
 22 46  1  0  0  0  0
 23 24  1  0  0  0  0
 24 47  1  0  0  0  0
 24 48  1  0  0  0  0
 24 49  1  0  0  0  0
M  CHG  1   5   1
M  END
> <s_m_source_file>
AV-unprocessed.smi

> <i_m_source_file_index>
2027

> <i_lp_mmshare_version>
43012

> <i_f3d_flags>
0

> <s_epik_input>
W0NIM11jKFtjSF0xKWMoW0NIM10pW2NIXWMoYzEyKW4oW2NIXW4yKVtDSDJdW0NASF0oW09IXSlbQ0gyXU4oW0NIM10pW0NIMl1jM1tjSF1ubihbQ0gzXSlbY0hdMw==

> <s_epik_cmdline>
J2VwaWtfcHl0aG9uJywgJy1waCcsICc3LjAnLCAnLXRuJywgJzgnLCAnLW1hJywgJzIwMCcsICctbWV0YWxfYmluZGluZycsICctaW1hZScsICc8aW5maWxlLm1hZT4nLCAnLW9tYWUnLCAnPG91dGZpbGUubWFlPic=

> <r_epik_Ionization_Penalty>
1.48134

> <r_epik_Ionization_Penalty_Charging>
1.21121

> <r_epik_Ionization_Penalty_Neutral>
0.270133

> <r_epik_State_Penalty>
1.53013

> <r_epik_Charging_Adjusted_Penalty>
2.74134

> <i_epik_Tot_Q>
1

> <i_epik_Tot_abs_Q>
1

> <r_epik_Metal_State_Penalty>
1.60443

> <b_epik_Metal_Only>
0

> <s_lp_Force_Field>
OPLS_2005

> <r_lp_Energy>
21.1476

> <b_lp_Chiralities_Consistent>
1

> <s_lp_Variant>
AV-unprocessed.smi:2027-7

> <Gold.Version>
5.8.1

> <Gold.Id.Protein>
6NUR|6NUR_protein|mol2

> <Gold.PLP.Fitness>
54.5250

> <Gold.PLP.PLP>
-47.1754

> <Gold.PLP.part.hbond>
-1.8071

> <Gold.PLP.part.metal>
0.0000

> <Gold.PLP.part.buried>
-5.4842

> <Gold.PLP.part.nonpolar>
-40.6285

> <Gold.PLP.part.repulsive>
0.0981

> <Gold.PLP.ligand.clash>
0.0000

> <Gold.PLP.ligand.torsion>
0.9296

> <Gold.PLP.Chemscore.Hbond>
2.9840

> <Gold.PLP.Chemscore.CHOScore>
0.0000

> <Gold.PLP.Chemscore.Metal>
0.0000

> <Gold.Chemscore.Hbonds>
donor molecule, donor type, donor heavy atom, donor atom, acceptor molecule, acceptor atom, score
      L1  H     5    50       P1  8028  2.00
      P1  H  7997  8010       L1    10  1.00

> <Gold.PLP.Chemscore.Internal.Correction>
0.2568

> <Gold.Rescore>
     Score         DG    S(hbond)    S(metal)    S(lipo)     H(rot)  DE(clash)    DE(int)     intcor
     19.21     -20.17       1.80        0.00     128.76       2.50       0.05       0.92       ----

> <Gold.Chemscore.Fitness>
19.2073

> <Gold.Chemscore.DG>
-20.1732

> <Gold.Chemscore.ZeroCoef>
-5.4800

> <Gold.Chemscore.Hbond>
1.8047

> <Gold.Chemscore.Metal>
0.0000

> <Gold.Chemscore.Lipo>
128.7625

> <Gold.Chemscore.Internal_Hbond>
0.0000

> <Gold.Chemscore.DEClash>
0.0458

> <Gold.Chemscore.DEInternal>
0.9200

> <Gold.Chemscore.Rot>
2.5000

> <Gold.Chemscore.Internal.Correction>
   9.000000E+99

> <Gold.Chemscore.Hbonds>
donor molecule, donor type, donor heavy atom, donor atom, acceptor molecule, acceptor atom, score
      L1  H     5    50       P1  8028  0.95
      P1  H  7997  8010       L1    10  0.25

> <Gold.Chemscore.Hbond.Weighted>
-6.0279

> <Gold.Chemscore.Metal.Weighted>
-0.0000

> <Gold.Chemscore.Lipo.Weighted>
-15.0652

> <Gold.Chemscore.Internal_Hbond.Weighted>
0.0000

> <Gold.Chemscore.DEClash.Weighted>
0.0458

> <Gold.Chemscore.DEInternal.Weighted>
0.9200

> <Gold.Chemscore.Rot.Weighted>
6.3999

> <Gold.Chemscore.Internal.Correction.Weighted>
   9.000000E+99

> <Gold.Protein.RotatedTorsions>
[ 6907 6896 6895 6894 ] final   66.80 input  -60.11 | X-H torsion
[ 7974 7965 7964 7962 ] final  -15.18 input  175.53 | X-H torsion
[ 8008 7997 7996 7995 ] final  101.45 input   59.86 | X-H torsion
[ 10167 10162 10161 10158 ] final  161.68 input  -65.29 | X-H torsion
[ 10718 10713 10712 10709 ] final -158.95 input   66.30 | X-H torsion
[ 10763 10752 10751 10750 ] final   58.77 input  -60.55 | X-H torsion
[ 11005 11000 10999 10996 ] final  177.68 input  -57.11 | X-H torsion

> <Gold.Protein.ActiveResidues>
 VAL166  LYS551  ARG553  GLY616  TRP617  ASP618  TYR619  PRO620  LYS621  CYS622 
 ASP623  PHE694  ASN695  SER759  ASP760  ASP761  ALA762  ILE779  LEU786  VAL792 
 PHE793  MET794  SER795  GLU796  ALA797  LYS798  CYS799  TRP800  GLU811  SER814 

> <Gold.Protein.RotatedAtoms>
  152.4507  134.5400  159.9835 H   0  0  0  0  0  0  0  0  0  0  0  0  # atno 6907 bound_to 6896
  151.5473  133.3417  159.2954 H   0  0  0  0  0  0  0  0  0  0  0  0  # atno 6908 bound_to 6896
  150.8435  134.7767  159.7015 H   0  0  0  0  0  0  0  0  0  0  0  0  # atno 6909 bound_to 6896
  146.2043  140.3456  142.8412 H   0  0  0  0  0  0  0  0  0  0  0  0  # atno 7974 bound_to 7965
  156.1300  140.3197  155.8334 H   0  0  0  0  0  0  0  0  0  0  0  0  # atno 8008 bound_to 7997
  155.4349  140.0521  157.3032 H   0  0  0  0  0  0  0  0  0  0  0  0  # atno 8009 bound_to 7997
  154.4892  140.2085  155.9600 H   0  0  0  0  0  0  0  0  0  0  0  0  # atno 8010 bound_to 7997
  139.4852  144.4513  151.8827 H   0  0  0  0  0  0  0  0  0  0  0  0  # atno 10167 bound_to 10162
  156.5613  130.8648  151.2810 H   0  0  0  0  0  0  0  0  0  0  0  0  # atno 10718 bound_to 10713
  152.9878  135.5595  154.5605 H   0  0  0  0  0  0  0  0  0  0  0  0  # atno 10763 bound_to 10752
  154.5025  135.2798  155.1411 H   0  0  0  0  0  0  0  0  0  0  0  0  # atno 10764 bound_to 10752
  154.2836  135.6340  153.5410 H   0  0  0  0  0  0  0  0  0  0  0  0  # atno 10765 bound_to 10752
  140.3867  134.6898  157.4483 H   0  0  0  0  0  0  0  0  0  0  0  0  # atno 11005 bound_to 11000
  144.8755  140.7330  143.6020 LP  0  0  0  0  0  0  0  0  0  0  0  0  # atno 17320 bound_to 7965
  145.3376  139.1741  143.4503 LP  0  0  0  0  0  0  0  0  0  0  0  0  # atno 17321 bound_to 7965
  140.3969  144.2543  150.5895 LP  0  0  0  0  0  0  0  0  0  0  0  0  # atno 17342 bound_to 10162
  140.5093  143.2295  151.8559 LP  0  0  0  0  0  0  0  0  0  0  0  0  # atno 17343 bound_to 10162
  157.7368  130.9785  150.2156 LP  0  0  0  0  0  0  0  0  0  0  0  0  # atno 17370 bound_to 10713
  156.2797  130.3732  149.7948 LP  0  0  0  0  0  0  0  0  0  0  0  0  # atno 17371 bound_to 10713
  140.0437  134.6230  155.8948 LP  0  0  0  0  0  0  0  0  0  0  0  0  # atno 17394 bound_to 11000
  141.1905  133.6568  156.5414 LP  0  0  0  0  0  0  0  0  0  0  0  0  # atno 17395 bound_to 11000

$$$$
