AV-unprocessed.smi:2410|AV-procd|sdf|9528|dock3
  -GOLD-   2272013163D 1   1.00000     0.00000
 Structure written by MMmdl.
 47 49  0  0  0  0  0  0  0  0  2 V2000
  152.4271  144.8047  159.8302 C   0  0  0  0  0  0  0  0  0  0  0  0
  152.1539  143.5664  158.9934 C   0  0  0  0  0  0  0  0  0  0  0  0
  151.2681  143.6748  157.8971 C   0  0  0  0  0  0  0  0  0  0  0  0
  151.0406  142.5255  157.1490 C   0  0  0  0  0  0  0  0  0  0  0  0
  150.2392  142.3050  156.0260 N   0  3  0  0  0  0  0  0  0  0  0  0
  150.3451  141.0027  155.6401 C   0  0  0  0  0  0  0  0  0  0  0  0
  151.2016  140.3897  156.5014 N   0  0  0  0  0  0  0  0  0  0  0  0
  151.6747  139.0008  156.5452 C   0  0  0  0  0  0  0  0  0  0  0  0
  152.3269  138.5588  155.2206 C   0  0  2  0  0  0  0  0  0  0  0  0
  153.2365  139.5645  154.8184 O   0  0  0  0  0  0  0  0  0  0  0  0
  151.2821  138.3475  154.1030 C   0  0  0  0  0  0  0  0  0  0  0  0
  150.0322  137.7711  154.6245 N   0  0  0  0  0  0  0  0  0  0  0  0
  148.8592  138.5042  154.3837 C   0  0  0  0  0  0  0  0  0  0  0  0
  147.7049  138.0917  154.7949 N   0  0  0  0  0  0  0  0  0  0  0  0
  147.6036  136.8855  155.4945 C   0  0  0  0  0  0  0  0  0  0  0  0
  146.2033  136.4992  155.9366 C   0  0  0  0  0  0  0  0  0  0  0  0
  148.7013  136.1221  155.7501 C   0  0  0  0  0  0  0  0  0  0  0  0
  148.6525  134.8006  156.5068 C   0  0  0  0  0  0  0  0  0  0  0  0
  150.0209  136.5750  155.2818 C   0  0  0  0  0  0  0  0  0  0  0  0
  151.0540  135.9250  155.4587 O   0  0  0  0  0  0  0  0  0  0  0  0
  151.6585  141.2994  157.4602 C   0  0  0  0  0  0  0  0  0  0  0  0
  152.5318  141.1737  158.5377 C   0  0  0  0  0  0  0  0  0  0  0  0
  152.7776  142.3313  159.3096 C   0  0  0  0  0  0  0  0  0  0  0  0
  153.7304  142.2255  160.4882 C   0  0  0  0  0  0  0  0  0  0  0  0
  151.8901  145.6725  159.4459 H   0  0  0  0  0  0  0  0  0  0  0  0
  153.4909  145.0434  159.8264 H   0  0  0  0  0  0  0  0  0  0  0  0
  152.1106  144.6470  160.8615 H   0  0  0  0  0  0  0  0  0  0  0  0
  150.7903  144.6116  157.6505 H   0  0  0  0  0  0  0  0  0  0  0  0
  149.8445  140.5419  154.8008 H   0  0  0  0  0  0  0  0  0  0  0  0
  152.3778  138.9133  157.3746 H   0  0  0  0  0  0  0  0  0  0  0  0
  150.8243  138.3632  156.7906 H   0  0  0  0  0  0  0  0  0  0  0  0
  152.8890  137.6403  155.3921 H   0  0  0  0  0  0  0  0  0  0  0  0
  153.2206  139.6252  153.8755 H   0  0  0  0  0  0  0  0  0  0  0  0
  151.0399  139.3069  153.6417 H   0  0  0  0  0  0  0  0  0  0  0  0
  151.7028  137.7610  153.2834 H   0  0  0  0  0  0  0  0  0  0  0  0
  148.9912  139.4342  153.8281 H   0  0  0  0  0  0  0  0  0  0  0  0
  146.1542  136.4174  157.0227 H   0  0  0  0  0  0  0  0  0  0  0  0
  145.9147  135.5427  155.5001 H   0  0  0  0  0  0  0  0  0  0  0  0
  145.4691  137.2432  155.6241 H   0  0  0  0  0  0  0  0  0  0  0  0
  149.0399  133.9947  155.8824 H   0  0  0  0  0  0  0  0  0  0  0  0
  147.6469  134.5201  156.8160 H   0  0  0  0  0  0  0  0  0  0  0  0
  149.2678  134.8590  157.4053 H   0  0  0  0  0  0  0  0  0  0  0  0
  153.0082  140.2335  158.7758 H   0  0  0  0  0  0  0  0  0  0  0  0
  154.0962  141.2061  160.6155 H   0  0  0  0  0  0  0  0  0  0  0  0
  153.2319  142.5173  161.4128 H   0  0  0  0  0  0  0  0  0  0  0  0
  154.5947  142.8732  160.3400 H   0  0  0  0  0  0  0  0  0  0  0  0
  149.6636  142.9910  155.5544 H   0  0  0  0  0  0  0  0  0  0  0  0
  1  2  1  0  0  0  0
  1 25  1  0  0  0  0
  1 26  1  0  0  0  0
  1 27  1  0  0  0  0
  2 23  1  0  0  0  0
  2  3  2  0  0  0  0
  3  4  1  0  0  0  0
  3 28  1  0  0  0  0
  4 21  2  0  0  0  0
  4  5  1  0  0  0  0
  5  6  2  0  0  0  0
  5 47  1  0  0  0  0
  6  7  1  0  0  0  0
  6 29  1  0  0  0  0
  7  8  1  0  0  0  0
  7 21  1  0  0  0  0
  8  9  1  0  0  0  0
  8 30  1  0  0  0  0
  8 31  1  0  0  0  0
  9 10  1  0  0  0  0
  9 11  1  0  0  0  0
  9 32  1  0  0  0  0
 10 33  1  0  0  0  0
 11 12  1  0  0  0  0
 11 34  1  0  0  0  0
 11 35  1  0  0  0  0
 12 19  1  0  0  0  0
 12 13  1  0  0  0  0
 13 14  2  0  0  0  0
 13 36  1  0  0  0  0
 14 15  1  0  0  0  0
 15 16  1  0  0  0  0
 15 17  2  0  0  0  0
 16 37  1  0  0  0  0
 16 38  1  0  0  0  0
 16 39  1  0  0  0  0
 17 18  1  0  0  0  0
 17 19  1  0  0  0  0
 18 40  1  0  0  0  0
 18 41  1  0  0  0  0
 18 42  1  0  0  0  0
 19 20  2  0  0  0  0
 21 22  1  0  0  0  0
 22 23  2  0  0  0  0
 22 43  1  0  0  0  0
 23 24  1  0  0  0  0
 24 44  1  0  0  0  0
 24 45  1  0  0  0  0
 24 46  1  0  0  0  0
M  CHG  1   5   1
M  END
> <s_m_source_file>
AV-unprocessed.smi

> <i_m_source_file_index>
2410

> <i_lp_mmshare_version>
43012

> <i_f3d_flags>
0

> <s_epik_input>
W0NIM11jKFtjSF0xKWMoW0NIM10pW2NIXWMoYzEyKW4oW2NIXW4yKVtDSDJdW0NASF0oW09IXSlbQ0gyXW4zW2NIXW5jKFtDSDNdKWMoW0NIM10pYzM9Tw==

> <s_epik_cmdline>
J2VwaWtfcHl0aG9uJywgJy1waCcsICc3LjAnLCAnLXRuJywgJzgnLCAnLW1hJywgJzIwMCcsICctbWV0YWxfYmluZGluZycsICctaW1hZScsICc8aW5maWxlLm1hZT4nLCAnLW9tYWUnLCAnPG91dGZpbGUubWFlPic=

> <r_lp_tautomer_probability>
1

> <r_epik_Ionization_Penalty>
1.03571

> <r_epik_Ionization_Penalty_Charging>
1.03568

> <r_epik_Ionization_Penalty_Neutral>
3.18232e-05

> <r_epik_State_Penalty>
1.08724

> <r_epik_Charging_Adjusted_Penalty>
2.12292

> <i_epik_Tot_Q>
1

> <i_epik_Tot_abs_Q>
1

> <r_epik_Metal_State_Penalty>
1.18374

> <b_epik_Metal_Only>
0

> <s_lp_Force_Field>
OPLS_2005

> <r_lp_Energy>
24.5371

> <b_lp_Chiralities_Consistent>
1

> <s_lp_Variant>
AV-unprocessed.smi:2410-3

> <Gold.Version>
5.8.1

> <Gold.Id.Protein>
6NUR|6NUR_protein|mol2

> <Gold.PLP.Fitness>
58.0774

> <Gold.PLP.PLP>
-44.8658

> <Gold.PLP.part.hbond>
-3.5005

> <Gold.PLP.part.metal>
0.0000

> <Gold.PLP.part.buried>
-4.3052

> <Gold.PLP.part.nonpolar>
-37.3931

> <Gold.PLP.part.repulsive>
0.3719

> <Gold.PLP.ligand.clash>
0.0000

> <Gold.PLP.ligand.torsion>
0.3505

> <Gold.PLP.Chemscore.Hbond>
3.6400

> <Gold.PLP.Chemscore.CHOScore>
0.9806

> <Gold.PLP.Chemscore.Metal>
0.0000

> <Gold.Chemscore.Hbonds>
donor molecule, donor type, donor heavy atom, donor atom, acceptor molecule, acceptor atom, score
      L1  H     5    47       P1  8028  1.82
      P1  H  7997  8008       L1    10  0.75
      P1  H 10752 10765       L1    20  0.84
      L1  C    13    36       P1  7957  0.32

> <Gold.PLP.Chemscore.Internal.Correction>
0.0509

> <Gold.Rescore>
     Score         DG    S(hbond)    S(metal)    S(lipo)     H(rot)  DE(clash)    DE(int)     intcor
     18.71     -20.34       2.52        0.00     107.61       2.41       0.13       1.49       ----

> <Gold.Chemscore.Fitness>
18.7146

> <Gold.Chemscore.DG>
-20.3396

> <Gold.Chemscore.ZeroCoef>
-5.4800

> <Gold.Chemscore.Hbond>
2.5228

> <Gold.Chemscore.Metal>
0.0000

> <Gold.Chemscore.Lipo>
107.6126

> <Gold.Chemscore.Internal_Hbond>
0.0000

> <Gold.Chemscore.DEClash>
0.1303

> <Gold.Chemscore.DEInternal>
1.4947

> <Gold.Chemscore.Rot>
2.4052

> <Gold.Chemscore.Internal.Correction>
   9.000000E+99

> <Gold.Chemscore.Hbonds>
donor molecule, donor type, donor heavy atom, donor atom, acceptor molecule, acceptor atom, score
      L1  H     5    47       P1  8028  0.89
      P1  H  7997  8008       L1    10  0.62
      P1  H 10752 10765       L1    20  0.84

> <Gold.Chemscore.Hbond.Weighted>
-8.4262

> <Gold.Chemscore.Metal.Weighted>
-0.0000

> <Gold.Chemscore.Lipo.Weighted>
-12.5907

> <Gold.Chemscore.Internal_Hbond.Weighted>
0.0000

> <Gold.Chemscore.DEClash.Weighted>
0.1303

> <Gold.Chemscore.DEInternal.Weighted>
1.4947

> <Gold.Chemscore.Rot.Weighted>
6.1573

> <Gold.Chemscore.Internal.Correction.Weighted>
   9.000000E+99

> <Gold.Protein.RotatedTorsions>
[ 6907 6896 6895 6894 ] final  -89.84 input  -60.11 | X-H torsion
[ 7974 7965 7964 7962 ] final -177.22 input  175.53 | X-H torsion
[ 8008 7997 7996 7995 ] final  -40.29 input   59.86 | X-H torsion
[ 10167 10162 10161 10158 ] final  -40.09 input  -65.29 | X-H torsion
[ 10718 10713 10712 10709 ] final  151.28 input   66.30 | X-H torsion
[ 10763 10752 10751 10750 ] final -179.40 input  -60.55 | X-H torsion
[ 11005 11000 10999 10996 ] final -102.07 input  -57.11 | X-H torsion

> <Gold.Protein.ActiveResidues>
 VAL166  LYS551  ARG553  GLY616  TRP617  ASP618  TYR619  PRO620  LYS621  CYS622 
 ASP623  PHE694  ASN695  SER759  ASP760  ASP761  ALA762  ILE779  LEU786  VAL792 
 PHE793  MET794  SER795  GLU796  ALA797  LYS798  CYS799  TRP800  GLU811  SER814 

> <Gold.Protein.RotatedAtoms>
  150.6877  134.2525  159.4516 H   0  0  0  0  0  0  0  0  0  0  0  0  # atno 6907 bound_to 6896
  152.0461  134.9679  160.0583 H   0  0  0  0  0  0  0  0  0  0  0  0  # atno 6908 bound_to 6896
  152.1162  133.4293  159.4691 H   0  0  0  0  0  0  0  0  0  0  0  0  # atno 6909 bound_to 6896
  144.7127  140.1052  143.6414 H   0  0  0  0  0  0  0  0  0  0  0  0  # atno 7974 bound_to 7965
  154.4013  140.1529  156.3003 H   0  0  0  0  0  0  0  0  0  0  0  0  # atno 8008 bound_to 7997
  155.8707  140.3449  155.5797 H   0  0  0  0  0  0  0  0  0  0  0  0  # atno 8009 bound_to 7997
  155.7778  140.0839  157.2065 H   0  0  0  0  0  0  0  0  0  0  0  0  # atno 8010 bound_to 7997
  140.7045  143.3174  151.2875 H   0  0  0  0  0  0  0  0  0  0  0  0  # atno 10167 bound_to 10162
  157.2728  131.0820  151.1588 H   0  0  0  0  0  0  0  0  0  0  0  0  # atno 10718 bound_to 10713
  154.5355  135.2802  155.1142 H   0  0  0  0  0  0  0  0  0  0  0  0  # atno 10763 bound_to 10752
  154.2646  135.6315  153.5291 H   0  0  0  0  0  0  0  0  0  0  0  0  # atno 10764 bound_to 10752
  152.9966  135.5613  154.5880 H   0  0  0  0  0  0  0  0  0  0  0  0  # atno 10765 bound_to 10752
  141.1205  133.8528  157.1312 H   0  0  0  0  0  0  0  0  0  0  0  0  # atno 11005 bound_to 11000
  145.9503  139.2729  143.1216 LP  0  0  0  0  0  0  0  0  0  0  0  0  # atno 17320 bound_to 7965
  145.9330  140.9035  143.0347 LP  0  0  0  0  0  0  0  0  0  0  0  0  # atno 17321 bound_to 7965
  139.6617  144.0177  152.2697 LP  0  0  0  0  0  0  0  0  0  0  0  0  # atno 17342 bound_to 10162
  139.9747  144.6470  150.7957 LP  0  0  0  0  0  0  0  0  0  0  0  0  # atno 17343 bound_to 10162
  157.3053  130.6863  149.6186 LP  0  0  0  0  0  0  0  0  0  0  0  0  # atno 17370 bound_to 10713
  155.9663  130.4380  150.5198 LP  0  0  0  0  0  0  0  0  0  0  0  0  # atno 17371 bound_to 10713
  140.0158  134.9968  157.0491 LP  0  0  0  0  0  0  0  0  0  0  0  0  # atno 17394 bound_to 11000
  140.4522  134.1571  155.7182 LP  0  0  0  0  0  0  0  0  0  0  0  0  # atno 17395 bound_to 11000

$$$$
