AV-unprocessed.smi:287|AV-procd|sdf|2186|dock6
  -GOLD-   2262021573D 1   1.00000     0.00000
 Structure written by MMmdl.
 55 58  0  0  0  0  0  0  0  0  1 V2000
  148.7214  140.8127  154.4859 C   0  0  0  0  0  0  0  0  0  0  0  0
  149.5703  139.6996  154.9969 C   0  0  0  0  0  0  0  0  0  0  0  0
  149.3064  138.5444  155.6728 C   0  0  0  0  0  0  0  0  0  0  0  0
  150.5496  137.8725  155.8713 C   0  0  0  0  0  0  0  0  0  0  0  0
  150.7388  136.5341  156.5734 C   0  0  2  0  0  0  0  0  0  0  0  0
  151.7744  136.6772  157.7009 C   0  0  0  0  0  0  0  0  0  0  0  0
  151.2522  135.5317  155.7177 O   0  0  0  0  0  0  0  0  0  0  0  0
  149.4119  135.9743  157.1353 C   0  0  0  0  0  0  0  0  0  0  0  0
  149.4360  134.5244  157.2987 N   0  0  0  0  0  0  0  0  0  0  0  0
  148.4205  133.7694  156.8318 C   0  0  0  0  0  0  0  0  0  0  0  0
  147.9267  132.7322  157.5570 N   0  0  0  0  0  0  0  0  0  0  0  0
  146.9151  132.0040  157.0749 C   0  0  0  0  0  0  0  0  0  0  0  0
  146.2661  132.1416  155.9165 N   0  0  0  0  0  0  0  0  0  0  0  0
  146.7613  133.1803  155.1833 C   0  0  0  0  0  0  0  0  0  0  0  0
  147.8308  134.0350  155.5695 C   0  0  0  0  0  0  0  0  0  0  0  0
  148.0609  134.9798  154.5784 N   0  0  0  0  0  0  0  0  0  0  0  0
  147.1737  134.6981  153.6625 C   0  0  0  0  0  0  0  0  0  0  0  0
  146.3519  133.6293  153.9443 N   0  0  0  0  0  0  0  0  0  0  0  0
  145.2474  133.0820  153.1013 C   0  0  2  0  0  0  0  0  0  0  0  0
  145.8196  132.3975  152.0329 O   0  0  0  0  0  0  0  0  0  0  0  0
  144.9767  132.5436  150.9010 C   0  0  2  0  0  0  0  0  0  0  0  0
  145.7167  132.1624  149.6065 C   0  0  0  0  0  0  0  0  0  0  0  0
  144.9226  132.4709  148.4806 O   0  0  0  0  0  0  0  0  0  0  0  0
  144.4612  133.9868  151.0174 C   0  0  2  0  0  0  0  0  0  0  0  0
  145.3608  134.9119  150.4369 O   0  0  0  0  0  0  0  0  0  0  0  0
  144.3679  134.2090  152.5268 C   0  0  1  0  0  0  0  0  0  0  0  0
  143.0238  134.0623  152.9398 O   0  0  0  0  0  0  0  0  0  0  0  0
  151.4890  138.6989  155.3024 C   0  0  0  0  0  0  0  0  0  0  0  0
  152.9731  138.6351  155.1519 C   0  0  0  0  0  0  0  0  0  0  0  0
  150.9030  139.8067  154.7677 O   0  0  0  0  0  0  0  0  0  0  0  0
  144.7079  132.3908  153.7510 H   0  0  0  0  0  0  0  0  0  0  0  0
  144.1373  131.8603  151.0449 H   0  0  0  0  0  0  0  0  0  0  0  0
  143.5007  134.1059  150.5142 H   0  0  0  0  0  0  0  0  0  0  0  0
  144.7313  135.1929  152.8284 H   0  0  0  0  0  0  0  0  0  0  0  0
  147.6628  140.5773  154.5975 H   0  0  0  0  0  0  0  0  0  0  0  0
  148.9167  140.9944  153.4289 H   0  0  0  0  0  0  0  0  0  0  0  0
  148.9228  141.7344  155.0317 H   0  0  0  0  0  0  0  0  0  0  0  0
  148.3275  138.2105  155.9835 H   0  0  0  0  0  0  0  0  0  0  0  0
  151.4545  137.4113  158.4413 H   0  0  0  0  0  0  0  0  0  0  0  0
  152.7407  137.0031  157.3135 H   0  0  0  0  0  0  0  0  0  0  0  0
  151.9295  135.7326  158.2241 H   0  0  0  0  0  0  0  0  0  0  0  0
  150.5439  135.1982  155.1887 H   0  0  0  0  0  0  0  0  0  0  0  0
  149.1490  136.4594  158.0767 H   0  0  0  0  0  0  0  0  0  0  0  0
  148.6117  136.2068  156.4307 H   0  0  0  0  0  0  0  0  0  0  0  0
  150.2813  134.1383  157.6949 H   0  0  0  0  0  0  0  0  0  0  0  0
  146.5770  131.1968  157.7076 H   0  0  0  0  0  0  0  0  0  0  0  0
  147.0945  135.2683  152.7485 H   0  0  0  0  0  0  0  0  0  0  0  0
  146.6815  132.6640  149.5294 H   0  0  0  0  0  0  0  0  0  0  0  0
  145.9179  131.0910  149.5974 H   0  0  0  0  0  0  0  0  0  0  0  0
  145.2002  133.3062  148.1368 H   0  0  0  0  0  0  0  0  0  0  0  0
  145.5111  134.6580  149.5381 H   0  0  0  0  0  0  0  0  0  0  0  0
  142.9043  133.1829  153.2645 H   0  0  0  0  0  0  0  0  0  0  0  0
  153.4549  138.5136  156.1220 H   0  0  0  0  0  0  0  0  0  0  0  0
  153.3639  139.5451  154.6957 H   0  0  0  0  0  0  0  0  0  0  0  0
  153.2607  137.7936  154.5216 H   0  0  0  0  0  0  0  0  0  0  0  0
  1  2  1  0  0  0  0
  1 35  1  0  0  0  0
  1 36  1  0  0  0  0
  1 37  1  0  0  0  0
  2 30  1  0  0  0  0
  2  3  2  0  0  0  0
  3  4  1  0  0  0  0
  3 38  1  0  0  0  0
  4  5  1  0  0  0  0
  4 28  2  0  0  0  0
  5  6  1  0  0  0  0
  5  7  1  0  0  0  0
  5  8  1  0  0  0  0
  6 39  1  0  0  0  0
  6 40  1  0  0  0  0
  6 41  1  0  0  0  0
  7 42  1  0  0  0  0
  8  9  1  0  0  0  0
  8 43  1  0  0  0  0
  8 44  1  0  0  0  0
  9 10  1  0  0  0  0
  9 45  1  0  0  0  0
 10 15  1  0  0  0  0
 10 11  2  0  0  0  0
 11 12  1  0  0  0  0
 12 13  2  0  0  0  0
 12 46  1  0  0  0  0
 13 14  1  0  0  0  0
 14 18  1  0  0  0  0
 14 15  2  0  0  0  0
 15 16  1  0  0  0  0
 16 17  2  0  0  0  0
 17 18  1  0  0  0  0
 17 47  1  0  0  0  0
 18 19  1  0  0  0  0
 19 31  1  0  0  0  0
 19 26  1  0  0  0  0
 19 20  1  0  0  0  0
 20 21  1  0  0  0  0
 21 32  1  0  0  0  0
 21 22  1  0  0  0  0
 21 24  1  0  0  0  0
 22 23  1  0  0  0  0
 22 48  1  0  0  0  0
 22 49  1  0  0  0  0
 23 50  1  0  0  0  0
 24 33  1  0  0  0  0
 24 25  1  0  0  0  0
 24 26  1  0  0  0  0
 25 51  1  0  0  0  0
 26 34  1  0  0  0  0
 26 27  1  0  0  0  0
 27 52  1  0  0  0  0
 28 29  1  0  0  0  0
 28 30  1  0  0  0  0
 29 53  1  0  0  0  0
 29 54  1  0  0  0  0
 29 55  1  0  0  0  0
M  END
> <s_m_source_file>
AV-unprocessed.smi

> <i_m_source_file_index>
287

> <i_lp_mmshare_version>
43012

> <i_f3d_flags>
0

> <s_epik_input>
W0NIM11jMVtjSF1jKGMobzEpW0NIM10pW0NAQF0oW0NIM10pKFtPSF0pW0NIMl1bTkhdYyhuW2NIXW4yKWMoYzIzKW5bY0hdbjNbQ0BASF00T1tDQEhdKFtDSDJdW09IXSlbQ0BASF0oW09IXSlbQ0BIXTRbT0hd

> <s_epik_cmdline>
J2VwaWtfcHl0aG9uJywgJy1waCcsICc3LjAnLCAnLXRuJywgJzgnLCAnLW1hJywgJzIwMCcsICctbWV0YWxfYmluZGluZycsICctaW1hZScsICc8aW5maWxlLm1hZT4nLCAnLW9tYWUnLCAnPG91dGZpbGUubWFlPic=

> <r_lp_tautomer_probability>
1

> <r_epik_Ionization_Penalty>
0.000992612

> <r_epik_Ionization_Penalty_Charging>
0

> <r_epik_Ionization_Penalty_Neutral>
0.000992612

> <r_epik_State_Penalty>
-0

> <r_epik_Charging_Adjusted_Penalty>
0

> <i_epik_Tot_Q>
0

> <i_epik_Tot_abs_Q>
0

> <r_epik_Metal_State_Penalty>
-0

> <b_epik_Metal_Only>
0

> <s_epik_Chemistry_Notes>
This compound contains an acetal/aminal-like group ( X-CH(R)-Y where X, Y are N, S, or O) that may be acid/base labile, releasing an aldehyde.

> <s_lp_Force_Field>
OPLS_2005

> <r_lp_Energy>
38.0531

> <b_lp_Chiralities_Consistent>
1

> <s_lp_Variant>
AV-unprocessed.smi:287-10

> <Gold.Version>
5.8.1

> <Gold.Id.Protein>
6NUR|6NUR_protein|mol2

> <Gold.PLP.Fitness>
50.4962

> <Gold.PLP.PLP>
-35.8304

> <Gold.PLP.part.hbond>
-6.1439

> <Gold.PLP.part.metal>
0.0000

> <Gold.PLP.part.buried>
-6.1567

> <Gold.PLP.part.nonpolar>
-24.6280

> <Gold.PLP.part.repulsive>
1.9876

> <Gold.PLP.ligand.clash>
0.0000

> <Gold.PLP.ligand.torsion>
1.2069

> <Gold.PLP.Chemscore.Hbond>
5.0000

> <Gold.PLP.Chemscore.CHOScore>
0.6535

> <Gold.PLP.Chemscore.Metal>
0.0000

> <Gold.Chemscore.Hbonds>
donor molecule, donor type, donor heavy atom, donor atom, acceptor molecule, acceptor atom, score
      L1  H    23    50       P1  7921  1.00
      L1  H    25    51       P1  7921  1.00
      L1  H    27    52       P1 10957  0.88
      P1  H  7989  7998       L1    30  1.00
      P1  H 10752 10764       L1     7  1.00
      L1  C    17    47       P1  7948  0.80

> <Gold.PLP.Chemscore.Internal.Correction>
0.1192

> <Gold.Rescore>
     Score         DG    S(hbond)    S(metal)    S(lipo)     H(rot)  DE(clash)    DE(int)     intcor
     13.76     -16.38       4.53        0.00      79.13       5.27       1.37       1.25       ----

> <Gold.Chemscore.Fitness>
13.7593

> <Gold.Chemscore.DG>
-16.3807

> <Gold.Chemscore.ZeroCoef>
-5.4800

> <Gold.Chemscore.Hbond>
4.5290

> <Gold.Chemscore.Metal>
0.0000

> <Gold.Chemscore.Lipo>
79.1274

> <Gold.Chemscore.Internal_Hbond>
0.0000

> <Gold.Chemscore.DEClash>
1.3705

> <Gold.Chemscore.DEInternal>
1.2509

> <Gold.Chemscore.Rot>
5.2672

> <Gold.Chemscore.Internal.Correction>
   9.000000E+99

> <Gold.Chemscore.Hbonds>
donor molecule, donor type, donor heavy atom, donor atom, acceptor molecule, acceptor atom, score
      L1  H    23    50       P1  7921  0.30
      L1  H    25    51       P1  7921  0.92
      L1  H    27    52       P1 10957  0.74
      P1  H  7989  7998       L1    30  0.99
      P1  H 10752 10764       L1     7  0.93

> <Gold.Chemscore.Hbond.Weighted>
-15.1267

> <Gold.Chemscore.Metal.Weighted>
-0.0000

> <Gold.Chemscore.Lipo.Weighted>
-9.2579

> <Gold.Chemscore.Internal_Hbond.Weighted>
0.0000

> <Gold.Chemscore.DEClash.Weighted>
1.3705

> <Gold.Chemscore.DEInternal.Weighted>
1.2509

> <Gold.Chemscore.Rot.Weighted>
13.4839

> <Gold.Chemscore.Internal.Correction.Weighted>
   9.000000E+99

> <Gold.Protein.RotatedTorsions>
[ 6907 6896 6895 6894 ] final  162.88 input  -60.11 | X-H torsion
[ 7974 7965 7964 7962 ] final   43.24 input  175.53 | X-H torsion
[ 8008 7997 7996 7995 ] final  159.63 input   59.86 | X-H torsion
[ 10167 10162 10161 10158 ] final  -88.82 input  -65.29 | X-H torsion
[ 10718 10713 10712 10709 ] final  179.06 input   66.30 | X-H torsion
[ 10763 10752 10751 10750 ] final  -36.08 input  -60.55 | X-H torsion
[ 11005 11000 10999 10996 ] final  150.04 input  -57.11 | X-H torsion

> <Gold.Protein.ActiveResidues>
 VAL166  LYS551  ARG553  GLY616  TRP617  ASP618  TYR619  PRO620  LYS621  CYS622 
 ASP623  PHE694  ASN695  SER759  ASP760  ASP761  ALA762  ILE779  LEU786  VAL792 
 PHE793  MET794  SER795  GLU796  ALA797  LYS798  CYS799  TRP800  GLU811  SER814 

> <Gold.Protein.RotatedAtoms>
  151.9338  133.3618  159.3939 H   0  0  0  0  0  0  0  0  0  0  0  0  # atno 6907 bound_to 6896
  150.7012  134.4510  159.5345 H   0  0  0  0  0  0  0  0  0  0  0  0  # atno 6908 bound_to 6896
  152.2155  134.8461  160.0543 H   0  0  0  0  0  0  0  0  0  0  0  0  # atno 6909 bound_to 6896
  146.0672  139.5209  142.9621 H   0  0  0  0  0  0  0  0  0  0  0  0  # atno 7974 bound_to 7965
  156.2226  140.1826  156.7440 H   0  0  0  0  0  0  0  0  0  0  0  0  # atno 8008 bound_to 7997
  154.5889  140.0654  156.9239 H   0  0  0  0  0  0  0  0  0  0  0  0  # atno 8009 bound_to 7997
  155.2370  140.3319  155.4299 H   0  0  0  0  0  0  0  0  0  0  0  0  # atno 8010 bound_to 7997
  140.3709  143.2795  151.9501 H   0  0  0  0  0  0  0  0  0  0  0  0  # atno 10167 bound_to 10162
  156.8814  130.9817  151.3061 H   0  0  0  0  0  0  0  0  0  0  0  0  # atno 10718 bound_to 10713
  153.8739  135.6828  153.4772 H   0  0  0  0  0  0  0  0  0  0  0  0  # atno 10763 bound_to 10752
  153.1272  135.4714  154.9288 H   0  0  0  0  0  0  0  0  0  0  0  0  # atno 10764 bound_to 10752
  154.7701  135.3236  154.8158 H   0  0  0  0  0  0  0  0  0  0  0  0  # atno 10765 bound_to 10752
  140.1096  134.8932  157.1917 H   0  0  0  0  0  0  0  0  0  0  0  0  # atno 11005 bound_to 11000
  145.6456  141.0275  143.1788 LP  0  0  0  0  0  0  0  0  0  0  0  0  # atno 17320 bound_to 7965
  144.7209  139.8032  143.7382 LP  0  0  0  0  0  0  0  0  0  0  0  0  # atno 17321 bound_to 7965
  139.4804  144.5907  151.7776 LP  0  0  0  0  0  0  0  0  0  0  0  0  # atno 17342 bound_to 10162
  140.5034  144.1135  150.5976 LP  0  0  0  0  0  0  0  0  0  0  0  0  # atno 17343 bound_to 10162
  157.6138  130.8603  149.8995 LP  0  0  0  0  0  0  0  0  0  0  0  0  # atno 17370 bound_to 10713
  156.0675  130.3690  150.0846 LP  0  0  0  0  0  0  0  0  0  0  0  0  # atno 17371 bound_to 10713
  140.3108  134.3025  155.7267 LP  0  0  0  0  0  0  0  0  0  0  0  0  # atno 17394 bound_to 11000
  141.2127  133.7649  156.9774 LP  0  0  0  0  0  0  0  0  0  0  0  0  # atno 17395 bound_to 11000

$$$$
