AV-unprocessed.smi:72|AV-procd|sdf|732|dock2
  -GOLD-   2262017 63D 1   1.00000     0.00000
 Structure written by MMmdl.
 28 29  0  0  0  0  0  0  0  0  2 V2000
  153.9181  137.8052  155.6287 N   0  0  0  0  0  0  0  0  0  0  0  0
  152.7775  138.2779  155.3717 C   0  0  0  0  0  0  0  0  0  0  0  0
  151.7919  137.4611  154.6980 N   0  0  0  0  0  0  0  0  0  0  0  0
  150.6290  137.9865  154.4628 C   0  0  0  0  0  0  0  0  0  0  0  0
  150.3058  139.3512  154.8604 N   0  0  0  0  0  0  0  0  0  0  0  0
  148.9442  139.9732  154.5929 C   0  0  1  0  0  0  0  0  0  0  0  0
  148.5258  139.6700  153.2917 O   0  0  0  0  0  0  0  0  0  0  0  0
  147.4445  138.7457  153.3279 C   0  0  2  0  0  0  0  0  0  0  0  0
  146.6353  138.7938  152.0200 C   0  0  0  0  0  0  0  0  0  0  0  0
  147.1268  137.8402  151.1020 O   0  0  0  0  0  0  0  0  0  0  0  0
  146.7043  139.1074  154.6214 C   0  0  2  0  0  0  0  0  0  0  0  0
  145.8395  140.2113  154.4272 O   0  0  0  0  0  0  0  0  0  0  0  0
  147.8410  139.4806  155.5647 C   0  0  1  0  0  0  0  0  0  0  0  0
  148.2134  138.3493  156.3334 O   0  0  0  0  0  0  0  0  0  0  0  0
  151.2958  140.1307  155.5163 C   0  0  0  0  0  0  0  0  0  0  0  0
  151.0023  141.2796  155.8482 O   0  0  0  0  0  0  0  0  0  0  0  0
  152.5175  139.5756  155.7522 N   0  5  0  0  0  0  0  0  0  0  0  0
  149.1019  141.0520  154.6358 H   0  0  0  0  0  0  0  0  0  0  0  0
  147.8697  137.7473  153.4427 H   0  0  0  0  0  0  0  0  0  0  0  0
  146.1054  138.2750  154.9934 H   0  0  0  0  0  0  0  0  0  0  0  0
  147.5668  140.2837  156.2503 H   0  0  0  0  0  0  0  0  0  0  0  0
  154.0242  136.8511  155.3168 H   0  0  0  0  0  0  0  0  0  0  0  0
  149.8334  137.4399  153.9577 H   0  0  0  0  0  0  0  0  0  0  0  0
  145.5734  138.6224  152.1970 H   0  0  0  0  0  0  0  0  0  0  0  0
  146.7238  139.7820  151.5678 H   0  0  0  0  0  0  0  0  0  0  0  0
  147.4333  137.0882  151.5858 H   0  0  0  0  0  0  0  0  0  0  0  0
  145.2159  139.9861  153.7540 H   0  0  0  0  0  0  0  0  0  0  0  0
  147.6831  137.6153  156.0637 H   0  0  0  0  0  0  0  0  0  0  0  0
  1  2  2  0  0  0  0
  1 22  1  0  0  0  0
  2 17  1  0  0  0  0
  2  3  1  0  0  0  0
  3  4  2  0  0  0  0
  4  5  1  0  0  0  0
  4 23  1  0  0  0  0
  5  6  1  0  0  0  0
  5 15  1  0  0  0  0
  6 18  1  0  0  0  0
  6 13  1  0  0  0  0
  6  7  1  0  0  0  0
  7  8  1  0  0  0  0
  8 19  1  0  0  0  0
  8  9  1  0  0  0  0
  8 11  1  0  0  0  0
  9 10  1  0  0  0  0
  9 24  1  0  0  0  0
  9 25  1  0  0  0  0
 10 26  1  0  0  0  0
 11 20  1  0  0  0  0
 11 12  1  0  0  0  0
 11 13  1  0  0  0  0
 12 27  1  0  0  0  0
 13 21  1  0  0  0  0
 13 14  1  0  0  0  0
 14 28  1  0  0  0  0
 15 16  2  0  0  0  0
 15 17  1  0  0  0  0
M  CHG  1  17  -1
M  END
> <s_m_source_file>
AV-unprocessed.smi

> <i_m_source_file_index>
72

> <i_lp_mmshare_version>
43012

> <i_f3d_flags>
0

> <s_epik_input>
W05IMl1jMW5bY0hdbihjKD1PKW4xKVtDQEBIXTJPW0NASF0oW0NIMl1bT0hdKVtDQEBIXShbT0hdKVtDQEhdMltPSF0=

> <s_epik_cmdline>
J2VwaWtfcHl0aG9uJywgJy1waCcsICc3LjAnLCAnLXRuJywgJzgnLCAnLW1hJywgJzIwMCcsICctbWV0YWxfYmluZGluZycsICctaW1hZScsICc8aW5maWxlLm1hZT4nLCAnLW9tYWUnLCAnPG91dGZpbGUubWFlPic=

> <r_lp_tautomer_probability>
7.17554e-07

> <r_epik_Ionization_Penalty>
12.8705

> <r_epik_Ionization_Penalty_Charging>
5.64144

> <r_epik_Ionization_Penalty_Neutral>
7.22905

> <r_epik_State_Penalty>
3.30104

> <r_epik_Charging_Adjusted_Penalty>
8.94249

> <i_epik_Tot_Q>
-1

> <i_epik_Tot_abs_Q>
1

> <r_epik_Metal_State_Penalty>
0.529074

> <b_epik_Metal_Only>
1

> <s_epik_Chemistry_Notes>
This compound contains an acetal/aminal-like group ( X-CH(R)-Y where X, Y are N, S, or O) that may be acid/base labile, releasing an aldehyde.

> <s_lp_Force_Field>
OPLS_2005

> <r_lp_Energy>
37.8021

> <b_lp_Chiralities_Consistent>
1

> <s_lp_Variant>
AV-unprocessed.smi:72-70

> <Gold.Version>
5.8.1

> <Gold.Id.Protein>
6NUR|6NUR_protein|mol2

> <Gold.PLP.Fitness>
41.6514

> <Gold.PLP.PLP>
-24.2658

> <Gold.PLP.part.hbond>
-7.5249

> <Gold.PLP.part.metal>
0.0000

> <Gold.PLP.part.buried>
-4.5059

> <Gold.PLP.part.nonpolar>
-18.9437

> <Gold.PLP.part.repulsive>
4.7934

> <Gold.PLP.ligand.clash>
0.0000

> <Gold.PLP.ligand.torsion>
0.8272

> <Gold.PLP.Chemscore.Hbond>
5.3332

> <Gold.PLP.Chemscore.CHOScore>
1.0000

> <Gold.PLP.Chemscore.Metal>
0.0000

> <Gold.Chemscore.Hbonds>
donor molecule, donor type, donor heavy atom, donor atom, acceptor molecule, acceptor atom, score
      L1  H    10    26       P1  7948  0.74
      L1  H    12    27       P1 10175  0.94
      P1  H  7954  7966       L1    10  1.00
      P1  H  7997  8008       L1    17  2.00
      P1  H 10752 10765       L1     3  0.66
      L1  C     4    23       P1  7948  0.97

> <Gold.PLP.Chemscore.Internal.Correction>
0.0404

> <Gold.Rescore>
     Score         DG    S(hbond)    S(metal)    S(lipo)     H(rot)  DE(clash)    DE(int)     intcor
      4.76      -7.37       2.95        0.00      20.31       4.04       1.79       0.82       ----

> <Gold.Chemscore.Fitness>
4.7568

> <Gold.Chemscore.DG>
-7.3674

> <Gold.Chemscore.ZeroCoef>
-5.4800

> <Gold.Chemscore.Hbond>
2.9502

> <Gold.Chemscore.Metal>
0.0000

> <Gold.Chemscore.Lipo>
20.3137

> <Gold.Chemscore.Internal_Hbond>
0.0000

> <Gold.Chemscore.DEClash>
1.7907

> <Gold.Chemscore.DEInternal>
0.8199

> <Gold.Chemscore.Rot>
4.0403

> <Gold.Chemscore.Internal.Correction>
   9.000000E+99

> <Gold.Chemscore.Hbonds>
donor molecule, donor type, donor heavy atom, donor atom, acceptor molecule, acceptor atom, score
      L1  H    10    26       P1  7948  0.74
      L1  H    12    27       P1 10175  0.86
      P1  H  7954  7966       L1    10  0.29
      P1  H  7997  8008       L1    17  0.24
      P1  H 10752 10765       L1     3  0.16

> <Gold.Chemscore.Hbond.Weighted>
-9.8538

> <Gold.Chemscore.Metal.Weighted>
-0.0000

> <Gold.Chemscore.Lipo.Weighted>
-2.3767

> <Gold.Chemscore.Internal_Hbond.Weighted>
0.0000

> <Gold.Chemscore.DEClash.Weighted>
1.7907

> <Gold.Chemscore.DEInternal.Weighted>
0.8199

> <Gold.Chemscore.Rot.Weighted>
10.3431

> <Gold.Chemscore.Internal.Correction.Weighted>
   9.000000E+99

> <Gold.Protein.RotatedTorsions>
[ 6907 6896 6895 6894 ] final   36.29 input  -60.11 | X-H torsion
[ 7974 7965 7964 7962 ] final  -62.00 input  175.53 | X-H torsion
[ 8008 7997 7996 7995 ] final  -50.25 input   59.86 | X-H torsion
[ 10167 10162 10161 10158 ] final -117.88 input  -65.29 | X-H torsion
[ 10718 10713 10712 10709 ] final -161.36 input   66.30 | X-H torsion
[ 10763 10752 10751 10750 ] final  166.64 input  -60.55 | X-H torsion
[ 11005 11000 10999 10996 ] final  149.68 input  -57.11 | X-H torsion

> <Gold.Protein.ActiveResidues>
 VAL166  LYS551  ARG553  GLY616  TRP617  ASP618  TYR619  PRO620  LYS621  CYS622 
 ASP623  PHE694  ASN695  SER759  ASP760  ASP761  ALA762  ILE779  LEU786  VAL792 
 PHE793  MET794  SER795  GLU796  ALA797  LYS798  CYS799  TRP800  GLU811  SER814 

> <Gold.Protein.RotatedAtoms>
  152.1278  134.9158  160.0559 H   0  0  0  0  0  0  0  0  0  0  0  0  # atno 6907 bound_to 6896
  152.0274  133.3918  159.4291 H   0  0  0  0  0  0  0  0  0  0  0  0  # atno 6908 bound_to 6896
  150.6854  134.3480  159.4940 H   0  0  0  0  0  0  0  0  0  0  0  0  # atno 6909 bound_to 6896
  145.7966  140.8679  143.0253 H   0  0  0  0  0  0  0  0  0  0  0  0  # atno 7974 bound_to 7965
  154.4058  140.1277  156.4635 H   0  0  0  0  0  0  0  0  0  0  0  0  # atno 8008 bound_to 7997
  155.7249  140.3492  155.5013 H   0  0  0  0  0  0  0  0  0  0  0  0  # atno 8009 bound_to 7997
  155.9180  140.1047  157.1219 H   0  0  0  0  0  0  0  0  0  0  0  0  # atno 8010 bound_to 7997
  140.0636  143.4944  152.2018 H   0  0  0  0  0  0  0  0  0  0  0  0  # atno 10167 bound_to 10162
  156.5951  130.8787  151.2900 H   0  0  0  0  0  0  0  0  0  0  0  0  # atno 10718 bound_to 10713
  154.3420  135.2754  155.2417 H   0  0  0  0  0  0  0  0  0  0  0  0  # atno 10763 bound_to 10752
  154.4683  135.5889  153.6307 H   0  0  0  0  0  0  0  0  0  0  0  0  # atno 10764 bound_to 10752
  152.9857  135.6082  154.3623 H   0  0  0  0  0  0  0  0  0  0  0  0  # atno 10765 bound_to 10752
  140.1065  134.8951  157.1874 H   0  0  0  0  0  0  0  0  0  0  0  0  # atno 11005 bound_to 11000
  144.6774  140.0199  143.7484 LP  0  0  0  0  0  0  0  0  0  0  0  0  # atno 17320 bound_to 7965
  145.9921  139.3023  143.0978 LP  0  0  0  0  0  0  0  0  0  0  0  0  # atno 17321 bound_to 7965
  139.5879  144.7538  151.3474 LP  0  0  0  0  0  0  0  0  0  0  0  0  # atno 17342 bound_to 10162
  140.7160  143.7265  150.7656 LP  0  0  0  0  0  0  0  0  0  0  0  0  # atno 17343 bound_to 10162
  157.7294  130.9670  150.1784 LP  0  0  0  0  0  0  0  0  0  0  0  0  # atno 17370 bound_to 10713
  156.2516  130.3701  149.8226 LP  0  0  0  0  0  0  0  0  0  0  0  0  # atno 17371 bound_to 10713
  140.3148  134.2982  155.7259 LP  0  0  0  0  0  0  0  0  0  0  0  0  # atno 17394 bound_to 11000
  141.2119  133.7673  156.9828 LP  0  0  0  0  0  0  0  0  0  0  0  0  # atno 17395 bound_to 11000

$$$$
