AV-unprocessed.smi:3340|AV-procd|sdf|12880|dock4
  -GOLD-   2272019283D 1   1.00000     0.00000
 Structure written by MMmdl.
 42 43  0  0  0  0  0  0  0  0  2 V2000
  147.9301  139.0832  153.9452 C   0  0  0  0  0  0  0  0  0  0  0  0
  148.6133  140.3696  154.4143 C   0  0  0  0  0  0  0  0  0  0  0  0
  148.6036  141.3377  153.6537 O   0  0  0  0  0  0  0  0  0  0  0  0
  149.2011  140.4030  155.6346 N   0  0  0  0  0  0  0  0  0  0  0  0
  149.9221  141.5822  156.1381 C   0  0  0  0  0  0  0  0  0  0  0  0
  151.4058  141.2158  156.3432 C   0  0  0  0  0  0  0  0  0  0  0  0
  151.4924  140.0868  157.2892 N   0  0  0  0  0  0  0  0  0  0  0  0
  151.9728  140.1366  158.5570 C   0  0  0  0  0  0  0  0  0  0  0  0
  152.1867  139.1311  159.2346 O   0  0  0  0  0  0  0  0  0  0  0  0
  152.2528  141.3765  158.9998 N   0  0  0  0  0  0  0  0  0  0  0  0
  152.7986  141.7637  160.3044 C   0  0  1  0  0  0  0  0  0  0  0  0
  154.1928  141.1546  160.5296 C   0  0  0  0  0  0  0  0  0  0  0  0
  152.7854  143.2919  160.5398 C   0  0  0  0  0  0  0  0  0  0  0  0
  152.0716  144.0253  159.4898 N   0  0  0  0  0  0  0  0  0  0  0  0
  152.5729  144.4518  158.2868 C   0  0  0  0  0  0  0  0  0  0  0  0
  151.5455  145.0883  157.6393 C   0  0  0  0  0  0  0  0  0  0  0  0
  150.4625  145.0255  158.4749 N   0  3  0  0  0  0  0  0  0  0  0  0
  150.7854  144.3808  159.6009 C   0  0  0  0  0  0  0  0  0  0  0  0
  150.7798  138.9097  156.7698 C   0  0  0  0  0  0  0  0  0  0  0  0
  149.2943  139.2695  156.5686 C   0  0  0  0  0  0  0  0  0  0  0  0
  148.6446  138.2612  153.8968 H   0  0  0  0  0  0  0  0  0  0  0  0
  147.5071  139.2145  152.9486 H   0  0  0  0  0  0  0  0  0  0  0  0
  147.1165  138.8093  154.6174 H   0  0  0  0  0  0  0  0  0  0  0  0
  149.8496  142.4401  155.4683 H   0  0  0  0  0  0  0  0  0  0  0  0
  149.4763  141.9003  157.0819 H   0  0  0  0  0  0  0  0  0  0  0  0
  151.8522  140.9190  155.3928 H   0  0  0  0  0  0  0  0  0  0  0  0
  151.9536  142.1036  156.6578 H   0  0  0  0  0  0  0  0  0  0  0  0
  152.0553  142.1363  158.3646 H   0  0  0  0  0  0  0  0  0  0  0  0
  152.1338  141.3117  161.0411 H   0  0  0  0  0  0  0  0  0  0  0  0
  154.5397  141.3426  161.5459 H   0  0  0  0  0  0  0  0  0  0  0  0
  154.9337  141.5742  159.8486 H   0  0  0  0  0  0  0  0  0  0  0  0
  154.1787  140.0741  160.3828 H   0  0  0  0  0  0  0  0  0  0  0  0
  152.2981  143.5214  161.4887 H   0  0  0  0  0  0  0  0  0  0  0  0
  153.7952  143.6970  160.6092 H   0  0  0  0  0  0  0  0  0  0  0  0
  153.5961  144.2725  157.9887 H   0  0  0  0  0  0  0  0  0  0  0  0
  151.5052  145.5689  156.6726 H   0  0  0  0  0  0  0  0  0  0  0  0
  150.1348  144.1837  160.4343 H   0  0  0  0  0  0  0  0  0  0  0  0
  151.2262  138.6081  155.8212 H   0  0  0  0  0  0  0  0  0  0  0  0
  150.8639  138.0418  157.4251 H   0  0  0  0  0  0  0  0  0  0  0  0
  148.8441  139.5545  157.5208 H   0  0  0  0  0  0  0  0  0  0  0  0
  148.7507  138.3851  156.2402 H   0  0  0  0  0  0  0  0  0  0  0  0
  149.5486  145.4118  158.2731 H   0  0  0  0  0  0  0  0  0  0  0  0
  1  2  1  0  0  0  0
  1 21  1  0  0  0  0
  1 22  1  0  0  0  0
  1 23  1  0  0  0  0
  2  3  2  0  0  0  0
  2  4  1  0  0  0  0
  4 20  1  0  0  0  0
  4  5  1  0  0  0  0
  5  6  1  0  0  0  0
  5 24  1  0  0  0  0
  5 25  1  0  0  0  0
  6  7  1  0  0  0  0
  6 26  1  0  0  0  0
  6 27  1  0  0  0  0
  7  8  1  0  0  0  0
  7 19  1  0  0  0  0
  8  9  2  0  0  0  0
  8 10  1  0  0  0  0
 10 11  1  0  0  0  0
 10 28  1  0  0  0  0
 11 12  1  0  0  0  0
 11 13  1  0  0  0  0
 11 29  1  0  0  0  0
 12 30  1  0  0  0  0
 12 31  1  0  0  0  0
 12 32  1  0  0  0  0
 13 14  1  0  0  0  0
 13 33  1  0  0  0  0
 13 34  1  0  0  0  0
 14 18  1  0  0  0  0
 14 15  1  0  0  0  0
 15 16  2  0  0  0  0
 15 35  1  0  0  0  0
 16 17  1  0  0  0  0
 16 36  1  0  0  0  0
 17 18  2  0  0  0  0
 17 42  1  0  0  0  0
 18 37  1  0  0  0  0
 19 20  1  0  0  0  0
 19 38  1  0  0  0  0
 19 39  1  0  0  0  0
 20 40  1  0  0  0  0
 20 41  1  0  0  0  0
M  CHG  1  17   1
M  END
> <s_m_source_file>
AV-unprocessed.smi

> <i_m_source_file_index>
3340

> <i_lp_mmshare_version>
43012

> <i_f3d_flags>
0

> <s_epik_input>
W0NIM11DKD1PKU4xW0NIMl1bQ0gyXU4oW0NIMl1bQ0gyXTEpQyg9TylbTkhdW0NASF0oW0NIM10pW0NIMl1uMltjSF1bY0hdbltjSF0y

> <s_epik_cmdline>
J2VwaWtfcHl0aG9uJywgJy1waCcsICc3LjAnLCAnLXRuJywgJzgnLCAnLW1hJywgJzIwMCcsICctbWV0YWxfYmluZGluZycsICctaW1hZScsICc8aW5maWxlLm1hZT4nLCAnLW9tYWUnLCAnPG91dGZpbGUubWFlPic=

> <r_lp_tautomer_probability>
1

> <r_epik_Ionization_Penalty>
0.254791

> <r_epik_Ionization_Penalty_Charging>
0

> <r_epik_Ionization_Penalty_Neutral>
0.254791

> <r_epik_State_Penalty>
0.246235

> <r_epik_Charging_Adjusted_Penalty>
0.246235

> <i_epik_Tot_Q>
1

> <i_epik_Tot_abs_Q>
1

> <r_epik_Metal_State_Penalty>
0.536161

> <b_epik_Metal_Only>
0

> <s_lp_Force_Field>
OPLS_2005

> <r_lp_Energy>
52.654

> <b_lp_Chiralities_Consistent>
1

> <s_lp_Variant>
AV-unprocessed.smi:3340-2

> <Gold.Version>
5.8.1

> <Gold.Id.Protein>
6NUR|6NUR_protein|mol2

> <Gold.PLP.Fitness>
45.5178

> <Gold.PLP.PLP>
-39.3868

> <Gold.PLP.part.hbond>
-2.3855

> <Gold.PLP.part.metal>
0.0000

> <Gold.PLP.part.buried>
-6.6555

> <Gold.PLP.part.nonpolar>
-32.8016

> <Gold.PLP.part.repulsive>
1.6410

> <Gold.PLP.ligand.clash>
0.0000

> <Gold.PLP.ligand.torsion>
1.1732

> <Gold.PLP.Chemscore.Hbond>
2.8000

> <Gold.PLP.Chemscore.CHOScore>
0.0000

> <Gold.PLP.Chemscore.Metal>
0.0000

> <Gold.Chemscore.Hbonds>
donor molecule, donor type, donor heavy atom, donor atom, acceptor molecule, acceptor atom, score
      L1  H    17    42       P1  8029  2.00
      P1  H  8011  8017       L1     3  0.70

> <Gold.PLP.Chemscore.Internal.Correction>
0.0773

> <Gold.Rescore>
     Score         DG    S(hbond)    S(metal)    S(lipo)     H(rot)  DE(clash)    DE(int)     intcor
     13.18     -15.78       1.43        0.00      84.33       1.70       1.57       1.03       ----

> <Gold.Chemscore.Fitness>
13.1801

> <Gold.Chemscore.DG>
-15.7774

> <Gold.Chemscore.ZeroCoef>
-5.4800

> <Gold.Chemscore.Hbond>
1.4299

> <Gold.Chemscore.Metal>
0.0000

> <Gold.Chemscore.Lipo>
84.3339

> <Gold.Chemscore.Internal_Hbond>
0.0000

> <Gold.Chemscore.DEClash>
1.5663

> <Gold.Chemscore.DEInternal>
1.0310

> <Gold.Chemscore.Rot>
1.6975

> <Gold.Chemscore.Internal.Correction>
   9.000000E+99

> <Gold.Chemscore.Hbonds>
donor molecule, donor type, donor heavy atom, donor atom, acceptor molecule, acceptor atom, score
      L1  H    17    42       P1  8029  0.58
      P1  H  8011  8017       L1     3  0.68

> <Gold.Chemscore.Hbond.Weighted>
-4.7759

> <Gold.Chemscore.Metal.Weighted>
-0.0000

> <Gold.Chemscore.Lipo.Weighted>
-9.8671

> <Gold.Chemscore.Internal_Hbond.Weighted>
0.0000

> <Gold.Chemscore.DEClash.Weighted>
1.5663

> <Gold.Chemscore.DEInternal.Weighted>
1.0310

> <Gold.Chemscore.Rot.Weighted>
4.3455

> <Gold.Chemscore.Internal.Correction.Weighted>
   9.000000E+99

> <Gold.Protein.RotatedTorsions>
[ 6907 6896 6895 6894 ] final  120.02 input  -60.11 | X-H torsion
[ 7974 7965 7964 7962 ] final  160.87 input  175.53 | X-H torsion
[ 8008 7997 7996 7995 ] final -159.60 input   59.86 | X-H torsion
[ 10167 10162 10161 10158 ] final -144.82 input  -65.29 | X-H torsion
[ 10718 10713 10712 10709 ] final -149.96 input   66.30 | X-H torsion
[ 10763 10752 10751 10750 ] final  -51.43 input  -60.55 | X-H torsion
[ 11005 11000 10999 10996 ] final  107.87 input  -57.11 | X-H torsion

> <Gold.Protein.ActiveResidues>
 VAL166  LYS551  ARG553  GLY616  TRP617  ASP618  TYR619  PRO620  LYS621  CYS622 
 ASP623  PHE694  ASN695  SER759  ASP760  ASP761  ALA762  ILE779  LEU786  VAL792 
 PHE793  MET794  SER795  GLU796  ALA797  LYS798  CYS799  TRP800  GLU811  SER814 

> <Gold.Protein.RotatedAtoms>
  152.4429  133.7481  159.6678 H   0  0  0  0  0  0  0  0  0  0  0  0  # atno 6907 bound_to 6896
  150.8323  133.8060  159.3100 H   0  0  0  0  0  0  0  0  0  0  0  0  # atno 6908 bound_to 6896
  151.5711  135.1065  160.0047 H   0  0  0  0  0  0  0  0  0  0  0  0  # atno 6909 bound_to 6896
  144.7714  139.7818  143.6295 H   0  0  0  0  0  0  0  0  0  0  0  0  # atno 7974 bound_to 7965
  155.7650  140.0844  157.2136 H   0  0  0  0  0  0  0  0  0  0  0  0  # atno 8008 bound_to 7997
  154.4000  140.1536  156.2933 H   0  0  0  0  0  0  0  0  0  0  0  0  # atno 8009 bound_to 7997
  155.8803  140.3421  155.5885 H   0  0  0  0  0  0  0  0  0  0  0  0  # atno 8010 bound_to 7997
  139.7863  143.8029  152.2645 H   0  0  0  0  0  0  0  0  0  0  0  0  # atno 10167 bound_to 10162
  156.4399  130.8117  151.2346 H   0  0  0  0  0  0  0  0  0  0  0  0  # atno 10718 bound_to 10713
  154.1264  135.6527  153.4913 H   0  0  0  0  0  0  0  0  0  0  0  0  # atno 10763 bound_to 10752
  153.0209  135.5282  154.7045 H   0  0  0  0  0  0  0  0  0  0  0  0  # atno 10764 bound_to 10752
  154.6267  135.2971  155.0234 H   0  0  0  0  0  0  0  0  0  0  0  0  # atno 10765 bound_to 10752
  139.8835  134.9414  156.5885 H   0  0  0  0  0  0  0  0  0  0  0  0  # atno 11005 bound_to 11000
  146.1864  139.5081  142.9833 LP  0  0  0  0  0  0  0  0  0  0  0  0  # atno 17320 bound_to 7965
  145.6312  141.0304  143.1862 LP  0  0  0  0  0  0  0  0  0  0  0  0  # atno 17321 bound_to 7965
  139.8107  144.7337  150.9701 LP  0  0  0  0  0  0  0  0  0  0  0  0  # atno 17342 bound_to 10162
  140.7819  143.4254  151.0777 LP  0  0  0  0  0  0  0  0  0  0  0  0  # atno 17343 bound_to 10162
  157.7506  131.0171  150.3573 LP  0  0  0  0  0  0  0  0  0  0  0  0  # atno 17370 bound_to 10713
  156.3928  130.3901  149.7017 LP  0  0  0  0  0  0  0  0  0  0  0  0  # atno 17371 bound_to 10713
  140.7973  133.8533  155.8697 LP  0  0  0  0  0  0  0  0  0  0  0  0  # atno 17394 bound_to 11000
  140.9624  134.1639  157.4643 LP  0  0  0  0  0  0  0  0  0  0  0  0  # atno 17395 bound_to 11000

$$$$
