AV-unprocessed.smi:2461|AV-procd|sdf|9716|dock4
  -GOLD-   2272013353D 1   1.00000     0.00000
 Structure written by MMmdl.
 36 37  0  0  0  0  0  0  0  0  1 V2000
  143.0203  134.8674  152.9744 C   0  0  0  0  0  0  0  0  0  0  0  0
  143.7814  136.2007  152.9609 C   0  0  0  0  0  0  0  0  0  0  0  0
  144.8693  136.2693  151.8943 C   0  0  0  0  0  0  0  0  0  0  0  0
  145.4437  137.6809  151.7479 C   0  0  0  0  0  0  0  0  0  0  0  0
  146.8246  137.8532  152.1845 N   0  0  0  0  0  0  0  0  0  0  0  0
  147.2584  138.8282  152.9957 C   0  0  0  0  0  0  0  0  0  0  0  0
  146.5330  139.7224  153.4317 O   0  0  0  0  0  0  0  0  0  0  0  0
  148.5671  138.6862  153.2690 N   0  0  0  0  0  0  0  0  0  0  0  0
  149.3787  139.4980  154.1045 C   0  0  0  0  0  0  0  0  0  0  0  0
  150.6730  138.9993  154.3736 C   0  0  0  0  0  0  0  0  0  0  0  0
  151.5086  139.7714  155.2065 C   0  0  0  0  0  0  0  0  0  0  0  0
  152.7759  139.3140  155.5025 O   0  0  0  0  0  0  0  0  0  0  0  0
  153.3769  138.3779  154.6149 C   0  0  0  0  0  0  0  0  0  0  0  0
  151.0893  140.9517  155.7233 N   0  0  0  0  0  0  0  0  0  0  0  0
  149.8533  141.3399  155.4070 C   0  0  0  0  0  0  0  0  0  0  0  0
  148.9861  140.6825  154.6350 N   0  0  0  0  0  0  0  0  0  0  0  0
  145.7745  135.0649  151.6885 C   0  0  0  0  0  0  0  0  0  0  0  0
  144.7369  135.4023  150.6555 C   0  0  0  0  0  0  0  0  0  0  0  0
  142.2760  134.8579  153.7707 H   0  0  0  0  0  0  0  0  0  0  0  0
  143.6965  134.0294  153.1447 H   0  0  0  0  0  0  0  0  0  0  0  0
  142.4974  134.6892  152.0351 H   0  0  0  0  0  0  0  0  0  0  0  0
  143.0859  137.0286  152.8205 H   0  0  0  0  0  0  0  0  0  0  0  0
  144.2359  136.3519  153.9406 H   0  0  0  0  0  0  0  0  0  0  0  0
  145.3993  137.9656  150.6967 H   0  0  0  0  0  0  0  0  0  0  0  0
  144.8156  138.4061  152.2672 H   0  0  0  0  0  0  0  0  0  0  0  0
  147.4900  137.1623  151.8697 H   0  0  0  0  0  0  0  0  0  0  0  0
  149.0304  137.8936  152.8499 H   0  0  0  0  0  0  0  0  0  0  0  0
  151.0139  138.0589  153.9654 H   0  0  0  0  0  0  0  0  0  0  0  0
  154.3733  138.1260  154.9776 H   0  0  0  0  0  0  0  0  0  0  0  0
  153.4857  138.7921  153.6115 H   0  0  0  0  0  0  0  0  0  0  0  0
  152.8011  137.4529  154.5602 H   0  0  0  0  0  0  0  0  0  0  0  0
  149.5204  142.2819  155.8174 H   0  0  0  0  0  0  0  0  0  0  0  0
  146.8138  135.2326  151.4143 H   0  0  0  0  0  0  0  0  0  0  0  0
  145.5995  134.1855  152.3050 H   0  0  0  0  0  0  0  0  0  0  0  0
  143.8715  134.7467  150.5842 H   0  0  0  0  0  0  0  0  0  0  0  0
  145.0916  135.8038  149.7083 H   0  0  0  0  0  0  0  0  0  0  0  0
  1  2  1  0  0  0  0
  1 19  1  0  0  0  0
  1 20  1  0  0  0  0
  1 21  1  0  0  0  0
  2  3  1  0  0  0  0
  2 22  1  0  0  0  0
  2 23  1  0  0  0  0
  3 18  1  0  0  0  0
  3  4  1  0  0  0  0
  3 17  1  0  0  0  0
  4  5  1  0  0  0  0
  4 24  1  0  0  0  0
  4 25  1  0  0  0  0
  5  6  1  0  0  0  0
  5 26  1  0  0  0  0
  6  7  2  0  0  0  0
  6  8  1  0  0  0  0
  8  9  1  0  0  0  0
  8 27  1  0  0  0  0
  9 16  1  0  0  0  0
  9 10  2  0  0  0  0
 10 11  1  0  0  0  0
 10 28  1  0  0  0  0
 11 12  1  0  0  0  0
 11 14  2  0  0  0  0
 12 13  1  0  0  0  0
 13 29  1  0  0  0  0
 13 30  1  0  0  0  0
 13 31  1  0  0  0  0
 14 15  1  0  0  0  0
 15 16  2  0  0  0  0
 15 32  1  0  0  0  0
 17 18  1  0  0  0  0
 17 33  1  0  0  0  0
 17 34  1  0  0  0  0
 18 35  1  0  0  0  0
 18 36  1  0  0  0  0
M  END
> <s_m_source_file>
AV-unprocessed.smi

> <i_m_source_file_index>
2461

> <i_lp_mmshare_version>
43012

> <i_f3d_flags>
0

> <s_epik_input>
W0NIM11bQ0gyXUMxKFtDSDJdW0NIMl0xKVtDSDJdW05IXUMoPU8pW05IXWMyW2NIXWMoT1tDSDNdKW5bY0hdbjI=

> <s_epik_cmdline>
J2VwaWtfcHl0aG9uJywgJy1waCcsICc3LjAnLCAnLXRuJywgJzgnLCAnLW1hJywgJzIwMCcsICctbWV0YWxfYmluZGluZycsICctaW1hZScsICc8aW5maWxlLm1hZT4nLCAnLW9tYWUnLCAnPG91dGZpbGUubWFlPic=

> <r_lp_tautomer_probability>
1

> <r_epik_Ionization_Penalty>
2.7206e-05

> <r_epik_Ionization_Penalty_Charging>
0

> <r_epik_Ionization_Penalty_Neutral>
2.7206e-05

> <r_epik_State_Penalty>
-0

> <r_epik_Charging_Adjusted_Penalty>
0

> <i_epik_Tot_Q>
0

> <i_epik_Tot_abs_Q>
0

> <r_epik_Metal_State_Penalty>
-0

> <b_epik_Metal_Only>
0

> <s_lp_Force_Field>
OPLS_2005

> <r_lp_Energy>
17.684

> <b_lp_Chiralities_Consistent>
1

> <s_lp_Variant>
AV-unprocessed.smi:2461-1

> <Gold.Version>
5.8.1

> <Gold.Id.Protein>
6NUR|6NUR_protein|mol2

> <Gold.PLP.Fitness>
41.8527

> <Gold.PLP.PLP>
-31.7019

> <Gold.PLP.part.hbond>
-4.7064

> <Gold.PLP.part.metal>
0.0000

> <Gold.PLP.part.buried>
3.0217

> <Gold.PLP.part.nonpolar>
-30.5152

> <Gold.PLP.part.repulsive>
0.5669

> <Gold.PLP.ligand.clash>
0.0000

> <Gold.PLP.ligand.torsion>
1.5287

> <Gold.PLP.Chemscore.Hbond>
2.9920

> <Gold.PLP.Chemscore.CHOScore>
1.0000

> <Gold.PLP.Chemscore.Metal>
0.0000

> <Gold.Chemscore.Hbonds>
donor molecule, donor type, donor heavy atom, donor atom, acceptor molecule, acceptor atom, score
      L1  H     5    26       P1  7948  1.00
      L1  H     8    27       P1  7948  1.00
      P1  H  7997  8009       L1    12  1.00
      L1  C    15    32       P1  8028  1.00

> <Gold.PLP.Chemscore.Internal.Correction>
1.2323

> <Gold.Rescore>
     Score         DG    S(hbond)    S(metal)    S(lipo)     H(rot)  DE(clash)    DE(int)     intcor
     10.94     -15.59       2.67        0.00      51.11       1.87       2.02       2.62       ----

> <Gold.Chemscore.Fitness>
10.9428

> <Gold.Chemscore.DG>
-15.5866

> <Gold.Chemscore.ZeroCoef>
-5.4800

> <Gold.Chemscore.Hbond>
2.6661

> <Gold.Chemscore.Metal>
0.0000

> <Gold.Chemscore.Lipo>
51.1104

> <Gold.Chemscore.Internal_Hbond>
0.0000

> <Gold.Chemscore.DEClash>
2.0243

> <Gold.Chemscore.DEInternal>
2.6195

> <Gold.Chemscore.Rot>
1.8664

> <Gold.Chemscore.Internal.Correction>
   9.000000E+99

> <Gold.Chemscore.Hbonds>
donor molecule, donor type, donor heavy atom, donor atom, acceptor molecule, acceptor atom, score
      L1  H     5    26       P1  7948  0.99
      L1  H     8    27       P1  7948  0.95
      P1  H  7997  8009       L1    12  0.33

> <Gold.Chemscore.Hbond.Weighted>
-8.9048

> <Gold.Chemscore.Metal.Weighted>
-0.0000

> <Gold.Chemscore.Lipo.Weighted>
-5.9799

> <Gold.Chemscore.Internal_Hbond.Weighted>
0.0000

> <Gold.Chemscore.DEClash.Weighted>
2.0243

> <Gold.Chemscore.DEInternal.Weighted>
2.6195

> <Gold.Chemscore.Rot.Weighted>
4.7781

> <Gold.Chemscore.Internal.Correction.Weighted>
   9.000000E+99

> <Gold.Protein.RotatedTorsions>
[ 6907 6896 6895 6894 ] final  110.57 input  -60.11 | X-H torsion
[ 7974 7965 7964 7962 ] final  141.94 input  175.53 | X-H torsion
[ 8008 7997 7996 7995 ] final -167.53 input   59.86 | X-H torsion
[ 10167 10162 10161 10158 ] final  -47.88 input  -65.29 | X-H torsion
[ 10718 10713 10712 10709 ] final   29.77 input   66.30 | X-H torsion
[ 10763 10752 10751 10750 ] final  -22.53 input  -60.55 | X-H torsion
[ 11005 11000 10999 10996 ] final   -9.59 input  -57.11 | X-H torsion

> <Gold.Protein.ActiveResidues>
 VAL166  LYS551  ARG553  GLY616  TRP617  ASP618  TYR619  PRO620  LYS621  CYS622 
 ASP623  PHE694  ASN695  SER759  ASP760  ASP761  ALA762  ILE779  LEU786  VAL792 
 PHE793  MET794  SER795  GLU796  ALA797  LYS798  CYS799  TRP800  GLU811  SER814 

> <Gold.Protein.RotatedAtoms>
  152.5013  133.8781  159.7332 H   0  0  0  0  0  0  0  0  0  0  0  0  # atno 6907 bound_to 6896
  150.9251  133.6825  159.2830 H   0  0  0  0  0  0  0  0  0  0  0  0  # atno 6908 bound_to 6896
  151.4189  135.0999  159.9660 H   0  0  0  0  0  0  0  0  0  0  0  0  # atno 6909 bound_to 6896
  144.9052  139.5368  143.5735 H   0  0  0  0  0  0  0  0  0  0  0  0  # atno 7974 bound_to 7965
  155.8789  140.1005  157.1499 H   0  0  0  0  0  0  0  0  0  0  0  0  # atno 8008 bound_to 7997
  154.4003  140.1333  156.4235 H   0  0  0  0  0  0  0  0  0  0  0  0  # atno 8009 bound_to 7997
  155.7666  140.3462  155.5227 H   0  0  0  0  0  0  0  0  0  0  0  0  # atno 8010 bound_to 7997
  140.6755  143.2764  151.3991 H   0  0  0  0  0  0  0  0  0  0  0  0  # atno 10167 bound_to 10162
  157.2509  130.7114  149.6405 H   0  0  0  0  0  0  0  0  0  0  0  0  # atno 10718 bound_to 10713
  153.6534  135.6980  153.5201 H   0  0  0  0  0  0  0  0  0  0  0  0  # atno 10763 bound_to 10752
  153.2688  135.4221  155.0967 H   0  0  0  0  0  0  0  0  0  0  0  0  # atno 10764 bound_to 10752
  154.8470  135.3573  154.6079 H   0  0  0  0  0  0  0  0  0  0  0  0  # atno 10765 bound_to 10752
  140.7358  133.8711  155.8928 H   0  0  0  0  0  0  0  0  0  0  0  0  # atno 11005 bound_to 11000
  146.3129  139.7813  142.9005 LP  0  0  0  0  0  0  0  0  0  0  0  0  # atno 17320 bound_to 7965
  145.3549  141.0314  143.3318 LP  0  0  0  0  0  0  0  0  0  0  0  0  # atno 17321 bound_to 7965
  139.6046  144.1224  152.2235 LP  0  0  0  0  0  0  0  0  0  0  0  0  # atno 17342 bound_to 10162
  140.0619  144.5849  150.7256 LP  0  0  0  0  0  0  0  0  0  0  0  0  # atno 17343 bound_to 10162
  155.9666  130.4428  150.5395 LP  0  0  0  0  0  0  0  0  0  0  0  0  # atno 17370 bound_to 10713
  157.3279  131.0694  151.1883 LP  0  0  0  0  0  0  0  0  0  0  0  0  # atno 17371 bound_to 10713
  140.9881  134.1316  157.4434 LP  0  0  0  0  0  0  0  0  0  0  0  0  # atno 17394 bound_to 11000
  139.8816  135.0032  156.6171 LP  0  0  0  0  0  0  0  0  0  0  0  0  # atno 17395 bound_to 11000

$$$$
