AV-unprocessed.smi:1530|AV-procd|sdf|6155|dock10
  -GOLD-   22720 6303D 1   1.00000     0.00000
 Structure written by MMmdl.
 42 43  0  0  0  0  0  0  0  0  1 V2000
  151.1332  138.4807  154.5806 C   0  0  0  0  0  0  0  0  0  0  0  0
  149.8281  138.2912  154.0449 O   0  0  0  0  0  0  0  0  0  0  0  0
  148.9257  139.3357  154.1189 C   0  0  0  0  0  0  0  0  0  0  0  0
  149.2894  140.4534  154.7966 N   0  0  0  0  0  0  0  0  0  0  0  0
  148.4139  141.4764  154.8666 C   0  0  0  0  0  0  0  0  0  0  0  0
  147.1428  141.4433  154.2658 C   0  0  0  0  0  0  0  0  0  0  0  0
  146.7630  140.2857  153.5615 C   0  0  0  0  0  0  0  0  0  0  0  0
  147.6667  139.1966  153.4883 C   0  0  0  0  0  0  0  0  0  0  0  0
  147.4023  137.9780  152.8005 N   0  0  0  0  0  0  0  0  0  0  0  0
  146.2314  137.3568  152.5778 C   0  0  0  0  0  0  0  0  0  0  0  0
  145.1268  137.7567  152.9433 O   0  0  0  0  0  0  0  0  0  0  0  0
  146.4167  136.2187  151.8941 N   0  0  0  0  0  0  0  0  0  0  0  0
  145.3627  135.3031  151.4527 C   0  0  0  0  0  0  0  0  0  0  0  0
  145.5356  133.8395  151.9634 C   0  0  0  0  0  0  0  0  0  0  0  0
  146.0014  133.8791  153.4451 C   0  0  0  0  0  0  0  0  0  0  0  0
  145.2671  133.2430  154.3643 N   0  0  0  0  0  0  0  0  0  0  0  0
  147.0179  134.4938  153.7664 O   0  0  0  0  0  0  0  0  0  0  0  0
  144.1926  133.0657  151.8306 C   0  0  0  0  0  0  0  0  0  0  0  0
  143.8344  132.7204  150.3730 C   0  0  0  0  0  0  0  0  0  0  0  0
  144.8913  131.9885  149.7688 O   0  0  0  0  0  0  0  0  0  0  0  0
  146.1023  132.7289  149.7079 C   0  0  0  0  0  0  0  0  0  0  0  0
  146.5873  133.0531  151.1312 C   0  0  0  0  0  0  0  0  0  0  0  0
  151.7156  137.5704  154.4393 H   0  0  0  0  0  0  0  0  0  0  0  0
  151.0999  138.6890  155.6508 H   0  0  0  0  0  0  0  0  0  0  0  0
  151.6588  139.2912  154.0734 H   0  0  0  0  0  0  0  0  0  0  0  0
  148.7380  142.3494  155.4133 H   0  0  0  0  0  0  0  0  0  0  0  0
  146.4747  142.2884  154.3403 H   0  0  0  0  0  0  0  0  0  0  0  0
  145.7942  140.2702  153.0894 H   0  0  0  0  0  0  0  0  0  0  0  0
  148.2234  137.4952  152.4652 H   0  0  0  0  0  0  0  0  0  0  0  0
  147.3616  135.9734  151.6364 H   0  0  0  0  0  0  0  0  0  0  0  0
  144.4181  135.7056  151.8204 H   0  0  0  0  0  0  0  0  0  0  0  0
  145.2746  135.3306  150.3670 H   0  0  0  0  0  0  0  0  0  0  0  0
  145.5472  133.2600  155.3342 H   0  0  0  0  0  0  0  0  0  0  0  0
  144.4303  132.7519  154.0849 H   0  0  0  0  0  0  0  0  0  0  0  0
  144.2455  132.1297  152.3896 H   0  0  0  0  0  0  0  0  0  0  0  0
  143.3740  133.6382  152.2691 H   0  0  0  0  0  0  0  0  0  0  0  0
  142.9329  132.1081  150.3505 H   0  0  0  0  0  0  0  0  0  0  0  0
  143.6139  133.6144  149.7895 H   0  0  0  0  0  0  0  0  0  0  0  0
  146.8503  132.1282  149.1904 H   0  0  0  0  0  0  0  0  0  0  0  0
  145.9640  133.6336  149.1151 H   0  0  0  0  0  0  0  0  0  0  0  0
  147.5328  133.5932  151.0739 H   0  0  0  0  0  0  0  0  0  0  0  0
  146.8176  132.1096  151.6292 H   0  0  0  0  0  0  0  0  0  0  0  0
  1  2  1  0  0  0  0
  1 23  1  0  0  0  0
  1 24  1  0  0  0  0
  1 25  1  0  0  0  0
  2  3  1  0  0  0  0
  3  8  1  0  0  0  0
  3  4  2  0  0  0  0
  4  5  1  0  0  0  0
  5  6  2  0  0  0  0
  5 26  1  0  0  0  0
  6  7  1  0  0  0  0
  6 27  1  0  0  0  0
  7  8  2  0  0  0  0
  7 28  1  0  0  0  0
  8  9  1  0  0  0  0
  9 10  1  0  0  0  0
  9 29  1  0  0  0  0
 10 11  2  0  0  0  0
 10 12  1  0  0  0  0
 12 13  1  0  0  0  0
 12 30  1  0  0  0  0
 13 14  1  0  0  0  0
 13 31  1  0  0  0  0
 13 32  1  0  0  0  0
 14 22  1  0  0  0  0
 14 15  1  0  0  0  0
 14 18  1  0  0  0  0
 15 16  1  0  0  0  0
 15 17  2  0  0  0  0
 16 33  1  0  0  0  0
 16 34  1  0  0  0  0
 18 19  1  0  0  0  0
 18 35  1  0  0  0  0
 18 36  1  0  0  0  0
 19 20  1  0  0  0  0
 19 37  1  0  0  0  0
 19 38  1  0  0  0  0
 20 21  1  0  0  0  0
 21 22  1  0  0  0  0
 21 39  1  0  0  0  0
 21 40  1  0  0  0  0
 22 41  1  0  0  0  0
 22 42  1  0  0  0  0
M  END
> <s_m_source_file>
AV-unprocessed.smi

> <i_m_source_file_index>
1530

> <i_lp_mmshare_version>
43012

> <i_f3d_flags>
0

> <s_epik_input>
W0NIM11PYzFuW2NIXVtjSF1bY0hdYzFbTkhdQyg9TylbTkhdW0NIMl1DMihDKD1PKVtOSDJdKVtDSDJdW0NIMl1PW0NIMl1bQ0gyXTI=

> <s_epik_cmdline>
J2VwaWtfcHl0aG9uJywgJy1waCcsICc3LjAnLCAnLXRuJywgJzgnLCAnLW1hJywgJzIwMCcsICctbWV0YWxfYmluZGluZycsICctaW1hZScsICc8aW5maWxlLm1hZT4nLCAnLW9tYWUnLCAnPG91dGZpbGUubWFlPic=

> <r_lp_tautomer_probability>
1

> <r_epik_Ionization_Penalty>
8.83779e-05

> <r_epik_Ionization_Penalty_Charging>
0

> <r_epik_Ionization_Penalty_Neutral>
8.83779e-05

> <r_epik_State_Penalty>
-0

> <r_epik_Charging_Adjusted_Penalty>
0

> <i_epik_Tot_Q>
0

> <i_epik_Tot_abs_Q>
0

> <r_epik_Metal_State_Penalty>
-0

> <b_epik_Metal_Only>
0

> <s_lp_Force_Field>
OPLS_2005

> <r_lp_Energy>
14.5365

> <b_lp_Chiralities_Consistent>
1

> <s_lp_Variant>
AV-unprocessed.smi:1530-1

> <Gold.Version>
5.8.1

> <Gold.Id.Protein>
6NUR|6NUR_protein|mol2

> <Gold.PLP.Fitness>
44.0893

> <Gold.PLP.PLP>
-33.4011

> <Gold.PLP.part.hbond>
-2.8390

> <Gold.PLP.part.metal>
0.0000

> <Gold.PLP.part.buried>
-2.5828

> <Gold.PLP.part.nonpolar>
-30.2324

> <Gold.PLP.part.repulsive>
1.9663

> <Gold.PLP.ligand.clash>
0.0000

> <Gold.PLP.ligand.torsion>
0.5094

> <Gold.PLP.Chemscore.Hbond>
2.8960

> <Gold.PLP.Chemscore.CHOScore>
1.0000

> <Gold.PLP.Chemscore.Metal>
0.0000

> <Gold.Chemscore.Hbonds>
donor molecule, donor type, donor heavy atom, donor atom, acceptor molecule, acceptor atom, score
      L1  H     9    29       P1  7948  1.00
      L1  H    12    30       P1  7948  0.98
      L1  H    16    34       P1 10957  0.67
      L1  C     5    26       P1  8028  1.00

> <Gold.PLP.Chemscore.Internal.Correction>
0.0191

> <Gold.Rescore>
     Score         DG    S(hbond)    S(metal)    S(lipo)     H(rot)  DE(clash)    DE(int)     intcor
     15.05     -17.91       2.89        0.00      72.58       2.23       0.16       2.69       ----

> <Gold.Chemscore.Fitness>
15.0479

> <Gold.Chemscore.DG>
-17.9053

> <Gold.Chemscore.ZeroCoef>
-5.4800

> <Gold.Chemscore.Hbond>
2.8865

> <Gold.Chemscore.Metal>
0.0000

> <Gold.Chemscore.Lipo>
72.5785

> <Gold.Chemscore.Internal_Hbond>
0.0000

> <Gold.Chemscore.DEClash>
0.1631

> <Gold.Chemscore.DEInternal>
2.6943

> <Gold.Chemscore.Rot>
2.2294

> <Gold.Chemscore.Internal.Correction>
   9.000000E+99

> <Gold.Chemscore.Hbonds>
donor molecule, donor type, donor heavy atom, donor atom, acceptor molecule, acceptor atom, score
      L1  H     9    29       P1  7948  0.93
      L1  H    12    30       P1  7948  0.92
      L1  H    16    34       P1 10957  0.56

> <Gold.Chemscore.Hbond.Weighted>
-9.6410

> <Gold.Chemscore.Metal.Weighted>
-0.0000

> <Gold.Chemscore.Lipo.Weighted>
-8.4917

> <Gold.Chemscore.Internal_Hbond.Weighted>
0.0000

> <Gold.Chemscore.DEClash.Weighted>
0.1631

> <Gold.Chemscore.DEInternal.Weighted>
2.6943

> <Gold.Chemscore.Rot.Weighted>
5.7073

> <Gold.Chemscore.Internal.Correction.Weighted>
   9.000000E+99

> <Gold.Protein.RotatedTorsions>
[ 6907 6896 6895 6894 ] final  174.93 input  -60.11 | X-H torsion
[ 7974 7965 7964 7962 ] final   79.38 input  175.53 | X-H torsion
[ 8008 7997 7996 7995 ] final -172.69 input   59.86 | X-H torsion
[ 10167 10162 10161 10158 ] final  -28.47 input  -65.29 | X-H torsion
[ 10718 10713 10712 10709 ] final   57.75 input   66.30 | X-H torsion
[ 10763 10752 10751 10750 ] final -171.45 input  -60.55 | X-H torsion
[ 11005 11000 10999 10996 ] final -179.43 input  -57.11 | X-H torsion

> <Gold.Protein.ActiveResidues>
 VAL166  LYS551  ARG553  GLY616  TRP617  ASP618  TYR619  PRO620  LYS621  CYS622 
 ASP623  PHE694  ASN695  SER759  ASP760  ASP761  ALA762  ILE779  LEU786  VAL792 
 PHE793  MET794  SER795  GLU796  ALA797  LYS798  CYS799  TRP800  GLU811  SER814 

> <Gold.Protein.RotatedAtoms>
  151.7444  133.3323  159.3374 H   0  0  0  0  0  0  0  0  0  0  0  0  # atno 6907 bound_to 6896
  150.7560  134.6249  159.6165 H   0  0  0  0  0  0  0  0  0  0  0  0  # atno 6908 bound_to 6896
  152.3510  134.7008  160.0288 H   0  0  0  0  0  0  0  0  0  0  0  0  # atno 6909 bound_to 6896
  145.6650  139.2481  143.1901 H   0  0  0  0  0  0  0  0  0  0  0  0  # atno 7974 bound_to 7965
  155.9478  140.1120  157.1002 H   0  0  0  0  0  0  0  0  0  0  0  0  # atno 8008 bound_to 7997
  154.4103  140.1206  156.5078 H   0  0  0  0  0  0  0  0  0  0  0  0  # atno 8009 bound_to 7997
  155.6881  140.3473  155.4884 H   0  0  0  0  0  0  0  0  0  0  0  0  # atno 8010 bound_to 7997
  140.7269  143.4008  151.1269 H   0  0  0  0  0  0  0  0  0  0  0  0  # atno 10167 bound_to 10162
  157.5540  130.8787  149.9007 H   0  0  0  0  0  0  0  0  0  0  0  0  # atno 10718 bound_to 10713
  154.6303  135.2886  155.0224 H   0  0  0  0  0  0  0  0  0  0  0  0  # atno 10763 bound_to 10752
  154.1387  135.6522  153.4941 H   0  0  0  0  0  0  0  0  0  0  0  0  # atno 10764 bound_to 10752
  153.0277  135.5327  154.7128 H   0  0  0  0  0  0  0  0  0  0  0  0  # atno 10765 bound_to 10752
  140.4187  134.6625  157.4653 H   0  0  0  0  0  0  0  0  0  0  0  0  # atno 11005 bound_to 11000
  146.1094  140.7447  142.9511 LP  0  0  0  0  0  0  0  0  0  0  0  0  # atno 17320 bound_to 7965
  144.7076  140.3914  143.7106 LP  0  0  0  0  0  0  0  0  0  0  0  0  # atno 17321 bound_to 7965
  139.7627  143.8611  152.3104 LP  0  0  0  0  0  0  0  0  0  0  0  0  # atno 17342 bound_to 10162
  139.8502  144.7168  150.9223 LP  0  0  0  0  0  0  0  0  0  0  0  0  # atno 17343 bound_to 10162
  156.0602  130.3701  150.0999 LP  0  0  0  0  0  0  0  0  0  0  0  0  # atno 17370 bound_to 10713
  156.9169  130.9670  151.3554 LP  0  0  0  0  0  0  0  0  0  0  0  0  # atno 17371 bound_to 10713
  140.0215  134.6540  155.9233 LP  0  0  0  0  0  0  0  0  0  0  0  0  # atno 17394 bound_to 11000
  141.1792  133.6544  156.4952 LP  0  0  0  0  0  0  0  0  0  0  0  0  # atno 17395 bound_to 11000

$$$$
