AV-unprocessed.smi:246|AV-procd|sdf|1887|dock5
  -GOLD-   2262020543D 1   1.00000     0.00000
 Structure written by MMmdl.
 57 60  0  0  0  0  0  0  0  0  1 V2000
  147.0176  128.4946  151.7477 C   0  0  0  0  0  0  0  0  0  0  0  0
  147.4845  128.8333  153.1700 C   0  0  0  0  0  0  0  0  0  0  0  0
  148.2058  130.0567  153.2144 O   0  0  0  0  0  0  0  0  0  0  0  0
  148.7612  130.3621  154.4853 C   0  0  0  0  0  0  0  0  0  0  0  0
  149.8407  131.4342  154.3126 C   0  0  0  0  0  0  0  0  0  0  0  0
  149.2160  132.6929  154.1079 O   0  0  0  0  0  0  0  0  0  0  0  0
  149.5749  133.6667  155.0768 C   0  0  2  0  0  0  0  0  0  0  0  0
  148.3358  134.3464  155.6563 C   0  0  0  0  0  0  0  0  0  0  0  0
  148.8959  135.6685  156.1774 C   0  0  0  0  0  0  0  0  0  0  0  0
  149.9521  136.0189  155.2370 N   0  0  0  0  0  0  0  0  0  0  0  0
  150.8244  137.0291  155.4864 C   0  0  0  0  0  0  0  0  0  0  0  0
  151.7921  137.3058  154.5723 N   0  0  0  0  0  0  0  0  0  0  0  0
  152.6602  138.2993  154.7829 C   0  0  0  0  0  0  0  0  0  0  0  0
  152.7441  139.1266  155.8258 N   0  0  0  0  0  0  0  0  0  0  0  0
  151.7859  138.8480  156.7552 C   0  0  0  0  0  0  0  0  0  0  0  0
  150.8010  137.8221  156.6711 C   0  0  0  0  0  0  0  0  0  0  0  0
  150.0201  137.8280  157.8219 N   0  0  0  0  0  0  0  0  0  0  0  0
  150.5070  138.8042  158.5366 C   0  0  0  0  0  0  0  0  0  0  0  0
  151.5579  139.4834  157.9635 N   0  0  0  0  0  0  0  0  0  0  0  0
  152.2746  140.6136  158.5319 C   0  0  0  0  0  0  0  0  0  0  0  0
  151.7203  141.9965  158.1172 C   0  0  1  0  0  0  0  0  0  0  0  0
  150.3147  142.0483  158.2661 O   0  0  0  0  0  0  0  0  0  0  0  0
  152.3775  143.2109  158.8133 C   0  0  1  0  0  0  0  0  0  0  0  0
  151.9842  144.5865  158.2630 C   0  0  0  0  0  0  0  0  0  0  0  0
  152.1997  145.4737  159.4687 C   0  0  0  0  0  0  0  0  0  0  0  0
  151.7256  144.5679  160.5992 C   0  0  0  0  0  0  0  0  0  0  0  0
  152.1191  143.2558  160.2157 O   0  0  0  0  0  0  0  0  0  0  0  0
  150.3781  134.8391  154.4949 C   0  0  0  0  0  0  0  0  0  0  0  0
  150.1307  133.2080  155.8969 H   0  0  0  0  0  0  0  0  0  0  0  0
  146.5559  127.5077  151.7199 H   0  0  0  0  0  0  0  0  0  0  0  0
  147.8571  128.4884  151.0523 H   0  0  0  0  0  0  0  0  0  0  0  0
  146.2812  129.2082  151.3799 H   0  0  0  0  0  0  0  0  0  0  0  0
  146.6446  128.8496  153.8661 H   0  0  0  0  0  0  0  0  0  0  0  0
  148.1557  128.0464  153.5147 H   0  0  0  0  0  0  0  0  0  0  0  0
  148.0014  130.7050  155.1877 H   0  0  0  0  0  0  0  0  0  0  0  0
  149.2125  129.4619  154.9050 H   0  0  0  0  0  0  0  0  0  0  0  0
  150.4500  131.4797  155.2165 H   0  0  0  0  0  0  0  0  0  0  0  0
  150.5025  131.1765  153.4847 H   0  0  0  0  0  0  0  0  0  0  0  0
  147.6110  134.5401  154.8642 H   0  0  0  0  0  0  0  0  0  0  0  0
  147.8443  133.7557  156.4296 H   0  0  0  0  0  0  0  0  0  0  0  0
  148.1293  136.4422  156.2264 H   0  0  0  0  0  0  0  0  0  0  0  0
  149.3160  135.5331  157.1752 H   0  0  0  0  0  0  0  0  0  0  0  0
  153.3911  138.4540  154.0031 H   0  0  0  0  0  0  0  0  0  0  0  0
  150.0995  139.0687  159.5016 H   0  0  0  0  0  0  0  0  0  0  0  0
  152.2530  140.5199  159.6182 H   0  0  0  0  0  0  0  0  0  0  0  0
  153.3229  140.5311  158.2424 H   0  0  0  0  0  0  0  0  0  0  0  0
  151.9075  142.1013  157.0479 H   0  0  0  0  0  0  0  0  0  0  0  0
  150.1052  141.9515  159.1825 H   0  0  0  0  0  0  0  0  0  0  0  0
  153.4598  143.1144  158.7153 H   0  0  0  0  0  0  0  0  0  0  0  0
  152.5812  144.8848  157.4009 H   0  0  0  0  0  0  0  0  0  0  0  0
  150.9333  144.6162  157.9730 H   0  0  0  0  0  0  0  0  0  0  0  0
  153.2603  145.7000  159.5857 H   0  0  0  0  0  0  0  0  0  0  0  0
  151.6499  146.4136  159.4152 H   0  0  0  0  0  0  0  0  0  0  0  0
  152.1432  144.8451  161.5672 H   0  0  0  0  0  0  0  0  0  0  0  0
  150.6379  144.5946  160.6770 H   0  0  0  0  0  0  0  0  0  0  0  0
  151.4501  134.6565  154.5797 H   0  0  0  0  0  0  0  0  0  0  0  0
  150.1372  134.9885  153.4418 H   0  0  0  0  0  0  0  0  0  0  0  0
  1  2  1  0  0  0  0
  1 30  1  0  0  0  0
  1 31  1  0  0  0  0
  1 32  1  0  0  0  0
  2  3  1  0  0  0  0
  2 33  1  0  0  0  0
  2 34  1  0  0  0  0
  3  4  1  0  0  0  0
  4  5  1  0  0  0  0
  4 35  1  0  0  0  0
  4 36  1  0  0  0  0
  5  6  1  0  0  0  0
  5 37  1  0  0  0  0
  5 38  1  0  0  0  0
  6  7  1  0  0  0  0
  7 29  1  0  0  0  0
  7 28  1  0  0  0  0
  7  8  1  0  0  0  0
  8  9  1  0  0  0  0
  8 39  1  0  0  0  0
  8 40  1  0  0  0  0
  9 10  1  0  0  0  0
  9 41  1  0  0  0  0
  9 42  1  0  0  0  0
 10 11  1  0  0  0  0
 10 28  1  0  0  0  0
 11 16  1  0  0  0  0
 11 12  2  0  0  0  0
 12 13  1  0  0  0  0
 13 14  2  0  0  0  0
 13 43  1  0  0  0  0
 14 15  1  0  0  0  0
 15 19  1  0  0  0  0
 15 16  2  0  0  0  0
 16 17  1  0  0  0  0
 17 18  2  0  0  0  0
 18 19  1  0  0  0  0
 18 44  1  0  0  0  0
 19 20  1  0  0  0  0
 20 21  1  0  0  0  0
 20 45  1  0  0  0  0
 20 46  1  0  0  0  0
 21 22  1  0  0  0  0
 21 23  1  0  0  0  0
 21 47  1  0  0  0  0
 22 48  1  0  0  0  0
 23 27  1  0  0  0  0
 23 24  1  0  0  0  0
 23 49  1  0  0  0  0
 24 25  1  0  0  0  0
 24 50  1  0  0  0  0
 24 51  1  0  0  0  0
 25 26  1  0  0  0  0
 25 52  1  0  0  0  0
 25 53  1  0  0  0  0
 26 27  1  0  0  0  0
 26 54  1  0  0  0  0
 26 55  1  0  0  0  0
 28 56  1  0  0  0  0
 28 57  1  0  0  0  0
M  END
> <s_m_source_file>
AV-unprocessed.smi

> <i_m_source_file_index>
246

> <i_lp_mmshare_version>
43012

> <i_f3d_flags>
0

> <s_epik_input>
W0NIM11bQ0gyXU9bQ0gyXVtDSDJdT1tDQEhdMVtDSDJdW0NIMl1OKFtDSDJdMSljKG5bY0hdbjIpYyhjMjMpbltjSF1uM1tDSDJdW0NASF0oW09IXSlbQ0BASF00W0NIMl1bQ0gyXVtDSDJdTzQ=

> <s_epik_cmdline>
J2VwaWtfcHl0aG9uJywgJy1waCcsICc3LjAnLCAnLXRuJywgJzgnLCAnLW1hJywgJzIwMCcsICctbWV0YWxfYmluZGluZycsICctaW1hZScsICc8aW5maWxlLm1hZT4nLCAnLW9tYWUnLCAnPG91dGZpbGUubWFlPic=

> <r_lp_tautomer_probability>
1

> <r_epik_Ionization_Penalty>
0.0024631

> <r_epik_Ionization_Penalty_Charging>
0

> <r_epik_Ionization_Penalty_Neutral>
0.0024631

> <r_epik_State_Penalty>
0.00162428

> <r_epik_Charging_Adjusted_Penalty>
0.00162428

> <i_epik_Tot_Q>
0

> <i_epik_Tot_abs_Q>
0

> <r_epik_Metal_State_Penalty>
-0

> <b_epik_Metal_Only>
0

> <s_lp_Force_Field>
OPLS_2005

> <r_lp_Energy>
52.7235

> <b_lp_Chiralities_Consistent>
1

> <s_lp_Variant>
AV-unprocessed.smi:246-8

> <Gold.Version>
5.8.1

> <Gold.Id.Protein>
6NUR|6NUR_protein|mol2

> <Gold.PLP.Fitness>
49.2624

> <Gold.PLP.PLP>
-46.5314

> <Gold.PLP.part.hbond>
-2.0000

> <Gold.PLP.part.metal>
0.0000

> <Gold.PLP.part.buried>
-9.2272

> <Gold.PLP.part.nonpolar>
-36.2186

> <Gold.PLP.part.repulsive>
0.5370

> <Gold.PLP.ligand.clash>
0.0000

> <Gold.PLP.ligand.torsion>
1.9006

> <Gold.PLP.Chemscore.Hbond>
1.9920

> <Gold.PLP.Chemscore.CHOScore>
0.0000

> <Gold.PLP.Chemscore.Metal>
0.0000

> <Gold.Chemscore.Hbonds>
donor molecule, donor type, donor heavy atom, donor atom, acceptor molecule, acceptor atom, score
      P1  H  7997  8010       L1    14  1.00
      P1  H 10752 10764       L1    12  0.99

> <Gold.PLP.Chemscore.Internal.Correction>
0.5561

> <Gold.Rescore>
     Score         DG    S(hbond)    S(metal)    S(lipo)     H(rot)  DE(clash)    DE(int)     intcor
     12.27     -15.47       1.46        0.00     111.49       3.10       0.10       3.10       ----

> <Gold.Chemscore.Fitness>
12.2692

> <Gold.Chemscore.DG>
-15.4731

> <Gold.Chemscore.ZeroCoef>
-5.4800

> <Gold.Chemscore.Hbond>
1.4644

> <Gold.Chemscore.Metal>
0.0000

> <Gold.Chemscore.Lipo>
111.4925

> <Gold.Chemscore.Internal_Hbond>
0.0000

> <Gold.Chemscore.DEClash>
0.1042

> <Gold.Chemscore.DEInternal>
3.0997

> <Gold.Chemscore.Rot>
3.1026

> <Gold.Chemscore.Internal.Correction>
   9.000000E+99

> <Gold.Chemscore.Hbonds>
donor molecule, donor type, donor heavy atom, donor atom, acceptor molecule, acceptor atom, score
      P1  H  7997  8010       L1    14  0.98
      P1  H 10752 10764       L1    12  0.24

> <Gold.Chemscore.Hbond.Weighted>
-4.8911

> <Gold.Chemscore.Metal.Weighted>
-0.0000

> <Gold.Chemscore.Lipo.Weighted>
-13.0446

> <Gold.Chemscore.Internal_Hbond.Weighted>
0.0000

> <Gold.Chemscore.DEClash.Weighted>
0.1042

> <Gold.Chemscore.DEInternal.Weighted>
3.0997

> <Gold.Chemscore.Rot.Weighted>
7.9426

> <Gold.Chemscore.Internal.Correction.Weighted>
   9.000000E+99

> <Gold.Protein.RotatedTorsions>
[ 6907 6896 6895 6894 ] final -123.00 input  -60.11 | X-H torsion
[ 7974 7965 7964 7962 ] final -161.41 input  175.53 | X-H torsion
[ 8008 7997 7996 7995 ] final   83.73 input   59.86 | X-H torsion
[ 10167 10162 10161 10158 ] final  -55.22 input  -65.29 | X-H torsion
[ 10718 10713 10712 10709 ] final  166.23 input   66.30 | X-H torsion
[ 10763 10752 10751 10750 ] final  -68.09 input  -60.55 | X-H torsion
[ 11005 11000 10999 10996 ] final  164.79 input  -57.11 | X-H torsion

> <Gold.Protein.ActiveResidues>
 VAL166  LYS551  ARG553  GLY616  TRP617  ASP618  TYR619  PRO620  LYS621  CYS622 
 ASP623  PHE694  ASN695  SER759  ASP760  ASP761  ALA762  ILE779  LEU786  VAL792 
 PHE793  MET794  SER795  GLU796  ALA797  LYS798  CYS799  TRP800  GLU811  SER814 

> <Gold.Protein.RotatedAtoms>
  150.8629  133.7617  159.2986 H   0  0  0  0  0  0  0  0  0  0  0  0  # atno 6907 bound_to 6896
  151.5253  135.1066  159.9898 H   0  0  0  0  0  0  0  0  0  0  0  0  # atno 6908 bound_to 6896
  152.4640  133.7838  159.6921 H   0  0  0  0  0  0  0  0  0  0  0  0  # atno 6909 bound_to 6896
  144.7392  140.3402  143.6136 H   0  0  0  0  0  0  0  0  0  0  0  0  # atno 7974 bound_to 7965
  155.9277  140.3417  155.6224 H   0  0  0  0  0  0  0  0  0  0  0  0  # atno 8008 bound_to 7997
  155.7195  140.0782  157.2355 H   0  0  0  0  0  0  0  0  0  0  0  0  # atno 8009 bound_to 7997
  154.4080  140.1608  156.2374 H   0  0  0  0  0  0  0  0  0  0  0  0  # atno 8010 bound_to 7997
  140.6387  143.2496  151.5048 H   0  0  0  0  0  0  0  0  0  0  0  0  # atno 10167 bound_to 10162
  157.0689  131.0360  151.2619 H   0  0  0  0  0  0  0  0  0  0  0  0  # atno 10718 bound_to 10713
  154.3839  135.6068  153.5806 H   0  0  0  0  0  0  0  0  0  0  0  0  # atno 10763 bound_to 10752
  152.9788  135.5867  154.4377 H   0  0  0  0  0  0  0  0  0  0  0  0  # atno 10764 bound_to 10752
  154.4151  135.2845  155.1990 H   0  0  0  0  0  0  0  0  0  0  0  0  # atno 10765 bound_to 10752
  140.2495  134.7988  157.3488 H   0  0  0  0  0  0  0  0  0  0  0  0  # atno 11005 bound_to 11000
  145.7382  139.1756  143.2391 LP  0  0  0  0  0  0  0  0  0  0  0  0  # atno 17320 bound_to 7965
  146.1154  140.7376  142.9483 LP  0  0  0  0  0  0  0  0  0  0  0  0  # atno 17321 bound_to 7965
  139.5596  144.2188  152.1670 LP  0  0  0  0  0  0  0  0  0  0  0  0  # atno 17342 bound_to 10162
  140.1452  144.5165  150.6720 LP  0  0  0  0  0  0  0  0  0  0  0  0  # atno 17343 bound_to 10162
  157.4894  130.7813  149.7493 LP  0  0  0  0  0  0  0  0  0  0  0  0  # atno 17370 bound_to 10713
  155.9956  130.3910  150.2811 LP  0  0  0  0  0  0  0  0  0  0  0  0  # atno 17371 bound_to 10713
  140.1572  134.4774  155.7919 LP  0  0  0  0  0  0  0  0  0  0  0  0  # atno 17394 bound_to 11000
  141.2203  133.6886  156.7481 LP  0  0  0  0  0  0  0  0  0  0  0  0  # atno 17395 bound_to 11000

$$$$
