AV-unprocessed.smi:118|AV-procd|sdf|1131|dock1
  -GOLD-   2262018263D 1   1.00000     0.00000
 Structure written by MMmdl.
 41 44  0  0  0  0  0  0  0  0  1 V2000
  150.7448  140.5267  154.9006 O   0  0  0  0  0  0  0  0  0  0  0  0
  151.3795  139.6670  155.5131 C   0  0  0  0  0  0  0  0  0  0  0  0
  151.6033  138.2751  154.9003 C   0  0  0  0  0  0  0  0  0  0  0  0
  150.4649  137.3500  155.0951 N   0  0  0  0  0  0  0  0  0  0  0  0
  149.1731  137.7668  154.6879 C   0  0  0  0  0  0  0  0  0  0  0  0
  148.9855  138.8824  154.2004 O   0  0  0  0  0  0  0  0  0  0  0  0
  148.1081  136.7882  154.8749 C   0  0  0  0  0  0  0  0  0  0  0  0
  146.8528  137.0904  154.5023 F   0  0  0  0  0  0  0  0  0  0  0  0
  148.3639  135.5780  155.4126 C   0  0  0  0  0  0  0  0  0  0  0  0
  149.6237  135.1915  155.8259 N   0  0  0  0  0  0  0  0  0  0  0  0
  149.8266  133.7957  156.3686 C   0  0  2  0  0  0  0  0  0  0  0  0
  150.7486  132.9218  155.4971 C   0  0  0  0  0  0  0  0  0  0  0  0
  149.8631  131.7371  155.1468 C   0  0  0  0  0  0  0  0  0  0  0  0
  148.7986  131.7745  156.2377 C   0  0  0  0  0  0  0  0  0  0  0  0
  148.5864  133.1627  156.4411 O   0  0  0  0  0  0  0  0  0  0  0  0
  150.7173  136.0695  155.6437 C   0  0  0  0  0  0  0  0  0  0  0  0
  151.8623  135.7292  155.9457 O   0  0  0  0  0  0  0  0  0  0  0  0
  151.8978  139.8370  156.7423 N   0  0  0  0  0  0  0  0  0  0  0  0
  151.8629  140.9962  157.5659 C   0  0  0  0  0  0  0  0  0  0  0  0
  150.9911  142.0915  157.3353 C   0  0  0  0  0  0  0  0  0  0  0  0
  151.0153  143.2259  158.1771 C   0  0  0  0  0  0  0  0  0  0  0  0
  151.9148  143.2993  159.2599 C   0  0  0  0  0  0  0  0  0  0  0  0
  152.7934  142.2238  159.4822 C   0  0  0  0  0  0  0  0  0  0  0  0
  152.7731  141.0862  158.6421 C   0  0  0  0  0  0  0  0  0  0  0  0
  153.7091  140.1173  159.0004 N   0  0  0  0  0  0  0  0  0  0  0  0
  154.3529  140.7900  160.2129 S   0  0  0  0  0  0  0  0  0  0  0  0
  153.7371  142.1588  160.5021 N   0  0  0  0  0  0  0  0  0  0  0  0
  151.8266  138.3943  153.8389 H   0  0  0  0  0  0  0  0  0  0  0  0
  152.5225  137.8601  155.3167 H   0  0  0  0  0  0  0  0  0  0  0  0
  147.5405  134.8875  155.5230 H   0  0  0  0  0  0  0  0  0  0  0  0
  150.2251  133.9193  157.3765 H   0  0  0  0  0  0  0  0  0  0  0  0
  151.1212  133.4502  154.6191 H   0  0  0  0  0  0  0  0  0  0  0  0
  151.6018  132.6095  156.0999 H   0  0  0  0  0  0  0  0  0  0  0  0
  149.4006  131.8885  154.1712 H   0  0  0  0  0  0  0  0  0  0  0  0
  150.4074  130.7929  155.1181 H   0  0  0  0  0  0  0  0  0  0  0  0
  147.8793  131.2651  155.9482 H   0  0  0  0  0  0  0  0  0  0  0  0
  149.1689  131.3229  157.1595 H   0  0  0  0  0  0  0  0  0  0  0  0
  152.3038  139.0164  157.1681 H   0  0  0  0  0  0  0  0  0  0  0  0
  150.3010  142.0899  156.5057 H   0  0  0  0  0  0  0  0  0  0  0  0
  150.3409  144.0473  157.9854 H   0  0  0  0  0  0  0  0  0  0  0  0
  151.9321  144.1680  159.9016 H   0  0  0  0  0  0  0  0  0  0  0  0
  1  2  2  0  0  0  0
  2  3  1  0  0  0  0
  2 18  1  0  0  0  0
  3  4  1  0  0  0  0
  3 28  1  0  0  0  0
  3 29  1  0  0  0  0
  4 16  1  0  0  0  0
  4  5  1  0  0  0  0
  5  6  2  0  0  0  0
  5  7  1  0  0  0  0
  7  8  1  0  0  0  0
  7  9  2  0  0  0  0
  9 10  1  0  0  0  0
  9 30  1  0  0  0  0
 10 11  1  0  0  0  0
 10 16  1  0  0  0  0
 11 15  1  0  0  0  0
 11 12  1  0  0  0  0
 11 31  1  0  0  0  0
 12 13  1  0  0  0  0
 12 32  1  0  0  0  0
 12 33  1  0  0  0  0
 13 14  1  0  0  0  0
 13 34  1  0  0  0  0
 13 35  1  0  0  0  0
 14 15  1  0  0  0  0
 14 36  1  0  0  0  0
 14 37  1  0  0  0  0
 16 17  2  0  0  0  0
 18 19  1  0  0  0  0
 18 38  1  0  0  0  0
 19 24  1  0  0  0  0
 19 20  2  0  0  0  0
 20 21  1  0  0  0  0
 20 39  1  0  0  0  0
 21 22  2  0  0  0  0
 21 40  1  0  0  0  0
 22 23  1  0  0  0  0
 22 41  1  0  0  0  0
 23 27  1  0  0  0  0
 23 24  2  0  0  0  0
 24 25  1  0  0  0  0
 25 26  2  0  0  0  0
 26 27  2  0  0  0  0
M  END
> <s_m_source_file>
AV-unprocessed.smi

> <i_m_source_file_index>
118

> <i_lp_mmshare_version>
43012

> <i_f3d_flags>
0

> <s_epik_input>
TjE9Uz1OYyhjMTIpYyhbY0hdW2NIXVtjSF0yKVtOSF1DKD1PKVtDSDJdbjNjKD1PKWMoRilbY0hdbihjMz1PKVtDQEBIXTRbQ0gyXVtDSDJdW0NIMl1PNA==

> <s_epik_cmdline>
J2VwaWtfcHl0aG9uJywgJy1waCcsICc3LjAnLCAnLXRuJywgJzgnLCAnLW1hJywgJzIwMCcsICctbWV0YWxfYmluZGluZycsICctaW1hZScsICc8aW5maWxlLm1hZT4nLCAnLW9tYWUnLCAnPG91dGZpbGUubWFlPic=

> <r_lp_tautomer_probability>
1

> <r_epik_Ionization_Penalty>
1.81156e-06

> <r_epik_Ionization_Penalty_Charging>
3.88729e-08

> <r_epik_Ionization_Penalty_Neutral>
1.77269e-06

> <r_epik_State_Penalty>
-0

> <r_epik_Charging_Adjusted_Penalty>
3.88729e-08

> <i_epik_Tot_Q>
0

> <i_epik_Tot_abs_Q>
0

> <r_epik_Metal_State_Penalty>
-0

> <b_epik_Metal_Only>
0

> <s_epik_Chemistry_Notes>
This compound contains an acetal/aminal-like group ( X-CH(R)-Y where X, Y are N, S, or O) that may be acid/base labile, releasing an aldehyde.

> <s_lp_Force_Field>
OPLS_2005

> <r_lp_Energy>
47.7675

> <b_lp_Chiralities_Consistent>
1

> <s_lp_Variant>
AV-unprocessed.smi:118-1

> <Gold.Version>
5.8.1

> <Gold.Id.Protein>
6NUR|6NUR_protein|mol2

> <Gold.PLP.Fitness>
45.9564

> <Gold.PLP.PLP>
-37.8735

> <Gold.PLP.part.hbond>
-3.0000

> <Gold.PLP.part.metal>
0.0000

> <Gold.PLP.part.buried>
-4.5362

> <Gold.PLP.part.nonpolar>
-29.9916

> <Gold.PLP.part.repulsive>
0.4135

> <Gold.PLP.ligand.clash>
0.0000

> <Gold.PLP.ligand.torsion>
0.4671

> <Gold.PLP.Chemscore.Hbond>
2.9920

> <Gold.PLP.Chemscore.CHOScore>
0.0000

> <Gold.PLP.Chemscore.Metal>
0.0000

> <Gold.Chemscore.Hbonds>
donor molecule, donor type, donor heavy atom, donor atom, acceptor molecule, acceptor atom, score
      P1  H  7989  7998       L1     1  1.00
      P1  H  7997  8008       L1    25  0.79
      P1  H 10752 10763       L1    17  1.00

> <Gold.PLP.Chemscore.Internal.Correction>
0.0413

> <Gold.Rescore>
     Score         DG    S(hbond)    S(metal)    S(lipo)     H(rot)  DE(clash)    DE(int)     intcor
     11.60     -17.02       2.15        0.00      76.64       1.80       0.02       5.41       ----

> <Gold.Chemscore.Fitness>
11.5995

> <Gold.Chemscore.DG>
-17.0236

> <Gold.Chemscore.ZeroCoef>
-5.4800

> <Gold.Chemscore.Hbond>
2.1494

> <Gold.Chemscore.Metal>
0.0000

> <Gold.Chemscore.Lipo>
76.6389

> <Gold.Chemscore.Internal_Hbond>
0.0000

> <Gold.Chemscore.DEClash>
0.0186

> <Gold.Chemscore.DEInternal>
5.4055

> <Gold.Chemscore.Rot>
1.7977

> <Gold.Chemscore.Internal.Correction>
   9.000000E+99

> <Gold.Chemscore.Hbonds>
donor molecule, donor type, donor heavy atom, donor atom, acceptor molecule, acceptor atom, score
      P1  H  7989  7998       L1     1  0.58
      P1  H  7997  8008       L1    25  0.21
      P1  H 10752 10763       L1    17  0.97

> <Gold.Chemscore.Hbond.Weighted>
-7.1791

> <Gold.Chemscore.Metal.Weighted>
-0.0000

> <Gold.Chemscore.Lipo.Weighted>
-8.9667

> <Gold.Chemscore.Internal_Hbond.Weighted>
0.0000

> <Gold.Chemscore.DEClash.Weighted>
0.0186

> <Gold.Chemscore.DEInternal.Weighted>
5.4055

> <Gold.Chemscore.Rot.Weighted>
4.6022

> <Gold.Chemscore.Internal.Correction.Weighted>
   9.000000E+99

> <Gold.Protein.RotatedTorsions>
[ 6907 6896 6895 6894 ] final   52.06 input  -60.11 | X-H torsion
[ 7974 7965 7964 7962 ] final  -98.51 input  175.53 | X-H torsion
[ 8008 7997 7996 7995 ] final -107.28 input   59.86 | X-H torsion
[ 10167 10162 10161 10158 ] final  141.20 input  -65.29 | X-H torsion
[ 10718 10713 10712 10709 ] final   36.08 input   66.30 | X-H torsion
[ 10763 10752 10751 10750 ] final   76.06 input  -60.55 | X-H torsion
[ 11005 11000 10999 10996 ] final -100.48 input  -57.11 | X-H torsion

> <Gold.Protein.ActiveResidues>
 VAL166  LYS551  ARG553  GLY616  TRP617  ASP618  TYR619  PRO620  LYS621  CYS622 
 ASP623  PHE694  ASN695  SER759  ASP760  ASP761  ALA762  ILE779  LEU786  VAL792 
 PHE793  MET794  SER795  GLU796  ALA797  LYS798  CYS799  TRP800  GLU811  SER814 

> <Gold.Protein.RotatedAtoms>
  152.3193  134.7400  160.0317 H   0  0  0  0  0  0  0  0  0  0  0  0  # atno 6907 bound_to 6896
  151.7854  133.3348  159.3491 H   0  0  0  0  0  0  0  0  0  0  0  0  # atno 6908 bound_to 6896
  150.7361  134.5823  159.5989 H   0  0  0  0  0  0  0  0  0  0  0  0  # atno 6909 bound_to 6896
  145.3197  140.9419  143.2723 H   0  0  0  0  0  0  0  0  0  0  0  0  # atno 7974 bound_to 7965
  154.9269  140.0406  157.2028 H   0  0  0  0  0  0  0  0  0  0  0  0  # atno 8008 bound_to 7997
  154.8198  140.2882  155.5773 H   0  0  0  0  0  0  0  0  0  0  0  0  # atno 8009 bound_to 7997
  156.2979  140.2521  156.3103 H   0  0  0  0  0  0  0  0  0  0  0  0  # atno 8010 bound_to 7997
  139.5027  144.6186  151.6104 H   0  0  0  0  0  0  0  0  0  0  0  0  # atno 10167 bound_to 10162
  157.3305  130.7495  149.6844 H   0  0  0  0  0  0  0  0  0  0  0  0  # atno 10718 bound_to 10713
  153.0698  135.4965  154.8280 H   0  0  0  0  0  0  0  0  0  0  0  0  # atno 10763 bound_to 10752
  154.7006  135.3001  154.9348 H   0  0  0  0  0  0  0  0  0  0  0  0  # atno 10764 bound_to 10752
  154.0073  135.6759  153.4816 H   0  0  0  0  0  0  0  0  0  0  0  0  # atno 10765 bound_to 10752
  141.1269  133.8402  157.1107 H   0  0  0  0  0  0  0  0  0  0  0  0  # atno 11005 bound_to 11000
  144.8949  139.4725  143.6660 LP  0  0  0  0  0  0  0  0  0  0  0  0  # atno 17320 bound_to 7965
  146.3087  139.7670  142.9036 LP  0  0  0  0  0  0  0  0  0  0  0  0  # atno 17321 bound_to 7965
  140.5882  143.9827  150.6308 LP  0  0  0  0  0  0  0  0  0  0  0  0  # atno 17342 bound_to 10162
  140.2998  143.3268  152.0982 LP  0  0  0  0  0  0  0  0  0  0  0  0  # atno 17343 bound_to 10162
  155.9695  130.4196  150.4385 LP  0  0  0  0  0  0  0  0  0  0  0  0  # atno 17370 bound_to 10713
  157.2416  131.0527  151.2433 LP  0  0  0  0  0  0  0  0  0  0  0  0  # atno 17371 bound_to 10713
  140.0277  134.9916  157.0718 LP  0  0  0  0  0  0  0  0  0  0  0  0  # atno 17394 bound_to 11000
  140.4336  134.1754  155.7169 LP  0  0  0  0  0  0  0  0  0  0  0  0  # atno 17395 bound_to 11000

$$$$
