AV-unprocessed.smi:833|AV-procd|sdf|3882|dock1
  -GOLD-   22720 1333D 1   1.00000     0.00000
 Structure written by MMmdl.
 40 41  0  0  0  0  0  0  0  0  2 V2000
  138.9954  137.6094  152.8616 C   0  0  0  0  0  0  0  0  0  0  0  0
  138.9124  138.9690  153.5686 C   0  0  2  0  0  0  0  0  0  0  0  0
  138.7868  139.9473  152.5571 O   0  0  0  0  0  0  0  0  0  0  0  0
  140.1737  139.2647  154.4059 C   0  0  0  0  0  0  0  0  0  0  0  0
  141.3998  139.0192  153.6538 N   0  0  0  0  0  0  0  0  0  0  0  0
  142.0063  137.8303  153.5352 C   0  0  0  0  0  0  0  0  0  0  0  0
  141.5886  136.7961  154.0556 O   0  0  0  0  0  0  0  0  0  0  0  0
  143.1029  137.9164  152.7640 N   0  0  0  0  0  0  0  0  0  0  0  0
  143.9583  136.8572  152.3489 C   0  0  0  0  0  0  0  0  0  0  0  0
  143.4336  135.5787  152.0283 C   0  0  0  0  0  0  0  0  0  0  0  0
  144.3039  134.5267  151.6868 C   0  0  0  0  0  0  0  0  0  0  0  0
  145.6890  134.7632  151.6876 C   0  0  0  0  0  0  0  0  0  0  0  0
  146.1580  135.9864  152.0099 N   0  3  0  0  0  0  0  0  0  0  0  0
  145.3715  137.0436  152.3322 C   0  0  0  0  0  0  0  0  0  0  0  0
  146.0079  138.2693  152.6356 N   0  0  0  0  0  0  0  0  0  0  0  0
  146.7106  138.4437  153.9018 C   0  0  0  0  0  0  0  0  0  0  0  0
  147.5533  139.7030  153.7193 C   0  0  0  0  0  0  0  0  0  0  0  0
  147.9438  139.6258  152.2465 C   0  0  0  0  0  0  0  0  0  0  0  0
  146.7233  138.9814  151.5813 C   0  0  0  0  0  0  0  0  0  0  0  0
  139.0687  136.7960  153.5838 H   0  0  0  0  0  0  0  0  0  0  0  0
  139.8663  137.5530  152.2076 H   0  0  0  0  0  0  0  0  0  0  0  0
  138.1088  137.4272  152.2530 H   0  0  0  0  0  0  0  0  0  0  0  0
  138.0211  138.9870  154.1974 H   0  0  0  0  0  0  0  0  0  0  0  0
  139.5582  139.9162  152.0113 H   0  0  0  0  0  0  0  0  0  0  0  0
  140.1937  140.3231  154.6680 H   0  0  0  0  0  0  0  0  0  0  0  0
  140.1690  138.7217  155.3531 H   0  0  0  0  0  0  0  0  0  0  0  0
  141.8124  139.8157  153.1906 H   0  0  0  0  0  0  0  0  0  0  0  0
  143.2734  138.8120  152.3306 H   0  0  0  0  0  0  0  0  0  0  0  0
  142.3726  135.3817  152.0611 H   0  0  0  0  0  0  0  0  0  0  0  0
  143.9139  133.5497  151.4410 H   0  0  0  0  0  0  0  0  0  0  0  0
  146.4320  134.0164  151.4469 H   0  0  0  0  0  0  0  0  0  0  0  0
  146.0139  138.5405  154.7349 H   0  0  0  0  0  0  0  0  0  0  0  0
  147.3644  137.5923  154.0957 H   0  0  0  0  0  0  0  0  0  0  0  0
  146.9445  140.5905  153.8974 H   0  0  0  0  0  0  0  0  0  0  0  0
  148.4130  139.7404  154.3890 H   0  0  0  0  0  0  0  0  0  0  0  0
  148.1955  140.5971  151.8199 H   0  0  0  0  0  0  0  0  0  0  0  0
  148.8112  138.9742  152.1321 H   0  0  0  0  0  0  0  0  0  0  0  0
  147.0194  138.3222  150.7641 H   0  0  0  0  0  0  0  0  0  0  0  0
  146.0695  139.7537  151.1756 H   0  0  0  0  0  0  0  0  0  0  0  0
  147.1684  136.1259  152.0028 H   0  0  0  0  0  0  0  0  0  0  0  0
  1  2  1  0  0  0  0
  1 20  1  0  0  0  0
  1 21  1  0  0  0  0
  1 22  1  0  0  0  0
  2  3  1  0  0  0  0
  2  4  1  0  0  0  0
  2 23  1  0  0  0  0
  3 24  1  0  0  0  0
  4  5  1  0  0  0  0
  4 25  1  0  0  0  0
  4 26  1  0  0  0  0
  5  6  1  0  0  0  0
  5 27  1  0  0  0  0
  6  7  2  0  0  0  0
  6  8  1  0  0  0  0
  8  9  1  0  0  0  0
  8 28  1  0  0  0  0
  9 14  1  0  0  0  0
  9 10  2  0  0  0  0
 10 11  1  0  0  0  0
 10 29  1  0  0  0  0
 11 12  2  0  0  0  0
 11 30  1  0  0  0  0
 12 13  1  0  0  0  0
 12 31  1  0  0  0  0
 13 14  2  0  0  0  0
 13 40  1  0  0  0  0
 14 15  1  0  0  0  0
 15 19  1  0  0  0  0
 15 16  1  0  0  0  0
 16 17  1  0  0  0  0
 16 32  1  0  0  0  0
 16 33  1  0  0  0  0
 17 18  1  0  0  0  0
 17 34  1  0  0  0  0
 17 35  1  0  0  0  0
 18 19  1  0  0  0  0
 18 36  1  0  0  0  0
 18 37  1  0  0  0  0
 19 38  1  0  0  0  0
 19 39  1  0  0  0  0
M  CHG  1  13   1
M  END
> <s_m_source_file>
AV-unprocessed.smi

> <i_m_source_file_index>
833

> <i_lp_mmshare_version>
43012

> <i_f3d_flags>
0

> <s_epik_input>
W0NIM11bQ0BIXShbT0hdKVtDSDJdW05IXUMoPU8pW05IXWMxW2NIXVtjSF1bY0hdbmMxTjJbQ0gyXVtDSDJdW0NIMl1bQ0gyXTI=

> <s_epik_cmdline>
J2VwaWtfcHl0aG9uJywgJy1waCcsICc3LjAnLCAnLXRuJywgJzgnLCAnLW1hJywgJzIwMCcsICctbWV0YWxfYmluZGluZycsICctaW1hZScsICc8aW5maWxlLm1hZT4nLCAnLW9tYWUnLCAnPG91dGZpbGUubWFlPic=

> <r_lp_tautomer_probability>
0.999994

> <r_epik_Ionization_Penalty>
1.11387

> <r_epik_Ionization_Penalty_Charging>
1.11385

> <r_epik_Ionization_Penalty_Neutral>
1.95796e-05

> <r_epik_State_Penalty>
1.17209

> <r_epik_Charging_Adjusted_Penalty>
2.28594

> <i_epik_Tot_Q>
1

> <i_epik_Tot_abs_Q>
1

> <r_epik_Metal_State_Penalty>
1.25763

> <b_epik_Metal_Only>
0

> <s_lp_Force_Field>
OPLS_2005

> <r_lp_Energy>
38.091

> <b_lp_Chiralities_Consistent>
1

> <s_lp_Variant>
AV-unprocessed.smi:833-3

> <Gold.Version>
5.8.1

> <Gold.Id.Protein>
6NUR|6NUR_protein|mol2

> <Gold.PLP.Fitness>
39.0081

> <Gold.PLP.PLP>
-25.5497

> <Gold.PLP.part.hbond>
-4.4981

> <Gold.PLP.part.metal>
0.0000

> <Gold.PLP.part.buried>
3.9683

> <Gold.PLP.part.nonpolar>
-25.5297

> <Gold.PLP.part.repulsive>
0.4096

> <Gold.PLP.ligand.clash>
0.0000

> <Gold.PLP.ligand.torsion>
0.7376

> <Gold.PLP.Chemscore.Hbond>
4.8400

> <Gold.PLP.Chemscore.CHOScore>
0.0000

> <Gold.PLP.Chemscore.Metal>
0.0000

> <Gold.Chemscore.Hbonds>
donor molecule, donor type, donor heavy atom, donor atom, acceptor molecule, acceptor atom, score
      L1  H     3    24       P1 10160  1.00
      L1  H     5    27       P1 10175  0.83
      L1  H     8    28       P1 10175  1.00
      L1  H    13    40       P1  7948  2.00

> <Gold.PLP.Chemscore.Internal.Correction>
0.4138

> <Gold.Rescore>
     Score         DG    S(hbond)    S(metal)    S(lipo)     H(rot)  DE(clash)    DE(int)     intcor
     15.47     -19.74       3.33        0.00      71.99       2.06       2.39       1.87       ----

> <Gold.Chemscore.Fitness>
15.4740

> <Gold.Chemscore.DG>
-19.7357

> <Gold.Chemscore.ZeroCoef>
-5.4800

> <Gold.Chemscore.Hbond>
3.3282

> <Gold.Chemscore.Metal>
0.0000

> <Gold.Chemscore.Lipo>
71.9898

> <Gold.Chemscore.Internal_Hbond>
0.0000

> <Gold.Chemscore.DEClash>
2.3885

> <Gold.Chemscore.DEInternal>
1.8732

> <Gold.Chemscore.Rot>
2.0637

> <Gold.Chemscore.Internal.Correction>
   9.000000E+99

> <Gold.Chemscore.Hbonds>
donor molecule, donor type, donor heavy atom, donor atom, acceptor molecule, acceptor atom, score
      L1  H     3    24       P1 10160  0.91
      L1  H     5    27       P1 10175  0.39
      L1  H     8    28       P1 10175  0.95
      L1  H    13    40       P1  7948  1.00

> <Gold.Chemscore.Hbond.Weighted>
-11.1160

> <Gold.Chemscore.Metal.Weighted>
-0.0000

> <Gold.Chemscore.Lipo.Weighted>
-8.4228

> <Gold.Chemscore.Internal_Hbond.Weighted>
0.0000

> <Gold.Chemscore.DEClash.Weighted>
2.3885

> <Gold.Chemscore.DEInternal.Weighted>
1.8732

> <Gold.Chemscore.Rot.Weighted>
5.2832

> <Gold.Chemscore.Internal.Correction.Weighted>
   9.000000E+99

> <Gold.Protein.RotatedTorsions>
[ 6907 6896 6895 6894 ] final   39.47 input  -60.11 | X-H torsion
[ 7974 7965 7964 7962 ] final -159.05 input  175.53 | X-H torsion
[ 8008 7997 7996 7995 ] final    5.58 input   59.86 | X-H torsion
[ 10167 10162 10161 10158 ] final  100.41 input  -65.29 | X-H torsion
[ 10718 10713 10712 10709 ] final -144.32 input   66.30 | X-H torsion
[ 10763 10752 10751 10750 ] final -153.51 input  -60.55 | X-H torsion
[ 11005 11000 10999 10996 ] final  167.70 input  -57.11 | X-H torsion

> <Gold.Protein.ActiveResidues>
 VAL166  LYS551  ARG553  GLY616  TRP617  ASP618  TYR619  PRO620  LYS621  CYS622 
 ASP623  PHE694  ASN695  SER759  ASP760  ASP761  ALA762  ILE779  LEU786  VAL792 
 PHE793  MET794  SER795  GLU796  ALA797  LYS798  CYS799  TRP800  GLU811  SER814 

> <Gold.Protein.RotatedAtoms>
  152.1700  134.8842  160.0534 H   0  0  0  0  0  0  0  0  0  0  0  0  # atno 6907 bound_to 6896
  151.9806  133.3751  159.4114 H   0  0  0  0  0  0  0  0  0  0  0  0  # atno 6908 bound_to 6896
  150.6900  134.3966  159.5144 H   0  0  0  0  0  0  0  0  0  0  0  0  # atno 6909 bound_to 6896
  144.7481  140.3741  143.6069 H   0  0  0  0  0  0  0  0  0  0  0  0  # atno 7974 bound_to 7965
  154.7301  140.2729  155.6464 H   0  0  0  0  0  0  0  0  0  0  0  0  # atno 8008 bound_to 7997
  156.2847  140.2717  156.1924 H   0  0  0  0  0  0  0  0  0  0  0  0  # atno 8009 bound_to 7997
  155.0393  140.0371  157.2493 H   0  0  0  0  0  0  0  0  0  0  0  0  # atno 8010 bound_to 7997
  139.7529  144.6978  151.0405 H   0  0  0  0  0  0  0  0  0  0  0  0  # atno 10167 bound_to 10162
  156.3687  130.7776  151.1954 H   0  0  0  0  0  0  0  0  0  0  0  0  # atno 10718 bound_to 10713
  154.7923  135.3211  154.7749 H   0  0  0  0  0  0  0  0  0  0  0  0  # atno 10763 bound_to 10752
  153.8435  135.6869  153.4804 H   0  0  0  0  0  0  0  0  0  0  0  0  # atno 10764 bound_to 10752
  153.1598  135.4665  154.9697 H   0  0  0  0  0  0  0  0  0  0  0  0  # atno 10765 bound_to 10752
  140.2795  134.7761  157.3746 H   0  0  0  0  0  0  0  0  0  0  0  0  # atno 11005 bound_to 11000
  145.7047  139.1669  143.2573 LP  0  0  0  0  0  0  0  0  0  0  0  0  # atno 17320 bound_to 7965
  146.1390  140.7083  142.9376 LP  0  0  0  0  0  0  0  0  0  0  0  0  # atno 17321 bound_to 7965
  140.7800  143.4787  151.0047 LP  0  0  0  0  0  0  0  0  0  0  0  0  # atno 17342 bound_to 10162
  139.8474  143.7483  152.3179 LP  0  0  0  0  0  0  0  0  0  0  0  0  # atno 17343 bound_to 10162
  157.7481  131.0379  150.4476 LP  0  0  0  0  0  0  0  0  0  0  0  0  # atno 17370 bound_to 10713
  156.4699  130.4050  149.6524 LP  0  0  0  0  0  0  0  0  0  0  0  0  # atno 17371 bound_to 10713
  140.1296  134.5112  155.8116 LP  0  0  0  0  0  0  0  0  0  0  0  0  # atno 17394 bound_to 11000
  141.2165  133.6785  156.7016 LP  0  0  0  0  0  0  0  0  0  0  0  0  # atno 17395 bound_to 11000

$$$$
