AV-unprocessed.smi:2083|AV-procd|sdf|8494|dock4
  -GOLD-   2272011203D 1   1.00000     0.00000
 Structure written by MMmdl.
 45 46  0  0  0  0  0  0  0  0  2 V2000
  148.1998  124.1893  150.2902 C   0  0  0  0  0  0  0  0  0  0  0  0
  148.1158  125.4409  151.0948 C   0  0  0  0  0  0  0  0  0  0  0  0
  148.3120  126.7585  150.7890 C   0  0  0  0  0  0  0  0  0  0  0  0
  148.0644  127.4137  152.0245 C   0  0  0  0  0  0  0  0  0  0  0  0
  148.1586  128.8250  152.1332 N   0  0  0  0  0  0  0  0  0  0  0  0
  148.1986  129.5562  153.2601 C   0  0  0  0  0  0  0  0  0  0  0  0
  148.1811  129.1003  154.4040 O   0  0  0  0  0  0  0  0  0  0  0  0
  148.2562  130.8691  152.9935 N   0  0  0  0  0  0  0  0  0  0  0  0
  148.2982  131.9161  154.0101 C   0  0  0  0  0  0  0  0  0  0  0  0
  148.7443  133.2902  153.4460 C   0  0  2  0  0  0  0  0  0  0  0  0
  149.4186  134.1300  154.5576 C   0  0  0  0  0  0  0  0  0  0  0  0
  147.5803  133.9636  152.7830 N   0  3  1  0  0  0  0  0  0  0  0  0
  146.9740  133.2458  151.6243 C   0  0  0  0  0  0  0  0  0  0  0  0
  145.8956  134.0987  150.9352 C   0  0  0  0  0  0  0  0  0  0  0  0
  144.8146  134.5468  151.9259 C   0  0  0  0  0  0  0  0  0  0  0  0
  145.4393  135.2418  153.1469 C   0  0  2  0  0  0  0  0  0  0  0  0
  145.9519  136.6585  152.8346 C   0  0  0  0  0  0  0  0  0  0  0  0
  146.5306  134.3496  153.7706 C   0  0  0  0  0  0  0  0  0  0  0  0
  147.7483  126.5722  152.9972 N   0  0  0  0  0  0  0  0  0  0  0  0
  147.7802  125.3036  152.4064 O   0  0  0  0  0  0  0  0  0  0  0  0
  148.2231  124.4129  149.2236 H   0  0  0  0  0  0  0  0  0  0  0  0
  147.3397  123.5469  150.4809 H   0  0  0  0  0  0  0  0  0  0  0  0
  149.1023  123.6308  150.5390 H   0  0  0  0  0  0  0  0  0  0  0  0
  148.5862  127.1814  149.8338 H   0  0  0  0  0  0  0  0  0  0  0  0
  148.1870  129.3301  151.2597 H   0  0  0  0  0  0  0  0  0  0  0  0
  148.2691  131.1643  152.0278 H   0  0  0  0  0  0  0  0  0  0  0  0
  147.3202  131.9707  154.4879 H   0  0  0  0  0  0  0  0  0  0  0  0
  148.9913  131.5977  154.7895 H   0  0  0  0  0  0  0  0  0  0  0  0
  149.5057  133.1305  152.6806 H   0  0  0  0  0  0  0  0  0  0  0  0
  150.2531  133.5956  155.0115 H   0  0  0  0  0  0  0  0  0  0  0  0
  148.7181  134.3745  155.3566 H   0  0  0  0  0  0  0  0  0  0  0  0
  149.8380  135.0587  154.1704 H   0  0  0  0  0  0  0  0  0  0  0  0
  147.7252  133.0178  150.8691 H   0  0  0  0  0  0  0  0  0  0  0  0
  146.5514  132.2976  151.9601 H   0  0  0  0  0  0  0  0  0  0  0  0
  146.3586  134.9706  150.4719 H   0  0  0  0  0  0  0  0  0  0  0  0
  145.4389  133.5317  150.1235 H   0  0  0  0  0  0  0  0  0  0  0  0
  144.0974  135.2051  151.4341 H   0  0  0  0  0  0  0  0  0  0  0  0
  144.2505  133.6740  152.2576 H   0  0  0  0  0  0  0  0  0  0  0  0
  144.6497  135.3589  153.8905 H   0  0  0  0  0  0  0  0  0  0  0  0
  146.7670  136.6483  152.1110 H   0  0  0  0  0  0  0  0  0  0  0  0
  146.3200  137.1477  153.7368 H   0  0  0  0  0  0  0  0  0  0  0  0
  145.1548  137.2813  152.4278 H   0  0  0  0  0  0  0  0  0  0  0  0
  146.0738  133.4422  154.1697 H   0  0  0  0  0  0  0  0  0  0  0  0
  146.9654  134.8669  154.6248 H   0  0  0  0  0  0  0  0  0  0  0  0
  147.9470  134.8236  152.4006 H   0  0  0  0  0  0  0  0  0  0  0  0
  1  2  1  0  0  0  0
  1 21  1  0  0  0  0
  1 22  1  0  0  0  0
  1 23  1  0  0  0  0
  2 20  1  0  0  0  0
  2  3  2  0  0  0  0
  3  4  1  0  0  0  0
  3 24  1  0  0  0  0
  4  5  1  0  0  0  0
  4 19  2  0  0  0  0
  5  6  1  0  0  0  0
  5 25  1  0  0  0  0
  6  7  2  0  0  0  0
  6  8  1  0  0  0  0
  8  9  1  0  0  0  0
  8 26  1  0  0  0  0
  9 10  1  0  0  0  0
  9 27  1  0  0  0  0
  9 28  1  0  0  0  0
 10 11  1  0  0  0  0
 10 12  1  0  0  0  0
 10 29  1  0  0  0  0
 11 30  1  0  0  0  0
 11 31  1  0  0  0  0
 11 32  1  0  0  0  0
 12 18  1  0  0  0  0
 12 13  1  0  0  0  0
 12 45  1  0  0  0  0
 13 14  1  0  0  0  0
 13 33  1  0  0  0  0
 13 34  1  0  0  0  0
 14 15  1  0  0  0  0
 14 35  1  0  0  0  0
 14 36  1  0  0  0  0
 15 16  1  0  0  0  0
 15 37  1  0  0  0  0
 15 38  1  0  0  0  0
 16 17  1  0  0  0  0
 16 18  1  0  0  0  0
 16 39  1  0  0  0  0
 17 40  1  0  0  0  0
 17 41  1  0  0  0  0
 17 42  1  0  0  0  0
 18 43  1  0  0  0  0
 18 44  1  0  0  0  0
 19 20  1  0  0  0  0
M  CHG  1  12   1
M  END
> <s_m_source_file>
AV-unprocessed.smi

> <i_m_source_file_index>
2083

> <i_lp_mmshare_version>
43012

> <i_f3d_flags>
0

> <s_epik_input>
W0NIM11jMVtjSF1jKG5vMSlbTkhdQyg9TylbTkhdW0NIMl1bQ0BIXShbQ0gzXSlOMltDSDJdW0NIMl1bQ0gyXVtDQEBIXShbQ0gzXSlbQ0gyXTI=

> <s_epik_cmdline>
J2VwaWtfcHl0aG9uJywgJy1waCcsICc3LjAnLCAnLXRuJywgJzgnLCAnLW1hJywgJzIwMCcsICctbWV0YWxfYmluZGluZycsICctaW1hZScsICc8aW5maWxlLm1hZT4nLCAnLW9tYWUnLCAnPG91dGZpbGUubWFlPic=

> <r_epik_Ionization_Penalty>
0.00216453

> <r_epik_Ionization_Penalty_Charging>
0.00212879

> <r_epik_Ionization_Penalty_Neutral>
3.57418e-05

> <r_epik_State_Penalty>
0.00146033

> <r_epik_Charging_Adjusted_Penalty>
0.00358912

> <i_epik_Tot_Q>
1

> <i_epik_Tot_abs_Q>
1

> <r_epik_Metal_State_Penalty>
0.0215827

> <b_epik_Metal_Only>
0

> <s_lp_Force_Field>
OPLS_2005

> <r_lp_Energy>
21.862

> <b_lp_Chiralities_Consistent>
1

> <s_lp_Variant>
AV-unprocessed.smi:2083-5

> <Gold.Version>
5.8.1

> <Gold.Id.Protein>
6NUR|6NUR_protein|mol2

> <Gold.PLP.Fitness>
46.7043

> <Gold.PLP.PLP>
-36.0253

> <Gold.PLP.part.hbond>
-4.0000

> <Gold.PLP.part.metal>
0.0000

> <Gold.PLP.part.buried>
-3.7370

> <Gold.PLP.part.nonpolar>
-28.1675

> <Gold.PLP.part.repulsive>
0.2006

> <Gold.PLP.ligand.clash>
0.0000

> <Gold.PLP.ligand.torsion>
0.4257

> <Gold.PLP.Chemscore.Hbond>
3.8240

> <Gold.PLP.Chemscore.CHOScore>
0.0000

> <Gold.PLP.Chemscore.Metal>
0.0000

> <Gold.Chemscore.Hbonds>
donor molecule, donor type, donor heavy atom, donor atom, acceptor molecule, acceptor atom, score
      L1  H     5    25       P1 10747  0.91
      L1  H     8    26       P1 10747  0.91
      L1  H    12    45       P1  7948  2.00

> <Gold.PLP.Chemscore.Internal.Correction>
0.0584

> <Gold.Rescore>
     Score         DG    S(hbond)    S(metal)    S(lipo)     H(rot)  DE(clash)    DE(int)     intcor
     13.88     -15.87       2.07        0.00      63.59       1.55       0.22       1.77       ----

> <Gold.Chemscore.Fitness>
13.8850

> <Gold.Chemscore.DG>
-15.8730

> <Gold.Chemscore.ZeroCoef>
-5.4800

> <Gold.Chemscore.Hbond>
2.0701

> <Gold.Chemscore.Metal>
0.0000

> <Gold.Chemscore.Lipo>
63.5894

> <Gold.Chemscore.Internal_Hbond>
0.0000

> <Gold.Chemscore.DEClash>
0.2227

> <Gold.Chemscore.DEInternal>
1.7653

> <Gold.Chemscore.Rot>
1.5474

> <Gold.Chemscore.Internal.Correction>
   9.000000E+99

> <Gold.Chemscore.Hbonds>
donor molecule, donor type, donor heavy atom, donor atom, acceptor molecule, acceptor atom, score
      L1  H     5    25       P1 10747  0.31
      L1  H     8    26       P1 10747  0.88
      L1  H    12    45       P1  7948  0.70

> <Gold.Chemscore.Hbond.Weighted>
-6.9143

> <Gold.Chemscore.Metal.Weighted>
-0.0000

> <Gold.Chemscore.Lipo.Weighted>
-7.4400

> <Gold.Chemscore.Internal_Hbond.Weighted>
0.0000

> <Gold.Chemscore.DEClash.Weighted>
0.2227

> <Gold.Chemscore.DEInternal.Weighted>
1.7653

> <Gold.Chemscore.Rot.Weighted>
3.9612

> <Gold.Chemscore.Internal.Correction.Weighted>
   9.000000E+99

> <Gold.Protein.RotatedTorsions>
[ 6907 6896 6895 6894 ] final   36.96 input  -60.11 | X-H torsion
[ 7974 7965 7964 7962 ] final  -67.85 input  175.53 | X-H torsion
[ 8008 7997 7996 7995 ] final  -72.77 input   59.86 | X-H torsion
[ 10167 10162 10161 10158 ] final -160.64 input  -65.29 | X-H torsion
[ 10718 10713 10712 10709 ] final  146.92 input   66.30 | X-H torsion
[ 10763 10752 10751 10750 ] final  -54.90 input  -60.55 | X-H torsion
[ 11005 11000 10999 10996 ] final   89.01 input  -57.11 | X-H torsion

> <Gold.Protein.ActiveResidues>
 VAL166  LYS551  ARG553  GLY616  TRP617  ASP618  TYR619  PRO620  LYS621  CYS622 
 ASP623  PHE694  ASN695  SER759  ASP760  ASP761  ALA762  ILE779  LEU786  VAL792 
 PHE793  MET794  SER795  GLU796  ALA797  LYS798  CYS799  TRP800  GLU811  SER814 

> <Gold.Protein.RotatedAtoms>
  152.1367  134.9094  160.0555 H   0  0  0  0  0  0  0  0  0  0  0  0  # atno 6907 bound_to 6896
  152.0177  133.3881  159.4254 H   0  0  0  0  0  0  0  0  0  0  0  0  # atno 6908 bound_to 6896
  150.6861  134.3582  159.4982 H   0  0  0  0  0  0  0  0  0  0  0  0  # atno 6909 bound_to 6896
  145.7240  140.9026  143.0615 H   0  0  0  0  0  0  0  0  0  0  0  0  # atno 7974 bound_to 7965
  154.5193  140.0791  156.8142 H   0  0  0  0  0  0  0  0  0  0  0  0  # atno 8008 bound_to 7997
  155.3611  140.3418  155.4222 H   0  0  0  0  0  0  0  0  0  0  0  0  # atno 8009 bound_to 7997
  156.1663  140.1605  156.8512 H   0  0  0  0  0  0  0  0  0  0  0  0  # atno 8010 bound_to 7997
  139.6525  144.0059  152.2171 H   0  0  0  0  0  0  0  0  0  0  0  0  # atno 10167 bound_to 10162
  157.3273  131.0914  151.1191 H   0  0  0  0  0  0  0  0  0  0  0  0  # atno 10718 bound_to 10713
  154.1822  135.6441  153.5037 H   0  0  0  0  0  0  0  0  0  0  0  0  # atno 10763 bound_to 10752
  153.0056  135.5408  154.6502 H   0  0  0  0  0  0  0  0  0  0  0  0  # atno 10764 bound_to 10752
  154.5869  135.2930  155.0648 H   0  0  0  0  0  0  0  0  0  0  0  0  # atno 10765 bound_to 10752
  139.8884  134.8524  156.3082 H   0  0  0  0  0  0  0  0  0  0  0  0  # atno 11005 bound_to 11000
  144.6909  139.9240  143.7469 LP  0  0  0  0  0  0  0  0  0  0  0  0  # atno 17320 bound_to 7965
  146.0600  139.3594  143.0587 LP  0  0  0  0  0  0  0  0  0  0  0  0  # atno 17321 bound_to 7965
  139.9777  144.6450  150.7930 LP  0  0  0  0  0  0  0  0  0  0  0  0  # atno 17342 bound_to 10162
  140.7544  143.3026  151.3042 LP  0  0  0  0  0  0  0  0  0  0  0  0  # atno 17343 bound_to 10162
  157.2453  130.6588  149.5907 LP  0  0  0  0  0  0  0  0  0  0  0  0  # atno 17370 bound_to 10713
  155.9692  130.4555  150.5891 LP  0  0  0  0  0  0  0  0  0  0  0  0  # atno 17371 bound_to 10713
  140.9868  133.7233  156.0754 LP  0  0  0  0  0  0  0  0  0  0  0  0  # atno 17394 bound_to 11000
  140.7678  134.3867  157.5513 LP  0  0  0  0  0  0  0  0  0  0  0  0  # atno 17395 bound_to 11000

$$$$
