AV-unprocessed.smi:114|AV-procd|sdf|1122|dock6
  -GOLD-   2262018243D 1   1.00000     0.00000
 Structure written by MMmdl.
 32 34  0  0  0  0  0  0  0  0  1 V2000
  154.1425  141.7941  161.1787 N   0  0  0  0  0  0  0  0  0  0  0  0
  153.4004  142.2646  160.1664 C   0  0  0  0  0  0  0  0  0  0  0  0
  153.0674  143.5768  160.1674 N   0  0  0  0  0  0  0  0  0  0  0  0
  152.3263  144.0881  159.1758 C   0  0  0  0  0  0  0  0  0  0  0  0
  152.0411  145.4087  159.2589 F   0  0  0  0  0  0  0  0  0  0  0  0
  151.8356  143.4412  158.1124 N   0  0  0  0  0  0  0  0  0  0  0  0
  152.1720  142.1191  158.1097 C   0  0  0  0  0  0  0  0  0  0  0  0
  152.9469  141.4545  159.0967 C   0  0  0  0  0  0  0  0  0  0  0  0
  153.0808  140.1116  158.7677 N   0  0  0  0  0  0  0  0  0  0  0  0
  152.4196  139.9951  157.6463 C   0  0  0  0  0  0  0  0  0  0  0  0
  151.8437  141.1582  157.1806 N   0  0  0  0  0  0  0  0  0  0  0  0
  151.0263  141.3749  155.9494 C   0  0  1  0  0  0  0  0  0  0  0  0
  151.0048  140.1979  155.2124 O   0  0  0  0  0  0  0  0  0  0  0  0
  149.8455  140.2046  154.3875 C   0  0  1  0  0  0  0  0  0  0  0  0
  149.3309  138.7645  154.2107 C   0  0  0  0  0  0  0  0  0  0  0  0
  150.3267  137.9096  153.6871 O   0  0  0  0  0  0  0  0  0  0  0  0
  148.8511  141.2106  155.0091 C   0  0  2  0  0  0  0  0  0  0  0  0
  148.6466  142.2851  154.1114 O   0  0  0  0  0  0  0  0  0  0  0  0
  149.5633  141.7140  156.2606 C   0  0  1  0  0  0  0  0  0  0  0  0
  149.0771  141.0603  157.4194 O   0  0  0  0  0  0  0  0  0  0  0  0
  151.5383  142.1569  155.3859 H   0  0  0  0  0  0  0  0  0  0  0  0
  150.1761  140.5646  153.4112 H   0  0  0  0  0  0  0  0  0  0  0  0
  147.8790  140.7715  155.2374 H   0  0  0  0  0  0  0  0  0  0  0  0
  149.4602  142.7899  156.4102 H   0  0  0  0  0  0  0  0  0  0  0  0
  154.4026  140.8183  161.2001 H   0  0  0  0  0  0  0  0  0  0  0  0
  154.4411  142.4149  161.9171 H   0  0  0  0  0  0  0  0  0  0  0  0
  152.3286  139.0516  157.1273 H   0  0  0  0  0  0  0  0  0  0  0  0
  149.0218  138.3643  155.1767 H   0  0  0  0  0  0  0  0  0  0  0  0
  148.4546  138.7452  153.5623 H   0  0  0  0  0  0  0  0  0  0  0  0
  149.9358  137.3638  153.0219 H   0  0  0  0  0  0  0  0  0  0  0  0
  148.7581  143.0961  154.5834 H   0  0  0  0  0  0  0  0  0  0  0  0
  149.5198  141.4221  158.1720 H   0  0  0  0  0  0  0  0  0  0  0  0
  1  2  1  0  0  0  0
  1 25  1  0  0  0  0
  1 26  1  0  0  0  0
  2  8  1  0  0  0  0
  2  3  2  0  0  0  0
  3  4  1  0  0  0  0
  4  5  1  0  0  0  0
  4  6  2  0  0  0  0
  6  7  1  0  0  0  0
  7 11  1  0  0  0  0
  7  8  2  0  0  0  0
  8  9  1  0  0  0  0
  9 10  2  0  0  0  0
 10 11  1  0  0  0  0
 10 27  1  0  0  0  0
 11 12  1  0  0  0  0
 12 21  1  0  0  0  0
 12 19  1  0  0  0  0
 12 13  1  0  0  0  0
 13 14  1  0  0  0  0
 14 22  1  0  0  0  0
 14 15  1  0  0  0  0
 14 17  1  0  0  0  0
 15 16  1  0  0  0  0
 15 28  1  0  0  0  0
 15 29  1  0  0  0  0
 16 30  1  0  0  0  0
 17 23  1  0  0  0  0
 17 18  1  0  0  0  0
 17 19  1  0  0  0  0
 18 31  1  0  0  0  0
 19 24  1  0  0  0  0
 19 20  1  0  0  0  0
 20 32  1  0  0  0  0
M  END
> <s_m_source_file>
AV-unprocessed.smi

> <i_m_source_file_index>
114

> <i_lp_mmshare_version>
43012

> <i_f3d_flags>
0

> <s_epik_input>
RmMobjEpbmMoW05IMl0pYyhjMTIpbltjSF1uMltDQEBIXTNPW0NASF0oW0NIMl1bT0hdKVtDQEBIXShbT0hdKVtDQEBIXTNbT0hd

> <s_epik_cmdline>
J2VwaWtfcHl0aG9uJywgJy1waCcsICc3LjAnLCAnLXRuJywgJzgnLCAnLW1hJywgJzIwMCcsICctbWV0YWxfYmluZGluZycsICctaW1hZScsICc8aW5maWxlLm1hZT4nLCAnLW9tYWUnLCAnPG91dGZpbGUubWFlPic=

> <r_lp_tautomer_probability>
1

> <r_epik_Ionization_Penalty>
1.13199e-05

> <r_epik_Ionization_Penalty_Charging>
0

> <r_epik_Ionization_Penalty_Neutral>
1.13199e-05

> <r_epik_State_Penalty>
-0

> <r_epik_Charging_Adjusted_Penalty>
0

> <i_epik_Tot_Q>
0

> <i_epik_Tot_abs_Q>
0

> <r_epik_Metal_State_Penalty>
-0

> <b_epik_Metal_Only>
0

> <s_epik_Chemistry_Notes>
This compound contains an acetal/aminal-like group ( X-CH(R)-Y where X, Y are N, S, or O) that may be acid/base labile, releasing an aldehyde.

> <s_lp_Force_Field>
OPLS_2005

> <r_lp_Energy>
41.8757

> <b_lp_Chiralities_Consistent>
1

> <s_lp_Variant>
AV-unprocessed.smi:114-16

> <Gold.Version>
5.8.1

> <Gold.Id.Protein>
6NUR|6NUR_protein|mol2

> <Gold.PLP.Fitness>
46.8107

> <Gold.PLP.PLP>
-40.1990

> <Gold.PLP.part.hbond>
-4.7193

> <Gold.PLP.part.metal>
0.0000

> <Gold.PLP.part.buried>
-6.0186

> <Gold.PLP.part.nonpolar>
-29.4280

> <Gold.PLP.part.repulsive>
0.1293

> <Gold.PLP.ligand.clash>
0.0000

> <Gold.PLP.ligand.torsion>
0.0821

> <Gold.PLP.Chemscore.Hbond>
2.2564

> <Gold.PLP.Chemscore.CHOScore>
0.0000

> <Gold.PLP.Chemscore.Metal>
0.0000

> <Gold.Chemscore.Hbonds>
donor molecule, donor type, donor heavy atom, donor atom, acceptor molecule, acceptor atom, score
      L1  H    16    30       P1  7948  1.00
      L1  H    18    31       P1  8028  1.00
      P1  H  8011  8017       L1    18  0.21

> <Gold.PLP.Chemscore.Internal.Correction>
0.0068

> <Gold.Rescore>
     Score         DG    S(hbond)    S(metal)    S(lipo)     H(rot)  DE(clash)    DE(int)     intcor
      5.99      -6.19       2.07        0.00      35.07       4.03       0.19       0.01       ----

> <Gold.Chemscore.Fitness>
5.9917

> <Gold.Chemscore.DG>
-6.1929

> <Gold.Chemscore.ZeroCoef>
-5.4800

> <Gold.Chemscore.Hbond>
2.0720

> <Gold.Chemscore.Metal>
0.0000

> <Gold.Chemscore.Lipo>
35.0721

> <Gold.Chemscore.Internal_Hbond>
0.0000

> <Gold.Chemscore.DEClash>
0.1887

> <Gold.Chemscore.DEInternal>
0.0124

> <Gold.Chemscore.Rot>
4.0277

> <Gold.Chemscore.Internal.Correction>
   9.000000E+99

> <Gold.Chemscore.Hbonds>
donor molecule, donor type, donor heavy atom, donor atom, acceptor molecule, acceptor atom, score
      L1  H    16    30       P1  7948  0.26
      L1  H    18    31       P1  8028  1.00
      P1  H  8011  8017       L1    18  0.12

> <Gold.Chemscore.Hbond.Weighted>
-6.9204

> <Gold.Chemscore.Metal.Weighted>
-0.0000

> <Gold.Chemscore.Lipo.Weighted>
-4.1034

> <Gold.Chemscore.Internal_Hbond.Weighted>
0.0000

> <Gold.Chemscore.DEClash.Weighted>
0.1887

> <Gold.Chemscore.DEInternal.Weighted>
0.0124

> <Gold.Chemscore.Rot.Weighted>
10.3110

> <Gold.Chemscore.Internal.Correction.Weighted>
   9.000000E+99

> <Gold.Protein.RotatedTorsions>
[ 6907 6896 6895 6894 ] final  -39.85 input  -60.11 | X-H torsion
[ 7974 7965 7964 7962 ] final  -47.34 input  175.53 | X-H torsion
[ 8008 7997 7996 7995 ] final  -82.09 input   59.86 | X-H torsion
[ 10167 10162 10161 10158 ] final -120.45 input  -65.29 | X-H torsion
[ 10718 10713 10712 10709 ] final   16.48 input   66.30 | X-H torsion
[ 10763 10752 10751 10750 ] final  119.80 input  -60.55 | X-H torsion
[ 11005 11000 10999 10996 ] final    8.91 input  -57.11 | X-H torsion

> <Gold.Protein.ActiveResidues>
 VAL166  LYS551  ARG553  GLY616  TRP617  ASP618  TYR619  PRO620  LYS621  CYS622 
 ASP623  PHE694  ASN695  SER759  ASP760  ASP761  ALA762  ILE779  LEU786  VAL792 
 PHE793  MET794  SER795  GLU796  ALA797  LYS798  CYS799  TRP800  GLU811  SER814 

> <Gold.Protein.RotatedAtoms>
  150.9854  134.9201  159.7868 H   0  0  0  0  0  0  0  0  0  0  0  0  # atno 6907 bound_to 6896
  152.5235  134.3353  159.9207 H   0  0  0  0  0  0  0  0  0  0  0  0  # atno 6908 bound_to 6896
  151.3360  133.3940  159.2701 H   0  0  0  0  0  0  0  0  0  0  0  0  # atno 6909 bound_to 6896
  145.9626  140.7464  142.9450 H   0  0  0  0  0  0  0  0  0  0  0  0  # atno 7974 bound_to 7965
  154.6050  140.0638  156.9419 H   0  0  0  0  0  0  0  0  0  0  0  0  # atno 8008 bound_to 7997
  155.2068  140.3319  155.4316 H   0  0  0  0  0  0  0  0  0  0  0  0  # atno 8009 bound_to 7997
  156.2342  140.1855  156.7147 H   0  0  0  0  0  0  0  0  0  0  0  0  # atno 8010 bound_to 7997
  140.0357  143.5203  152.2155 H   0  0  0  0  0  0  0  0  0  0  0  0  # atno 10167 bound_to 10162
  157.0685  130.6338  149.5800 H   0  0  0  0  0  0  0  0  0  0  0  0  # atno 10718 bound_to 10713
  153.5886  135.3470  155.2902 H   0  0  0  0  0  0  0  0  0  0  0  0  # atno 10763 bound_to 10752
  154.8656  135.4199  154.2541 H   0  0  0  0  0  0  0  0  0  0  0  0  # atno 10764 bound_to 10752
  153.3343  135.7046  153.6991 H   0  0  0  0  0  0  0  0  0  0  0  0  # atno 10765 bound_to 10752
  140.5317  134.0460  155.7875 H   0  0  0  0  0  0  0  0  0  0  0  0  # atno 11005 bound_to 11000
  144.6818  140.2615  143.7318 LP  0  0  0  0  0  0  0  0  0  0  0  0  # atno 17320 bound_to 7965
  145.8019  139.1968  143.2043 LP  0  0  0  0  0  0  0  0  0  0  0  0  # atno 17321 bound_to 7965
  139.6047  144.7593  151.3090 LP  0  0  0  0  0  0  0  0  0  0  0  0  # atno 17342 bound_to 10162
  140.7282  143.6941  150.7898 LP  0  0  0  0  0  0  0  0  0  0  0  0  # atno 17343 bound_to 10162
  155.9957  130.5025  150.7470 LP  0  0  0  0  0  0  0  0  0  0  0  0  # atno 17370 bound_to 10713
  157.4897  131.0910  151.0441 LP  0  0  0  0  0  0  0  0  0  0  0  0  # atno 17371 bound_to 10713
  141.1278  133.9354  157.2600 LP  0  0  0  0  0  0  0  0  0  0  0  0  # atno 17394 bound_to 11000
  139.9551  135.0167  156.9104 LP  0  0  0  0  0  0  0  0  0  0  0  0  # atno 17395 bound_to 11000

$$$$
