AV-unprocessed.smi:1389|AV-procd|sdf|5649|dock1
  -GOLD-   22720 5273D 1   1.00000     0.00000
 Structure written by MMmdl.
 52 54  0  0  0  0  0  0  0  0  2 V2000
  149.0679  133.0746  153.7536 C   0  0  0  0  0  0  0  0  0  0  0  0
  148.4089  131.7525  154.2172 C   0  0  1  0  0  0  0  0  0  0  0  0
  147.5126  132.0066  155.4589 C   0  0  0  0  0  0  0  0  0  0  0  0
  148.0087  133.0949  156.2943 N   0  0  0  0  0  0  0  0  0  0  0  0
  147.5467  133.3747  157.5196 C   0  0  0  0  0  0  0  0  0  0  0  0
  146.6550  132.7292  158.0707 O   0  0  0  0  0  0  0  0  0  0  0  0
  148.1917  134.4239  158.0566 N   0  0  0  0  0  0  0  0  0  0  0  0
  148.0203  134.9870  159.3528 C   0  0  0  0  0  0  0  0  0  0  0  0
  147.3325  134.2893  160.3758 C   0  0  0  0  0  0  0  0  0  0  0  0
  147.1274  134.9120  161.6188 C   0  0  0  0  0  0  0  0  0  0  0  0
  147.6043  136.2216  161.7922 C   0  0  0  0  0  0  0  0  0  0  0  0
  148.2471  136.9050  160.8245 N   0  0  0  0  0  0  0  0  0  0  0  0
  148.4654  136.3132  159.6241 C   0  0  0  0  0  0  0  0  0  0  0  0
  149.1567  137.0758  158.6542 N   0  0  0  0  0  0  0  0  0  0  0  0
  150.5550  137.4116  158.9071 C   0  0  0  0  0  0  0  0  0  0  0  0
  150.7719  138.8208  158.3455 C   0  0  0  0  0  0  0  0  0  0  0  0
  149.6372  138.9867  157.3397 C   0  0  0  0  0  0  0  0  0  0  0  0
  148.5044  138.2034  157.9965 C   0  0  0  0  0  0  0  0  0  0  0  0
  147.6665  131.0979  153.0875 N   0  3  0  0  0  0  0  0  0  0  0  0
  147.1232  129.7570  153.4437 C   0  0  0  0  0  0  0  0  0  0  0  0
  146.4060  129.1046  152.2504 C   0  0  0  0  0  0  0  0  0  0  0  0
  145.3638  129.9546  151.7996 O   0  0  0  0  0  0  0  0  0  0  0  0
  145.8762  131.1943  151.3382 C   0  0  0  0  0  0  0  0  0  0  0  0
  146.5847  131.9301  152.4888 C   0  0  0  0  0  0  0  0  0  0  0  0
  149.5637  133.5978  154.5708 H   0  0  0  0  0  0  0  0  0  0  0  0
  148.3284  133.7563  153.3323 H   0  0  0  0  0  0  0  0  0  0  0  0
  149.8433  132.9153  153.0064 H   0  0  0  0  0  0  0  0  0  0  0  0
  149.2023  131.0699  154.5266 H   0  0  0  0  0  0  0  0  0  0  0  0
  146.4902  132.2237  155.1436 H   0  0  0  0  0  0  0  0  0  0  0  0
  147.4773  131.1296  156.1050 H   0  0  0  0  0  0  0  0  0  0  0  0
  148.7473  133.6699  155.9157 H   0  0  0  0  0  0  0  0  0  0  0  0
  148.9659  134.7942  157.5246 H   0  0  0  0  0  0  0  0  0  0  0  0
  146.9383  133.2966  160.2200 H   0  0  0  0  0  0  0  0  0  0  0  0
  146.6056  134.4022  162.4152 H   0  0  0  0  0  0  0  0  0  0  0  0
  147.4604  136.7372  162.7301 H   0  0  0  0  0  0  0  0  0  0  0  0
  150.8052  137.3625  159.9678 H   0  0  0  0  0  0  0  0  0  0  0  0
  151.1879  136.7007  158.3758 H   0  0  0  0  0  0  0  0  0  0  0  0
  150.6618  139.5550  159.1446 H   0  0  0  0  0  0  0  0  0  0  0  0
  151.7588  138.9529  157.9016 H   0  0  0  0  0  0  0  0  0  0  0  0
  149.3800  140.0292  157.1506 H   0  0  0  0  0  0  0  0  0  0  0  0
  149.9100  138.5245  156.3899 H   0  0  0  0  0  0  0  0  0  0  0  0
  147.7671  137.8670  157.2671 H   0  0  0  0  0  0  0  0  0  0  0  0
  148.0012  138.8389  158.7265 H   0  0  0  0  0  0  0  0  0  0  0  0
  147.9151  129.0801  153.7572 H   0  0  0  0  0  0  0  0  0  0  0  0
  146.4324  129.8538  154.2828 H   0  0  0  0  0  0  0  0  0  0  0  0
  147.1056  128.8969  151.4390 H   0  0  0  0  0  0  0  0  0  0  0  0
  145.9749  128.1490  152.5497 H   0  0  0  0  0  0  0  0  0  0  0  0
  146.5570  131.0326  150.5007 H   0  0  0  0  0  0  0  0  0  0  0  0
  145.0498  131.7973  150.9616 H   0  0  0  0  0  0  0  0  0  0  0  0
  145.8629  132.2026  153.2603 H   0  0  0  0  0  0  0  0  0  0  0  0
  146.9861  132.8529  152.0730 H   0  0  0  0  0  0  0  0  0  0  0  0
  148.3421  130.9498  152.3512 H   0  0  0  0  0  0  0  0  0  0  0  0
  1  2  1  0  0  0  0
  1 25  1  0  0  0  0
  1 26  1  0  0  0  0
  1 27  1  0  0  0  0
  2  3  1  0  0  0  0
  2 19  1  0  0  0  0
  2 28  1  0  0  0  0
  3  4  1  0  0  0  0
  3 29  1  0  0  0  0
  3 30  1  0  0  0  0
  4  5  1  0  0  0  0
  4 31  1  0  0  0  0
  5  6  2  0  0  0  0
  5  7  1  0  0  0  0
  7  8  1  0  0  0  0
  7 32  1  0  0  0  0
  8 13  1  0  0  0  0
  8  9  2  0  0  0  0
  9 10  1  0  0  0  0
  9 33  1  0  0  0  0
 10 11  2  0  0  0  0
 10 34  1  0  0  0  0
 11 12  1  0  0  0  0
 11 35  1  0  0  0  0
 12 13  2  0  0  0  0
 13 14  1  0  0  0  0
 14 18  1  0  0  0  0
 14 15  1  0  0  0  0
 15 16  1  0  0  0  0
 15 36  1  0  0  0  0
 15 37  1  0  0  0  0
 16 17  1  0  0  0  0
 16 38  1  0  0  0  0
 16 39  1  0  0  0  0
 17 18  1  0  0  0  0
 17 40  1  0  0  0  0
 17 41  1  0  0  0  0
 18 42  1  0  0  0  0
 18 43  1  0  0  0  0
 19 24  1  0  0  0  0
 19 20  1  0  0  0  0
 19 52  1  0  0  0  0
 20 21  1  0  0  0  0
 20 44  1  0  0  0  0
 20 45  1  0  0  0  0
 21 22  1  0  0  0  0
 21 46  1  0  0  0  0
 21 47  1  0  0  0  0
 22 23  1  0  0  0  0
 23 24  1  0  0  0  0
 23 48  1  0  0  0  0
 23 49  1  0  0  0  0
 24 50  1  0  0  0  0
 24 51  1  0  0  0  0
M  CHG  1  19   1
M  END
> <s_m_source_file>
AV-unprocessed.smi

> <i_m_source_file_index>
1389

> <i_lp_mmshare_version>
43012

> <i_f3d_flags>
0

> <s_epik_input>
W0NIMl0xW0NIMl1PW0NIMl1bQ0gyXU4xW0NASF0oW0NIM10pW0NIMl1bTkhdQyg9TylbTkhdYzJbY0hdW2NIXVtjSF1uYzJOM1tDSDJdW0NIMl1bQ0gyXVtDSDJdMw==

> <s_epik_cmdline>
J2VwaWtfcHl0aG9uJywgJy1waCcsICc3LjAnLCAnLXRuJywgJzgnLCAnLW1hJywgJzIwMCcsICctbWV0YWxfYmluZGluZycsICctaW1hZScsICc8aW5maWxlLm1hZT4nLCAnLW9tYWUnLCAnPG91dGZpbGUubWFlPic=

> <r_lp_tautomer_probability>
1

> <r_epik_Ionization_Penalty>
0.686

> <r_epik_Ionization_Penalty_Charging>
0.602531

> <r_epik_Ionization_Penalty_Neutral>
0.08347

> <r_epik_State_Penalty>
0.679975

> <r_epik_Charging_Adjusted_Penalty>
1.28251

> <i_epik_Tot_Q>
1

> <i_epik_Tot_abs_Q>
1

> <r_epik_Metal_State_Penalty>
0.679055

> <b_epik_Metal_Only>
0

> <s_lp_Force_Field>
OPLS_2005

> <r_lp_Energy>
49.8528

> <b_lp_Chiralities_Consistent>
1

> <s_lp_Variant>
AV-unprocessed.smi:1389-4

> <Gold.Version>
5.8.1

> <Gold.Id.Protein>
6NUR|6NUR_protein|mol2

> <Gold.PLP.Fitness>
38.2163

> <Gold.PLP.PLP>
-32.2930

> <Gold.PLP.part.hbond>
-2.8008

> <Gold.PLP.part.metal>
0.0000

> <Gold.PLP.part.buried>
-5.5268

> <Gold.PLP.part.nonpolar>
-24.7329

> <Gold.PLP.part.repulsive>
0.2106

> <Gold.PLP.ligand.clash>
0.0000

> <Gold.PLP.ligand.torsion>
0.6200

> <Gold.PLP.Chemscore.Hbond>
2.2611

> <Gold.PLP.Chemscore.CHOScore>
0.0000

> <Gold.PLP.Chemscore.Metal>
0.0000

> <Gold.Chemscore.Hbonds>
donor molecule, donor type, donor heavy atom, donor atom, acceptor molecule, acceptor atom, score
      L1  H    19    52       P1 10747  0.68
      P1  H  6931  6943       L1    12  0.95
      P1  H  6934  6947       L1    12  0.11

> <Gold.PLP.Chemscore.Internal.Correction>
0.3800

> <Gold.Rescore>
     Score         DG    S(hbond)    S(metal)    S(lipo)     H(rot)  DE(clash)    DE(int)     intcor
     14.96     -16.78       1.74        0.00      82.54       1.63       0.00       1.82       ----

> <Gold.Chemscore.Fitness>
14.9579

> <Gold.Chemscore.DG>
-16.7820

> <Gold.Chemscore.ZeroCoef>
-5.4800

> <Gold.Chemscore.Hbond>
1.7424

> <Gold.Chemscore.Metal>
0.0000

> <Gold.Chemscore.Lipo>
82.5378

> <Gold.Chemscore.Internal_Hbond>
0.0000

> <Gold.Chemscore.DEClash>
0.0000

> <Gold.Chemscore.DEInternal>
1.8241

> <Gold.Chemscore.Rot>
1.6307

> <Gold.Chemscore.Internal.Correction>
   9.000000E+99

> <Gold.Chemscore.Hbonds>
donor molecule, donor type, donor heavy atom, donor atom, acceptor molecule, acceptor atom, score
      L1  H    19    52       P1 10747  0.66
      P1  H  6931  6943       L1    12  0.20
      P1  H  6934  6947       L1    12  0.04

> <Gold.Chemscore.Hbond.Weighted>
-5.8197

> <Gold.Chemscore.Metal.Weighted>
-0.0000

> <Gold.Chemscore.Lipo.Weighted>
-9.6569

> <Gold.Chemscore.Internal_Hbond.Weighted>
0.0000

> <Gold.Chemscore.DEClash.Weighted>
0.0000

> <Gold.Chemscore.DEInternal.Weighted>
1.8241

> <Gold.Chemscore.Rot.Weighted>
4.1746

> <Gold.Chemscore.Internal.Correction.Weighted>
   9.000000E+99

> <Gold.Protein.RotatedTorsions>
[ 6907 6896 6895 6894 ] final  156.00 input  -60.11 | X-H torsion
[ 7974 7965 7964 7962 ] final   43.58 input  175.53 | X-H torsion
[ 8008 7997 7996 7995 ] final  -66.05 input   59.86 | X-H torsion
[ 10167 10162 10161 10158 ] final -149.97 input  -65.29 | X-H torsion
[ 10718 10713 10712 10709 ] final   93.06 input   66.30 | X-H torsion
[ 10763 10752 10751 10750 ] final  110.56 input  -60.55 | X-H torsion
[ 11005 11000 10999 10996 ] final -126.79 input  -57.11 | X-H torsion

> <Gold.Protein.ActiveResidues>
 VAL166  LYS551  ARG553  GLY616  TRP617  ASP618  TYR619  PRO620  LYS621  CYS622 
 ASP623  PHE694  ASN695  SER759  ASP760  ASP761  ALA762  ILE779  LEU786  VAL792 
 PHE793  MET794  SER795  GLU796  ALA797  LYS798  CYS799  TRP800  GLU811  SER814 

> <Gold.Protein.RotatedAtoms>
  152.0360  133.3957  159.4316 H   0  0  0  0  0  0  0  0  0  0  0  0  # atno 6907 bound_to 6896
  150.6879  134.3468  159.4901 H   0  0  0  0  0  0  0  0  0  0  0  0  # atno 6908 bound_to 6896
  152.1260  134.9169  160.0611 H   0  0  0  0  0  0  0  0  0  0  0  0  # atno 6909 bound_to 6896
  146.0643  139.5170  142.9638 H   0  0  0  0  0  0  0  0  0  0  0  0  # atno 7974 bound_to 7965
  154.4710  140.0920  156.7143 H   0  0  0  0  0  0  0  0  0  0  0  0  # atno 8008 bound_to 7997
  155.4725  140.3465  155.4309 H   0  0  0  0  0  0  0  0  0  0  0  0  # atno 8009 bound_to 7997
  156.1038  140.1429  156.9420 H   0  0  0  0  0  0  0  0  0  0  0  0  # atno 8010 bound_to 7997
  139.7396  143.8683  152.2558 H   0  0  0  0  0  0  0  0  0  0  0  0  # atno 10167 bound_to 10162
  157.6956  131.0465  150.3977 H   0  0  0  0  0  0  0  0  0  0  0  0  # atno 10718 bound_to 10713
  153.4507  135.3744  155.2282 H   0  0  0  0  0  0  0  0  0  0  0  0  # atno 10763 bound_to 10752
  154.8756  135.3885  154.4042 H   0  0  0  0  0  0  0  0  0  0  0  0  # atno 10764 bound_to 10752
  153.4600  135.7086  153.6120 H   0  0  0  0  0  0  0  0  0  0  0  0  # atno 10765 bound_to 10752
  140.9652  134.0881  157.3927 H   0  0  0  0  0  0  0  0  0  0  0  0  # atno 11005 bound_to 11000
  145.6506  141.0264  143.1762 LP  0  0  0  0  0  0  0  0  0  0  0  0  # atno 17320 bound_to 7965
  144.7193  139.8086  143.7387 LP  0  0  0  0  0  0  0  0  0  0  0  0  # atno 17321 bound_to 7965
  139.8629  144.7108  150.9078 LP  0  0  0  0  0  0  0  0  0  0  0  0  # atno 17342 bound_to 10162
  140.7784  143.3802  151.1491 LP  0  0  0  0  0  0  0  0  0  0  0  0  # atno 17343 bound_to 10162
  156.4373  130.3984  149.6720 LP  0  0  0  0  0  0  0  0  0  0  0  0  # atno 17370 bound_to 10713
  156.3916  130.7630  151.2631 LP  0  0  0  0  0  0  0  0  0  0  0  0  # atno 17371 bound_to 10713
  139.8892  135.0103  156.6666 LP  0  0  0  0  0  0  0  0  0  0  0  0  # atno 17394 bound_to 11000
  140.7409  133.8979  155.8277 LP  0  0  0  0  0  0  0  0  0  0  0  0  # atno 17395 bound_to 11000

$$$$
