AV-unprocessed.smi:3241|AV-procd|sdf|12389|dock3
  -GOLD-   2272018253D 1   1.00000     0.00000
 Structure written by MMmdl.
 43 44  0  0  0  0  0  0  0  0  1 V2000
  153.4116  141.9462  161.8681 C   0  0  0  0  0  0  0  0  0  0  0  0
  152.9966  142.7985  160.6567 C   0  0  2  0  0  0  0  0  0  0  0  0
  152.2312  144.0576  161.1107 C   0  0  0  0  0  0  0  0  0  0  0  0
  151.8037  144.9247  159.9169 C   0  0  0  0  0  0  0  0  0  0  0  0
  150.9642  144.1144  158.9190 C   0  0  0  0  0  0  0  0  0  0  0  0
  151.7192  142.8608  158.4520 C   0  0  0  0  0  0  0  0  0  0  0  0
  152.1578  141.9853  159.6447 C   0  0  1  0  0  0  0  0  0  0  0  0
  152.9687  140.9117  159.1862 O   0  0  0  0  0  0  0  0  0  0  0  0
  152.3358  139.6405  159.1788 C   0  0  0  0  0  0  0  0  0  0  0  0
  151.1457  139.7201  158.2183 C   0  0  0  0  0  0  0  0  0  0  0  0
  150.5474  138.4017  158.0448 N   0  0  0  0  0  0  0  0  0  0  0  0
  149.4532  138.1222  158.9687 C   0  0  0  0  0  0  0  0  0  0  0  0
  149.1517  136.6163  159.0389 C   0  0  0  0  0  0  0  0  0  0  0  0
  148.3804  136.2669  160.2199 N   0  0  0  0  0  0  0  0  0  0  0  0
  147.9045  135.0285  160.5966 C   0  0  0  0  0  0  0  0  0  0  0  0
  147.2513  135.1880  161.7851 C   0  0  0  0  0  0  0  0  0  0  0  0
  147.3813  136.5783  162.0584 C   0  0  0  0  0  0  0  0  0  0  0  0
  148.0572  137.2213  161.1201 N   0  0  0  0  0  0  0  0  0  0  0  0
  152.5411  141.5714  162.4073 H   0  0  0  0  0  0  0  0  0  0  0  0
  154.0134  142.5254  162.5687 H   0  0  0  0  0  0  0  0  0  0  0  0
  154.0076  141.0859  161.5627 H   0  0  0  0  0  0  0  0  0  0  0  0
  153.9088  143.1254  160.1549 H   0  0  0  0  0  0  0  0  0  0  0  0
  151.3484  143.7664  161.6816 H   0  0  0  0  0  0  0  0  0  0  0  0
  152.8521  144.6486  161.7850 H   0  0  0  0  0  0  0  0  0  0  0  0
  151.2352  145.7863  160.2676 H   0  0  0  0  0  0  0  0  0  0  0  0
  152.6883  145.3200  159.4158 H   0  0  0  0  0  0  0  0  0  0  0  0
  150.0221  143.8223  159.3846 H   0  0  0  0  0  0  0  0  0  0  0  0
  150.7063  144.7348  158.0601 H   0  0  0  0  0  0  0  0  0  0  0  0
  151.0836  142.2922  157.7734 H   0  0  0  0  0  0  0  0  0  0  0  0
  152.5966  143.1592  157.8763 H   0  0  0  0  0  0  0  0  0  0  0  0
  151.2767  141.5983  160.1604 H   0  0  0  0  0  0  0  0  0  0  0  0
  153.0232  138.8523  158.8667 H   0  0  0  0  0  0  0  0  0  0  0  0
  151.9861  139.3953  160.1816 H   0  0  0  0  0  0  0  0  0  0  0  0
  150.3997  140.4117  158.6108 H   0  0  0  0  0  0  0  0  0  0  0  0
  151.4768  140.1229  157.2604 H   0  0  0  0  0  0  0  0  0  0  0  0
  150.2173  138.3031  157.0894 H   0  0  0  0  0  0  0  0  0  0  0  0
  149.7056  138.4917  159.9630 H   0  0  0  0  0  0  0  0  0  0  0  0
  148.5537  138.6547  158.6575 H   0  0  0  0  0  0  0  0  0  0  0  0
  148.6169  136.2884  158.1458 H   0  0  0  0  0  0  0  0  0  0  0  0
  150.0857  136.0540  159.0671 H   0  0  0  0  0  0  0  0  0  0  0  0
  148.0725  134.1467  159.9961 H   0  0  0  0  0  0  0  0  0  0  0  0
  146.7572  134.4273  162.3711 H   0  0  0  0  0  0  0  0  0  0  0  0
  147.0100  137.1354  162.9059 H   0  0  0  0  0  0  0  0  0  0  0  0
  1  2  1  0  0  0  0
  1 19  1  0  0  0  0
  1 20  1  0  0  0  0
  1 21  1  0  0  0  0
  2  7  1  0  0  0  0
  2  3  1  0  0  0  0
  2 22  1  0  0  0  0
  3  4  1  0  0  0  0
  3 23  1  0  0  0  0
  3 24  1  0  0  0  0
  4  5  1  0  0  0  0
  4 25  1  0  0  0  0
  4 26  1  0  0  0  0
  5  6  1  0  0  0  0
  5 27  1  0  0  0  0
  5 28  1  0  0  0  0
  6  7  1  0  0  0  0
  6 29  1  0  0  0  0
  6 30  1  0  0  0  0
  7  8  1  0  0  0  0
  7 31  1  0  0  0  0
  8  9  1  0  0  0  0
  9 10  1  0  0  0  0
  9 32  1  0  0  0  0
  9 33  1  0  0  0  0
 10 11  1  0  0  0  0
 10 34  1  0  0  0  0
 10 35  1  0  0  0  0
 11 12  1  0  0  0  0
 11 36  1  0  0  0  0
 12 13  1  0  0  0  0
 12 37  1  0  0  0  0
 12 38  1  0  0  0  0
 13 14  1  0  0  0  0
 13 39  1  0  0  0  0
 13 40  1  0  0  0  0
 14 18  1  0  0  0  0
 14 15  1  0  0  0  0
 15 16  2  0  0  0  0
 15 41  1  0  0  0  0
 16 17  1  0  0  0  0
 16 42  1  0  0  0  0
 17 18  2  0  0  0  0
 17 43  1  0  0  0  0
M  END
> <s_m_source_file>
AV-unprocessed.smi

> <i_m_source_file_index>
3241

> <i_lp_mmshare_version>
43012

> <i_f3d_flags>
0

> <s_epik_input>
W0NIM11bQ0BASF0xW0NIMl1bQ0gyXVtDSDJdW0NIMl1bQ0BIXTFPW0NIMl1bQ0gyXVtOSF1bQ0gyXVtDSDJdbjJbY0hdW2NIXVtjSF1uMg==

> <s_epik_cmdline>
J2VwaWtfcHl0aG9uJywgJy1waCcsICc3LjAnLCAnLXRuJywgJzgnLCAnLW1hJywgJzIwMCcsICctbWV0YWxfYmluZGluZycsICctaW1hZScsICc8aW5maWxlLm1hZT4nLCAnLW9tYWUnLCAnPG91dGZpbGUubWFlPic=

> <r_lp_tautomer_probability>
1

> <r_epik_Ionization_Penalty>
2.47055

> <r_epik_Ionization_Penalty_Charging>
0

> <r_epik_Ionization_Penalty_Neutral>
2.47055

> <r_epik_State_Penalty>
2.6322

> <r_epik_Charging_Adjusted_Penalty>
2.6322

> <i_epik_Tot_Q>
0

> <i_epik_Tot_abs_Q>
0

> <r_epik_Metal_State_Penalty>
2.63108

> <b_epik_Metal_Only>
0

> <s_lp_Force_Field>
OPLS_2005

> <r_lp_Energy>
15.2111

> <b_lp_Chiralities_Consistent>
1

> <s_lp_Variant>
AV-unprocessed.smi:3241-5

> <Gold.Version>
5.8.1

> <Gold.Id.Protein>
6NUR|6NUR_protein|mol2

> <Gold.PLP.Fitness>
44.7450

> <Gold.PLP.PLP>
-41.8124

> <Gold.PLP.part.hbond>
-2.0000

> <Gold.PLP.part.metal>
0.0000

> <Gold.PLP.part.buried>
-4.6666

> <Gold.PLP.part.nonpolar>
-35.4772

> <Gold.PLP.part.repulsive>
0.0000

> <Gold.PLP.ligand.clash>
0.0000

> <Gold.PLP.ligand.torsion>
1.0329

> <Gold.PLP.Chemscore.Hbond>
1.6420

> <Gold.PLP.Chemscore.CHOScore>
0.0000

> <Gold.PLP.Chemscore.Metal>
0.0000

> <Gold.Chemscore.Hbonds>
donor molecule, donor type, donor heavy atom, donor atom, acceptor molecule, acceptor atom, score
      P1  H  6931  6943       L1    18  0.99
      P1  H  6934  6947       L1    18  0.69

> <Gold.PLP.Chemscore.Internal.Correction>
0.0725

> <Gold.Rescore>
     Score         DG    S(hbond)    S(metal)    S(lipo)     H(rot)  DE(clash)    DE(int)     intcor
     18.23     -19.29       1.52        0.00     113.80       1.79       0.13       0.93       ----

> <Gold.Chemscore.Fitness>
18.2293

> <Gold.Chemscore.DG>
-19.2935

> <Gold.Chemscore.ZeroCoef>
-5.4800

> <Gold.Chemscore.Hbond>
1.5213

> <Gold.Chemscore.Metal>
0.0000

> <Gold.Chemscore.Lipo>
113.8037

> <Gold.Chemscore.Internal_Hbond>
0.0000

> <Gold.Chemscore.DEClash>
0.1334

> <Gold.Chemscore.DEInternal>
0.9308

> <Gold.Chemscore.Rot>
1.7901

> <Gold.Chemscore.Internal.Correction>
   9.000000E+99

> <Gold.Chemscore.Hbonds>
donor molecule, donor type, donor heavy atom, donor atom, acceptor molecule, acceptor atom, score
      P1  H  6931  6943       L1    18  0.51
      P1  H  6934  6947       L1    18  0.39

> <Gold.Chemscore.Hbond.Weighted>
-5.0812

> <Gold.Chemscore.Metal.Weighted>
-0.0000

> <Gold.Chemscore.Lipo.Weighted>
-13.3150

> <Gold.Chemscore.Internal_Hbond.Weighted>
0.0000

> <Gold.Chemscore.DEClash.Weighted>
0.1334

> <Gold.Chemscore.DEInternal.Weighted>
0.9308

> <Gold.Chemscore.Rot.Weighted>
4.5827

> <Gold.Chemscore.Internal.Correction.Weighted>
   9.000000E+99

> <Gold.Protein.RotatedTorsions>
[ 6907 6896 6895 6894 ] final   47.98 input  -60.11 | X-H torsion
[ 7974 7965 7964 7962 ] final   25.73 input  175.53 | X-H torsion
[ 8008 7997 7996 7995 ] final  -73.29 input   59.86 | X-H torsion
[ 10167 10162 10161 10158 ] final  -59.44 input  -65.29 | X-H torsion
[ 10718 10713 10712 10709 ] final   24.62 input   66.30 | X-H torsion
[ 10763 10752 10751 10750 ] final  171.56 input  -60.55 | X-H torsion
[ 11005 11000 10999 10996 ] final -103.29 input  -57.11 | X-H torsion

> <Gold.Protein.ActiveResidues>
 VAL166  LYS551  ARG553  GLY616  TRP617  ASP618  TYR619  PRO620  LYS621  CYS622 
 ASP623  PHE694  ASN695  SER759  ASP760  ASP761  ALA762  ILE779  LEU786  VAL792 
 PHE793  MET794  SER795  GLU796  ALA797  LYS798  CYS799  TRP800  GLU811  SER814 

> <Gold.Protein.RotatedAtoms>
  152.2743  134.7899  160.0408 H   0  0  0  0  0  0  0  0  0  0  0  0  # atno 6907 bound_to 6896
  151.8500  133.3433  159.3678 H   0  0  0  0  0  0  0  0  0  0  0  0  # atno 6908 bound_to 6896
  150.7164  134.5236  159.5710 H   0  0  0  0  0  0  0  0  0  0  0  0  # atno 6909 bound_to 6896
  146.1873  139.7425  142.8857 H   0  0  0  0  0  0  0  0  0  0  0  0  # atno 7974 bound_to 7965
  154.5235  140.0782  156.8216 H   0  0  0  0  0  0  0  0  0  0  0  0  # atno 8008 bound_to 7997
  155.3525  140.3413  155.4221 H   0  0  0  0  0  0  0  0  0  0  0  0  # atno 8009 bound_to 7997
  156.1707  140.1618  156.8440 H   0  0  0  0  0  0  0  0  0  0  0  0  # atno 8010 bound_to 7997
  140.6135  143.2395  151.5653 H   0  0  0  0  0  0  0  0  0  0  0  0  # atno 10167 bound_to 10162
  157.1823  130.6808  149.6118 H   0  0  0  0  0  0  0  0  0  0  0  0  # atno 10718 bound_to 10713
  154.4137  135.2756  155.2020 H   0  0  0  0  0  0  0  0  0  0  0  0  # atno 10763 bound_to 10752
  154.3995  135.6047  153.5893 H   0  0  0  0  0  0  0  0  0  0  0  0  # atno 10764 bound_to 10752
  152.9831  135.5923  154.4422 H   0  0  0  0  0  0  0  0  0  0  0  0  # atno 10765 bound_to 10752
  141.1152  133.8628  157.1467 H   0  0  0  0  0  0  0  0  0  0  0  0  # atno 11005 bound_to 11000
  145.3899  141.0371  143.3130 LP  0  0  0  0  0  0  0  0  0  0  0  0  # atno 17320 bound_to 7965
  144.8421  139.5455  143.6895 LP  0  0  0  0  0  0  0  0  0  0  0  0  # atno 17321 bound_to 7965
  139.5380  144.2727  152.1291 LP  0  0  0  0  0  0  0  0  0  0  0  0  # atno 17342 bound_to 10162
  140.1931  144.4732  150.6468 LP  0  0  0  0  0  0  0  0  0  0  0  0  # atno 17343 bound_to 10162
  155.9723  130.4642  150.6211 LP  0  0  0  0  0  0  0  0  0  0  0  0  # atno 17370 bound_to 10713
  157.3941  131.0800  151.1368 LP  0  0  0  0  0  0  0  0  0  0  0  0  # atno 17371 bound_to 10713
  140.0070  135.0004  157.0314 LP  0  0  0  0  0  0  0  0  0  0  0  0  # atno 17394 bound_to 11000
  140.4665  134.1430  155.7197 LP  0  0  0  0  0  0  0  0  0  0  0  0  # atno 17395 bound_to 11000

$$$$
