AV-unprocessed.smi:1243|AV-procd|sdf|5218|dock8
  -GOLD-   22720 4313D 1   1.00000     0.00000
 Structure written by MMmdl.
 51 52  0  0  0  0  0  0  0  0  2 V2000
  152.5001  144.0246  163.6043 C   0  0  0  0  0  0  0  0  0  0  0  0
  152.3991  143.0169  162.6039 O   0  0  0  0  0  0  0  0  0  0  0  0
  152.5274  143.3887  161.2789 C   0  0  0  0  0  0  0  0  0  0  0  0
  152.1340  144.6357  160.9168 N   0  0  0  0  0  0  0  0  0  0  0  0
  152.2563  144.9981  159.6233 C   0  0  0  0  0  0  0  0  0  0  0  0
  152.7653  144.1436  158.6280 C   0  0  0  0  0  0  0  0  0  0  0  0
  153.1749  142.8502  159.0012 C   0  0  0  0  0  0  0  0  0  0  0  0
  153.0674  142.4611  160.3581 C   0  0  0  0  0  0  0  0  0  0  0  0
  153.4322  141.1717  160.8309 N   0  0  0  0  0  0  0  0  0  0  0  0
  153.9206  140.1387  160.1249 C   0  0  0  0  0  0  0  0  0  0  0  0
  154.1565  140.1543  158.9169 O   0  0  0  0  0  0  0  0  0  0  0  0
  154.1513  139.0816  160.9158 N   0  0  0  0  0  0  0  0  0  0  0  0
  154.7367  137.8085  160.4952 C   0  0  0  0  0  0  0  0  0  0  0  0
  155.6666  137.1878  161.5792 C   0  0  0  0  0  0  0  0  0  0  0  0
  156.1804  135.8217  161.0647 C   0  0  0  0  0  0  0  0  0  0  0  0
  156.8777  138.1392  161.7554 C   0  0  0  0  0  0  0  0  0  0  0  0
  154.9448  137.0552  162.8744 N   0  0  0  0  0  0  0  0  0  0  0  0
  155.5616  136.1215  163.8320 C   0  0  0  0  0  0  0  0  0  0  0  0
  154.8963  136.2502  165.2170 C   0  0  0  0  0  0  0  0  0  0  0  0
  153.4420  135.9811  165.1492 N   0  3  0  0  0  0  0  0  0  0  0  0
  153.1002  134.5445  165.0355 C   0  0  0  0  0  0  0  0  0  0  0  0
  152.8129  136.8320  164.1139 C   0  0  0  0  0  0  0  0  0  0  0  0
  153.5241  136.6865  162.7535 C   0  0  0  0  0  0  0  0  0  0  0  0
  152.3868  143.5689  164.5878 H   0  0  0  0  0  0  0  0  0  0  0  0
  151.7156  144.7745  163.4952 H   0  0  0  0  0  0  0  0  0  0  0  0
  153.4732  144.5174  163.5789 H   0  0  0  0  0  0  0  0  0  0  0  0
  151.9321  145.9975  159.3728 H   0  0  0  0  0  0  0  0  0  0  0  0
  152.8350  144.4711  157.6014 H   0  0  0  0  0  0  0  0  0  0  0  0
  153.5469  142.1778  158.2434 H   0  0  0  0  0  0  0  0  0  0  0  0
  153.3904  141.0503  161.8322 H   0  0  0  0  0  0  0  0  0  0  0  0
  153.9336  139.1722  161.8970 H   0  0  0  0  0  0  0  0  0  0  0  0
  153.9264  137.1327  160.2249 H   0  0  0  0  0  0  0  0  0  0  0  0
  155.2960  137.9323  159.5661 H   0  0  0  0  0  0  0  0  0  0  0  0
  156.7187  135.9445  160.1242 H   0  0  0  0  0  0  0  0  0  0  0  0
  155.3693  135.1202  160.8708 H   0  0  0  0  0  0  0  0  0  0  0  0
  156.8735  135.3489  161.7601 H   0  0  0  0  0  0  0  0  0  0  0  0
  157.2900  138.4319  160.7891 H   0  0  0  0  0  0  0  0  0  0  0  0
  157.6989  137.6761  162.3023 H   0  0  0  0  0  0  0  0  0  0  0  0
  156.6022  139.0559  162.2784 H   0  0  0  0  0  0  0  0  0  0  0  0
  155.4933  135.0952  163.4713 H   0  0  0  0  0  0  0  0  0  0  0  0
  156.6190  136.3373  163.9677 H   0  0  0  0  0  0  0  0  0  0  0  0
  155.3673  135.5745  165.9319 H   0  0  0  0  0  0  0  0  0  0  0  0
  155.0474  137.2595  165.6029 H   0  0  0  0  0  0  0  0  0  0  0  0
  153.4708  134.1077  164.1082 H   0  0  0  0  0  0  0  0  0  0  0  0
  152.0189  134.4069  165.0662 H   0  0  0  0  0  0  0  0  0  0  0  0
  153.5274  133.9843  165.8680 H   0  0  0  0  0  0  0  0  0  0  0  0
  151.7546  136.5850  164.0208 H   0  0  0  0  0  0  0  0  0  0  0  0
  152.8578  137.8721  164.4406 H   0  0  0  0  0  0  0  0  0  0  0  0
  153.0052  137.3377  162.0540 H   0  0  0  0  0  0  0  0  0  0  0  0
  153.4184  135.6700  162.3744 H   0  0  0  0  0  0  0  0  0  0  0  0
  153.0564  136.2771  166.0346 H   0  0  0  0  0  0  0  0  0  0  0  0
  1  2  1  0  0  0  0
  1 24  1  0  0  0  0
  1 25  1  0  0  0  0
  1 26  1  0  0  0  0
  2  3  1  0  0  0  0
  3  8  1  0  0  0  0
  3  4  2  0  0  0  0
  4  5  1  0  0  0  0
  5  6  2  0  0  0  0
  5 27  1  0  0  0  0
  6  7  1  0  0  0  0
  6 28  1  0  0  0  0
  7  8  2  0  0  0  0
  7 29  1  0  0  0  0
  8  9  1  0  0  0  0
  9 10  1  0  0  0  0
  9 30  1  0  0  0  0
 10 11  2  0  0  0  0
 10 12  1  0  0  0  0
 12 13  1  0  0  0  0
 12 31  1  0  0  0  0
 13 14  1  0  0  0  0
 13 32  1  0  0  0  0
 13 33  1  0  0  0  0
 14 15  1  0  0  0  0
 14 16  1  0  0  0  0
 14 17  1  0  0  0  0
 15 34  1  0  0  0  0
 15 35  1  0  0  0  0
 15 36  1  0  0  0  0
 16 37  1  0  0  0  0
 16 38  1  0  0  0  0
 16 39  1  0  0  0  0
 17 23  1  0  0  0  0
 17 18  1  0  0  0  0
 18 19  1  0  0  0  0
 18 40  1  0  0  0  0
 18 41  1  0  0  0  0
 19 20  1  0  0  0  0
 19 42  1  0  0  0  0
 19 43  1  0  0  0  0
 20 21  1  0  0  0  0
 20 22  1  0  0  0  0
 20 51  1  0  0  0  0
 21 44  1  0  0  0  0
 21 45  1  0  0  0  0
 21 46  1  0  0  0  0
 22 23  1  0  0  0  0
 22 47  1  0  0  0  0
 22 48  1  0  0  0  0
 23 49  1  0  0  0  0
 23 50  1  0  0  0  0
M  CHG  1  20   1
M  END
> <s_m_source_file>
AV-unprocessed.smi

> <i_m_source_file_index>
1243

> <i_lp_mmshare_version>
43012

> <i_f3d_flags>
0

> <s_epik_input>
W0NIM11PYzFuW2NIXVtjSF1bY0hdYzFbTkhdQyg9TylbTkhdW0NIMl1DKFtDSDNdKShbQ0gzXSlOMltDSDJdW0NIMl1OKFtDSDNdKVtDSDJdW0NIMl0y

> <s_epik_cmdline>
J2VwaWtfcHl0aG9uJywgJy1waCcsICc3LjAnLCAnLXRuJywgJzgnLCAnLW1hJywgJzIwMCcsICctbWV0YWxfYmluZGluZycsICctaW1hZScsICc8aW5maWxlLm1hZT4nLCAnLW9tYWUnLCAnPG91dGZpbGUubWFlPic=

> <r_lp_tautomer_probability>
1

> <r_epik_Ionization_Penalty>
0.0248754

> <r_epik_Ionization_Penalty_Charging>
0.0238192

> <r_epik_Ionization_Penalty_Neutral>
0.00105626

> <r_epik_State_Penalty>
0.139266

> <r_epik_Charging_Adjusted_Penalty>
0.163085

> <i_epik_Tot_Q>
1

> <i_epik_Tot_abs_Q>
1

> <r_epik_Metal_State_Penalty>
0.139265

> <b_epik_Metal_Only>
0

> <s_lp_Force_Field>
OPLS_2005

> <r_lp_Energy>
29.8064

> <b_lp_Chiralities_Consistent>
1

> <s_lp_Variant>
AV-unprocessed.smi:1243-1

> <Gold.Version>
5.8.1

> <Gold.Id.Protein>
6NUR|6NUR_protein|mol2

> <Gold.PLP.Fitness>
42.6371

> <Gold.PLP.PLP>
-42.0376

> <Gold.PLP.part.hbond>
-1.8658

> <Gold.PLP.part.metal>
0.0000

> <Gold.PLP.part.buried>
-6.6404

> <Gold.PLP.part.nonpolar>
-33.2548

> <Gold.PLP.part.repulsive>
0.4597

> <Gold.PLP.ligand.clash>
0.0000

> <Gold.PLP.ligand.torsion>
1.2103

> <Gold.PLP.Chemscore.Hbond>
0.9920

> <Gold.PLP.Chemscore.CHOScore>
0.0000

> <Gold.PLP.Chemscore.Metal>
0.0000

> <Gold.Chemscore.Hbonds>
donor molecule, donor type, donor heavy atom, donor atom, acceptor molecule, acceptor atom, score
      P1  H  7997  8008       L1    11  0.91

> <Gold.PLP.Chemscore.Internal.Correction>
0.0441

> <Gold.Rescore>
     Score         DG    S(hbond)    S(metal)    S(lipo)     H(rot)  DE(clash)    DE(int)     intcor
     14.25     -16.29       0.99        0.00     101.75       1.72       0.30       1.74       ----

> <Gold.Chemscore.Fitness>
14.2459

> <Gold.Chemscore.DG>
-16.2883

> <Gold.Chemscore.ZeroCoef>
-5.4800

> <Gold.Chemscore.Hbond>
0.9911

> <Gold.Chemscore.Metal>
0.0000

> <Gold.Chemscore.Lipo>
101.7482

> <Gold.Chemscore.Internal_Hbond>
0.0000

> <Gold.Chemscore.DEClash>
0.3024

> <Gold.Chemscore.DEInternal>
1.7400

> <Gold.Chemscore.Rot>
1.7213

> <Gold.Chemscore.Internal.Correction>
   9.000000E+99

> <Gold.Chemscore.Hbonds>
donor molecule, donor type, donor heavy atom, donor atom, acceptor molecule, acceptor atom, score
      P1  H  7997  8008       L1    11  0.90

> <Gold.Chemscore.Hbond.Weighted>
-3.3103

> <Gold.Chemscore.Metal.Weighted>
-0.0000

> <Gold.Chemscore.Lipo.Weighted>
-11.9045

> <Gold.Chemscore.Internal_Hbond.Weighted>
0.0000

> <Gold.Chemscore.DEClash.Weighted>
0.3024

> <Gold.Chemscore.DEInternal.Weighted>
1.7400

> <Gold.Chemscore.Rot.Weighted>
4.4066

> <Gold.Chemscore.Internal.Correction.Weighted>
   9.000000E+99

> <Gold.Protein.RotatedTorsions>
[ 6907 6896 6895 6894 ] final  152.36 input  -60.11 | X-H torsion
[ 7974 7965 7964 7962 ] final  -32.26 input  175.53 | X-H torsion
[ 8008 7997 7996 7995 ] final -100.95 input   59.86 | X-H torsion
[ 10167 10162 10161 10158 ] final  -41.01 input  -65.29 | X-H torsion
[ 10718 10713 10712 10709 ] final  168.19 input   66.30 | X-H torsion
[ 10763 10752 10751 10750 ] final  -64.68 input  -60.55 | X-H torsion
[ 11005 11000 10999 10996 ] final  -95.62 input  -57.11 | X-H torsion

> <Gold.Protein.ActiveResidues>
 VAL166  LYS551  ARG553  GLY616  TRP617  ASP618  TYR619  PRO620  LYS621  CYS622 
 ASP623  PHE694  ASN695  SER759  ASP760  ASP761  ALA762  ILE779  LEU786  VAL792 
 PHE793  MET794  SER795  GLU796  ALA797  LYS798  CYS799  TRP800  GLU811  SER814 

> <Gold.Protein.RotatedAtoms>
  152.0878  133.4185  159.4529 H   0  0  0  0  0  0  0  0  0  0  0  0  # atno 6907 bound_to 6896
  150.6862  134.2907  159.4675 H   0  0  0  0  0  0  0  0  0  0  0  0  # atno 6908 bound_to 6896
  152.0755  134.9505  160.0624 H   0  0  0  0  0  0  0  0  0  0  0  0  # atno 6909 bound_to 6896
  146.1003  140.5770  142.8824 H   0  0  0  0  0  0  0  0  0  0  0  0  # atno 7974 bound_to 7965
  154.8357  140.0437  157.1507 H   0  0  0  0  0  0  0  0  0  0  0  0  # atno 8008 bound_to 7997
  154.9103  140.3012  155.5250 H   0  0  0  0  0  0  0  0  0  0  0  0  # atno 8009 bound_to 7997
  156.2989  140.2359  156.4141 H   0  0  0  0  0  0  0  0  0  0  0  0  # atno 8010 bound_to 7997
  140.7016  143.3119  151.3006 H   0  0  0  0  0  0  0  0  0  0  0  0  # atno 10167 bound_to 10162
  157.0407  131.0285  151.2714 H   0  0  0  0  0  0  0  0  0  0  0  0  # atno 10718 bound_to 10713
  154.3336  135.6171  153.5563 H   0  0  0  0  0  0  0  0  0  0  0  0  # atno 10763 bound_to 10752
  152.9809  135.5753  154.4933 H   0  0  0  0  0  0  0  0  0  0  0  0  # atno 10764 bound_to 10752
  154.4624  135.2856  155.1680 H   0  0  0  0  0  0  0  0  0  0  0  0  # atno 10765 bound_to 10752
  141.1436  133.8039  157.0461 H   0  0  0  0  0  0  0  0  0  0  0  0  # atno 11005 bound_to 11000
  144.7428  140.4987  143.6857 LP  0  0  0  0  0  0  0  0  0  0  0  0  # atno 17320 bound_to 7965
  145.5866  139.1492  143.3205 LP  0  0  0  0  0  0  0  0  0  0  0  0  # atno 17321 bound_to 7965
  139.6545  144.0302  152.2650 LP  0  0  0  0  0  0  0  0  0  0  0  0  # atno 17342 bound_to 10162
  139.9849  144.6402  150.7867 LP  0  0  0  0  0  0  0  0  0  0  0  0  # atno 17343 bound_to 10162
  157.5107  130.7936  149.7702 LP  0  0  0  0  0  0  0  0  0  0  0  0  # atno 17370 bound_to 10713
  156.0039  130.3865  150.2503 LP  0  0  0  0  0  0  0  0  0  0  0  0  # atno 17371 bound_to 10713
  140.0662  134.9728  157.1389 LP  0  0  0  0  0  0  0  0  0  0  0  0  # atno 17394 bound_to 11000
  140.3777  134.2321  155.7173 LP  0  0  0  0  0  0  0  0  0  0  0  0  # atno 17395 bound_to 11000

$$$$
