AV-unprocessed.smi:857|AV-procd|sdf|3961|dock1
  -GOLD-   22720 1433D 1   1.00000     0.00000
 Structure written by MMmdl.
 29 30  0  0  0  0  0  0  0  0  2 V2000
  150.4544  145.2969  159.7361 C   0  0  0  0  0  0  0  0  0  0  0  0
  151.2746  144.0241  159.7690 C   0  0  0  0  0  0  0  0  0  0  0  0
  152.0639  143.7097  160.8891 C   0  0  0  0  0  0  0  0  0  0  0  0
  152.8320  142.5173  160.9202 C   0  0  0  0  0  0  0  0  0  0  0  0
  153.6502  142.2558  162.1632 C   0  0  0  0  0  0  0  0  0  0  0  0
  154.5459  141.3920  162.1658 O   0  0  0  0  0  0  0  0  0  0  0  0
  153.4088  142.9272  163.1918 O   0  5  0  0  0  0  0  0  0  0  0  0
  152.7804  141.6448  159.7784 C   0  0  0  0  0  0  0  0  0  0  0  0
  153.2998  140.3817  159.2572 C   0  0  0  0  0  0  0  0  0  0  0  0
  154.2401  139.3400  159.7987 C   0  0  0  0  0  0  0  0  0  0  0  0
  152.8230  140.1321  158.0588 N   0  0  0  0  0  0  0  0  0  0  0  0
  152.0115  141.1572  157.7296 N   0  0  0  0  0  0  0  0  0  0  0  0
  151.3396  141.1312  156.4424 C   0  0  0  0  0  0  0  0  0  0  0  0
  151.6891  139.8625  155.6529 C   0  0  0  0  0  0  0  0  0  0  0  0
  150.9232  139.8091  154.4687 O   0  0  0  0  0  0  0  0  0  0  0  0
  151.9329  142.1107  158.7234 C   0  0  0  0  0  0  0  0  0  0  0  0
  151.1862  143.2496  158.6741 N   0  0  0  0  0  0  0  0  0  0  0  0
  150.5756  145.8718  160.6547 H   0  0  0  0  0  0  0  0  0  0  0  0
  149.3958  145.0626  159.6198 H   0  0  0  0  0  0  0  0  0  0  0  0
  150.7623  145.9250  158.8996 H   0  0  0  0  0  0  0  0  0  0  0  0
  152.0718  144.3954  161.7241 H   0  0  0  0  0  0  0  0  0  0  0  0
  154.6392  139.5299  160.7823 H   0  0  0  0  0  0  0  0  0  0  0  0
  155.0996  139.2214  159.1383 H   0  0  0  0  0  0  0  0  0  0  0  0
  153.7459  138.3696  159.8518 H   0  0  0  0  0  0  0  0  0  0  0  0
  150.2636  141.1913  156.6109 H   0  0  0  0  0  0  0  0  0  0  0  0
  151.6179  142.0224  155.8775 H   0  0  0  0  0  0  0  0  0  0  0  0
  152.7481  139.8501  155.3928 H   0  0  0  0  0  0  0  0  0  0  0  0
  151.4867  138.9710  156.2475 H   0  0  0  0  0  0  0  0  0  0  0  0
  150.0918  139.4049  154.6656 H   0  0  0  0  0  0  0  0  0  0  0  0
  1  2  1  0  0  0  0
  1 18  1  0  0  0  0
  1 19  1  0  0  0  0
  1 20  1  0  0  0  0
  2 17  1  0  0  0  0
  2  3  2  0  0  0  0
  3  4  1  0  0  0  0
  3 21  1  0  0  0  0
  4  5  1  0  0  0  0
  4  8  2  0  0  0  0
  5  6  2  0  0  0  0
  5  7  1  0  0  0  0
  8 16  1  0  0  0  0
  8  9  1  0  0  0  0
  9 10  1  0  0  0  0
  9 11  2  0  0  0  0
 10 22  1  0  0  0  0
 10 23  1  0  0  0  0
 10 24  1  0  0  0  0
 11 12  1  0  0  0  0
 12 13  1  0  0  0  0
 12 16  1  0  0  0  0
 13 14  1  0  0  0  0
 13 25  1  0  0  0  0
 13 26  1  0  0  0  0
 14 15  1  0  0  0  0
 14 27  1  0  0  0  0
 14 28  1  0  0  0  0
 15 29  1  0  0  0  0
 16 17  2  0  0  0  0
M  CHG  1   7  -1
M  END
> <s_m_source_file>
AV-unprocessed.smi

> <i_m_source_file_index>
857

> <i_lp_mmshare_version>
43012

> <i_f3d_flags>
0

> <s_epik_input>
Tz1DKFtPSF0pYzFbY0hdYyhbQ0gzXSluYyhjMTIpbihuYzJbQ0gzXSlbQ0gyXVtDSDJdW09IXQ==

> <s_epik_cmdline>
J2VwaWtfcHl0aG9uJywgJy1waCcsICc3LjAnLCAnLXRuJywgJzgnLCAnLW1hJywgJzIwMCcsICctbWV0YWxfYmluZGluZycsICctaW1hZScsICc8aW5maWxlLm1hZT4nLCAnLW9tYWUnLCAnPG91dGZpbGUubWFlPic=

> <r_lp_tautomer_probability>
1

> <r_epik_Ionization_Penalty>
0.000221063

> <r_epik_Ionization_Penalty_Charging>
0.000215421

> <r_epik_Ionization_Penalty_Neutral>
5.64189e-06

> <r_epik_State_Penalty>
-0

> <r_epik_Charging_Adjusted_Penalty>
0.000215421

> <i_epik_Tot_Q>
-1

> <i_epik_Tot_abs_Q>
1

> <r_epik_Metal_State_Penalty>
-0

> <b_epik_Metal_Only>
0

> <s_lp_Force_Field>
OPLS_2005

> <r_lp_Energy>
11.0008

> <b_lp_Chiralities_Consistent>
1

> <s_lp_Variant>
AV-unprocessed.smi:857-1

> <Gold.Version>
5.8.1

> <Gold.Id.Protein>
6NUR|6NUR_protein|mol2

> <Gold.PLP.Fitness>
43.4364

> <Gold.PLP.PLP>
-37.6411

> <Gold.PLP.part.hbond>
-3.0000

> <Gold.PLP.part.metal>
0.0000

> <Gold.PLP.part.buried>
-4.4642

> <Gold.PLP.part.nonpolar>
-26.9766

> <Gold.PLP.part.repulsive>
0.1744

> <Gold.PLP.ligand.clash>
0.0000

> <Gold.PLP.ligand.torsion>
0.1042

> <Gold.PLP.Chemscore.Hbond>
2.0000

> <Gold.PLP.Chemscore.CHOScore>
0.0000

> <Gold.PLP.Chemscore.Metal>
0.0000

> <Gold.Chemscore.Hbonds>
donor molecule, donor type, donor heavy atom, donor atom, acceptor molecule, acceptor atom, score
      P1  H  7989  7998       L1    15  1.00
      P1  H  7997  8008       L1    11  0.99

> <Gold.PLP.Chemscore.Internal.Correction>
0.0037

> <Gold.Rescore>
     Score         DG    S(hbond)    S(metal)    S(lipo)     H(rot)  DE(clash)    DE(int)     intcor
     13.94     -14.04       1.25        0.00      77.98       1.84       0.00       0.09       ----

> <Gold.Chemscore.Fitness>
13.9433

> <Gold.Chemscore.DG>
-14.0403

> <Gold.Chemscore.ZeroCoef>
-5.4800

> <Gold.Chemscore.Hbond>
1.2454

> <Gold.Chemscore.Metal>
0.0000

> <Gold.Chemscore.Lipo>
77.9768

> <Gold.Chemscore.Internal_Hbond>
0.0000

> <Gold.Chemscore.DEClash>
0.0048

> <Gold.Chemscore.DEInternal>
0.0922

> <Gold.Chemscore.Rot>
1.8448

> <Gold.Chemscore.Internal.Correction>
   9.000000E+99

> <Gold.Chemscore.Hbonds>
donor molecule, donor type, donor heavy atom, donor atom, acceptor molecule, acceptor atom, score
      P1  H  7989  7998       L1    15  0.44
      P1  H  7997  8008       L1    11  0.31

> <Gold.Chemscore.Hbond.Weighted>
-4.1595

> <Gold.Chemscore.Metal.Weighted>
-0.0000

> <Gold.Chemscore.Lipo.Weighted>
-9.1233

> <Gold.Chemscore.Internal_Hbond.Weighted>
0.0000

> <Gold.Chemscore.DEClash.Weighted>
0.0048

> <Gold.Chemscore.DEInternal.Weighted>
0.0922

> <Gold.Chemscore.Rot.Weighted>
4.7226

> <Gold.Chemscore.Internal.Correction.Weighted>
   9.000000E+99

> <Gold.Protein.RotatedTorsions>
[ 6907 6896 6895 6894 ] final -125.06 input  -60.11 | X-H torsion
[ 7974 7965 7964 7962 ] final    2.72 input  175.53 | X-H torsion
[ 8008 7997 7996 7995 ] final  -73.51 input   59.86 | X-H torsion
[ 10167 10162 10161 10158 ] final -111.08 input  -65.29 | X-H torsion
[ 10718 10713 10712 10709 ] final   32.22 input   66.30 | X-H torsion
[ 10763 10752 10751 10750 ] final -108.68 input  -60.55 | X-H torsion
[ 11005 11000 10999 10996 ] final  -93.45 input  -57.11 | X-H torsion

> <Gold.Protein.ActiveResidues>
 VAL166  LYS551  ARG553  GLY616  TRP617  ASP618  TYR619  PRO620  LYS621  CYS622 
 ASP623  PHE694  ASN695  SER759  ASP760  ASP761  ALA762  ILE779  LEU786  VAL792 
 PHE793  MET794  SER795  GLU796  ALA797  LYS798  CYS799  TRP800  GLU811  SER814 

> <Gold.Protein.RotatedAtoms>
  150.8830  133.7346  159.2926 H   0  0  0  0  0  0  0  0  0  0  0  0  # atno 6907 bound_to 6896
  151.4922  135.1056  159.9816 H   0  0  0  0  0  0  0  0  0  0  0  0  # atno 6908 bound_to 6896
  152.4772  133.8120  159.7064 H   0  0  0  0  0  0  0  0  0  0  0  0  # atno 6909 bound_to 6896
  146.2444  140.0794  142.8358 H   0  0  0  0  0  0  0  0  0  0  0  0  # atno 7974 bound_to 7965
  154.5253  140.0778  156.8247 H   0  0  0  0  0  0  0  0  0  0  0  0  # atno 8008 bound_to 7997
  155.3489  140.3411  155.4221 H   0  0  0  0  0  0  0  0  0  0  0  0  # atno 8009 bound_to 7997
  156.1725  140.1624  156.8409 H   0  0  0  0  0  0  0  0  0  0  0  0  # atno 8010 bound_to 7997
  140.1375  143.4308  152.1585 H   0  0  0  0  0  0  0  0  0  0  0  0  # atno 10167 bound_to 10162
  157.2825  130.7262  149.6564 H   0  0  0  0  0  0  0  0  0  0  0  0  # atno 10718 bound_to 10713
  154.8149  135.4629  154.0617 H   0  0  0  0  0  0  0  0  0  0  0  0  # atno 10763 bound_to 10752
  153.2018  135.6870  153.8229 H   0  0  0  0  0  0  0  0  0  0  0  0  # atno 10764 bound_to 10752
  153.7711  135.3270  155.3329 H   0  0  0  0  0  0  0  0  0  0  0  0  # atno 10765 bound_to 10752
  141.1497  133.7889  157.0161 H   0  0  0  0  0  0  0  0  0  0  0  0  # atno 11005 bound_to 11000
  145.0746  140.9179  143.4861 LP  0  0  0  0  0  0  0  0  0  0  0  0  # atno 17320 bound_to 7965
  145.0935  139.2873  143.5723 LP  0  0  0  0  0  0  0  0  0  0  0  0  # atno 17321 bound_to 7965
  139.5489  144.7321  151.4498 LP  0  0  0  0  0  0  0  0  0  0  0  0  # atno 17342 bound_to 10162
  140.6780  143.8145  150.7084 LP  0  0  0  0  0  0  0  0  0  0  0  0  # atno 17343 bound_to 10162
  155.9665  130.4334  150.5003 LP  0  0  0  0  0  0  0  0  0  0  0  0  # atno 17370 bound_to 10713
  157.2950  131.0634  151.2108 LP  0  0  0  0  0  0  0  0  0  0  0  0  # atno 17371 bound_to 10713
  140.0846  134.9628  157.1679 LP  0  0  0  0  0  0  0  0  0  0  0  0  # atno 17394 bound_to 11000
  140.3530  134.2578  155.7196 LP  0  0  0  0  0  0  0  0  0  0  0  0  # atno 17395 bound_to 11000

$$$$
