AV-unprocessed.smi:2579|AV-procd|sdf|10126|dock7
  -GOLD-   2272014143D 1   1.00000     0.00000
 Structure written by MMmdl.
 38 40  0  0  0  0  0  0  0  0  1 V2000
  153.1411  136.3049  156.6953 O   0  0  0  0  0  0  0  0  0  0  0  0
  152.5284  137.5495  156.4341 C   0  0  0  0  0  0  0  0  0  0  0  0
  152.8122  138.5294  157.5798 C   0  0  0  0  0  0  0  0  0  0  0  0
  152.2830  139.8491  157.2947 N   0  0  0  0  0  0  0  0  0  0  0  0
  152.1749  141.0023  158.0609 C   0  0  0  0  0  0  0  0  0  0  0  0
  152.5760  141.0944  159.3276 N   0  0  0  0  0  0  0  0  0  0  0  0
  152.2455  142.3987  159.6450 C   0  0  0  0  0  0  0  0  0  0  0  0
  152.4117  143.1201  160.8490 C   0  0  0  0  0  0  0  0  0  0  0  0
  151.9881  144.4621  160.9417 C   0  0  0  0  0  0  0  0  0  0  0  0
  151.3925  145.1012  159.8348 C   0  0  0  0  0  0  0  0  0  0  0  0
  151.2185  144.4022  158.6249 C   0  0  0  0  0  0  0  0  0  0  0  0
  151.6446  143.0633  158.5362 C   0  0  0  0  0  0  0  0  0  0  0  0
  151.6236  142.1142  157.5186 N   0  0  0  0  0  0  0  0  0  0  0  0
  151.1077  142.3035  156.1703 C   0  0  0  0  0  0  0  0  0  0  0  0
  150.0781  141.2273  155.7901 C   0  0  1  0  0  0  0  0  0  0  0  0
  148.9569  141.7325  154.8820 C   0  0  0  0  0  0  0  0  0  0  0  0
  148.5557  140.5061  154.0736 C   0  0  0  0  0  0  0  0  0  0  0  0
  149.6047  139.4531  154.4373 C   0  0  0  0  0  0  0  0  0  0  0  0
  150.6669  140.1925  155.0183 O   0  0  0  0  0  0  0  0  0  0  0  0
  153.6879  136.3948  157.4607 H   0  0  0  0  0  0  0  0  0  0  0  0
  152.8598  137.9458  155.4732 H   0  0  0  0  0  0  0  0  0  0  0  0
  151.4546  137.3778  156.3570 H   0  0  0  0  0  0  0  0  0  0  0  0
  152.3282  138.1678  158.4874 H   0  0  0  0  0  0  0  0  0  0  0  0
  153.8796  138.5911  157.7938 H   0  0  0  0  0  0  0  0  0  0  0  0
  151.9039  139.9323  156.3623 H   0  0  0  0  0  0  0  0  0  0  0  0
  152.8656  142.6398  161.7033 H   0  0  0  0  0  0  0  0  0  0  0  0
  152.1201  145.0037  161.8668 H   0  0  0  0  0  0  0  0  0  0  0  0
  151.0696  146.1288  159.9153 H   0  0  0  0  0  0  0  0  0  0  0  0
  150.7626  144.8892  157.7758 H   0  0  0  0  0  0  0  0  0  0  0  0
  150.6521  143.2923  156.1095 H   0  0  0  0  0  0  0  0  0  0  0  0
  151.9405  142.3085  155.4663 H   0  0  0  0  0  0  0  0  0  0  0  0
  149.6490  140.7854  156.6917 H   0  0  0  0  0  0  0  0  0  0  0  0
  148.1268  142.1554  155.4488 H   0  0  0  0  0  0  0  0  0  0  0  0
  149.3290  142.5055  154.2081 H   0  0  0  0  0  0  0  0  0  0  0  0
  147.5507  140.1620  154.3201 H   0  0  0  0  0  0  0  0  0  0  0  0
  148.5804  140.7321  153.0068 H   0  0  0  0  0  0  0  0  0  0  0  0
  149.2086  138.7553  155.1765 H   0  0  0  0  0  0  0  0  0  0  0  0
  149.9440  138.8798  153.5741 H   0  0  0  0  0  0  0  0  0  0  0  0
  1  2  1  0  0  0  0
  1 20  1  0  0  0  0
  2  3  1  0  0  0  0
  2 21  1  0  0  0  0
  2 22  1  0  0  0  0
  3  4  1  0  0  0  0
  3 23  1  0  0  0  0
  3 24  1  0  0  0  0
  4  5  1  0  0  0  0
  4 25  1  0  0  0  0
  5 13  1  0  0  0  0
  5  6  2  0  0  0  0
  6  7  1  0  0  0  0
  7 12  2  0  0  0  0
  7  8  1  0  0  0  0
  8  9  2  0  0  0  0
  8 26  1  0  0  0  0
  9 10  1  0  0  0  0
  9 27  1  0  0  0  0
 10 11  2  0  0  0  0
 10 28  1  0  0  0  0
 11 12  1  0  0  0  0
 11 29  1  0  0  0  0
 12 13  1  0  0  0  0
 13 14  1  0  0  0  0
 14 15  1  0  0  0  0
 14 30  1  0  0  0  0
 14 31  1  0  0  0  0
 15 19  1  0  0  0  0
 15 16  1  0  0  0  0
 15 32  1  0  0  0  0
 16 17  1  0  0  0  0
 16 33  1  0  0  0  0
 16 34  1  0  0  0  0
 17 18  1  0  0  0  0
 17 35  1  0  0  0  0
 17 36  1  0  0  0  0
 18 19  1  0  0  0  0
 18 37  1  0  0  0  0
 18 38  1  0  0  0  0
M  END
> <s_m_source_file>
AV-unprocessed.smi

> <i_m_source_file_index>
2579

> <i_lp_mmshare_version>
43012

> <i_f3d_flags>
0

> <s_epik_input>
W09IXVtDSDJdW0NIMl1bTkhdYyhuMSluKGMoYzEyKVtjSF1bY0hdW2NIXVtjSF0yKVtDSDJdW0NAQEhdM1tDSDJdW0NIMl1bQ0gyXU8z

> <s_epik_cmdline>
J2VwaWtfcHl0aG9uJywgJy1waCcsICc3LjAnLCAnLXRuJywgJzgnLCAnLW1hJywgJzIwMCcsICctbWV0YWxfYmluZGluZycsICctaW1hZScsICc8aW5maWxlLm1hZT4nLCAnLW9tYWUnLCAnPG91dGZpbGUubWFlPic=

> <r_epik_Ionization_Penalty>
1.27244

> <r_epik_Ionization_Penalty_Charging>
0

> <r_epik_Ionization_Penalty_Neutral>
1.27244

> <r_epik_State_Penalty>
1.34401

> <r_epik_Charging_Adjusted_Penalty>
1.34401

> <i_epik_Tot_Q>
0

> <i_epik_Tot_abs_Q>
0

> <r_epik_Metal_State_Penalty>
0.00511131

> <b_epik_Metal_Only>
0

> <s_lp_Force_Field>
OPLS_2005

> <r_lp_Energy>
20.6152

> <b_lp_Chiralities_Consistent>
1

> <s_lp_Variant>
AV-unprocessed.smi:2579-4

> <Gold.Version>
5.8.1

> <Gold.Id.Protein>
6NUR|6NUR_protein|mol2

> <Gold.PLP.Fitness>
44.0087

> <Gold.PLP.PLP>
-39.1435

> <Gold.PLP.part.hbond>
-2.0000

> <Gold.PLP.part.metal>
0.0000

> <Gold.PLP.part.buried>
-5.0473

> <Gold.PLP.part.nonpolar>
-31.6565

> <Gold.PLP.part.repulsive>
0.1546

> <Gold.PLP.ligand.clash>
0.0000

> <Gold.PLP.ligand.torsion>
0.5725

> <Gold.PLP.Chemscore.Hbond>
2.0000

> <Gold.PLP.Chemscore.CHOScore>
0.0000

> <Gold.PLP.Chemscore.Metal>
0.0000

> <Gold.Chemscore.Hbonds>
donor molecule, donor type, donor heavy atom, donor atom, acceptor molecule, acceptor atom, score
      P1  H  7989  7998       L1    19  1.00
      P1  H 10752 10763       L1     1  1.00

> <Gold.PLP.Chemscore.Internal.Correction>
0.0102

> <Gold.Rescore>
     Score         DG    S(hbond)    S(metal)    S(lipo)     H(rot)  DE(clash)    DE(int)     intcor
     16.21     -19.16       1.80        0.00     112.92       2.17       0.42       2.53       ----

> <Gold.Chemscore.Fitness>
16.2081

> <Gold.Chemscore.DG>
-19.1576

> <Gold.Chemscore.ZeroCoef>
-5.4800

> <Gold.Chemscore.Hbond>
1.8019

> <Gold.Chemscore.Metal>
0.0000

> <Gold.Chemscore.Lipo>
112.9184

> <Gold.Chemscore.Internal_Hbond>
0.0000

> <Gold.Chemscore.DEClash>
0.4205

> <Gold.Chemscore.DEInternal>
2.5290

> <Gold.Chemscore.Rot>
2.1688

> <Gold.Chemscore.Internal.Correction>
   9.000000E+99

> <Gold.Chemscore.Hbonds>
donor molecule, donor type, donor heavy atom, donor atom, acceptor molecule, acceptor atom, score
      P1  H  7989  7998       L1    19  0.36
      P1  H 10752 10763       L1     1  0.90

> <Gold.Chemscore.Hbond.Weighted>
-6.0183

> <Gold.Chemscore.Metal.Weighted>
-0.0000

> <Gold.Chemscore.Lipo.Weighted>
-13.2115

> <Gold.Chemscore.Internal_Hbond.Weighted>
0.0000

> <Gold.Chemscore.DEClash.Weighted>
0.4205

> <Gold.Chemscore.DEInternal.Weighted>
2.5290

> <Gold.Chemscore.Rot.Weighted>
5.5522

> <Gold.Chemscore.Internal.Correction.Weighted>
   9.000000E+99

> <Gold.Protein.RotatedTorsions>
[ 6907 6896 6895 6894 ] final  -93.72 input  -60.11 | X-H torsion
[ 7974 7965 7964 7962 ] final  178.63 input  175.53 | X-H torsion
[ 8008 7997 7996 7995 ] final  -85.80 input   59.86 | X-H torsion
[ 10167 10162 10161 10158 ] final  -88.57 input  -65.29 | X-H torsion
[ 10718 10713 10712 10709 ] final  100.84 input   66.30 | X-H torsion
[ 10763 10752 10751 10750 ] final  129.22 input  -60.55 | X-H torsion
[ 11005 11000 10999 10996 ] final -154.62 input  -57.11 | X-H torsion

> <Gold.Protein.ActiveResidues>
 VAL166  LYS551  ARG553  GLY616  TRP617  ASP618  TYR619  PRO620  LYS621  CYS622 
 ASP623  PHE694  ASN695  SER759  ASP760  ASP761  ALA762  ILE779  LEU786  VAL792 
 PHE793  MET794  SER795  GLU796  ALA797  LYS798  CYS799  TRP800  GLU811  SER814 

> <Gold.Protein.RotatedAtoms>
  150.6928  134.1923  159.4289 H   0  0  0  0  0  0  0  0  0  0  0  0  # atno 6907 bound_to 6896
  151.9894  134.9985  160.0570 H   0  0  0  0  0  0  0  0  0  0  0  0  # atno 6908 bound_to 6896
  152.1682  133.4591  159.4932 H   0  0  0  0  0  0  0  0  0  0  0  0  # atno 6909 bound_to 6896
  144.7154  140.0426  143.6437 H   0  0  0  0  0  0  0  0  0  0  0  0  # atno 7974 bound_to 7965
  154.6448  140.0587  156.9887 H   0  0  0  0  0  0  0  0  0  0  0  0  # atno 8008 bound_to 7997
  155.1462  140.3270  155.4422 H   0  0  0  0  0  0  0  0  0  0  0  0  # atno 8009 bound_to 7997
  156.2548  140.1955  156.6575 H   0  0  0  0  0  0  0  0  0  0  0  0  # atno 8010 bound_to 7997
  140.3734  143.2783  151.9472 H   0  0  0  0  0  0  0  0  0  0  0  0  # atno 10167 bound_to 10162
  157.6844  131.0709  150.5161 H   0  0  0  0  0  0  0  0  0  0  0  0  # atno 10718 bound_to 10713
  153.7383  135.3228  155.3299 H   0  0  0  0  0  0  0  0  0  0  0  0  # atno 10763 bound_to 10752
  154.8303  135.4538  154.1053 H   0  0  0  0  0  0  0  0  0  0  0  0  # atno 10764 bound_to 10752
  153.2220  135.6949  153.8071 H   0  0  0  0  0  0  0  0  0  0  0  0  # atno 10765 bound_to 10752
  140.6953  134.3996  157.5215 H   0  0  0  0  0  0  0  0  0  0  0  0  # atno 11005 bound_to 11000
  146.0011  139.3092  143.0927 LP  0  0  0  0  0  0  0  0  0  0  0  0  # atno 17320 bound_to 7965
  145.8792  140.9373  143.0610 LP  0  0  0  0  0  0  0  0  0  0  0  0  # atno 17321 bound_to 7965
  139.4801  144.5886  151.7811 LP  0  0  0  0  0  0  0  0  0  0  0  0  # atno 17342 bound_to 10162
  140.5010  144.1168  150.5971 LP  0  0  0  0  0  0  0  0  0  0  0  0  # atno 17343 bound_to 10162
  156.5477  130.4224  149.6123 LP  0  0  0  0  0  0  0  0  0  0  0  0  # atno 17370 bound_to 10713
  156.2930  130.7135  151.1988 LP  0  0  0  0  0  0  0  0  0  0  0  0  # atno 17371 bound_to 10713
  139.8912  134.8786  156.2333 LP  0  0  0  0  0  0  0  0  0  0  0  0  # atno 17394 bound_to 11000
  141.0208  133.7042  156.1265 LP  0  0  0  0  0  0  0  0  0  0  0  0  # atno 17395 bound_to 11000

$$$$
