AV-unprocessed.smi:818|AV-procd|sdf|3833|dock8
  -GOLD-   22720 1273D 1   1.00000     0.00000
 Structure written by MMmdl.
 44 45  0  0  0  0  0  0  0  0  1 V2000
  149.9354  141.9452  157.6941 C   0  0  0  0  0  0  0  0  0  0  0  0
  150.6985  141.9978  156.3651 C   0  0  0  0  0  0  0  0  0  0  0  0
  150.5379  140.7727  155.6071 N   0  0  0  0  0  0  0  0  0  0  0  0
  149.3749  140.2309  155.0969 C   0  0  0  0  0  0  0  0  0  0  0  0
  149.7447  139.0761  154.4756 C   0  0  0  0  0  0  0  0  0  0  0  0
  148.8552  138.1910  153.8175 N   0  0  0  0  0  0  0  0  0  0  0  0
  147.6510  137.7808  154.2469 C   0  0  0  0  0  0  0  0  0  0  0  0
  147.1414  138.0845  155.3257 O   0  0  0  0  0  0  0  0  0  0  0  0
  147.0602  136.9829  153.3454 N   0  0  0  0  0  0  0  0  0  0  0  0
  145.7521  136.3492  153.5059 C   0  0  1  0  0  0  0  0  0  0  0  0
  144.7180  137.2065  152.7572 C   0  0  0  0  0  0  0  0  0  0  0  0
  145.7418  134.9447  152.8801 C   0  0  0  0  0  0  0  0  0  0  0  0
  144.7268  134.2466  152.9121 O   0  0  0  0  0  0  0  0  0  0  0  0
  146.8957  134.5384  152.3289 N   0  0  0  0  0  0  0  0  0  0  0  0
  147.1193  133.2390  151.7010 C   0  0  0  0  0  0  0  0  0  0  0  0
  146.1637  133.0359  150.5095 C   0  0  0  0  0  0  0  0  0  0  0  0
  145.5448  131.6489  150.6930 C   0  0  0  0  0  0  0  0  0  0  0  0
  145.5348  131.4363  152.2035 C   0  0  0  0  0  0  0  0  0  0  0  0
  146.8352  132.0837  152.6813 C   0  0  0  0  0  0  0  0  0  0  0  0
  151.1542  138.9753  154.6490 C   0  0  0  0  0  0  0  0  0  0  0  0
  151.6230  140.0066  155.3357 N   0  0  0  0  0  0  0  0  0  0  0  0
  150.0634  142.8734  158.2511 H   0  0  0  0  0  0  0  0  0  0  0  0
  150.2924  141.1287  158.3226 H   0  0  0  0  0  0  0  0  0  0  0  0
  148.8674  141.7997  157.5296 H   0  0  0  0  0  0  0  0  0  0  0  0
  150.3429  142.8318  155.7591 H   0  0  0  0  0  0  0  0  0  0  0  0
  151.7615  142.1665  156.5432 H   0  0  0  0  0  0  0  0  0  0  0  0
  148.4111  140.7028  155.2201 H   0  0  0  0  0  0  0  0  0  0  0  0
  149.1619  137.8436  152.9208 H   0  0  0  0  0  0  0  0  0  0  0  0
  147.5582  136.7813  152.4909 H   0  0  0  0  0  0  0  0  0  0  0  0
  145.4878  136.2927  154.5638 H   0  0  0  0  0  0  0  0  0  0  0  0
  143.7145  136.7893  152.8504 H   0  0  0  0  0  0  0  0  0  0  0  0
  144.9485  137.2855  151.6937 H   0  0  0  0  0  0  0  0  0  0  0  0
  144.6851  138.2183  153.1628 H   0  0  0  0  0  0  0  0  0  0  0  0
  147.6787  135.1757  152.3471 H   0  0  0  0  0  0  0  0  0  0  0  0
  148.1510  133.1721  151.3503 H   0  0  0  0  0  0  0  0  0  0  0  0
  145.3682  133.7832  150.5213 H   0  0  0  0  0  0  0  0  0  0  0  0
  146.6759  133.1294  149.5511 H   0  0  0  0  0  0  0  0  0  0  0  0
  144.5517  131.5702  150.2500 H   0  0  0  0  0  0  0  0  0  0  0  0
  146.1797  130.8975  150.2220 H   0  0  0  0  0  0  0  0  0  0  0  0
  144.6817  131.9558  152.6424 H   0  0  0  0  0  0  0  0  0  0  0  0
  145.4633  130.3839  152.4794 H   0  0  0  0  0  0  0  0  0  0  0  0
  147.6437  131.3541  152.6173 H   0  0  0  0  0  0  0  0  0  0  0  0
  146.7745  132.4013  153.7234 H   0  0  0  0  0  0  0  0  0  0  0  0
  151.8423  138.2125  154.3170 H   0  0  0  0  0  0  0  0  0  0  0  0
  1  2  1  0  0  0  0
  1 22  1  0  0  0  0
  1 23  1  0  0  0  0
  1 24  1  0  0  0  0
  2  3  1  0  0  0  0
  2 25  1  0  0  0  0
  2 26  1  0  0  0  0
  3 21  1  0  0  0  0
  3  4  1  0  0  0  0
  4  5  2  0  0  0  0
  4 27  1  0  0  0  0
  5  6  1  0  0  0  0
  5 20  1  0  0  0  0
  6  7  1  0  0  0  0
  6 28  1  0  0  0  0
  7  8  2  0  0  0  0
  7  9  1  0  0  0  0
  9 10  1  0  0  0  0
  9 29  1  0  0  0  0
 10 11  1  0  0  0  0
 10 12  1  0  0  0  0
 10 30  1  0  0  0  0
 11 31  1  0  0  0  0
 11 32  1  0  0  0  0
 11 33  1  0  0  0  0
 12 13  2  0  0  0  0
 12 14  1  0  0  0  0
 14 15  1  0  0  0  0
 14 34  1  0  0  0  0
 15 19  1  0  0  0  0
 15 16  1  0  0  0  0
 15 35  1  0  0  0  0
 16 17  1  0  0  0  0
 16 36  1  0  0  0  0
 16 37  1  0  0  0  0
 17 18  1  0  0  0  0
 17 38  1  0  0  0  0
 17 39  1  0  0  0  0
 18 19  1  0  0  0  0
 18 40  1  0  0  0  0
 18 41  1  0  0  0  0
 19 42  1  0  0  0  0
 19 43  1  0  0  0  0
 20 21  2  0  0  0  0
 20 44  1  0  0  0  0
M  END
> <s_m_source_file>
AV-unprocessed.smi

> <i_m_source_file_index>
818

> <i_lp_mmshare_version>
43012

> <i_f3d_flags>
0

> <s_epik_input>
W0NIM11bQ0gyXW4xW2NIXWMoW2NIXW4xKVtOSF1DKD1PKVtOSF1bQ0BIXShbQ0gzXSlDKD1PKVtOSF1bQ0hdMltDSDJdW0NIMl1bQ0gyXVtDSDJdMg==

> <s_epik_cmdline>
J2VwaWtfcHl0aG9uJywgJy1waCcsICc3LjAnLCAnLXRuJywgJzgnLCAnLW1hJywgJzIwMCcsICctbWV0YWxfYmluZGluZycsICctaW1hZScsICc8aW5maWxlLm1hZT4nLCAnLW9tYWUnLCAnPG91dGZpbGUubWFlPic=

> <r_lp_tautomer_probability>
1

> <r_epik_Ionization_Penalty>
0.00015627

> <r_epik_Ionization_Penalty_Charging>
0

> <r_epik_Ionization_Penalty_Neutral>
0.00015627

> <r_epik_State_Penalty>
-0

> <r_epik_Charging_Adjusted_Penalty>
0

> <i_epik_Tot_Q>
0

> <i_epik_Tot_abs_Q>
0

> <r_epik_Metal_State_Penalty>
-0

> <b_epik_Metal_Only>
0

> <s_lp_Force_Field>
OPLS_2005

> <r_lp_Energy>
21.9602

> <b_lp_Chiralities_Consistent>
1

> <s_lp_Variant>
AV-unprocessed.smi:818-2

> <Gold.Version>
5.8.1

> <Gold.Id.Protein>
6NUR|6NUR_protein|mol2

> <Gold.PLP.Fitness>
41.5955

> <Gold.PLP.PLP>
-34.7014

> <Gold.PLP.part.hbond>
-4.0591

> <Gold.PLP.part.metal>
0.0000

> <Gold.PLP.part.buried>
-4.6846

> <Gold.PLP.part.nonpolar>
-27.3326

> <Gold.PLP.part.repulsive>
0.1868

> <Gold.PLP.ligand.clash>
0.0000

> <Gold.PLP.ligand.torsion>
0.6872

> <Gold.PLP.Chemscore.Hbond>
2.7481

> <Gold.PLP.Chemscore.CHOScore>
0.0000

> <Gold.PLP.Chemscore.Metal>
0.0000

> <Gold.Chemscore.Hbonds>
donor molecule, donor type, donor heavy atom, donor atom, acceptor molecule, acceptor atom, score
      L1  H     6    28       P1  7948  0.78
      L1  H     9    29       P1  7948  0.91
      L1  H    14    34       P1  7948  1.00
      P1  H  7989  7998       L1    21  0.05

> <Gold.PLP.Chemscore.Internal.Correction>
0.0242

> <Gold.Rescore>
     Score         DG    S(hbond)    S(metal)    S(lipo)     H(rot)  DE(clash)    DE(int)     intcor
     16.18     -19.31       2.65        0.00      79.28       1.68       0.13       3.01       ----

> <Gold.Chemscore.Fitness>
16.1785

> <Gold.Chemscore.DG>
-19.3136

> <Gold.Chemscore.ZeroCoef>
-5.4800

> <Gold.Chemscore.Hbond>
2.6546

> <Gold.Chemscore.Metal>
0.0000

> <Gold.Chemscore.Lipo>
79.2755

> <Gold.Chemscore.Internal_Hbond>
0.0000

> <Gold.Chemscore.DEClash>
0.1250

> <Gold.Chemscore.DEInternal>
3.0101

> <Gold.Chemscore.Rot>
1.6828

> <Gold.Chemscore.Internal.Correction>
   9.000000E+99

> <Gold.Chemscore.Hbonds>
donor molecule, donor type, donor heavy atom, donor atom, acceptor molecule, acceptor atom, score
      L1  H     6    28       P1  7948  0.77
      L1  H     9    29       P1  7948  0.89
      L1  H    14    34       P1  7948  0.98

> <Gold.Chemscore.Hbond.Weighted>
-8.8664

> <Gold.Chemscore.Metal.Weighted>
-0.0000

> <Gold.Chemscore.Lipo.Weighted>
-9.2752

> <Gold.Chemscore.Internal_Hbond.Weighted>
0.0000

> <Gold.Chemscore.DEClash.Weighted>
0.1250

> <Gold.Chemscore.DEInternal.Weighted>
3.0101

> <Gold.Chemscore.Rot.Weighted>
4.3081

> <Gold.Chemscore.Internal.Correction.Weighted>
   9.000000E+99

> <Gold.Protein.RotatedTorsions>
[ 6907 6896 6895 6894 ] final  108.54 input  -60.11 | X-H torsion
[ 7974 7965 7964 7962 ] final   15.90 input  175.53 | X-H torsion
[ 8008 7997 7996 7995 ] final  -63.52 input   59.86 | X-H torsion
[ 10167 10162 10161 10158 ] final  100.85 input  -65.29 | X-H torsion
[ 10718 10713 10712 10709 ] final  115.86 input   66.30 | X-H torsion
[ 10763 10752 10751 10750 ] final  -24.78 input  -60.55 | X-H torsion
[ 11005 11000 10999 10996 ] final  -88.76 input  -57.11 | X-H torsion

> <Gold.Protein.ActiveResidues>
 VAL166  LYS551  ARG553  GLY616  TRP617  ASP618  TYR619  PRO620  LYS621  CYS622 
 ASP623  PHE694  ASN695  SER759  ASP760  ASP761  ALA762  ILE779  LEU786  VAL792 
 PHE793  MET794  SER795  GLU796  ALA797  LYS798  CYS799  TRP800  GLU811  SER814 

> <Gold.Protein.RotatedAtoms>
  152.5107  133.9073  159.7470 H   0  0  0  0  0  0  0  0  0  0  0  0  # atno 6907 bound_to 6896
  150.9475  133.6578  159.2785 H   0  0  0  0  0  0  0  0  0  0  0  0  # atno 6908 bound_to 6896
  151.3868  135.0954  159.9566 H   0  0  0  0  0  0  0  0  0  0  0  0  # atno 6909 bound_to 6896
  146.2265  139.8826  142.8568 H   0  0  0  0  0  0  0  0  0  0  0  0  # atno 7974 bound_to 7965
  154.4559  140.0973  156.6755 H   0  0  0  0  0  0  0  0  0  0  0  0  # atno 8008 bound_to 7997
  155.5140  140.3477  155.4375 H   0  0  0  0  0  0  0  0  0  0  0  0  # atno 8009 bound_to 7997
  156.0776  140.1365  156.9741 H   0  0  0  0  0  0  0  0  0  0  0  0  # atno 8010 bound_to 7997
  139.7490  144.6989  151.0460 H   0  0  0  0  0  0  0  0  0  0  0  0  # atno 10167 bound_to 10162
  157.6196  131.1018  150.7389 H   0  0  0  0  0  0  0  0  0  0  0  0  # atno 10718 bound_to 10713
  153.6893  135.6962  153.5095 H   0  0  0  0  0  0  0  0  0  0  0  0  # atno 10763 bound_to 10752
  153.2425  135.4301  155.0712 H   0  0  0  0  0  0  0  0  0  0  0  0  # atno 10764 bound_to 10752
  154.8377  135.3511  154.6435 H   0  0  0  0  0  0  0  0  0  0  0  0  # atno 10765 bound_to 10752
  141.1596  133.7589  156.9497 H   0  0  0  0  0  0  0  0  0  0  0  0  # atno 11005 bound_to 11000
  145.2497  141.0039  143.3888 LP  0  0  0  0  0  0  0  0  0  0  0  0  # atno 17320 bound_to 7965
  144.9384  139.4217  143.6461 LP  0  0  0  0  0  0  0  0  0  0  0  0  # atno 17321 bound_to 7965
  140.7795  143.4831  150.9991 LP  0  0  0  0  0  0  0  0  0  0  0  0  # atno 17342 bound_to 10162
  139.8519  143.7427  152.3177 LP  0  0  0  0  0  0  0  0  0  0  0  0  # atno 17343 bound_to 10162
  156.7750  130.4841  149.5411 LP  0  0  0  0  0  0  0  0  0  0  0  0  # atno 17370 bound_to 10713
  156.1335  130.6195  151.0367 LP  0  0  0  0  0  0  0  0  0  0  0  0  # atno 17371 bound_to 10713
  140.1265  134.9383  157.2277 LP  0  0  0  0  0  0  0  0  0  0  0  0  # atno 17394 bound_to 11000
  140.3006  134.3136  155.7291 LP  0  0  0  0  0  0  0  0  0  0  0  0  # atno 17395 bound_to 11000

$$$$
