AV-unprocessed.smi:1740|AV-procd|sdf|7014|dock9
  -GOLD-   22720 8233D 1   1.00000     0.00000
 Structure written by MMmdl.
 52 54  0  0  0  0  0  0  0  0  4 V2000
  159.4731  142.2304  162.8982 N   0  5  0  0  0  0  0  0  0  0  0  0
  159.7027  140.9553  162.5249 C   0  0  0  0  0  0  0  0  0  0  0  0
  160.6664  140.5113  161.9056 O   0  0  0  0  0  0  0  0  0  0  0  0
  158.5812  140.0075  162.9645 C   0  0  0  0  0  0  0  0  0  0  0  0
  157.2882  140.3946  162.3446 N   0  3  2  0  0  0  0  0  0  0  0  0
  156.1059  139.8291  163.0491 C   0  0  0  0  0  0  0  0  0  0  0  0
  154.7928  140.3598  162.4493 C   0  0  0  0  0  0  0  0  0  0  0  0
  154.7162  140.0708  160.9392 C   0  0  1  0  0  0  0  0  0  0  0  0
  153.5113  140.6530  160.3549 N   0  0  0  0  0  0  0  0  0  0  0  0
  153.1035  140.4760  159.0901 C   0  0  0  0  0  0  0  0  0  0  0  0
  153.6987  139.7723  158.2743 O   0  0  0  0  0  0  0  0  0  0  0  0
  151.9652  141.1468  158.8462 N   0  0  0  0  0  0  0  0  0  0  0  0
  151.2126  141.1872  157.6379 C   0  0  0  0  0  0  0  0  0  0  0  0
  151.1551  140.0660  156.7699 C   0  0  0  0  0  0  0  0  0  0  0  0
  150.4648  140.1578  155.5468 C   0  0  0  0  0  0  0  0  0  0  0  0
  149.8549  141.3752  155.1999 C   0  0  0  0  0  0  0  0  0  0  0  0
  149.9373  142.4271  156.0402 N   0  3  0  0  0  0  0  0  0  0  0  0
  150.5738  142.3972  157.2380 C   0  0  0  0  0  0  0  0  0  0  0  0
  150.5672  143.5762  158.0178 N   0  0  0  0  0  0  0  0  0  0  0  0
  149.7469  143.6628  159.2207 C   0  0  0  0  0  0  0  0  0  0  0  0
  150.2651  144.8901  159.9656 C   0  0  0  0  0  0  0  0  0  0  0  0
  151.7587  144.8549  159.6561 C   0  0  0  0  0  0  0  0  0  0  0  0
  151.8205  144.2932  158.2319 C   0  0  0  0  0  0  0  0  0  0  0  0
  155.9624  140.6435  160.2460 C   0  0  0  0  0  0  0  0  0  0  0  0
  157.2516  140.1053  160.8888 C   0  0  0  0  0  0  0  0  0  0  0  0
  159.9037  142.9874  162.3533 H   0  0  0  0  0  0  0  0  0  0  0  0
  158.8610  138.9970  162.6615 H   0  0  0  0  0  0  0  0  0  0  0  0
  158.4924  139.9923  164.0519 H   0  0  0  0  0  0  0  0  0  0  0  0
  156.1314  138.7400  162.9875 H   0  0  0  0  0  0  0  0  0  0  0  0
  156.1413  140.0846  164.1086 H   0  0  0  0  0  0  0  0  0  0  0  0
  153.9462  139.9047  162.9649 H   0  0  0  0  0  0  0  0  0  0  0  0
  154.7223  141.4340  162.6269 H   0  0  0  0  0  0  0  0  0  0  0  0
  154.7040  138.9901  160.7825 H   0  0  0  0  0  0  0  0  0  0  0  0
  152.9550  141.2424  160.9569 H   0  0  0  0  0  0  0  0  0  0  0  0
  151.5391  141.6033  159.6394 H   0  0  0  0  0  0  0  0  0  0  0  0
  151.6523  139.1388  157.0116 H   0  0  0  0  0  0  0  0  0  0  0  0
  150.4166  139.3100  154.8791 H   0  0  0  0  0  0  0  0  0  0  0  0
  149.3118  141.5413  154.2808 H   0  0  0  0  0  0  0  0  0  0  0  0
  148.6881  143.7547  158.9761 H   0  0  0  0  0  0  0  0  0  0  0  0
  149.8819  142.7752  159.8405 H   0  0  0  0  0  0  0  0  0  0  0  0
  149.8205  145.7957  159.5501 H   0  0  0  0  0  0  0  0  0  0  0  0
  150.0482  144.8634  161.0337 H   0  0  0  0  0  0  0  0  0  0  0  0
  152.2369  145.8303  159.7486 H   0  0  0  0  0  0  0  0  0  0  0  0
  152.2578  144.1701  160.3431 H   0  0  0  0  0  0  0  0  0  0  0  0
  152.6923  143.6519  158.0959 H   0  0  0  0  0  0  0  0  0  0  0  0
  151.8831  145.1100  157.5127 H   0  0  0  0  0  0  0  0  0  0  0  0
  155.9492  140.3940  159.1843 H   0  0  0  0  0  0  0  0  0  0  0  0
  155.9562  141.7330  160.3082 H   0  0  0  0  0  0  0  0  0  0  0  0
  158.1120  140.5656  160.4014 H   0  0  0  0  0  0  0  0  0  0  0  0
  157.3331  139.0290  160.7288 H   0  0  0  0  0  0  0  0  0  0  0  0
  157.2389  141.3997  162.4399 H   0  0  0  0  0  0  0  0  0  0  0  0
  149.4856  143.2975  155.7591 H   0  0  0  0  0  0  0  0  0  0  0  0
  1  2  1  0  0  0  0
  1 26  1  0  0  0  0
  2  3  2  0  0  0  0
  2  4  1  0  0  0  0
  4  5  1  0  0  0  0
  4 27  1  0  0  0  0
  4 28  1  0  0  0  0
  5 25  1  0  0  0  0
  5  6  1  0  0  0  0
  5 51  1  0  0  0  0
  6  7  1  0  0  0  0
  6 29  1  0  0  0  0
  6 30  1  0  0  0  0
  7  8  1  0  0  0  0
  7 31  1  0  0  0  0
  7 32  1  0  0  0  0
  8  9  1  0  0  0  0
  8 24  1  0  0  0  0
  8 33  1  0  0  0  0
  9 10  1  0  0  0  0
  9 34  1  0  0  0  0
 10 11  2  0  0  0  0
 10 12  1  0  0  0  0
 12 13  1  0  0  0  0
 12 35  1  0  0  0  0
 13 18  1  0  0  0  0
 13 14  2  0  0  0  0
 14 15  1  0  0  0  0
 14 36  1  0  0  0  0
 15 16  2  0  0  0  0
 15 37  1  0  0  0  0
 16 17  1  0  0  0  0
 16 38  1  0  0  0  0
 17 18  2  0  0  0  0
 17 52  1  0  0  0  0
 18 19  1  0  0  0  0
 19 23  1  0  0  0  0
 19 20  1  0  0  0  0
 20 21  1  0  0  0  0
 20 39  1  0  0  0  0
 20 40  1  0  0  0  0
 21 22  1  0  0  0  0
 21 41  1  0  0  0  0
 21 42  1  0  0  0  0
 22 23  1  0  0  0  0
 22 43  1  0  0  0  0
 22 44  1  0  0  0  0
 23 45  1  0  0  0  0
 23 46  1  0  0  0  0
 24 25  1  0  0  0  0
 24 47  1  0  0  0  0
 24 48  1  0  0  0  0
 25 49  1  0  0  0  0
 25 50  1  0  0  0  0
M  CHG  1   1  -1
M  CHG  1   5   1
M  CHG  1  17   1
M  END
> <s_m_source_file>
AV-unprocessed.smi

> <i_m_source_file_index>
1740

> <i_lp_mmshare_version>
43012

> <i_f3d_flags>
0

> <s_epik_input>
W05IMl1DKD1PKVtDSDJdTjFbQ0gyXVtDSDJdW0NIXShbQ0gyXVtDSDJdMSlbTkhdQyg9TylbTkhdYzJbY0hdW2NIXVtjSF1uYzJOM1tDSDJdW0NIMl1bQ0gyXVtDSDJdMw==

> <s_epik_cmdline>
J2VwaWtfcHl0aG9uJywgJy1waCcsICc3LjAnLCAnLXRuJywgJzgnLCAnLW1hJywgJzIwMCcsICctbWV0YWxfYmluZGluZycsICctaW1hZScsICc8aW5maWxlLm1hZT4nLCAnLW9tYWUnLCAnPG91dGZpbGUubWFlPic=

> <r_lp_tautomer_probability>
0.999994

> <r_epik_Ionization_Penalty>
6.97817

> <r_epik_Ionization_Penalty_Charging>
6.97815

> <r_epik_Ionization_Penalty_Neutral>
1.88285e-05

> <r_epik_State_Penalty>
7.80985

> <r_epik_Charging_Adjusted_Penalty>
14.788

> <i_epik_Tot_Q>
1

> <i_epik_Tot_abs_Q>
3

> <r_epik_Metal_State_Penalty>
3.85728

> <b_epik_Metal_Only>
1

> <s_lp_Force_Field>
OPLS_2005

> <r_lp_Energy>
44.3343

> <b_lp_Chiralities_Consistent>
1

> <s_lp_Variant>
AV-unprocessed.smi:1740-9

> <Gold.Version>
5.8.1

> <Gold.Id.Protein>
6NUR|6NUR_protein|mol2

> <Gold.PLP.Fitness>
50.3764

> <Gold.PLP.PLP>
-42.1239

> <Gold.PLP.part.hbond>
-3.8925

> <Gold.PLP.part.metal>
0.0000

> <Gold.PLP.part.buried>
-4.7386

> <Gold.PLP.part.nonpolar>
-34.1607

> <Gold.PLP.part.repulsive>
0.8203

> <Gold.PLP.ligand.clash>
0.0000

> <Gold.PLP.ligand.torsion>
0.5946

> <Gold.PLP.Chemscore.Hbond>
3.0000

> <Gold.PLP.Chemscore.CHOScore>
0.0000

> <Gold.PLP.Chemscore.Metal>
0.0000

> <Gold.Chemscore.Hbonds>
donor molecule, donor type, donor heavy atom, donor atom, acceptor molecule, acceptor atom, score
      L1  H    17    52       P1  8028  2.00
      P1  H  7997  8010       L1    11  1.00

> <Gold.PLP.Chemscore.Internal.Correction>
0.4417

> <Gold.Rescore>
     Score         DG    S(hbond)    S(metal)    S(lipo)     H(rot)  DE(clash)    DE(int)     intcor
     16.28     -18.07       1.99        0.00      98.60       2.18       0.06       1.73       ----

> <Gold.Chemscore.Fitness>
16.2778

> <Gold.Chemscore.DG>
-18.0721

> <Gold.Chemscore.ZeroCoef>
-5.4800

> <Gold.Chemscore.Hbond>
1.9895

> <Gold.Chemscore.Metal>
0.0000

> <Gold.Chemscore.Lipo>
98.6006

> <Gold.Chemscore.Internal_Hbond>
0.0000

> <Gold.Chemscore.DEClash>
0.0625

> <Gold.Chemscore.DEInternal>
1.7319

> <Gold.Chemscore.Rot>
2.1832

> <Gold.Chemscore.Internal.Correction>
   9.000000E+99

> <Gold.Chemscore.Hbonds>
donor molecule, donor type, donor heavy atom, donor atom, acceptor molecule, acceptor atom, score
      L1  H    17    52       P1  8028  0.94
      P1  H  7997  8010       L1    11  0.94

> <Gold.Chemscore.Hbond.Weighted>
-6.6449

> <Gold.Chemscore.Metal.Weighted>
-0.0000

> <Gold.Chemscore.Lipo.Weighted>
-11.5363

> <Gold.Chemscore.Internal_Hbond.Weighted>
0.0000

> <Gold.Chemscore.DEClash.Weighted>
0.0625

> <Gold.Chemscore.DEInternal.Weighted>
1.7319

> <Gold.Chemscore.Rot.Weighted>
5.5891

> <Gold.Chemscore.Internal.Correction.Weighted>
   9.000000E+99

> <Gold.Protein.RotatedTorsions>
[ 6907 6896 6895 6894 ] final -121.49 input  -60.11 | X-H torsion
[ 7974 7965 7964 7962 ] final  146.65 input  175.53 | X-H torsion
[ 8008 7997 7996 7995 ] final   19.62 input   59.86 | X-H torsion
[ 10167 10162 10161 10158 ] final -126.66 input  -65.29 | X-H torsion
[ 10718 10713 10712 10709 ] final  168.52 input   66.30 | X-H torsion
[ 10763 10752 10751 10750 ] final -140.55 input  -60.55 | X-H torsion
[ 11005 11000 10999 10996 ] final   19.52 input  -57.11 | X-H torsion

> <Gold.Protein.ActiveResidues>
 VAL166  LYS551  ARG553  GLY616  TRP617  ASP618  TYR619  PRO620  LYS621  CYS622 
 ASP623  PHE694  ASN695  SER759  ASP760  ASP761  ALA762  ILE779  LEU786  VAL792 
 PHE793  MET794  SER795  GLU796  ALA797  LYS798  CYS799  TRP800  GLU811  SER814 

> <Gold.Protein.RotatedAtoms>
  150.8488  133.7819  159.3032 H   0  0  0  0  0  0  0  0  0  0  0  0  # atno 6907 bound_to 6896
  151.5498  135.1066  159.9956 H   0  0  0  0  0  0  0  0  0  0  0  0  # atno 6908 bound_to 6896
  152.4536  133.7634  159.6815 H   0  0  0  0  0  0  0  0  0  0  0  0  # atno 6909 bound_to 6896
  144.8654  139.5931  143.5911 H   0  0  0  0  0  0  0  0  0  0  0  0  # atno 7974 bound_to 7965
  154.9235  140.3030  155.5204 H   0  0  0  0  0  0  0  0  0  0  0  0  # atno 8008 bound_to 7997
  156.3008  140.2367  156.4224 H   0  0  0  0  0  0  0  0  0  0  0  0  # atno 8009 bound_to 7997
  154.8307  140.0418  157.1464 H   0  0  0  0  0  0  0  0  0  0  0  0  # atno 8010 bound_to 7997
  139.9691  143.5865  152.2419 H   0  0  0  0  0  0  0  0  0  0  0  0  # atno 10167 bound_to 10162
  157.0360  131.0273  151.2729 H   0  0  0  0  0  0  0  0  0  0  0  0  # atno 10718 bound_to 10713
  154.8575  135.3550  154.5725 H   0  0  0  0  0  0  0  0  0  0  0  0  # atno 10763 bound_to 10752
  153.6337  135.7001  153.5271 H   0  0  0  0  0  0  0  0  0  0  0  0  # atno 10764 bound_to 10752
  153.3028  135.4201  155.1227 H   0  0  0  0  0  0  0  0  0  0  0  0  # atno 10765 bound_to 10752
  140.4128  134.1600  155.7668 H   0  0  0  0  0  0  0  0  0  0  0  0  # atno 11005 bound_to 11000
  146.2892  139.7090  142.9173 LP  0  0  0  0  0  0  0  0  0  0  0  0  # atno 17320 bound_to 7965
  145.4231  141.0408  143.2952 LP  0  0  0  0  0  0  0  0  0  0  0  0  # atno 17321 bound_to 7965
  139.6495  144.7660  151.2177 LP  0  0  0  0  0  0  0  0  0  0  0  0  # atno 17342 bound_to 10162
  140.7528  143.6185  150.8536 LP  0  0  0  0  0  0  0  0  0  0  0  0  # atno 17343 bound_to 10162
  157.5141  130.7957  149.7737 LP  0  0  0  0  0  0  0  0  0  0  0  0  # atno 17370 bound_to 10713
  156.0054  130.3858  150.2452 LP  0  0  0  0  0  0  0  0  0  0  0  0  # atno 17371 bound_to 10713
  141.1814  133.8405  157.1243 LP  0  0  0  0  0  0  0  0  0  0  0  0  # atno 17394 bound_to 11000
  140.0255  134.9926  157.0677 LP  0  0  0  0  0  0  0  0  0  0  0  0  # atno 17395 bound_to 11000

$$$$
