AV-unprocessed.smi:2078|AV-procd|sdf|8466|dock9
  -GOLD-   2272011163D 1   1.00000     0.00000
 Structure written by MMmdl.
 42 43  0  0  0  0  0  0  0  0  2 V2000
  151.9117  139.6478  158.3453 C   0  0  0  0  0  0  0  0  0  0  0  0
  151.5000  139.5857  156.9143 C   0  0  0  0  0  0  0  0  0  0  0  0
  150.3170  139.2857  156.2995 C   0  0  0  0  0  0  0  0  0  0  0  0
  150.6313  139.4161  154.9206 C   0  0  0  0  0  0  0  0  0  0  0  0
  149.6488  139.1830  153.9248 N   0  0  0  0  0  0  0  0  0  0  0  0
  148.3963  138.7287  154.1015 C   0  0  0  0  0  0  0  0  0  0  0  0
  147.8922  138.4360  155.1861 O   0  0  0  0  0  0  0  0  0  0  0  0
  147.7437  138.6259  152.9345 N   0  0  0  0  0  0  0  0  0  0  0  0
  146.3632  138.1788  152.7883 C   0  0  0  0  0  0  0  0  0  0  0  0
  146.1513  136.7803  153.4003 C   0  0  0  0  0  0  0  0  0  0  0  0
  146.1823  135.7036  152.3784 N   0  3  2  0  0  0  0  0  0  0  0  0
  145.0780  135.8346  151.3928 C   0  0  0  0  0  0  0  0  0  0  0  0
  145.2106  134.7955  150.2679 C   0  0  0  0  0  0  0  0  0  0  0  0
  145.2698  133.3724  150.8369 C   0  0  0  0  0  0  0  0  0  0  0  0
  146.3988  133.2599  151.8750 C   0  0  2  0  0  0  0  0  0  0  0  0
  146.4642  131.8513  152.4819 C   0  0  0  0  0  0  0  0  0  0  0  0
  146.2304  134.3372  152.9654 C   0  0  0  0  0  0  0  0  0  0  0  0
  151.8914  139.7651  154.7122 N   0  0  0  0  0  0  0  0  0  0  0  0
  152.4550  139.8745  155.9889 O   0  0  0  0  0  0  0  0  0  0  0  0
  151.0429  139.7543  158.9952 H   0  0  0  0  0  0  0  0  0  0  0  0
  152.5722  140.4968  158.5236 H   0  0  0  0  0  0  0  0  0  0  0  0
  152.4413  138.7395  158.6336 H   0  0  0  0  0  0  0  0  0  0  0  0
  149.3805  139.0161  156.7648 H   0  0  0  0  0  0  0  0  0  0  0  0
  149.9303  139.3863  152.9772 H   0  0  0  0  0  0  0  0  0  0  0  0
  148.2319  138.8878  152.0902 H   0  0  0  0  0  0  0  0  0  0  0  0
  145.6876  138.9033  153.2464 H   0  0  0  0  0  0  0  0  0  0  0  0
  146.1389  138.1765  151.7225 H   0  0  0  0  0  0  0  0  0  0  0  0
  146.8926  136.5780  154.1749 H   0  0  0  0  0  0  0  0  0  0  0  0
  145.1795  136.7671  153.8957 H   0  0  0  0  0  0  0  0  0  0  0  0
  144.1191  135.7211  151.9011 H   0  0  0  0  0  0  0  0  0  0  0  0
  145.0895  136.8338  150.9554 H   0  0  0  0  0  0  0  0  0  0  0  0
  144.3715  134.8849  149.5773 H   0  0  0  0  0  0  0  0  0  0  0  0
  146.1117  134.9964  149.6869 H   0  0  0  0  0  0  0  0  0  0  0  0
  144.3129  133.1216  151.2975 H   0  0  0  0  0  0  0  0  0  0  0  0
  145.4245  132.6562  150.0290 H   0  0  0  0  0  0  0  0  0  0  0  0
  147.3464  133.4420  151.3655 H   0  0  0  0  0  0  0  0  0  0  0  0
  145.5410  131.6015  153.0058 H   0  0  0  0  0  0  0  0  0  0  0  0
  147.2845  131.7676  153.1954 H   0  0  0  0  0  0  0  0  0  0  0  0
  146.6225  131.0981  151.7094 H   0  0  0  0  0  0  0  0  0  0  0  0
  147.0606  134.2600  153.6664 H   0  0  0  0  0  0  0  0  0  0  0  0
  145.3187  134.1557  153.5375 H   0  0  0  0  0  0  0  0  0  0  0  0
  147.0379  135.8318  151.8568 H   0  0  0  0  0  0  0  0  0  0  0  0
  1  2  1  0  0  0  0
  1 20  1  0  0  0  0
  1 21  1  0  0  0  0
  1 22  1  0  0  0  0
  2 19  1  0  0  0  0
  2  3  2  0  0  0  0
  3  4  1  0  0  0  0
  3 23  1  0  0  0  0
  4  5  1  0  0  0  0
  4 18  2  0  0  0  0
  5  6  1  0  0  0  0
  5 24  1  0  0  0  0
  6  7  2  0  0  0  0
  6  8  1  0  0  0  0
  8  9  1  0  0  0  0
  8 25  1  0  0  0  0
  9 10  1  0  0  0  0
  9 26  1  0  0  0  0
  9 27  1  0  0  0  0
 10 11  1  0  0  0  0
 10 28  1  0  0  0  0
 10 29  1  0  0  0  0
 11 17  1  0  0  0  0
 11 12  1  0  0  0  0
 11 42  1  0  0  0  0
 12 13  1  0  0  0  0
 12 30  1  0  0  0  0
 12 31  1  0  0  0  0
 13 14  1  0  0  0  0
 13 32  1  0  0  0  0
 13 33  1  0  0  0  0
 14 15  1  0  0  0  0
 14 34  1  0  0  0  0
 14 35  1  0  0  0  0
 15 16  1  0  0  0  0
 15 17  1  0  0  0  0
 15 36  1  0  0  0  0
 16 37  1  0  0  0  0
 16 38  1  0  0  0  0
 16 39  1  0  0  0  0
 17 40  1  0  0  0  0
 17 41  1  0  0  0  0
 18 19  1  0  0  0  0
M  CHG  1  11   1
M  END
> <s_m_source_file>
AV-unprocessed.smi

> <i_m_source_file_index>
2078

> <i_lp_mmshare_version>
43012

> <i_f3d_flags>
0

> <s_epik_input>
W0NIM11jMVtjSF1jKG5vMSlbTkhdQyg9TylbTkhdW0NIMl1bQ0gyXU4yW0NIMl1bQ0gyXVtDSDJdW0NAQEhdKFtDSDNdKVtDSDJdMg==

> <s_epik_cmdline>
J2VwaWtfcHl0aG9uJywgJy1waCcsICc3LjAnLCAnLXRuJywgJzgnLCAnLW1hJywgJzIwMCcsICctbWV0YWxfYmluZGluZycsICctaW1hZScsICc8aW5maWxlLm1hZT4nLCAnLW9tYWUnLCAnPG91dGZpbGUubWFlPic=

> <r_epik_Ionization_Penalty>
0.00216453

> <r_epik_Ionization_Penalty_Charging>
0.00212879

> <r_epik_Ionization_Penalty_Neutral>
3.57418e-05

> <r_epik_State_Penalty>
0.00146033

> <r_epik_Charging_Adjusted_Penalty>
0.00358912

> <i_epik_Tot_Q>
1

> <i_epik_Tot_abs_Q>
1

> <r_epik_Metal_State_Penalty>
0.0215827

> <b_epik_Metal_Only>
0

> <s_lp_Force_Field>
OPLS_2005

> <r_lp_Energy>
12.7075

> <b_lp_Chiralities_Consistent>
1

> <s_lp_Variant>
AV-unprocessed.smi:2078-4

> <Gold.Version>
5.8.1

> <Gold.Id.Protein>
6NUR|6NUR_protein|mol2

> <Gold.PLP.Fitness>
45.7697

> <Gold.PLP.PLP>
-28.5038

> <Gold.PLP.part.hbond>
-6.0000

> <Gold.PLP.part.metal>
0.0000

> <Gold.PLP.part.buried>
-2.1165

> <Gold.PLP.part.nonpolar>
-20.9754

> <Gold.PLP.part.repulsive>
0.2860

> <Gold.PLP.ligand.clash>
0.0000

> <Gold.PLP.ligand.torsion>
0.3153

> <Gold.PLP.Chemscore.Hbond>
5.9600

> <Gold.PLP.Chemscore.CHOScore>
0.0000

> <Gold.PLP.Chemscore.Metal>
0.0000

> <Gold.Chemscore.Hbonds>
donor molecule, donor type, donor heavy atom, donor atom, acceptor molecule, acceptor atom, score
      L1  H     5    24       P1  7957  1.00
      L1  H     8    25       P1  7957  1.00
      L1  H    11    42       P1  7948  2.00
      P1  H  7989  7998       L1    18  0.91
      P1  H  7997  8009       L1    19  1.00

> <Gold.PLP.Chemscore.Internal.Correction>
0.0164

> <Gold.Rescore>
     Score         DG    S(hbond)    S(metal)    S(lipo)     H(rot)  DE(clash)    DE(int)     intcor
     19.06     -22.78       4.42        0.00      55.92       1.57       0.75       2.97       ----

> <Gold.Chemscore.Fitness>
19.0606

> <Gold.Chemscore.DG>
-22.7758

> <Gold.Chemscore.ZeroCoef>
-5.4800

> <Gold.Chemscore.Hbond>
4.4226

> <Gold.Chemscore.Metal>
0.0000

> <Gold.Chemscore.Lipo>
55.9217

> <Gold.Chemscore.Internal_Hbond>
0.0000

> <Gold.Chemscore.DEClash>
0.7460

> <Gold.Chemscore.DEInternal>
2.9692

> <Gold.Chemscore.Rot>
1.5697

> <Gold.Chemscore.Internal.Correction>
   9.000000E+99

> <Gold.Chemscore.Hbonds>
donor molecule, donor type, donor heavy atom, donor atom, acceptor molecule, acceptor atom, score
      L1  H     5    24       P1  7957  0.95
      L1  H     8    25       P1  7957  0.89
      L1  H    11    42       P1  7948  0.94
      P1  H  7989  7998       L1    18  0.20
      P1  H  7997  8009       L1    19  0.84

> <Gold.Chemscore.Hbond.Weighted>
-14.7714

> <Gold.Chemscore.Metal.Weighted>
-0.0000

> <Gold.Chemscore.Lipo.Weighted>
-6.5428

> <Gold.Chemscore.Internal_Hbond.Weighted>
0.0000

> <Gold.Chemscore.DEClash.Weighted>
0.7460

> <Gold.Chemscore.DEInternal.Weighted>
2.9692

> <Gold.Chemscore.Rot.Weighted>
4.0185

> <Gold.Chemscore.Internal.Correction.Weighted>
   9.000000E+99

> <Gold.Protein.RotatedTorsions>
[ 6907 6896 6895 6894 ] final  -44.09 input  -60.11 | X-H torsion
[ 7974 7965 7964 7962 ] final   88.77 input  175.53 | X-H torsion
[ 8008 7997 7996 7995 ] final -140.58 input   59.86 | X-H torsion
[ 10167 10162 10161 10158 ] final  165.81 input  -65.29 | X-H torsion
[ 10718 10713 10712 10709 ] final -103.00 input   66.30 | X-H torsion
[ 10763 10752 10751 10750 ] final  -13.01 input  -60.55 | X-H torsion
[ 11005 11000 10999 10996 ] final  179.11 input  -57.11 | X-H torsion

> <Gold.Protein.ActiveResidues>
 VAL166  LYS551  ARG553  GLY616  TRP617  ASP618  TYR619  PRO620  LYS621  CYS622 
 ASP623  PHE694  ASN695  SER759  ASP760  ASP761  ALA762  ILE779  LEU786  VAL792 
 PHE793  MET794  SER795  GLU796  ALA797  LYS798  CYS799  TRP800  GLU811  SER814 

> <Gold.Protein.RotatedAtoms>
  150.9366  134.8778  159.7585 H   0  0  0  0  0  0  0  0  0  0  0  0  # atno 6907 bound_to 6896
  152.5062  134.4001  159.9423 H   0  0  0  0  0  0  0  0  0  0  0  0  # atno 6908 bound_to 6896
  151.4025  133.3713  159.2769 H   0  0  0  0  0  0  0  0  0  0  0  0  # atno 6909 bound_to 6896
  145.5413  139.2289  143.2564 H   0  0  0  0  0  0  0  0  0  0  0  0  # atno 7974 bound_to 7965
  155.4636  140.0547  157.2988 H   0  0  0  0  0  0  0  0  0  0  0  0  # atno 8008 bound_to 7997
  154.4727  140.2047  155.9909 H   0  0  0  0  0  0  0  0  0  0  0  0  # atno 8009 bound_to 7997
  156.1082  140.3208  155.8040 H   0  0  0  0  0  0  0  0  0  0  0  0  # atno 8010 bound_to 7997
  139.4913  144.4093  151.9318 H   0  0  0  0  0  0  0  0  0  0  0  0  # atno 10167 bound_to 10162
  156.0249  130.5446  150.7189 H   0  0  0  0  0  0  0  0  0  0  0  0  # atno 10718 bound_to 10713
  153.5070  135.7017  153.5801 H   0  0  0  0  0  0  0  0  0  0  0  0  # atno 10763 bound_to 10752
  153.3908  135.3896  155.1922 H   0  0  0  0  0  0  0  0  0  0  0  0  # atno 10764 bound_to 10752
  154.8706  135.3858  154.4546 H   0  0  0  0  0  0  0  0  0  0  0  0  # atno 10765 bound_to 10752
  140.4025  134.6764  157.4570 H   0  0  0  0  0  0  0  0  0  0  0  0  # atno 11005 bound_to 11000
  146.1979  140.6233  142.9115 LP  0  0  0  0  0  0  0  0  0  0  0  0  # atno 17320 bound_to 7965
  144.7576  140.5344  143.6758 LP  0  0  0  0  0  0  0  0  0  0  0  0  # atno 17321 bound_to 7965
  140.3534  144.3061  150.5945 LP  0  0  0  0  0  0  0  0  0  0  0  0  # atno 17342 bound_to 10162
  140.5465  143.2214  151.7998 LP  0  0  0  0  0  0  0  0  0  0  0  0  # atno 17343 bound_to 10162
  157.4809  131.0902  151.0537 LP  0  0  0  0  0  0  0  0  0  0  0  0  # atno 17370 bound_to 10713
  157.0970  130.5966  149.5452 LP  0  0  0  0  0  0  0  0  0  0  0  0  # atno 17371 bound_to 10713
  140.0326  134.6384  155.9086 LP  0  0  0  0  0  0  0  0  0  0  0  0  # atno 17394 bound_to 11000
  141.1851  133.6554  156.5185 LP  0  0  0  0  0  0  0  0  0  0  0  0  # atno 17395 bound_to 11000

$$$$
