AV-unprocessed.smi:1556|AV-procd|sdf|6268|dock7
  -GOLD-   22720 6453D 1   1.00000     0.00000
 Structure written by MMmdl.
 37 38  0  0  0  0  0  0  0  0  1 V2000
  144.3975  131.4176  150.8165 C   0  0  0  0  0  0  0  0  0  0  0  0
  144.9169  132.7534  151.0165 N   0  0  0  0  0  0  0  0  0  0  0  0
  144.2490  133.9566  150.9419 C   0  0  0  0  0  0  0  0  0  0  0  0
  145.1548  134.9455  151.2039 C   0  0  0  0  0  0  0  0  0  0  0  0
  144.9350  136.4320  151.2437 C   0  0  0  0  0  0  0  0  0  0  0  0
  145.1813  137.0043  152.6491 C   0  0  0  0  0  0  0  0  0  0  0  0
  146.6056  137.1544  152.9218 N   0  0  0  0  0  0  0  0  0  0  0  0
  147.1243  137.8478  153.9496 C   0  0  0  0  0  0  0  0  0  0  0  0
  146.4395  138.4496  154.7746 O   0  0  0  0  0  0  0  0  0  0  0  0
  148.4678  137.8476  154.0101 N   0  0  0  0  0  0  0  0  0  0  0  0
  149.3294  138.5013  154.9960 C   0  0  2  0  0  0  0  0  0  0  0  0
  149.2699  140.0333  154.8483 C   0  0  0  0  0  0  0  0  0  0  0  0
  150.4310  140.6530  155.6368 C   0  0  0  0  0  0  0  0  0  0  0  0
  151.7804  139.4118  155.6210 S   0  0  0  0  0  0  0  0  0  0  0  0
  152.8364  139.8383  154.6905 O   0  0  0  0  0  0  0  0  0  0  0  0
  152.0976  139.0385  157.0077 O   0  0  0  0  0  0  0  0  0  0  0  0
  150.7983  138.0756  154.8442 C   0  0  0  0  0  0  0  0  0  0  0  0
  146.3660  134.2314  151.4320 C   0  0  0  0  0  0  0  0  0  0  0  0
  146.2208  132.9212  151.3179 N   0  0  0  0  0  0  0  0  0  0  0  0
  143.3221  131.4571  150.6404 H   0  0  0  0  0  0  0  0  0  0  0  0
  144.5894  130.8097  151.7010 H   0  0  0  0  0  0  0  0  0  0  0  0
  144.8816  130.9593  149.9538 H   0  0  0  0  0  0  0  0  0  0  0  0
  143.1955  134.0101  150.7100 H   0  0  0  0  0  0  0  0  0  0  0  0
  145.5912  136.9303  150.5290 H   0  0  0  0  0  0  0  0  0  0  0  0
  143.9189  136.6736  150.9297 H   0  0  0  0  0  0  0  0  0  0  0  0
  144.7146  137.9854  152.7407 H   0  0  0  0  0  0  0  0  0  0  0  0
  144.7194  136.3692  153.4071 H   0  0  0  0  0  0  0  0  0  0  0  0
  147.2425  136.6959  152.2867 H   0  0  0  0  0  0  0  0  0  0  0  0
  148.9469  137.3680  153.2615 H   0  0  0  0  0  0  0  0  0  0  0  0
  148.9937  138.2584  156.0059 H   0  0  0  0  0  0  0  0  0  0  0  0
  149.3859  140.2968  153.7958 H   0  0  0  0  0  0  0  0  0  0  0  0
  148.3091  140.4355  155.1708 H   0  0  0  0  0  0  0  0  0  0  0  0
  150.7788  141.5936  155.2095 H   0  0  0  0  0  0  0  0  0  0  0  0
  150.1465  140.8267  156.6747 H   0  0  0  0  0  0  0  0  0  0  0  0
  151.0237  137.1203  155.3186 H   0  0  0  0  0  0  0  0  0  0  0  0
  151.0861  138.0200  153.7937 H   0  0  0  0  0  0  0  0  0  0  0  0
  147.3421  134.6258  151.6731 H   0  0  0  0  0  0  0  0  0  0  0  0
  1  2  1  0  0  0  0
  1 20  1  0  0  0  0
  1 21  1  0  0  0  0
  1 22  1  0  0  0  0
  2 19  1  0  0  0  0
  2  3  1  0  0  0  0
  3  4  2  0  0  0  0
  3 23  1  0  0  0  0
  4  5  1  0  0  0  0
  4 18  1  0  0  0  0
  5  6  1  0  0  0  0
  5 24  1  0  0  0  0
  5 25  1  0  0  0  0
  6  7  1  0  0  0  0
  6 26  1  0  0  0  0
  6 27  1  0  0  0  0
  7  8  1  0  0  0  0
  7 28  1  0  0  0  0
  8  9  2  0  0  0  0
  8 10  1  0  0  0  0
 10 11  1  0  0  0  0
 10 29  1  0  0  0  0
 11 17  1  0  0  0  0
 11 12  1  0  0  0  0
 11 30  1  0  0  0  0
 12 13  1  0  0  0  0
 12 31  1  0  0  0  0
 12 32  1  0  0  0  0
 13 14  1  0  0  0  0
 13 33  1  0  0  0  0
 13 34  1  0  0  0  0
 14 15  2  0  0  0  0
 14 16  2  0  0  0  0
 14 17  1  0  0  0  0
 17 35  1  0  0  0  0
 17 36  1  0  0  0  0
 18 19  2  0  0  0  0
 18 37  1  0  0  0  0
M  END
> <s_m_source_file>
AV-unprocessed.smi

> <i_m_source_file_index>
1556

> <i_lp_mmshare_version>
43012

> <i_f3d_flags>
0

> <s_epik_input>
W0NIM11uMVtjSF1jKFtjSF1uMSlbQ0gyXVtDSDJdW05IXUMoPU8pW05IXVtDQEBIXShbQ0gyXTIpW0NIMl1bQ0gyXVMyKD1PKT1P

> <s_epik_cmdline>
J2VwaWtfcHl0aG9uJywgJy1waCcsICc3LjAnLCAnLXRuJywgJzgnLCAnLW1hJywgJzIwMCcsICctbWV0YWxfYmluZGluZycsICctaW1hZScsICc8aW5maWxlLm1hZT4nLCAnLW9tYWUnLCAnPG91dGZpbGUubWFlPic=

> <r_lp_tautomer_probability>
1

> <r_epik_Ionization_Penalty>
0.000530192

> <r_epik_Ionization_Penalty_Charging>
0

> <r_epik_Ionization_Penalty_Neutral>
0.000530192

> <r_epik_State_Penalty>
-0

> <r_epik_Charging_Adjusted_Penalty>
0

> <i_epik_Tot_Q>
0

> <i_epik_Tot_abs_Q>
0

> <r_epik_Metal_State_Penalty>
-0

> <b_epik_Metal_Only>
0

> <s_lp_Force_Field>
OPLS_2005

> <r_lp_Energy>
8.62968

> <b_lp_Chiralities_Consistent>
1

> <s_lp_Variant>
AV-unprocessed.smi:1556-1

> <Gold.Version>
5.8.1

> <Gold.Id.Protein>
6NUR|6NUR_protein|mol2

> <Gold.PLP.Fitness>
45.3909

> <Gold.PLP.PLP>
-29.7837

> <Gold.PLP.part.hbond>
-3.9836

> <Gold.PLP.part.metal>
0.0000

> <Gold.PLP.part.buried>
-1.5661

> <Gold.PLP.part.nonpolar>
-25.0782

> <Gold.PLP.part.repulsive>
0.2930

> <Gold.PLP.ligand.clash>
0.0000

> <Gold.PLP.ligand.torsion>
0.2476

> <Gold.PLP.Chemscore.Hbond>
3.3664

> <Gold.PLP.Chemscore.CHOScore>
2.0000

> <Gold.PLP.Chemscore.Metal>
0.0000

> <Gold.Chemscore.Hbonds>
donor molecule, donor type, donor heavy atom, donor atom, acceptor molecule, acceptor atom, score
      L1  H     7    28       P1  7948  0.99
      L1  H    10    29       P1  7948  1.00
      P1  H  7989  7998       L1    15  0.34
      P1  H  7997  8008       L1    15  0.99
      L1  C     3    23       P1 10186  1.00
      L1  C    18    37       P1  7948  1.00

> <Gold.PLP.Chemscore.Internal.Correction>
0.0032

> <Gold.Rescore>
     Score         DG    S(hbond)    S(metal)    S(lipo)     H(rot)  DE(clash)    DE(int)     intcor
     16.49     -18.26       3.14        0.00      59.33       1.82       1.50       0.27       ----

> <Gold.Chemscore.Fitness>
16.4910

> <Gold.Chemscore.DG>
-18.2554

> <Gold.Chemscore.ZeroCoef>
-5.4800

> <Gold.Chemscore.Hbond>
3.1430

> <Gold.Chemscore.Metal>
0.0000

> <Gold.Chemscore.Lipo>
59.3333

> <Gold.Chemscore.Internal_Hbond>
0.0000

> <Gold.Chemscore.DEClash>
1.4989

> <Gold.Chemscore.DEInternal>
0.2655

> <Gold.Chemscore.Rot>
1.8220

> <Gold.Chemscore.Internal.Correction>
   9.000000E+99

> <Gold.Chemscore.Hbonds>
donor molecule, donor type, donor heavy atom, donor atom, acceptor molecule, acceptor atom, score
      L1  H     7    28       P1  7948  0.94
      L1  H    10    29       P1  7948  0.97
      P1  H  7989  7998       L1    15  0.06
      P1  H  7997  8008       L1    15  0.56

> <Gold.Chemscore.Hbond.Weighted>
-10.4977

> <Gold.Chemscore.Metal.Weighted>
-0.0000

> <Gold.Chemscore.Lipo.Weighted>
-6.9420

> <Gold.Chemscore.Internal_Hbond.Weighted>
0.0000

> <Gold.Chemscore.DEClash.Weighted>
1.4989

> <Gold.Chemscore.DEInternal.Weighted>
0.2655

> <Gold.Chemscore.Rot.Weighted>
4.6642

> <Gold.Chemscore.Internal.Correction.Weighted>
   9.000000E+99

> <Gold.Protein.RotatedTorsions>
[ 6907 6896 6895 6894 ] final  161.09 input  -60.11 | X-H torsion
[ 7974 7965 7964 7962 ] final -123.81 input  175.53 | X-H torsion
[ 8008 7997 7996 7995 ] final   -9.63 input   59.86 | X-H torsion
[ 10167 10162 10161 10158 ] final   89.06 input  -65.29 | X-H torsion
[ 10718 10713 10712 10709 ] final   94.80 input   66.30 | X-H torsion
[ 10763 10752 10751 10750 ] final  107.20 input  -60.55 | X-H torsion
[ 11005 11000 10999 10996 ] final    7.58 input  -57.11 | X-H torsion

> <Gold.Protein.ActiveResidues>
 VAL166  LYS551  ARG553  GLY616  TRP617  ASP618  TYR619  PRO620  LYS621  CYS622 
 ASP623  PHE694  ASN695  SER759  ASP760  ASP761  ALA762  ILE779  LEU786  VAL792 
 PHE793  MET794  SER795  GLU796  ALA797  LYS798  CYS799  TRP800  GLU811  SER814 

> <Gold.Protein.RotatedAtoms>
  151.9609  133.3695  159.4034 H   0  0  0  0  0  0  0  0  0  0  0  0  # atno 6907 bound_to 6896
  150.6964  134.4242  159.5228 H   0  0  0  0  0  0  0  0  0  0  0  0  # atno 6908 bound_to 6896
  152.1930  134.8655  160.0566 H   0  0  0  0  0  0  0  0  0  0  0  0  # atno 6909 bound_to 6896
  145.0147  140.7936  143.4417 H   0  0  0  0  0  0  0  0  0  0  0  0  # atno 7974 bound_to 7965
  154.5629  140.2350  155.8308 H   0  0  0  0  0  0  0  0  0  0  0  0  # atno 8008 bound_to 7997
  156.2044  140.3043  155.9554 H   0  0  0  0  0  0  0  0  0  0  0  0  # atno 8009 bound_to 7997
  155.2855  140.0424  157.3009 H   0  0  0  0  0  0  0  0  0  0  0  0  # atno 8010 bound_to 7997
  139.8610  144.6544  150.9058 H   0  0  0  0  0  0  0  0  0  0  0  0  # atno 10167 bound_to 10162
  157.6945  131.0524  150.4241 H   0  0  0  0  0  0  0  0  0  0  0  0  # atno 10718 bound_to 10713
  153.4035  135.3852  155.2003 H   0  0  0  0  0  0  0  0  0  0  0  0  # atno 10763 bound_to 10752
  154.8731  135.3777  154.4589 H   0  0  0  0  0  0  0  0  0  0  0  0  # atno 10764 bound_to 10752
  153.5089  135.7087  153.5853 H   0  0  0  0  0  0  0  0  0  0  0  0  # atno 10765 bound_to 10752
  140.5466  134.0323  155.7922 H   0  0  0  0  0  0  0  0  0  0  0  0  # atno 11005 bound_to 11000
  145.1976  139.2268  143.5210 LP  0  0  0  0  0  0  0  0  0  0  0  0  # atno 17320 bound_to 7965
  146.3476  140.1786  142.8589 LP  0  0  0  0  0  0  0  0  0  0  0  0  # atno 17321 bound_to 7965
  140.7775  143.3744  151.1589 LP  0  0  0  0  0  0  0  0  0  0  0  0  # atno 17342 bound_to 10162
  139.7374  143.8978  152.3039 LP  0  0  0  0  0  0  0  0  0  0  0  0  # atno 17343 bound_to 10162
  156.4614  130.4032  149.6574 LP  0  0  0  0  0  0  0  0  0  0  0  0  # atno 17370 bound_to 10713
  156.3688  130.7519  151.2500 LP  0  0  0  0  0  0  0  0  0  0  0  0  # atno 17371 bound_to 10713
  141.1196  133.9483  157.2755 LP  0  0  0  0  0  0  0  0  0  0  0  0  # atno 17394 bound_to 11000
  139.9476  135.0181  156.8900 LP  0  0  0  0  0  0  0  0  0  0  0  0  # atno 17395 bound_to 11000

$$$$
