AV-unprocessed.smi:3024|AV-procd|sdf|11503|dock10
  -GOLD-   2272016443D 1   1.00000     0.00000
 Structure written by MMmdl.
 31 32  0  0  0  0  0  0  0  0  1 V2000
  145.1661  137.9893  153.3505 O   0  0  0  0  0  0  0  0  0  0  0  0
  146.1965  137.4179  152.9951 C   0  0  0  0  0  0  0  0  0  0  0  0
  146.2195  136.1742  152.4957 N   0  0  0  0  0  0  0  0  0  0  0  0
  145.0509  135.3195  152.3183 C   0  0  0  0  0  0  0  0  0  0  0  0
  145.1790  134.4428  151.0617 C   0  0  2  0  0  0  0  0  0  0  0  0
  144.0642  133.4086  150.9166 C   0  0  0  0  0  0  0  0  0  0  0  0
  144.6977  132.3133  150.0721 C   0  0  0  0  0  0  0  0  0  0  0  0
  146.1969  132.6227  150.1204 C   0  0  0  0  0  0  0  0  0  0  0  0
  146.3362  133.6240  151.1181 O   0  0  0  0  0  0  0  0  0  0  0  0
  147.4309  137.9487  153.0305 N   0  0  0  0  0  0  0  0  0  0  0  0
  147.8264  139.2323  153.4942 C   0  0  0  0  0  0  0  0  0  0  0  0
  149.0564  139.3403  154.1753 C   0  0  0  0  0  0  0  0  0  0  0  0
  149.4645  140.5971  154.6606 C   0  0  0  0  0  0  0  0  0  0  0  0
  148.6166  141.7021  154.4534 C   0  0  0  0  0  0  0  0  0  0  0  0
  147.4289  141.6143  153.8182 N   0  0  0  0  0  0  0  0  0  0  0  0
  147.0444  140.4058  153.3532 C   0  0  0  0  0  0  0  0  0  0  0  0
  147.1111  135.7863  152.2244 H   0  0  0  0  0  0  0  0  0  0  0  0
  144.8768  134.7060  153.2040 H   0  0  0  0  0  0  0  0  0  0  0  0
  144.1817  135.9699  152.2195 H   0  0  0  0  0  0  0  0  0  0  0  0
  145.2237  135.0643  150.1650 H   0  0  0  0  0  0  0  0  0  0  0  0
  143.7959  133.0037  151.8934 H   0  0  0  0  0  0  0  0  0  0  0  0
  143.1622  133.8240  150.4666 H   0  0  0  0  0  0  0  0  0  0  0  0
  144.4764  131.3285  150.4848 H   0  0  0  0  0  0  0  0  0  0  0  0
  144.3324  132.3367  149.0448 H   0  0  0  0  0  0  0  0  0  0  0  0
  146.7995  131.7456  150.3579 H   0  0  0  0  0  0  0  0  0  0  0  0
  146.5370  133.0209  149.1636 H   0  0  0  0  0  0  0  0  0  0  0  0
  148.1664  137.3888  152.6254 H   0  0  0  0  0  0  0  0  0  0  0  0
  149.6835  138.4730  154.3218 H   0  0  0  0  0  0  0  0  0  0  0  0
  150.4041  140.7117  155.1805 H   0  0  0  0  0  0  0  0  0  0  0  0
  148.8969  142.6812  154.8131 H   0  0  0  0  0  0  0  0  0  0  0  0
  146.0753  140.3938  152.8793 H   0  0  0  0  0  0  0  0  0  0  0  0
  1  2  2  0  0  0  0
  2  3  1  0  0  0  0
  2 10  1  0  0  0  0
  3  4  1  0  0  0  0
  3 17  1  0  0  0  0
  4  5  1  0  0  0  0
  4 18  1  0  0  0  0
  4 19  1  0  0  0  0
  5  9  1  0  0  0  0
  5  6  1  0  0  0  0
  5 20  1  0  0  0  0
  6  7  1  0  0  0  0
  6 21  1  0  0  0  0
  6 22  1  0  0  0  0
  7  8  1  0  0  0  0
  7 23  1  0  0  0  0
  7 24  1  0  0  0  0
  8  9  1  0  0  0  0
  8 25  1  0  0  0  0
  8 26  1  0  0  0  0
 10 11  1  0  0  0  0
 10 27  1  0  0  0  0
 11 16  1  0  0  0  0
 11 12  2  0  0  0  0
 12 13  1  0  0  0  0
 12 28  1  0  0  0  0
 13 14  2  0  0  0  0
 13 29  1  0  0  0  0
 14 15  1  0  0  0  0
 14 30  1  0  0  0  0
 15 16  2  0  0  0  0
 16 31  1  0  0  0  0
M  END
> <s_m_source_file>
AV-unprocessed.smi

> <i_m_source_file_index>
3024

> <i_lp_mmshare_version>
43012

> <i_f3d_flags>
0

> <s_epik_input>
W2NIXTFuW2NIXVtjSF1bY0hdYzFbTkhdQyg9TylbTkhdW0NIMl1bQ0BASF0yW0NIMl1bQ0gyXVtDSDJdTzI=

> <s_epik_cmdline>
J2VwaWtfcHl0aG9uJywgJy1waCcsICc3LjAnLCAnLXRuJywgJzgnLCAnLW1hJywgJzIwMCcsICctbWV0YWxfYmluZGluZycsICctaW1hZScsICc8aW5maWxlLm1hZT4nLCAnLW9tYWUnLCAnPG91dGZpbGUubWFlPic=

> <r_epik_Ionization_Penalty>
0.00471982

> <r_epik_Ionization_Penalty_Charging>
0

> <r_epik_Ionization_Penalty_Neutral>
0.00471982

> <r_epik_State_Penalty>
0.00339234

> <r_epik_Charging_Adjusted_Penalty>
0.00339234

> <i_epik_Tot_Q>
0

> <i_epik_Tot_abs_Q>
0

> <r_epik_Metal_State_Penalty>
-0

> <b_epik_Metal_Only>
0

> <s_lp_Force_Field>
OPLS_2005

> <r_lp_Energy>
19.771

> <b_lp_Chiralities_Consistent>
1

> <s_lp_Variant>
AV-unprocessed.smi:3024-1

> <Gold.Version>
5.8.1

> <Gold.Id.Protein>
6NUR|6NUR_protein|mol2

> <Gold.PLP.Fitness>
38.1761

> <Gold.PLP.PLP>
-27.3749

> <Gold.PLP.part.hbond>
-2.0000

> <Gold.PLP.part.metal>
0.0000

> <Gold.PLP.part.buried>
-1.2568

> <Gold.PLP.part.nonpolar>
-23.8329

> <Gold.PLP.part.repulsive>
1.2817

> <Gold.PLP.ligand.clash>
0.0000

> <Gold.PLP.ligand.torsion>
0.4474

> <Gold.PLP.Chemscore.Hbond>
1.8960

> <Gold.PLP.Chemscore.CHOScore>
2.0000

> <Gold.PLP.Chemscore.Metal>
0.0000

> <Gold.Chemscore.Hbonds>
donor molecule, donor type, donor heavy atom, donor atom, acceptor molecule, acceptor atom, score
      L1  H     3    17       P1  7948  0.90
      L1  H    10    27       P1  7948  1.00
      L1  C    14    30       P1  8028  1.00
      L1  C    16    31       P1 10175  1.00

> <Gold.PLP.Chemscore.Internal.Correction>
0.0080

> <Gold.Rescore>
     Score         DG    S(hbond)    S(metal)    S(lipo)     H(rot)  DE(clash)    DE(int)     intcor
     15.56     -17.15       1.95        0.00      71.29       1.24       0.27       1.33       ----

> <Gold.Chemscore.Fitness>
15.5567

> <Gold.Chemscore.DG>
-17.1538

> <Gold.Chemscore.ZeroCoef>
-5.4800

> <Gold.Chemscore.Hbond>
1.9474

> <Gold.Chemscore.Metal>
0.0000

> <Gold.Chemscore.Lipo>
71.2935

> <Gold.Chemscore.Internal_Hbond>
0.0000

> <Gold.Chemscore.DEClash>
0.2713

> <Gold.Chemscore.DEInternal>
1.3258

> <Gold.Chemscore.Rot>
1.2390

> <Gold.Chemscore.Internal.Correction>
   9.000000E+99

> <Gold.Chemscore.Hbonds>
donor molecule, donor type, donor heavy atom, donor atom, acceptor molecule, acceptor atom, score
      L1  H     3    17       P1  7948  0.88
      L1  H    10    27       P1  7948  0.98

> <Gold.Chemscore.Hbond.Weighted>
-6.5042

> <Gold.Chemscore.Metal.Weighted>
-0.0000

> <Gold.Chemscore.Lipo.Weighted>
-8.3413

> <Gold.Chemscore.Internal_Hbond.Weighted>
0.0000

> <Gold.Chemscore.DEClash.Weighted>
0.2713

> <Gold.Chemscore.DEInternal.Weighted>
1.3258

> <Gold.Chemscore.Rot.Weighted>
3.1718

> <Gold.Chemscore.Internal.Correction.Weighted>
   9.000000E+99

> <Gold.Protein.RotatedTorsions>
[ 6907 6896 6895 6894 ] final   44.12 input  -60.11 | X-H torsion
[ 7974 7965 7964 7962 ] final  -46.13 input  175.53 | X-H torsion
[ 8008 7997 7996 7995 ] final  156.18 input   59.86 | X-H torsion
[ 10167 10162 10161 10158 ] final  161.11 input  -65.29 | X-H torsion
[ 10718 10713 10712 10709 ] final  142.39 input   66.30 | X-H torsion
[ 10763 10752 10751 10750 ] final -162.23 input  -60.55 | X-H torsion
[ 11005 11000 10999 10996 ] final  -59.42 input  -57.11 | X-H torsion

> <Gold.Protein.ActiveResidues>
 VAL166  LYS551  ARG553  GLY616  TRP617  ASP618  TYR619  PRO620  LYS621  CYS622 
 ASP623  PHE694  ASN695  SER759  ASP760  ASP761  ALA762  ILE779  LEU786  VAL792 
 PHE793  MET794  SER795  GLU796  ALA797  LYS798  CYS799  TRP800  GLU811  SER814 

> <Gold.Protein.RotatedAtoms>
  152.2287  134.8343  160.0476 H   0  0  0  0  0  0  0  0  0  0  0  0  # atno 6907 bound_to 6896
  151.9100  133.3554  159.3868 H   0  0  0  0  0  0  0  0  0  0  0  0  # atno 6908 bound_to 6896
  150.7019  134.4667  159.5450 H   0  0  0  0  0  0  0  0  0  0  0  0  # atno 6909 bound_to 6896
  145.9751  140.7343  142.9391 H   0  0  0  0  0  0  0  0  0  0  0  0  # atno 7974 bound_to 7965
  156.2437  140.1919  156.6916 H   0  0  0  0  0  0  0  0  0  0  0  0  # atno 8008 bound_to 7997
  154.6247  140.0604  156.9685 H   0  0  0  0  0  0  0  0  0  0  0  0  # atno 8009 bound_to 7997
  155.1805  140.3276  155.4378 H   0  0  0  0  0  0  0  0  0  0  0  0  # atno 8010 bound_to 7997
  139.4846  144.4568  151.8757 H   0  0  0  0  0  0  0  0  0  0  0  0  # atno 10167 bound_to 10162
  157.3811  131.0992  151.0737 H   0  0  0  0  0  0  0  0  0  0  0  0  # atno 10718 bound_to 10713
  154.7233  135.3030  154.9012 H   0  0  0  0  0  0  0  0  0  0  0  0  # atno 10763 bound_to 10752
  153.9878  135.6722  153.4757 H   0  0  0  0  0  0  0  0  0  0  0  0  # atno 10764 bound_to 10752
  153.0852  135.4987  154.8501 H   0  0  0  0  0  0  0  0  0  0  0  0  # atno 10765 bound_to 10752
  141.1247  133.6616  156.5069 H   0  0  0  0  0  0  0  0  0  0  0  0  # atno 11005 bound_to 11000
  144.6846  140.2814  143.7291 LP  0  0  0  0  0  0  0  0  0  0  0  0  # atno 17320 bound_to 7965
  145.7850  139.1905  143.2135 LP  0  0  0  0  0  0  0  0  0  0  0  0  # atno 17321 bound_to 7965
  140.4028  144.2470  150.5892 LP  0  0  0  0  0  0  0  0  0  0  0  0  # atno 17342 bound_to 10162
  140.5040  143.2309  151.8635 LP  0  0  0  0  0  0  0  0  0  0  0  0  # atno 17343 bound_to 10162
  157.1806  130.6307  149.5670 LP  0  0  0  0  0  0  0  0  0  0  0  0  # atno 17370 bound_to 10713
  155.9776  130.4755  150.6604 LP  0  0  0  0  0  0  0  0  0  0  0  0  # atno 17371 bound_to 10713
  140.4401  134.7023  157.4987 LP  0  0  0  0  0  0  0  0  0  0  0  0  # atno 17394 bound_to 11000
  140.0235  134.6512  155.9206 LP  0  0  0  0  0  0  0  0  0  0  0  0  # atno 17395 bound_to 11000

$$$$
