AV-unprocessed.smi:3156|AV-procd|sdf|12032|dock6
  -GOLD-   2272017453D 1   1.00000     0.00000
 Structure written by MMmdl.
 41 42  0  0  0  0  0  0  0  0  2 V2000
  147.6838  141.9756  154.0704 C   0  0  0  0  0  0  0  0  0  0  0  0
  148.9898  141.4064  154.6534 C   0  0  1  0  0  0  0  0  0  0  0  0
  149.3353  142.1697  155.8734 N   0  3  0  0  0  0  0  0  0  0  0  0
  150.7191  141.9809  156.3573 C   0  0  0  0  0  0  0  0  0  0  0  0
  150.9098  142.5797  157.7587 C   0  0  1  0  0  0  0  0  0  0  0  0
  152.0287  141.8760  158.5550 C   0  0  0  0  0  0  0  0  0  0  0  0
  152.2516  142.5708  159.9032 C   0  0  0  0  0  0  0  0  0  0  0  0
  152.4864  144.0684  159.6801 C   0  0  0  0  0  0  0  0  0  0  0  0
  151.3560  144.6641  158.8264 C   0  0  0  0  0  0  0  0  0  0  0  0
  151.2507  143.9541  157.5956 O   0  0  0  0  0  0  0  0  0  0  0  0
  148.9001  139.8878  154.9685 C   0  0  2  0  0  0  0  0  0  0  0  0
  148.2788  139.5920  156.3470 C   0  0  0  0  0  0  0  0  0  0  0  0
  150.1951  139.2284  154.8577 N   0  0  0  0  0  0  0  0  0  0  0  0
  150.6880  138.4835  153.8058 C   0  0  0  0  0  0  0  0  0  0  0  0
  151.9378  138.0596  154.1559 C   0  0  0  0  0  0  0  0  0  0  0  0
  152.1258  138.5994  155.4586 C   0  0  0  0  0  0  0  0  0  0  0  0
  151.0819  139.2966  155.8765 N   0  0  0  0  0  0  0  0  0  0  0  0
  147.4340  141.5211  153.1116 H   0  0  0  0  0  0  0  0  0  0  0  0
  147.7684  143.0495  153.9004 H   0  0  0  0  0  0  0  0  0  0  0  0
  146.8437  141.8112  154.7461 H   0  0  0  0  0  0  0  0  0  0  0  0
  149.7681  141.5636  153.9042 H   0  0  0  0  0  0  0  0  0  0  0  0
  149.2083  143.1522  155.6766 H   0  0  0  0  0  0  0  0  0  0  0  0
  150.9793  140.9219  156.3624 H   0  0  0  0  0  0  0  0  0  0  0  0
  151.3948  142.4700  155.6544 H   0  0  0  0  0  0  0  0  0  0  0  0
  149.9657  142.5166  158.3033 H   0  0  0  0  0  0  0  0  0  0  0  0
  151.7827  140.8262  158.7176 H   0  0  0  0  0  0  0  0  0  0  0  0
  152.9559  141.8931  157.9804 H   0  0  0  0  0  0  0  0  0  0  0  0
  151.3781  142.4270  160.5404 H   0  0  0  0  0  0  0  0  0  0  0  0
  153.0990  142.1261  160.4261 H   0  0  0  0  0  0  0  0  0  0  0  0
  152.5517  144.5873  160.6369 H   0  0  0  0  0  0  0  0  0  0  0  0
  153.4419  144.2196  159.1766 H   0  0  0  0  0  0  0  0  0  0  0  0
  150.4054  144.6306  159.3610 H   0  0  0  0  0  0  0  0  0  0  0  0
  151.5621  145.7128  158.6115 H   0  0  0  0  0  0  0  0  0  0  0  0
  148.2550  139.4297  154.2168 H   0  0  0  0  0  0  0  0  0  0  0  0
  147.2454  139.9342  156.4031 H   0  0  0  0  0  0  0  0  0  0  0  0
  148.8348  140.0781  157.1493 H   0  0  0  0  0  0  0  0  0  0  0  0
  148.2729  138.5206  156.5506 H   0  0  0  0  0  0  0  0  0  0  0  0
  150.1150  138.3181  152.9053 H   0  0  0  0  0  0  0  0  0  0  0  0
  152.6144  137.4537  153.5714 H   0  0  0  0  0  0  0  0  0  0  0  0
  152.9825  138.5049  156.1093 H   0  0  0  0  0  0  0  0  0  0  0  0
  148.6933  141.9040  156.6063 H   0  0  0  0  0  0  0  0  0  0  0  0
  1  2  1  0  0  0  0
  1 18  1  0  0  0  0
  1 19  1  0  0  0  0
  1 20  1  0  0  0  0
  2  3  1  0  0  0  0
  2 11  1  0  0  0  0
  2 21  1  0  0  0  0
  3  4  1  0  0  0  0
  3 22  1  0  0  0  0
  3 41  1  0  0  0  0
  4  5  1  0  0  0  0
  4 23  1  0  0  0  0
  4 24  1  0  0  0  0
  5 10  1  0  0  0  0
  5  6  1  0  0  0  0
  5 25  1  0  0  0  0
  6  7  1  0  0  0  0
  6 26  1  0  0  0  0
  6 27  1  0  0  0  0
  7  8  1  0  0  0  0
  7 28  1  0  0  0  0
  7 29  1  0  0  0  0
  8  9  1  0  0  0  0
  8 30  1  0  0  0  0
  8 31  1  0  0  0  0
  9 10  1  0  0  0  0
  9 32  1  0  0  0  0
  9 33  1  0  0  0  0
 11 12  1  0  0  0  0
 11 13  1  0  0  0  0
 11 34  1  0  0  0  0
 12 35  1  0  0  0  0
 12 36  1  0  0  0  0
 12 37  1  0  0  0  0
 13 17  1  0  0  0  0
 13 14  1  0  0  0  0
 14 15  2  0  0  0  0
 14 38  1  0  0  0  0
 15 16  1  0  0  0  0
 15 39  1  0  0  0  0
 16 17  2  0  0  0  0
 16 40  1  0  0  0  0
M  CHG  1   3   1
M  END
> <s_m_source_file>
AV-unprocessed.smi

> <i_m_source_file_index>
3156

> <i_lp_mmshare_version>
43012

> <i_f3d_flags>
0

> <s_epik_input>
bjFbY0hdW2NIXVtjSF1uMVtDQEBIXShbQ0gzXSlbQ0BIXShbQ0gzXSlbTkhdW0NIMl1bQ0BASF0yW0NIMl1bQ0gyXVtDSDJdW0NIMl1PMg==

> <s_epik_cmdline>
J2VwaWtfcHl0aG9uJywgJy1waCcsICc3LjAnLCAnLXRuJywgJzgnLCAnLW1hJywgJzIwMCcsICctbWV0YWxfYmluZGluZycsICctaW1hZScsICc8aW5maWxlLm1hZT4nLCAnLW9tYWUnLCAnPG91dGZpbGUubWFlPic=

> <r_lp_tautomer_probability>
1

> <r_epik_Ionization_Penalty>
0.00658015

> <r_epik_Ionization_Penalty_Charging>
0.00656881

> <r_epik_Ionization_Penalty_Neutral>
1.13431e-05

> <r_epik_State_Penalty>
0.0048654

> <r_epik_Charging_Adjusted_Penalty>
0.0114342

> <i_epik_Tot_Q>
1

> <i_epik_Tot_abs_Q>
1

> <r_epik_Metal_State_Penalty>
-0

> <b_epik_Metal_Only>
0

> <s_lp_Force_Field>
OPLS_2005

> <r_lp_Energy>
19.0125

> <b_lp_Chiralities_Consistent>
1

> <s_lp_Variant>
AV-unprocessed.smi:3156-4

> <Gold.Version>
5.8.1

> <Gold.Id.Protein>
6NUR|6NUR_protein|mol2

> <Gold.PLP.Fitness>
47.4346

> <Gold.PLP.PLP>
-38.5668

> <Gold.PLP.part.hbond>
-1.0000

> <Gold.PLP.part.metal>
0.0000

> <Gold.PLP.part.buried>
-6.8201

> <Gold.PLP.part.nonpolar>
-32.8784

> <Gold.PLP.part.repulsive>
0.2789

> <Gold.PLP.ligand.clash>
0.0000

> <Gold.PLP.ligand.torsion>
1.4780

> <Gold.PLP.Chemscore.Hbond>
2.0000

> <Gold.PLP.Chemscore.CHOScore>
1.9129

> <Gold.PLP.Chemscore.Metal>
0.0000

> <Gold.Chemscore.Hbonds>
donor molecule, donor type, donor heavy atom, donor atom, acceptor molecule, acceptor atom, score
      L1  H     3    22       P1  8028  2.00
      L1  C    14    38       P1  7948  0.95
      L1  C    14    38       P1  7949  0.01
      L1  C    14    38       P1  7957  0.93

> <Gold.PLP.Chemscore.Internal.Correction>
0.0850

> <Gold.Rescore>
     Score         DG    S(hbond)    S(metal)    S(lipo)     H(rot)  DE(clash)    DE(int)     intcor
     14.23     -16.96       0.99        0.00     104.84       1.59       0.01       2.71       ----

> <Gold.Chemscore.Fitness>
14.2306

> <Gold.Chemscore.DG>
-16.9601

> <Gold.Chemscore.ZeroCoef>
-5.4800

> <Gold.Chemscore.Hbond>
0.9863

> <Gold.Chemscore.Metal>
0.0000

> <Gold.Chemscore.Lipo>
104.8373

> <Gold.Chemscore.Internal_Hbond>
0.0000

> <Gold.Chemscore.DEClash>
0.0149

> <Gold.Chemscore.DEInternal>
2.7146

> <Gold.Chemscore.Rot>
1.5938

> <Gold.Chemscore.Internal.Correction>
   9.000000E+99

> <Gold.Chemscore.Hbonds>
donor molecule, donor type, donor heavy atom, donor atom, acceptor molecule, acceptor atom, score
      L1  H     3    22       P1  8028  0.99

> <Gold.Chemscore.Hbond.Weighted>
-3.2944

> <Gold.Chemscore.Metal.Weighted>
-0.0000

> <Gold.Chemscore.Lipo.Weighted>
-12.2660

> <Gold.Chemscore.Internal_Hbond.Weighted>
0.0000

> <Gold.Chemscore.DEClash.Weighted>
0.0149

> <Gold.Chemscore.DEInternal.Weighted>
2.7146

> <Gold.Chemscore.Rot.Weighted>
4.0802

> <Gold.Chemscore.Internal.Correction.Weighted>
   9.000000E+99

> <Gold.Protein.RotatedTorsions>
[ 6907 6896 6895 6894 ] final -161.28 input  -60.11 | X-H torsion
[ 7974 7965 7964 7962 ] final   23.28 input  175.53 | X-H torsion
[ 8008 7997 7996 7995 ] final  103.27 input   59.86 | X-H torsion
[ 10167 10162 10161 10158 ] final  172.36 input  -65.29 | X-H torsion
[ 10718 10713 10712 10709 ] final  -91.68 input   66.30 | X-H torsion
[ 10763 10752 10751 10750 ] final -121.04 input  -60.55 | X-H torsion
[ 11005 11000 10999 10996 ] final  -34.45 input  -57.11 | X-H torsion

> <Gold.Protein.ActiveResidues>
 VAL166  LYS551  ARG553  GLY616  TRP617  ASP618  TYR619  PRO620  LYS621  CYS622 
 ASP623  PHE694  ASN695  SER759  ASP760  ASP761  ALA762  ILE779  LEU786  VAL792 
 PHE793  MET794  SER795  GLU796  ALA797  LYS798  CYS799  TRP800  GLU811  SER814 

> <Gold.Protein.RotatedAtoms>
  151.3622  133.3885  159.2690 H   0  0  0  0  0  0  0  0  0  0  0  0  # atno 6907 bound_to 6896
  150.9717  134.9089  159.7802 H   0  0  0  0  0  0  0  0  0  0  0  0  # atno 6908 bound_to 6896
  152.5186  134.3584  159.9328 H   0  0  0  0  0  0  0  0  0  0  0  0  # atno 6909 bound_to 6896
  146.1991  139.7767  142.8775 H   0  0  0  0  0  0  0  0  0  0  0  0  # atno 7974 bound_to 7965
  156.1468  140.3167  155.8584 H   0  0  0  0  0  0  0  0  0  0  0  0  # atno 8008 bound_to 7997
  155.4048  140.0502  157.3052 H   0  0  0  0  0  0  0  0  0  0  0  0  # atno 8009 bound_to 7997
  154.5024  140.2134  155.9332 H   0  0  0  0  0  0  0  0  0  0  0  0  # atno 8010 bound_to 7997
  139.5074  144.3382  152.0044 H   0  0  0  0  0  0  0  0  0  0  0  0  # atno 10167 bound_to 10162
  155.9995  130.4957  150.5511 H   0  0  0  0  0  0  0  0  0  0  0  0  # atno 10718 bound_to 10713
  154.8659  135.4182  154.2555 H   0  0  0  0  0  0  0  0  0  0  0  0  # atno 10763 bound_to 10752
  153.3493  135.6998  153.6807 H   0  0  0  0  0  0  0  0  0  0  0  0  # atno 10764 bound_to 10752
  153.5753  135.3583  155.2826 H   0  0  0  0  0  0  0  0  0  0  0  0  # atno 10765 bound_to 10752
  140.9717  133.7105  156.1535 H   0  0  0  0  0  0  0  0  0  0  0  0  # atno 11005 bound_to 11000
  145.3543  141.0313  143.3320 LP  0  0  0  0  0  0  0  0  0  0  0  0  # atno 17320 bound_to 7965
  144.8645  139.5129  143.6797 LP  0  0  0  0  0  0  0  0  0  0  0  0  # atno 17321 bound_to 7965
  140.2821  144.3848  150.6115 LP  0  0  0  0  0  0  0  0  0  0  0  0  # atno 17342 bound_to 10162
  140.6010  143.2167  151.7071 LP  0  0  0  0  0  0  0  0  0  0  0  0  # atno 17343 bound_to 10162
  157.3434  131.0721  151.1770 LP  0  0  0  0  0  0  0  0  0  0  0  0  # atno 17370 bound_to 10713
  157.2611  130.6659  149.5975 LP  0  0  0  0  0  0  0  0  0  0  0  0  # atno 17371 bound_to 10713
  140.7319  134.4246  157.5565 LP  0  0  0  0  0  0  0  0  0  0  0  0  # atno 17394 bound_to 11000
  139.8915  134.8778  156.2317 LP  0  0  0  0  0  0  0  0  0  0  0  0  # atno 17395 bound_to 11000

$$$$
