AV-unprocessed.smi:83|AV-procd|sdf|801|dock2
  -GOLD-   2262017183D 1   1.00000     0.00000
 Structure written by MMmdl.
 56 59  0  0  0  0  0  0  0  0  1 V2000
  151.8030  143.7330  160.3912 C   0  0  0  0  0  0  0  0  0  0  0  0
  152.2448  142.8337  159.2354 C   0  0  0  0  0  0  0  0  0  0  0  0
  153.4327  142.5258  159.1383 O   0  0  0  0  0  0  0  0  0  0  0  0
  151.3113  142.4110  158.3593 N   0  0  0  0  0  0  0  0  0  0  0  0
  149.8851  142.7278  158.4133 C   0  0  0  0  0  0  0  0  0  0  0  0
  149.2330  141.8655  157.3308 C   0  0  0  0  0  0  0  0  0  0  0  0
  150.3526  141.6219  156.3246 C   0  0  2  0  0  0  0  0  0  0  0  0
  150.1297  140.3877  155.4287 C   0  0  0  0  0  0  0  0  0  0  0  0
  148.7824  140.3401  154.8573 N   0  0  0  0  0  0  0  0  0  0  0  0
  148.3841  141.4009  153.9410 C   0  0  0  0  0  0  0  0  0  0  0  0
  148.1089  139.1569  154.8504 C   0  0  0  0  0  0  0  0  0  0  0  0
  148.2200  138.3547  155.9424 N   0  0  0  0  0  0  0  0  0  0  0  0
  147.5880  137.1796  155.9947 C   0  0  0  0  0  0  0  0  0  0  0  0
  146.8031  136.6144  155.0777 N   0  0  0  0  0  0  0  0  0  0  0  0
  146.6867  137.4059  153.9743 C   0  0  0  0  0  0  0  0  0  0  0  0
  147.2945  138.6807  153.7773 C   0  0  0  0  0  0  0  0  0  0  0  0
  146.9456  139.1681  152.5210 N   0  0  0  0  0  0  0  0  0  0  0  0
  146.1765  138.2453  152.0133 C   0  0  0  0  0  0  0  0  0  0  0  0
  145.9669  137.1522  152.8202 N   0  0  0  0  0  0  0  0  0  0  0  0
  145.1601  135.9866  152.5042 C   0  0  0  0  0  0  0  0  0  0  0  0
  145.5672  135.3372  151.1679 C   0  0  2  0  0  0  0  0  0  0  0  0
  145.2064  136.1668  150.0795 O   0  0  0  0  0  0  0  0  0  0  0  0
  144.9871  133.9188  150.9925 C   0  0  2  0  0  0  0  0  0  0  0  0
  145.7062  132.7885  151.7329 C   0  0  0  0  0  0  0  0  0  0  0  0
  145.2624  131.5862  150.9299 C   0  0  0  0  0  0  0  0  0  0  0  0
  145.2632  132.1417  149.5072 C   0  0  0  0  0  0  0  0  0  0  0  0
  144.9326  133.5236  149.6240 O   0  0  0  0  0  0  0  0  0  0  0  0
  151.6045  141.5628  157.2075 C   0  0  0  0  0  0  0  0  0  0  0  0
  151.3093  144.6302  160.0173 H   0  0  0  0  0  0  0  0  0  0  0  0
  152.6621  144.0459  160.9855 H   0  0  0  0  0  0  0  0  0  0  0  0
  151.1147  143.2029  161.0498 H   0  0  0  0  0  0  0  0  0  0  0  0
  149.4524  142.5209  159.3929 H   0  0  0  0  0  0  0  0  0  0  0  0
  149.7454  143.7872  158.1929 H   0  0  0  0  0  0  0  0  0  0  0  0
  148.9107  140.9184  157.7661 H   0  0  0  0  0  0  0  0  0  0  0  0
  148.3598  142.3413  156.8837 H   0  0  0  0  0  0  0  0  0  0  0  0
  150.4233  142.5117  155.6966 H   0  0  0  0  0  0  0  0  0  0  0  0
  150.8976  140.3389  154.6567 H   0  0  0  0  0  0  0  0  0  0  0  0
  150.2683  139.4867  156.0272 H   0  0  0  0  0  0  0  0  0  0  0  0
  147.2999  141.5172  153.9251 H   0  0  0  0  0  0  0  0  0  0  0  0
  148.7316  141.1890  152.9296 H   0  0  0  0  0  0  0  0  0  0  0  0
  148.8130  142.3542  154.2507 H   0  0  0  0  0  0  0  0  0  0  0  0
  147.7335  136.6105  156.9010 H   0  0  0  0  0  0  0  0  0  0  0  0
  145.7388  138.3362  151.0296 H   0  0  0  0  0  0  0  0  0  0  0  0
  145.2687  135.2693  153.3187 H   0  0  0  0  0  0  0  0  0  0  0  0
  144.1095  136.2798  152.4868 H   0  0  0  0  0  0  0  0  0  0  0  0
  146.6546  135.2539  151.1432 H   0  0  0  0  0  0  0  0  0  0  0  0
  145.6941  135.8919  149.3183 H   0  0  0  0  0  0  0  0  0  0  0  0
  143.9514  133.9316  151.3368 H   0  0  0  0  0  0  0  0  0  0  0  0
  146.7904  132.8893  151.6686 H   0  0  0  0  0  0  0  0  0  0  0  0
  145.4305  132.7269  152.7860 H   0  0  0  0  0  0  0  0  0  0  0  0
  145.9166  130.7224  151.0511 H   0  0  0  0  0  0  0  0  0  0  0  0
  144.2518  131.2942  151.2193 H   0  0  0  0  0  0  0  0  0  0  0  0
  146.2589  132.0612  149.0693 H   0  0  0  0  0  0  0  0  0  0  0  0
  144.5637  131.6179  148.8552 H   0  0  0  0  0  0  0  0  0  0  0  0
  152.4885  141.8999  156.6634 H   0  0  0  0  0  0  0  0  0  0  0  0
  151.7902  140.5474  157.5603 H   0  0  0  0  0  0  0  0  0  0  0  0
  1  2  1  0  0  0  0
  1 29  1  0  0  0  0
  1 30  1  0  0  0  0
  1 31  1  0  0  0  0
  2  3  2  0  0  0  0
  2  4  1  0  0  0  0
  4 28  1  0  0  0  0
  4  5  1  0  0  0  0
  5  6  1  0  0  0  0
  5 32  1  0  0  0  0
  5 33  1  0  0  0  0
  6  7  1  0  0  0  0
  6 34  1  0  0  0  0
  6 35  1  0  0  0  0
  7  8  1  0  0  0  0
  7 28  1  0  0  0  0
  7 36  1  0  0  0  0
  8  9  1  0  0  0  0
  8 37  1  0  0  0  0
  8 38  1  0  0  0  0
  9 10  1  0  0  0  0
  9 11  1  0  0  0  0
 10 39  1  0  0  0  0
 10 40  1  0  0  0  0
 10 41  1  0  0  0  0
 11 16  1  0  0  0  0
 11 12  2  0  0  0  0
 12 13  1  0  0  0  0
 13 14  2  0  0  0  0
 13 42  1  0  0  0  0
 14 15  1  0  0  0  0
 15 19  1  0  0  0  0
 15 16  2  0  0  0  0
 16 17  1  0  0  0  0
 17 18  2  0  0  0  0
 18 19  1  0  0  0  0
 18 43  1  0  0  0  0
 19 20  1  0  0  0  0
 20 21  1  0  0  0  0
 20 44  1  0  0  0  0
 20 45  1  0  0  0  0
 21 22  1  0  0  0  0
 21 23  1  0  0  0  0
 21 46  1  0  0  0  0
 22 47  1  0  0  0  0
 23 27  1  0  0  0  0
 23 24  1  0  0  0  0
 23 48  1  0  0  0  0
 24 25  1  0  0  0  0
 24 49  1  0  0  0  0
 24 50  1  0  0  0  0
 25 26  1  0  0  0  0
 25 51  1  0  0  0  0
 25 52  1  0  0  0  0
 26 27  1  0  0  0  0
 26 53  1  0  0  0  0
 26 54  1  0  0  0  0
 28 55  1  0  0  0  0
 28 56  1  0  0  0  0
M  END
> <s_m_source_file>
AV-unprocessed.smi

> <i_m_source_file_index>
83

> <i_lp_mmshare_version>
43012

> <i_f3d_flags>
0

> <s_epik_input>
W0NIM11DKD1PKU4xW0NIMl1bQ0gyXVtDQEhdKFtDSDJdMSlbQ0gyXU4oW0NIM10pYyhuW2NIXW4yKWMoYzIzKW5bY0hdbjNbQ0gyXVtDQEhdKFtPSF0pW0NAQEhdNFtDSDJdW0NIMl1bQ0gyXU80

> <s_epik_cmdline>
J2VwaWtfcHl0aG9uJywgJy1waCcsICc3LjAnLCAnLXRuJywgJzgnLCAnLW1hJywgJzIwMCcsICctbWV0YWxfYmluZGluZycsICctaW1hZScsICc8aW5maWxlLm1hZT4nLCAnLW9tYWUnLCAnPG91dGZpbGUubWFlPic=

> <r_lp_tautomer_probability>
1

> <r_epik_Ionization_Penalty>
0.00109752

> <r_epik_Ionization_Penalty_Charging>
0

> <r_epik_Ionization_Penalty_Neutral>
0.00109752

> <r_epik_State_Penalty>
0.000634803

> <r_epik_Charging_Adjusted_Penalty>
0.000634803

> <i_epik_Tot_Q>
0

> <i_epik_Tot_abs_Q>
0

> <r_epik_Metal_State_Penalty>
-0

> <b_epik_Metal_Only>
0

> <s_lp_Force_Field>
OPLS_2005

> <r_lp_Energy>
56.4298

> <b_lp_Chiralities_Consistent>
1

> <s_lp_Variant>
AV-unprocessed.smi:83-2

> <Gold.Version>
5.8.1

> <Gold.Id.Protein>
6NUR|6NUR_protein|mol2

> <Gold.PLP.Fitness>
47.3320

> <Gold.PLP.PLP>
-43.1731

> <Gold.PLP.part.hbond>
-2.0000

> <Gold.PLP.part.metal>
0.0000

> <Gold.PLP.part.buried>
-6.0014

> <Gold.PLP.part.nonpolar>
-37.9176

> <Gold.PLP.part.repulsive>
3.7424

> <Gold.PLP.ligand.clash>
0.0000

> <Gold.PLP.ligand.torsion>
1.1785

> <Gold.PLP.Chemscore.Hbond>
1.0000

> <Gold.PLP.Chemscore.CHOScore>
1.0000

> <Gold.PLP.Chemscore.Metal>
0.0000

> <Gold.Chemscore.Hbonds>
donor molecule, donor type, donor heavy atom, donor atom, acceptor molecule, acceptor atom, score
      L1  H    22    47       P1  7921  1.00
      L1  C    18    43       P1 10171  1.00

> <Gold.PLP.Chemscore.Internal.Correction>
0.5158

> <Gold.Rescore>
     Score         DG    S(hbond)    S(metal)    S(lipo)     H(rot)  DE(clash)    DE(int)     intcor
     10.42     -12.79       0.99        0.00      91.43       2.62       0.09       2.28       ----

> <Gold.Chemscore.Fitness>
10.4239

> <Gold.Chemscore.DG>
-12.7908

> <Gold.Chemscore.ZeroCoef>
-5.4800

> <Gold.Chemscore.Hbond>
0.9907

> <Gold.Chemscore.Metal>
0.0000

> <Gold.Chemscore.Lipo>
91.4267

> <Gold.Chemscore.Internal_Hbond>
0.0000

> <Gold.Chemscore.DEClash>
0.0898

> <Gold.Chemscore.DEInternal>
2.2771

> <Gold.Chemscore.Rot>
2.6152

> <Gold.Chemscore.Internal.Correction>
   9.000000E+99

> <Gold.Chemscore.Hbonds>
donor molecule, donor type, donor heavy atom, donor atom, acceptor molecule, acceptor atom, score
      L1  H    22    47       P1  7921  0.93

> <Gold.Chemscore.Hbond.Weighted>
-3.3088

> <Gold.Chemscore.Metal.Weighted>
-0.0000

> <Gold.Chemscore.Lipo.Weighted>
-10.6969

> <Gold.Chemscore.Internal_Hbond.Weighted>
0.0000

> <Gold.Chemscore.DEClash.Weighted>
0.0898

> <Gold.Chemscore.DEInternal.Weighted>
2.2771

> <Gold.Chemscore.Rot.Weighted>
6.6949

> <Gold.Chemscore.Internal.Correction.Weighted>
   9.000000E+99

> <Gold.Protein.RotatedTorsions>
[ 6907 6896 6895 6894 ] final  -56.84 input  -60.11 | X-H torsion
[ 7974 7965 7964 7962 ] final  126.66 input  175.53 | X-H torsion
[ 8008 7997 7996 7995 ] final  -91.74 input   59.86 | X-H torsion
[ 10167 10162 10161 10158 ] final  -27.05 input  -65.29 | X-H torsion
[ 10718 10713 10712 10709 ] final  164.45 input   66.30 | X-H torsion
[ 10763 10752 10751 10750 ] final  130.15 input  -60.55 | X-H torsion
[ 11005 11000 10999 10996 ] final  -29.84 input  -57.11 | X-H torsion

> <Gold.Protein.ActiveResidues>
 VAL166  LYS551  ARG553  GLY616  TRP617  ASP618  TYR619  PRO620  LYS621  CYS622 
 ASP623  PHE694  ASN695  SER759  ASP760  ASP761  ALA762  ILE779  LEU786  VAL792 
 PHE793  MET794  SER795  GLU796  ALA797  LYS798  CYS799  TRP800  GLU811  SER814 

> <Gold.Protein.RotatedAtoms>
  150.8134  134.7302  159.6708 H   0  0  0  0  0  0  0  0  0  0  0  0  # atno 6907 bound_to 6896
  152.4254  134.5875  159.9975 H   0  0  0  0  0  0  0  0  0  0  0  0  # atno 6908 bound_to 6896
  151.6079  133.3313  159.3097 H   0  0  0  0  0  0  0  0  0  0  0  0  # atno 6909 bound_to 6896
  145.0592  139.3819  143.5014 H   0  0  0  0  0  0  0  0  0  0  0  0  # atno 7974 bound_to 7965
  154.7144  140.0516  157.0581 H   0  0  0  0  0  0  0  0  0  0  0  0  # atno 8008 bound_to 7997
  155.0511  140.3179  155.4673 H   0  0  0  0  0  0  0  0  0  0  0  0  # atno 8009 bound_to 7997
  156.2799  140.2115  156.5636 H   0  0  0  0  0  0  0  0  0  0  0  0  # atno 8010 bound_to 7997
  140.7279  143.4126  151.1080 H   0  0  0  0  0  0  0  0  0  0  0  0  # atno 10167 bound_to 10162
  157.0942  131.0425  151.2525 H   0  0  0  0  0  0  0  0  0  0  0  0  # atno 10718 bound_to 10713
  153.7533  135.3206  155.3325 H   0  0  0  0  0  0  0  0  0  0  0  0  # atno 10763 bound_to 10752
  154.8255  135.4572  154.0910 H   0  0  0  0  0  0  0  0  0  0  0  0  # atno 10764 bound_to 10752
  153.2119  135.6937  153.8186 H   0  0  0  0  0  0  0  0  0  0  0  0  # atno 10765 bound_to 10752
  140.9331  133.7326  156.0965 H   0  0  0  0  0  0  0  0  0  0  0  0  # atno 11005 bound_to 11000
  146.3523  140.0281  142.8653 LP  0  0  0  0  0  0  0  0  0  0  0  0  # atno 17320 bound_to 7965
  145.1430  140.9582  143.4477 LP  0  0  0  0  0  0  0  0  0  0  0  0  # atno 17321 bound_to 7965
  139.7762  143.8422  152.3129 LP  0  0  0  0  0  0  0  0  0  0  0  0  # atno 17342 bound_to 10162
  139.8357  144.7233  150.9393 LP  0  0  0  0  0  0  0  0  0  0  0  0  # atno 17343 bound_to 10162
  157.4696  130.7701  149.7311 LP  0  0  0  0  0  0  0  0  0  0  0  0  # atno 17370 bound_to 10713
  155.9890  130.3955  150.3092 LP  0  0  0  0  0  0  0  0  0  0  0  0  # atno 17371 bound_to 10713
  140.7836  134.3697  157.5481 LP  0  0  0  0  0  0  0  0  0  0  0  0  # atno 17394 bound_to 11000
  139.8801  134.9097  156.2996 LP  0  0  0  0  0  0  0  0  0  0  0  0  # atno 17395 bound_to 11000

$$$$
