AV-unprocessed.smi:1471|AV-procd|sdf|5963|dock6
  -GOLD-   22720 6 53D 1   1.00000     0.00000
 Structure written by MMmdl.
 42 43  0  0  0  0  0  0  0  0  1 V2000
  147.4227  138.1743  154.4079 C   0  0  0  0  0  0  0  0  0  0  0  0
  148.6059  137.4544  154.9971 C   0  0  0  0  0  0  0  0  0  0  0  0
  149.7668  137.9871  154.7989 N   0  0  0  0  0  0  0  0  0  0  0  0
  150.9179  137.4054  155.2912 N   0  0  0  0  0  0  0  0  0  0  0  0
  152.1439  138.1437  154.9671 C   0  0  0  0  0  0  0  0  0  0  0  0
  152.1707  139.5414  155.6256 C   0  0  1  0  0  0  0  0  0  0  0  0
  151.0904  140.3031  155.1240 O   0  0  0  0  0  0  0  0  0  0  0  0
  152.0029  139.4631  157.1500 C   0  0  0  0  0  0  0  0  0  0  0  0
  152.8388  140.4405  157.7524 O   0  0  0  0  0  0  0  0  0  0  0  0
  152.5251  140.7093  159.1111 C   0  0  0  0  0  0  0  0  0  0  0  0
  152.3564  142.1914  159.4027 C   0  0  0  0  0  0  0  0  0  0  0  0
  151.8995  143.0624  158.3906 C   0  0  0  0  0  0  0  0  0  0  0  0
  151.7460  144.4374  158.6545 C   0  0  0  0  0  0  0  0  0  0  0  0
  152.0530  144.9483  159.9302 C   0  0  0  0  0  0  0  0  0  0  0  0
  152.5153  144.0840  160.9412 C   0  0  0  0  0  0  0  0  0  0  0  0
  152.6699  142.7085  160.6792 C   0  0  0  0  0  0  0  0  0  0  0  0
  153.1189  141.8884  161.6595 F   0  0  0  0  0  0  0  0  0  0  0  0
  150.9581  136.2455  156.0072 C   0  0  0  0  0  0  0  0  0  0  0  0
  152.0115  135.7552  156.4167 O   0  0  0  0  0  0  0  0  0  0  0  0
  149.6391  135.6498  156.2326 C   0  0  0  0  0  0  0  0  0  0  0  0
  149.6350  134.4329  156.9787 C   0  0  0  0  0  0  0  0  0  0  0  0
  149.6359  133.4569  157.6013 N   0  0  0  0  0  0  0  0  0  0  0  0
  148.4998  136.2156  155.7614 C   0  0  0  0  0  0  0  0  0  0  0  0
  147.1071  135.6360  155.9683 C   0  0  0  0  0  0  0  0  0  0  0  0
  146.8297  137.5034  153.7857 H   0  0  0  0  0  0  0  0  0  0  0  0
  147.7280  139.0149  153.7824 H   0  0  0  0  0  0  0  0  0  0  0  0
  146.7779  138.5647  155.1955 H   0  0  0  0  0  0  0  0  0  0  0  0
  153.0316  137.5716  155.2447 H   0  0  0  0  0  0  0  0  0  0  0  0
  152.2097  138.2418  153.8819 H   0  0  0  0  0  0  0  0  0  0  0  0
  153.0993  140.0672  155.4004 H   0  0  0  0  0  0  0  0  0  0  0  0
  150.4394  140.3848  155.8038 H   0  0  0  0  0  0  0  0  0  0  0  0
  150.9670  139.6652  157.4277 H   0  0  0  0  0  0  0  0  0  0  0  0
  152.2471  138.4600  157.5035 H   0  0  0  0  0  0  0  0  0  0  0  0
  151.5820  140.2135  159.3416 H   0  0  0  0  0  0  0  0  0  0  0  0
  153.2756  140.2647  159.7667 H   0  0  0  0  0  0  0  0  0  0  0  0
  151.6620  142.6791  157.4092 H   0  0  0  0  0  0  0  0  0  0  0  0
  151.3937  145.1000  157.8776 H   0  0  0  0  0  0  0  0  0  0  0  0
  151.9360  146.0029  160.1324 H   0  0  0  0  0  0  0  0  0  0  0  0
  152.7535  144.4765  161.9188 H   0  0  0  0  0  0  0  0  0  0  0  0
  147.1123  134.7869  156.6510 H   0  0  0  0  0  0  0  0  0  0  0  0
  146.6926  135.2959  155.0188 H   0  0  0  0  0  0  0  0  0  0  0  0
  146.4348  136.3840  156.3894 H   0  0  0  0  0  0  0  0  0  0  0  0
  1  2  1  0  0  0  0
  1 25  1  0  0  0  0
  1 26  1  0  0  0  0
  1 27  1  0  0  0  0
  2 23  1  0  0  0  0
  2  3  2  0  0  0  0
  3  4  1  0  0  0  0
  4  5  1  0  0  0  0
  4 18  1  0  0  0  0
  5  6  1  0  0  0  0
  5 28  1  0  0  0  0
  5 29  1  0  0  0  0
  6  7  1  0  0  0  0
  6  8  1  0  0  0  0
  6 30  1  0  0  0  0
  7 31  1  0  0  0  0
  8  9  1  0  0  0  0
  8 32  1  0  0  0  0
  8 33  1  0  0  0  0
  9 10  1  0  0  0  0
 10 11  1  0  0  0  0
 10 34  1  0  0  0  0
 10 35  1  0  0  0  0
 11 16  1  0  0  0  0
 11 12  2  0  0  0  0
 12 13  1  0  0  0  0
 12 36  1  0  0  0  0
 13 14  2  0  0  0  0
 13 37  1  0  0  0  0
 14 15  1  0  0  0  0
 14 38  1  0  0  0  0
 15 16  2  0  0  0  0
 15 39  1  0  0  0  0
 16 17  1  0  0  0  0
 18 19  2  0  0  0  0
 18 20  1  0  0  0  0
 20 21  1  0  0  0  0
 20 23  2  0  0  0  0
 21 22  3  0  0  0  0
 23 24  1  0  0  0  0
 24 40  1  0  0  0  0
 24 41  1  0  0  0  0
 24 42  1  0  0  0  0
M  END
> <s_m_source_file>
AV-unprocessed.smi

> <i_m_source_file_index>
1471

> <i_lp_mmshare_version>
43012

> <i_f3d_flags>
0

> <s_epik_input>
TiNDYyhjMVtDSDNdKWMoPU8pbihuYzFbQ0gzXSlbQ0gyXVtDQEhdKFtPSF0pW0NIMl1PW0NIMl1jMltjSF1bY0hdW2NIXVtjSF1jMkY=

> <s_epik_cmdline>
J2VwaWtfcHl0aG9uJywgJy1waCcsICc3LjAnLCAnLXRuJywgJzgnLCAnLW1hJywgJzIwMCcsICctbWV0YWxfYmluZGluZycsICctaW1hZScsICc8aW5maWxlLm1hZT4nLCAnLW9tYWUnLCAnPG91dGZpbGUubWFlPic=

> <r_lp_tautomer_probability>
1

> <r_epik_Ionization_Penalty>
6.13319e-08

> <r_epik_Ionization_Penalty_Charging>
2.19172e-10

> <r_epik_Ionization_Penalty_Neutral>
6.11128e-08

> <r_epik_State_Penalty>
-0

> <r_epik_Charging_Adjusted_Penalty>
2.19172e-10

> <i_epik_Tot_Q>
0

> <i_epik_Tot_abs_Q>
0

> <r_epik_Metal_State_Penalty>
-0

> <b_epik_Metal_Only>
0

> <s_lp_Force_Field>
OPLS_2005

> <r_lp_Energy>
30.1465

> <b_lp_Chiralities_Consistent>
1

> <s_lp_Variant>
AV-unprocessed.smi:1471-2

> <Gold.Version>
5.8.1

> <Gold.Id.Protein>
6NUR|6NUR_protein|mol2

> <Gold.PLP.Fitness>
52.4504

> <Gold.PLP.PLP>
-43.5472

> <Gold.PLP.part.hbond>
-4.0000

> <Gold.PLP.part.metal>
0.0000

> <Gold.PLP.part.buried>
-4.3713

> <Gold.PLP.part.nonpolar>
-35.6684

> <Gold.PLP.part.repulsive>
0.1738

> <Gold.PLP.ligand.clash>
0.0000

> <Gold.PLP.ligand.torsion>
1.3419

> <Gold.PLP.Chemscore.Hbond>
3.8480

> <Gold.PLP.Chemscore.CHOScore>
0.0000

> <Gold.PLP.Chemscore.Metal>
0.0000

> <Gold.Chemscore.Hbonds>
donor molecule, donor type, donor heavy atom, donor atom, acceptor molecule, acceptor atom, score
      P1  H  6896  6907       L1    22  0.83
      P1  H  7989  7998       L1     7  1.00
      P1  H  7997  8009       L1     9  0.82
      P1  H 10752 10764       L1    19  1.00

> <Gold.PLP.Chemscore.Internal.Correction>
0.0431

> <Gold.Rescore>
     Score         DG    S(hbond)    S(metal)    S(lipo)     H(rot)  DE(clash)    DE(int)     intcor
     20.60     -22.26       3.27        0.00     108.00       2.65       0.27       1.40       ----

> <Gold.Chemscore.Fitness>
20.5965

> <Gold.Chemscore.DG>
-22.2623

> <Gold.Chemscore.ZeroCoef>
-5.4800

> <Gold.Chemscore.Hbond>
3.2702

> <Gold.Chemscore.Metal>
0.0000

> <Gold.Chemscore.Lipo>
108.0019

> <Gold.Chemscore.Internal_Hbond>
0.0000

> <Gold.Chemscore.DEClash>
0.2699

> <Gold.Chemscore.DEInternal>
1.3960

> <Gold.Chemscore.Rot>
2.6470

> <Gold.Chemscore.Internal.Correction>
   9.000000E+99

> <Gold.Chemscore.Hbonds>
donor molecule, donor type, donor heavy atom, donor atom, acceptor molecule, acceptor atom, score
      P1  H  6896  6907       L1    22  0.61
      P1  H  7989  7998       L1     7  0.49
      P1  H  7997  8009       L1     9  0.18
      P1  H 10752 10764       L1    19  0.91

> <Gold.Chemscore.Hbond.Weighted>
-10.9224

> <Gold.Chemscore.Metal.Weighted>
-0.0000

> <Gold.Chemscore.Lipo.Weighted>
-12.6362

> <Gold.Chemscore.Internal_Hbond.Weighted>
0.0000

> <Gold.Chemscore.DEClash.Weighted>
0.2699

> <Gold.Chemscore.DEInternal.Weighted>
1.3960

> <Gold.Chemscore.Rot.Weighted>
6.7762

> <Gold.Chemscore.Internal.Correction.Weighted>
   9.000000E+99

> <Gold.Protein.RotatedTorsions>
[ 6907 6896 6895 6894 ] final -137.28 input  -60.11 | X-H torsion
[ 7974 7965 7964 7962 ] final  157.06 input  175.53 | X-H torsion
[ 8008 7997 7996 7995 ] final  170.63 input   59.86 | X-H torsion
[ 10167 10162 10161 10158 ] final   97.17 input  -65.29 | X-H torsion
[ 10718 10713 10712 10709 ] final -120.26 input   66.30 | X-H torsion
[ 10763 10752 10751 10750 ] final  -21.18 input  -60.55 | X-H torsion
[ 11005 11000 10999 10996 ] final  113.92 input  -57.11 | X-H torsion

> <Gold.Protein.ActiveResidues>
 VAL166  LYS551  ARG553  GLY616  TRP617  ASP618  TYR619  PRO620  LYS621  CYS622 
 ASP623  PHE694  ASN695  SER759  ASP760  ASP761  ALA762  ILE779  LEU786  VAL792 
 PHE793  MET794  SER795  GLU796  ALA797  LYS798  CYS799  TRP800  GLU811  SER814 

> <Gold.Protein.RotatedAtoms>
  151.0205  133.5881  159.2671 H   0  0  0  0  0  0  0  0  0  0  0  0  # atno 6907 bound_to 6896
  151.3000  135.0765  159.9245 H   0  0  0  0  0  0  0  0  0  0  0  0  # atno 6908 bound_to 6896
  152.5322  133.9888  159.7895 H   0  0  0  0  0  0  0  0  0  0  0  0  # atno 6909 bound_to 6896
  144.7925  139.7289  143.6215 H   0  0  0  0  0  0  0  0  0  0  0  0  # atno 7974 bound_to 7965
  156.1347  140.1533  156.9012 H   0  0  0  0  0  0  0  0  0  0  0  0  # atno 8008 bound_to 7997
  154.4937  140.0844  156.7690 H   0  0  0  0  0  0  0  0  0  0  0  0  # atno 8009 bound_to 7997
  155.4191  140.3422  155.4272 H   0  0  0  0  0  0  0  0  0  0  0  0  # atno 8010 bound_to 7997
  139.7826  144.6882  151.0002 H   0  0  0  0  0  0  0  0  0  0  0  0  # atno 10167 bound_to 10162
  156.1244  130.6348  150.9519 H   0  0  0  0  0  0  0  0  0  0  0  0  # atno 10718 bound_to 10713
  153.6321  135.6988  153.5271 H   0  0  0  0  0  0  0  0  0  0  0  0  # atno 10763 bound_to 10752
  153.2851  135.4174  155.1114 H   0  0  0  0  0  0  0  0  0  0  0  0  # atno 10764 bound_to 10752
  154.8519  135.3611  154.5864 H   0  0  0  0  0  0  0  0  0  0  0  0  # atno 10765 bound_to 10752
  139.8966  134.9559  156.6813 H   0  0  0  0  0  0  0  0  0  0  0  0  # atno 11005 bound_to 11000
  146.2182  139.5588  142.9636 LP  0  0  0  0  0  0  0  0  0  0  0  0  # atno 17320 bound_to 7965
  145.5757  141.0389  143.2150 LP  0  0  0  0  0  0  0  0  0  0  0  0  # atno 17321 bound_to 7965
  140.7819  143.4466  151.0473 LP  0  0  0  0  0  0  0  0  0  0  0  0  # atno 17342 bound_to 10162
  139.8146  143.7903  152.3173 LP  0  0  0  0  0  0  0  0  0  0  0  0  # atno 17343 bound_to 10162
  157.6427  131.0908  150.8218 LP  0  0  0  0  0  0  0  0  0  0  0  0  # atno 17370 bound_to 10713
  156.8311  130.5016  149.5331 LP  0  0  0  0  0  0  0  0  0  0  0  0  # atno 17371 bound_to 10713
  140.7297  133.9069  155.8203 LP  0  0  0  0  0  0  0  0  0  0  0  0  # atno 17394 bound_to 11000
  141.0163  134.0951  157.4168 LP  0  0  0  0  0  0  0  0  0  0  0  0  # atno 17395 bound_to 11000

$$$$
