AV-unprocessed.smi:193|AV-procd|sdf|1513|dock6
  -GOLD-   2262019343D 1   1.00000     0.00000
 Structure written by MMmdl.
 61 65  0  0  0  0  0  0  0  0  1 V2000
  151.9379  138.0902  154.3270 C   0  0  0  0  0  0  0  0  0  0  0  0
  151.0717  139.2989  154.7097 C   0  0  1  0  0  0  0  0  0  0  0  0
  149.5678  139.0003  154.5233 C   0  0  0  0  0  0  0  0  0  0  0  0
  148.9025  138.4475  155.7024 N   0  0  0  0  0  0  0  0  0  0  0  0
  148.0097  137.4766  155.3811 C   0  0  0  0  0  0  0  0  0  0  0  0
  147.9180  136.3511  156.1405 N   0  0  0  0  0  0  0  0  0  0  0  0
  147.0165  135.4100  155.8453 C   0  0  0  0  0  0  0  0  0  0  0  0
  146.1217  135.3929  154.8559 N   0  0  0  0  0  0  0  0  0  0  0  0
  146.2102  136.5172  154.0891 C   0  0  0  0  0  0  0  0  0  0  0  0
  147.1145  137.5995  154.2825 C   0  0  0  0  0  0  0  0  0  0  0  0
  146.9069  138.5692  153.3099 N   0  0  0  0  0  0  0  0  0  0  0  0
  145.9342  138.0898  152.5844 C   0  0  0  0  0  0  0  0  0  0  0  0
  145.4609  136.8576  152.9761 N   0  0  0  0  0  0  0  0  0  0  0  0
  144.3907  136.0979  152.3479 C   0  0  0  0  0  0  0  0  0  0  0  0
  144.8731  135.1050  151.2607 C   0  0  0  0  0  0  0  0  0  0  0  0
  145.0835  135.8388  150.0671 O   0  0  0  0  0  0  0  0  0  0  0  0
  146.2116  134.4625  151.6773 C   0  0  0  0  0  0  0  0  0  0  0  0
  146.6470  133.3474  150.7101 C   0  0  0  0  0  0  0  0  0  0  0  0
  145.6176  132.3724  150.5959 O   0  0  0  0  0  0  0  0  0  0  0  0
  144.4180  132.9016  150.0445 C   0  0  0  0  0  0  0  0  0  0  0  0
  143.8447  133.9899  150.9696 C   0  0  0  0  0  0  0  0  0  0  0  0
  148.4552  139.4458  156.6756 C   0  0  0  0  0  0  0  0  0  0  0  0
  149.5975  140.0558  157.5002 C   0  0  0  0  0  0  0  0  0  0  0  0
  150.5623  140.7919  156.6815 N   0  0  0  0  0  0  0  0  0  0  0  0
  151.3096  141.6738  157.5654 C   0  0  2  0  0  0  0  0  0  0  0  0
  150.5420  142.3751  158.6634 C   0  0  0  0  0  0  0  0  0  0  0  0
  151.0286  143.1580  157.4665 C   0  0  1  0  0  0  0  0  0  0  0  0
  152.1487  144.1653  157.6067 C   0  0  0  0  0  0  0  0  0  0  0  0
  151.5076  139.8457  156.0864 C   0  0  0  0  0  0  0  0  0  0  0  0
  151.8013  137.2686  155.0296 H   0  0  0  0  0  0  0  0  0  0  0  0
  152.9965  138.3519  154.3285 H   0  0  0  0  0  0  0  0  0  0  0  0
  151.6922  137.7236  153.3297 H   0  0  0  0  0  0  0  0  0  0  0  0
  151.3021  140.0756  153.9794 H   0  0  0  0  0  0  0  0  0  0  0  0
  149.0624  139.9331  154.2695 H   0  0  0  0  0  0  0  0  0  0  0  0
  149.4283  138.3627  153.6488 H   0  0  0  0  0  0  0  0  0  0  0  0
  147.0088  134.5492  156.4974 H   0  0  0  0  0  0  0  0  0  0  0  0
  145.5366  138.6225  151.7329 H   0  0  0  0  0  0  0  0  0  0  0  0
  143.8389  135.5710  153.1279 H   0  0  0  0  0  0  0  0  0  0  0  0
  143.6897  136.8114  151.9128 H   0  0  0  0  0  0  0  0  0  0  0  0
  145.5557  135.2931  149.4573 H   0  0  0  0  0  0  0  0  0  0  0  0
  146.9929  135.2199  151.7525 H   0  0  0  0  0  0  0  0  0  0  0  0
  146.1095  134.0304  152.6736 H   0  0  0  0  0  0  0  0  0  0  0  0
  146.8926  133.7515  149.7268 H   0  0  0  0  0  0  0  0  0  0  0  0
  147.5483  132.8616  151.0845 H   0  0  0  0  0  0  0  0  0  0  0  0
  144.6061  133.2944  149.0440 H   0  0  0  0  0  0  0  0  0  0  0  0
  143.6971  132.0917  149.9328 H   0  0  0  0  0  0  0  0  0  0  0  0
  143.5443  133.5245  151.9092 H   0  0  0  0  0  0  0  0  0  0  0  0
  142.9372  134.4021  150.5267 H   0  0  0  0  0  0  0  0  0  0  0  0
  147.9028  140.2355  156.1642 H   0  0  0  0  0  0  0  0  0  0  0  0
  147.7570  138.9874  157.3775 H   0  0  0  0  0  0  0  0  0  0  0  0
  149.1371  140.7518  158.2029 H   0  0  0  0  0  0  0  0  0  0  0  0
  150.0873  139.2977  158.1134 H   0  0  0  0  0  0  0  0  0  0  0  0
  152.3357  141.4085  157.8157 H   0  0  0  0  0  0  0  0  0  0  0  0
  149.4725  142.1870  158.7378 H   0  0  0  0  0  0  0  0  0  0  0  0
  151.0537  142.5251  159.6119 H   0  0  0  0  0  0  0  0  0  0  0  0
  150.2632  143.4572  156.7525 H   0  0  0  0  0  0  0  0  0  0  0  0
  152.8837  143.8297  158.3390 H   0  0  0  0  0  0  0  0  0  0  0  0
  151.7486  145.1262  157.9300 H   0  0  0  0  0  0  0  0  0  0  0  0
  152.6499  144.3012  156.6485 H   0  0  0  0  0  0  0  0  0  0  0  0
  151.7142  139.0276  156.7783 H   0  0  0  0  0  0  0  0  0  0  0  0
  152.4687  140.3405  155.9355 H   0  0  0  0  0  0  0  0  0  0  0  0
  1  2  1  0  0  0  0
  1 30  1  0  0  0  0
  1 31  1  0  0  0  0
  1 32  1  0  0  0  0
  2 29  1  0  0  0  0
  2  3  1  0  0  0  0
  2 33  1  0  0  0  0
  3  4  1  0  0  0  0
  3 34  1  0  0  0  0
  3 35  1  0  0  0  0
  4  5  1  0  0  0  0
  4 22  1  0  0  0  0
  5 10  1  0  0  0  0
  5  6  2  0  0  0  0
  6  7  1  0  0  0  0
  7  8  2  0  0  0  0
  7 36  1  0  0  0  0
  8  9  1  0  0  0  0
  9 13  1  0  0  0  0
  9 10  2  0  0  0  0
 10 11  1  0  0  0  0
 11 12  2  0  0  0  0
 12 13  1  0  0  0  0
 12 37  1  0  0  0  0
 13 14  1  0  0  0  0
 14 15  1  0  0  0  0
 14 38  1  0  0  0  0
 14 39  1  0  0  0  0
 15 21  1  0  0  0  0
 15 16  1  0  0  0  0
 15 17  1  0  0  0  0
 16 40  1  0  0  0  0
 17 18  1  0  0  0  0
 17 41  1  0  0  0  0
 17 42  1  0  0  0  0
 18 19  1  0  0  0  0
 18 43  1  0  0  0  0
 18 44  1  0  0  0  0
 19 20  1  0  0  0  0
 20 21  1  0  0  0  0
 20 45  1  0  0  0  0
 20 46  1  0  0  0  0
 21 47  1  0  0  0  0
 21 48  1  0  0  0  0
 22 23  1  0  0  0  0
 22 49  1  0  0  0  0
 22 50  1  0  0  0  0
 23 24  1  0  0  0  0
 23 51  1  0  0  0  0
 23 52  1  0  0  0  0
 24 25  1  0  0  0  0
 24 29  1  0  0  0  0
 25 27  1  0  0  0  0
 25 26  1  0  0  0  0
 25 53  1  0  0  0  0
 26 27  1  0  0  0  0
 26 54  1  0  0  0  0
 26 55  1  0  0  0  0
 27 28  1  0  0  0  0
 27 56  1  0  0  0  0
 28 57  1  0  0  0  0
 28 58  1  0  0  0  0
 28 59  1  0  0  0  0
 29 60  1  0  0  0  0
 29 61  1  0  0  0  0
M  END
> <s_m_source_file>
AV-unprocessed.smi

> <i_m_source_file_index>
193

> <i_lp_mmshare_version>
43012

> <i_f3d_flags>
0

> <s_epik_input>
W0NIM11bQ0BASF0xW0NIMl1bQ0BIXTFOKFtDSDJdMilbQ0gyXVtDSDJdTihbQ0gyXVtDQEhdMltDSDNdKWMobltjSF1uMyljKGMzNCluW2NIXW40W0NIMl1DNShbT0hdKVtDSDJdW0NIMl1PW0NIMl1bQ0gyXTU=

> <s_epik_cmdline>
J2VwaWtfcHl0aG9uJywgJy1waCcsICc3LjAnLCAnLXRuJywgJzgnLCAnLW1hJywgJzIwMCcsICctbWV0YWxfYmluZGluZycsICctaW1hZScsICc8aW5maWxlLm1hZT4nLCAnLW9tYWUnLCAnPG91dGZpbGUubWFlPic=

> <r_lp_tautomer_probability>
1

> <r_epik_Ionization_Penalty>
1.45227

> <r_epik_Ionization_Penalty_Charging>
0

> <r_epik_Ionization_Penalty_Neutral>
1.45227

> <r_epik_State_Penalty>
2.02377

> <r_epik_Charging_Adjusted_Penalty>
2.02377

> <i_epik_Tot_Q>
0

> <i_epik_Tot_abs_Q>
0

> <r_epik_Metal_State_Penalty>
2.01937

> <b_epik_Metal_Only>
0

> <s_lp_Force_Field>
OPLS_2005

> <r_lp_Energy>
55.7491

> <b_lp_Chiralities_Consistent>
1

> <s_lp_Variant>
AV-unprocessed.smi:193-18

> <Gold.Version>
5.8.1

> <Gold.Id.Protein>
6NUR|6NUR_protein|mol2

> <Gold.PLP.Fitness>
45.6266

> <Gold.PLP.PLP>
-41.5690

> <Gold.PLP.part.hbond>
-2.0000

> <Gold.PLP.part.metal>
0.0000

> <Gold.PLP.part.buried>
-5.1576

> <Gold.PLP.part.nonpolar>
-35.6980

> <Gold.PLP.part.repulsive>
0.4951

> <Gold.PLP.ligand.clash>
0.0000

> <Gold.PLP.ligand.torsion>
2.1726

> <Gold.PLP.Chemscore.Hbond>
1.0000

> <Gold.PLP.Chemscore.CHOScore>
1.3208

> <Gold.PLP.Chemscore.Metal>
0.0000

> <Gold.Chemscore.Hbonds>
donor molecule, donor type, donor heavy atom, donor atom, acceptor molecule, acceptor atom, score
      L1  H    16    40       P1  7921  1.00
      L1  C    12    37       P1 10171  0.99
      L1  C    12    37       P1 10175  0.37

> <Gold.PLP.Chemscore.Internal.Correction>
1.4403

> <Gold.Rescore>
     Score         DG    S(hbond)    S(metal)    S(lipo)     H(rot)  DE(clash)    DE(int)     intcor
     13.01     -15.95       0.99        0.00     108.58       2.17       0.07       2.87       ----

> <Gold.Chemscore.Fitness>
13.0095

> <Gold.Chemscore.DG>
-15.9487

> <Gold.Chemscore.ZeroCoef>
-5.4800

> <Gold.Chemscore.Hbond>
0.9912

> <Gold.Chemscore.Metal>
0.0000

> <Gold.Chemscore.Lipo>
108.5830

> <Gold.Chemscore.Internal_Hbond>
0.0000

> <Gold.Chemscore.DEClash>
0.0653

> <Gold.Chemscore.DEInternal>
2.8740

> <Gold.Chemscore.Rot>
2.1664

> <Gold.Chemscore.Internal.Correction>
   9.000000E+99

> <Gold.Chemscore.Hbonds>
donor molecule, donor type, donor heavy atom, donor atom, acceptor molecule, acceptor atom, score
      L1  H    16    40       P1  7921  0.94

> <Gold.Chemscore.Hbond.Weighted>
-3.3105

> <Gold.Chemscore.Metal.Weighted>
-0.0000

> <Gold.Chemscore.Lipo.Weighted>
-12.7042

> <Gold.Chemscore.Internal_Hbond.Weighted>
0.0000

> <Gold.Chemscore.DEClash.Weighted>
0.0653

> <Gold.Chemscore.DEInternal.Weighted>
2.8740

> <Gold.Chemscore.Rot.Weighted>
5.5459

> <Gold.Chemscore.Internal.Correction.Weighted>
   9.000000E+99

> <Gold.Protein.RotatedTorsions>
[ 6907 6896 6895 6894 ] final   33.51 input  -60.11 | X-H torsion
[ 7974 7965 7964 7962 ] final   -3.39 input  175.53 | X-H torsion
[ 8008 7997 7996 7995 ] final -169.80 input   59.86 | X-H torsion
[ 10167 10162 10161 10158 ] final   -9.96 input  -65.29 | X-H torsion
[ 10718 10713 10712 10709 ] final  145.28 input   66.30 | X-H torsion
[ 10763 10752 10751 10750 ] final -129.54 input  -60.55 | X-H torsion
[ 11005 11000 10999 10996 ] final -116.60 input  -57.11 | X-H torsion

> <Gold.Protein.ActiveResidues>
 VAL166  LYS551  ARG553  GLY616  TRP617  ASP618  TYR619  PRO620  LYS621  CYS622 
 ASP623  PHE694  ASN695  SER759  ASP760  ASP761  ALA762  ILE779  LEU786  VAL792 
 PHE793  MET794  SER795  GLU796  ALA797  LYS798  CYS799  TRP800  GLU811  SER814 

> <Gold.Protein.RotatedAtoms>
  152.0896  134.9416  160.0571 H   0  0  0  0  0  0  0  0  0  0  0  0  # atno 6907 bound_to 6896
  152.0673  133.4085  159.4452 H   0  0  0  0  0  0  0  0  0  0  0  0  # atno 6908 bound_to 6896
  150.6836  134.3052  159.4766 H   0  0  0  0  0  0  0  0  0  0  0  0  # atno 6909 bound_to 6896
  146.2390  140.1714  142.8332 H   0  0  0  0  0  0  0  0  0  0  0  0  # atno 7974 bound_to 7965
  155.9099  140.1055  157.1287 H   0  0  0  0  0  0  0  0  0  0  0  0  # atno 8008 bound_to 7997
  154.4038  140.1276  156.4608 H   0  0  0  0  0  0  0  0  0  0  0  0  # atno 8009 bound_to 7997
  155.7323  140.3468  155.5067 H   0  0  0  0  0  0  0  0  0  0  0  0  # atno 8010 bound_to 7997
  140.7101  143.5800  150.9002 H   0  0  0  0  0  0  0  0  0  0  0  0  # atno 10167 bound_to 10162
  157.3471  131.0945  151.1032 H   0  0  0  0  0  0  0  0  0  0  0  0  # atno 10718 bound_to 10713
  154.8757  135.3892  154.3936 H   0  0  0  0  0  0  0  0  0  0  0  0  # atno 10763 bound_to 10752
  153.4669  135.7029  153.6022 H   0  0  0  0  0  0  0  0  0  0  0  0  # atno 10764 bound_to 10752
  153.4496  135.3837  155.2244 H   0  0  0  0  0  0  0  0  0  0  0  0  # atno 10765 bound_to 10752
  141.0411  133.9834  157.2993 H   0  0  0  0  0  0  0  0  0  0  0  0  # atno 11005 bound_to 11000
  145.0008  140.8630  143.5283 LP  0  0  0  0  0  0  0  0  0  0  0  0  # atno 17320 bound_to 7965
  145.1734  139.2392  143.5330 LP  0  0  0  0  0  0  0  0  0  0  0  0  # atno 17321 bound_to 7965
  139.9526  143.6255  152.3025 LP  0  0  0  0  0  0  0  0  0  0  0  0  # atno 17342 bound_to 10162
  139.6779  144.7657  151.1663 LP  0  0  0  0  0  0  0  0  0  0  0  0  # atno 17343 bound_to 10162
  157.2222  130.6486  149.5816 LP  0  0  0  0  0  0  0  0  0  0  0  0  # atno 17370 bound_to 10713
  155.9716  130.4625  150.6150 LP  0  0  0  0  0  0  0  0  0  0  0  0  # atno 17371 bound_to 10713
  139.9276  135.0201  156.8290 LP  0  0  0  0  0  0  0  0  0  0  0  0  # atno 17394 bound_to 11000
  140.6232  133.9974  155.7628 LP  0  0  0  0  0  0  0  0  0  0  0  0  # atno 17395 bound_to 11000

$$$$
