AV-unprocessed.smi:261|AV-procd|sdf|1984|dock9
  -GOLD-   2262021163D 1   1.00000     0.00000
 Structure written by MMmdl.
 51 54  0  0  0  0  0  0  0  0  1 V2000
  150.1222  130.7416  154.6510 C   0  0  0  0  0  0  0  0  0  0  0  0
  150.7199  131.8070  155.3713 O   0  0  0  0  0  0  0  0  0  0  0  0
  149.8707  132.9351  155.5229 C   0  0  2  0  0  0  0  0  0  0  0  0
  149.7058  133.7506  154.2368 C   0  0  0  0  0  0  0  0  0  0  0  0
  149.3474  135.1649  154.7238 C   0  0  1  0  0  0  0  0  0  0  0  0
  147.8254  135.3619  154.8406 C   0  0  0  0  0  0  0  0  0  0  0  0
  147.1534  135.5306  153.6996 N   0  0  0  0  0  0  0  0  0  0  0  0
  147.2616  135.3492  155.9337 O   0  0  0  0  0  0  0  0  0  0  0  0
  150.0120  135.2513  156.0267 N   0  0  0  0  0  0  0  0  0  0  0  0
  150.3547  136.4278  156.6207 C   0  0  0  0  0  0  0  0  0  0  0  0
  150.5853  136.4307  157.9609 N   0  0  0  0  0  0  0  0  0  0  0  0
  150.9297  137.5545  158.5938 C   0  0  0  0  0  0  0  0  0  0  0  0
  151.0981  138.7761  158.0888 N   0  0  0  0  0  0  0  0  0  0  0  0
  150.8697  138.7885  156.7450 C   0  0  0  0  0  0  0  0  0  0  0  0
  150.4970  137.6740  155.9377 C   0  0  0  0  0  0  0  0  0  0  0  0
  150.3576  138.0891  154.6169 N   0  0  0  0  0  0  0  0  0  0  0  0
  150.6389  139.3623  154.6413 C   0  0  0  0  0  0  0  0  0  0  0  0
  150.9642  139.8643  155.8793 N   0  0  0  0  0  0  0  0  0  0  0  0
  151.3277  141.2355  156.1970 C   0  0  0  0  0  0  0  0  0  0  0  0
  150.4107  141.9040  157.2460 C   0  0  2  0  0  0  0  0  0  0  0  0
  149.0758  141.9657  156.7811 O   0  0  0  0  0  0  0  0  0  0  0  0
  150.8788  143.2917  157.7425 C   0  0  2  0  0  0  0  0  0  0  0  0
  152.3695  143.4266  158.0449 C   0  0  0  0  0  0  0  0  0  0  0  0
  152.4051  144.7002  158.8671 C   0  0  0  0  0  0  0  0  0  0  0  0
  151.0328  144.7317  159.5498 C   0  0  0  0  0  0  0  0  0  0  0  0
  150.2637  143.6888  158.9591 O   0  0  0  0  0  0  0  0  0  0  0  0
  150.4866  133.9524  156.4843 C   0  0  0  0  0  0  0  0  0  0  0  0
  148.8924  132.6349  155.9035 H   0  0  0  0  0  0  0  0  0  0  0  0
  149.7588  135.8981  154.0276 H   0  0  0  0  0  0  0  0  0  0  0  0
  150.8143  129.9008  154.6042 H   0  0  0  0  0  0  0  0  0  0  0  0
  149.8839  131.0330  153.6278 H   0  0  0  0  0  0  0  0  0  0  0  0
  149.2096  130.3978  155.1392 H   0  0  0  0  0  0  0  0  0  0  0  0
  150.6551  133.7846  153.6999 H   0  0  0  0  0  0  0  0  0  0  0  0
  148.9646  133.3235  153.5599 H   0  0  0  0  0  0  0  0  0  0  0  0
  146.1519  135.6560  153.7180 H   0  0  0  0  0  0  0  0  0  0  0  0
  147.6505  135.5239  152.8207 H   0  0  0  0  0  0  0  0  0  0  0  0
  151.0953  137.4603  159.6567 H   0  0  0  0  0  0  0  0  0  0  0  0
  150.6230  139.9720  153.7499 H   0  0  0  0  0  0  0  0  0  0  0  0
  152.3618  141.2423  156.5436 H   0  0  0  0  0  0  0  0  0  0  0  0
  151.3150  141.8179  155.2750 H   0  0  0  0  0  0  0  0  0  0  0  0
  150.3893  141.2443  158.1140 H   0  0  0  0  0  0  0  0  0  0  0  0
  148.9174  142.8314  156.4378 H   0  0  0  0  0  0  0  0  0  0  0  0
  150.6109  144.0356  156.9897 H   0  0  0  0  0  0  0  0  0  0  0  0
  152.7248  142.5912  158.6490 H   0  0  0  0  0  0  0  0  0  0  0  0
  152.9828  143.4832  157.1453 H   0  0  0  0  0  0  0  0  0  0  0  0
  153.2303  144.7135  159.5795 H   0  0  0  0  0  0  0  0  0  0  0  0
  152.5128  145.5650  158.2112 H   0  0  0  0  0  0  0  0  0  0  0  0
  151.1104  144.5608  160.6236 H   0  0  0  0  0  0  0  0  0  0  0  0
  150.5407  145.6925  159.3943 H   0  0  0  0  0  0  0  0  0  0  0  0
  150.1866  133.7451  157.5118 H   0  0  0  0  0  0  0  0  0  0  0  0
  151.5760  133.9307  156.4257 H   0  0  0  0  0  0  0  0  0  0  0  0
  1  2  1  0  0  0  0
  1 30  1  0  0  0  0
  1 31  1  0  0  0  0
  1 32  1  0  0  0  0
  2  3  1  0  0  0  0
  3 28  1  0  0  0  0
  3 27  1  0  0  0  0
  3  4  1  0  0  0  0
  4  5  1  0  0  0  0
  4 33  1  0  0  0  0
  4 34  1  0  0  0  0
  5 29  1  0  0  0  0
  5  6  1  0  0  0  0
  5  9  1  0  0  0  0
  6  7  1  0  0  0  0
  6  8  2  0  0  0  0
  7 35  1  0  0  0  0
  7 36  1  0  0  0  0
  9 10  1  0  0  0  0
  9 27  1  0  0  0  0
 10 15  1  0  0  0  0
 10 11  2  0  0  0  0
 11 12  1  0  0  0  0
 12 13  2  0  0  0  0
 12 37  1  0  0  0  0
 13 14  1  0  0  0  0
 14 18  1  0  0  0  0
 14 15  2  0  0  0  0
 15 16  1  0  0  0  0
 16 17  2  0  0  0  0
 17 18  1  0  0  0  0
 17 38  1  0  0  0  0
 18 19  1  0  0  0  0
 19 20  1  0  0  0  0
 19 39  1  0  0  0  0
 19 40  1  0  0  0  0
 20 21  1  0  0  0  0
 20 22  1  0  0  0  0
 20 41  1  0  0  0  0
 21 42  1  0  0  0  0
 22 26  1  0  0  0  0
 22 23  1  0  0  0  0
 22 43  1  0  0  0  0
 23 24  1  0  0  0  0
 23 44  1  0  0  0  0
 23 45  1  0  0  0  0
 24 25  1  0  0  0  0
 24 46  1  0  0  0  0
 24 47  1  0  0  0  0
 25 26  1  0  0  0  0
 25 48  1  0  0  0  0
 25 49  1  0  0  0  0
 27 50  1  0  0  0  0
 27 51  1  0  0  0  0
M  END
> <s_m_source_file>
AV-unprocessed.smi

> <i_m_source_file_index>
261

> <i_lp_mmshare_version>
43012

> <i_f3d_flags>
0

> <s_epik_input>
W0NIM11PW0NASF0xW0NIMl1bQ0BASF0oQyg9TylbTkgyXSlOKFtDSDJdMSljKG5bY0hdbjIpYyhjMjMpbltjSF1uM1tDSDJdW0NASF0oW09IXSlbQ0BASF00W0NIMl1bQ0gyXVtDSDJdTzQ=

> <s_epik_cmdline>
J2VwaWtfcHl0aG9uJywgJy1waCcsICc3LjAnLCAnLXRuJywgJzgnLCAnLW1hJywgJzIwMCcsICctbWV0YWxfYmluZGluZycsICctaW1hZScsICc8aW5maWxlLm1hZT4nLCAnLW9tYWUnLCAnPG91dGZpbGUubWFlPic=

> <r_lp_tautomer_probability>
1

> <r_epik_Ionization_Penalty>
0.000713824

> <r_epik_Ionization_Penalty_Charging>
0

> <r_epik_Ionization_Penalty_Neutral>
0.000713824

> <r_epik_State_Penalty>
0.000402132

> <r_epik_Charging_Adjusted_Penalty>
0.000402132

> <i_epik_Tot_Q>
0

> <i_epik_Tot_abs_Q>
0

> <r_epik_Metal_State_Penalty>
-0

> <b_epik_Metal_Only>
0

> <s_lp_Force_Field>
OPLS_2005

> <r_lp_Energy>
44.2831

> <b_lp_Chiralities_Consistent>
1

> <s_lp_Variant>
AV-unprocessed.smi:261-2

> <Gold.Version>
5.8.1

> <Gold.Id.Protein>
6NUR|6NUR_protein|mol2

> <Gold.PLP.Fitness>
45.6649

> <Gold.PLP.PLP>
-39.6443

> <Gold.PLP.part.hbond>
-2.5759

> <Gold.PLP.part.metal>
0.0000

> <Gold.PLP.part.buried>
-4.3441

> <Gold.PLP.part.nonpolar>
-32.8433

> <Gold.PLP.part.repulsive>
0.3494

> <Gold.PLP.ligand.clash>
0.0000

> <Gold.PLP.ligand.torsion>
0.9074

> <Gold.PLP.Chemscore.Hbond>
2.1349

> <Gold.PLP.Chemscore.CHOScore>
0.4200

> <Gold.PLP.Chemscore.Metal>
0.0000

> <Gold.Chemscore.Hbonds>
donor molecule, donor type, donor heavy atom, donor atom, acceptor molecule, acceptor atom, score
      L1  H     7    36       P1  7948  0.96
      L1  H    21    42       P1  8028  0.98
      P1  H  6896  6909       L1    11  0.18
      L1  C    17    38       P1  7957  0.40

> <Gold.PLP.Chemscore.Internal.Correction>
0.1705

> <Gold.Rescore>
     Score         DG    S(hbond)    S(metal)    S(lipo)     H(rot)  DE(clash)    DE(int)     intcor
     14.63     -15.71       2.47        0.00      86.71       3.18       0.14       0.95       ----

> <Gold.Chemscore.Fitness>
14.6269

> <Gold.Chemscore.DG>
-15.7148

> <Gold.Chemscore.ZeroCoef>
-5.4800

> <Gold.Chemscore.Hbond>
2.4664

> <Gold.Chemscore.Metal>
0.0000

> <Gold.Chemscore.Lipo>
86.7136

> <Gold.Chemscore.Internal_Hbond>
0.0000

> <Gold.Chemscore.DEClash>
0.1381

> <Gold.Chemscore.DEInternal>
0.9498

> <Gold.Chemscore.Rot>
3.1831

> <Gold.Chemscore.Internal.Correction>
   9.000000E+99

> <Gold.Chemscore.Hbonds>
donor molecule, donor type, donor heavy atom, donor atom, acceptor molecule, acceptor atom, score
      L1  H     7    36       P1  7948  0.92
      L1  H    21    42       P1  8028  0.92
      P1  H  6896  6909       L1    11  0.05

> <Gold.Chemscore.Hbond.Weighted>
-8.2379

> <Gold.Chemscore.Metal.Weighted>
-0.0000

> <Gold.Chemscore.Lipo.Weighted>
-10.1455

> <Gold.Chemscore.Internal_Hbond.Weighted>
0.0000

> <Gold.Chemscore.DEClash.Weighted>
0.1381

> <Gold.Chemscore.DEInternal.Weighted>
0.9498

> <Gold.Chemscore.Rot.Weighted>
8.1486

> <Gold.Chemscore.Internal.Correction.Weighted>
   9.000000E+99

> <Gold.Protein.RotatedTorsions>
[ 6907 6896 6895 6894 ] final   72.79 input  -60.11 | X-H torsion
[ 7974 7965 7964 7962 ] final -171.38 input  175.53 | X-H torsion
[ 8008 7997 7996 7995 ] final  -49.34 input   59.86 | X-H torsion
[ 10167 10162 10161 10158 ] final   71.18 input  -65.29 | X-H torsion
[ 10718 10713 10712 10709 ] final   34.04 input   66.30 | X-H torsion
[ 10763 10752 10751 10750 ] final  -76.25 input  -60.55 | X-H torsion
[ 11005 11000 10999 10996 ] final   88.56 input  -57.11 | X-H torsion

> <Gold.Protein.ActiveResidues>
 VAL166  LYS551  ARG553  GLY616  TRP617  ASP618  TYR619  PRO620  LYS621  CYS622 
 ASP623  PHE694  ASN695  SER759  ASP760  ASP761  ALA762  ILE779  LEU786  VAL792 
 PHE793  MET794  SER795  GLU796  ALA797  LYS798  CYS799  TRP800  GLU811  SER814 

> <Gold.Protein.RotatedAtoms>
  152.4887  134.4519  159.9576 H   0  0  0  0  0  0  0  0  0  0  0  0  # atno 6907 bound_to 6896
  151.4510  133.3611  159.2803 H   0  0  0  0  0  0  0  0  0  0  0  0  # atno 6908 bound_to 6896
  150.9022  134.8459  159.7428 H   0  0  0  0  0  0  0  0  0  0  0  0  # atno 6909 bound_to 6896
  144.7158  140.1931  143.6346 H   0  0  0  0  0  0  0  0  0  0  0  0  # atno 7974 bound_to 7965
  154.4042  140.1299  156.4486 H   0  0  0  0  0  0  0  0  0  0  0  0  # atno 8008 bound_to 7997
  155.7388  140.3490  155.5074 H   0  0  0  0  0  0  0  0  0  0  0  0  # atno 8009 bound_to 7997
  155.9058  140.1027  157.1306 H   0  0  0  0  0  0  0  0  0  0  0  0  # atno 8010 bound_to 7997
  140.0489  144.5328  150.7378 H   0  0  0  0  0  0  0  0  0  0  0  0  # atno 10167 bound_to 10162
  157.3054  130.7372  149.6692 H   0  0  0  0  0  0  0  0  0  0  0  0  # atno 10718 bound_to 10713
  154.4974  135.5804  153.6505 H   0  0  0  0  0  0  0  0  0  0  0  0  # atno 10763 bound_to 10752
  152.9872  135.6127  154.3047 H   0  0  0  0  0  0  0  0  0  0  0  0  # atno 10764 bound_to 10752
  154.2951  135.2848  155.2616 H   0  0  0  0  0  0  0  0  0  0  0  0  # atno 10765 bound_to 10752
  139.8894  134.8495  156.3017 H   0  0  0  0  0  0  0  0  0  0  0  0  # atno 11005 bound_to 11000
  145.8750  139.2292  143.1639 LP  0  0  0  0  0  0  0  0  0  0  0  0  # atno 17320 bound_to 7965
  146.0049  140.8487  143.0000 LP  0  0  0  0  0  0  0  0  0  0  0  0  # atno 17321 bound_to 7965
  140.7226  143.2603  151.4228 LP  0  0  0  0  0  0  0  0  0  0  0  0  # atno 17342 bound_to 10162
  139.5966  144.1385  152.2150 LP  0  0  0  0  0  0  0  0  0  0  0  0  # atno 17343 bound_to 10162
  155.9674  130.4267  150.4712 LP  0  0  0  0  0  0  0  0  0  0  0  0  # atno 17370 bound_to 10713
  157.2701  131.0585  151.2265 LP  0  0  0  0  0  0  0  0  0  0  0  0  # atno 17371 bound_to 10713
  140.9909  133.7209  156.0812 LP  0  0  0  0  0  0  0  0  0  0  0  0  # atno 17394 bound_to 11000
  140.7627  134.3921  157.5523 LP  0  0  0  0  0  0  0  0  0  0  0  0  # atno 17395 bound_to 11000

$$$$
