AV-unprocessed.smi:3263|AV-procd|sdf|12488|dock2
  -GOLD-   2272018383D 1   1.00000     0.00000
 Structure written by MMmdl.
 41 43  0  0  0  0  0  0  0  0  1 V2000
  147.7159  143.4590  159.9143 O   0  0  0  0  0  0  0  0  0  0  0  0
  148.3491  143.2478  158.8798 C   0  0  0  0  0  0  0  0  0  0  0  0
  147.8256  142.2508  157.8405 C   0  0  0  0  0  0  0  0  0  0  0  0
  148.8731  141.8751  156.7681 C   0  0  2  0  0  0  0  0  0  0  0  0
  148.2704  141.2793  155.4723 C   0  0  0  0  0  0  0  0  0  0  0  0
  149.0094  139.9368  155.3280 C   0  0  1  0  0  0  0  0  0  0  0  0
  150.4857  140.1951  154.9742 C   0  0  0  0  0  0  0  0  0  0  0  0
  151.0623  140.7316  156.2979 C   0  0  0  0  0  0  0  0  0  0  0  0
  149.8297  140.7484  157.2227 C   0  0  2  0  0  0  0  0  0  0  0  0
  149.1042  139.4816  156.7782 C   0  0  0  0  0  0  0  0  0  0  0  0
  149.5083  143.8575  158.5888 N   0  0  0  0  0  0  0  0  0  0  0  0
  150.1793  144.8318  159.4409 C   0  0  0  0  0  0  0  0  0  0  0  0
  151.7061  144.7796  159.2665 C   0  0  0  0  0  0  0  0  0  0  0  0
  152.3511  143.7509  160.1756 C   0  0  0  0  0  0  0  0  0  0  0  0
  152.1821  143.8186  161.5751 C   0  0  0  0  0  0  0  0  0  0  0  0
  152.7957  142.8338  162.3733 C   0  0  0  0  0  0  0  0  0  0  0  0
  153.5490  141.8235  161.7448 C   0  0  0  0  0  0  0  0  0  0  0  0
  153.6567  141.8439  160.3399 C   0  0  0  0  0  0  0  0  0  0  0  0
  153.0732  142.7837  159.5653 N   0  0  0  0  0  0  0  0  0  0  0  0
  147.5115  141.3522  158.3723 H   0  0  0  0  0  0  0  0  0  0  0  0
  146.9296  142.6538  157.3665 H   0  0  0  0  0  0  0  0  0  0  0  0
  149.4571  142.7662  156.5307 H   0  0  0  0  0  0  0  0  0  0  0  0
  147.1983  141.1052  155.5736 H   0  0  0  0  0  0  0  0  0  0  0  0
  148.4184  141.9301  154.6098 H   0  0  0  0  0  0  0  0  0  0  0  0
  148.5139  139.2355  154.6561 H   0  0  0  0  0  0  0  0  0  0  0  0
  150.9858  139.2697  154.6855 H   0  0  0  0  0  0  0  0  0  0  0  0
  150.5949  140.9059  154.1542 H   0  0  0  0  0  0  0  0  0  0  0  0
  151.8253  140.0546  156.6842 H   0  0  0  0  0  0  0  0  0  0  0  0
  151.5180  141.7163  156.1870 H   0  0  0  0  0  0  0  0  0  0  0  0
  150.0871  140.7846  158.2817 H   0  0  0  0  0  0  0  0  0  0  0  0
  148.1319  139.3422  157.2531 H   0  0  0  0  0  0  0  0  0  0  0  0
  149.6969  138.5744  156.9090 H   0  0  0  0  0  0  0  0  0  0  0  0
  149.9607  143.6271  157.7160 H   0  0  0  0  0  0  0  0  0  0  0  0
  149.8044  145.8352  159.2316 H   0  0  0  0  0  0  0  0  0  0  0  0
  149.9147  144.6115  160.4754 H   0  0  0  0  0  0  0  0  0  0  0  0
  151.9569  144.5427  158.2314 H   0  0  0  0  0  0  0  0  0  0  0  0
  152.1431  145.7581  159.4707 H   0  0  0  0  0  0  0  0  0  0  0  0
  151.5953  144.6045  162.0279 H   0  0  0  0  0  0  0  0  0  0  0  0
  152.6895  142.8528  163.4480 H   0  0  0  0  0  0  0  0  0  0  0  0
  154.0323  141.0517  162.3252 H   0  0  0  0  0  0  0  0  0  0  0  0
  154.2261  141.0847  159.8244 H   0  0  0  0  0  0  0  0  0  0  0  0
  1  2  2  0  0  0  0
  2  3  1  0  0  0  0
  2 11  1  0  0  0  0
  3  4  1  0  0  0  0
  3 20  1  0  0  0  0
  3 21  1  0  0  0  0
  4  9  1  0  0  0  0
  4  5  1  0  0  0  0
  4 22  1  0  0  0  0
  5  6  1  0  0  0  0
  5 23  1  0  0  0  0
  5 24  1  0  0  0  0
  6 10  1  0  0  0  0
  6  7  1  0  0  0  0
  6 25  1  0  0  0  0
  7  8  1  0  0  0  0
  7 26  1  0  0  0  0
  7 27  1  0  0  0  0
  8  9  1  0  0  0  0
  8 28  1  0  0  0  0
  8 29  1  0  0  0  0
  9 10  1  0  0  0  0
  9 30  1  0  0  0  0
 10 31  1  0  0  0  0
 10 32  1  0  0  0  0
 11 12  1  0  0  0  0
 11 33  1  0  0  0  0
 12 13  1  0  0  0  0
 12 34  1  0  0  0  0
 12 35  1  0  0  0  0
 13 14  1  0  0  0  0
 13 36  1  0  0  0  0
 13 37  1  0  0  0  0
 14 19  1  0  0  0  0
 14 15  2  0  0  0  0
 15 16  1  0  0  0  0
 15 38  1  0  0  0  0
 16 17  2  0  0  0  0
 16 39  1  0  0  0  0
 17 18  1  0  0  0  0
 17 40  1  0  0  0  0
 18 19  2  0  0  0  0
 18 41  1  0  0  0  0
M  END
> <s_m_source_file>
AV-unprocessed.smi

> <i_m_source_file_index>
3263

> <i_lp_mmshare_version>
43012

> <i_f3d_flags>
0

> <s_epik_input>
W0NIMl0xW0NIMl1bQ0BASF0oW0NIMl0yKVtDQEBIXShbQ0gyXVtDQEhdMTIpW0NIMl1DKD1PKVtOSF1bQ0gyXVtDSDJdYzNbY0hdW2NIXVtjSF1bY0hdbjM=

> <s_epik_cmdline>
J2VwaWtfcHl0aG9uJywgJy1waCcsICc3LjAnLCAnLXRuJywgJzgnLCAnLW1hJywgJzIwMCcsICctbWV0YWxfYmluZGluZycsICctaW1hZScsICc8aW5maWxlLm1hZT4nLCAnLW9tYWUnLCAnPG91dGZpbGUubWFlPic=

> <r_epik_Ionization_Penalty>
0.0273541

> <r_epik_Ionization_Penalty_Charging>
0

> <r_epik_Ionization_Penalty_Neutral>
0.0273541

> <r_epik_State_Penalty>
0.0223838

> <r_epik_Charging_Adjusted_Penalty>
0.0223838

> <i_epik_Tot_Q>
0

> <i_epik_Tot_abs_Q>
0

> <r_epik_Metal_State_Penalty>
0.0213927

> <b_epik_Metal_Only>
0

> <s_lp_Force_Field>
OPLS_2005

> <r_lp_Energy>
45.3245

> <b_lp_Chiralities_Consistent>
1

> <s_lp_Variant>
AV-unprocessed.smi:3263-3

> <Gold.Version>
5.8.1

> <Gold.Id.Protein>
6NUR|6NUR_protein|mol2

> <Gold.PLP.Fitness>
43.1255

> <Gold.PLP.PLP>
-41.4904

> <Gold.PLP.part.hbond>
-2.8077

> <Gold.PLP.part.metal>
0.0000

> <Gold.PLP.part.buried>
-3.8399

> <Gold.PLP.part.nonpolar>
-35.9759

> <Gold.PLP.part.repulsive>
0.1595

> <Gold.PLP.ligand.clash>
0.0000

> <Gold.PLP.ligand.torsion>
0.7083

> <Gold.PLP.Chemscore.Hbond>
0.9920

> <Gold.PLP.Chemscore.CHOScore>
0.0000

> <Gold.PLP.Chemscore.Metal>
0.0000

> <Gold.Chemscore.Hbonds>
donor molecule, donor type, donor heavy atom, donor atom, acceptor molecule, acceptor atom, score
      P1  H  6933  6944       L1     1  0.99

> <Gold.PLP.Chemscore.Internal.Correction>
0.0756

> <Gold.Rescore>
     Score         DG    S(hbond)    S(metal)    S(lipo)     H(rot)  DE(clash)    DE(int)     intcor
     16.70     -17.63       0.87        0.00     110.96       1.46       0.15       0.77       ----

> <Gold.Chemscore.Fitness>
16.7011

> <Gold.Chemscore.DG>
-17.6266

> <Gold.Chemscore.ZeroCoef>
-5.4800

> <Gold.Chemscore.Hbond>
0.8655

> <Gold.Chemscore.Metal>
0.0000

> <Gold.Chemscore.Lipo>
110.9552

> <Gold.Chemscore.Internal_Hbond>
0.0000

> <Gold.Chemscore.DEClash>
0.1513

> <Gold.Chemscore.DEInternal>
0.7742

> <Gold.Chemscore.Rot>
1.4555

> <Gold.Chemscore.Internal.Correction>
   9.000000E+99

> <Gold.Chemscore.Hbonds>
donor molecule, donor type, donor heavy atom, donor atom, acceptor molecule, acceptor atom, score
      P1  H  6933  6944       L1     1  0.61

> <Gold.Chemscore.Hbond.Weighted>
-2.8909

> <Gold.Chemscore.Metal.Weighted>
-0.0000

> <Gold.Chemscore.Lipo.Weighted>
-12.9818

> <Gold.Chemscore.Internal_Hbond.Weighted>
0.0000

> <Gold.Chemscore.DEClash.Weighted>
0.1513

> <Gold.Chemscore.DEInternal.Weighted>
0.7742

> <Gold.Chemscore.Rot.Weighted>
3.7260

> <Gold.Chemscore.Internal.Correction.Weighted>
   9.000000E+99

> <Gold.Protein.RotatedTorsions>
[ 6907 6896 6895 6894 ] final -100.86 input  -60.11 | X-H torsion
[ 7974 7965 7964 7962 ] final -163.77 input  175.53 | X-H torsion
[ 8008 7997 7996 7995 ] final   73.18 input   59.86 | X-H torsion
[ 10167 10162 10161 10158 ] final   46.10 input  -65.29 | X-H torsion
[ 10718 10713 10712 10709 ] final   58.22 input   66.30 | X-H torsion
[ 10763 10752 10751 10750 ] final -154.10 input  -60.55 | X-H torsion
[ 11005 11000 10999 10996 ] final -129.98 input  -57.11 | X-H torsion

> <Gold.Protein.ActiveResidues>
 VAL166  LYS551  ARG553  GLY616  TRP617  ASP618  TYR619  PRO620  LYS621  CYS622 
 ASP623  PHE694  ASN695  SER759  ASP760  ASP761  ALA762  ILE779  LEU786  VAL792 
 PHE793  MET794  SER795  GLU796  ALA797  LYS798  CYS799  TRP800  GLU811  SER814 

> <Gold.Protein.RotatedAtoms>
  150.7132  134.0823  159.3902 H   0  0  0  0  0  0  0  0  0  0  0  0  # atno 6907 bound_to 6896
  151.8807  135.0452  160.0498 H   0  0  0  0  0  0  0  0  0  0  0  0  # atno 6908 bound_to 6896
  152.2570  133.5228  159.5395 H   0  0  0  0  0  0  0  0  0  0  0  0  # atno 6909 bound_to 6896
  144.7316  140.3058  143.6196 H   0  0  0  0  0  0  0  0  0  0  0  0  # atno 7974 bound_to 7965
  155.7798  140.3482  155.5291 H   0  0  0  0  0  0  0  0  0  0  0  0  # atno 8008 bound_to 7997
  155.8739  140.0991  157.1552 H   0  0  0  0  0  0  0  0  0  0  0  0  # atno 8009 bound_to 7997
  154.4019  140.1335  156.4100 H   0  0  0  0  0  0  0  0  0  0  0  0  # atno 8010 bound_to 7997
  140.3173  144.2748  150.6189 H   0  0  0  0  0  0  0  0  0  0  0  0  # atno 10167 bound_to 10162
  157.5579  130.8813  149.9064 H   0  0  0  0  0  0  0  0  0  0  0  0  # atno 10718 bound_to 10713
  154.7882  135.3197  154.7838 H   0  0  0  0  0  0  0  0  0  0  0  0  # atno 10763 bound_to 10752
  153.8533  135.6860  153.4794 H   0  0  0  0  0  0  0  0  0  0  0  0  # atno 10764 bound_to 10752
  153.1541  135.4687  154.9619 H   0  0  0  0  0  0  0  0  0  0  0  0  # atno 10765 bound_to 10752
  140.9385  134.1224  157.4172 H   0  0  0  0  0  0  0  0  0  0  0  0  # atno 11005 bound_to 11000
  145.7714  139.1859  143.2210 LP  0  0  0  0  0  0  0  0  0  0  0  0  # atno 17320 bound_to 7965
  146.0907  140.7659  142.9596 LP  0  0  0  0  0  0  0  0  0  0  0  0  # atno 17321 bound_to 7965
  140.5515  143.2206  151.7920 LP  0  0  0  0  0  0  0  0  0  0  0  0  # atno 17342 bound_to 10162
  139.4881  144.4470  151.9698 LP  0  0  0  0  0  0  0  0  0  0  0  0  # atno 17343 bound_to 10162
  156.0635  130.3696  150.0929 LP  0  0  0  0  0  0  0  0  0  0  0  0  # atno 17370 bound_to 10713
  156.9096  130.9647  151.3565 LP  0  0  0  0  0  0  0  0  0  0  0  0  # atno 17371 bound_to 10713
  139.8814  135.0029  156.6153 LP  0  0  0  0  0  0  0  0  0  0  0  0  # atno 17394 bound_to 11000
  140.7766  133.8694  155.8534 LP  0  0  0  0  0  0  0  0  0  0  0  0  # atno 17395 bound_to 11000

$$$$
