AV-unprocessed.smi:1669|AV-procd|sdf|6684|dock6
  -GOLD-   22720 7403D 1   1.00000     0.00000
 Structure written by MMmdl.
 48 50  0  0  0  0  0  0  0  0  2 V2000
  147.4284  136.7550  158.8697 C   0  0  0  0  0  0  0  0  0  0  0  0
  148.6856  136.4182  159.5838 N   0  3  2  0  0  0  0  0  0  0  0  0
  148.5879  136.6258  161.0516 C   0  0  0  0  0  0  0  0  0  0  0  0
  147.3942  135.9125  161.6635 C   0  0  0  0  0  0  0  0  0  0  0  0
  146.2420  136.6392  162.0325 C   0  0  0  0  0  0  0  0  0  0  0  0
  145.1354  135.9736  162.5948 C   0  0  0  0  0  0  0  0  0  0  0  0
  145.1773  134.5800  162.7927 C   0  0  0  0  0  0  0  0  0  0  0  0
  146.3267  133.8520  162.4293 C   0  0  0  0  0  0  0  0  0  0  0  0
  147.4339  134.5169  161.8671 C   0  0  0  0  0  0  0  0  0  0  0  0
  149.8698  137.0992  158.9998 C   0  0  0  0  0  0  0  0  0  0  0  0
  150.1803  136.6125  157.5669 C   0  0  2  0  0  0  0  0  0  0  0  0
  150.2995  135.2048  157.5852 O   0  0  0  0  0  0  0  0  0  0  0  0
  151.4854  137.1914  156.9836 C   0  0  0  0  0  0  0  0  0  0  0  0
  151.3542  138.5932  156.6089 N   0  0  0  0  0  0  0  0  0  0  0  0
  151.0524  139.1200  155.3941 C   0  0  0  0  0  0  0  0  0  0  0  0
  150.7895  138.2470  154.1993 C   0  0  0  0  0  0  0  0  0  0  0  0
  151.8706  137.4050  153.8545 O   0  0  0  0  0  0  0  0  0  0  0  0
  151.0058  140.4532  155.3416 N   0  0  0  0  0  0  0  0  0  0  0  0
  151.2966  140.8239  156.6390 C   0  0  0  0  0  0  0  0  0  0  0  0
  151.4015  142.1044  157.2274 C   0  0  0  0  0  0  0  0  0  0  0  0
  151.7141  142.2374  158.5961 C   0  0  0  0  0  0  0  0  0  0  0  0
  151.9254  141.0944  159.3942 C   0  0  0  0  0  0  0  0  0  0  0  0
  151.8264  139.8092  158.8273 C   0  0  0  0  0  0  0  0  0  0  0  0
  151.5160  139.6824  157.4600 C   0  0  0  0  0  0  0  0  0  0  0  0
  147.1620  137.8011  159.0249 H   0  0  0  0  0  0  0  0  0  0  0  0
  146.5994  136.1384  159.2161 H   0  0  0  0  0  0  0  0  0  0  0  0
  147.5175  136.5873  157.7973 H   0  0  0  0  0  0  0  0  0  0  0  0
  149.4835  136.2409  161.5416 H   0  0  0  0  0  0  0  0  0  0  0  0
  148.5460  137.6935  161.2734 H   0  0  0  0  0  0  0  0  0  0  0  0
  146.2010  137.7084  161.8824 H   0  0  0  0  0  0  0  0  0  0  0  0
  144.2541  136.5319  162.8744 H   0  0  0  0  0  0  0  0  0  0  0  0
  144.3281  134.0699  163.2236 H   0  0  0  0  0  0  0  0  0  0  0  0
  146.3585  132.7832  162.5822 H   0  0  0  0  0  0  0  0  0  0  0  0
  148.3121  133.9519  161.5905 H   0  0  0  0  0  0  0  0  0  0  0  0
  149.6950  138.1754  159.0258 H   0  0  0  0  0  0  0  0  0  0  0  0
  150.7524  136.9246  159.6168 H   0  0  0  0  0  0  0  0  0  0  0  0
  149.3623  136.8663  156.8942 H   0  0  0  0  0  0  0  0  0  0  0  0
  151.0290  134.9554  157.0377 H   0  0  0  0  0  0  0  0  0  0  0  0
  152.3061  137.0738  157.6909 H   0  0  0  0  0  0  0  0  0  0  0  0
  151.7758  136.6333  156.0921 H   0  0  0  0  0  0  0  0  0  0  0  0
  149.9226  137.6155  154.3928 H   0  0  0  0  0  0  0  0  0  0  0  0
  150.5506  138.8805  153.3447 H   0  0  0  0  0  0  0  0  0  0  0  0
  151.8273  137.2214  152.9287 H   0  0  0  0  0  0  0  0  0  0  0  0
  151.2402  142.9860  156.6248 H   0  0  0  0  0  0  0  0  0  0  0  0
  151.7903  143.2212  159.0357 H   0  0  0  0  0  0  0  0  0  0  0  0
  152.1627  141.2055  160.4423 H   0  0  0  0  0  0  0  0  0  0  0  0
  151.9860  138.9332  159.4380 H   0  0  0  0  0  0  0  0  0  0  0  0
  148.8452  135.4290  159.4551 H   0  0  0  0  0  0  0  0  0  0  0  0
  1  2  1  0  0  0  0
  1 25  1  0  0  0  0
  1 26  1  0  0  0  0
  1 27  1  0  0  0  0
  2  3  1  0  0  0  0
  2 10  1  0  0  0  0
  2 48  1  0  0  0  0
  3  4  1  0  0  0  0
  3 28  1  0  0  0  0
  3 29  1  0  0  0  0
  4  9  1  0  0  0  0
  4  5  2  0  0  0  0
  5  6  1  0  0  0  0
  5 30  1  0  0  0  0
  6  7  2  0  0  0  0
  6 31  1  0  0  0  0
  7  8  1  0  0  0  0
  7 32  1  0  0  0  0
  8  9  2  0  0  0  0
  8 33  1  0  0  0  0
  9 34  1  0  0  0  0
 10 11  1  0  0  0  0
 10 35  1  0  0  0  0
 10 36  1  0  0  0  0
 11 12  1  0  0  0  0
 11 13  1  0  0  0  0
 11 37  1  0  0  0  0
 12 38  1  0  0  0  0
 13 14  1  0  0  0  0
 13 39  1  0  0  0  0
 13 40  1  0  0  0  0
 14 24  1  0  0  0  0
 14 15  1  0  0  0  0
 15 16  1  0  0  0  0
 15 18  2  0  0  0  0
 16 17  1  0  0  0  0
 16 41  1  0  0  0  0
 16 42  1  0  0  0  0
 17 43  1  0  0  0  0
 18 19  1  0  0  0  0
 19 24  2  0  0  0  0
 19 20  1  0  0  0  0
 20 21  2  0  0  0  0
 20 44  1  0  0  0  0
 21 22  1  0  0  0  0
 21 45  1  0  0  0  0
 22 23  2  0  0  0  0
 22 46  1  0  0  0  0
 23 24  1  0  0  0  0
 23 47  1  0  0  0  0
M  CHG  1   2   1
M  END
> <s_m_source_file>
AV-unprocessed.smi

> <i_m_source_file_index>
1669

> <i_lp_mmshare_version>
43012

> <i_f3d_flags>
0

> <s_epik_input>
W2NIXTFbY0hdW2NIXVtjSF1bY0hdYzFbQ0gyXU4oW0NIM10pW0NIMl1bQ0BIXShbT0hdKVtDSDJdbihjKG4yKVtDSDJdW09IXSljKGMyMylbY0hdW2NIXVtjSF1bY0hdMw==

> <s_epik_cmdline>
J2VwaWtfcHl0aG9uJywgJy1waCcsICc3LjAnLCAnLXRuJywgJzgnLCAnLW1hJywgJzIwMCcsICctbWV0YWxfYmluZGluZycsICctaW1hZScsICc8aW5maWxlLm1hZT4nLCAnLW9tYWUnLCAnPG91dGZpbGUubWFlPic=

> <r_epik_Ionization_Penalty>
0.0949884

> <r_epik_Ionization_Penalty_Charging>
0.0475377

> <r_epik_Ionization_Penalty_Neutral>
0.0474507

> <r_epik_State_Penalty>
0.078247

> <r_epik_Charging_Adjusted_Penalty>
0.125785

> <i_epik_Tot_Q>
1

> <i_epik_Tot_abs_Q>
1

> <r_epik_Metal_State_Penalty>
0.0403451

> <b_epik_Metal_Only>
0

> <s_lp_Force_Field>
OPLS_2005

> <r_lp_Energy>
17.3617

> <b_lp_Chiralities_Consistent>
1

> <s_lp_Variant>
AV-unprocessed.smi:1669-2

> <Gold.Version>
5.8.1

> <Gold.Id.Protein>
6NUR|6NUR_protein|mol2

> <Gold.PLP.Fitness>
51.5303

> <Gold.PLP.PLP>
-42.5155

> <Gold.PLP.part.hbond>
-4.0000

> <Gold.PLP.part.metal>
0.0000

> <Gold.PLP.part.buried>
-5.4787

> <Gold.PLP.part.nonpolar>
-33.5711

> <Gold.PLP.part.repulsive>
0.2291

> <Gold.PLP.ligand.clash>
0.0000

> <Gold.PLP.ligand.torsion>
0.7501

> <Gold.PLP.Chemscore.Hbond>
3.3744

> <Gold.PLP.Chemscore.CHOScore>
0.0000

> <Gold.PLP.Chemscore.Metal>
0.0000

> <Gold.Chemscore.Hbonds>
donor molecule, donor type, donor heavy atom, donor atom, acceptor molecule, acceptor atom, score
      L1  H    17    43       P1  7949  0.94
      P1  H  6896  6908       L1    12  0.62
      P1  H  7989  7998       L1    18  0.98
      P1  H 10752 10765       L1    17  0.52

> <Gold.PLP.Chemscore.Internal.Correction>
0.3917

> <Gold.Rescore>
     Score         DG    S(hbond)    S(metal)    S(lipo)     H(rot)  DE(clash)    DE(int)     intcor
     16.43     -18.60       2.23        0.00     117.89       3.17       1.35       0.82       ----

> <Gold.Chemscore.Fitness>
16.4280

> <Gold.Chemscore.DG>
-18.5992

> <Gold.Chemscore.ZeroCoef>
-5.4800

> <Gold.Chemscore.Hbond>
2.2302

> <Gold.Chemscore.Metal>
0.0000

> <Gold.Chemscore.Lipo>
117.8926

> <Gold.Chemscore.Internal_Hbond>
0.0000

> <Gold.Chemscore.DEClash>
1.3527

> <Gold.Chemscore.DEInternal>
0.8185

> <Gold.Chemscore.Rot>
3.1731

> <Gold.Chemscore.Internal.Correction>
   9.000000E+99

> <Gold.Chemscore.Hbonds>
donor molecule, donor type, donor heavy atom, donor atom, acceptor molecule, acceptor atom, score
      L1  H    17    43       P1  7949  0.87
      P1  H  6896  6908       L1    12  0.30
      P1  H  7989  7998       L1    18  0.41
      P1  H 10752 10765       L1    17  0.08

> <Gold.Chemscore.Hbond.Weighted>
-7.4488

> <Gold.Chemscore.Metal.Weighted>
-0.0000

> <Gold.Chemscore.Lipo.Weighted>
-13.7934

> <Gold.Chemscore.Internal_Hbond.Weighted>
0.0000

> <Gold.Chemscore.DEClash.Weighted>
1.3527

> <Gold.Chemscore.DEInternal.Weighted>
0.8185

> <Gold.Chemscore.Rot.Weighted>
8.1230

> <Gold.Chemscore.Internal.Correction.Weighted>
   9.000000E+99

> <Gold.Protein.RotatedTorsions>
[ 6907 6896 6895 6894 ] final  155.37 input  -60.11 | X-H torsion
[ 7974 7965 7964 7962 ] final  -70.50 input  175.53 | X-H torsion
[ 8008 7997 7996 7995 ] final   72.04 input   59.86 | X-H torsion
[ 10167 10162 10161 10158 ] final  143.05 input  -65.29 | X-H torsion
[ 10718 10713 10712 10709 ] final -156.83 input   66.30 | X-H torsion
[ 10763 10752 10751 10750 ] final  169.56 input  -60.55 | X-H torsion
[ 11005 11000 10999 10996 ] final  144.95 input  -57.11 | X-H torsion

> <Gold.Protein.ActiveResidues>
 VAL166  LYS551  ARG553  GLY616  TRP617  ASP618  TYR619  PRO620  LYS621  CYS622 
 ASP623  PHE694  ASN695  SER759  ASP760  ASP761  ALA762  ILE779  LEU786  VAL792 
 PHE793  MET794  SER795  GLU796  ALA797  LYS798  CYS799  TRP800  GLU811  SER814 

> <Gold.Protein.RotatedAtoms>
  152.0452  133.3995  159.4353 H   0  0  0  0  0  0  0  0  0  0  0  0  # atno 6907 bound_to 6896
  150.6873  134.3370  159.4861 H   0  0  0  0  0  0  0  0  0  0  0  0  # atno 6908 bound_to 6896
  152.1173  134.9230  160.0615 H   0  0  0  0  0  0  0  0  0  0  0  0  # atno 6909 bound_to 6896
  145.6901  140.9156  143.0786 H   0  0  0  0  0  0  0  0  0  0  0  0  # atno 7974 bound_to 7965
  155.7628  140.3486  155.5207 H   0  0  0  0  0  0  0  0  0  0  0  0  # atno 8008 bound_to 7997
  155.8897  140.1016  157.1448 H   0  0  0  0  0  0  0  0  0  0  0  0  # atno 8009 bound_to 7997
  154.4032  140.1306  156.4287 H   0  0  0  0  0  0  0  0  0  0  0  0  # atno 8010 bound_to 7997
  139.4979  144.6066  151.6365 H   0  0  0  0  0  0  0  0  0  0  0  0  # atno 10167 bound_to 10162
  156.5319  130.8524  151.2719 H   0  0  0  0  0  0  0  0  0  0  0  0  # atno 10718 bound_to 10713
  154.3849  135.2753  155.2189 H   0  0  0  0  0  0  0  0  0  0  0  0  # atno 10763 bound_to 10752
  154.4281  135.5984  153.6055 H   0  0  0  0  0  0  0  0  0  0  0  0  # atno 10764 bound_to 10752
  152.9833  135.5989  154.4096 H   0  0  0  0  0  0  0  0  0  0  0  0  # atno 10765 bound_to 10752
  140.0673  134.9171  157.1285 H   0  0  0  0  0  0  0  0  0  0  0  0  # atno 11005 bound_to 11000
  144.6999  139.8811  143.7447 LP  0  0  0  0  0  0  0  0  0  0  0  0  # atno 17320 bound_to 7965
  146.0889  139.3878  143.0418 LP  0  0  0  0  0  0  0  0  0  0  0  0  # atno 17321 bound_to 7965
  140.5729  144.0077  150.6226 LP  0  0  0  0  0  0  0  0  0  0  0  0  # atno 17342 bound_to 10162
  140.3201  143.3142  152.0793 LP  0  0  0  0  0  0  0  0  0  0  0  0  # atno 17343 bound_to 10162
  157.7420  130.9882  150.2487 LP  0  0  0  0  0  0  0  0  0  0  0  0  # atno 17370 bound_to 10713
  156.3052  130.3764  149.7713 LP  0  0  0  0  0  0  0  0  0  0  0  0  # atno 17371 bound_to 10713
  140.3680  134.2421  155.7180 LP  0  0  0  0  0  0  0  0  0  0  0  0  # atno 17394 bound_to 11000
  141.1998  133.8003  157.0521 LP  0  0  0  0  0  0  0  0  0  0  0  0  # atno 17395 bound_to 11000

$$$$
