AV-unprocessed.smi:258|AV-procd|sdf|1968|dock7
  -GOLD-   2262021123D 1   1.00000     0.00000
 Structure written by MMmdl.
 57 60  0  0  0  0  0  0  0  0  1 V2000
  146.7980  132.1702  150.2085 O   0  0  0  0  0  0  0  0  0  0  0  0
  146.0918  132.5822  151.3596 C   0  0  0  0  0  0  0  0  0  0  0  0
  146.8594  132.1798  152.6248 C   0  0  0  0  0  0  0  0  0  0  0  0
  147.9303  133.0912  152.8272 O   0  0  0  0  0  0  0  0  0  0  0  0
  148.4356  133.1198  154.1556 C   0  0  1  0  0  0  0  0  0  0  0  0
  149.6584  132.1920  154.3046 C   0  0  0  0  0  0  0  0  0  0  0  0
  150.2800  132.3512  155.7003 C   0  0  0  0  0  0  0  0  0  0  0  0
  150.6230  133.8217  155.9881 C   0  0  0  0  0  0  0  0  0  0  0  0
  149.4530  134.6786  155.7872 N   0  0  0  0  0  0  0  0  0  0  0  0
  149.4962  135.9369  156.2948 C   0  0  0  0  0  0  0  0  0  0  0  0
  148.6063  136.3142  157.2519 N   0  0  0  0  0  0  0  0  0  0  0  0
  148.6494  137.5464  157.7669 C   0  0  0  0  0  0  0  0  0  0  0  0
  149.4847  138.5445  157.4736 N   0  0  0  0  0  0  0  0  0  0  0  0
  150.3752  138.1765  156.5089 C   0  0  0  0  0  0  0  0  0  0  0  0
  150.4489  136.9062  155.8700 C   0  0  0  0  0  0  0  0  0  0  0  0
  151.4727  136.9095  154.9294 N   0  0  0  0  0  0  0  0  0  0  0  0
  151.9831  138.1075  155.0166 C   0  0  0  0  0  0  0  0  0  0  0  0
  151.3913  138.9304  155.9474 N   0  0  0  0  0  0  0  0  0  0  0  0
  151.7643  140.3019  156.2490 C   0  0  0  0  0  0  0  0  0  0  0  0
  151.5901  140.6665  157.7438 C   0  0  1  0  0  0  0  0  0  0  0  0
  152.1970  139.5674  158.6481 C   0  0  0  0  0  0  0  0  0  0  0  0
  153.5849  139.4445  158.4171 O   0  0  0  0  0  0  0  0  0  0  0  0
  152.1027  142.0970  158.0747 C   0  0  2  0  0  0  0  0  0  0  0  0
  152.1665  142.4493  159.5601 C   0  0  0  0  0  0  0  0  0  0  0  0
  151.8154  143.9309  159.5768 C   0  0  0  0  0  0  0  0  0  0  0  0
  150.8304  144.0242  158.5627 O   0  0  0  0  0  0  0  0  0  0  0  0
  151.2775  143.2432  157.4622 C   0  0  0  0  0  0  0  0  0  0  0  0
  148.8306  134.5736  154.4674 C   0  0  0  0  0  0  0  0  0  0  0  0
  147.6409  131.8374  150.4763 H   0  0  0  0  0  0  0  0  0  0  0  0
  145.9065  133.6565  151.3315 H   0  0  0  0  0  0  0  0  0  0  0  0
  145.1211  132.0865  151.3439 H   0  0  0  0  0  0  0  0  0  0  0  0
  146.1863  132.2425  153.4811 H   0  0  0  0  0  0  0  0  0  0  0  0
  147.2020  131.1469  152.5592 H   0  0  0  0  0  0  0  0  0  0  0  0
  147.6556  132.8212  154.8587 H   0  0  0  0  0  0  0  0  0  0  0  0
  149.3806  131.1502  154.1478 H   0  0  0  0  0  0  0  0  0  0  0  0
  150.4005  132.4358  153.5432 H   0  0  0  0  0  0  0  0  0  0  0  0
  149.5803  131.9866  156.4534 H   0  0  0  0  0  0  0  0  0  0  0  0
  151.1759  131.7357  155.7848 H   0  0  0  0  0  0  0  0  0  0  0  0
  150.9848  133.9142  157.0131 H   0  0  0  0  0  0  0  0  0  0  0  0
  151.4280  134.1515  155.3296 H   0  0  0  0  0  0  0  0  0  0  0  0
  147.9096  137.7627  158.5235 H   0  0  0  0  0  0  0  0  0  0  0  0
  152.8143  138.4251  154.4039 H   0  0  0  0  0  0  0  0  0  0  0  0
  152.8021  140.4352  155.9426 H   0  0  0  0  0  0  0  0  0  0  0  0
  151.1730  140.9733  155.6254 H   0  0  0  0  0  0  0  0  0  0  0  0
  150.5177  140.6833  157.9453 H   0  0  0  0  0  0  0  0  0  0  0  0
  152.0386  139.7897  159.7033 H   0  0  0  0  0  0  0  0  0  0  0  0
  151.7445  138.5951  158.4577 H   0  0  0  0  0  0  0  0  0  0  0  0
  154.0021  139.1840  159.2243 H   0  0  0  0  0  0  0  0  0  0  0  0
  153.1078  142.2091  157.6667 H   0  0  0  0  0  0  0  0  0  0  0  0
  151.4223  141.9018  160.1365 H   0  0  0  0  0  0  0  0  0  0  0  0
  153.1417  142.2473  160.0029 H   0  0  0  0  0  0  0  0  0  0  0  0
  151.4359  144.2651  160.5427 H   0  0  0  0  0  0  0  0  0  0  0  0
  152.6791  144.5427  159.3113 H   0  0  0  0  0  0  0  0  0  0  0  0
  151.9083  143.8634  156.8234 H   0  0  0  0  0  0  0  0  0  0  0  0
  150.4362  142.9063  156.8568 H   0  0  0  0  0  0  0  0  0  0  0  0
  149.5396  134.9339  153.7207 H   0  0  0  0  0  0  0  0  0  0  0  0
  147.9494  135.2093  154.3888 H   0  0  0  0  0  0  0  0  0  0  0  0
  1  2  1  0  0  0  0
  1 29  1  0  0  0  0
  2  3  1  0  0  0  0
  2 30  1  0  0  0  0
  2 31  1  0  0  0  0
  3  4  1  0  0  0  0
  3 32  1  0  0  0  0
  3 33  1  0  0  0  0
  4  5  1  0  0  0  0
  5 28  1  0  0  0  0
  5  6  1  0  0  0  0
  5 34  1  0  0  0  0
  6  7  1  0  0  0  0
  6 35  1  0  0  0  0
  6 36  1  0  0  0  0
  7  8  1  0  0  0  0
  7 37  1  0  0  0  0
  7 38  1  0  0  0  0
  8  9  1  0  0  0  0
  8 39  1  0  0  0  0
  8 40  1  0  0  0  0
  9 10  1  0  0  0  0
  9 28  1  0  0  0  0
 10 15  1  0  0  0  0
 10 11  2  0  0  0  0
 11 12  1  0  0  0  0
 12 13  2  0  0  0  0
 12 41  1  0  0  0  0
 13 14  1  0  0  0  0
 14 18  1  0  0  0  0
 14 15  2  0  0  0  0
 15 16  1  0  0  0  0
 16 17  2  0  0  0  0
 17 18  1  0  0  0  0
 17 42  1  0  0  0  0
 18 19  1  0  0  0  0
 19 20  1  0  0  0  0
 19 43  1  0  0  0  0
 19 44  1  0  0  0  0
 20 21  1  0  0  0  0
 20 23  1  0  0  0  0
 20 45  1  0  0  0  0
 21 22  1  0  0  0  0
 21 46  1  0  0  0  0
 21 47  1  0  0  0  0
 22 48  1  0  0  0  0
 23 27  1  0  0  0  0
 23 24  1  0  0  0  0
 23 49  1  0  0  0  0
 24 25  1  0  0  0  0
 24 50  1  0  0  0  0
 24 51  1  0  0  0  0
 25 26  1  0  0  0  0
 25 52  1  0  0  0  0
 25 53  1  0  0  0  0
 26 27  1  0  0  0  0
 27 54  1  0  0  0  0
 27 55  1  0  0  0  0
 28 56  1  0  0  0  0
 28 57  1  0  0  0  0
M  END
> <s_m_source_file>
AV-unprocessed.smi

> <i_m_source_file_index>
258

> <i_lp_mmshare_version>
43012

> <i_f3d_flags>
0

> <s_epik_input>
W09IXVtDSDJdW0NIMl1PW0NAQEhdMVtDSDJdW0NIMl1bQ0gyXU4oW0NIMl0xKWMobltjSF1uMiljKGMyMyluW2NIXW4zW0NIMl1bQ0BIXShbQ0gyXVtPSF0pW0NAQEhdNFtDSDJdW0NIMl1PW0NIMl00

> <s_epik_cmdline>
J2VwaWtfcHl0aG9uJywgJy1waCcsICc3LjAnLCAnLXRuJywgJzgnLCAnLW1hJywgJzIwMCcsICctbWV0YWxfYmluZGluZycsICctaW1hZScsICc8aW5maWxlLm1hZT4nLCAnLW9tYWUnLCAnPG91dGZpbGUubWFlPic=

> <r_lp_tautomer_probability>
1

> <r_epik_Ionization_Penalty>
0.00349036

> <r_epik_Ionization_Penalty_Charging>
0

> <r_epik_Ionization_Penalty_Neutral>
0.00349036

> <r_epik_State_Penalty>
0.00229798

> <r_epik_Charging_Adjusted_Penalty>
0.00229798

> <i_epik_Tot_Q>
0

> <i_epik_Tot_abs_Q>
0

> <r_epik_Metal_State_Penalty>
-0

> <b_epik_Metal_Only>
0

> <s_lp_Force_Field>
OPLS_2005

> <r_lp_Energy>
48.0574

> <b_lp_Chiralities_Consistent>
1

> <s_lp_Variant>
AV-unprocessed.smi:258-4

> <Gold.Version>
5.8.1

> <Gold.Id.Protein>
6NUR|6NUR_protein|mol2

> <Gold.PLP.Fitness>
48.3378

> <Gold.PLP.PLP>
-41.6229

> <Gold.PLP.part.hbond>
-3.0000

> <Gold.PLP.part.metal>
0.0000

> <Gold.PLP.part.buried>
-7.0619

> <Gold.PLP.part.nonpolar>
-32.0344

> <Gold.PLP.part.repulsive>
0.5207

> <Gold.PLP.ligand.clash>
0.0000

> <Gold.PLP.ligand.torsion>
1.4593

> <Gold.PLP.Chemscore.Hbond>
3.0000

> <Gold.PLP.Chemscore.CHOScore>
0.0000

> <Gold.PLP.Chemscore.Metal>
0.0000

> <Gold.Chemscore.Hbonds>
donor molecule, donor type, donor heavy atom, donor atom, acceptor molecule, acceptor atom, score
      L1  H     1    29       P1 10747  1.00
      P1  H  7997  8010       L1    22  1.00
      P1  H 10752 10765       L1    16  0.99

> <Gold.PLP.Chemscore.Internal.Correction>
0.6336

> <Gold.Rescore>
     Score         DG    S(hbond)    S(metal)    S(lipo)     H(rot)  DE(clash)    DE(int)     intcor
     13.04     -15.74       2.73        0.00     102.08       4.22       0.06       2.64       ----

> <Gold.Chemscore.Fitness>
13.0424

> <Gold.Chemscore.DG>
-15.7394

> <Gold.Chemscore.ZeroCoef>
-5.4800

> <Gold.Chemscore.Hbond>
2.7338

> <Gold.Chemscore.Metal>
0.0000

> <Gold.Chemscore.Lipo>
102.0808

> <Gold.Chemscore.Internal_Hbond>
0.0000

> <Gold.Chemscore.DEClash>
0.0576

> <Gold.Chemscore.DEInternal>
2.6395

> <Gold.Chemscore.Rot>
4.2246

> <Gold.Chemscore.Internal.Correction>
   9.000000E+99

> <Gold.Chemscore.Hbonds>
donor molecule, donor type, donor heavy atom, donor atom, acceptor molecule, acceptor atom, score
      L1  H     1    29       P1 10747  0.96
      P1  H  7997  8010       L1    22  0.59
      P1  H 10752 10765       L1    16  0.54

> <Gold.Chemscore.Hbond.Weighted>
-9.1308

> <Gold.Chemscore.Metal.Weighted>
-0.0000

> <Gold.Chemscore.Lipo.Weighted>
-11.9435

> <Gold.Chemscore.Internal_Hbond.Weighted>
0.0000

> <Gold.Chemscore.DEClash.Weighted>
0.0576

> <Gold.Chemscore.DEInternal.Weighted>
2.6395

> <Gold.Chemscore.Rot.Weighted>
10.8149

> <Gold.Chemscore.Internal.Correction.Weighted>
   9.000000E+99

> <Gold.Protein.RotatedTorsions>
[ 6907 6896 6895 6894 ] final  -99.35 input  -60.11 | X-H torsion
[ 7974 7965 7964 7962 ] final   81.95 input  175.53 | X-H torsion
[ 8008 7997 7996 7995 ] final    9.47 input   59.86 | X-H torsion
[ 10167 10162 10161 10158 ] final -116.80 input  -65.29 | X-H torsion
[ 10718 10713 10712 10709 ] final  177.04 input   66.30 | X-H torsion
[ 10763 10752 10751 10750 ] final  160.53 input  -60.55 | X-H torsion
[ 11005 11000 10999 10996 ] final   54.71 input  -57.11 | X-H torsion

> <Gold.Protein.ActiveResidues>
 VAL166  LYS551  ARG553  GLY616  TRP617  ASP618  TYR619  PRO620  LYS621  CYS622 
 ASP623  PHE694  ASN695  SER759  ASP760  ASP761  ALA762  ILE779  LEU786  VAL792 
 PHE793  MET794  SER795  GLU796  ALA797  LYS798  CYS799  TRP800  GLU811  SER814 

> <Gold.Protein.RotatedAtoms>
  150.7077  134.1053  159.3980 H   0  0  0  0  0  0  0  0  0  0  0  0  # atno 6907 bound_to 6896
  151.9040  135.0364  160.0518 H   0  0  0  0  0  0  0  0  0  0  0  0  # atno 6908 bound_to 6896
  152.2391  133.5085  159.5296 H   0  0  0  0  0  0  0  0  0  0  0  0  # atno 6909 bound_to 6896
  145.6314  139.2406  143.2082 H   0  0  0  0  0  0  0  0  0  0  0  0  # atno 7974 bound_to 7965
  154.7805  140.2818  155.6068 H   0  0  0  0  0  0  0  0  0  0  0  0  # atno 8008 bound_to 7997
  156.2949  140.2624  156.2557 H   0  0  0  0  0  0  0  0  0  0  0  0  # atno 8009 bound_to 7997
  154.9790  140.0375  157.2259 H   0  0  0  0  0  0  0  0  0  0  0  0  # atno 8010 bound_to 7997
  140.0753  143.4838  152.1957 H   0  0  0  0  0  0  0  0  0  0  0  0  # atno 10167 bound_to 10162
  156.9112  130.9910  151.3020 H   0  0  0  0  0  0  0  0  0  0  0  0  # atno 10718 bound_to 10713
  154.2488  135.2772  155.2825 H   0  0  0  0  0  0  0  0  0  0  0  0  # atno 10763 bound_to 10752
  154.5483  135.5682  153.6902 H   0  0  0  0  0  0  0  0  0  0  0  0  # atno 10764 bound_to 10752
  152.9985  135.6268  154.2634 H   0  0  0  0  0  0  0  0  0  0  0  0  # atno 10765 bound_to 10752
  140.0664  134.5530  155.9094 H   0  0  0  0  0  0  0  0  0  0  0  0  # atno 11005 bound_to 11000
  146.1353  140.7131  142.9392 LP  0  0  0  0  0  0  0  0  0  0  0  0  # atno 17320 bound_to 7965
  144.7192  140.4315  143.7021 LP  0  0  0  0  0  0  0  0  0  0  0  0  # atno 17321 bound_to 7965
  139.5811  144.7511  151.3637 LP  0  0  0  0  0  0  0  0  0  0  0  0  # atno 17342 bound_to 10162
  140.7105  143.7403  150.7558 LP  0  0  0  0  0  0  0  0  0  0  0  0  # atno 17343 bound_to 10162
  157.5966  130.8482  149.8739 LP  0  0  0  0  0  0  0  0  0  0  0  0  # atno 17370 bound_to 10713
  156.0535  130.3713  150.1145 LP  0  0  0  0  0  0  0  0  0  0  0  0  # atno 17371 bound_to 10713
  141.1994  133.6607  156.5845 LP  0  0  0  0  0  0  0  0  0  0  0  0  # atno 17394 bound_to 11000
  140.3692  134.7621  157.4587 LP  0  0  0  0  0  0  0  0  0  0  0  0  # atno 17395 bound_to 11000

$$$$
