AV-unprocessed.smi:1715|AV-procd|sdf|6912|dock1
  -GOLD-   22720 8113D 1   1.00000     0.00000
 Structure written by MMmdl.
 41 42  0  0  0  0  0  0  0  0  2 V2000
  145.9901  142.8969  153.6781 C   0  0  0  0  0  0  0  0  0  0  0  0
  147.1454  142.0600  154.2561 C   0  0  2  0  0  0  0  0  0  0  0  0
  147.4454  140.7817  153.4486 C   0  0  0  0  0  0  0  0  0  0  0  0
  146.4041  139.7496  153.6684 N   0  3  1  0  0  0  0  0  0  0  0  0
  146.6383  138.5301  152.8556 C   0  0  0  0  0  0  0  0  0  0  0  0
  146.0683  137.2618  153.5199 C   0  0  0  0  0  0  0  0  0  0  0  0
  146.0585  136.1318  152.5980 N   0  0  0  0  0  0  0  0  0  0  0  0
  144.9624  135.4533  152.2294 C   0  0  0  0  0  0  0  0  0  0  0  0
  143.8328  135.7138  152.6440 O   0  0  0  0  0  0  0  0  0  0  0  0
  145.2622  134.4699  151.3652 N   0  0  0  0  0  0  0  0  0  0  0  0
  144.3683  133.5443  150.7697 C   0  0  0  0  0  0  0  0  0  0  0  0
  144.4953  133.0317  149.4500 C   0  0  0  0  0  0  0  0  0  0  0  0
  143.5171  132.1844  149.1640 N   0  0  0  0  0  0  0  0  0  0  0  0
  142.7665  132.1519  150.2883 N   0  0  0  0  0  0  0  0  0  0  0  0
  143.2471  132.9630  151.2925 C   0  0  0  0  0  0  0  0  0  0  0  0
  146.2524  139.4754  155.1178 C   0  0  0  0  0  0  0  0  0  0  0  0
  145.9256  140.7726  155.8793 C   0  0  1  0  0  0  0  0  0  0  0  0
  145.8478  140.5469  157.3933 C   0  0  0  0  0  0  0  0  0  0  0  0
  146.9445  141.7378  155.6321 O   0  0  0  0  0  0  0  0  0  0  0  0
  141.9382  131.5773  150.3542 H   0  0  0  0  0  0  0  0  0  0  0  0
  146.2294  143.2422  152.6718 H   0  0  0  0  0  0  0  0  0  0  0  0
  145.8046  143.7788  154.2917 H   0  0  0  0  0  0  0  0  0  0  0  0
  145.0604  142.3326  153.6137 H   0  0  0  0  0  0  0  0  0  0  0  0
  148.0354  142.6891  154.2215 H   0  0  0  0  0  0  0  0  0  0  0  0
  147.5210  141.0226  152.3874 H   0  0  0  0  0  0  0  0  0  0  0  0
  148.4135  140.3781  153.7497 H   0  0  0  0  0  0  0  0  0  0  0  0
  146.1535  138.6487  151.8853 H   0  0  0  0  0  0  0  0  0  0  0  0
  147.7059  138.4256  152.6553 H   0  0  0  0  0  0  0  0  0  0  0  0
  146.6331  136.9874  154.4112 H   0  0  0  0  0  0  0  0  0  0  0  0
  145.0435  137.4421  153.8458 H   0  0  0  0  0  0  0  0  0  0  0  0
  146.9465  135.8515  152.2074 H   0  0  0  0  0  0  0  0  0  0  0  0
  146.2324  134.3713  151.1042 H   0  0  0  0  0  0  0  0  0  0  0  0
  145.2487  133.2421  148.7052 H   0  0  0  0  0  0  0  0  0  0  0  0
  142.7591  133.0452  152.2524 H   0  0  0  0  0  0  0  0  0  0  0  0
  145.4561  138.7514  155.2873 H   0  0  0  0  0  0  0  0  0  0  0  0
  147.1722  139.0321  155.5029 H   0  0  0  0  0  0  0  0  0  0  0  0
  144.9621  141.1594  155.5466 H   0  0  0  0  0  0  0  0  0  0  0  0
  145.0730  139.8219  157.6439 H   0  0  0  0  0  0  0  0  0  0  0  0
  145.6131  141.4757  157.9139 H   0  0  0  0  0  0  0  0  0  0  0  0
  146.7943  140.1749  157.7867 H   0  0  0  0  0  0  0  0  0  0  0  0
  145.5343  140.1501  153.3471 H   0  0  0  0  0  0  0  0  0  0  0  0
  1  2  1  0  0  0  0
  1 21  1  0  0  0  0
  1 22  1  0  0  0  0
  1 23  1  0  0  0  0
  2 19  1  0  0  0  0
  2  3  1  0  0  0  0
  2 24  1  0  0  0  0
  3  4  1  0  0  0  0
  3 25  1  0  0  0  0
  3 26  1  0  0  0  0
  4  5  1  0  0  0  0
  4 16  1  0  0  0  0
  4 41  1  0  0  0  0
  5  6  1  0  0  0  0
  5 27  1  0  0  0  0
  5 28  1  0  0  0  0
  6  7  1  0  0  0  0
  6 29  1  0  0  0  0
  6 30  1  0  0  0  0
  7  8  1  0  0  0  0
  7 31  1  0  0  0  0
  8  9  2  0  0  0  0
  8 10  1  0  0  0  0
 10 11  1  0  0  0  0
 10 32  1  0  0  0  0
 11 15  2  0  0  0  0
 11 12  1  0  0  0  0
 12 13  2  0  0  0  0
 12 33  1  0  0  0  0
 13 14  1  0  0  0  0
 14 20  1  0  0  0  0
 14 15  1  0  0  0  0
 15 34  1  0  0  0  0
 16 17  1  0  0  0  0
 16 35  1  0  0  0  0
 16 36  1  0  0  0  0
 17 18  1  0  0  0  0
 17 19  1  0  0  0  0
 17 37  1  0  0  0  0
 18 38  1  0  0  0  0
 18 39  1  0  0  0  0
 18 40  1  0  0  0  0
M  CHG  1   4   1
M  END
> <s_m_source_file>
AV-unprocessed.smi

> <i_m_source_file_index>
1715

> <i_lp_mmshare_version>
43012

> <i_f3d_flags>
0

> <s_epik_input>
W0NIM11bQ0BASF0xW0NIMl1OKFtDSDJdW0NASF0oTzEpW0NIM10pW0NIMl1bQ0gyXVtOSF1DKD1PKVtOSF1jMltjSF1uW25IXVtjSF0y

> <s_epik_cmdline>
J2VwaWtfcHl0aG9uJywgJy1waCcsICc3LjAnLCAnLXRuJywgJzgnLCAnLW1hJywgJzIwMCcsICctbWV0YWxfYmluZGluZycsICctaW1hZScsICc8aW5maWxlLm1hZT4nLCAnLW9tYWUnLCAnPG91dGZpbGUubWFlPic=

> <r_lp_tautomer_probability>
0.5

> <r_epik_Ionization_Penalty>
0.646007

> <r_epik_Ionization_Penalty_Charging>
0.645968

> <r_epik_Ionization_Penalty_Neutral>
3.91671e-05

> <r_epik_State_Penalty>
0.664063

> <r_epik_Charging_Adjusted_Penalty>
1.31003

> <i_epik_Tot_Q>
1

> <i_epik_Tot_abs_Q>
1

> <r_epik_Metal_State_Penalty>
0.664064

> <b_epik_Metal_Only>
0

> <s_lp_Force_Field>
OPLS_2005

> <r_lp_Energy>
20.2841

> <b_lp_Chiralities_Consistent>
1

> <s_lp_Variant>
AV-unprocessed.smi:1715-4

> <Gold.Version>
5.8.1

> <Gold.Id.Protein>
6NUR|6NUR_protein|mol2

> <Gold.PLP.Fitness>
44.7244

> <Gold.PLP.PLP>
-28.3848

> <Gold.PLP.part.hbond>
-4.9367

> <Gold.PLP.part.metal>
0.0000

> <Gold.PLP.part.buried>
-5.8499

> <Gold.PLP.part.nonpolar>
-20.1805

> <Gold.PLP.part.repulsive>
0.6408

> <Gold.PLP.ligand.clash>
0.4981

> <Gold.PLP.ligand.torsion>
0.6850

> <Gold.PLP.Chemscore.Hbond>
4.6348

> <Gold.PLP.Chemscore.CHOScore>
1.4186

> <Gold.PLP.Chemscore.Metal>
0.0000

> <Gold.Chemscore.Hbonds>
donor molecule, donor type, donor heavy atom, donor atom, acceptor molecule, acceptor atom, score
      L1  H     4    41       P1 10175  1.79
      L1  H     7    31       P1  7948  0.96
      L1  H    14    20       P1 10952  0.99
      P1  H 10785 10796       L1    13  0.54
      L1  C    12    33       P1  7921  1.00
      L1  C    15    34       P1 10957  0.25

> <Gold.PLP.Chemscore.Internal.Correction>
0.0476

> <Gold.Rescore>
     Score         DG    S(hbond)    S(metal)    S(lipo)     H(rot)  DE(clash)    DE(int)     intcor
     16.26     -18.04       2.91        0.00      60.65       1.67       1.15       0.62       ----

> <Gold.Chemscore.Fitness>
16.2648

> <Gold.Chemscore.DG>
-18.0375

> <Gold.Chemscore.ZeroCoef>
-5.4800

> <Gold.Chemscore.Hbond>
2.9130

> <Gold.Chemscore.Metal>
0.0000

> <Gold.Chemscore.Lipo>
60.6479

> <Gold.Chemscore.Internal_Hbond>
0.0000

> <Gold.Chemscore.DEClash>
1.1513

> <Gold.Chemscore.DEInternal>
0.6213

> <Gold.Chemscore.Rot>
1.6671

> <Gold.Chemscore.Internal.Correction>
   9.000000E+99

> <Gold.Chemscore.Hbonds>
donor molecule, donor type, donor heavy atom, donor atom, acceptor molecule, acceptor atom, score
      L1  H     4    41       P1 10175  0.87
      L1  H     7    31       P1  7948  0.86
      L1  H    14    20       P1 10952  0.37
      P1  H 10785 10796       L1    13  0.05

> <Gold.Chemscore.Hbond.Weighted>
-9.7294

> <Gold.Chemscore.Metal.Weighted>
-0.0000

> <Gold.Chemscore.Lipo.Weighted>
-7.0958

> <Gold.Chemscore.Internal_Hbond.Weighted>
0.0000

> <Gold.Chemscore.DEClash.Weighted>
1.1513

> <Gold.Chemscore.DEInternal.Weighted>
0.6213

> <Gold.Chemscore.Rot.Weighted>
4.2677

> <Gold.Chemscore.Internal.Correction.Weighted>
   9.000000E+99

> <Gold.Protein.RotatedTorsions>
[ 6907 6896 6895 6894 ] final  160.44 input  -60.11 | X-H torsion
[ 7974 7965 7964 7962 ] final   73.07 input  175.53 | X-H torsion
[ 8008 7997 7996 7995 ] final  124.68 input   59.86 | X-H torsion
[ 10167 10162 10161 10158 ] final  -96.58 input  -65.29 | X-H torsion
[ 10718 10713 10712 10709 ] final -169.29 input   66.30 | X-H torsion
[ 10763 10752 10751 10750 ] final  115.02 input  -60.55 | X-H torsion
[ 11005 11000 10999 10996 ] final -174.87 input  -57.11 | X-H torsion

> <Gold.Protein.ActiveResidues>
 VAL166  LYS551  ARG553  GLY616  TRP617  ASP618  TYR619  PRO620  LYS621  CYS622 
 ASP623  PHE694  ASN695  SER759  ASP760  ASP761  ALA762  ILE779  LEU786  VAL792 
 PHE793  MET794  SER795  GLU796  ALA797  LYS798  CYS799  TRP800  GLU811  SER814 

> <Gold.Protein.RotatedAtoms>
  151.9706  133.3724  159.4069 H   0  0  0  0  0  0  0  0  0  0  0  0  # atno 6907 bound_to 6896
  150.6949  134.4144  159.5185 H   0  0  0  0  0  0  0  0  0  0  0  0  # atno 6908 bound_to 6896
  152.1847  134.8724  160.0574 H   0  0  0  0  0  0  0  0  0  0  0  0  # atno 6909 bound_to 6896
  145.7454  139.2738  143.1462 H   0  0  0  0  0  0  0  0  0  0  0  0  # atno 7974 bound_to 7965
  156.2809  140.2734  156.1826 H   0  0  0  0  0  0  0  0  0  0  0  0  # atno 8008 bound_to 7997
  155.0540  140.0386  157.2571 H   0  0  0  0  0  0  0  0  0  0  0  0  # atno 8009 bound_to 7997
  154.7171  140.2680  155.6580 H   0  0  0  0  0  0  0  0  0  0  0  0  # atno 8010 bound_to 7997
  140.2923  143.3213  152.0333 H   0  0  0  0  0  0  0  0  0  0  0  0  # atno 10167 bound_to 10162
  156.7094  130.9227  151.3088 H   0  0  0  0  0  0  0  0  0  0  0  0  # atno 10718 bound_to 10713
  153.5159  135.3608  155.2609 H   0  0  0  0  0  0  0  0  0  0  0  0  # atno 10763 bound_to 10752
  154.8738  135.4034  154.3315 H   0  0  0  0  0  0  0  0  0  0  0  0  # atno 10764 bound_to 10752
  153.3977  135.7074  153.6516 H   0  0  0  0  0  0  0  0  0  0  0  0  # atno 10765 bound_to 10752
  140.4697  134.6177  157.4877 H   0  0  0  0  0  0  0  0  0  0  0  0  # atno 11005 bound_to 11000
  146.0408  140.8167  142.9830 LP  0  0  0  0  0  0  0  0  0  0  0  0  # atno 17320 bound_to 7965
  144.6861  140.2907  143.7278 LP  0  0  0  0  0  0  0  0  0  0  0  0  # atno 17321 bound_to 7965
  139.4935  144.6516  151.6664 LP  0  0  0  0  0  0  0  0  0  0  0  0  # atno 17342 bound_to 10162
  140.5721  144.0090  150.6222 LP  0  0  0  0  0  0  0  0  0  0  0  0  # atno 17343 bound_to 10162
  157.6942  130.9264  150.0597 LP  0  0  0  0  0  0  0  0  0  0  0  0  # atno 17370 bound_to 10713
  156.1672  130.3645  149.9216 LP  0  0  0  0  0  0  0  0  0  0  0  0  # atno 17371 bound_to 10713
  139.9893  134.7011  155.9718 LP  0  0  0  0  0  0  0  0  0  0  0  0  # atno 17394 bound_to 11000
  141.1583  133.6541  156.4233 LP  0  0  0  0  0  0  0  0  0  0  0  0  # atno 17395 bound_to 11000

$$$$
