AV-unprocessed.smi:268|AV-procd|sdf|2040|dock3
  -GOLD-   2262021253D 1   1.00000     0.00000
 Structure written by MMmdl.
 50 53  0  0  0  0  0  0  0  0  1 V2000
  154.0057  142.8903  160.6234 C   0  0  0  0  0  0  0  0  0  0  0  0
  153.6345  142.7135  159.1493 C   0  0  0  0  0  0  0  0  0  0  0  0
  152.2389  142.9134  158.9999 O   0  0  0  0  0  0  0  0  0  0  0  0
  151.7296  142.3479  157.8034 C   0  0  2  0  0  0  0  0  0  0  0  0
  150.2184  142.5338  157.6125 C   0  0  0  0  0  0  0  0  0  0  0  0
  150.1091  141.0414  157.2476 C   0  0  1  0  0  0  0  0  0  0  0  0
  150.1354  140.8066  155.7979 N   0  0  0  0  0  0  0  0  0  0  0  0
  148.9926  141.2807  155.0215 C   0  0  0  0  0  0  0  0  0  0  0  0
  150.6041  139.6131  155.3491 C   0  0  0  0  0  0  0  0  0  0  0  0
  151.7818  139.5516  154.6711 N   0  0  0  0  0  0  0  0  0  0  0  0
  152.2499  138.3779  154.2367 C   0  0  0  0  0  0  0  0  0  0  0  0
  151.7120  137.1640  154.3704 N   0  0  0  0  0  0  0  0  0  0  0  0
  150.5329  137.2184  155.0536 C   0  0  0  0  0  0  0  0  0  0  0  0
  149.9149  138.3889  155.5765 C   0  0  0  0  0  0  0  0  0  0  0  0
  148.7238  138.0531  156.2084 N   0  0  0  0  0  0  0  0  0  0  0  0
  148.6428  136.7581  156.0680 C   0  0  0  0  0  0  0  0  0  0  0  0
  149.6815  136.1756  155.3771 N   0  0  0  0  0  0  0  0  0  0  0  0
  149.8430  134.7623  155.0713 C   0  0  0  0  0  0  0  0  0  0  0  0
  148.9293  133.8388  155.8986 C   0  0  0  0  0  0  0  0  0  0  0  0
  147.4752  134.0248  155.4183 C   0  0  0  0  0  0  0  0  0  0  0  0
  147.3241  133.7649  154.0369 O   0  0  0  0  0  0  0  0  0  0  0  0
  149.4226  132.3905  156.0286 C   0  0  0  0  0  0  0  0  0  0  0  0
  149.3395  132.4282  157.4705 O   0  0  0  0  0  0  0  0  0  0  0  0
  149.1439  133.8587  157.4190 C   0  0  0  0  0  0  0  0  0  0  0  0
  151.4769  140.8429  157.9343 C   0  0  0  0  0  0  0  0  0  0  0  0
  155.0746  142.7408  160.7765 H   0  0  0  0  0  0  0  0  0  0  0  0
  153.4742  142.1731  161.2495 H   0  0  0  0  0  0  0  0  0  0  0  0
  153.7542  143.8920  160.9723 H   0  0  0  0  0  0  0  0  0  0  0  0
  154.1882  143.4284  158.5391 H   0  0  0  0  0  0  0  0  0  0  0  0
  153.9079  141.7118  158.8146 H   0  0  0  0  0  0  0  0  0  0  0  0
  152.3090  142.5874  156.9095 H   0  0  0  0  0  0  0  0  0  0  0  0
  149.7031  142.7690  158.5451 H   0  0  0  0  0  0  0  0  0  0  0  0
  149.9534  143.2416  156.8266 H   0  0  0  0  0  0  0  0  0  0  0  0
  149.2898  140.5363  157.7611 H   0  0  0  0  0  0  0  0  0  0  0  0
  149.3179  142.0352  154.3048 H   0  0  0  0  0  0  0  0  0  0  0  0
  148.2386  141.7325  155.6666 H   0  0  0  0  0  0  0  0  0  0  0  0
  148.5051  140.4746  154.4699 H   0  0  0  0  0  0  0  0  0  0  0  0
  153.1896  138.4177  153.7060 H   0  0  0  0  0  0  0  0  0  0  0  0
  147.8144  136.1910  156.4662 H   0  0  0  0  0  0  0  0  0  0  0  0
  149.6684  134.6166  154.0046 H   0  0  0  0  0  0  0  0  0  0  0  0
  150.8914  134.5085  155.2338 H   0  0  0  0  0  0  0  0  0  0  0  0
  146.7970  133.3540  155.9456 H   0  0  0  0  0  0  0  0  0  0  0  0
  147.1297  135.0409  155.6111 H   0  0  0  0  0  0  0  0  0  0  0  0
  147.3476  134.5870  153.5715 H   0  0  0  0  0  0  0  0  0  0  0  0
  148.7587  131.6457  155.5883 H   0  0  0  0  0  0  0  0  0  0  0  0
  150.4481  132.2392  155.6884 H   0  0  0  0  0  0  0  0  0  0  0  0
  150.0388  134.3946  157.7371 H   0  0  0  0  0  0  0  0  0  0  0  0
  148.2737  134.1848  157.9897 H   0  0  0  0  0  0  0  0  0  0  0  0
  152.2015  140.2249  157.4034 H   0  0  0  0  0  0  0  0  0  0  0  0
  151.3738  140.5228  158.9723 H   0  0  0  0  0  0  0  0  0  0  0  0
  1  2  1  0  0  0  0
  1 26  1  0  0  0  0
  1 27  1  0  0  0  0
  1 28  1  0  0  0  0
  2  3  1  0  0  0  0
  2 29  1  0  0  0  0
  2 30  1  0  0  0  0
  3  4  1  0  0  0  0
  4 25  1  0  0  0  0
  4  5  1  0  0  0  0
  4 31  1  0  0  0  0
  5  6  1  0  0  0  0
  5 32  1  0  0  0  0
  5 33  1  0  0  0  0
  6  7  1  0  0  0  0
  6 25  1  0  0  0  0
  6 34  1  0  0  0  0
  7  8  1  0  0  0  0
  7  9  1  0  0  0  0
  8 35  1  0  0  0  0
  8 36  1  0  0  0  0
  8 37  1  0  0  0  0
  9 14  1  0  0  0  0
  9 10  2  0  0  0  0
 10 11  1  0  0  0  0
 11 12  2  0  0  0  0
 11 38  1  0  0  0  0
 12 13  1  0  0  0  0
 13 17  1  0  0  0  0
 13 14  2  0  0  0  0
 14 15  1  0  0  0  0
 15 16  2  0  0  0  0
 16 17  1  0  0  0  0
 16 39  1  0  0  0  0
 17 18  1  0  0  0  0
 18 19  1  0  0  0  0
 18 40  1  0  0  0  0
 18 41  1  0  0  0  0
 19 24  1  0  0  0  0
 19 20  1  0  0  0  0
 19 22  1  0  0  0  0
 20 21  1  0  0  0  0
 20 42  1  0  0  0  0
 20 43  1  0  0  0  0
 21 44  1  0  0  0  0
 22 23  1  0  0  0  0
 22 45  1  0  0  0  0
 22 46  1  0  0  0  0
 23 24  1  0  0  0  0
 24 47  1  0  0  0  0
 24 48  1  0  0  0  0
 25 49  1  0  0  0  0
 25 50  1  0  0  0  0
M  END
> <s_m_source_file>
AV-unprocessed.smi

> <i_m_source_file_index>
268

> <i_lp_mmshare_version>
43012

> <i_f3d_flags>
0

> <s_epik_input>
W0NIM11bQ0gyXU9bQ0BASF0xW0NIMl1bQ0BIXShbQ0gyXTEpTihbQ0gzXSljKG5bY0hdbjIpYyhjMjMpbltjSF1uM1tDSDJdQzQoW0NIMl1bT0hdKVtDSDJdT1tDSDJdNA==

> <s_epik_cmdline>
J2VwaWtfcHl0aG9uJywgJy1waCcsICc3LjAnLCAnLXRuJywgJzgnLCAnLW1hJywgJzIwMCcsICctbWV0YWxfYmluZGluZycsICctaW1hZScsICc8aW5maWxlLm1hZT4nLCAnLW9tYWUnLCAnPG91dGZpbGUubWFlPic=

> <r_lp_tautomer_probability>
1

> <r_epik_Ionization_Penalty>
0.00205824

> <r_epik_Ionization_Penalty_Charging>
0

> <r_epik_Ionization_Penalty_Neutral>
0.00205824

> <r_epik_State_Penalty>
0.00125218

> <r_epik_Charging_Adjusted_Penalty>
0.00125218

> <i_epik_Tot_Q>
0

> <i_epik_Tot_abs_Q>
0

> <r_epik_Metal_State_Penalty>
-0

> <b_epik_Metal_Only>
0

> <s_lp_Force_Field>
OPLS_2005

> <r_lp_Energy>
42.2334

> <b_lp_Chiralities_Consistent>
1

> <s_lp_Variant>
AV-unprocessed.smi:268-1

> <Gold.Version>
5.8.1

> <Gold.Id.Protein>
6NUR|6NUR_protein|mol2

> <Gold.PLP.Fitness>
47.8143

> <Gold.PLP.PLP>
-40.2720

> <Gold.PLP.part.hbond>
-3.3487

> <Gold.PLP.part.metal>
0.0000

> <Gold.PLP.part.buried>
-7.1754

> <Gold.PLP.part.nonpolar>
-30.5674

> <Gold.PLP.part.repulsive>
0.2603

> <Gold.PLP.ligand.clash>
0.0000

> <Gold.PLP.ligand.torsion>
1.0788

> <Gold.PLP.Chemscore.Hbond>
2.7600

> <Gold.PLP.Chemscore.CHOScore>
0.0000

> <Gold.PLP.Chemscore.Metal>
0.0000

> <Gold.Chemscore.Hbonds>
donor molecule, donor type, donor heavy atom, donor atom, acceptor molecule, acceptor atom, score
      P1  H  7989  7998       L1    10  1.00
      P1  H 10752 10763       L1    12  1.00

> <Gold.PLP.Chemscore.Internal.Correction>
1.4198

> <Gold.Rescore>
     Score         DG    S(hbond)    S(metal)    S(lipo)     H(rot)  DE(clash)    DE(int)     intcor
     11.04     -12.95       2.00        0.00      75.85       3.15       0.03       1.88       ----

> <Gold.Chemscore.Fitness>
11.0378

> <Gold.Chemscore.DG>
-12.9517

> <Gold.Chemscore.ZeroCoef>
-5.4800

> <Gold.Chemscore.Hbond>
1.9975

> <Gold.Chemscore.Metal>
0.0000

> <Gold.Chemscore.Lipo>
75.8548

> <Gold.Chemscore.Internal_Hbond>
0.0000

> <Gold.Chemscore.DEClash>
0.0337

> <Gold.Chemscore.DEInternal>
1.8802

> <Gold.Chemscore.Rot>
3.1542

> <Gold.Chemscore.Internal.Correction>
   9.000000E+99

> <Gold.Chemscore.Hbonds>
donor molecule, donor type, donor heavy atom, donor atom, acceptor molecule, acceptor atom, score
      P1  H  7989  7998       L1    10  0.41
      P1  H 10752 10763       L1    12  0.90

> <Gold.Chemscore.Hbond.Weighted>
-6.6715

> <Gold.Chemscore.Metal.Weighted>
-0.0000

> <Gold.Chemscore.Lipo.Weighted>
-8.8750

> <Gold.Chemscore.Internal_Hbond.Weighted>
0.0000

> <Gold.Chemscore.DEClash.Weighted>
0.0337

> <Gold.Chemscore.DEInternal.Weighted>
1.8802

> <Gold.Chemscore.Rot.Weighted>
8.0748

> <Gold.Chemscore.Internal.Correction.Weighted>
   9.000000E+99

> <Gold.Protein.RotatedTorsions>
[ 6907 6896 6895 6894 ] final -138.02 input  -60.11 | X-H torsion
[ 7974 7965 7964 7962 ] final  142.59 input  175.53 | X-H torsion
[ 8008 7997 7996 7995 ] final  -88.45 input   59.86 | X-H torsion
[ 10167 10162 10161 10158 ] final  128.48 input  -65.29 | X-H torsion
[ 10718 10713 10712 10709 ] final  -22.15 input   66.30 | X-H torsion
[ 10763 10752 10751 10750 ] final   42.47 input  -60.55 | X-H torsion
[ 11005 11000 10999 10996 ] final  135.49 input  -57.11 | X-H torsion

> <Gold.Protein.ActiveResidues>
 VAL166  LYS551  ARG553  GLY616  TRP617  ASP618  TYR619  PRO620  LYS621  CYS622 
 ASP623  PHE694  ASN695  SER759  ASP760  ASP761  ALA762  ILE779  LEU786  VAL792 
 PHE793  MET794  SER795  GLU796  ALA797  LYS798  CYS799  TRP800  GLU811  SER814 

> <Gold.Protein.RotatedAtoms>
  151.0298  133.5800  159.2661 H   0  0  0  0  0  0  0  0  0  0  0  0  # atno 6907 bound_to 6896
  151.2886  135.0734  159.9206 H   0  0  0  0  0  0  0  0  0  0  0  0  # atno 6908 bound_to 6896
  152.5342  134.0000  159.7944 H   0  0  0  0  0  0  0  0  0  0  0  0  # atno 6909 bound_to 6896
  144.8995  139.5444  143.5760 H   0  0  0  0  0  0  0  0  0  0  0  0  # atno 7974 bound_to 7965
  154.6749  140.0553  157.0205 H   0  0  0  0  0  0  0  0  0  0  0  0  # atno 8008 bound_to 7997
  155.1035  140.3231  155.4522 H   0  0  0  0  0  0  0  0  0  0  0  0  # atno 8009 bound_to 7997
  156.2672  140.2027  156.6160 H   0  0  0  0  0  0  0  0  0  0  0  0  # atno 8010 bound_to 7997
  139.5525  144.6824  151.4281 H   0  0  0  0  0  0  0  0  0  0  0  0  # atno 10167 bound_to 10162
  156.5085  130.4604  149.6661 H   0  0  0  0  0  0  0  0  0  0  0  0  # atno 10718 bound_to 10713
  152.9882  135.6131  154.2955 H   0  0  0  0  0  0  0  0  0  0  0  0  # atno 10763 bound_to 10752
  154.2678  135.2780  155.2753 H   0  0  0  0  0  0  0  0  0  0  0  0  # atno 10764 bound_to 10752
  154.5149  135.5831  153.6691 H   0  0  0  0  0  0  0  0  0  0  0  0  # atno 10765 bound_to 10752
  139.9983  134.9488  157.0015 H   0  0  0  0  0  0  0  0  0  0  0  0  # atno 11005 bound_to 11000
  146.3100  139.7713  142.9027 LP  0  0  0  0  0  0  0  0  0  0  0  0  # atno 17320 bound_to 7965
  145.3642  141.0331  143.3268 LP  0  0  0  0  0  0  0  0  0  0  0  0  # atno 17321 bound_to 7965
  140.6790  143.8124  150.7097 LP  0  0  0  0  0  0  0  0  0  0  0  0  # atno 17342 bound_to 10162
  140.1571  143.4307  152.2092 LP  0  0  0  0  0  0  0  0  0  0  0  0  # atno 17343 bound_to 10162
  156.3264  130.7308  151.2229 LP  0  0  0  0  0  0  0  0  0  0  0  0  # atno 17370 bound_to 10713
  157.7454  131.0442  150.4780 LP  0  0  0  0  0  0  0  0  0  0  0  0  # atno 17371 bound_to 10713
  140.4776  134.1323  155.7212 LP  0  0  0  0  0  0  0  0  0  0  0  0  # atno 17394 bound_to 11000
  141.1622  133.8771  157.1816 LP  0  0  0  0  0  0  0  0  0  0  0  0  # atno 17395 bound_to 11000

$$$$
