AV-unprocessed.smi:3335|AV-procd|sdf|12843|dock4
  -GOLD-   2272019233D 1   1.00000     0.00000
 Structure written by MMmdl.
 47 48  0  0  0  0  0  0  0  0  2 V2000
  152.2237  144.9504  158.6617 C   0  0  0  0  0  0  0  0  0  0  0  0
  151.8136  143.5248  158.4304 C   0  0  0  0  0  0  0  0  0  0  0  0
  151.0908  142.9917  157.3261 C   0  0  0  0  0  0  0  0  0  0  0  0
  150.8813  141.6900  157.4312 N   0  0  0  0  0  0  0  0  0  0  0  0
  151.4655  141.3431  158.5999 N   0  0  0  0  0  0  0  0  0  0  0  0
  151.4171  139.9608  159.0635 C   0  0  2  0  0  0  0  0  0  0  0  0
  152.8111  139.3168  158.9324 C   0  0  0  0  0  0  0  0  0  0  0  0
  150.2990  139.1712  158.3322 C   0  0  1  0  0  0  0  0  0  0  0  0
  150.6023  138.9433  156.8398 C   0  0  0  0  0  0  0  0  0  0  0  0
  150.0912  137.8600  158.9945 N   0  3  0  0  0  0  0  0  0  0  0  0
  148.6900  137.3834  159.0449 C   0  0  1  0  0  0  0  0  0  0  0  0
  148.0384  137.5479  157.6635 C   0  0  0  0  0  0  0  0  0  0  0  0
  148.6351  135.9049  159.4757 C   0  0  0  0  0  0  0  0  0  0  0  0
  149.1690  135.0605  158.7548 O   0  0  0  0  0  0  0  0  0  0  0  0
  147.9939  135.5662  160.6142 N   0  0  0  0  0  0  0  0  0  0  0  0
  147.3168  136.5407  161.4683 C   0  0  0  0  0  0  0  0  0  0  0  0
  146.5295  135.7220  162.4912 C   0  0  0  0  0  0  0  0  0  0  0  0
  147.2886  134.4056  162.5754 C   0  0  0  0  0  0  0  0  0  0  0  0
  147.8726  134.2207  161.1748 C   0  0  0  0  0  0  0  0  0  0  0  0
  152.0372  142.4338  159.2215 C   0  0  0  0  0  0  0  0  0  0  0  0
  151.9677  145.5885  157.8156 H   0  0  0  0  0  0  0  0  0  0  0  0
  153.2990  145.0403  158.8171 H   0  0  0  0  0  0  0  0  0  0  0  0
  151.7344  145.3713  159.5402 H   0  0  0  0  0  0  0  0  0  0  0  0
  150.7086  143.5102  156.4592 H   0  0  0  0  0  0  0  0  0  0  0  0
  151.1737  139.9905  160.1270 H   0  0  0  0  0  0  0  0  0  0  0  0
  152.8586  138.3526  159.4379 H   0  0  0  0  0  0  0  0  0  0  0  0
  153.5765  139.9485  159.3847 H   0  0  0  0  0  0  0  0  0  0  0  0
  153.0850  139.1609  157.8884 H   0  0  0  0  0  0  0  0  0  0  0  0
  149.3767  139.7504  158.4039 H   0  0  0  0  0  0  0  0  0  0  0  0
  150.6491  139.8835  156.2907 H   0  0  0  0  0  0  0  0  0  0  0  0
  149.8284  138.3417  156.3629 H   0  0  0  0  0  0  0  0  0  0  0  0
  151.5531  138.4274  156.7022 H   0  0  0  0  0  0  0  0  0  0  0  0
  150.6577  137.1752  158.5153 H   0  0  0  0  0  0  0  0  0  0  0  0
  148.1495  138.0173  159.7466 H   0  0  0  0  0  0  0  0  0  0  0  0
  146.9959  137.2272  157.6759 H   0  0  0  0  0  0  0  0  0  0  0  0
  148.5567  136.9631  156.9020 H   0  0  0  0  0  0  0  0  0  0  0  0
  148.0536  138.5911  157.3464 H   0  0  0  0  0  0  0  0  0  0  0  0
  148.0661  137.1577  161.9666 H   0  0  0  0  0  0  0  0  0  0  0  0
  146.6590  137.1992  160.8985 H   0  0  0  0  0  0  0  0  0  0  0  0
  146.4404  136.2225  163.4558 H   0  0  0  0  0  0  0  0  0  0  0  0
  145.5220  135.5383  162.1157 H   0  0  0  0  0  0  0  0  0  0  0  0
  148.0983  134.4985  163.3005 H   0  0  0  0  0  0  0  0  0  0  0  0
  146.6575  133.5719  162.8845 H   0  0  0  0  0  0  0  0  0  0  0  0
  147.1915  133.6360  160.5548 H   0  0  0  0  0  0  0  0  0  0  0  0
  148.8311  133.7015  161.2179 H   0  0  0  0  0  0  0  0  0  0  0  0
  152.5470  142.3467  160.1697 H   0  0  0  0  0  0  0  0  0  0  0  0
  150.4115  137.9301  159.9503 H   0  0  0  0  0  0  0  0  0  0  0  0
  1  2  1  0  0  0  0
  1 21  1  0  0  0  0
  1 22  1  0  0  0  0
  1 23  1  0  0  0  0
  2 20  2  0  0  0  0
  2  3  1  0  0  0  0
  3  4  2  0  0  0  0
  3 24  1  0  0  0  0
  4  5  1  0  0  0  0
  5  6  1  0  0  0  0
  5 20  1  0  0  0  0
  6  7  1  0  0  0  0
  6  8  1  0  0  0  0
  6 25  1  0  0  0  0
  7 26  1  0  0  0  0
  7 27  1  0  0  0  0
  7 28  1  0  0  0  0
  8  9  1  0  0  0  0
  8 10  1  0  0  0  0
  8 29  1  0  0  0  0
  9 30  1  0  0  0  0
  9 31  1  0  0  0  0
  9 32  1  0  0  0  0
 10 11  1  0  0  0  0
 10 33  1  0  0  0  0
 10 47  1  0  0  0  0
 11 12  1  0  0  0  0
 11 13  1  0  0  0  0
 11 34  1  0  0  0  0
 12 35  1  0  0  0  0
 12 36  1  0  0  0  0
 12 37  1  0  0  0  0
 13 14  2  0  0  0  0
 13 15  1  0  0  0  0
 15 19  1  0  0  0  0
 15 16  1  0  0  0  0
 16 17  1  0  0  0  0
 16 38  1  0  0  0  0
 16 39  1  0  0  0  0
 17 18  1  0  0  0  0
 17 40  1  0  0  0  0
 17 41  1  0  0  0  0
 18 19  1  0  0  0  0
 18 42  1  0  0  0  0
 18 43  1  0  0  0  0
 19 44  1  0  0  0  0
 19 45  1  0  0  0  0
 20 46  1  0  0  0  0
M  CHG  1  10   1
M  END
> <s_m_source_file>
AV-unprocessed.smi

> <i_m_source_file_index>
3335

> <i_lp_mmshare_version>
43012

> <i_f3d_flags>
0

> <s_epik_input>
W0NIM11jMVtjSF1ubihbY0hdMSlbQ0BIXShbQ0gzXSlbQ0BIXShbQ0gzXSlbTkhdW0NASF0oW0NIM10pQyg9TylOMltDSDJdW0NIMl1bQ0gyXVtDSDJdMg==

> <s_epik_cmdline>
J2VwaWtfcHl0aG9uJywgJy1waCcsICc3LjAnLCAnLXRuJywgJzgnLCAnLW1hJywgJzIwMCcsICctbWV0YWxfYmluZGluZycsICctaW1hZScsICc8aW5maWxlLm1hZT4nLCAnLW9tYWUnLCAnPG91dGZpbGUubWFlPic=

> <r_lp_tautomer_probability>
1

> <r_epik_Ionization_Penalty>
0.14175

> <r_epik_Ionization_Penalty_Charging>
0.141731

> <r_epik_Ionization_Penalty_Neutral>
1.91261e-05

> <r_epik_State_Penalty>
0.131043

> <r_epik_Charging_Adjusted_Penalty>
0.272773

> <i_epik_Tot_Q>
1

> <i_epik_Tot_abs_Q>
1

> <r_epik_Metal_State_Penalty>
0.131408

> <b_epik_Metal_Only>
0

> <s_lp_Force_Field>
OPLS_2005

> <r_lp_Energy>
35.1527

> <b_lp_Chiralities_Consistent>
1

> <s_lp_Variant>
AV-unprocessed.smi:3335-7

> <Gold.Version>
5.8.1

> <Gold.Id.Protein>
6NUR|6NUR_protein|mol2

> <Gold.PLP.Fitness>
43.4041

> <Gold.PLP.PLP>
-39.2951

> <Gold.PLP.part.hbond>
-1.0000

> <Gold.PLP.part.metal>
0.0000

> <Gold.PLP.part.buried>
-5.4040

> <Gold.PLP.part.nonpolar>
-33.5221

> <Gold.PLP.part.repulsive>
0.2501

> <Gold.PLP.ligand.clash>
0.0000

> <Gold.PLP.ligand.torsion>
0.9999

> <Gold.PLP.Chemscore.Hbond>
1.0000

> <Gold.PLP.Chemscore.CHOScore>
1.0000

> <Gold.PLP.Chemscore.Metal>
0.0000

> <Gold.Chemscore.Hbonds>
donor molecule, donor type, donor heavy atom, donor atom, acceptor molecule, acceptor atom, score
      P1  H  6896  6907       L1    14  1.00
      L1  C     3    24       P1  8028  1.00

> <Gold.PLP.Chemscore.Internal.Correction>
0.1087

> <Gold.Rescore>
     Score         DG    S(hbond)    S(metal)    S(lipo)     H(rot)  DE(clash)    DE(int)     intcor
     14.83     -16.85       0.97        0.00     106.10       1.68       0.05       1.96       ----

> <Gold.Chemscore.Fitness>
14.8296

> <Gold.Chemscore.DG>
-16.8479

> <Gold.Chemscore.ZeroCoef>
-5.4800

> <Gold.Chemscore.Hbond>
0.9728

> <Gold.Chemscore.Metal>
0.0000

> <Gold.Chemscore.Lipo>
106.1026

> <Gold.Chemscore.Internal_Hbond>
0.0000

> <Gold.Chemscore.DEClash>
0.0536

> <Gold.Chemscore.DEInternal>
1.9646

> <Gold.Chemscore.Rot>
1.6778

> <Gold.Chemscore.Internal.Correction>
   9.000000E+99

> <Gold.Chemscore.Hbonds>
donor molecule, donor type, donor heavy atom, donor atom, acceptor molecule, acceptor atom, score
      P1  H  6896  6907       L1    14  0.93

> <Gold.Chemscore.Hbond.Weighted>
-3.2491

> <Gold.Chemscore.Metal.Weighted>
-0.0000

> <Gold.Chemscore.Lipo.Weighted>
-12.4140

> <Gold.Chemscore.Internal_Hbond.Weighted>
0.0000

> <Gold.Chemscore.DEClash.Weighted>
0.0536

> <Gold.Chemscore.DEInternal.Weighted>
1.9646

> <Gold.Chemscore.Rot.Weighted>
4.2952

> <Gold.Chemscore.Internal.Correction.Weighted>
   9.000000E+99

> <Gold.Protein.RotatedTorsions>
[ 6907 6896 6895 6894 ] final  -96.37 input  -60.11 | X-H torsion
[ 7974 7965 7964 7962 ] final -167.11 input  175.53 | X-H torsion
[ 8008 7997 7996 7995 ] final   12.60 input   59.86 | X-H torsion
[ 10167 10162 10161 10158 ] final  -67.70 input  -65.29 | X-H torsion
[ 10718 10713 10712 10709 ] final  118.08 input   66.30 | X-H torsion
[ 10763 10752 10751 10750 ] final  -70.56 input  -60.55 | X-H torsion
[ 11005 11000 10999 10996 ] final    8.89 input  -57.11 | X-H torsion

> <Gold.Protein.ActiveResidues>
 VAL166  LYS551  ARG553  GLY616  TRP617  ASP618  TYR619  PRO620  LYS621  CYS622 
 ASP623  PHE694  ASN695  SER759  ASP760  ASP761  ALA762  ILE779  LEU786  VAL792 
 PHE793  MET794  SER795  GLU796  ALA797  LYS798  CYS799  TRP800  GLU811  SER814 

> <Gold.Protein.RotatedAtoms>
  150.6987  134.1513  159.4141 H   0  0  0  0  0  0  0  0  0  0  0  0  # atno 6907 bound_to 6896
  151.9495  135.0173  160.0550 H   0  0  0  0  0  0  0  0  0  0  0  0  # atno 6908 bound_to 6896
  152.2023  133.4815  159.5102 H   0  0  0  0  0  0  0  0  0  0  0  0  # atno 6909 bound_to 6896
  144.7230  140.2566  143.6271 H   0  0  0  0  0  0  0  0  0  0  0  0  # atno 7974 bound_to 7965
  154.8228  140.2887  155.5775 H   0  0  0  0  0  0  0  0  0  0  0  0  # atno 8008 bound_to 7997
  156.2999  140.2547  156.3069 H   0  0  0  0  0  0  0  0  0  0  0  0  # atno 8009 bound_to 7997
  154.9319  140.0383  157.2042 H   0  0  0  0  0  0  0  0  0  0  0  0  # atno 8010 bound_to 7997
  140.5563  143.2312  151.6814 H   0  0  0  0  0  0  0  0  0  0  0  0  # atno 10167 bound_to 10162
  157.6054  131.1044  150.7706 H   0  0  0  0  0  0  0  0  0  0  0  0  # atno 10718 bound_to 10713
  154.4194  135.5990  153.6000 H   0  0  0  0  0  0  0  0  0  0  0  0  # atno 10763 bound_to 10752
  152.9793  135.5948  154.3974 H   0  0  0  0  0  0  0  0  0  0  0  0  # atno 10764 bound_to 10752
  154.3797  135.2841  155.2197 H   0  0  0  0  0  0  0  0  0  0  0  0  # atno 10765 bound_to 10752
  140.5319  134.0458  155.7876 H   0  0  0  0  0  0  0  0  0  0  0  0  # atno 11005 bound_to 11000
  145.8176  139.2030  143.1957 LP  0  0  0  0  0  0  0  0  0  0  0  0  # atno 17320 bound_to 7965
  146.0542  140.8038  142.9767 LP  0  0  0  0  0  0  0  0  0  0  0  0  # atno 17321 bound_to 7965
  139.5049  144.3735  152.0447 LP  0  0  0  0  0  0  0  0  0  0  0  0  # atno 17342 bound_to 10162
  140.2857  144.3810  150.6104 LP  0  0  0  0  0  0  0  0  0  0  0  0  # atno 17343 bound_to 10162
  156.8095  130.4948  149.5358 LP  0  0  0  0  0  0  0  0  0  0  0  0  # atno 17370 bound_to 10713
  156.1139  130.6060  151.0090 LP  0  0  0  0  0  0  0  0  0  0  0  0  # atno 17371 bound_to 10713
  141.1276  133.9356  157.2602 LP  0  0  0  0  0  0  0  0  0  0  0  0  # atno 17394 bound_to 11000
  139.9550  135.0167  156.9101 LP  0  0  0  0  0  0  0  0  0  0  0  0  # atno 17395 bound_to 11000

$$$$
