AV-unprocessed.smi:2060|AV-procd|sdf|8359|dock7
  -GOLD-   2272011 33D 1   1.00000     0.00000
 Structure written by MMmdl.
 45 46  0  0  0  0  0  0  0  0  3 V2000
  144.8754  144.1682  154.0958 C   0  0  0  0  0  0  0  0  0  0  0  0
  145.8612  143.0105  153.8210 C   0  0  0  0  0  0  0  0  0  0  0  0
  146.0276  141.9032  154.9238 C   0  0  2  0  0  0  0  0  0  0  0  0
  146.3525  142.6216  156.2737 C   0  0  0  0  0  0  0  0  0  0  0  0
  147.2170  140.9244  154.5941 C   0  0  0  0  0  0  0  0  0  0  0  0
  148.4900  141.6493  154.4982 N   0  5  0  0  0  0  0  0  0  0  0  0
  149.6140  141.3370  155.1990 C   0  0  0  0  0  0  0  0  0  0  0  0
  150.4348  140.4474  154.9470 O   0  0  0  0  0  0  0  0  0  0  0  0
  149.7778  142.1284  156.2750 N   0  0  0  0  0  0  0  0  0  0  0  0
  150.8133  142.1053  157.2466 C   0  0  0  0  0  0  0  0  0  0  0  0
  151.0541  143.2337  158.0753 C   0  0  0  0  0  0  0  0  0  0  0  0
  152.1001  142.8273  158.8550 C   0  0  0  0  0  0  0  0  0  0  0  0
  152.8728  143.4908  159.9427 C   0  0  0  0  0  0  0  0  0  0  0  0
  152.4673  141.5580  158.5312 O   0  0  0  0  0  0  0  0  0  0  0  0
  151.6381  141.1001  157.5004 N   0  0  0  0  0  0  0  0  0  0  0  0
  144.7511  141.0857  155.0268 N   0  3  0  0  0  0  0  0  0  0  0  0
  144.8635  139.7313  155.6423 C   0  0  0  0  0  0  0  0  0  0  0  0
  143.5494  138.9471  155.4772 C   0  0  0  0  0  0  0  0  0  0  0  0
  142.4659  139.6742  156.0374 O   0  0  0  0  0  0  0  0  0  0  0  0
  142.2908  140.9268  155.3916 C   0  0  0  0  0  0  0  0  0  0  0  0
  143.5523  141.7774  155.5970 C   0  0  0  0  0  0  0  0  0  0  0  0
  144.8837  144.8741  153.2652 H   0  0  0  0  0  0  0  0  0  0  0  0
  145.1337  144.7294  154.9936 H   0  0  0  0  0  0  0  0  0  0  0  0
  143.8499  143.8150  154.1995 H   0  0  0  0  0  0  0  0  0  0  0  0
  145.5266  142.5311  152.9001 H   0  0  0  0  0  0  0  0  0  0  0  0
  146.8238  143.4613  153.5707 H   0  0  0  0  0  0  0  0  0  0  0  0
  147.3281  143.1125  156.2757 H   0  0  0  0  0  0  0  0  0  0  0  0
  146.3520  141.9396  157.1266 H   0  0  0  0  0  0  0  0  0  0  0  0
  145.6289  143.4083  156.4897 H   0  0  0  0  0  0  0  0  0  0  0  0
  147.2530  140.1543  155.3655 H   0  0  0  0  0  0  0  0  0  0  0  0
  146.9994  140.3889  153.6700 H   0  0  0  0  0  0  0  0  0  0  0  0
  149.0717  142.8364  156.4093 H   0  0  0  0  0  0  0  0  0  0  0  0
  150.5449  144.1858  158.0954 H   0  0  0  0  0  0  0  0  0  0  0  0
  152.4268  144.4493  160.2087 H   0  0  0  0  0  0  0  0  0  0  0  0
  153.9013  143.6715  159.6299 H   0  0  0  0  0  0  0  0  0  0  0  0
  152.8943  142.8682  160.8373 H   0  0  0  0  0  0  0  0  0  0  0  0
  145.6392  139.1308  155.1718 H   0  0  0  0  0  0  0  0  0  0  0  0
  145.1193  139.8254  156.6984 H   0  0  0  0  0  0  0  0  0  0  0  0
  143.3538  138.7382  154.4241 H   0  0  0  0  0  0  0  0  0  0  0  0
  143.6238  137.9835  155.9816 H   0  0  0  0  0  0  0  0  0  0  0  0
  142.0796  140.7856  154.3301 H   0  0  0  0  0  0  0  0  0  0  0  0
  141.4255  141.4275  155.8260 H   0  0  0  0  0  0  0  0  0  0  0  0
  143.6894  141.9514  156.6647 H   0  0  0  0  0  0  0  0  0  0  0  0
  143.3891  142.7508  155.1356 H   0  0  0  0  0  0  0  0  0  0  0  0
  144.5230  140.9081  154.0576 H   0  0  0  0  0  0  0  0  0  0  0  0
  1  2  1  0  0  0  0
  1 22  1  0  0  0  0
  1 23  1  0  0  0  0
  1 24  1  0  0  0  0
  2  3  1  0  0  0  0
  2 25  1  0  0  0  0
  2 26  1  0  0  0  0
  3  4  1  0  0  0  0
  3  5  1  0  0  0  0
  3 16  1  0  0  0  0
  4 27  1  0  0  0  0
  4 28  1  0  0  0  0
  4 29  1  0  0  0  0
  5  6  1  0  0  0  0
  5 30  1  0  0  0  0
  5 31  1  0  0  0  0
  6  7  1  0  0  0  0
  7  8  2  0  0  0  0
  7  9  1  0  0  0  0
  9 10  1  0  0  0  0
  9 32  1  0  0  0  0
 10 15  2  0  0  0  0
 10 11  1  0  0  0  0
 11 12  2  0  0  0  0
 11 33  1  0  0  0  0
 12 13  1  0  0  0  0
 12 14  1  0  0  0  0
 13 34  1  0  0  0  0
 13 35  1  0  0  0  0
 13 36  1  0  0  0  0
 14 15  1  0  0  0  0
 16 21  1  0  0  0  0
 16 17  1  0  0  0  0
 16 45  1  0  0  0  0
 17 18  1  0  0  0  0
 17 37  1  0  0  0  0
 17 38  1  0  0  0  0
 18 19  1  0  0  0  0
 18 39  1  0  0  0  0
 18 40  1  0  0  0  0
 19 20  1  0  0  0  0
 20 21  1  0  0  0  0
 20 41  1  0  0  0  0
 20 42  1  0  0  0  0
 21 43  1  0  0  0  0
 21 44  1  0  0  0  0
M  CHG  1   6  -1
M  CHG  1  16   1
M  END
> <s_m_source_file>
AV-unprocessed.smi

> <i_m_source_file_index>
2060

> <i_lp_mmshare_version>
43012

> <i_f3d_flags>
0

> <s_epik_input>
W0NIMl0xW0NIMl1PW0NIMl1bQ0gyXU4xW0NAQF0oW0NIM10pKFtDSDJdW0NIM10pW0NIMl1bTkhdQyg9TylbTkhdYzJbY0hdYyhbQ0gzXSlvbjI=

> <s_epik_cmdline>
J2VwaWtfcHl0aG9uJywgJy1waCcsICc3LjAnLCAnLXRuJywgJzgnLCAnLW1hJywgJzIwMCcsICctbWV0YWxfYmluZGluZycsICctaW1hZScsICc8aW5maWxlLm1hZT4nLCAnLW9tYWUnLCAnPG91dGZpbGUubWFlPic=

> <r_epik_Ionization_Penalty>
6.79469

> <r_epik_Ionization_Penalty_Charging>
6.79469

> <r_epik_Ionization_Penalty_Neutral>
5.68576e-06

> <r_epik_State_Penalty>
7.33145

> <r_epik_Charging_Adjusted_Penalty>
14.1261

> <i_epik_Tot_Q>
0

> <i_epik_Tot_abs_Q>
2

> <r_epik_Metal_State_Penalty>
3.24803

> <b_epik_Metal_Only>
1

> <s_lp_Force_Field>
OPLS_2005

> <r_lp_Energy>
28.6548

> <b_lp_Chiralities_Consistent>
1

> <s_lp_Variant>
AV-unprocessed.smi:2060-6

> <Gold.Version>
5.8.1

> <Gold.Id.Protein>
6NUR|6NUR_protein|mol2

> <Gold.PLP.Fitness>
40.5140

> <Gold.PLP.PLP>
-31.7408

> <Gold.PLP.part.hbond>
-3.0704

> <Gold.PLP.part.metal>
0.0000

> <Gold.PLP.part.buried>
-5.8769

> <Gold.PLP.part.nonpolar>
-23.9342

> <Gold.PLP.part.repulsive>
0.3797

> <Gold.PLP.ligand.clash>
0.0000

> <Gold.PLP.ligand.torsion>
1.2932

> <Gold.PLP.Chemscore.Hbond>
3.6880

> <Gold.PLP.Chemscore.CHOScore>
0.0000

> <Gold.PLP.Chemscore.Metal>
0.0000

> <Gold.Chemscore.Hbonds>
donor molecule, donor type, donor heavy atom, donor atom, acceptor molecule, acceptor atom, score
      L1  H     9    32       P1  8028  0.63
      L1  H    16    45       P1 10175  2.00
      P1  H  7989  7998       L1     8  1.00

> <Gold.PLP.Chemscore.Internal.Correction>
0.2956

> <Gold.Rescore>
     Score         DG    S(hbond)    S(metal)    S(lipo)     H(rot)  DE(clash)    DE(int)     intcor
     14.35     -16.84       2.48        0.00      64.23       1.73       0.02       2.46       ----

> <Gold.Chemscore.Fitness>
14.3526

> <Gold.Chemscore.DG>
-16.8373

> <Gold.Chemscore.ZeroCoef>
-5.4800

> <Gold.Chemscore.Hbond>
2.4759

> <Gold.Chemscore.Metal>
0.0000

> <Gold.Chemscore.Lipo>
64.2296

> <Gold.Chemscore.Internal_Hbond>
0.0000

> <Gold.Chemscore.DEClash>
0.0207

> <Gold.Chemscore.DEInternal>
2.4641

> <Gold.Chemscore.Rot>
1.7294

> <Gold.Chemscore.Internal.Correction>
   9.000000E+99

> <Gold.Chemscore.Hbonds>
donor molecule, donor type, donor heavy atom, donor atom, acceptor molecule, acceptor atom, score
      L1  H     9    32       P1  8028  0.59
      L1  H    16    45       P1 10175  0.93
      P1  H  7989  7998       L1     8  0.82

> <Gold.Chemscore.Hbond.Weighted>
-8.2697

> <Gold.Chemscore.Metal.Weighted>
-0.0000

> <Gold.Chemscore.Lipo.Weighted>
-7.5149

> <Gold.Chemscore.Internal_Hbond.Weighted>
0.0000

> <Gold.Chemscore.DEClash.Weighted>
0.0207

> <Gold.Chemscore.DEInternal.Weighted>
2.4641

> <Gold.Chemscore.Rot.Weighted>
4.4272

> <Gold.Chemscore.Internal.Correction.Weighted>
   9.000000E+99

> <Gold.Protein.RotatedTorsions>
[ 6907 6896 6895 6894 ] final  -46.15 input  -60.11 | X-H torsion
[ 7974 7965 7964 7962 ] final  -86.37 input  175.53 | X-H torsion
[ 8008 7997 7996 7995 ] final  -78.47 input   59.86 | X-H torsion
[ 10167 10162 10161 10158 ] final  -96.15 input  -65.29 | X-H torsion
[ 10718 10713 10712 10709 ] final -123.62 input   66.30 | X-H torsion
[ 10763 10752 10751 10750 ] final   85.17 input  -60.55 | X-H torsion
[ 11005 11000 10999 10996 ] final  102.68 input  -57.11 | X-H torsion

> <Gold.Protein.ActiveResidues>
 VAL166  LYS551  ARG553  GLY616  TRP617  ASP618  TYR619  PRO620  LYS621  CYS622 
 ASP623  PHE694  ASN695  SER759  ASP760  ASP761  ALA762  ILE779  LEU786  VAL792 
 PHE793  MET794  SER795  GLU796  ALA797  LYS798  CYS799  TRP800  GLU811  SER814 

> <Gold.Protein.RotatedAtoms>
  150.9143  134.8560  159.7445 H   0  0  0  0  0  0  0  0  0  0  0  0  # atno 6907 bound_to 6896
  152.4960  134.4313  159.9523 H   0  0  0  0  0  0  0  0  0  0  0  0  # atno 6908 bound_to 6896
  151.4352  133.3619  159.2809 H   0  0  0  0  0  0  0  0  0  0  0  0  # atno 6909 bound_to 6896
  145.4807  140.9557  143.1866 H   0  0  0  0  0  0  0  0  0  0  0  0  # atno 7974 bound_to 7965
  154.5693  140.0693  156.8939 H   0  0  0  0  0  0  0  0  0  0  0  0  # atno 8008 bound_to 7997
  155.2664  140.3362  155.4250 H   0  0  0  0  0  0  0  0  0  0  0  0  # atno 8009 bound_to 7997
  156.2105  140.1757  156.7690 H   0  0  0  0  0  0  0  0  0  0  0  0  # atno 8010 bound_to 7997
  140.2967  143.3187  152.0290 H   0  0  0  0  0  0  0  0  0  0  0  0  # atno 10167 bound_to 10162
  156.1517  130.6539  150.9923 H   0  0  0  0  0  0  0  0  0  0  0  0  # atno 10718 bound_to 10713
  153.1450  135.4627  154.9552 H   0  0  0  0  0  0  0  0  0  0  0  0  # atno 10763 bound_to 10752
  154.7778  135.3179  154.8056 H   0  0  0  0  0  0  0  0  0  0  0  0  # atno 10764 bound_to 10752
  153.8572  135.6916  153.4840 H   0  0  0  0  0  0  0  0  0  0  0  0  # atno 10765 bound_to 10752
  139.8779  134.9233  156.5095 H   0  0  0  0  0  0  0  0  0  0  0  0  # atno 11005 bound_to 11000
  144.7890  139.6366  143.7121 LP  0  0  0  0  0  0  0  0  0  0  0  0  # atno 17320 bound_to 7965
  146.2342  139.5873  142.9534 LP  0  0  0  0  0  0  0  0  0  0  0  0  # atno 17321 bound_to 7965
  139.4924  144.6485  151.6726 LP  0  0  0  0  0  0  0  0  0  0  0  0  # atno 17342 bound_to 10162
  140.5686  144.0148  150.6205 LP  0  0  0  0  0  0  0  0  0  0  0  0  # atno 17343 bound_to 10162
  157.6662  131.0871  150.7722 LP  0  0  0  0  0  0  0  0  0  0  0  0  # atno 17370 bound_to 10713
  156.7789  130.4853  149.5404 LP  0  0  0  0  0  0  0  0  0  0  0  0  # atno 17371 bound_to 10713
  140.8531  133.8117  155.9188 LP  0  0  0  0  0  0  0  0  0  0  0  0  # atno 17394 bound_to 11000
  140.9125  134.2243  157.4977 LP  0  0  0  0  0  0  0  0  0  0  0  0  # atno 17395 bound_to 11000

$$$$
