AV-unprocessed.smi:3046|AV-procd|sdf|11614|dock9
  -GOLD-   2272016593D 1   1.00000     0.00000
 Structure written by MMmdl.
 38 38  0  0  0  0  0  0  0  0  2 V2000
  145.8419  143.2795  153.8336 C   0  0  0  0  0  0  0  0  0  0  0  0
  146.8790  142.5167  154.2107 C   0  0  0  0  0  0  0  0  0  0  0  0
  146.7542  141.1057  154.7508 C   0  0  0  0  0  0  0  0  0  0  0  0
  146.2718  140.1838  153.7297 N   0  0  0  0  0  0  0  0  0  0  0  0
  146.7126  138.9287  153.5506 C   0  0  0  0  0  0  0  0  0  0  0  0
  147.5898  138.4146  154.2458 O   0  0  0  0  0  0  0  0  0  0  0  0
  146.0735  138.1378  152.4000 C   0  0  1  0  0  0  0  0  0  0  0  0
  146.4867  138.7514  151.0536 C   0  0  0  0  0  0  0  0  0  0  0  0
  146.4602  136.7062  152.4339 N   0  3  0  0  0  0  0  0  0  0  0  0
  145.6042  135.7768  151.6590 C   0  0  2  0  0  0  0  0  0  0  0  0
  144.1271  136.0714  151.9681 C   0  0  0  0  0  0  0  0  0  0  0  0
  145.9813  134.3062  151.9499 C   0  0  0  0  0  0  0  0  0  0  0  0
  145.2412  133.3630  151.1314 N   0  0  0  0  0  0  0  0  0  0  0  0
  145.7246  132.3197  150.3693 C   0  0  0  0  0  0  0  0  0  0  0  0
  144.6513  131.7212  149.7743 C   0  0  0  0  0  0  0  0  0  0  0  0
  143.5407  132.4836  150.2329 C   0  0  0  0  0  0  0  0  0  0  0  0
  143.8978  133.4678  151.0424 N   0  0  0  0  0  0  0  0  0  0  0  0
  144.8262  142.9162  153.8927 H   0  0  0  0  0  0  0  0  0  0  0  0
  145.9970  144.2811  153.4598 H   0  0  0  0  0  0  0  0  0  0  0  0
  147.8795  142.9187  154.1411 H   0  0  0  0  0  0  0  0  0  0  0  0
  147.7232  140.7799  155.1324 H   0  0  0  0  0  0  0  0  0  0  0  0
  146.0616  141.0883  155.5931 H   0  0  0  0  0  0  0  0  0  0  0  0
  145.5534  140.5304  153.1100 H   0  0  0  0  0  0  0  0  0  0  0  0
  144.9891  138.2146  152.4830 H   0  0  0  0  0  0  0  0  0  0  0  0
  146.2043  139.8034  150.9921 H   0  0  0  0  0  0  0  0  0  0  0  0
  146.0008  138.2364  150.2243 H   0  0  0  0  0  0  0  0  0  0  0  0
  147.5647  138.6874  150.8973 H   0  0  0  0  0  0  0  0  0  0  0  0
  147.4064  136.6147  152.0938 H   0  0  0  0  0  0  0  0  0  0  0  0
  145.7530  135.9756  150.5969 H   0  0  0  0  0  0  0  0  0  0  0  0
  143.4596  135.4639  151.3565 H   0  0  0  0  0  0  0  0  0  0  0  0
  143.8863  137.1156  151.7655 H   0  0  0  0  0  0  0  0  0  0  0  0
  143.8930  135.8728  153.0145 H   0  0  0  0  0  0  0  0  0  0  0  0
  147.0432  134.1306  151.7773 H   0  0  0  0  0  0  0  0  0  0  0  0
  145.7958  134.0711  152.9990 H   0  0  0  0  0  0  0  0  0  0  0  0
  146.7786  132.0901  150.3162 H   0  0  0  0  0  0  0  0  0  0  0  0
  144.6579  130.8695  149.1103 H   0  0  0  0  0  0  0  0  0  0  0  0
  142.4937  132.3528  150.0026 H   0  0  0  0  0  0  0  0  0  0  0  0
  146.4403  136.4194  153.4025 H   0  0  0  0  0  0  0  0  0  0  0  0
  1  2  2  0  0  0  0
  1 18  1  0  0  0  0
  1 19  1  0  0  0  0
  2  3  1  0  0  0  0
  2 20  1  0  0  0  0
  3  4  1  0  0  0  0
  3 21  1  0  0  0  0
  3 22  1  0  0  0  0
  4  5  1  0  0  0  0
  4 23  1  0  0  0  0
  5  6  2  0  0  0  0
  5  7  1  0  0  0  0
  7  8  1  0  0  0  0
  7  9  1  0  0  0  0
  7 24  1  0  0  0  0
  8 25  1  0  0  0  0
  8 26  1  0  0  0  0
  8 27  1  0  0  0  0
  9 10  1  0  0  0  0
  9 28  1  0  0  0  0
  9 38  1  0  0  0  0
 10 11  1  0  0  0  0
 10 12  1  0  0  0  0
 10 29  1  0  0  0  0
 11 30  1  0  0  0  0
 11 31  1  0  0  0  0
 11 32  1  0  0  0  0
 12 13  1  0  0  0  0
 12 33  1  0  0  0  0
 12 34  1  0  0  0  0
 13 17  1  0  0  0  0
 13 14  1  0  0  0  0
 14 15  2  0  0  0  0
 14 35  1  0  0  0  0
 15 16  1  0  0  0  0
 15 36  1  0  0  0  0
 16 17  2  0  0  0  0
 16 37  1  0  0  0  0
M  CHG  1   9   1
M  END
> <s_m_source_file>
AV-unprocessed.smi

> <i_m_source_file_index>
3046

> <i_lp_mmshare_version>
43012

> <i_f3d_flags>
0

> <s_epik_input>
W0NIMl09W0NIXVtDSDJdW05IXUMoPU8pW0NASF0oW0NIM10pW05IXVtDQEhdKFtDSDNdKVtDSDJdbjFbY0hdW2NIXVtjSF1uMQ==

> <s_epik_cmdline>
J2VwaWtfcHl0aG9uJywgJy1waCcsICc3LjAnLCAnLXRuJywgJzgnLCAnLW1hJywgJzIwMCcsICctbWV0YWxfYmluZGluZycsICctaW1hZScsICc8aW5maWxlLm1hZT4nLCAnLW9tYWUnLCAnPG91dGZpbGUubWFlPic=

> <r_lp_tautomer_probability>
1

> <r_epik_Ionization_Penalty>
0.132961

> <r_epik_Ionization_Penalty_Charging>
0.132956

> <r_epik_Ionization_Penalty_Neutral>
5.00268e-06

> <r_epik_State_Penalty>
0.122332

> <r_epik_Charging_Adjusted_Penalty>
0.255288

> <i_epik_Tot_Q>
1

> <i_epik_Tot_abs_Q>
1

> <r_epik_Metal_State_Penalty>
0.122338

> <b_epik_Metal_Only>
0

> <s_lp_Force_Field>
OPLS_2005

> <r_lp_Energy>
6.33671

> <b_lp_Chiralities_Consistent>
1

> <s_lp_Variant>
AV-unprocessed.smi:3046-2

> <Gold.Version>
5.8.1

> <Gold.Id.Protein>
6NUR|6NUR_protein|mol2

> <Gold.PLP.Fitness>
48.0753

> <Gold.PLP.PLP>
-32.9198

> <Gold.PLP.part.hbond>
-2.0000

> <Gold.PLP.part.metal>
0.0000

> <Gold.PLP.part.buried>
-0.5871

> <Gold.PLP.part.nonpolar>
-32.0535

> <Gold.PLP.part.repulsive>
0.3536

> <Gold.PLP.ligand.clash>
0.0000

> <Gold.PLP.ligand.torsion>
0.6270

> <Gold.PLP.Chemscore.Hbond>
2.9920

> <Gold.PLP.Chemscore.CHOScore>
2.4646

> <Gold.PLP.Chemscore.Metal>
0.0000

> <Gold.Chemscore.Hbonds>
donor molecule, donor type, donor heavy atom, donor atom, acceptor molecule, acceptor atom, score
      L1  H     4    23       P1 10175  1.00
      L1  H     9    28       P1  7948  2.00
      L1  C    14    35       P1 10747  1.00
      L1  C    16    37       P1 10186  0.71
      L1  C    16    37       P1 10952  0.73

> <Gold.PLP.Chemscore.Internal.Correction>
0.0397

> <Gold.Rescore>
     Score         DG    S(hbond)    S(metal)    S(lipo)     H(rot)  DE(clash)    DE(int)     intcor
     13.53     -15.97       1.94        0.00      83.90       2.26       0.49       1.96       ----

> <Gold.Chemscore.Fitness>
13.5274

> <Gold.Chemscore.DG>
-15.9697

> <Gold.Chemscore.ZeroCoef>
-5.4800

> <Gold.Chemscore.Hbond>
1.9359

> <Gold.Chemscore.Metal>
0.0000

> <Gold.Chemscore.Lipo>
83.8971

> <Gold.Chemscore.Internal_Hbond>
0.0000

> <Gold.Chemscore.DEClash>
0.4871

> <Gold.Chemscore.DEInternal>
1.9552

> <Gold.Chemscore.Rot>
2.2626

> <Gold.Chemscore.Internal.Correction>
   9.000000E+99

> <Gold.Chemscore.Hbonds>
donor molecule, donor type, donor heavy atom, donor atom, acceptor molecule, acceptor atom, score
      L1  H     4    23       P1 10175  0.82
      L1  H     9    28       P1  7948  0.98

> <Gold.Chemscore.Hbond.Weighted>
-6.4659

> <Gold.Chemscore.Metal.Weighted>
-0.0000

> <Gold.Chemscore.Lipo.Weighted>
-9.8160

> <Gold.Chemscore.Internal_Hbond.Weighted>
0.0000

> <Gold.Chemscore.DEClash.Weighted>
0.4871

> <Gold.Chemscore.DEInternal.Weighted>
1.9552

> <Gold.Chemscore.Rot.Weighted>
5.7922

> <Gold.Chemscore.Internal.Correction.Weighted>
   9.000000E+99

> <Gold.Protein.RotatedTorsions>
[ 6907 6896 6895 6894 ] final -164.14 input  -60.11 | X-H torsion
[ 7974 7965 7964 7962 ] final  126.60 input  175.53 | X-H torsion
[ 8008 7997 7996 7995 ] final  157.36 input   59.86 | X-H torsion
[ 10167 10162 10161 10158 ] final  153.80 input  -65.29 | X-H torsion
[ 10718 10713 10712 10709 ] final -123.49 input   66.30 | X-H torsion
[ 10763 10752 10751 10750 ] final -158.81 input  -60.55 | X-H torsion
[ 11005 11000 10999 10996 ] final -126.82 input  -57.11 | X-H torsion

> <Gold.Protein.ActiveResidues>
 VAL166  LYS551  ARG553  GLY616  TRP617  ASP618  TYR619  PRO620  LYS621  CYS622 
 ASP623  PHE694  ASN695  SER759  ASP760  ASP761  ALA762  ILE779  LEU786  VAL792 
 PHE793  MET794  SER795  GLU796  ALA797  LYS798  CYS799  TRP800  GLU811  SER814 

> <Gold.Protein.RotatedAtoms>
  151.4071  133.3739  159.2739 H   0  0  0  0  0  0  0  0  0  0  0  0  # atno 6907 bound_to 6896
  150.9391  134.8802  159.7611 H   0  0  0  0  0  0  0  0  0  0  0  0  # atno 6908 bound_to 6896
  152.5063  134.4020  159.9472 H   0  0  0  0  0  0  0  0  0  0  0  0  # atno 6909 bound_to 6896
  145.0599  139.3813  143.5011 H   0  0  0  0  0  0  0  0  0  0  0  0  # atno 7974 bound_to 7965
  156.2368  140.1887  156.7097 H   0  0  0  0  0  0  0  0  0  0  0  0  # atno 8008 bound_to 7997
  154.6122  140.0620  156.9535 H   0  0  0  0  0  0  0  0  0  0  0  0  # atno 8009 bound_to 7997
  155.1998  140.3291  155.4347 H   0  0  0  0  0  0  0  0  0  0  0  0  # atno 8010 bound_to 7997
  139.4825  144.5242  151.7828 H   0  0  0  0  0  0  0  0  0  0  0  0  # atno 10167 bound_to 10162
  156.1506  130.6532  150.9908 H   0  0  0  0  0  0  0  0  0  0  0  0  # atno 10718 bound_to 10713
  154.7526  135.3096  154.8529 H   0  0  0  0  0  0  0  0  0  0  0  0  # atno 10763 bound_to 10752
  153.9312  135.6785  153.4749 H   0  0  0  0  0  0  0  0  0  0  0  0  # atno 10764 bound_to 10752
  153.1122  135.4861  154.8984 H   0  0  0  0  0  0  0  0  0  0  0  0  # atno 10765 bound_to 10752
  140.9650  134.0884  157.3929 H   0  0  0  0  0  0  0  0  0  0  0  0  # atno 11005 bound_to 11000
  146.3524  140.0293  142.8652 LP  0  0  0  0  0  0  0  0  0  0  0  0  # atno 17320 bound_to 7965
  145.1421  140.9577  143.4482 LP  0  0  0  0  0  0  0  0  0  0  0  0  # atno 17321 bound_to 7965
  140.4760  144.1519  150.5925 LP  0  0  0  0  0  0  0  0  0  0  0  0  # atno 17342 bound_to 10162
  140.4330  143.2559  151.9570 LP  0  0  0  0  0  0  0  0  0  0  0  0  # atno 17343 bound_to 10162
  157.6654  131.0872  150.7741 LP  0  0  0  0  0  0  0  0  0  0  0  0  # atno 17370 bound_to 10713
  156.7809  130.4859  149.5401 LP  0  0  0  0  0  0  0  0  0  0  0  0  # atno 17371 bound_to 10713
  139.8891  135.0103  156.6661 LP  0  0  0  0  0  0  0  0  0  0  0  0  # atno 17394 bound_to 11000
  140.7412  133.8976  155.8279 LP  0  0  0  0  0  0  0  0  0  0  0  0  # atno 17395 bound_to 11000

$$$$
