AV-unprocessed.smi:1005|AV-procd|sdf|4370|dock1
  -GOLD-   22720 2283D 1   1.00000     0.00000
 Structure written by MMmdl.
 57 59  0  0  0  0  0  0  0  0  3 V2000
  154.2878  141.4352  161.4595 C   0  0  0  0  0  0  0  0  0  0  0  0
  153.4080  141.5203  160.2247 C   0  0  0  0  0  0  0  0  0  0  0  0
  153.5267  140.5269  159.2266 C   0  0  0  0  0  0  0  0  0  0  0  0
  152.7271  140.5688  158.0636 C   0  0  0  0  0  0  0  0  0  0  0  0
  152.6661  139.7084  156.9810 N   0  0  0  0  0  0  0  0  0  0  0  0
  151.7220  140.2771  156.2368 C   0  0  0  0  0  0  0  0  0  0  0  0
  151.1572  141.4028  156.7138 N   0  0  0  0  0  0  0  0  0  0  0  0
  150.0958  142.1779  156.0959 C   0  0  0  0  0  0  0  0  0  0  0  0
  149.6493  141.6008  154.7354 C   0  0  2  0  0  0  0  0  0  0  0  0
  148.9330  142.6110  154.0547 O   0  0  0  0  0  0  0  0  0  0  0  0
  148.7543  140.3481  154.8675 C   0  0  0  0  0  0  0  0  0  0  0  0
  149.0588  139.2813  153.8764 N   0  3  1  0  0  0  0  0  0  0  0  0
  150.2335  138.4326  154.2041 C   0  0  0  0  0  0  0  0  0  0  0  0
  149.8995  137.3969  155.2953 C   0  0  0  0  0  0  0  0  0  0  0  0
  148.7621  136.6340  154.9062 O   0  0  0  0  0  0  0  0  0  0  0  0
  147.6007  137.4358  154.7224 C   0  0  2  0  0  0  0  0  0  0  0  0
  146.4202  136.4910  154.4242 C   0  0  0  0  0  0  0  0  0  0  0  0
  146.4844  135.8688  153.0753 N   0  3  0  0  0  0  0  0  0  0  0  0
  146.2185  134.4139  153.1266 C   0  0  0  0  0  0  0  0  0  0  0  0
  145.6277  136.5398  152.0690 C   0  0  0  0  0  0  0  0  0  0  0  0
  147.8826  138.4295  153.5716 C   0  0  0  0  0  0  0  0  0  0  0  0
  151.8012  141.6432  157.9238 C   0  0  0  0  0  0  0  0  0  0  0  0
  151.6783  142.6413  158.9074 C   0  0  0  0  0  0  0  0  0  0  0  0
  152.4790  142.5798  160.0666 C   0  0  0  0  0  0  0  0  0  0  0  0
  152.3313  143.6565  161.1270 C   0  0  0  0  0  0  0  0  0  0  0  0
  154.9635  140.5808  161.4093 H   0  0  0  0  0  0  0  0  0  0  0  0
  153.6781  141.3268  162.3566 H   0  0  0  0  0  0  0  0  0  0  0  0
  154.8951  142.3351  161.5592 H   0  0  0  0  0  0  0  0  0  0  0  0
  154.2342  139.7196  159.3476 H   0  0  0  0  0  0  0  0  0  0  0  0
  151.4154  139.8452  155.2950 H   0  0  0  0  0  0  0  0  0  0  0  0
  149.2544  142.2140  156.7896 H   0  0  0  0  0  0  0  0  0  0  0  0
  150.4427  143.2056  155.9763 H   0  0  0  0  0  0  0  0  0  0  0  0
  150.5417  141.3681  154.1554 H   0  0  0  0  0  0  0  0  0  0  0  0
  148.7562  143.3182  154.6567 H   0  0  0  0  0  0  0  0  0  0  0  0
  148.8345  139.9282  155.8683 H   0  0  0  0  0  0  0  0  0  0  0  0
  147.7154  140.6597  154.7503 H   0  0  0  0  0  0  0  0  0  0  0  0
  150.5304  137.9060  153.2961 H   0  0  0  0  0  0  0  0  0  0  0  0
  151.0934  139.0338  154.4944 H   0  0  0  0  0  0  0  0  0  0  0  0
  150.7422  136.7200  155.4350 H   0  0  0  0  0  0  0  0  0  0  0  0
  149.7225  137.8751  156.2596 H   0  0  0  0  0  0  0  0  0  0  0  0
  147.4091  137.9689  155.6534 H   0  0  0  0  0  0  0  0  0  0  0  0
  146.4048  135.7085  155.1845 H   0  0  0  0  0  0  0  0  0  0  0  0
  145.4760  137.0292  154.5220 H   0  0  0  0  0  0  0  0  0  0  0  0
  145.2035  134.2138  153.4723 H   0  0  0  0  0  0  0  0  0  0  0  0
  146.9145  133.9148  153.8017 H   0  0  0  0  0  0  0  0  0  0  0  0
  146.3391  133.9636  152.1408 H   0  0  0  0  0  0  0  0  0  0  0  0
  144.5816  136.5331  152.3776 H   0  0  0  0  0  0  0  0  0  0  0  0
  145.6982  136.0329  151.1061 H   0  0  0  0  0  0  0  0  0  0  0  0
  145.9309  137.5731  151.9045 H   0  0  0  0  0  0  0  0  0  0  0  0
  147.0110  139.0523  153.3679 H   0  0  0  0  0  0  0  0  0  0  0  0
  148.0846  137.8787  152.6521 H   0  0  0  0  0  0  0  0  0  0  0  0
  150.9704  143.4456  158.7736 H   0  0  0  0  0  0  0  0  0  0  0  0
  151.5293  144.3523  160.8791 H   0  0  0  0  0  0  0  0  0  0  0  0
  153.2552  144.2277  161.2196 H   0  0  0  0  0  0  0  0  0  0  0  0
  152.0996  143.2131  162.0955 H   0  0  0  0  0  0  0  0  0  0  0  0
  147.4380  135.9624  152.7558 H   0  0  0  0  0  0  0  0  0  0  0  0
  149.2853  139.7722  153.0225 H   0  0  0  0  0  0  0  0  0  0  0  0
  1  2  1  0  0  0  0
  1 26  1  0  0  0  0
  1 27  1  0  0  0  0
  1 28  1  0  0  0  0
  2 24  1  0  0  0  0
  2  3  2  0  0  0  0
  3  4  1  0  0  0  0
  3 29  1  0  0  0  0
  4 22  2  0  0  0  0
  4  5  1  0  0  0  0
  5  6  2  0  0  0  0
  6  7  1  0  0  0  0
  6 30  1  0  0  0  0
  7  8  1  0  0  0  0
  7 22  1  0  0  0  0
  8  9  1  0  0  0  0
  8 31  1  0  0  0  0
  8 32  1  0  0  0  0
  9 10  1  0  0  0  0
  9 11  1  0  0  0  0
  9 33  1  0  0  0  0
 10 34  1  0  0  0  0
 11 12  1  0  0  0  0
 11 35  1  0  0  0  0
 11 36  1  0  0  0  0
 12 21  1  0  0  0  0
 12 13  1  0  0  0  0
 12 57  1  0  0  0  0
 13 14  1  0  0  0  0
 13 37  1  0  0  0  0
 13 38  1  0  0  0  0
 14 15  1  0  0  0  0
 14 39  1  0  0  0  0
 14 40  1  0  0  0  0
 15 16  1  0  0  0  0
 16 17  1  0  0  0  0
 16 21  1  0  0  0  0
 16 41  1  0  0  0  0
 17 18  1  0  0  0  0
 17 42  1  0  0  0  0
 17 43  1  0  0  0  0
 18 19  1  0  0  0  0
 18 20  1  0  0  0  0
 18 56  1  0  0  0  0
 19 44  1  0  0  0  0
 19 45  1  0  0  0  0
 19 46  1  0  0  0  0
 20 47  1  0  0  0  0
 20 48  1  0  0  0  0
 20 49  1  0  0  0  0
 21 50  1  0  0  0  0
 21 51  1  0  0  0  0
 22 23  1  0  0  0  0
 23 24  2  0  0  0  0
 23 52  1  0  0  0  0
 24 25  1  0  0  0  0
 25 53  1  0  0  0  0
 25 54  1  0  0  0  0
 25 55  1  0  0  0  0
M  CHG  1  12   1
M  CHG  1  18   1
M  END
> <s_m_source_file>
AV-unprocessed.smi

> <i_m_source_file_index>
1005

> <i_lp_mmshare_version>
43012

> <i_f3d_flags>
0

> <s_epik_input>
W0NIM11jKFtjSF0xKWMoW0NIM10pW2NIXWMoYzEyKW4oW2NIXW4yKVtDSDJdW0NASF0oW09IXSlbQ0gyXU4zW0NIMl1bQ0gyXU9bQ0BIXShbQ0gyXTMpW0NIMl1OKFtDSDNdKVtDSDNd

> <s_epik_cmdline>
J2VwaWtfcHl0aG9uJywgJy1waCcsICc3LjAnLCAnLXRuJywgJzgnLCAnLW1hJywgJzIwMCcsICctbWV0YWxfYmluZGluZycsICctaW1hZScsICc8aW5maWxlLm1hZT4nLCAnLW9tYWUnLCAnPG91dGZpbGUubWFlPic=

> <r_epik_Ionization_Penalty>
1.0968

> <r_epik_Ionization_Penalty_Charging>
1.0096

> <r_epik_Ionization_Penalty_Neutral>
0.0871956

> <r_epik_State_Penalty>
1.31185

> <r_epik_Charging_Adjusted_Penalty>
2.32145

> <i_epik_Tot_Q>
2

> <i_epik_Tot_abs_Q>
2

> <r_epik_Metal_State_Penalty>
1.22442

> <b_epik_Metal_Only>
0

> <s_lp_Force_Field>
OPLS_2005

> <r_lp_Energy>
36.3086

> <b_lp_Chiralities_Consistent>
1

> <s_lp_Variant>
AV-unprocessed.smi:1005-9

> <Gold.Version>
5.8.1

> <Gold.Id.Protein>
6NUR|6NUR_protein|mol2

> <Gold.PLP.Fitness>
54.4380

> <Gold.PLP.PLP>
-42.4930

> <Gold.PLP.part.hbond>
-5.5201

> <Gold.PLP.part.metal>
0.0000

> <Gold.PLP.part.buried>
3.4324

> <Gold.PLP.part.nonpolar>
-38.5592

> <Gold.PLP.part.repulsive>
0.5000

> <Gold.PLP.ligand.clash>
0.0000

> <Gold.PLP.ligand.torsion>
1.6449

> <Gold.PLP.Chemscore.Hbond>
5.0234

> <Gold.PLP.Chemscore.CHOScore>
0.0000

> <Gold.PLP.Chemscore.Metal>
0.0000

> <Gold.Chemscore.Hbonds>
donor molecule, donor type, donor heavy atom, donor atom, acceptor molecule, acceptor atom, score
      L1  H    10    34       P1  8028  1.00
      L1  H    12    57       P1  7957  1.00
      L1  H    18    56       P1  7948  2.00
      P1  H  7997  8008       L1     5  0.75
      P1  H  8011  8017       L1    10  0.06

> <Gold.PLP.Chemscore.Internal.Correction>
0.1645

> <Gold.Rescore>
     Score         DG    S(hbond)    S(metal)    S(lipo)     H(rot)  DE(clash)    DE(int)     intcor
     22.14     -25.96       3.62        0.00     125.90       2.48       2.29       1.53       ----

> <Gold.Chemscore.Fitness>
22.1389

> <Gold.Chemscore.DG>
-25.9630

> <Gold.Chemscore.ZeroCoef>
-5.4800

> <Gold.Chemscore.Hbond>
3.6242

> <Gold.Chemscore.Metal>
0.0000

> <Gold.Chemscore.Lipo>
125.9014

> <Gold.Chemscore.Internal_Hbond>
0.0000

> <Gold.Chemscore.DEClash>
2.2926

> <Gold.Chemscore.DEInternal>
1.5315

> <Gold.Chemscore.Rot>
2.4814

> <Gold.Chemscore.Internal.Correction>
   9.000000E+99

> <Gold.Chemscore.Hbonds>
donor molecule, donor type, donor heavy atom, donor atom, acceptor molecule, acceptor atom, score
      L1  H    10    34       P1  8028  1.00
      L1  H    12    57       P1  7957  0.99
      L1  H    18    56       P1  7948  1.00
      P1  H  7997  8008       L1     5  0.07
      P1  H  8011  8017       L1    10  0.02

> <Gold.Chemscore.Hbond.Weighted>
-12.1049

> <Gold.Chemscore.Metal.Weighted>
-0.0000

> <Gold.Chemscore.Lipo.Weighted>
-14.7305

> <Gold.Chemscore.Internal_Hbond.Weighted>
0.0000

> <Gold.Chemscore.DEClash.Weighted>
2.2926

> <Gold.Chemscore.DEInternal.Weighted>
1.5315

> <Gold.Chemscore.Rot.Weighted>
6.3524

> <Gold.Chemscore.Internal.Correction.Weighted>
   9.000000E+99

> <Gold.Protein.RotatedTorsions>
[ 6907 6896 6895 6894 ] final  -62.37 input  -60.11 | X-H torsion
[ 7974 7965 7964 7962 ] final -148.48 input  175.53 | X-H torsion
[ 8008 7997 7996 7995 ] final  -41.99 input   59.86 | X-H torsion
[ 10167 10162 10161 10158 ] final   19.53 input  -65.29 | X-H torsion
[ 10718 10713 10712 10709 ] final   60.52 input   66.30 | X-H torsion
[ 10763 10752 10751 10750 ] final -110.33 input  -60.55 | X-H torsion
[ 11005 11000 10999 10996 ] final  -93.70 input  -57.11 | X-H torsion

> <Gold.Protein.ActiveResidues>
 VAL166  LYS551  ARG553  GLY616  TRP617  ASP618  TYR619  PRO620  LYS621  CYS622 
 ASP623  PHE694  ASN695  SER759  ASP760  ASP761  ALA762  ILE779  LEU786  VAL792 
 PHE793  MET794  SER795  GLU796  ALA797  LYS798  CYS799  TRP800  GLU811  SER814 

> <Gold.Protein.RotatedAtoms>
  150.7720  134.6580  159.6323 H   0  0  0  0  0  0  0  0  0  0  0  0  # atno 6907 bound_to 6896
  152.3777  134.6636  160.0163 H   0  0  0  0  0  0  0  0  0  0  0  0  # atno 6908 bound_to 6896
  151.6975  133.3274  159.3294 H   0  0  0  0  0  0  0  0  0  0  0  0  # atno 6909 bound_to 6896
  144.8027  140.5191  143.5696 H   0  0  0  0  0  0  0  0  0  0  0  0  # atno 7974 bound_to 7965
  154.4001  140.1485  156.3282 H   0  0  0  0  0  0  0  0  0  0  0  0  # atno 8008 bound_to 7997
  155.8468  140.3459  155.5646 H   0  0  0  0  0  0  0  0  0  0  0  0  # atno 8009 bound_to 7997
  155.8028  140.0872  157.1938 H   0  0  0  0  0  0  0  0  0  0  0  0  # atno 8010 bound_to 7997
  140.5572  143.9403  150.6617 H   0  0  0  0  0  0  0  0  0  0  0  0  # atno 10167 bound_to 10162
  157.5759  130.8943  149.9346 H   0  0  0  0  0  0  0  0  0  0  0  0  # atno 10718 bound_to 10713
  154.8242  135.4568  154.0869 H   0  0  0  0  0  0  0  0  0  0  0  0  # atno 10763 bound_to 10752
  153.2197  135.6892  153.8021 H   0  0  0  0  0  0  0  0  0  0  0  0  # atno 10764 bound_to 10752
  153.7442  135.3308  155.3286 H   0  0  0  0  0  0  0  0  0  0  0  0  # atno 10765 bound_to 10752
  141.1490  133.7905  157.0195 H   0  0  0  0  0  0  0  0  0  0  0  0  # atno 11005 bound_to 11000
  145.5514  139.1477  143.3392 LP  0  0  0  0  0  0  0  0  0  0  0  0  # atno 17320 bound_to 7965
  146.2312  140.5652  142.8975 LP  0  0  0  0  0  0  0  0  0  0  0  0  # atno 17321 bound_to 7965
  140.2845  143.3367  152.1120 LP  0  0  0  0  0  0  0  0  0  0  0  0  # atno 17342 bound_to 10162
  139.5053  144.6792  151.6051 LP  0  0  0  0  0  0  0  0  0  0  0  0  # atno 17343 bound_to 10162
  156.0804  130.3674  150.0593 LP  0  0  0  0  0  0  0  0  0  0  0  0  # atno 17370 bound_to 10713
  156.8739  130.9533  151.3606 LP  0  0  0  0  0  0  0  0  0  0  0  0  # atno 17371 bound_to 10713
  140.0825  134.9640  157.1646 LP  0  0  0  0  0  0  0  0  0  0  0  0  # atno 17394 bound_to 11000
  140.3557  134.2549  155.7193 LP  0  0  0  0  0  0  0  0  0  0  0  0  # atno 17395 bound_to 11000

$$$$
