AV-unprocessed.smi:3316|AV-procd|sdf|12755|dock7
  -GOLD-   2272019 93D 1   1.00000     0.00000
 Structure written by MMmdl.
 41 43  0  0  0  0  0  0  0  0  2 V2000
  148.2478  140.5276  153.2051 C   0  0  0  0  0  0  0  0  0  0  0  0
  148.3590  141.6008  154.2991 C   0  0  2  0  0  0  0  0  0  0  0  0
  149.3503  141.1809  155.4022 C   0  0  0  0  0  0  0  0  0  0  0  0
  149.5984  142.2803  156.3577 N   0  3  0  0  0  0  0  0  0  0  0  0
  150.8726  142.1657  157.0938 C   0  0  0  0  0  0  0  0  0  0  0  0
  150.8694  143.0460  158.3659 C   0  0  1  0  0  0  0  0  0  0  0  0
  152.0283  142.7254  159.3669 C   0  0  0  0  0  0  0  0  0  0  0  0
  152.7418  144.0866  159.5311 C   0  0  2  0  0  0  0  0  0  0  0  0
  151.7836  145.0394  160.2128 C   0  0  0  0  0  0  0  0  0  0  0  0
  150.8154  145.3199  159.3392 C   0  0  0  0  0  0  0  0  0  0  0  0
  151.1166  144.5496  158.0700 C   0  0  1  0  0  0  0  0  0  0  0  0
  152.6496  144.5967  158.0904 C   0  0  0  0  0  0  0  0  0  0  0  0
  146.9884  141.9545  154.8648 C   0  0  0  0  0  0  0  0  0  0  0  0
  146.0147  142.5727  154.0518 C   0  0  0  0  0  0  0  0  0  0  0  0
  144.7645  142.8912  154.6195 C   0  0  0  0  0  0  0  0  0  0  0  0
  144.4494  142.6384  155.9077 N   0  0  0  0  0  0  0  0  0  0  0  0
  145.3827  142.0451  156.6815 C   0  0  0  0  0  0  0  0  0  0  0  0
  146.6617  141.6851  156.2118 C   0  0  0  0  0  0  0  0  0  0  0  0
  147.5889  140.8560  152.4006 H   0  0  0  0  0  0  0  0  0  0  0  0
  147.8510  139.5912  153.5985 H   0  0  0  0  0  0  0  0  0  0  0  0
  149.2219  140.3138  152.7639 H   0  0  0  0  0  0  0  0  0  0  0  0
  148.7612  142.4967  153.8237 H   0  0  0  0  0  0  0  0  0  0  0  0
  148.9720  140.3116  155.9417 H   0  0  0  0  0  0  0  0  0  0  0  0
  150.3005  140.8858  154.9550 H   0  0  0  0  0  0  0  0  0  0  0  0
  149.5939  143.1554  155.8533 H   0  0  0  0  0  0  0  0  0  0  0  0
  151.0357  141.1161  157.3391 H   0  0  0  0  0  0  0  0  0  0  0  0
  151.6878  142.4538  156.4285 H   0  0  0  0  0  0  0  0  0  0  0  0
  149.9109  142.9394  158.8785 H   0  0  0  0  0  0  0  0  0  0  0  0
  151.6532  142.3471  160.3187 H   0  0  0  0  0  0  0  0  0  0  0  0
  152.7250  141.9838  158.9746 H   0  0  0  0  0  0  0  0  0  0  0  0
  153.7448  144.0599  159.9573 H   0  0  0  0  0  0  0  0  0  0  0  0
  151.8773  145.3853  161.2317 H   0  0  0  0  0  0  0  0  0  0  0  0
  149.9465  145.9428  159.4920 H   0  0  0  0  0  0  0  0  0  0  0  0
  150.6445  144.9570  157.1756 H   0  0  0  0  0  0  0  0  0  0  0  0
  153.0471  145.6069  157.9705 H   0  0  0  0  0  0  0  0  0  0  0  0
  153.1266  143.9428  157.3578 H   0  0  0  0  0  0  0  0  0  0  0  0
  146.2134  142.7995  153.0145 H   0  0  0  0  0  0  0  0  0  0  0  0
  143.9984  143.3642  154.0233 H   0  0  0  0  0  0  0  0  0  0  0  0
  145.1038  141.8534  157.7071 H   0  0  0  0  0  0  0  0  0  0  0  0
  147.3701  141.2122  156.8759 H   0  0  0  0  0  0  0  0  0  0  0  0
  148.8440  142.2921  157.0297 H   0  0  0  0  0  0  0  0  0  0  0  0
  1  2  1  0  0  0  0
  1 19  1  0  0  0  0
  1 20  1  0  0  0  0
  1 21  1  0  0  0  0
  2  3  1  0  0  0  0
  2 13  1  0  0  0  0
  2 22  1  0  0  0  0
  3  4  1  0  0  0  0
  3 23  1  0  0  0  0
  3 24  1  0  0  0  0
  4  5  1  0  0  0  0
  4 25  1  0  0  0  0
  4 41  1  0  0  0  0
  5  6  1  0  0  0  0
  5 26  1  0  0  0  0
  5 27  1  0  0  0  0
  6 11  1  0  0  0  0
  6  7  1  0  0  0  0
  6 28  1  0  0  0  0
  7  8  1  0  0  0  0
  7 29  1  0  0  0  0
  7 30  1  0  0  0  0
  8 12  1  0  0  0  0
  8  9  1  0  0  0  0
  8 31  1  0  0  0  0
  9 10  2  0  0  0  0
  9 32  1  0  0  0  0
 10 11  1  0  0  0  0
 10 33  1  0  0  0  0
 11 12  1  0  0  0  0
 11 34  1  0  0  0  0
 12 35  1  0  0  0  0
 12 36  1  0  0  0  0
 13 18  1  0  0  0  0
 13 14  2  0  0  0  0
 14 15  1  0  0  0  0
 14 37  1  0  0  0  0
 15 16  2  0  0  0  0
 15 38  1  0  0  0  0
 16 17  1  0  0  0  0
 17 18  2  0  0  0  0
 17 39  1  0  0  0  0
 18 40  1  0  0  0  0
M  CHG  1   4   1
M  END
> <s_m_source_file>
AV-unprocessed.smi

> <i_m_source_file_index>
3316

> <i_lp_mmshare_version>
43012

> <i_f3d_flags>
0

> <s_epik_input>
W2NIXTFbY0hdbltjSF1bY0hdYzFbQ0BIXShbQ0gzXSlbQ0gyXVtOSF1bQ0gyXVtDQEhdKFtDSDJdW0NASF0yMylbQ0BIXShbQ0gyXTMpW0NIXT1bQ0hdMg==

> <s_epik_cmdline>
J2VwaWtfcHl0aG9uJywgJy1waCcsICc3LjAnLCAnLXRuJywgJzgnLCAnLW1hJywgJzIwMCcsICctbWV0YWxfYmluZGluZycsICctaW1hZScsICc8aW5maWxlLm1hZT4nLCAnLW9tYWUnLCAnPG91dGZpbGUubWFlPic=

> <r_lp_tautomer_probability>
1

> <r_epik_Ionization_Penalty>
0.00280406

> <r_epik_Ionization_Penalty_Charging>
0.000446589

> <r_epik_Ionization_Penalty_Neutral>
0.00235747

> <r_epik_State_Penalty>
-0

> <r_epik_Charging_Adjusted_Penalty>
0.000446589

> <i_epik_Tot_Q>
1

> <i_epik_Tot_abs_Q>
1

> <r_epik_Metal_State_Penalty>
-0

> <b_epik_Metal_Only>
0

> <s_lp_Force_Field>
OPLS_2005

> <r_lp_Energy>
68.7939

> <b_lp_Chiralities_Consistent>
1

> <s_lp_Variant>
AV-unprocessed.smi:3316-3

> <Gold.Version>
5.8.1

> <Gold.Id.Protein>
6NUR|6NUR_protein|mol2

> <Gold.PLP.Fitness>
51.2406

> <Gold.PLP.PLP>
-44.7468

> <Gold.PLP.part.hbond>
-1.0000

> <Gold.PLP.part.metal>
0.0000

> <Gold.PLP.part.buried>
-0.9333

> <Gold.PLP.part.nonpolar>
-44.1727

> <Gold.PLP.part.repulsive>
0.1979

> <Gold.PLP.ligand.clash>
0.0018

> <Gold.PLP.ligand.torsion>
0.4666

> <Gold.PLP.Chemscore.Hbond>
1.6000

> <Gold.PLP.Chemscore.CHOScore>
0.8558

> <Gold.PLP.Chemscore.Metal>
0.0000

> <Gold.Chemscore.Hbonds>
donor molecule, donor type, donor heavy atom, donor atom, acceptor molecule, acceptor atom, score
      L1  H     4    25       P1  8028  1.92
      L1  C    15    38       P1 10174  1.00

> <Gold.PLP.Chemscore.Internal.Correction>
0.0612

> <Gold.Rescore>
     Score         DG    S(hbond)    S(metal)    S(lipo)     H(rot)  DE(clash)    DE(int)     intcor
     18.66     -20.72       0.80        0.00     137.41       1.36       1.60       0.47       ----

> <Gold.Chemscore.Fitness>
18.6563

> <Gold.Chemscore.DG>
-20.7203

> <Gold.Chemscore.ZeroCoef>
-5.4800

> <Gold.Chemscore.Hbond>
0.7951

> <Gold.Chemscore.Metal>
0.0000

> <Gold.Chemscore.Lipo>
137.4064

> <Gold.Chemscore.Internal_Hbond>
0.0000

> <Gold.Chemscore.DEClash>
1.5957

> <Gold.Chemscore.DEInternal>
0.4683

> <Gold.Chemscore.Rot>
1.3640

> <Gold.Chemscore.Internal.Correction>
   9.000000E+99

> <Gold.Chemscore.Hbonds>
donor molecule, donor type, donor heavy atom, donor atom, acceptor molecule, acceptor atom, score
      L1  H     4    25       P1  8028  0.92

> <Gold.Chemscore.Hbond.Weighted>
-2.6557

> <Gold.Chemscore.Metal.Weighted>
-0.0000

> <Gold.Chemscore.Lipo.Weighted>
-16.0766

> <Gold.Chemscore.Internal_Hbond.Weighted>
0.0000

> <Gold.Chemscore.DEClash.Weighted>
1.5957

> <Gold.Chemscore.DEInternal.Weighted>
0.4683

> <Gold.Chemscore.Rot.Weighted>
3.4919

> <Gold.Chemscore.Internal.Correction.Weighted>
   9.000000E+99

> <Gold.Protein.RotatedTorsions>
[ 6907 6896 6895 6894 ] final   65.30 input  -60.11 | X-H torsion
[ 7974 7965 7964 7962 ] final -154.66 input  175.53 | X-H torsion
[ 8008 7997 7996 7995 ] final  -29.57 input   59.86 | X-H torsion
[ 10167 10162 10161 10158 ] final  144.33 input  -65.29 | X-H torsion
[ 10718 10713 10712 10709 ] final -163.09 input   66.30 | X-H torsion
[ 10763 10752 10751 10750 ] final  159.39 input  -60.55 | X-H torsion
[ 11005 11000 10999 10996 ] final   71.82 input  -57.11 | X-H torsion

> <Gold.Protein.ActiveResidues>
 VAL166  LYS551  ARG553  GLY616  TRP617  ASP618  TYR619  PRO620  LYS621  CYS622 
 ASP623  PHE694  ASN695  SER759  ASP760  ASP761  ALA762  ILE779  LEU786  VAL792 
 PHE793  MET794  SER795  GLU796  ALA797  LYS798  CYS799  TRP800  GLU811  SER814 

> <Gold.Protein.RotatedAtoms>
  152.4397  134.5616  159.9895 H   0  0  0  0  0  0  0  0  0  0  0  0  # atno 6907 bound_to 6896
  151.5717  133.3383  159.2999 H   0  0  0  0  0  0  0  0  0  0  0  0  # atno 6908 bound_to 6896
  150.8301  134.7584  159.6910 H   0  0  0  0  0  0  0  0  0  0  0  0  # atno 6909 bound_to 6896
  144.7678  140.4357  143.5929 H   0  0  0  0  0  0  0  0  0  0  0  0  # atno 7974 bound_to 7965
  154.4285  140.1815  156.1269 H   0  0  0  0  0  0  0  0  0  0  0  0  # atno 8008 bound_to 7997
  156.0099  140.3351  155.6905 H   0  0  0  0  0  0  0  0  0  0  0  0  # atno 8009 bound_to 7997
  155.6126  140.0651  157.2692 H   0  0  0  0  0  0  0  0  0  0  0  0  # atno 8010 bound_to 7997
  139.4949  144.5979  151.6543 H   0  0  0  0  0  0  0  0  0  0  0  0  # atno 10167 bound_to 10162
  156.6197  130.8885  151.2955 H   0  0  0  0  0  0  0  0  0  0  0  0  # atno 10718 bound_to 10713
  154.2310  135.2778  155.2890 H   0  0  0  0  0  0  0  0  0  0  0  0  # atno 10763 bound_to 10752
  154.5624  135.5643  153.7022 H   0  0  0  0  0  0  0  0  0  0  0  0  # atno 10764 bound_to 10752
  153.0020  135.6301  154.2452 H   0  0  0  0  0  0  0  0  0  0  0  0  # atno 10765 bound_to 10752
  139.9523  134.7205  156.0833 H   0  0  0  0  0  0  0  0  0  0  0  0  # atno 11005 bound_to 11000
  145.6415  139.1551  143.2913 LP  0  0  0  0  0  0  0  0  0  0  0  0  # atno 17320 bound_to 7965
  146.1801  140.6511  142.9193 LP  0  0  0  0  0  0  0  0  0  0  0  0  # atno 17321 bound_to 7965
  140.5622  144.0250  150.6175 LP  0  0  0  0  0  0  0  0  0  0  0  0  # atno 17342 bound_to 10162
  140.3340  143.3060  152.0658 LP  0  0  0  0  0  0  0  0  0  0  0  0  # atno 17343 bound_to 10162
  157.7231  130.9585  150.1520 LP  0  0  0  0  0  0  0  0  0  0  0  0  # atno 17370 bound_to 10713
  156.2322  130.3683  149.8432 LP  0  0  0  0  0  0  0  0  0  0  0  0  # atno 17371 bound_to 10713
  141.1189  133.6619  156.3163 LP  0  0  0  0  0  0  0  0  0  0  0  0  # atno 17394 bound_to 11000
  140.5689  134.5860  157.5452 LP  0  0  0  0  0  0  0  0  0  0  0  0  # atno 17395 bound_to 11000

$$$$
