AV-unprocessed.smi:2848|AV-procd|sdf|10955|dock8
  -GOLD-   2272015413D 1   1.00000     0.00000
 Structure written by MMmdl.
 27 28  0  0  0  0  0  0  0  0  2 V2000
  152.8977  139.0968  155.0511 Cl  0  0  0  0  0  0  0  0  0  0  0  0
  151.2301  139.3212  154.6531 C   0  0  0  0  0  0  0  0  0  0  0  0
  150.6230  138.4561  153.7195 C   0  0  0  0  0  0  0  0  0  0  0  0
  149.3225  138.6169  153.3956 N   0  3  0  0  0  0  0  0  0  0  0  0
  148.5523  139.5863  153.9329 C   0  0  0  0  0  0  0  0  0  0  0  0
  149.1020  140.4817  154.8728 C   0  0  0  0  0  0  0  0  0  0  0  0
  150.4640  140.3559  155.2449 C   0  0  0  0  0  0  0  0  0  0  0  0
  151.0728  141.2181  156.1697 N   0  0  0  0  0  0  0  0  0  0  0  0
  150.3118  141.8340  157.2468 C   0  0  0  0  0  0  0  0  0  0  0  0
  151.1322  142.8167  158.0580 C   0  0  0  0  0  0  0  0  0  0  0  0
  151.3874  144.0867  157.6811 C   0  0  0  0  0  0  0  0  0  0  0  0
  152.0665  144.9862  158.4632 O   0  0  0  0  0  0  0  0  0  0  0  0
  152.2257  144.5823  159.8188 C   0  0  0  0  0  0  0  0  0  0  0  0
  152.5898  143.0905  159.8977 C   0  0  0  0  0  0  0  0  0  0  0  0
  151.6124  142.2930  159.2356 O   0  0  0  0  0  0  0  0  0  0  0  0
  151.1370  137.6450  153.2246 H   0  0  0  0  0  0  0  0  0  0  0  0
  147.5259  139.6175  153.5972 H   0  0  0  0  0  0  0  0  0  0  0  0
  148.4696  141.2506  155.2906 H   0  0  0  0  0  0  0  0  0  0  0  0
  152.0818  141.2526  156.2194 H   0  0  0  0  0  0  0  0  0  0  0  0
  149.4599  142.3732  156.8317 H   0  0  0  0  0  0  0  0  0  0  0  0
  149.9222  141.0571  157.9061 H   0  0  0  0  0  0  0  0  0  0  0  0
  151.0372  144.5317  156.7612 H   0  0  0  0  0  0  0  0  0  0  0  0
  153.0016  145.1899  160.2848 H   0  0  0  0  0  0  0  0  0  0  0  0
  151.2988  144.7753  160.3608 H   0  0  0  0  0  0  0  0  0  0  0  0
  153.5627  142.9138  159.4372 H   0  0  0  0  0  0  0  0  0  0  0  0
  152.6656  142.7710  160.9372 H   0  0  0  0  0  0  0  0  0  0  0  0
  148.9049  137.9796  152.7169 H   0  0  0  0  0  0  0  0  0  0  0  0
  1  2  1  0  0  0  0
  2  7  1  0  0  0  0
  2  3  2  0  0  0  0
  3  4  1  0  0  0  0
  3 16  1  0  0  0  0
  4  5  2  0  0  0  0
  4 27  1  0  0  0  0
  5  6  1  0  0  0  0
  5 17  1  0  0  0  0
  6  7  2  0  0  0  0
  6 18  1  0  0  0  0
  7  8  1  0  0  0  0
  8  9  1  0  0  0  0
  8 19  1  0  0  0  0
  9 10  1  0  0  0  0
  9 20  1  0  0  0  0
  9 21  1  0  0  0  0
 10 15  1  0  0  0  0
 10 11  2  0  0  0  0
 11 12  1  0  0  0  0
 11 22  1  0  0  0  0
 12 13  1  0  0  0  0
 13 14  1  0  0  0  0
 13 23  1  0  0  0  0
 13 24  1  0  0  0  0
 14 15  1  0  0  0  0
 14 25  1  0  0  0  0
 14 26  1  0  0  0  0
M  CHG  1   4   1
M  END
> <s_m_source_file>
AV-unprocessed.smi

> <i_m_source_file_index>
2848

> <i_lp_mmshare_version>
43012

> <i_f3d_flags>
0

> <s_epik_input>
Q2xjMVtjSF1uW2NIXVtjSF1jMVtOSF1bQ0gyXUMyPVtDSF1PW0NIMl1bQ0gyXU8y

> <s_epik_cmdline>
J2VwaWtfcHl0aG9uJywgJy1waCcsICc3LjAnLCAnLXRuJywgJzgnLCAnLW1hJywgJzIwMCcsICctbWV0YWxfYmluZGluZycsICctaW1hZScsICc8aW5maWxlLm1hZT4nLCAnLW9tYWUnLCAnPG91dGZpbGUubWFlPic=

> <r_lp_tautomer_probability>
1

> <r_epik_Ionization_Penalty>
0.0834524

> <r_epik_Ionization_Penalty_Charging>
0.0831652

> <r_epik_Ionization_Penalty_Neutral>
0.000287151

> <r_epik_State_Penalty>
0.0738416

> <r_epik_Charging_Adjusted_Penalty>
0.157007

> <i_epik_Tot_Q>
1

> <i_epik_Tot_abs_Q>
1

> <r_epik_Metal_State_Penalty>
2.9007

> <b_epik_Metal_Only>
0

> <s_lp_Force_Field>
OPLS_2005

> <r_lp_Energy>
8.04075

> <b_lp_Chiralities_Consistent>
1

> <s_lp_Variant>
AV-unprocessed.smi:2848-1

> <Gold.Version>
5.8.1

> <Gold.Id.Protein>
6NUR|6NUR_protein|mol2

> <Gold.PLP.Fitness>
41.8999

> <Gold.PLP.PLP>
-33.9019

> <Gold.PLP.part.hbond>
-2.0000

> <Gold.PLP.part.metal>
0.0000

> <Gold.PLP.part.buried>
-1.8808

> <Gold.PLP.part.nonpolar>
-30.8986

> <Gold.PLP.part.repulsive>
0.2499

> <Gold.PLP.ligand.clash>
0.0000

> <Gold.PLP.ligand.torsion>
0.4903

> <Gold.PLP.Chemscore.Hbond>
2.0000

> <Gold.PLP.Chemscore.CHOScore>
0.9928

> <Gold.PLP.Chemscore.Metal>
0.0000

> <Gold.Chemscore.Hbonds>
donor molecule, donor type, donor heavy atom, donor atom, acceptor molecule, acceptor atom, score
      L1  H     4    27       P1  7948  1.89
      L1  C    11    22       P1  8028  1.00

> <Gold.PLP.Chemscore.Internal.Correction>
0.0003

> <Gold.Rescore>
     Score         DG    S(hbond)    S(metal)    S(lipo)     H(rot)  DE(clash)    DE(int)     intcor
     16.31     -16.97       0.98        0.00      97.04       1.22       0.23       0.43       ----

> <Gold.Chemscore.Fitness>
16.3067

> <Gold.Chemscore.DG>
-16.9675

> <Gold.Chemscore.ZeroCoef>
-5.4800

> <Gold.Chemscore.Hbond>
0.9755

> <Gold.Chemscore.Metal>
0.0000

> <Gold.Chemscore.Lipo>
97.0442

> <Gold.Chemscore.Internal_Hbond>
0.0000

> <Gold.Chemscore.DEClash>
0.2317

> <Gold.Chemscore.DEInternal>
0.4292

> <Gold.Chemscore.Rot>
1.2206

> <Gold.Chemscore.Internal.Correction>
   9.000000E+99

> <Gold.Chemscore.Hbonds>
donor molecule, donor type, donor heavy atom, donor atom, acceptor molecule, acceptor atom, score
      L1  H     4    27       P1  7948  0.91

> <Gold.Chemscore.Hbond.Weighted>
-3.2581

> <Gold.Chemscore.Metal.Weighted>
-0.0000

> <Gold.Chemscore.Lipo.Weighted>
-11.3542

> <Gold.Chemscore.Internal_Hbond.Weighted>
0.0000

> <Gold.Chemscore.DEClash.Weighted>
0.2317

> <Gold.Chemscore.DEInternal.Weighted>
0.4292

> <Gold.Chemscore.Rot.Weighted>
3.1247

> <Gold.Chemscore.Internal.Correction.Weighted>
   9.000000E+99

> <Gold.Protein.RotatedTorsions>
[ 6907 6896 6895 6894 ] final   77.40 input  -60.11 | X-H torsion
[ 7974 7965 7964 7962 ] final   92.27 input  175.53 | X-H torsion
[ 8008 7997 7996 7995 ] final   75.76 input   59.86 | X-H torsion
[ 10167 10162 10161 10158 ] final   50.63 input  -65.29 | X-H torsion
[ 10718 10713 10712 10709 ] final  -75.02 input   66.30 | X-H torsion
[ 10763 10752 10751 10750 ] final  -41.58 input  -60.55 | X-H torsion
[ 11005 11000 10999 10996 ] final  -89.66 input  -57.11 | X-H torsion

> <Gold.Protein.ActiveResidues>
 VAL166  LYS551  ARG553  GLY616  TRP617  ASP618  TYR619  PRO620  LYS621  CYS622 
 ASP623  PHE694  ASN695  SER759  ASP760  ASP761  ALA762  ILE779  LEU786  VAL792 
 PHE793  MET794  SER795  GLU796  ALA797  LYS798  CYS799  TRP800  GLU811  SER814 

> <Gold.Protein.RotatedAtoms>
  152.5116  134.3822  159.9354 H   0  0  0  0  0  0  0  0  0  0  0  0  # atno 6907 bound_to 6896
  151.3780  133.3825  159.2714 H   0  0  0  0  0  0  0  0  0  0  0  0  # atno 6908 bound_to 6896
  150.9527  134.8945  159.7740 H   0  0  0  0  0  0  0  0  0  0  0  0  # atno 6909 bound_to 6896
  145.4946  139.2276  143.2811 H   0  0  0  0  0  0  0  0  0  0  0  0  # atno 7974 bound_to 7965
  155.8175  140.3471  155.5494 H   0  0  0  0  0  0  0  0  0  0  0  0  # atno 8008 bound_to 7997
  155.8377  140.0936  157.1774 H   0  0  0  0  0  0  0  0  0  0  0  0  # atno 8009 bound_to 7997
  154.4004  140.1400  156.3678 H   0  0  0  0  0  0  0  0  0  0  0  0  # atno 8010 bound_to 7997
  140.2704  144.3272  150.6292 H   0  0  0  0  0  0  0  0  0  0  0  0  # atno 10167 bound_to 10162
  156.0222  130.4431  150.2980 H   0  0  0  0  0  0  0  0  0  0  0  0  # atno 10718 bound_to 10713
  153.9648  135.6735  153.4746 H   0  0  0  0  0  0  0  0  0  0  0  0  # atno 10763 bound_to 10752
  153.0821  135.4918  154.8520 H   0  0  0  0  0  0  0  0  0  0  0  0  # atno 10764 bound_to 10752
  154.7252  135.3126  154.8942 H   0  0  0  0  0  0  0  0  0  0  0  0  # atno 10765 bound_to 10752
  141.1580  133.7644  156.9627 H   0  0  0  0  0  0  0  0  0  0  0  0  # atno 11005 bound_to 11000
  146.2263  140.5742  142.8995 LP  0  0  0  0  0  0  0  0  0  0  0  0  # atno 17320 bound_to 7965
  144.7814  140.5849  143.6603 LP  0  0  0  0  0  0  0  0  0  0  0  0  # atno 17321 bound_to 7965
  140.5894  143.2168  151.7281 LP  0  0  0  0  0  0  0  0  0  0  0  0  # atno 17342 bound_to 10162
  139.4990  144.3961  152.0229 LP  0  0  0  0  0  0  0  0  0  0  0  0  # atno 17343 bound_to 10162
  157.1083  131.0214  151.3058 LP  0  0  0  0  0  0  0  0  0  0  0  0  # atno 17370 bound_to 10713
  157.4725  130.7717  149.7337 LP  0  0  0  0  0  0  0  0  0  0  0  0  # atno 17371 bound_to 10713
  140.1182  134.9434  157.2165 LP  0  0  0  0  0  0  0  0  0  0  0  0  # atno 17394 bound_to 11000
  140.3106  134.3028  155.7268 LP  0  0  0  0  0  0  0  0  0  0  0  0  # atno 17395 bound_to 11000

$$$$
