AV-unprocessed.smi:1669|AV-procd|sdf|6691|dock3
  -GOLD-   22720 7423D 1   1.00000     0.00000
 Structure written by MMmdl.
 49 51  0  0  0  0  0  0  0  0  3 V2000
  153.0272  138.6184  159.5535 C   0  0  0  0  0  0  0  0  0  0  0  0
  152.5085  140.0023  159.4399 N   0  3  1  0  0  0  0  0  0  0  0  0
  153.2875  140.9367  160.2941 C   0  0  0  0  0  0  0  0  0  0  0  0
  152.7068  142.3410  160.3159 C   0  0  0  0  0  0  0  0  0  0  0  0
  152.8610  143.1925  159.2004 C   0  0  0  0  0  0  0  0  0  0  0  0
  152.3122  144.4893  159.2186 C   0  0  0  0  0  0  0  0  0  0  0  0
  151.6116  144.9416  160.3534 C   0  0  0  0  0  0  0  0  0  0  0  0
  151.4600  144.0969  161.4701 C   0  0  0  0  0  0  0  0  0  0  0  0
  152.0068  142.7991  161.4519 C   0  0  0  0  0  0  0  0  0  0  0  0
  152.3836  140.4682  158.0305 C   0  0  0  0  0  0  0  0  0  0  0  0
  151.0658  140.0499  157.3395 C   0  0  1  0  0  0  0  0  0  0  0  0
  149.9739  140.3607  158.1815 O   0  0  0  0  0  0  0  0  0  0  0  0
  150.8178  140.7717  155.9976 C   0  0  0  0  0  0  0  0  0  0  0  0
  150.2396  139.9033  154.9582 N   0  0  0  0  0  0  0  0  0  0  0  0
  150.7306  138.7576  154.4022 C   0  0  0  0  0  0  0  0  0  0  0  0
  152.0242  138.0853  154.7246 C   0  0  0  0  0  0  0  0  0  0  0  0
  152.2538  136.9522  153.9174 O   0  0  0  0  0  0  0  0  0  0  0  0
  149.8099  138.3197  153.4984 N   0  3  0  0  0  0  0  0  0  0  0  0
  148.7181  139.1881  153.4760 C   0  0  0  0  0  0  0  0  0  0  0  0
  147.5469  139.1573  152.7255 C   0  0  0  0  0  0  0  0  0  0  0  0
  146.6267  140.2032  152.9447 C   0  0  0  0  0  0  0  0  0  0  0  0
  146.8865  141.2249  153.8806 C   0  0  0  0  0  0  0  0  0  0  0  0
  148.0766  141.2443  154.6372 C   0  0  0  0  0  0  0  0  0  0  0  0
  148.9839  140.2073  154.4142 C   0  0  0  0  0  0  0  0  0  0  0  0
  154.0156  138.5331  159.1001 H   0  0  0  0  0  0  0  0  0  0  0  0
  152.3648  137.8996  159.0730 H   0  0  0  0  0  0  0  0  0  0  0  0
  153.1076  138.3201  160.5993 H   0  0  0  0  0  0  0  0  0  0  0  0
  153.3020  140.5707  161.3218 H   0  0  0  0  0  0  0  0  0  0  0  0
  154.3263  140.9640  159.9607 H   0  0  0  0  0  0  0  0  0  0  0  0
  153.3946  142.8523  158.3247 H   0  0  0  0  0  0  0  0  0  0  0  0
  152.4288  145.1378  158.3627 H   0  0  0  0  0  0  0  0  0  0  0  0
  151.1914  145.9367  160.3680 H   0  0  0  0  0  0  0  0  0  0  0  0
  150.9236  144.4450  162.3406 H   0  0  0  0  0  0  0  0  0  0  0  0
  151.8846  142.1560  162.3115 H   0  0  0  0  0  0  0  0  0  0  0  0
  152.4348  141.5552  157.9958 H   0  0  0  0  0  0  0  0  0  0  0  0
  153.2438  140.1012  157.4693 H   0  0  0  0  0  0  0  0  0  0  0  0
  151.0600  138.9767  157.1539 H   0  0  0  0  0  0  0  0  0  0  0  0
  149.1687  140.1529  157.7326 H   0  0  0  0  0  0  0  0  0  0  0  0
  150.1275  141.6033  156.1453 H   0  0  0  0  0  0  0  0  0  0  0  0
  151.7377  141.2160  155.6167 H   0  0  0  0  0  0  0  0  0  0  0  0
  152.8444  138.7904  154.5878 H   0  0  0  0  0  0  0  0  0  0  0  0
  152.0304  137.7861  155.7725 H   0  0  0  0  0  0  0  0  0  0  0  0
  151.8953  137.1146  153.0579 H   0  0  0  0  0  0  0  0  0  0  0  0
  147.3437  138.3736  152.0101 H   0  0  0  0  0  0  0  0  0  0  0  0
  145.7022  140.2209  152.3853 H   0  0  0  0  0  0  0  0  0  0  0  0
  146.1563  142.0088  154.0233 H   0  0  0  0  0  0  0  0  0  0  0  0
  148.2586  142.0337  155.3510 H   0  0  0  0  0  0  0  0  0  0  0  0
  151.5741  139.9930  159.8236 H   0  0  0  0  0  0  0  0  0  0  0  0
  149.9190  137.4796  152.9446 H   0  0  0  0  0  0  0  0  0  0  0  0
  1  2  1  0  0  0  0
  1 25  1  0  0  0  0
  1 26  1  0  0  0  0
  1 27  1  0  0  0  0
  2  3  1  0  0  0  0
  2 10  1  0  0  0  0
  2 48  1  0  0  0  0
  3  4  1  0  0  0  0
  3 28  1  0  0  0  0
  3 29  1  0  0  0  0
  4  9  1  0  0  0  0
  4  5  2  0  0  0  0
  5  6  1  0  0  0  0
  5 30  1  0  0  0  0
  6  7  2  0  0  0  0
  6 31  1  0  0  0  0
  7  8  1  0  0  0  0
  7 32  1  0  0  0  0
  8  9  2  0  0  0  0
  8 33  1  0  0  0  0
  9 34  1  0  0  0  0
 10 11  1  0  0  0  0
 10 35  1  0  0  0  0
 10 36  1  0  0  0  0
 11 12  1  0  0  0  0
 11 13  1  0  0  0  0
 11 37  1  0  0  0  0
 12 38  1  0  0  0  0
 13 14  1  0  0  0  0
 13 39  1  0  0  0  0
 13 40  1  0  0  0  0
 14 24  1  0  0  0  0
 14 15  1  0  0  0  0
 15 16  1  0  0  0  0
 15 18  2  0  0  0  0
 16 17  1  0  0  0  0
 16 41  1  0  0  0  0
 16 42  1  0  0  0  0
 17 43  1  0  0  0  0
 18 19  1  0  0  0  0
 18 49  1  0  0  0  0
 19 24  2  0  0  0  0
 19 20  1  0  0  0  0
 20 21  2  0  0  0  0
 20 44  1  0  0  0  0
 21 22  1  0  0  0  0
 21 45  1  0  0  0  0
 22 23  2  0  0  0  0
 22 46  1  0  0  0  0
 23 24  1  0  0  0  0
 23 47  1  0  0  0  0
M  CHG  1   2   1
M  CHG  1  18   1
M  END
> <s_m_source_file>
AV-unprocessed.smi

> <i_m_source_file_index>
1669

> <i_lp_mmshare_version>
43012

> <i_f3d_flags>
0

> <s_epik_input>
W2NIXTFbY0hdW2NIXVtjSF1bY0hdYzFbQ0gyXU4oW0NIM10pW0NIMl1bQ0BIXShbT0hdKVtDSDJdbihjKG4yKVtDSDJdW09IXSljKGMyMylbY0hdW2NIXVtjSF1bY0hdMw==

> <s_epik_cmdline>
J2VwaWtfcHl0aG9uJywgJy1waCcsICc3LjAnLCAnLXRuJywgJzgnLCAnLW1hJywgJzIwMCcsICctbWV0YWxfYmluZGluZycsICctaW1hZScsICc8aW5maWxlLm1hZT4nLCAnLW9tYWUnLCAnPG91dGZpbGUubWFlPic=

> <r_epik_Ionization_Penalty>
1.57484

> <r_epik_Ionization_Penalty_Charging>
1.57398

> <r_epik_Ionization_Penalty_Neutral>
0.000858917

> <r_epik_State_Penalty>
1.64997

> <r_epik_Charging_Adjusted_Penalty>
3.22395

> <i_epik_Tot_Q>
2

> <i_epik_Tot_abs_Q>
2

> <r_epik_Metal_State_Penalty>
5.70481

> <b_epik_Metal_Only>
0

> <s_lp_Force_Field>
OPLS_2005

> <r_lp_Energy>
25.6323

> <b_lp_Chiralities_Consistent>
1

> <s_lp_Variant>
AV-unprocessed.smi:1669-9

> <Gold.Version>
5.8.1

> <Gold.Id.Protein>
6NUR|6NUR_protein|mol2

> <Gold.PLP.Fitness>
66.9019

> <Gold.PLP.PLP>
-57.0818

> <Gold.PLP.part.hbond>
-4.0000

> <Gold.PLP.part.metal>
0.0000

> <Gold.PLP.part.buried>
4.2545

> <Gold.PLP.part.nonpolar>
-57.1283

> <Gold.PLP.part.repulsive>
0.2070

> <Gold.PLP.ligand.clash>
0.0000

> <Gold.PLP.ligand.torsion>
1.1498

> <Gold.PLP.Chemscore.Hbond>
3.8640

> <Gold.PLP.Chemscore.CHOScore>
0.0000

> <Gold.PLP.Chemscore.Metal>
0.0000

> <Gold.Chemscore.Hbonds>
donor molecule, donor type, donor heavy atom, donor atom, acceptor molecule, acceptor atom, score
      L1  H    17    43       P1  7949  0.68
      L1  H    18    49       P1  7948  1.76
      P1  H 10752 10763       L1    17  0.83

> <Gold.PLP.Chemscore.Internal.Correction>
0.5278

> <Gold.Rescore>
     Score         DG    S(hbond)    S(metal)    S(lipo)     H(rot)  DE(clash)    DE(int)     intcor
     19.34     -23.57       2.57        0.00     152.95       3.27       2.22       2.01       ----

> <Gold.Chemscore.Fitness>
19.3371

> <Gold.Chemscore.DG>
-23.5690

> <Gold.Chemscore.ZeroCoef>
-5.4800

> <Gold.Chemscore.Hbond>
2.5657

> <Gold.Chemscore.Metal>
0.0000

> <Gold.Chemscore.Lipo>
152.9516

> <Gold.Chemscore.Internal_Hbond>
0.0000

> <Gold.Chemscore.DEClash>
2.2226

> <Gold.Chemscore.DEInternal>
2.0092

> <Gold.Chemscore.Rot>
3.2718

> <Gold.Chemscore.Internal.Correction>
   9.000000E+99

> <Gold.Chemscore.Hbonds>
donor molecule, donor type, donor heavy atom, donor atom, acceptor molecule, acceptor atom, score
      L1  H    17    43       P1  7949  0.65
      L1  H    18    49       P1  7948  0.22
      P1  H 10752 10763       L1    17  0.76

> <Gold.Chemscore.Hbond.Weighted>
-8.5695

> <Gold.Chemscore.Metal.Weighted>
-0.0000

> <Gold.Chemscore.Lipo.Weighted>
-17.8953

> <Gold.Chemscore.Internal_Hbond.Weighted>
0.0000

> <Gold.Chemscore.DEClash.Weighted>
2.2226

> <Gold.Chemscore.DEInternal.Weighted>
2.0092

> <Gold.Chemscore.Rot.Weighted>
8.3759

> <Gold.Chemscore.Internal.Correction.Weighted>
   9.000000E+99

> <Gold.Protein.RotatedTorsions>
[ 6907 6896 6895 6894 ] final   14.07 input  -60.11 | X-H torsion
[ 7974 7965 7964 7962 ] final  147.08 input  175.53 | X-H torsion
[ 8008 7997 7996 7995 ] final  -68.92 input   59.86 | X-H torsion
[ 10167 10162 10161 10158 ] final  136.60 input  -65.29 | X-H torsion
[ 10718 10713 10712 10709 ] final   62.36 input   66.30 | X-H torsion
[ 10763 10752 10751 10750 ] final   36.55 input  -60.55 | X-H torsion
[ 11005 11000 10999 10996 ] final  -98.35 input  -57.11 | X-H torsion

> <Gold.Protein.ActiveResidues>
 VAL166  LYS551  ARG553  GLY616  TRP617  ASP618  TYR619  PRO620  LYS621  CYS622 
 ASP623  PHE694  ASN695  SER759  ASP760  ASP761  ALA762  ILE779  LEU786  VAL792 
 PHE793  MET794  SER795  GLU796  ALA797  LYS798  CYS799  TRP800  GLU811  SER814 

> <Gold.Protein.RotatedAtoms>
  151.7963  135.0721  160.0393 H   0  0  0  0  0  0  0  0  0  0  0  0  # atno 6907 bound_to 6896
  152.3120  133.5759  159.5696 H   0  0  0  0  0  0  0  0  0  0  0  0  # atno 6908 bound_to 6896
  150.7325  134.0053  159.3694 H   0  0  0  0  0  0  0  0  0  0  0  0  # atno 6909 bound_to 6896
  144.8619  139.5985  143.5926 H   0  0  0  0  0  0  0  0  0  0  0  0  # atno 7974 bound_to 7965
  154.4902  140.0863  156.7577 H   0  0  0  0  0  0  0  0  0  0  0  0  # atno 8008 bound_to 7997
  155.4250  140.3447  155.4256 H   0  0  0  0  0  0  0  0  0  0  0  0  # atno 8009 bound_to 7997
  156.1318  140.1503  156.9041 H   0  0  0  0  0  0  0  0  0  0  0  0  # atno 8010 bound_to 7997
  139.5174  144.6456  151.5449 H   0  0  0  0  0  0  0  0  0  0  0  0  # atno 10167 bound_to 10162
  157.5895  130.9046  149.9577 H   0  0  0  0  0  0  0  0  0  0  0  0  # atno 10718 bound_to 10713
  153.0072  135.6302  154.2004 H   0  0  0  0  0  0  0  0  0  0  0  0  # atno 10763 bound_to 10752
  154.1747  135.2816  155.3072 H   0  0  0  0  0  0  0  0  0  0  0  0  # atno 10764 bound_to 10752
  154.5881  135.5626  153.7311 H   0  0  0  0  0  0  0  0  0  0  0  0  # atno 10765 bound_to 10752
  141.1348  133.8239  157.0828 H   0  0  0  0  0  0  0  0  0  0  0  0  # atno 11005 bound_to 11000
  146.2867  139.7024  142.9190 LP  0  0  0  0  0  0  0  0  0  0  0  0  # atno 17320 bound_to 7965
  145.4295  141.0414  143.2919 LP  0  0  0  0  0  0  0  0  0  0  0  0  # atno 17321 bound_to 7965
  140.6239  143.9205  150.6549 LP  0  0  0  0  0  0  0  0  0  0  0  0  # atno 17342 bound_to 10162
  140.2488  143.3609  152.1424 LP  0  0  0  0  0  0  0  0  0  0  0  0  # atno 17343 bound_to 10162
  156.0947  130.3660  150.0328 LP  0  0  0  0  0  0  0  0  0  0  0  0  # atno 17370 bound_to 10713
  156.8453  130.9440  151.3629 LP  0  0  0  0  0  0  0  0  0  0  0  0  # atno 17371 bound_to 10713
  140.0441  134.9839  157.1016 LP  0  0  0  0  0  0  0  0  0  0  0  0  # atno 17394 bound_to 11000
  140.4090  134.2001  155.7163 LP  0  0  0  0  0  0  0  0  0  0  0  0  # atno 17395 bound_to 11000

$$$$
