AV-unprocessed.smi:3028|AV-procd|sdf|11518|dock4
  -GOLD-   2272016453D 1   1.00000     0.00000
 Structure written by MMmdl.
 48 49  0  0  0  0  0  0  0  0  2 V2000
  145.6706  129.8405  151.9373 C   0  0  0  0  0  0  0  0  0  0  0  0
  145.9390  131.3143  151.8384 C   0  0  0  0  0  0  0  0  0  0  0  0
  146.9947  132.0545  152.4416 C   0  0  0  0  0  0  0  0  0  0  0  0
  146.9479  133.3440  152.1508 N   0  0  0  0  0  0  0  0  0  0  0  0
  145.8638  133.4753  151.3542 N   0  0  0  0  0  0  0  0  0  0  0  0
  145.4993  134.7810  150.8153 C   0  0  1  0  0  0  0  0  0  0  0  0
  144.1379  134.6887  150.1002 C   0  0  0  0  0  0  0  0  0  0  0  0
  145.5437  135.8786  151.9126 C   0  0  2  0  0  0  0  0  0  0  0  0
  144.1472  136.3789  152.3171 C   0  0  0  0  0  0  0  0  0  0  0  0
  146.3444  137.0352  151.4485 N   0  3  0  0  0  0  0  0  0  0  0  0
  146.1578  138.2777  152.2271 C   0  0  0  0  0  0  0  0  0  0  0  0
  147.1129  138.3629  153.4243 C   0  0  0  0  0  0  0  0  0  0  0  0
  146.7542  137.9522  154.5269 O   0  0  0  0  0  0  0  0  0  0  0  0
  148.3373  138.8896  153.2539 N   0  0  0  0  0  0  0  0  0  0  0  0
  149.3934  139.0639  154.2506 C   0  0  0  0  0  0  0  0  0  0  0  0
  149.5763  140.5565  154.5642 C   0  0  0  0  0  0  0  0  0  0  0  0
  150.7988  140.7750  155.4708 C   0  0  0  0  0  0  0  0  0  0  0  0
  151.9618  140.2257  154.8610 O   0  0  0  0  0  0  0  0  0  0  0  0
  151.8755  138.8178  154.6687 C   0  0  0  0  0  0  0  0  0  0  0  0
  150.7136  138.4866  153.7177 C   0  0  0  0  0  0  0  0  0  0  0  0
  145.2342  132.2643  151.1553 C   0  0  0  0  0  0  0  0  0  0  0  0
  146.4426  129.3242  152.5085 H   0  0  0  0  0  0  0  0  0  0  0  0
  145.6323  129.3721  150.9537 H   0  0  0  0  0  0  0  0  0  0  0  0
  144.7187  129.6377  152.4280 H   0  0  0  0  0  0  0  0  0  0  0  0
  147.7908  131.6947  153.0767 H   0  0  0  0  0  0  0  0  0  0  0  0
  146.2464  135.0295  150.0597 H   0  0  0  0  0  0  0  0  0  0  0  0
  143.9140  135.5959  149.5396 H   0  0  0  0  0  0  0  0  0  0  0  0
  143.3243  134.5232  150.8072 H   0  0  0  0  0  0  0  0  0  0  0  0
  144.1282  133.8645  149.3860 H   0  0  0  0  0  0  0  0  0  0  0  0
  146.0096  135.4574  152.8055 H   0  0  0  0  0  0  0  0  0  0  0  0
  143.5521  135.5892  152.7750 H   0  0  0  0  0  0  0  0  0  0  0  0
  143.5950  136.7599  151.4573 H   0  0  0  0  0  0  0  0  0  0  0  0
  144.2194  137.1843  153.0488 H   0  0  0  0  0  0  0  0  0  0  0  0
  147.3214  136.7830  151.4954 H   0  0  0  0  0  0  0  0  0  0  0  0
  146.3170  139.1358  151.5727 H   0  0  0  0  0  0  0  0  0  0  0  0
  145.1311  138.3178  152.5916 H   0  0  0  0  0  0  0  0  0  0  0  0
  148.5643  139.2052  152.3215 H   0  0  0  0  0  0  0  0  0  0  0  0
  149.1578  138.5537  155.1839 H   0  0  0  0  0  0  0  0  0  0  0  0
  149.7139  141.1179  153.6388 H   0  0  0  0  0  0  0  0  0  0  0  0
  148.6806  140.9554  155.0420 H   0  0  0  0  0  0  0  0  0  0  0  0
  150.9574  141.8409  155.6343 H   0  0  0  0  0  0  0  0  0  0  0  0
  150.6415  140.3230  156.4513 H   0  0  0  0  0  0  0  0  0  0  0  0
  152.8162  138.4626  154.2478 H   0  0  0  0  0  0  0  0  0  0  0  0
  151.7471  138.3160  155.6289 H   0  0  0  0  0  0  0  0  0  0  0  0
  150.6310  137.4064  153.5907 H   0  0  0  0  0  0  0  0  0  0  0  0
  150.9310  138.9013  152.7321 H   0  0  0  0  0  0  0  0  0  0  0  0
  144.3466  132.1767  150.5458 H   0  0  0  0  0  0  0  0  0  0  0  0
  146.1130  137.2260  150.4841 H   0  0  0  0  0  0  0  0  0  0  0  0
  1  2  1  0  0  0  0
  1 22  1  0  0  0  0
  1 23  1  0  0  0  0
  1 24  1  0  0  0  0
  2 21  2  0  0  0  0
  2  3  1  0  0  0  0
  3  4  2  0  0  0  0
  3 25  1  0  0  0  0
  4  5  1  0  0  0  0
  5  6  1  0  0  0  0
  5 21  1  0  0  0  0
  6  7  1  0  0  0  0
  6  8  1  0  0  0  0
  6 26  1  0  0  0  0
  7 27  1  0  0  0  0
  7 28  1  0  0  0  0
  7 29  1  0  0  0  0
  8  9  1  0  0  0  0
  8 10  1  0  0  0  0
  8 30  1  0  0  0  0
  9 31  1  0  0  0  0
  9 32  1  0  0  0  0
  9 33  1  0  0  0  0
 10 11  1  0  0  0  0
 10 34  1  0  0  0  0
 10 48  1  0  0  0  0
 11 12  1  0  0  0  0
 11 35  1  0  0  0  0
 11 36  1  0  0  0  0
 12 13  2  0  0  0  0
 12 14  1  0  0  0  0
 14 15  1  0  0  0  0
 14 37  1  0  0  0  0
 15 20  1  0  0  0  0
 15 16  1  0  0  0  0
 15 38  1  0  0  0  0
 16 17  1  0  0  0  0
 16 39  1  0  0  0  0
 16 40  1  0  0  0  0
 17 18  1  0  0  0  0
 17 41  1  0  0  0  0
 17 42  1  0  0  0  0
 18 19  1  0  0  0  0
 19 20  1  0  0  0  0
 19 43  1  0  0  0  0
 19 44  1  0  0  0  0
 20 45  1  0  0  0  0
 20 46  1  0  0  0  0
 21 47  1  0  0  0  0
M  CHG  1  10   1
M  END
> <s_m_source_file>
AV-unprocessed.smi

> <i_m_source_file_index>
3028

> <i_lp_mmshare_version>
43012

> <i_f3d_flags>
0

> <s_epik_input>
W0NIM11jMVtjSF1ubihbY0hdMSlbQ0BIXShbQ0gzXSlbQ0BIXShbQ0gzXSlbTkhdW0NIMl1DKD1PKVtOSF1bQ0hdMltDSDJdW0NIMl1PW0NIMl1bQ0gyXTI=

> <s_epik_cmdline>
J2VwaWtfcHl0aG9uJywgJy1waCcsICc3LjAnLCAnLXRuJywgJzgnLCAnLW1hJywgJzIwMCcsICctbWV0YWxfYmluZGluZycsICctaW1hZScsICc8aW5maWxlLm1hZT4nLCAnLW9tYWUnLCAnPG91dGZpbGUubWFlPic=

> <r_lp_tautomer_probability>
1

> <r_epik_Ionization_Penalty>
0.151514

> <r_epik_Ionization_Penalty_Charging>
0.151494

> <r_epik_Ionization_Penalty_Neutral>
1.95502e-05

> <r_epik_State_Penalty>
0.141395

> <r_epik_Charging_Adjusted_Penalty>
0.292889

> <i_epik_Tot_Q>
1

> <i_epik_Tot_abs_Q>
1

> <r_epik_Metal_State_Penalty>
0.141632

> <b_epik_Metal_Only>
0

> <s_lp_Force_Field>
OPLS_2005

> <r_lp_Energy>
16.7547

> <b_lp_Chiralities_Consistent>
1

> <s_lp_Variant>
AV-unprocessed.smi:3028-2

> <Gold.Version>
5.8.1

> <Gold.Id.Protein>
6NUR|6NUR_protein|mol2

> <Gold.PLP.Fitness>
48.7012

> <Gold.PLP.PLP>
-42.2738

> <Gold.PLP.part.hbond>
-3.8840

> <Gold.PLP.part.metal>
0.0000

> <Gold.PLP.part.buried>
-3.9196

> <Gold.PLP.part.nonpolar>
-35.0114

> <Gold.PLP.part.repulsive>
0.4063

> <Gold.PLP.ligand.clash>
0.0000

> <Gold.PLP.ligand.torsion>
2.3515

> <Gold.PLP.Chemscore.Hbond>
3.6656

> <Gold.PLP.Chemscore.CHOScore>
0.0000

> <Gold.PLP.Chemscore.Metal>
0.0000

> <Gold.Chemscore.Hbonds>
donor molecule, donor type, donor heavy atom, donor atom, acceptor molecule, acceptor atom, score
      L1  H    10    34       P1  7948  2.00
      L1  H    14    37       P1  7957  1.00
      P1  H  7989  7998       L1    18  0.56

> <Gold.PLP.Chemscore.Internal.Correction>
0.1336

> <Gold.Rescore>
     Score         DG    S(hbond)    S(metal)    S(lipo)     H(rot)  DE(clash)    DE(int)     intcor
     16.44     -18.97       2.04        0.00     100.72       1.99       0.39       2.14       ----

> <Gold.Chemscore.Fitness>
16.4423

> <Gold.Chemscore.DG>
-18.9738

> <Gold.Chemscore.ZeroCoef>
-5.4800

> <Gold.Chemscore.Hbond>
2.0368

> <Gold.Chemscore.Metal>
0.0000

> <Gold.Chemscore.Lipo>
100.7219

> <Gold.Chemscore.Internal_Hbond>
0.0000

> <Gold.Chemscore.DEClash>
0.3937

> <Gold.Chemscore.DEInternal>
2.1378

> <Gold.Chemscore.Rot>
1.9897

> <Gold.Chemscore.Internal.Correction>
   9.000000E+99

> <Gold.Chemscore.Hbonds>
donor molecule, donor type, donor heavy atom, donor atom, acceptor molecule, acceptor atom, score
      L1  H    10    34       P1  7948  1.00
      L1  H    14    37       P1  7957  0.98
      P1  H  7989  7998       L1    18  0.03

> <Gold.Chemscore.Hbond.Weighted>
-6.8029

> <Gold.Chemscore.Metal.Weighted>
-0.0000

> <Gold.Chemscore.Lipo.Weighted>
-11.7845

> <Gold.Chemscore.Internal_Hbond.Weighted>
0.0000

> <Gold.Chemscore.DEClash.Weighted>
0.3937

> <Gold.Chemscore.DEInternal.Weighted>
2.1378

> <Gold.Chemscore.Rot.Weighted>
5.0936

> <Gold.Chemscore.Internal.Correction.Weighted>
   9.000000E+99

> <Gold.Protein.RotatedTorsions>
[ 6907 6896 6895 6894 ] final -137.49 input  -60.11 | X-H torsion
[ 7974 7965 7964 7962 ] final  -90.92 input  175.53 | X-H torsion
[ 8008 7997 7996 7995 ] final -155.77 input   59.86 | X-H torsion
[ 10167 10162 10161 10158 ] final  175.38 input  -65.29 | X-H torsion
[ 10718 10713 10712 10709 ] final  159.57 input   66.30 | X-H torsion
[ 10763 10752 10751 10750 ] final  133.57 input  -60.55 | X-H torsion
[ 11005 11000 10999 10996 ] final   95.84 input  -57.11 | X-H torsion

> <Gold.Protein.ActiveResidues>
 VAL166  LYS551  ARG553  GLY616  TRP617  ASP618  TYR619  PRO620  LYS621  CYS622 
 ASP623  PHE694  ASN695  SER759  ASP760  ASP761  ALA762  ILE779  LEU786  VAL792 
 PHE793  MET794  SER795  GLU796  ALA797  LYS798  CYS799  TRP800  GLU811  SER814 

> <Gold.Protein.RotatedAtoms>
  151.0232  133.5858  159.2668 H   0  0  0  0  0  0  0  0  0  0  0  0  # atno 6907 bound_to 6896
  151.2967  135.0756  159.9233 H   0  0  0  0  0  0  0  0  0  0  0  0  # atno 6908 bound_to 6896
  152.5328  133.9920  159.7909 H   0  0  0  0  0  0  0  0  0  0  0  0  # atno 6909 bound_to 6896
  145.4200  140.9550  143.2186 H   0  0  0  0  0  0  0  0  0  0  0  0  # atno 7974 bound_to 7965
  155.7070  140.0773  157.2387 H   0  0  0  0  0  0  0  0  0  0  0  0  # atno 8008 bound_to 7997
  154.4064  140.1637  156.2307 H   0  0  0  0  0  0  0  0  0  0  0  0  # atno 8009 bound_to 7997
  155.9317  140.3391  155.6257 H   0  0  0  0  0  0  0  0  0  0  0  0  # atno 8010 bound_to 7997
  139.5175  144.3037  152.0355 H   0  0  0  0  0  0  0  0  0  0  0  0  # atno 10167 bound_to 10162
  157.1624  131.0590  151.2225 H   0  0  0  0  0  0  0  0  0  0  0  0  # atno 10718 bound_to 10713
  153.8094  135.3131  155.3399 H   0  0  0  0  0  0  0  0  0  0  0  0  # atno 10763 bound_to 10752
  154.8057  135.4699  154.0390 H   0  0  0  0  0  0  0  0  0  0  0  0  # atno 10764 bound_to 10752
  153.1763  135.6886  153.8626 H   0  0  0  0  0  0  0  0  0  0  0  0  # atno 10765 bound_to 10752
  139.8786  134.8920  156.4071 H   0  0  0  0  0  0  0  0  0  0  0  0  # atno 11005 bound_to 11000
  144.8252  139.5723  143.6969 LP  0  0  0  0  0  0  0  0  0  0  0  0  # atno 17320 bound_to 7965
  146.2661  139.6524  142.9328 LP  0  0  0  0  0  0  0  0  0  0  0  0  # atno 17321 bound_to 7965
  140.2484  144.4195  150.6231 LP  0  0  0  0  0  0  0  0  0  0  0  0  # atno 17342 bound_to 10162
  140.6242  143.2179  151.6632 LP  0  0  0  0  0  0  0  0  0  0  0  0  # atno 17343 bound_to 10162
  157.4120  130.7390  149.6846 LP  0  0  0  0  0  0  0  0  0  0  0  0  # atno 17370 bound_to 10713
  155.9751  130.4093  150.3870 LP  0  0  0  0  0  0  0  0  0  0  0  0  # atno 17371 bound_to 10713
  140.9226  133.7634  155.9926 LP  0  0  0  0  0  0  0  0  0  0  0  0  # atno 17394 bound_to 11000
  140.8422  134.3053  157.5309 LP  0  0  0  0  0  0  0  0  0  0  0  0  # atno 17395 bound_to 11000

$$$$
