AV-unprocessed.smi:740|AV-procd|sdf|3551|dock2
  -GOLD-   22720 0543D 1   1.00000     0.00000
 Structure written by MMmdl.
 45 47  0  0  0  0  0  0  0  0  2 V2000
  152.4577  143.4891  161.4103 C   0  0  0  0  0  0  0  0  0  0  0  0
  152.2010  142.7358  160.1162 C   0  0  0  0  0  0  0  0  0  0  0  0
  151.2728  143.2729  159.1963 C   0  0  0  0  0  0  0  0  0  0  0  0
  151.0609  142.5623  158.0210 C   0  0  0  0  0  0  0  0  0  0  0  0
  150.2266  142.8260  156.9330 N   0  3  0  0  0  0  0  0  0  0  0  0
  150.3614  141.8368  156.0072 C   0  0  0  0  0  0  0  0  0  0  0  0
  151.2672  140.9432  156.4891 N   0  0  0  0  0  0  0  0  0  0  0  0
  151.7664  139.7012  155.8819 C   0  0  0  0  0  0  0  0  0  0  0  0
  150.7004  138.9831  155.0314 C   0  0  1  0  0  0  0  0  0  0  0  0
  150.4625  139.7417  153.8618 O   0  0  0  0  0  0  0  0  0  0  0  0
  151.1596  137.5677  154.6233 C   0  0  0  0  0  0  0  0  0  0  0  0
  150.4358  136.5204  155.3529 N   0  0  0  0  0  0  0  0  0  0  0  0
  149.1068  136.3553  155.3077 C   0  0  0  0  0  0  0  0  0  0  0  0
  148.3092  137.0420  154.6699 O   0  0  0  0  0  0  0  0  0  0  0  0
  148.6743  135.1713  156.1610 C   0  0  0  0  0  0  0  0  0  0  0  0
  150.0002  134.6386  156.7249 C   0  0  1  0  0  0  0  0  0  0  0  0
  150.2893  133.1757  156.3500 C   0  0  0  0  0  0  0  0  0  0  0  0
  151.0277  135.5930  156.1191 C   0  0  0  0  0  0  0  0  0  0  0  0
  152.2365  135.4888  156.3276 O   0  0  0  0  0  0  0  0  0  0  0  0
  151.7320  141.3551  157.7442 C   0  0  0  0  0  0  0  0  0  0  0  0
  152.6493  140.8119  158.6411 C   0  0  0  0  0  0  0  0  0  0  0  0
  152.8818  141.5216  159.8411 C   0  0  0  0  0  0  0  0  0  0  0  0
  153.8813  140.9549  160.8353 C   0  0  0  0  0  0  0  0  0  0  0  0
  151.8262  144.3745  161.4882 H   0  0  0  0  0  0  0  0  0  0  0  0
  153.4968  143.8148  161.4623 H   0  0  0  0  0  0  0  0  0  0  0  0
  152.2489  142.8553  162.2724 H   0  0  0  0  0  0  0  0  0  0  0  0
  150.7521  144.1977  159.3974 H   0  0  0  0  0  0  0  0  0  0  0  0
  149.8433  141.7723  155.0613 H   0  0  0  0  0  0  0  0  0  0  0  0
  152.6658  139.9129  155.3032 H   0  0  0  0  0  0  0  0  0  0  0  0
  152.0782  139.0550  156.7033 H   0  0  0  0  0  0  0  0  0  0  0  0
  149.7740  138.9280  155.6048 H   0  0  0  0  0  0  0  0  0  0  0  0
  149.8989  139.2437  153.2896 H   0  0  0  0  0  0  0  0  0  0  0  0
  151.0761  137.4314  153.5434 H   0  0  0  0  0  0  0  0  0  0  0  0
  152.2230  137.4537  154.8416 H   0  0  0  0  0  0  0  0  0  0  0  0
  148.0000  135.4989  156.9531 H   0  0  0  0  0  0  0  0  0  0  0  0
  148.1554  134.4352  155.5457 H   0  0  0  0  0  0  0  0  0  0  0  0
  150.0144  134.7509  157.8099 H   0  0  0  0  0  0  0  0  0  0  0  0
  151.2202  132.8301  156.8006 H   0  0  0  0  0  0  0  0  0  0  0  0
  150.3726  133.0460  155.2701 H   0  0  0  0  0  0  0  0  0  0  0  0
  149.4922  132.5201  156.7015 H   0  0  0  0  0  0  0  0  0  0  0  0
  153.1705  139.8897  158.4324 H   0  0  0  0  0  0  0  0  0  0  0  0
  154.3557  140.0503  160.4535 H   0  0  0  0  0  0  0  0  0  0  0  0
  153.3853  140.7015  161.7725 H   0  0  0  0  0  0  0  0  0  0  0  0
  154.6690  141.6790  161.0441 H   0  0  0  0  0  0  0  0  0  0  0  0
  149.6102  143.6217  156.8271 H   0  0  0  0  0  0  0  0  0  0  0  0
  1  2  1  0  0  0  0
  1 24  1  0  0  0  0
  1 25  1  0  0  0  0
  1 26  1  0  0  0  0
  2 22  1  0  0  0  0
  2  3  2  0  0  0  0
  3  4  1  0  0  0  0
  3 27  1  0  0  0  0
  4 20  2  0  0  0  0
  4  5  1  0  0  0  0
  5  6  2  0  0  0  0
  5 45  1  0  0  0  0
  6  7  1  0  0  0  0
  6 28  1  0  0  0  0
  7  8  1  0  0  0  0
  7 20  1  0  0  0  0
  8  9  1  0  0  0  0
  8 29  1  0  0  0  0
  8 30  1  0  0  0  0
  9 10  1  0  0  0  0
  9 11  1  0  0  0  0
  9 31  1  0  0  0  0
 10 32  1  0  0  0  0
 11 12  1  0  0  0  0
 11 33  1  0  0  0  0
 11 34  1  0  0  0  0
 12 18  1  0  0  0  0
 12 13  1  0  0  0  0
 13 14  2  0  0  0  0
 13 15  1  0  0  0  0
 15 16  1  0  0  0  0
 15 35  1  0  0  0  0
 15 36  1  0  0  0  0
 16 17  1  0  0  0  0
 16 18  1  0  0  0  0
 16 37  1  0  0  0  0
 17 38  1  0  0  0  0
 17 39  1  0  0  0  0
 17 40  1  0  0  0  0
 18 19  2  0  0  0  0
 20 21  1  0  0  0  0
 21 22  2  0  0  0  0
 21 41  1  0  0  0  0
 22 23  1  0  0  0  0
 23 42  1  0  0  0  0
 23 43  1  0  0  0  0
 23 44  1  0  0  0  0
M  CHG  1   5   1
M  END
> <s_m_source_file>
AV-unprocessed.smi

> <i_m_source_file_index>
740

> <i_lp_mmshare_version>
43012

> <i_f3d_flags>
0

> <s_epik_input>
W0NIM11jKFtjSF0xKWMoW0NIM10pW2NIXWMoYzEyKW4oW2NIXW4yKVtDSDJdW0NASF0oW09IXSlbQ0gyXU4zQyg9TylbQ0gyXVtDQEBIXShbQ0gzXSlDMz1P

> <s_epik_cmdline>
J2VwaWtfcHl0aG9uJywgJy1waCcsICc3LjAnLCAnLXRuJywgJzgnLCAnLW1hJywgJzIwMCcsICctbWV0YWxfYmluZGluZycsICctaW1hZScsICc8aW5maWxlLm1hZT4nLCAnLW9tYWUnLCAnPG91dGZpbGUubWFlPic=

> <r_lp_tautomer_probability>
1

> <r_epik_Ionization_Penalty>
1.08202

> <r_epik_Ionization_Penalty_Charging>
1.08202

> <r_epik_Ionization_Penalty_Neutral>
1.16605e-06

> <r_epik_State_Penalty>
1.13754

> <r_epik_Charging_Adjusted_Penalty>
2.21956

> <i_epik_Tot_Q>
1

> <i_epik_Tot_abs_Q>
1

> <r_epik_Metal_State_Penalty>
5.13645

> <b_epik_Metal_Only>
0

> <s_lp_Force_Field>
OPLS_2005

> <r_lp_Energy>
22.2654

> <b_lp_Chiralities_Consistent>
1

> <s_lp_Variant>
AV-unprocessed.smi:740-6

> <Gold.Version>
5.8.1

> <Gold.Id.Protein>
6NUR|6NUR_protein|mol2

> <Gold.PLP.Fitness>
54.5557

> <Gold.PLP.PLP>
-44.3436

> <Gold.PLP.part.hbond>
-4.0000

> <Gold.PLP.part.metal>
0.0000

> <Gold.PLP.part.buried>
-4.0764

> <Gold.PLP.part.nonpolar>
-36.0488

> <Gold.PLP.part.repulsive>
0.8411

> <Gold.PLP.ligand.clash>
0.0000

> <Gold.PLP.ligand.torsion>
1.0956

> <Gold.PLP.Chemscore.Hbond>
4.1248

> <Gold.PLP.Chemscore.CHOScore>
0.0000

> <Gold.PLP.Chemscore.Metal>
0.0000

> <Gold.Chemscore.Hbonds>
donor molecule, donor type, donor heavy atom, donor atom, acceptor molecule, acceptor atom, score
      L1  H     5    45       P1  8028  1.79
      L1  H    10    32       P1  7957  0.12
      P1  H  7989  7998       L1    10  1.00
      P1  H 10752 10764       L1    19  1.00

> <Gold.PLP.Chemscore.Internal.Correction>
0.0288

> <Gold.Rescore>
     Score         DG    S(hbond)    S(metal)    S(lipo)     H(rot)  DE(clash)    DE(int)     intcor
     19.12     -21.43       2.83        0.00     107.41       2.37       0.03       2.28       ----

> <Gold.Chemscore.Fitness>
19.1239

> <Gold.Chemscore.DG>
-21.4344

> <Gold.Chemscore.ZeroCoef>
-5.4800

> <Gold.Chemscore.Hbond>
2.8325

> <Gold.Chemscore.Metal>
0.0000

> <Gold.Chemscore.Lipo>
107.4121

> <Gold.Chemscore.Internal_Hbond>
0.0000

> <Gold.Chemscore.DEClash>
0.0264

> <Gold.Chemscore.DEInternal>
2.2842

> <Gold.Chemscore.Rot>
2.3724

> <Gold.Chemscore.Internal.Correction>
   9.000000E+99

> <Gold.Chemscore.Hbonds>
donor molecule, donor type, donor heavy atom, donor atom, acceptor molecule, acceptor atom, score
      L1  H     5    45       P1  8028  0.87
      L1  H    10    32       P1  7957  0.13
      P1  H  7989  7998       L1    10  0.89
      P1  H 10752 10764       L1    19  0.85

> <Gold.Chemscore.Hbond.Weighted>
-9.4606

> <Gold.Chemscore.Metal.Weighted>
-0.0000

> <Gold.Chemscore.Lipo.Weighted>
-12.5672

> <Gold.Chemscore.Internal_Hbond.Weighted>
0.0000

> <Gold.Chemscore.DEClash.Weighted>
0.0264

> <Gold.Chemscore.DEInternal.Weighted>
2.2842

> <Gold.Chemscore.Rot.Weighted>
6.0734

> <Gold.Chemscore.Internal.Correction.Weighted>
   9.000000E+99

> <Gold.Protein.RotatedTorsions>
[ 6907 6896 6895 6894 ] final  -50.14 input  -60.11 | X-H torsion
[ 7974 7965 7964 7962 ] final -107.58 input  175.53 | X-H torsion
[ 8008 7997 7996 7995 ] final    2.36 input   59.86 | X-H torsion
[ 10167 10162 10161 10158 ] final    8.67 input  -65.29 | X-H torsion
[ 10718 10713 10712 10709 ] final  -62.90 input   66.30 | X-H torsion
[ 10763 10752 10751 10750 ] final  -34.41 input  -60.55 | X-H torsion
[ 11005 11000 10999 10996 ] final   91.11 input  -57.11 | X-H torsion

> <Gold.Protein.ActiveResidues>
 VAL166  LYS551  ARG553  GLY616  TRP617  ASP618  TYR619  PRO620  LYS621  CYS622 
 ASP623  PHE694  ASN695  SER759  ASP760  ASP761  ALA762  ILE779  LEU786  VAL792 
 PHE793  MET794  SER795  GLU796  ALA797  LYS798  CYS799  TRP800  GLU811  SER814 

> <Gold.Protein.RotatedAtoms>
  150.8736  134.8114  159.7172 H   0  0  0  0  0  0  0  0  0  0  0  0  # atno 6907 bound_to 6896
  152.4731  134.4907  159.9704 H   0  0  0  0  0  0  0  0  0  0  0  0  # atno 6908 bound_to 6896
  151.4992  133.3469  159.2901 H   0  0  0  0  0  0  0  0  0  0  0  0  # atno 6909 bound_to 6896
  145.2036  140.9067  143.3355 H   0  0  0  0  0  0  0  0  0  0  0  0  # atno 7974 bound_to 7965
  154.6906  140.2652  155.6816 H   0  0  0  0  0  0  0  0  0  0  0  0  # atno 8008 bound_to 7997
  156.2731  140.2792  156.1406 H   0  0  0  0  0  0  0  0  0  0  0  0  # atno 8009 bound_to 7997
  155.0902  140.0373  157.2656 H   0  0  0  0  0  0  0  0  0  0  0  0  # atno 8010 bound_to 7997
  140.6300  143.8014  150.7283 H   0  0  0  0  0  0  0  0  0  0  0  0  # atno 10167 bound_to 10162
  156.0825  130.4214  150.1201 H   0  0  0  0  0  0  0  0  0  0  0  0  # atno 10718 bound_to 10713
  153.8463  135.6853  153.4797 H   0  0  0  0  0  0  0  0  0  0  0  0  # atno 10763 bound_to 10752
  153.1423  135.4652  154.9513 H   0  0  0  0  0  0  0  0  0  0  0  0  # atno 10764 bound_to 10752
  154.7822  135.3272  154.7912 H   0  0  0  0  0  0  0  0  0  0  0  0  # atno 10765 bound_to 10752
  139.8844  134.8655  156.3382 H   0  0  0  0  0  0  0  0  0  0  0  0  # atno 11005 bound_to 11000
  144.9924  139.3677  143.6208 LP  0  0  0  0  0  0  0  0  0  0  0  0  # atno 17320 bound_to 7965
  146.3412  139.9112  142.8780 LP  0  0  0  0  0  0  0  0  0  0  0  0  # atno 17321 bound_to 7965
  140.1623  143.4265  152.2058 LP  0  0  0  0  0  0  0  0  0  0  0  0  # atno 17342 bound_to 10162
  139.5516  144.7341  151.4419 LP  0  0  0  0  0  0  0  0  0  0  0  0  # atno 17343 bound_to 10162
  156.9229  130.9689  151.3545 LP  0  0  0  0  0  0  0  0  0  0  0  0  # atno 17370 bound_to 10713
  157.5947  130.8469  149.8711 LP  0  0  0  0  0  0  0  0  0  0  0  0  # atno 17371 bound_to 10713
  140.9677  133.7347  156.0490 LP  0  0  0  0  0  0  0  0  0  0  0  0  # atno 17394 bound_to 11000
  140.7910  134.3617  157.5464 LP  0  0  0  0  0  0  0  0  0  0  0  0  # atno 17395 bound_to 11000

$$$$
