AV-unprocessed.smi:2355|AV-procd|sdf|9392|dock6
  -GOLD-   2272013 23D 1   1.00000     0.00000
 Structure written by MMmdl.
 49 50  0  0  0  0  0  0  0  0  2 V2000
  151.5977  145.9648  160.2445 C   0  0  0  0  0  0  0  0  0  0  0  0
  151.6377  144.5805  159.6328 C   0  0  0  0  0  0  0  0  0  0  0  0
  152.4971  143.5902  160.1454 C   0  0  0  0  0  0  0  0  0  0  0  0
  152.4925  142.3227  159.5309 C   0  0  0  0  0  0  0  0  0  0  0  0
  153.3905  141.2109  160.0310 C   0  0  0  0  0  0  0  0  0  0  0  0
  151.7073  142.0190  158.4753 N   0  0  0  0  0  0  0  0  0  0  0  0
  150.8739  142.9646  157.9744 C   0  0  0  0  0  0  0  0  0  0  0  0
  150.0114  142.7457  156.8674 N   0  0  0  0  0  0  0  0  0  0  0  0
  149.3372  141.6258  156.5539 C   0  0  0  0  0  0  0  0  0  0  0  0
  149.3240  140.5919  157.2232 O   0  0  0  0  0  0  0  0  0  0  0  0
  148.6791  141.7590  155.3918 N   0  0  0  0  0  0  0  0  0  0  0  0
  147.8636  140.7271  154.7466 C   0  0  1  0  0  0  0  0  0  0  0  0
  146.6664  141.3908  154.0460 C   0  0  0  0  0  0  0  0  0  0  0  0
  148.7098  139.8178  153.8042 C   0  0  1  0  0  0  0  0  0  0  0  0
  149.9967  139.3149  154.5050 C   0  0  0  0  0  0  0  0  0  0  0  0
  147.8583  138.7193  153.2389 N   0  3  0  0  0  0  0  0  0  0  0  0
  147.0924  137.9886  154.2822 C   0  0  0  0  0  0  0  0  0  0  0  0
  146.3839  136.7666  153.6765 C   0  0  0  0  0  0  0  0  0  0  0  0
  145.5197  137.1927  152.6325 O   0  0  0  0  0  0  0  0  0  0  0  0
  146.2384  137.8216  151.5804 C   0  0  0  0  0  0  0  0  0  0  0  0
  146.9564  139.0748  152.1108 C   0  0  0  0  0  0  0  0  0  0  0  0
  150.8165  144.2610  158.5326 C   0  0  0  0  0  0  0  0  0  0  0  0
  152.0464  145.9682  161.2381 H   0  0  0  0  0  0  0  0  0  0  0  0
  150.5686  146.3133  160.3361 H   0  0  0  0  0  0  0  0  0  0  0  0
  152.1451  146.6688  159.6176 H   0  0  0  0  0  0  0  0  0  0  0  0
  153.1427  143.7965  160.9868 H   0  0  0  0  0  0  0  0  0  0  0  0
  153.8793  141.4878  160.9652 H   0  0  0  0  0  0  0  0  0  0  0  0
  154.1627  140.9888  159.2942 H   0  0  0  0  0  0  0  0  0  0  0  0
  152.8118  140.3037  160.2075 H   0  0  0  0  0  0  0  0  0  0  0  0
  149.9163  143.5238  156.2315 H   0  0  0  0  0  0  0  0  0  0  0  0
  148.7466  142.6447  154.9112 H   0  0  0  0  0  0  0  0  0  0  0  0
  147.4230  140.1072  155.5279 H   0  0  0  0  0  0  0  0  0  0  0  0
  146.0525  140.6511  153.5317 H   0  0  0  0  0  0  0  0  0  0  0  0
  146.9770  142.1370  153.3148 H   0  0  0  0  0  0  0  0  0  0  0  0
  146.0268  141.8973  154.7700 H   0  0  0  0  0  0  0  0  0  0  0  0
  149.0461  140.4254  152.9622 H   0  0  0  0  0  0  0  0  0  0  0  0
  150.5968  140.1415  154.8826 H   0  0  0  0  0  0  0  0  0  0  0  0
  150.6464  138.7722  153.8184 H   0  0  0  0  0  0  0  0  0  0  0  0
  149.7737  138.6613  155.3488 H   0  0  0  0  0  0  0  0  0  0  0  0
  147.7492  137.6545  155.0840 H   0  0  0  0  0  0  0  0  0  0  0  0
  146.3581  138.6577  154.7332 H   0  0  0  0  0  0  0  0  0  0  0  0
  147.1072  136.0419  153.2988 H   0  0  0  0  0  0  0  0  0  0  0  0
  145.7922  136.2596  154.4388 H   0  0  0  0  0  0  0  0  0  0  0  0
  146.9524  137.1217  151.1429 H   0  0  0  0  0  0  0  0  0  0  0  0
  145.5393  138.0959  150.7906 H   0  0  0  0  0  0  0  0  0  0  0  0
  146.2270  139.8167  152.4394 H   0  0  0  0  0  0  0  0  0  0  0  0
  147.5187  139.5062  151.2832 H   0  0  0  0  0  0  0  0  0  0  0  0
  150.1504  145.0064  158.1226 H   0  0  0  0  0  0  0  0  0  0  0  0
  148.5115  138.0518  152.8526 H   0  0  0  0  0  0  0  0  0  0  0  0
  1  2  1  0  0  0  0
  1 23  1  0  0  0  0
  1 24  1  0  0  0  0
  1 25  1  0  0  0  0
  2 22  1  0  0  0  0
  2  3  2  0  0  0  0
  3  4  1  0  0  0  0
  3 26  1  0  0  0  0
  4  5  1  0  0  0  0
  4  6  2  0  0  0  0
  5 27  1  0  0  0  0
  5 28  1  0  0  0  0
  5 29  1  0  0  0  0
  6  7  1  0  0  0  0
  7  8  1  0  0  0  0
  7 22  2  0  0  0  0
  8  9  1  0  0  0  0
  8 30  1  0  0  0  0
  9 10  2  0  0  0  0
  9 11  1  0  0  0  0
 11 12  1  0  0  0  0
 11 31  1  0  0  0  0
 12 13  1  0  0  0  0
 12 14  1  0  0  0  0
 12 32  1  0  0  0  0
 13 33  1  0  0  0  0
 13 34  1  0  0  0  0
 13 35  1  0  0  0  0
 14 15  1  0  0  0  0
 14 16  1  0  0  0  0
 14 36  1  0  0  0  0
 15 37  1  0  0  0  0
 15 38  1  0  0  0  0
 15 39  1  0  0  0  0
 16 21  1  0  0  0  0
 16 17  1  0  0  0  0
 16 49  1  0  0  0  0
 17 18  1  0  0  0  0
 17 40  1  0  0  0  0
 17 41  1  0  0  0  0
 18 19  1  0  0  0  0
 18 42  1  0  0  0  0
 18 43  1  0  0  0  0
 19 20  1  0  0  0  0
 20 21  1  0  0  0  0
 20 44  1  0  0  0  0
 20 45  1  0  0  0  0
 21 46  1  0  0  0  0
 21 47  1  0  0  0  0
 22 48  1  0  0  0  0
M  CHG  1  16   1
M  END
> <s_m_source_file>
AV-unprocessed.smi

> <i_m_source_file_index>
2355

> <i_lp_mmshare_version>
43012

> <i_f3d_flags>
0

> <s_epik_input>
W0NIM11jMVtjSF1jKFtDSDNdKW5jKFtjSF0xKVtOSF1DKD1PKVtOSF1bQ0BIXShbQ0gzXSlbQ0BIXShbQ0gzXSlOMltDSDJdW0NIMl1PW0NIMl1bQ0gyXTI=

> <s_epik_cmdline>
J2VwaWtfcHl0aG9uJywgJy1waCcsICc3LjAnLCAnLXRuJywgJzgnLCAnLW1hJywgJzIwMCcsICctbWV0YWxfYmluZGluZycsICctaW1hZScsICc8aW5maWxlLm1hZT4nLCAnLW9tYWUnLCAnPG91dGZpbGUubWFlPic=

> <r_epik_Ionization_Penalty>
0.602711

> <r_epik_Ionization_Penalty_Charging>
0.602531

> <r_epik_Ionization_Penalty_Neutral>
0.000180055

> <r_epik_State_Penalty>
0.617039

> <r_epik_Charging_Adjusted_Penalty>
1.21957

> <i_epik_Tot_Q>
1

> <i_epik_Tot_abs_Q>
1

> <r_epik_Metal_State_Penalty>
0.617075

> <b_epik_Metal_Only>
0

> <s_lp_Force_Field>
OPLS_2005

> <r_lp_Energy>
30.3549

> <b_lp_Chiralities_Consistent>
1

> <s_lp_Variant>
AV-unprocessed.smi:2355-8

> <Gold.Version>
5.8.1

> <Gold.Id.Protein>
6NUR|6NUR_protein|mol2

> <Gold.PLP.Fitness>
50.8208

> <Gold.PLP.PLP>
-43.3611

> <Gold.PLP.part.hbond>
-3.9798

> <Gold.PLP.part.metal>
0.0000

> <Gold.PLP.part.buried>
1.0088

> <Gold.PLP.part.nonpolar>
-41.7389

> <Gold.PLP.part.repulsive>
0.4261

> <Gold.PLP.ligand.clash>
0.0000

> <Gold.PLP.ligand.torsion>
0.9767

> <Gold.PLP.Chemscore.Hbond>
3.0921

> <Gold.PLP.Chemscore.CHOScore>
0.0000

> <Gold.PLP.Chemscore.Metal>
0.0000

> <Gold.Chemscore.Hbonds>
donor molecule, donor type, donor heavy atom, donor atom, acceptor molecule, acceptor atom, score
      L1  H     8    30       P1  8028  0.91
      L1  H    11    31       P1  8028  0.38
      L1  H    16    49       P1  7948  1.66

> <Gold.PLP.Chemscore.Internal.Correction>
0.1367

> <Gold.Rescore>
     Score         DG    S(hbond)    S(metal)    S(lipo)     H(rot)  DE(clash)    DE(int)     intcor
     18.51     -21.70       2.09        0.00     110.51       1.45       0.56       2.62       ----

> <Gold.Chemscore.Fitness>
18.5122

> <Gold.Chemscore.DG>
-21.6990

> <Gold.Chemscore.ZeroCoef>
-5.4800

> <Gold.Chemscore.Hbond>
2.0932

> <Gold.Chemscore.Metal>
0.0000

> <Gold.Chemscore.Lipo>
110.5123

> <Gold.Chemscore.Internal_Hbond>
0.0000

> <Gold.Chemscore.DEClash>
0.5635

> <Gold.Chemscore.DEInternal>
2.6233

> <Gold.Chemscore.Rot>
1.4462

> <Gold.Chemscore.Internal.Correction>
   9.000000E+99

> <Gold.Chemscore.Hbonds>
donor molecule, donor type, donor heavy atom, donor atom, acceptor molecule, acceptor atom, score
      L1  H     8    30       P1  8028  0.89
      L1  H    11    31       P1  8028  0.39
      L1  H    16    49       P1  7948  0.80

> <Gold.Chemscore.Hbond.Weighted>
-6.9913

> <Gold.Chemscore.Metal.Weighted>
-0.0000

> <Gold.Chemscore.Lipo.Weighted>
-12.9299

> <Gold.Chemscore.Internal_Hbond.Weighted>
0.0000

> <Gold.Chemscore.DEClash.Weighted>
0.5635

> <Gold.Chemscore.DEInternal.Weighted>
2.6233

> <Gold.Chemscore.Rot.Weighted>
3.7023

> <Gold.Chemscore.Internal.Correction.Weighted>
   9.000000E+99

> <Gold.Protein.RotatedTorsions>
[ 6907 6896 6895 6894 ] final  -52.72 input  -60.11 | X-H torsion
[ 7974 7965 7964 7962 ] final -119.76 input  175.53 | X-H torsion
[ 8008 7997 7996 7995 ] final -163.75 input   59.86 | X-H torsion
[ 10167 10162 10161 10158 ] final  176.48 input  -65.29 | X-H torsion
[ 10718 10713 10712 10709 ] final  -67.91 input   66.30 | X-H torsion
[ 10763 10752 10751 10750 ] final -166.50 input  -60.55 | X-H torsion
[ 11005 11000 10999 10996 ] final  -38.49 input  -57.11 | X-H torsion

> <Gold.Protein.ActiveResidues>
 VAL166  LYS551  ARG553  GLY616  TRP617  ASP618  TYR619  PRO620  LYS621  CYS622 
 ASP623  PHE694  ASN695  SER759  ASP760  ASP761  ALA762  ILE779  LEU786  VAL792 
 PHE793  MET794  SER795  GLU796  ALA797  LYS798  CYS799  TRP800  GLU811  SER814 

> <Gold.Protein.RotatedAtoms>
  150.8492  134.7811  159.6994 H   0  0  0  0  0  0  0  0  0  0  0  0  # atno 6907 bound_to 6896
  152.4561  134.5284  159.9813 H   0  0  0  0  0  0  0  0  0  0  0  0  # atno 6908 bound_to 6896
  151.5409  133.3395  159.2971 H   0  0  0  0  0  0  0  0  0  0  0  0  # atno 6909 bound_to 6896
  145.0589  140.8275  143.4164 H   0  0  0  0  0  0  0  0  0  0  0  0  # atno 7974 bound_to 7965
  155.8258  140.0926  157.1822 H   0  0  0  0  0  0  0  0  0  0  0  0  # atno 8008 bound_to 7997
  154.3979  140.1428  156.3614 H   0  0  0  0  0  0  0  0  0  0  0  0  # atno 8009 bound_to 7997
  155.8218  140.3446  155.5521 H   0  0  0  0  0  0  0  0  0  0  0  0  # atno 8010 bound_to 7997
  139.5216  144.2910  152.0463 H   0  0  0  0  0  0  0  0  0  0  0  0  # atno 10167 bound_to 10162
  156.0533  130.4286  150.1923 H   0  0  0  0  0  0  0  0  0  0  0  0  # atno 10718 bound_to 10713
  154.6826  135.2957  154.9591 H   0  0  0  0  0  0  0  0  0  0  0  0  # atno 10763 bound_to 10752
  154.0581  135.6635  153.4812 H   0  0  0  0  0  0  0  0  0  0  0  0  # atno 10764 bound_to 10752
  153.0558  135.5146  154.7877 H   0  0  0  0  0  0  0  0  0  0  0  0  # atno 10765 bound_to 10752
  141.0031  133.6945  156.2060 H   0  0  0  0  0  0  0  0  0  0  0  0  # atno 11005 bound_to 11000
  145.1433  139.2558  143.5478 LP  0  0  0  0  0  0  0  0  0  0  0  0  # atno 17320 bound_to 7965
  146.3523  140.1117  142.8603 LP  0  0  0  0  0  0  0  0  0  0  0  0  # atno 17321 bound_to 7965
  140.2361  144.4318  150.6279 LP  0  0  0  0  0  0  0  0  0  0  0  0  # atno 17342 bound_to 10162
  140.6322  143.2189  151.6471 LP  0  0  0  0  0  0  0  0  0  0  0  0  # atno 17343 bound_to 10162
  157.0004  130.9920  151.3392 LP  0  0  0  0  0  0  0  0  0  0  0  0  # atno 17370 bound_to 10713
  157.5479  130.8163  149.8109 LP  0  0  0  0  0  0  0  0  0  0  0  0  # atno 17371 bound_to 10713
  140.6856  134.4720  157.5589 LP  0  0  0  0  0  0  0  0  0  0  0  0  # atno 17394 bound_to 11000
  139.9049  134.8471  156.1746 LP  0  0  0  0  0  0  0  0  0  0  0  0  # atno 17395 bound_to 11000

$$$$
