AV-unprocessed.smi:1535|AV-procd|sdf|6181|dock3
  -GOLD-   22720 6343D 1   1.00000     0.00000
 Structure written by MMmdl.
 47 48  0  0  0  0  0  0  0  0  2 V2000
  153.2322  142.9020  161.5260 C   0  0  0  0  0  0  0  0  0  0  0  0
  152.6291  142.4824  160.1969 C   0  0  0  0  0  0  0  0  0  0  0  0
  153.0028  141.2410  159.6342 C   0  0  0  0  0  0  0  0  0  0  0  0
  152.4660  140.8142  158.3998 C   0  0  0  0  0  0  0  0  0  0  0  0
  152.6862  139.6554  157.6749 N   0  0  0  0  0  0  0  0  0  0  0  0
  151.9012  139.8463  156.6186 C   0  0  0  0  0  0  0  0  0  0  0  0
  151.2003  140.9960  156.5710 N   0  0  0  0  0  0  0  0  0  0  0  0
  150.2875  141.4282  155.5279 C   0  0  0  0  0  0  0  0  0  0  0  0
  148.8127  141.1897  155.9047 C   0  0  1  0  0  0  0  0  0  0  0  0
  148.4344  142.0989  156.9210 O   0  0  0  0  0  0  0  0  0  0  0  0
  147.8695  141.3734  154.6993 C   0  0  0  0  0  0  0  0  0  0  0  0
  147.0433  142.6007  154.8254 N   0  3  1  0  0  0  0  0  0  0  0  0
  146.8294  143.2683  153.5209 C   0  0  0  0  0  0  0  0  0  0  0  0
  145.7734  142.3821  155.5664 C   0  0  0  0  0  0  0  0  0  0  0  0
  145.2302  143.6840  156.1824 C   0  0  2  0  0  0  0  0  0  0  0  0
  144.7378  143.4813  157.6236 C   0  0  0  0  0  0  0  0  0  0  0  0
  144.1565  144.2420  155.3452 C   0  0  0  0  0  0  0  0  0  0  0  0
  143.3132  144.6817  154.6870 N   0  0  0  0  0  0  0  0  0  0  0  0
  151.5388  141.6715  157.7380 C   0  0  0  0  0  0  0  0  0  0  0  0
  151.1573  142.9078  158.2885 C   0  0  0  0  0  0  0  0  0  0  0  0
  151.7014  143.3175  159.5237 C   0  0  0  0  0  0  0  0  0  0  0  0
  151.2805  144.6531  160.1115 C   0  0  0  0  0  0  0  0  0  0  0  0
  153.9720  142.1801  161.8731 H   0  0  0  0  0  0  0  0  0  0  0  0
  152.4566  142.9800  162.2882 H   0  0  0  0  0  0  0  0  0  0  0  0
  153.7274  143.8688  161.4348 H   0  0  0  0  0  0  0  0  0  0  0  0
  153.7075  140.6037  160.1479 H   0  0  0  0  0  0  0  0  0  0  0  0
  151.8349  139.1090  155.8317 H   0  0  0  0  0  0  0  0  0  0  0  0
  150.4654  142.4843  155.3191 H   0  0  0  0  0  0  0  0  0  0  0  0
  150.5364  140.8836  154.6163 H   0  0  0  0  0  0  0  0  0  0  0  0
  148.7149  140.1819  156.3080 H   0  0  0  0  0  0  0  0  0  0  0  0
  148.6290  142.9776  156.6313 H   0  0  0  0  0  0  0  0  0  0  0  0
  148.4716  141.4160  153.7898 H   0  0  0  0  0  0  0  0  0  0  0  0
  147.2117  140.5100  154.5856 H   0  0  0  0  0  0  0  0  0  0  0  0
  146.2787  142.6217  152.8364 H   0  0  0  0  0  0  0  0  0  0  0  0
  147.7835  143.5216  153.0575 H   0  0  0  0  0  0  0  0  0  0  0  0
  146.2693  144.1955  153.6395 H   0  0  0  0  0  0  0  0  0  0  0  0
  145.0354  141.9405  154.8946 H   0  0  0  0  0  0  0  0  0  0  0  0
  145.9120  141.6551  156.3669 H   0  0  0  0  0  0  0  0  0  0  0  0
  146.0143  144.4409  156.1852 H   0  0  0  0  0  0  0  0  0  0  0  0
  144.3453  144.4114  158.0348 H   0  0  0  0  0  0  0  0  0  0  0  0
  145.5429  143.1477  158.2788 H   0  0  0  0  0  0  0  0  0  0  0  0
  143.9413  142.7379  157.6677 H   0  0  0  0  0  0  0  0  0  0  0  0
  150.4514  143.5351  157.7648 H   0  0  0  0  0  0  0  0  0  0  0  0
  150.4957  145.1198  159.5156 H   0  0  0  0  0  0  0  0  0  0  0  0
  152.1286  145.3373  160.1467 H   0  0  0  0  0  0  0  0  0  0  0  0
  150.8966  144.5236  161.1237 H   0  0  0  0  0  0  0  0  0  0  0  0
  147.5962  143.2375  155.3821 H   0  0  0  0  0  0  0  0  0  0  0  0
  1  2  1  0  0  0  0
  1 23  1  0  0  0  0
  1 24  1  0  0  0  0
  1 25  1  0  0  0  0
  2 21  1  0  0  0  0
  2  3  2  0  0  0  0
  3  4  1  0  0  0  0
  3 26  1  0  0  0  0
  4 19  2  0  0  0  0
  4  5  1  0  0  0  0
  5  6  2  0  0  0  0
  6  7  1  0  0  0  0
  6 27  1  0  0  0  0
  7  8  1  0  0  0  0
  7 19  1  0  0  0  0
  8  9  1  0  0  0  0
  8 28  1  0  0  0  0
  8 29  1  0  0  0  0
  9 10  1  0  0  0  0
  9 11  1  0  0  0  0
  9 30  1  0  0  0  0
 10 31  1  0  0  0  0
 11 12  1  0  0  0  0
 11 32  1  0  0  0  0
 11 33  1  0  0  0  0
 12 13  1  0  0  0  0
 12 14  1  0  0  0  0
 12 47  1  0  0  0  0
 13 34  1  0  0  0  0
 13 35  1  0  0  0  0
 13 36  1  0  0  0  0
 14 15  1  0  0  0  0
 14 37  1  0  0  0  0
 14 38  1  0  0  0  0
 15 16  1  0  0  0  0
 15 17  1  0  0  0  0
 15 39  1  0  0  0  0
 16 40  1  0  0  0  0
 16 41  1  0  0  0  0
 16 42  1  0  0  0  0
 17 18  3  0  0  0  0
 19 20  1  0  0  0  0
 20 21  2  0  0  0  0
 20 43  1  0  0  0  0
 21 22  1  0  0  0  0
 22 44  1  0  0  0  0
 22 45  1  0  0  0  0
 22 46  1  0  0  0  0
M  CHG  1  12   1
M  END
> <s_m_source_file>
AV-unprocessed.smi

> <i_m_source_file_index>
1535

> <i_lp_mmshare_version>
43012

> <i_f3d_flags>
0

> <s_epik_input>
W0NIM11jKFtjSF0xKWMoW0NIM10pW2NIXWMoYzEyKW4oW2NIXW4yKVtDSDJdW0NASF0oW09IXSlbQ0gyXU4oW0NIM10pW0NIMl1bQ0BIXShbQ0gzXSlDI04=

> <s_epik_cmdline>
J2VwaWtfcHl0aG9uJywgJy1waCcsICc3LjAnLCAnLXRuJywgJzgnLCAnLW1hJywgJzIwMCcsICctbWV0YWxfYmluZGluZycsICctaW1hZScsICc8aW5maWxlLm1hZT4nLCAnLW9tYWUnLCAnPG91dGZpbGUubWFlPic=

> <r_epik_Ionization_Penalty>
2.21058

> <r_epik_Ionization_Penalty_Charging>
2.12381

> <r_epik_Ionization_Penalty_Neutral>
0.0867699

> <r_epik_State_Penalty>
2.36208

> <r_epik_Charging_Adjusted_Penalty>
4.48589

> <i_epik_Tot_Q>
1

> <i_epik_Tot_abs_Q>
1

> <r_epik_Metal_State_Penalty>
2.2818

> <b_epik_Metal_Only>
0

> <s_lp_Force_Field>
OPLS_2005

> <r_lp_Energy>
17.3963

> <b_lp_Chiralities_Consistent>
1

> <s_lp_Variant>
AV-unprocessed.smi:1535-12

> <Gold.Version>
5.8.1

> <Gold.Id.Protein>
6NUR|6NUR_protein|mol2

> <Gold.PLP.Fitness>
47.3747

> <Gold.PLP.PLP>
-39.6807

> <Gold.PLP.part.hbond>
-3.0000

> <Gold.PLP.part.metal>
0.0000

> <Gold.PLP.part.buried>
-4.5855

> <Gold.PLP.part.nonpolar>
-31.3722

> <Gold.PLP.part.repulsive>
0.2209

> <Gold.PLP.ligand.clash>
0.0216

> <Gold.PLP.ligand.torsion>
2.2224

> <Gold.PLP.Chemscore.Hbond>
3.9000

> <Gold.PLP.Chemscore.CHOScore>
0.0000

> <Gold.PLP.Chemscore.Metal>
0.0000

> <Gold.Chemscore.Hbonds>
donor molecule, donor type, donor heavy atom, donor atom, acceptor molecule, acceptor atom, score
      L1  H    10    31       P1  8028  1.00
      L1  H    12    47       P1  8028  2.00
      P1  H  7997  8009       L1     5  1.00

> <Gold.PLP.Chemscore.Internal.Correction>
0.4604

> <Gold.Rescore>
     Score         DG    S(hbond)    S(metal)    S(lipo)     H(rot)  DE(clash)    DE(int)     intcor
     10.70     -15.89       1.21        0.00     111.35       2.60       1.81       3.38       ----

> <Gold.Chemscore.Fitness>
10.7037

> <Gold.Chemscore.DG>
-15.8875

> <Gold.Chemscore.ZeroCoef>
-5.4800

> <Gold.Chemscore.Hbond>
1.2107

> <Gold.Chemscore.Metal>
0.0000

> <Gold.Chemscore.Lipo>
111.3480

> <Gold.Chemscore.Internal_Hbond>
0.0000

> <Gold.Chemscore.DEClash>
1.8066

> <Gold.Chemscore.DEInternal>
3.3773

> <Gold.Chemscore.Rot>
2.6031

> <Gold.Chemscore.Internal.Correction>
   9.000000E+99

> <Gold.Chemscore.Hbonds>
donor molecule, donor type, donor heavy atom, donor atom, acceptor molecule, acceptor atom, score
      L1  H    10    31       P1  8028  0.82
      L1  H    12    47       P1  8028  0.25
      P1  H  7997  8009       L1     5  0.07

> <Gold.Chemscore.Hbond.Weighted>
-4.0438

> <Gold.Chemscore.Metal.Weighted>
-0.0000

> <Gold.Chemscore.Lipo.Weighted>
-13.0277

> <Gold.Chemscore.Internal_Hbond.Weighted>
0.0000

> <Gold.Chemscore.DEClash.Weighted>
1.8066

> <Gold.Chemscore.DEInternal.Weighted>
3.3773

> <Gold.Chemscore.Rot.Weighted>
6.6640

> <Gold.Chemscore.Internal.Correction.Weighted>
   9.000000E+99

> <Gold.Protein.RotatedTorsions>
[ 6907 6896 6895 6894 ] final -126.51 input  -60.11 | X-H torsion
[ 7974 7965 7964 7962 ] final   46.71 input  175.53 | X-H torsion
[ 8008 7997 7996 7995 ] final  167.01 input   59.86 | X-H torsion
[ 10167 10162 10161 10158 ] final   84.43 input  -65.29 | X-H torsion
[ 10718 10713 10712 10709 ] final -161.25 input   66.30 | X-H torsion
[ 10763 10752 10751 10750 ] final -163.21 input  -60.55 | X-H torsion
[ 11005 11000 10999 10996 ] final  135.93 input  -57.11 | X-H torsion

> <Gold.Protein.ActiveResidues>
 VAL166  LYS551  ARG553  GLY616  TRP617  ASP618  TYR619  PRO620  LYS621  CYS622 
 ASP623  PHE694  ASN695  SER759  ASP760  ASP761  ALA762  ILE779  LEU786  VAL792 
 PHE793  MET794  SER795  GLU796  ALA797  LYS798  CYS799  TRP800  GLU811  SER814 

> <Gold.Protein.RotatedAtoms>
  150.8976  133.7160  159.2887 H   0  0  0  0  0  0  0  0  0  0  0  0  # atno 6907 bound_to 6896
  151.4689  135.1043  159.9755 H   0  0  0  0  0  0  0  0  0  0  0  0  # atno 6908 bound_to 6896
  152.4858  133.8321  159.7164 H   0  0  0  0  0  0  0  0  0  0  0  0  # atno 6909 bound_to 6896
  146.0365  139.4827  142.9805 H   0  0  0  0  0  0  0  0  0  0  0  0  # atno 7974 bound_to 7965
  156.1670  140.1628  156.8514 H   0  0  0  0  0  0  0  0  0  0  0  0  # atno 8008 bound_to 7997
  154.5217  140.0776  156.8219 H   0  0  0  0  0  0  0  0  0  0  0  0  # atno 8009 bound_to 7997
  155.3591  140.3394  155.4243 H   0  0  0  0  0  0  0  0  0  0  0  0  # atno 8010 bound_to 7997
  139.9081  144.6288  150.8566 H   0  0  0  0  0  0  0  0  0  0  0  0  # atno 10167 bound_to 10162
  156.5936  130.8781  151.2896 H   0  0  0  0  0  0  0  0  0  0  0  0  # atno 10718 bound_to 10713
  154.7143  135.3012  154.9148 H   0  0  0  0  0  0  0  0  0  0  0  0  # atno 10763 bound_to 10752
  154.0040  135.6703  153.4765 H   0  0  0  0  0  0  0  0  0  0  0  0  # atno 10764 bound_to 10752
  153.0780  135.5024  154.8360 H   0  0  0  0  0  0  0  0  0  0  0  0  # atno 10765 bound_to 10752
  140.0012  134.9477  157.0076 H   0  0  0  0  0  0  0  0  0  0  0  0  # atno 11005 bound_to 11000
  145.6955  141.0151  143.1532 LP  0  0  0  0  0  0  0  0  0  0  0  0  # atno 17320 bound_to 7965
  144.7054  139.8583  143.7431 LP  0  0  0  0  0  0  0  0  0  0  0  0  # atno 17321 bound_to 7965
  140.7692  143.3386  151.2256 LP  0  0  0  0  0  0  0  0  0  0  0  0  # atno 17342 bound_to 10162
  139.6966  143.9602  152.2886 LP  0  0  0  0  0  0  0  0  0  0  0  0  # atno 17343 bound_to 10162
  157.7297  130.9675  150.1801 LP  0  0  0  0  0  0  0  0  0  0  0  0  # atno 17370 bound_to 10713
  156.2528  130.3702  149.8213 LP  0  0  0  0  0  0  0  0  0  0  0  0  # atno 17371 bound_to 10713
  140.4724  134.1373  155.7205 LP  0  0  0  0  0  0  0  0  0  0  0  0  # atno 17394 bound_to 11000
  141.1643  133.8733  157.1759 LP  0  0  0  0  0  0  0  0  0  0  0  0  # atno 17395 bound_to 11000

$$$$
