AV-unprocessed.smi:229|AV-procd|sdf|1747|dock2
  -GOLD-   2262020263D 1   1.00000     0.00000
 Structure written by MMmdl.
 58 62  0  0  0  0  0  0  0  0  1 V2000
  155.1453  140.4264  160.2511 C   0  0  0  0  0  0  0  0  0  0  0  0
  153.7699  140.6355  160.8986 C   0  0  0  0  0  0  0  0  0  0  0  0
  152.7216  141.2338  159.9461 C   0  0  2  0  0  0  0  0  0  0  0  0
  152.7145  140.5596  158.5617 C   0  0  0  0  0  0  0  0  0  0  0  0
  151.7874  141.2517  157.6757 N   0  0  0  0  0  0  0  0  0  0  0  0
  151.4447  140.5679  156.5546 C   0  0  0  0  0  0  0  0  0  0  0  0
  152.3140  139.6745  156.0101 N   0  0  0  0  0  0  0  0  0  0  0  0
  151.9805  138.9902  154.9116 C   0  0  0  0  0  0  0  0  0  0  0  0
  150.8502  139.0460  154.2051 N   0  0  0  0  0  0  0  0  0  0  0  0
  149.9768  139.9459  154.7404 C   0  0  0  0  0  0  0  0  0  0  0  0
  150.1917  140.7422  155.9010 C   0  0  0  0  0  0  0  0  0  0  0  0
  149.0836  141.5502  156.1309 N   0  0  0  0  0  0  0  0  0  0  0  0
  148.2570  141.2399  155.1699 C   0  0  0  0  0  0  0  0  0  0  0  0
  148.7123  140.2838  154.2914 N   0  0  0  0  0  0  0  0  0  0  0  0
  148.0004  139.7548  153.1413 C   0  0  0  0  0  0  0  0  0  0  0  0
  147.1394  138.5271  153.4979 C   0  0  2  0  0  0  0  0  0  0  0  0
  147.9575  137.4192  153.8234 O   0  0  0  0  0  0  0  0  0  0  0  0
  146.1369  138.1575  152.3853 C   0  0  2  0  0  0  0  0  0  0  0  0
  145.0676  137.1219  152.7454 C   0  0  0  0  0  0  0  0  0  0  0  0
  144.6983  136.5925  151.3775 C   0  0  0  0  0  0  0  0  0  0  0  0
  146.0540  136.5722  150.6758 C   0  0  0  0  0  0  0  0  0  0  0  0
  146.7891  137.6668  151.2162 O   0  0  0  0  0  0  0  0  0  0  0  0
  152.0794  142.6762  157.5526 C   0  0  0  0  0  0  0  0  0  0  0  0
  152.1324  143.3471  158.9443 C   0  0  1  0  0  0  0  0  0  0  0  0
  152.6478  144.7791  158.8419 C   0  0  0  0  0  0  0  0  0  0  0  0
  151.3720  145.6041  158.7703 C   0  0  0  0  0  0  0  0  0  0  0  0
  150.5369  144.9501  159.7070 O   0  0  0  0  0  0  0  0  0  0  0  0
  150.7346  143.5466  159.5766 C   0  0  0  0  0  0  0  0  0  0  0  0
  153.0294  142.6205  159.7898 O   0  0  0  0  0  0  0  0  0  0  0  0
  155.8298  139.9434  160.9484 H   0  0  0  0  0  0  0  0  0  0  0  0
  155.5970  141.3722  159.9521 H   0  0  0  0  0  0  0  0  0  0  0  0
  155.0719  139.7935  159.3665 H   0  0  0  0  0  0  0  0  0  0  0  0
  153.4091  139.6706  161.2566 H   0  0  0  0  0  0  0  0  0  0  0  0
  153.8717  141.2671  161.7820 H   0  0  0  0  0  0  0  0  0  0  0  0
  151.7382  141.1267  160.4046 H   0  0  0  0  0  0  0  0  0  0  0  0
  153.7123  140.5914  158.1220 H   0  0  0  0  0  0  0  0  0  0  0  0
  152.4490  139.5087  158.6641 H   0  0  0  0  0  0  0  0  0  0  0  0
  152.7257  138.2992  154.5467 H   0  0  0  0  0  0  0  0  0  0  0  0
  147.2851  141.7020  155.0752 H   0  0  0  0  0  0  0  0  0  0  0  0
  147.3733  140.5490  152.7352 H   0  0  0  0  0  0  0  0  0  0  0  0
  148.7255  139.5043  152.3660 H   0  0  0  0  0  0  0  0  0  0  0  0
  146.5660  138.7590  154.3961 H   0  0  0  0  0  0  0  0  0  0  0  0
  148.4868  137.2053  153.0706 H   0  0  0  0  0  0  0  0  0  0  0  0
  145.6226  139.0685  152.0749 H   0  0  0  0  0  0  0  0  0  0  0  0
  145.4760  136.3116  153.3502 H   0  0  0  0  0  0  0  0  0  0  0  0
  144.2214  137.5537  153.2805 H   0  0  0  0  0  0  0  0  0  0  0  0
  144.2197  135.6133  151.4091 H   0  0  0  0  0  0  0  0  0  0  0  0
  144.0245  137.2879  150.8749 H   0  0  0  0  0  0  0  0  0  0  0  0
  146.5874  135.6498  150.9093 H   0  0  0  0  0  0  0  0  0  0  0  0
  145.9650  136.6469  149.5919 H   0  0  0  0  0  0  0  0  0  0  0  0
  153.0408  142.7899  157.0491 H   0  0  0  0  0  0  0  0  0  0  0  0
  151.3305  143.1658  156.9282 H   0  0  0  0  0  0  0  0  0  0  0  0
  153.1926  145.0483  159.7482 H   0  0  0  0  0  0  0  0  0  0  0  0
  153.3133  144.9481  157.9948 H   0  0  0  0  0  0  0  0  0  0  0  0
  151.5290  146.6508  159.0319 H   0  0  0  0  0  0  0  0  0  0  0  0
  150.9248  145.5556  157.7763 H   0  0  0  0  0  0  0  0  0  0  0  0
  149.9478  143.1288  158.9471 H   0  0  0  0  0  0  0  0  0  0  0  0
  150.6452  143.0914  160.5625 H   0  0  0  0  0  0  0  0  0  0  0  0
  1  2  1  0  0  0  0
  1 30  1  0  0  0  0
  1 31  1  0  0  0  0
  1 32  1  0  0  0  0
  2  3  1  0  0  0  0
  2 33  1  0  0  0  0
  2 34  1  0  0  0  0
  3 29  1  0  0  0  0
  3  4  1  0  0  0  0
  3 35  1  0  0  0  0
  4  5  1  0  0  0  0
  4 36  1  0  0  0  0
  4 37  1  0  0  0  0
  5  6  1  0  0  0  0
  5 23  1  0  0  0  0
  6 11  1  0  0  0  0
  6  7  2  0  0  0  0
  7  8  1  0  0  0  0
  8  9  2  0  0  0  0
  8 38  1  0  0  0  0
  9 10  1  0  0  0  0
 10 14  1  0  0  0  0
 10 11  2  0  0  0  0
 11 12  1  0  0  0  0
 12 13  2  0  0  0  0
 13 14  1  0  0  0  0
 13 39  1  0  0  0  0
 14 15  1  0  0  0  0
 15 16  1  0  0  0  0
 15 40  1  0  0  0  0
 15 41  1  0  0  0  0
 16 17  1  0  0  0  0
 16 18  1  0  0  0  0
 16 42  1  0  0  0  0
 17 43  1  0  0  0  0
 18 22  1  0  0  0  0
 18 19  1  0  0  0  0
 18 44  1  0  0  0  0
 19 20  1  0  0  0  0
 19 45  1  0  0  0  0
 19 46  1  0  0  0  0
 20 21  1  0  0  0  0
 20 47  1  0  0  0  0
 20 48  1  0  0  0  0
 21 22  1  0  0  0  0
 21 49  1  0  0  0  0
 21 50  1  0  0  0  0
 23 24  1  0  0  0  0
 23 51  1  0  0  0  0
 23 52  1  0  0  0  0
 24 28  1  0  0  0  0
 24 25  1  0  0  0  0
 24 29  1  0  0  0  0
 25 26  1  0  0  0  0
 25 53  1  0  0  0  0
 25 54  1  0  0  0  0
 26 27  1  0  0  0  0
 26 55  1  0  0  0  0
 26 56  1  0  0  0  0
 27 28  1  0  0  0  0
 28 57  1  0  0  0  0
 28 58  1  0  0  0  0
M  END
> <s_m_source_file>
AV-unprocessed.smi

> <i_m_source_file_index>
229

> <i_lp_mmshare_version>
43012

> <i_f3d_flags>
0

> <s_epik_input>
W0NIMl0xT1tDSDJdW0NIMl1bQ0BdMTJbQ0gyXU4oW0NIMl1bQ0BIXShPMilbQ0gyXVtDSDNdKWMobltjSF1uMyljKGMzNCluW2NIXW40W0NIMl1bQ0BIXShbT0hdKVtDQEBIXTVbQ0gyXVtDSDJdW0NIMl1PNQ==

> <s_epik_cmdline>
J2VwaWtfcHl0aG9uJywgJy1waCcsICc3LjAnLCAnLXRuJywgJzgnLCAnLW1hJywgJzIwMCcsICctbWV0YWxfYmluZGluZycsICctaW1hZScsICc8aW5maWxlLm1hZT4nLCAnLW9tYWUnLCAnPG91dGZpbGUubWFlPic=

> <r_lp_tautomer_probability>
1

> <r_epik_Ionization_Penalty>
0.00318402

> <r_epik_Ionization_Penalty_Charging>
0

> <r_epik_Ionization_Penalty_Neutral>
0.00318402

> <r_epik_State_Penalty>
0.00215642

> <r_epik_Charging_Adjusted_Penalty>
0.00215642

> <i_epik_Tot_Q>
0

> <i_epik_Tot_abs_Q>
0

> <r_epik_Metal_State_Penalty>
-0

> <b_epik_Metal_Only>
0

> <s_lp_Force_Field>
OPLS_2005

> <r_lp_Energy>
57.781

> <b_lp_Chiralities_Consistent>
1

> <s_lp_Variant>
AV-unprocessed.smi:229-1

> <Gold.Version>
5.8.1

> <Gold.Id.Protein>
6NUR|6NUR_protein|mol2

> <Gold.PLP.Fitness>
47.0985

> <Gold.PLP.PLP>
-40.2685

> <Gold.PLP.part.hbond>
-3.7595

> <Gold.PLP.part.metal>
0.0000

> <Gold.PLP.part.buried>
3.4005

> <Gold.PLP.part.nonpolar>
-42.5406

> <Gold.PLP.part.repulsive>
3.5378

> <Gold.PLP.ligand.clash>
0.0000

> <Gold.PLP.ligand.torsion>
1.0948

> <Gold.PLP.Chemscore.Hbond>
2.8875

> <Gold.PLP.Chemscore.CHOScore>
0.0000

> <Gold.PLP.Chemscore.Metal>
0.0000

> <Gold.Chemscore.Hbonds>
donor molecule, donor type, donor heavy atom, donor atom, acceptor molecule, acceptor atom, score
      L1  H    17    43       P1  7948  1.00
      P1  H  7954  7966       L1    22  1.00
      P1  H  7997  8008       L1     7  0.83

> <Gold.PLP.Chemscore.Internal.Correction>
0.3570

> <Gold.Rescore>
     Score         DG    S(hbond)    S(metal)    S(lipo)     H(rot)  DE(clash)    DE(int)     intcor
     14.03     -21.18       2.07        0.00     128.81       2.46       5.90       1.25       ----

> <Gold.Chemscore.Fitness>
14.0314

> <Gold.Chemscore.DG>
-21.1779

> <Gold.Chemscore.ZeroCoef>
-5.4800

> <Gold.Chemscore.Hbond>
2.0724

> <Gold.Chemscore.Metal>
0.0000

> <Gold.Chemscore.Lipo>
128.8139

> <Gold.Chemscore.Internal_Hbond>
0.0000

> <Gold.Chemscore.DEClash>
5.8989

> <Gold.Chemscore.DEInternal>
1.2476

> <Gold.Chemscore.Rot>
2.4591

> <Gold.Chemscore.Internal.Correction>
   9.000000E+99

> <Gold.Chemscore.Hbonds>
donor molecule, donor type, donor heavy atom, donor atom, acceptor molecule, acceptor atom, score
      L1  H    17    43       P1  7948  0.97
      P1  H  7954  7966       L1    22  0.30
      P1  H  7997  8008       L1     7  0.69

> <Gold.Chemscore.Hbond.Weighted>
-6.9220

> <Gold.Chemscore.Metal.Weighted>
-0.0000

> <Gold.Chemscore.Lipo.Weighted>
-15.0712

> <Gold.Chemscore.Internal_Hbond.Weighted>
0.0000

> <Gold.Chemscore.DEClash.Weighted>
5.8989

> <Gold.Chemscore.DEInternal.Weighted>
1.2476

> <Gold.Chemscore.Rot.Weighted>
6.2953

> <Gold.Chemscore.Internal.Correction.Weighted>
   9.000000E+99

> <Gold.Protein.RotatedTorsions>
[ 6907 6896 6895 6894 ] final -109.52 input  -60.11 | X-H torsion
[ 7974 7965 7964 7962 ] final -119.05 input  175.53 | X-H torsion
[ 8008 7997 7996 7995 ] final  -32.40 input   59.86 | X-H torsion
[ 10167 10162 10161 10158 ] final   55.86 input  -65.29 | X-H torsion
[ 10718 10713 10712 10709 ] final  159.59 input   66.30 | X-H torsion
[ 10763 10752 10751 10750 ] final  -47.50 input  -60.55 | X-H torsion
[ 11005 11000 10999 10996 ] final  102.90 input  -57.11 | X-H torsion

> <Gold.Protein.ActiveResidues>
 VAL166  LYS551  ARG553  GLY616  TRP617  ASP618  TYR619  PRO620  LYS621  CYS622 
 ASP623  PHE694  ASN695  SER759  ASP760  ASP761  ALA762  ILE779  LEU786  VAL792 
 PHE793  MET794  SER795  GLU796  ALA797  LYS798  CYS799  TRP800  GLU811  SER814 

> <Gold.Protein.RotatedAtoms>
  150.7567  133.9518  159.3487 H   0  0  0  0  0  0  0  0  0  0  0  0  # atno 6907 bound_to 6896
  151.7435  135.0847  160.0329 H   0  0  0  0  0  0  0  0  0  0  0  0  # atno 6908 bound_to 6896
  152.3513  133.6145  159.5982 H   0  0  0  0  0  0  0  0  0  0  0  0  # atno 6909 bound_to 6896
  145.0669  140.8331  143.4118 H   0  0  0  0  0  0  0  0  0  0  0  0  # atno 7974 bound_to 7965
  154.4181  140.1738  156.1721 H   0  0  0  0  0  0  0  0  0  0  0  0  # atno 8008 bound_to 7997
  155.9752  140.3382  155.6588 H   0  0  0  0  0  0  0  0  0  0  0  0  # atno 8009 bound_to 7997
  155.6573  140.0697  157.2557 H   0  0  0  0  0  0  0  0  0  0  0  0  # atno 8010 bound_to 7997
  140.2149  144.3849  150.6473 H   0  0  0  0  0  0  0  0  0  0  0  0  # atno 10167 bound_to 10162
  157.1621  131.0589  151.2227 H   0  0  0  0  0  0  0  0  0  0  0  0  # atno 10718 bound_to 10713
  154.0624  135.6616  153.4813 H   0  0  0  0  0  0  0  0  0  0  0  0  # atno 10763 bound_to 10752
  153.0422  135.5138  154.7646 H   0  0  0  0  0  0  0  0  0  0  0  0  # atno 10764 bound_to 10752
  154.6687  135.3026  154.9738 H   0  0  0  0  0  0  0  0  0  0  0  0  # atno 10765 bound_to 10752
  139.8780  134.9242  156.5129 H   0  0  0  0  0  0  0  0  0  0  0  0  # atno 11005 bound_to 11000
  145.1339  139.2614  143.5525 LP  0  0  0  0  0  0  0  0  0  0  0  0  # atno 17320 bound_to 7965
  146.3527  140.0998  142.8608 LP  0  0  0  0  0  0  0  0  0  0  0  0  # atno 17321 bound_to 7965
  140.6297  143.2186  151.6523 LP  0  0  0  0  0  0  0  0  0  0  0  0  # atno 17342 bound_to 10162
  139.5166  144.3343  152.0798 LP  0  0  0  0  0  0  0  0  0  0  0  0  # atno 17343 bound_to 10162
  157.4123  130.7392  149.6848 LP  0  0  0  0  0  0  0  0  0  0  0  0  # atno 17370 bound_to 10713
  155.9752  130.4092  150.3866 LP  0  0  0  0  0  0  0  0  0  0  0  0  # atno 17371 bound_to 10713
  140.8507  133.8134  155.9166 LP  0  0  0  0  0  0  0  0  0  0  0  0  # atno 17394 bound_to 11000
  140.9147  134.2217  157.4964 LP  0  0  0  0  0  0  0  0  0  0  0  0  # atno 17395 bound_to 11000

$$$$
