AV-unprocessed.smi:2270|AV-procd|sdf|9157|dock2
  -GOLD-   2272012363D 1   1.00000     0.00000
 Structure written by MMmdl.
 53 54  0  0  0  0  0  0  0  0  2 V2000
  153.3572  140.5506  160.3044 C   0  0  0  0  0  0  0  0  0  0  0  0
  152.6220  141.8239  159.9422 C   0  0  0  0  0  0  0  0  0  0  0  0
  152.5986  142.9228  160.8235 C   0  0  0  0  0  0  0  0  0  0  0  0
  151.8942  144.0744  160.4293 C   0  0  0  0  0  0  0  0  0  0  0  0
  151.2524  144.0832  159.1760 C   0  0  0  0  0  0  0  0  0  0  0  0
  151.3419  142.9398  158.3429 C   0  0  0  0  0  0  0  0  0  0  0  0
  150.6842  142.9177  157.0869 N   0  0  0  0  0  0  0  0  0  0  0  0
  150.4741  141.8521  156.2961 C   0  0  0  0  0  0  0  0  0  0  0  0
  150.9569  140.7332  156.4704 O   0  0  0  0  0  0  0  0  0  0  0  0
  149.6309  142.1508  155.2972 N   0  0  0  0  0  0  0  0  0  0  0  0
  149.1053  141.2107  154.3109 C   0  0  0  0  0  0  0  0  0  0  0  0
  147.5853  141.4022  154.0317 C   0  0  1  0  0  0  0  0  0  0  0  0
  146.8403  140.0543  153.7995 C   0  0  0  0  0  0  0  0  0  0  0  0
  147.1858  138.9827  154.8513 C   0  0  0  0  0  0  0  0  0  0  0  0
  147.1185  139.4785  152.3964 C   0  0  0  0  0  0  0  0  0  0  0  0
  146.8678  142.2047  155.0737 N   0  3  0  0  0  0  0  0  0  0  0  0
  146.7957  141.5835  156.4209 C   0  0  0  0  0  0  0  0  0  0  0  0
  146.2712  142.6026  157.4531 C   0  0  0  0  0  0  0  0  0  0  0  0
  144.9710  143.1565  157.0707 N   0  0  0  0  0  0  0  0  0  0  0  0
  143.8803  142.1930  157.1820 C   0  0  0  0  0  0  0  0  0  0  0  0
  145.0629  143.7746  155.7465 C   0  0  0  0  0  0  0  0  0  0  0  0
  145.5578  142.7813  154.6755 C   0  0  0  0  0  0  0  0  0  0  0  0
  152.0064  141.8304  158.7398 N   0  0  0  0  0  0  0  0  0  0  0  0
  153.6901  140.5689  161.3426 H   0  0  0  0  0  0  0  0  0  0  0  0
  154.2331  140.4256  159.6673 H   0  0  0  0  0  0  0  0  0  0  0  0
  152.7088  139.6839  160.1723 H   0  0  0  0  0  0  0  0  0  0  0  0
  153.1005  142.8857  161.7792 H   0  0  0  0  0  0  0  0  0  0  0  0
  151.8421  144.9355  161.0792 H   0  0  0  0  0  0  0  0  0  0  0  0
  150.6942  144.9578  158.8761 H   0  0  0  0  0  0  0  0  0  0  0  0
  150.1621  143.7508  156.8591 H   0  0  0  0  0  0  0  0  0  0  0  0
  149.3025  143.1032  155.2306 H   0  0  0  0  0  0  0  0  0  0  0  0
  149.6811  141.3964  153.4057 H   0  0  0  0  0  0  0  0  0  0  0  0
  149.3122  140.1756  154.5869 H   0  0  0  0  0  0  0  0  0  0  0  0
  147.5033  141.9538  153.0937 H   0  0  0  0  0  0  0  0  0  0  0  0
  145.7670  140.2327  153.8711 H   0  0  0  0  0  0  0  0  0  0  0  0
  148.2617  138.8157  154.9108 H   0  0  0  0  0  0  0  0  0  0  0  0
  146.7180  138.0285  154.6071 H   0  0  0  0  0  0  0  0  0  0  0  0
  146.8290  139.2535  155.8445 H   0  0  0  0  0  0  0  0  0  0  0  0
  148.1842  139.3039  152.2438 H   0  0  0  0  0  0  0  0  0  0  0  0
  146.7719  140.1423  151.6043 H   0  0  0  0  0  0  0  0  0  0  0  0
  146.6054  138.5268  152.2543 H   0  0  0  0  0  0  0  0  0  0  0  0
  146.1663  140.6963  156.4182 H   0  0  0  0  0  0  0  0  0  0  0  0
  147.7908  141.2571  156.7243 H   0  0  0  0  0  0  0  0  0  0  0  0
  146.1972  142.1414  158.4386 H   0  0  0  0  0  0  0  0  0  0  0  0
  146.9833  143.4236  157.5493 H   0  0  0  0  0  0  0  0  0  0  0  0
  142.9291  142.6725  156.9481 H   0  0  0  0  0  0  0  0  0  0  0  0
  143.8159  141.8134  158.2020 H   0  0  0  0  0  0  0  0  0  0  0  0
  143.9995  141.3406  156.5140 H   0  0  0  0  0  0  0  0  0  0  0  0
  144.0919  144.1839  155.4649 H   0  0  0  0  0  0  0  0  0  0  0  0
  145.7495  144.6201  155.8047 H   0  0  0  0  0  0  0  0  0  0  0  0
  145.6590  143.3054  153.7257 H   0  0  0  0  0  0  0  0  0  0  0  0
  144.8157  142.0022  154.5199 H   0  0  0  0  0  0  0  0  0  0  0  0
  147.4678  143.0050  155.2134 H   0  0  0  0  0  0  0  0  0  0  0  0
  1  2  1  0  0  0  0
  1 24  1  0  0  0  0
  1 25  1  0  0  0  0
  1 26  1  0  0  0  0
  2 23  1  0  0  0  0
  2  3  2  0  0  0  0
  3  4  1  0  0  0  0
  3 27  1  0  0  0  0
  4  5  2  0  0  0  0
  4 28  1  0  0  0  0
  5  6  1  0  0  0  0
  5 29  1  0  0  0  0
  6  7  1  0  0  0  0
  6 23  2  0  0  0  0
  7  8  1  0  0  0  0
  7 30  1  0  0  0  0
  8  9  2  0  0  0  0
  8 10  1  0  0  0  0
 10 11  1  0  0  0  0
 10 31  1  0  0  0  0
 11 12  1  0  0  0  0
 11 32  1  0  0  0  0
 11 33  1  0  0  0  0
 12 13  1  0  0  0  0
 12 16  1  0  0  0  0
 12 34  1  0  0  0  0
 13 14  1  0  0  0  0
 13 15  1  0  0  0  0
 13 35  1  0  0  0  0
 14 36  1  0  0  0  0
 14 37  1  0  0  0  0
 14 38  1  0  0  0  0
 15 39  1  0  0  0  0
 15 40  1  0  0  0  0
 15 41  1  0  0  0  0
 16 22  1  0  0  0  0
 16 17  1  0  0  0  0
 16 53  1  0  0  0  0
 17 18  1  0  0  0  0
 17 42  1  0  0  0  0
 17 43  1  0  0  0  0
 18 19  1  0  0  0  0
 18 44  1  0  0  0  0
 18 45  1  0  0  0  0
 19 20  1  0  0  0  0
 19 21  1  0  0  0  0
 20 46  1  0  0  0  0
 20 47  1  0  0  0  0
 20 48  1  0  0  0  0
 21 22  1  0  0  0  0
 21 49  1  0  0  0  0
 21 50  1  0  0  0  0
 22 51  1  0  0  0  0
 22 52  1  0  0  0  0
M  CHG  1  16   1
M  END
> <s_m_source_file>
AV-unprocessed.smi

> <i_m_source_file_index>
2270

> <i_lp_mmshare_version>
43012

> <i_f3d_flags>
0

> <s_epik_input>
W0NIM11jMVtjSF1bY0hdW2NIXWMobjEpW05IXUMoPU8pW05IXVtDSDJdW0NASF0oW0NIXShbQ0gzXSlbQ0gzXSlOMltDSDJdW0NIMl1OKFtDSDNdKVtDSDJdW0NIMl0y

> <s_epik_cmdline>
J2VwaWtfcHl0aG9uJywgJy1waCcsICc3LjAnLCAnLXRuJywgJzgnLCAnLW1hJywgJzIwMCcsICctbWV0YWxfYmluZGluZycsICctaW1hZScsICc8aW5maWxlLm1hZT4nLCAnLW9tYWUnLCAnPG91dGZpbGUubWFlPic=

> <r_epik_Ionization_Penalty>
0.201855

> <r_epik_Ionization_Penalty_Charging>
0.20006

> <r_epik_Ionization_Penalty_Neutral>
0.00179462

> <r_epik_State_Penalty>
1.43207

> <r_epik_Charging_Adjusted_Penalty>
1.63213

> <i_epik_Tot_Q>
1

> <i_epik_Tot_abs_Q>
1

> <r_epik_Metal_State_Penalty>
1.43208

> <b_epik_Metal_Only>
0

> <s_lp_Force_Field>
OPLS_2005

> <r_lp_Energy>
37.2403

> <b_lp_Chiralities_Consistent>
1

> <s_lp_Variant>
AV-unprocessed.smi:2270-4

> <Gold.Version>
5.8.1

> <Gold.Id.Protein>
6NUR|6NUR_protein|mol2

> <Gold.PLP.Fitness>
52.8133

> <Gold.PLP.PLP>
-42.9563

> <Gold.PLP.part.hbond>
-2.7922

> <Gold.PLP.part.metal>
0.0000

> <Gold.PLP.part.buried>
-3.1529

> <Gold.PLP.part.nonpolar>
-35.9517

> <Gold.PLP.part.repulsive>
0.4601

> <Gold.PLP.ligand.clash>
0.0000

> <Gold.PLP.ligand.torsion>
1.1768

> <Gold.PLP.Chemscore.Hbond>
3.9265

> <Gold.PLP.Chemscore.CHOScore>
0.0000

> <Gold.PLP.Chemscore.Metal>
0.0000

> <Gold.Chemscore.Hbonds>
donor molecule, donor type, donor heavy atom, donor atom, acceptor molecule, acceptor atom, score
      L1  H     7    30       P1  8028  1.00
      L1  H    10    31       P1  8028  1.00
      L1  H    16    53       P1  8028  1.01

> <Gold.PLP.Chemscore.Internal.Correction>
0.4311

> <Gold.Rescore>
     Score         DG    S(hbond)    S(metal)    S(lipo)     H(rot)  DE(clash)    DE(int)     intcor
     17.92     -21.07       2.39        0.00     100.20       1.61       0.14       3.01       ----

> <Gold.Chemscore.Fitness>
17.9154

> <Gold.Chemscore.DG>
-21.0676

> <Gold.Chemscore.ZeroCoef>
-5.4800

> <Gold.Chemscore.Hbond>
2.3887

> <Gold.Chemscore.Metal>
0.0000

> <Gold.Chemscore.Lipo>
100.1991

> <Gold.Chemscore.Internal_Hbond>
0.0000

> <Gold.Chemscore.DEClash>
0.1431

> <Gold.Chemscore.DEInternal>
3.0092

> <Gold.Chemscore.Rot>
1.6070

> <Gold.Chemscore.Internal.Correction>
   9.000000E+99

> <Gold.Chemscore.Hbonds>
donor molecule, donor type, donor heavy atom, donor atom, acceptor molecule, acceptor atom, score
      L1  H     7    30       P1  8028  0.93
      L1  H    10    31       P1  8028  1.00
      L1  H    16    53       P1  8028  0.17

> <Gold.Chemscore.Hbond.Weighted>
-7.9783

> <Gold.Chemscore.Metal.Weighted>
-0.0000

> <Gold.Chemscore.Lipo.Weighted>
-11.7233

> <Gold.Chemscore.Internal_Hbond.Weighted>
0.0000

> <Gold.Chemscore.DEClash.Weighted>
0.1431

> <Gold.Chemscore.DEInternal.Weighted>
3.0092

> <Gold.Chemscore.Rot.Weighted>
4.1140

> <Gold.Chemscore.Internal.Correction.Weighted>
   9.000000E+99

> <Gold.Protein.RotatedTorsions>
[ 6907 6896 6895 6894 ] final -109.75 input  -60.11 | X-H torsion
[ 7974 7965 7964 7962 ] final   59.61 input  175.53 | X-H torsion
[ 8008 7997 7996 7995 ] final   84.26 input   59.86 | X-H torsion
[ 10167 10162 10161 10158 ] final   69.37 input  -65.29 | X-H torsion
[ 10718 10713 10712 10709 ] final -133.93 input   66.30 | X-H torsion
[ 10763 10752 10751 10750 ] final  -22.49 input  -60.55 | X-H torsion
[ 11005 11000 10999 10996 ] final   18.92 input  -57.11 | X-H torsion

> <Gold.Protein.ActiveResidues>
 VAL166  LYS551  ARG553  GLY616  TRP617  ASP618  TYR619  PRO620  LYS621  CYS622 
 ASP623  PHE694  ASN695  SER759  ASP760  ASP761  ALA762  ILE779  LEU786  VAL792 
 PHE793  MET794  SER795  GLU796  ALA797  LYS798  CYS799  TRP800  GLU811  SER814 

> <Gold.Protein.RotatedAtoms>
  150.7581  133.9483  159.3477 H   0  0  0  0  0  0  0  0  0  0  0  0  # atno 6907 bound_to 6896
  151.7397  135.0855  160.0323 H   0  0  0  0  0  0  0  0  0  0  0  0  # atno 6908 bound_to 6896
  152.3536  133.6172  159.5999 H   0  0  0  0  0  0  0  0  0  0  0  0  # atno 6909 bound_to 6896
  145.9052  139.3611  143.0568 H   0  0  0  0  0  0  0  0  0  0  0  0  # atno 7974 bound_to 7965
  155.9347  140.3412  155.6278 H   0  0  0  0  0  0  0  0  0  0  0  0  # atno 8008 bound_to 7997
  155.7114  140.0772  157.2388 H   0  0  0  0  0  0  0  0  0  0  0  0  # atno 8009 bound_to 7997
  154.4091  140.1622  156.2288 H   0  0  0  0  0  0  0  0  0  0  0  0  # atno 8010 bound_to 7997
  140.0686  144.5172  150.7243 H   0  0  0  0  0  0  0  0  0  0  0  0  # atno 10167 bound_to 10162
  156.2501  130.7148  151.1043 H   0  0  0  0  0  0  0  0  0  0  0  0  # atno 10718 bound_to 10713
  153.6528  135.6980  153.5203 H   0  0  0  0  0  0  0  0  0  0  0  0  # atno 10763 bound_to 10752
  153.2693  135.4220  155.0971 H   0  0  0  0  0  0  0  0  0  0  0  0  # atno 10764 bound_to 10752
  154.8472  135.3574  154.6072 H   0  0  0  0  0  0  0  0  0  0  0  0  # atno 10765 bound_to 10752
  140.4194  134.1534  155.7672 H   0  0  0  0  0  0  0  0  0  0  0  0  # atno 11005 bound_to 11000
  145.8741  140.9402  143.0635 LP  0  0  0  0  0  0  0  0  0  0  0  0  # atno 17320 bound_to 7965
  144.6739  140.0693  143.7473 LP  0  0  0  0  0  0  0  0  0  0  0  0  # atno 17321 bound_to 7965
  140.7137  143.2526  151.4502 LP  0  0  0  0  0  0  0  0  0  0  0  0  # atno 17342 bound_to 10162
  139.5850  144.1625  152.2017 LP  0  0  0  0  0  0  0  0  0  0  0  0  # atno 17343 bound_to 10162
  157.7211  131.0681  150.6132 LP  0  0  0  0  0  0  0  0  0  0  0  0  # atno 17370 bound_to 10713
  156.6212  130.4406  149.5821 LP  0  0  0  0  0  0  0  0  0  0  0  0  # atno 17371 bound_to 10713
  141.1790  133.8454  157.1324 LP  0  0  0  0  0  0  0  0  0  0  0  0  # atno 17394 bound_to 11000
  140.0211  134.9945  157.0592 LP  0  0  0  0  0  0  0  0  0  0  0  0  # atno 17395 bound_to 11000

$$$$
