AV-unprocessed.smi:753|AV-procd|sdf|3600|dock9
  -GOLD-   22720 0593D 1   1.00000     0.00000
 Structure written by MMmdl.
 43 45  0  0  0  0  0  0  0  0  1 V2000
  145.1969  136.3184  151.6105 C   0  0  0  0  0  0  0  0  0  0  0  0
  145.8141  137.5014  152.3266 C   0  0  0  0  0  0  0  0  0  0  0  0
  145.7813  137.5937  153.7341 C   0  0  0  0  0  0  0  0  0  0  0  0
  146.3689  138.7174  154.3462 C   0  0  0  0  0  0  0  0  0  0  0  0
  146.9666  139.7005  153.5311 C   0  0  0  0  0  0  0  0  0  0  0  0
  147.6087  140.9306  154.1408 C   0  0  0  0  0  0  0  0  0  0  0  0
  148.9463  140.6051  154.8232 C   0  0  0  0  0  0  0  0  0  0  0  0
  149.4907  141.7696  155.5090 N   0  0  0  0  0  0  0  0  0  0  0  0
  150.5591  141.7565  156.3235 C   0  0  0  0  0  0  0  0  0  0  0  0
  151.1949  140.7388  156.5918 O   0  0  0  0  0  0  0  0  0  0  0  0
  150.8926  142.9564  156.8301 N   0  0  0  0  0  0  0  0  0  0  0  0
  151.9967  143.2715  157.7406 C   0  0  1  0  0  0  0  0  0  0  0  0
  152.3418  144.7767  157.7011 C   0  0  0  0  0  0  0  0  0  0  0  0
  152.1728  145.2131  159.1681 C   0  0  1  0  0  0  0  0  0  0  0  0
  150.6760  145.2310  159.5317 C   0  0  0  0  0  0  0  0  0  0  0  0
  150.3294  143.7331  159.6227 C   0  0  0  0  0  0  0  0  0  0  0  0
  151.6623  143.0545  159.2396 C   0  0  2  0  0  0  0  0  0  0  0  0
  152.6656  143.9821  159.9169 C   0  0  0  0  0  0  0  0  0  0  0  0
  146.9455  139.5128  152.1331 C   0  0  0  0  0  0  0  0  0  0  0  0
  146.3827  138.4395  151.5372 N   0  0  0  0  0  0  0  0  0  0  0  0
  144.7974  135.5918  152.3186 H   0  0  0  0  0  0  0  0  0  0  0  0
  145.9426  135.8165  150.9935 H   0  0  0  0  0  0  0  0  0  0  0  0
  144.3822  136.6488  150.9656 H   0  0  0  0  0  0  0  0  0  0  0  0
  145.3168  136.8243  154.3333 H   0  0  0  0  0  0  0  0  0  0  0  0
  146.3589  138.8215  155.4214 H   0  0  0  0  0  0  0  0  0  0  0  0
  147.7539  141.6778  153.3593 H   0  0  0  0  0  0  0  0  0  0  0  0
  146.9172  141.3697  154.8613 H   0  0  0  0  0  0  0  0  0  0  0  0
  148.8054  139.8144  155.5607 H   0  0  0  0  0  0  0  0  0  0  0  0
  149.6665  140.2274  154.0951 H   0  0  0  0  0  0  0  0  0  0  0  0
  149.0297  142.6530  155.3460 H   0  0  0  0  0  0  0  0  0  0  0  0
  150.3104  143.7359  156.5601 H   0  0  0  0  0  0  0  0  0  0  0  0
  152.8834  142.6981  157.4639 H   0  0  0  0  0  0  0  0  0  0  0  0
  153.3719  144.9208  157.3725 H   0  0  0  0  0  0  0  0  0  0  0  0
  151.7009  145.3512  157.0302 H   0  0  0  0  0  0  0  0  0  0  0  0
  152.6936  146.1398  159.4107 H   0  0  0  0  0  0  0  0  0  0  0  0
  150.5128  145.7213  160.4921 H   0  0  0  0  0  0  0  0  0  0  0  0
  150.0768  145.7514  158.7836 H   0  0  0  0  0  0  0  0  0  0  0  0
  150.0511  143.4720  160.6446 H   0  0  0  0  0  0  0  0  0  0  0  0
  149.4946  143.4539  158.9800 H   0  0  0  0  0  0  0  0  0  0  0  0
  151.7237  142.0126  159.5552 H   0  0  0  0  0  0  0  0  0  0  0  0
  153.7049  143.7295  159.6988 H   0  0  0  0  0  0  0  0  0  0  0  0
  152.5339  144.0509  160.9984 H   0  0  0  0  0  0  0  0  0  0  0  0
  147.3888  140.2447  151.4738 H   0  0  0  0  0  0  0  0  0  0  0  0
  1  2  1  0  0  0  0
  1 21  1  0  0  0  0
  1 22  1  0  0  0  0
  1 23  1  0  0  0  0
  2 20  1  0  0  0  0
  2  3  2  0  0  0  0
  3  4  1  0  0  0  0
  3 24  1  0  0  0  0
  4  5  2  0  0  0  0
  4 25  1  0  0  0  0
  5  6  1  0  0  0  0
  5 19  1  0  0  0  0
  6  7  1  0  0  0  0
  6 26  1  0  0  0  0
  6 27  1  0  0  0  0
  7  8  1  0  0  0  0
  7 28  1  0  0  0  0
  7 29  1  0  0  0  0
  8  9  1  0  0  0  0
  8 30  1  0  0  0  0
  9 10  2  0  0  0  0
  9 11  1  0  0  0  0
 11 12  1  0  0  0  0
 11 31  1  0  0  0  0
 12 17  1  0  0  0  0
 12 13  1  0  0  0  0
 12 32  1  0  0  0  0
 13 14  1  0  0  0  0
 13 33  1  0  0  0  0
 13 34  1  0  0  0  0
 14 18  1  0  0  0  0
 14 15  1  0  0  0  0
 14 35  1  0  0  0  0
 15 16  1  0  0  0  0
 15 36  1  0  0  0  0
 15 37  1  0  0  0  0
 16 17  1  0  0  0  0
 16 38  1  0  0  0  0
 16 39  1  0  0  0  0
 17 18  1  0  0  0  0
 17 40  1  0  0  0  0
 18 41  1  0  0  0  0
 18 42  1  0  0  0  0
 19 20  2  0  0  0  0
 19 43  1  0  0  0  0
M  END
> <s_m_source_file>
AV-unprocessed.smi

> <i_m_source_file_index>
753

> <i_lp_mmshare_version>
43012

> <i_f3d_flags>
0

> <s_epik_input>
W0NIM11jMVtjSF1bY0hdYyhbY0hdbjEpW0NIMl1bQ0gyXVtOSF1DKD1PKVtOSF1bQ0BIXShbQ0gyXVtDQEBIXTIzKVtDQEBIXShbQ0gyXTMpW0NIMl1bQ0gyXTI=

> <s_epik_cmdline>
J2VwaWtfcHl0aG9uJywgJy1waCcsICc3LjAnLCAnLXRuJywgJzgnLCAnLW1hJywgJzIwMCcsICctbWV0YWxfYmluZGluZycsICctaW1hZScsICc8aW5maWxlLm1hZT4nLCAnLW9tYWUnLCAnPG91dGZpbGUubWFlPic=

> <r_epik_Ionization_Penalty>
0.0569047

> <r_epik_Ionization_Penalty_Charging>
0

> <r_epik_Ionization_Penalty_Neutral>
0.0569047

> <r_epik_State_Penalty>
0.0490541

> <r_epik_Charging_Adjusted_Penalty>
0.0490541

> <i_epik_Tot_Q>
0

> <i_epik_Tot_abs_Q>
0

> <r_epik_Metal_State_Penalty>
0.0447357

> <b_epik_Metal_Only>
0

> <s_lp_Force_Field>
OPLS_2005

> <r_lp_Energy>
50.4095

> <b_lp_Chiralities_Consistent>
1

> <s_lp_Variant>
AV-unprocessed.smi:753-2

> <Gold.Version>
5.8.1

> <Gold.Id.Protein>
6NUR|6NUR_protein|mol2

> <Gold.PLP.Fitness>
50.5765

> <Gold.PLP.PLP>
-41.6536

> <Gold.PLP.part.hbond>
-3.0000

> <Gold.PLP.part.metal>
0.0000

> <Gold.PLP.part.buried>
0.9438

> <Gold.PLP.part.nonpolar>
-40.7653

> <Gold.PLP.part.repulsive>
0.7756

> <Gold.PLP.ligand.clash>
0.0000

> <Gold.PLP.ligand.torsion>
0.5065

> <Gold.PLP.Chemscore.Hbond>
2.9920

> <Gold.PLP.Chemscore.CHOScore>
0.3143

> <Gold.PLP.Chemscore.Metal>
0.0000

> <Gold.Chemscore.Hbonds>
donor molecule, donor type, donor heavy atom, donor atom, acceptor molecule, acceptor atom, score
      L1  H     8    30       P1  8028  0.86
      L1  H    11    31       P1  8028  1.00
      L1  C    19    43       P1  7957  0.73

> <Gold.PLP.Chemscore.Internal.Correction>
0.0172

> <Gold.Rescore>
     Score         DG    S(hbond)    S(metal)    S(lipo)     H(rot)  DE(clash)    DE(int)     intcor
     21.97     -26.02       2.61        0.00     132.43       1.43       3.49       0.56       ----

> <Gold.Chemscore.Fitness>
21.9694

> <Gold.Chemscore.DG>
-26.0186

> <Gold.Chemscore.ZeroCoef>
-5.4800

> <Gold.Chemscore.Hbond>
2.6057

> <Gold.Chemscore.Metal>
0.0000

> <Gold.Chemscore.Lipo>
132.4285

> <Gold.Chemscore.Internal_Hbond>
0.0000

> <Gold.Chemscore.DEClash>
3.4876

> <Gold.Chemscore.DEInternal>
0.5616

> <Gold.Chemscore.Rot>
1.4291

> <Gold.Chemscore.Internal.Correction>
   9.000000E+99

> <Gold.Chemscore.Hbonds>
donor molecule, donor type, donor heavy atom, donor atom, acceptor molecule, acceptor atom, score
      L1  H     8    30       P1  8028  0.80
      L1  H    11    31       P1  8028  0.99
      P1  H  7954  7966       L1    20  0.01

> <Gold.Chemscore.Hbond.Weighted>
-8.7030

> <Gold.Chemscore.Metal.Weighted>
-0.0000

> <Gold.Chemscore.Lipo.Weighted>
-15.4941

> <Gold.Chemscore.Internal_Hbond.Weighted>
0.0000

> <Gold.Chemscore.DEClash.Weighted>
3.4876

> <Gold.Chemscore.DEInternal.Weighted>
0.5616

> <Gold.Chemscore.Rot.Weighted>
3.6585

> <Gold.Chemscore.Internal.Correction.Weighted>
   9.000000E+99

> <Gold.Protein.RotatedTorsions>
[ 6907 6896 6895 6894 ] final  173.29 input  -60.11 | X-H torsion
[ 7974 7965 7964 7962 ] final -100.53 input  175.53 | X-H torsion
[ 8008 7997 7996 7995 ] final  161.16 input   59.86 | X-H torsion
[ 10167 10162 10161 10158 ] final  -36.78 input  -65.29 | X-H torsion
[ 10718 10713 10712 10709 ] final  -93.10 input   66.30 | X-H torsion
[ 10763 10752 10751 10750 ] final -143.21 input  -60.55 | X-H torsion
[ 11005 11000 10999 10996 ] final   68.61 input  -57.11 | X-H torsion

> <Gold.Protein.ActiveResidues>
 VAL166  LYS551  ARG553  GLY616  TRP617  ASP618  TYR619  PRO620  LYS621  CYS622 
 ASP623  PHE694  ASN695  SER759  ASP760  ASP761  ALA762  ILE779  LEU786  VAL792 
 PHE793  MET794  SER795  GLU796  ALA797  LYS798  CYS799  TRP800  GLU811  SER814 

> <Gold.Protein.RotatedAtoms>
  151.7707  133.3341  159.3443 H   0  0  0  0  0  0  0  0  0  0  0  0  # atno 6907 bound_to 6896
  150.7462  134.6021  159.6051 H   0  0  0  0  0  0  0  0  0  0  0  0  # atno 6908 bound_to 6896
  152.3343  134.7220  160.0332 H   0  0  0  0  0  0  0  0  0  0  0  0  # atno 6909 bound_to 6896
  145.2933  140.9358  143.2865 H   0  0  0  0  0  0  0  0  0  0  0  0  # atno 7974 bound_to 7965
  156.2123  140.1785  156.7668 H   0  0  0  0  0  0  0  0  0  0  0  0  # atno 8008 bound_to 7997
  154.5740  140.0677  156.9036 H   0  0  0  0  0  0  0  0  0  0  0  0  # atno 8009 bound_to 7997
  155.2622  140.3336  155.4274 H   0  0  0  0  0  0  0  0  0  0  0  0  # atno 8010 bound_to 7997
  140.7134  143.3386  151.2408 H   0  0  0  0  0  0  0  0  0  0  0  0  # atno 10167 bound_to 10162
  156.0009  130.5013  150.5725 H   0  0  0  0  0  0  0  0  0  0  0  0  # atno 10718 bound_to 10713
  154.8479  135.3474  154.6152 H   0  0  0  0  0  0  0  0  0  0  0  0  # atno 10763 bound_to 10752
  153.6760  135.6982  153.5137 H   0  0  0  0  0  0  0  0  0  0  0  0  # atno 10764 bound_to 10752
  153.2705  135.4294  155.0939 H   0  0  0  0  0  0  0  0  0  0  0  0  # atno 10765 bound_to 10752
  139.9701  134.6914  156.0463 H   0  0  0  0  0  0  0  0  0  0  0  0  # atno 11005 bound_to 11000
  144.9154  139.4477  143.6567 LP  0  0  0  0  0  0  0  0  0  0  0  0  # atno 17320 bound_to 7965
  146.3177  139.7985  142.8970 LP  0  0  0  0  0  0  0  0  0  0  0  0  # atno 17321 bound_to 7965
  139.6887  143.9729  152.2848 LP  0  0  0  0  0  0  0  0  0  0  0  0  # atno 17342 bound_to 10162
  139.9383  144.6698  150.8292 LP  0  0  0  0  0  0  0  0  0  0  0  0  # atno 17343 bound_to 10162
  157.3618  131.0751  151.1630 LP  0  0  0  0  0  0  0  0  0  0  0  0  # atno 17370 bound_to 10713
  157.2413  130.6570  149.5891 LP  0  0  0  0  0  0  0  0  0  0  0  0  # atno 17371 bound_to 10713
  141.1381  133.6570  156.3651 LP  0  0  0  0  0  0  0  0  0  0  0  0  # atno 17394 bound_to 11000
  140.5311  134.6212  157.5350 LP  0  0  0  0  0  0  0  0  0  0  0  0  # atno 17395 bound_to 11000

$$$$
