AV-unprocessed.smi:3335|AV-procd|sdf|12840|dock9
  -GOLD-   2272019223D 1   1.00000     0.00000
 Structure written by MMmdl.
 47 48  0  0  0  0  0  0  0  0  2 V2000
  146.7902  134.1289  162.1009 C   0  0  0  0  0  0  0  0  0  0  0  0
  147.3153  135.3022  161.3254 C   0  0  0  0  0  0  0  0  0  0  0  0
  147.7939  136.5431  161.8317 C   0  0  0  0  0  0  0  0  0  0  0  0
  148.1986  137.3640  160.8769 N   0  0  0  0  0  0  0  0  0  0  0  0
  147.9816  136.6881  159.7259 N   0  0  0  0  0  0  0  0  0  0  0  0
  148.3508  137.2627  158.4337 C   0  0  1  0  0  0  0  0  0  0  0  0
  147.1441  137.9028  157.7185 C   0  0  0  0  0  0  0  0  0  0  0  0
  149.5710  138.2180  158.5331 C   0  0  1  0  0  0  0  0  0  0  0  0
  150.8760  137.5175  158.9693 C   0  0  0  0  0  0  0  0  0  0  0  0
  149.7438  138.9146  157.2333 N   0  3  0  0  0  0  0  0  0  0  0  0
  150.0214  140.3727  157.2482 C   0  0  2  0  0  0  0  0  0  0  0  0
  149.6975  141.0241  155.8897 C   0  0  0  0  0  0  0  0  0  0  0  0
  151.5011  140.6135  157.6033 C   0  0  0  0  0  0  0  0  0  0  0  0
  152.3286  139.7451  157.3204 O   0  0  0  0  0  0  0  0  0  0  0  0
  151.8617  141.7703  158.2007 N   0  0  0  0  0  0  0  0  0  0  0  0
  153.2151  142.1596  158.5997 C   0  0  0  0  0  0  0  0  0  0  0  0
  153.0504  143.4200  159.4490 C   0  0  0  0  0  0  0  0  0  0  0  0
  151.7489  144.0326  158.9533 C   0  0  0  0  0  0  0  0  0  0  0  0
  150.9077  142.8272  158.5349 C   0  0  0  0  0  0  0  0  0  0  0  0
  147.4538  135.4372  159.9736 C   0  0  0  0  0  0  0  0  0  0  0  0
  146.9204  134.2615  163.1752 H   0  0  0  0  0  0  0  0  0  0  0  0
  147.3010  133.2052  161.8284 H   0  0  0  0  0  0  0  0  0  0  0  0
  145.7262  133.9733  161.9228 H   0  0  0  0  0  0  0  0  0  0  0  0
  147.8659  136.8664  162.8597 H   0  0  0  0  0  0  0  0  0  0  0  0
  148.6490  136.4237  157.8021 H   0  0  0  0  0  0  0  0  0  0  0  0
  147.4177  138.2423  156.7194 H   0  0  0  0  0  0  0  0  0  0  0  0
  146.7469  138.7617  158.2592 H   0  0  0  0  0  0  0  0  0  0  0  0
  146.3329  137.1828  157.6060 H   0  0  0  0  0  0  0  0  0  0  0  0
  149.3215  138.9681  159.2827 H   0  0  0  0  0  0  0  0  0  0  0  0
  150.7248  136.9127  159.8629 H   0  0  0  0  0  0  0  0  0  0  0  0
  151.6570  138.2361  159.2146 H   0  0  0  0  0  0  0  0  0  0  0  0
  151.2644  136.8633  158.1884 H   0  0  0  0  0  0  0  0  0  0  0  0
  150.5047  138.4621  156.7465 H   0  0  0  0  0  0  0  0  0  0  0  0
  149.4040  140.8228  158.0227 H   0  0  0  0  0  0  0  0  0  0  0  0
  150.0064  142.0698  155.8628 H   0  0  0  0  0  0  0  0  0  0  0  0
  148.6282  141.0098  155.6809 H   0  0  0  0  0  0  0  0  0  0  0  0
  150.2049  140.5124  155.0712 H   0  0  0  0  0  0  0  0  0  0  0  0
  153.7297  141.3777  159.1591 H   0  0  0  0  0  0  0  0  0  0  0  0
  153.7993  142.3817  157.7056 H   0  0  0  0  0  0  0  0  0  0  0  0
  152.9453  143.1430  160.4988 H   0  0  0  0  0  0  0  0  0  0  0  0
  153.8975  144.1014  159.3662 H   0  0  0  0  0  0  0  0  0  0  0  0
  151.2577  144.6518  159.7046 H   0  0  0  0  0  0  0  0  0  0  0  0
  151.9492  144.6585  158.0827 H   0  0  0  0  0  0  0  0  0  0  0  0
  150.2549  143.0735  157.6959 H   0  0  0  0  0  0  0  0  0  0  0  0
  150.2824  142.4913  159.3637 H   0  0  0  0  0  0  0  0  0  0  0  0
  147.2265  134.7477  159.1738 H   0  0  0  0  0  0  0  0  0  0  0  0
  148.9037  138.7767  156.6897 H   0  0  0  0  0  0  0  0  0  0  0  0
  1  2  1  0  0  0  0
  1 21  1  0  0  0  0
  1 22  1  0  0  0  0
  1 23  1  0  0  0  0
  2 20  2  0  0  0  0
  2  3  1  0  0  0  0
  3  4  2  0  0  0  0
  3 24  1  0  0  0  0
  4  5  1  0  0  0  0
  5  6  1  0  0  0  0
  5 20  1  0  0  0  0
  6  7  1  0  0  0  0
  6  8  1  0  0  0  0
  6 25  1  0  0  0  0
  7 26  1  0  0  0  0
  7 27  1  0  0  0  0
  7 28  1  0  0  0  0
  8  9  1  0  0  0  0
  8 10  1  0  0  0  0
  8 29  1  0  0  0  0
  9 30  1  0  0  0  0
  9 31  1  0  0  0  0
  9 32  1  0  0  0  0
 10 11  1  0  0  0  0
 10 33  1  0  0  0  0
 10 47  1  0  0  0  0
 11 12  1  0  0  0  0
 11 13  1  0  0  0  0
 11 34  1  0  0  0  0
 12 35  1  0  0  0  0
 12 36  1  0  0  0  0
 12 37  1  0  0  0  0
 13 14  2  0  0  0  0
 13 15  1  0  0  0  0
 15 19  1  0  0  0  0
 15 16  1  0  0  0  0
 16 17  1  0  0  0  0
 16 38  1  0  0  0  0
 16 39  1  0  0  0  0
 17 18  1  0  0  0  0
 17 40  1  0  0  0  0
 17 41  1  0  0  0  0
 18 19  1  0  0  0  0
 18 42  1  0  0  0  0
 18 43  1  0  0  0  0
 19 44  1  0  0  0  0
 19 45  1  0  0  0  0
 20 46  1  0  0  0  0
M  CHG  1  10   1
M  END
> <s_m_source_file>
AV-unprocessed.smi

> <i_m_source_file_index>
3335

> <i_lp_mmshare_version>
43012

> <i_f3d_flags>
0

> <s_epik_input>
W0NIM11jMVtjSF1ubihbY0hdMSlbQ0BIXShbQ0gzXSlbQ0BIXShbQ0gzXSlbTkhdW0NASF0oW0NIM10pQyg9TylOMltDSDJdW0NIMl1bQ0gyXVtDSDJdMg==

> <s_epik_cmdline>
J2VwaWtfcHl0aG9uJywgJy1waCcsICc3LjAnLCAnLXRuJywgJzgnLCAnLW1hJywgJzIwMCcsICctbWV0YWxfYmluZGluZycsICctaW1hZScsICc8aW5maWxlLm1hZT4nLCAnLW9tYWUnLCAnPG91dGZpbGUubWFlPic=

> <r_lp_tautomer_probability>
1

> <r_epik_Ionization_Penalty>
0.14175

> <r_epik_Ionization_Penalty_Charging>
0.141731

> <r_epik_Ionization_Penalty_Neutral>
1.91261e-05

> <r_epik_State_Penalty>
0.131043

> <r_epik_Charging_Adjusted_Penalty>
0.272773

> <i_epik_Tot_Q>
1

> <i_epik_Tot_abs_Q>
1

> <r_epik_Metal_State_Penalty>
0.131408

> <b_epik_Metal_Only>
0

> <s_lp_Force_Field>
OPLS_2005

> <r_lp_Energy>
37.3946

> <b_lp_Chiralities_Consistent>
1

> <s_lp_Variant>
AV-unprocessed.smi:3335-4

> <Gold.Version>
5.8.1

> <Gold.Id.Protein>
6NUR|6NUR_protein|mol2

> <Gold.PLP.Fitness>
42.0680

> <Gold.PLP.PLP>
-39.4525

> <Gold.PLP.part.hbond>
-2.8560

> <Gold.PLP.part.metal>
0.0000

> <Gold.PLP.part.buried>
-3.9747

> <Gold.PLP.part.nonpolar>
-33.1115

> <Gold.PLP.part.repulsive>
0.0352

> <Gold.PLP.ligand.clash>
0.0000

> <Gold.PLP.ligand.torsion>
2.2795

> <Gold.PLP.Chemscore.Hbond>
2.3229

> <Gold.PLP.Chemscore.CHOScore>
0.0000

> <Gold.PLP.Chemscore.Metal>
0.0000

> <Gold.Chemscore.Hbonds>
donor molecule, donor type, donor heavy atom, donor atom, acceptor molecule, acceptor atom, score
      P1  H  6931  6943       L1     4  0.54
      P1  H  6934  6947       L1     4  0.61
      P1  H  7997  8008       L1    14  0.52

> <Gold.PLP.Chemscore.Internal.Correction>
0.2058

> <Gold.Rescore>
     Score         DG    S(hbond)    S(metal)    S(lipo)     H(rot)  DE(clash)    DE(int)     intcor
     16.53     -18.50       1.83        0.00      95.82       1.68       0.05       1.92       ----

> <Gold.Chemscore.Fitness>
16.5329

> <Gold.Chemscore.DG>
-18.5014

> <Gold.Chemscore.ZeroCoef>
-5.4800

> <Gold.Chemscore.Hbond>
1.8279

> <Gold.Chemscore.Metal>
0.0000

> <Gold.Chemscore.Lipo>
95.8232

> <Gold.Chemscore.Internal_Hbond>
0.0000

> <Gold.Chemscore.DEClash>
0.0456

> <Gold.Chemscore.DEInternal>
1.9229

> <Gold.Chemscore.Rot>
1.6778

> <Gold.Chemscore.Internal.Correction>
   9.000000E+99

> <Gold.Chemscore.Hbonds>
donor molecule, donor type, donor heavy atom, donor atom, acceptor molecule, acceptor atom, score
      P1  H  6931  6943       L1     4  0.04
      P1  H  6934  6947       L1     4  0.38
      P1  H  7997  8008       L1    14  0.51

> <Gold.Chemscore.Hbond.Weighted>
-6.1053

> <Gold.Chemscore.Metal.Weighted>
-0.0000

> <Gold.Chemscore.Lipo.Weighted>
-11.2113

> <Gold.Chemscore.Internal_Hbond.Weighted>
0.0000

> <Gold.Chemscore.DEClash.Weighted>
0.0456

> <Gold.Chemscore.DEInternal.Weighted>
1.9229

> <Gold.Chemscore.Rot.Weighted>
4.2952

> <Gold.Chemscore.Internal.Correction.Weighted>
   9.000000E+99

> <Gold.Protein.RotatedTorsions>
[ 6907 6896 6895 6894 ] final  -53.10 input  -60.11 | X-H torsion
[ 7974 7965 7964 7962 ] final   33.24 input  175.53 | X-H torsion
[ 8008 7997 7996 7995 ] final  -76.04 input   59.86 | X-H torsion
[ 10167 10162 10161 10158 ] final  166.19 input  -65.29 | X-H torsion
[ 10718 10713 10712 10709 ] final -134.08 input   66.30 | X-H torsion
[ 10763 10752 10751 10750 ] final  154.43 input  -60.55 | X-H torsion
[ 11005 11000 10999 10996 ] final  140.04 input  -57.11 | X-H torsion

> <Gold.Protein.ActiveResidues>
 VAL166  LYS551  ARG553  GLY616  TRP617  ASP618  TYR619  PRO620  LYS621  CYS622 
 ASP623  PHE694  ASN695  SER759  ASP760  ASP761  ALA762  ILE779  LEU786  VAL792 
 PHE793  MET794  SER795  GLU796  ALA797  LYS798  CYS799  TRP800  GLU811  SER814 

> <Gold.Protein.RotatedAtoms>
  150.8457  134.7765  159.6968 H   0  0  0  0  0  0  0  0  0  0  0  0  # atno 6907 bound_to 6896
  152.4534  134.5341  159.9829 H   0  0  0  0  0  0  0  0  0  0  0  0  # atno 6908 bound_to 6896
  151.5472  133.3385  159.2982 H   0  0  0  0  0  0  0  0  0  0  0  0  # atno 6909 bound_to 6896
  146.1434  139.6423  142.9148 H   0  0  0  0  0  0  0  0  0  0  0  0  # atno 7974 bound_to 7965
  154.5469  140.0734  156.8604 H   0  0  0  0  0  0  0  0  0  0  0  0  # atno 8008 bound_to 7997
  155.3069  140.3388  155.4227 H   0  0  0  0  0  0  0  0  0  0  0  0  # atno 8009 bound_to 7997
  156.1926  140.1692  156.8047 H   0  0  0  0  0  0  0  0  0  0  0  0  # atno 8010 bound_to 7997
  139.4920  144.4054  151.9361 H   0  0  0  0  0  0  0  0  0  0  0  0  # atno 10167 bound_to 10162
  156.2517  130.7157  151.1058 H   0  0  0  0  0  0  0  0  0  0  0  0  # atno 10718 bound_to 10713
  154.1521  135.2814  155.3132 H   0  0  0  0  0  0  0  0  0  0  0  0  # atno 10763 bound_to 10752
  154.6209  135.5467  153.7578 H   0  0  0  0  0  0  0  0  0  0  0  0  # atno 10764 bound_to 10752
  153.0218  135.6439  154.1665 H   0  0  0  0  0  0  0  0  0  0  0  0  # atno 10765 bound_to 10752
  140.0298  134.9357  157.0640 H   0  0  0  0  0  0  0  0  0  0  0  0  # atno 11005 bound_to 11000
  145.4994  141.0438  143.2549 LP  0  0  0  0  0  0  0  0  0  0  0  0  # atno 17320 bound_to 7965
  144.7818  139.6510  143.7151 LP  0  0  0  0  0  0  0  0  0  0  0  0  # atno 17321 bound_to 7965
  140.3494  144.3107  150.5952 LP  0  0  0  0  0  0  0  0  0  0  0  0  # atno 17342 bound_to 10162
  140.5498  143.2208  151.7946 LP  0  0  0  0  0  0  0  0  0  0  0  0  # atno 17343 bound_to 10162
  157.7217  131.0677  150.6108 LP  0  0  0  0  0  0  0  0  0  0  0  0  # atno 17370 bound_to 10713
  156.6188  130.4400  149.5830 LP  0  0  0  0  0  0  0  0  0  0  0  0  # atno 17371 bound_to 10713
  140.4245  134.1846  155.7165 LP  0  0  0  0  0  0  0  0  0  0  0  0  # atno 17394 bound_to 11000
  141.1824  133.8385  157.1210 LP  0  0  0  0  0  0  0  0  0  0  0  0  # atno 17395 bound_to 11000

$$$$
