AV-unprocessed.smi:207|AV-procd|sdf|1604|dock2
  -GOLD-   2262019523D 1   1.00000     0.00000
 Structure written by MMmdl.
 56 59  0  0  0  0  0  0  0  0  2 V2000
  145.5884  135.0112  150.4177 C   0  0  0  0  0  0  0  0  0  0  0  0
  145.5847  134.8591  151.9565 C   0  0  0  0  0  0  0  0  0  0  0  0
  144.1334  134.6266  152.4391 C   0  0  0  0  0  0  0  0  0  0  0  0
  146.4370  133.6004  152.2610 C   0  0  0  0  0  0  0  0  0  0  0  0
  146.7261  133.4534  153.6820 N   0  0  0  0  0  0  0  0  0  0  0  0
  147.1310  132.2167  154.0647 C   0  0  0  0  0  0  0  0  0  0  0  0
  147.7955  132.0527  155.2395 N   0  0  0  0  0  0  0  0  0  0  0  0
  148.1990  130.8374  155.6216 C   0  0  0  0  0  0  0  0  0  0  0  0
  148.0395  129.6701  154.9952 N   0  0  0  0  0  0  0  0  0  0  0  0
  147.3665  129.8269  153.8193 C   0  0  0  0  0  0  0  0  0  0  0  0
  146.8850  131.0538  153.2822 C   0  0  0  0  0  0  0  0  0  0  0  0
  146.2457  130.8214  152.0703 N   0  0  0  0  0  0  0  0  0  0  0  0
  146.3462  129.5313  151.8996 C   0  0  0  0  0  0  0  0  0  0  0  0
  146.9921  128.8533  152.9089 N   0  0  0  0  0  0  0  0  0  0  0  0
  147.2359  127.4209  152.9837 C   0  0  0  0  0  0  0  0  0  0  0  0
  148.7160  127.0051  152.8332 C   0  0  0  0  0  0  0  0  0  0  0  0
  149.1861  127.1892  151.3779 C   0  0  0  0  0  0  0  0  0  0  0  0
  150.4138  126.5340  151.1270 O   0  0  0  0  0  0  0  0  0  0  0  0
  149.6797  127.4934  153.9264 C   0  0  0  0  0  0  0  0  0  0  0  0
  149.6576  126.2184  154.6008 O   0  0  0  0  0  0  0  0  0  0  0  0
  149.0256  125.6303  153.4450 C   0  0  0  0  0  0  0  0  0  0  0  0
  147.3842  134.6086  154.2752 C   0  0  0  0  0  0  0  0  0  0  0  0
  146.5422  135.8686  154.0466 C   0  0  0  0  0  0  0  0  0  0  0  0
  146.2003  136.0676  152.6092 N   0  3  2  0  0  0  0  0  0  0  0  0
  145.4790  137.3550  152.3947 C   0  0  0  0  0  0  0  0  0  0  0  0
  146.4500  138.5174  152.1307 C   0  0  0  0  0  0  0  0  0  0  0  0
  146.8024  138.5483  150.7637 O   0  0  0  0  0  0  0  0  0  0  0  0
  145.2953  134.0784  149.9342 H   0  0  0  0  0  0  0  0  0  0  0  0
  146.5811  135.2694  150.0470 H   0  0  0  0  0  0  0  0  0  0  0  0
  144.8936  135.7686  150.0584 H   0  0  0  0  0  0  0  0  0  0  0  0
  143.7057  133.7386  151.9724 H   0  0  0  0  0  0  0  0  0  0  0  0
  143.4797  135.4624  152.1899 H   0  0  0  0  0  0  0  0  0  0  0  0
  144.0786  134.4754  153.5171 H   0  0  0  0  0  0  0  0  0  0  0  0
  145.9436  132.7139  151.8623 H   0  0  0  0  0  0  0  0  0  0  0  0
  147.3936  133.6700  151.7402 H   0  0  0  0  0  0  0  0  0  0  0  0
  148.7236  130.7936  156.5649 H   0  0  0  0  0  0  0  0  0  0  0  0
  145.9453  129.0380  151.0266 H   0  0  0  0  0  0  0  0  0  0  0  0
  146.8415  127.0721  153.9390 H   0  0  0  0  0  0  0  0  0  0  0  0
  146.6275  126.9309  152.2227 H   0  0  0  0  0  0  0  0  0  0  0  0
  148.4571  126.7781  150.6791 H   0  0  0  0  0  0  0  0  0  0  0  0
  149.2881  128.2450  151.1260 H   0  0  0  0  0  0  0  0  0  0  0  0
  150.6788  126.7229  150.2396 H   0  0  0  0  0  0  0  0  0  0  0  0
  150.6786  127.7369  153.5604 H   0  0  0  0  0  0  0  0  0  0  0  0
  149.2891  128.2981  154.5479 H   0  0  0  0  0  0  0  0  0  0  0  0
  148.1404  125.0481  153.7040 H   0  0  0  0  0  0  0  0  0  0  0  0
  149.7274  125.0266  152.8673 H   0  0  0  0  0  0  0  0  0  0  0  0
  147.5269  134.4559  155.3460 H   0  0  0  0  0  0  0  0  0  0  0  0
  148.3724  134.7314  153.8296 H   0  0  0  0  0  0  0  0  0  0  0  0
  145.6264  135.8048  154.6353 H   0  0  0  0  0  0  0  0  0  0  0  0
  147.0900  136.7303  154.4265 H   0  0  0  0  0  0  0  0  0  0  0  0
  144.7819  137.3062  151.5615 H   0  0  0  0  0  0  0  0  0  0  0  0
  144.8632  137.5755  153.2679 H   0  0  0  0  0  0  0  0  0  0  0  0
  145.9701  139.4640  152.3800 H   0  0  0  0  0  0  0  0  0  0  0  0
  147.3503  138.4487  152.7406 H   0  0  0  0  0  0  0  0  0  0  0  0
  146.0131  138.6367  150.2503 H   0  0  0  0  0  0  0  0  0  0  0  0
  147.0848  136.1818  152.1345 H   0  0  0  0  0  0  0  0  0  0  0  0
  1  2  1  0  0  0  0
  1 28  1  0  0  0  0
  1 29  1  0  0  0  0
  1 30  1  0  0  0  0
  2 24  1  0  0  0  0
  2  3  1  0  0  0  0
  2  4  1  0  0  0  0
  3 31  1  0  0  0  0
  3 32  1  0  0  0  0
  3 33  1  0  0  0  0
  4  5  1  0  0  0  0
  4 34  1  0  0  0  0
  4 35  1  0  0  0  0
  5  6  1  0  0  0  0
  5 22  1  0  0  0  0
  6 11  1  0  0  0  0
  6  7  2  0  0  0  0
  7  8  1  0  0  0  0
  8  9  2  0  0  0  0
  8 36  1  0  0  0  0
  9 10  1  0  0  0  0
 10 14  1  0  0  0  0
 10 11  2  0  0  0  0
 11 12  1  0  0  0  0
 12 13  2  0  0  0  0
 13 14  1  0  0  0  0
 13 37  1  0  0  0  0
 14 15  1  0  0  0  0
 15 16  1  0  0  0  0
 15 38  1  0  0  0  0
 15 39  1  0  0  0  0
 16 21  1  0  0  0  0
 16 17  1  0  0  0  0
 16 19  1  0  0  0  0
 17 18  1  0  0  0  0
 17 40  1  0  0  0  0
 17 41  1  0  0  0  0
 18 42  1  0  0  0  0
 19 20  1  0  0  0  0
 19 43  1  0  0  0  0
 19 44  1  0  0  0  0
 20 21  1  0  0  0  0
 21 45  1  0  0  0  0
 21 46  1  0  0  0  0
 22 23  1  0  0  0  0
 22 47  1  0  0  0  0
 22 48  1  0  0  0  0
 23 24  1  0  0  0  0
 23 49  1  0  0  0  0
 23 50  1  0  0  0  0
 24 25  1  0  0  0  0
 24 56  1  0  0  0  0
 25 26  1  0  0  0  0
 25 51  1  0  0  0  0
 25 52  1  0  0  0  0
 26 27  1  0  0  0  0
 26 53  1  0  0  0  0
 26 54  1  0  0  0  0
 27 55  1  0  0  0  0
M  CHG  1  24   1
M  END
> <s_m_source_file>
AV-unprocessed.smi

> <i_m_source_file_index>
207

> <i_lp_mmshare_version>
43012

> <i_f3d_flags>
0

> <s_epik_input>
W09IXVtDSDJdW0NIMl1OMVtDSDJdW0NIMl1OKFtDSDJdQzEoW0NIM10pW0NIM10pYyhuW2NIXW4yKWMoYzIzKW5bY0hdbjNbQ0gyXUM0KFtDSDJdW09IXSlbQ0gyXU9bQ0gyXTQ=

> <s_epik_cmdline>
J2VwaWtfcHl0aG9uJywgJy1waCcsICc3LjAnLCAnLXRuJywgJzgnLCAnLW1hJywgJzIwMCcsICctbWV0YWxfYmluZGluZycsICctaW1hZScsICc8aW5maWxlLm1hZT4nLCAnLW9tYWUnLCAnPG91dGZpbGUubWFlPic=

> <r_lp_tautomer_probability>
1

> <r_epik_Ionization_Penalty>
0.416568

> <r_epik_Ionization_Penalty_Charging>
0.416506

> <r_epik_Ionization_Penalty_Neutral>
6.2219e-05

> <r_epik_State_Penalty>
0.419386

> <r_epik_Charging_Adjusted_Penalty>
0.835892

> <i_epik_Tot_Q>
1

> <i_epik_Tot_abs_Q>
1

> <r_epik_Metal_State_Penalty>
0.420232

> <b_epik_Metal_Only>
0

> <s_lp_Force_Field>
OPLS_2005

> <r_lp_Energy>
56.1561

> <b_lp_Chiralities_Consistent>
1

> <s_lp_Variant>
AV-unprocessed.smi:207-3

> <Gold.Version>
5.8.1

> <Gold.Id.Protein>
6NUR|6NUR_protein|mol2

> <Gold.PLP.Fitness>
49.2099

> <Gold.PLP.PLP>
-36.6077

> <Gold.PLP.part.hbond>
-5.1472

> <Gold.PLP.part.metal>
0.0000

> <Gold.PLP.part.buried>
-0.6780

> <Gold.PLP.part.nonpolar>
-31.8721

> <Gold.PLP.part.repulsive>
0.3837

> <Gold.PLP.ligand.clash>
0.0000

> <Gold.PLP.ligand.torsion>
1.5726

> <Gold.PLP.Chemscore.Hbond>
4.9760

> <Gold.PLP.Chemscore.CHOScore>
0.0000

> <Gold.PLP.Chemscore.Metal>
0.0000

> <Gold.Chemscore.Hbonds>
donor molecule, donor type, donor heavy atom, donor atom, acceptor molecule, acceptor atom, score
      L1  H    24    56       P1  7948  2.00
      L1  H    27    55       P1 10171  0.68
      P1  H  7954  7966       L1    27  0.93

> <Gold.PLP.Chemscore.Internal.Correction>
0.8194

> <Gold.Rescore>
     Score         DG    S(hbond)    S(metal)    S(lipo)     H(rot)  DE(clash)    DE(int)     intcor
     10.16     -16.81       3.80        0.00      71.53       3.80       3.52       3.14       ----

> <Gold.Chemscore.Fitness>
10.1580

> <Gold.Chemscore.DG>
-16.8098

> <Gold.Chemscore.ZeroCoef>
-5.4800

> <Gold.Chemscore.Hbond>
3.7990

> <Gold.Chemscore.Metal>
0.0000

> <Gold.Chemscore.Lipo>
71.5256

> <Gold.Chemscore.Internal_Hbond>
0.0000

> <Gold.Chemscore.DEClash>
3.5166

> <Gold.Chemscore.DEInternal>
3.1351

> <Gold.Chemscore.Rot>
3.7997

> <Gold.Chemscore.Internal.Correction>
   9.000000E+99

> <Gold.Chemscore.Hbonds>
donor molecule, donor type, donor heavy atom, donor atom, acceptor molecule, acceptor atom, score
      L1  H    24    56       P1  7948  1.00
      L1  H    27    55       P1 10171  0.66
      P1  H  7954  7966       L1    27  0.79

> <Gold.Chemscore.Hbond.Weighted>
-12.6886

> <Gold.Chemscore.Metal.Weighted>
-0.0000

> <Gold.Chemscore.Lipo.Weighted>
-8.3685

> <Gold.Chemscore.Internal_Hbond.Weighted>
0.0000

> <Gold.Chemscore.DEClash.Weighted>
3.5166

> <Gold.Chemscore.DEInternal.Weighted>
3.1351

> <Gold.Chemscore.Rot.Weighted>
9.7273

> <Gold.Chemscore.Internal.Correction.Weighted>
   9.000000E+99

> <Gold.Protein.RotatedTorsions>
[ 6907 6896 6895 6894 ] final -165.15 input  -60.11 | X-H torsion
[ 7974 7965 7964 7962 ] final  156.12 input  175.53 | X-H torsion
[ 8008 7997 7996 7995 ] final -117.83 input   59.86 | X-H torsion
[ 10167 10162 10161 10158 ] final   70.88 input  -65.29 | X-H torsion
[ 10718 10713 10712 10709 ] final   -1.57 input   66.30 | X-H torsion
[ 10763 10752 10751 10750 ] final  172.13 input  -60.55 | X-H torsion
[ 11005 11000 10999 10996 ] final  -92.93 input  -57.11 | X-H torsion

> <Gold.Protein.ActiveResidues>
 VAL166  LYS551  ARG553  GLY616  TRP617  ASP618  TYR619  PRO620  LYS621  CYS622 
 ASP623  PHE694  ASN695  SER759  ASP760  ASP761  ALA762  ILE779  LEU786  VAL792 
 PHE793  MET794  SER795  GLU796  ALA797  LYS798  CYS799  TRP800  GLU811  SER814 

> <Gold.Protein.RotatedAtoms>
  151.4231  133.3692  159.2758 H   0  0  0  0  0  0  0  0  0  0  0  0  # atno 6907 bound_to 6896
  150.9279  134.8696  159.7542 H   0  0  0  0  0  0  0  0  0  0  0  0  # atno 6908 bound_to 6896
  152.5014  134.4174  159.9521 H   0  0  0  0  0  0  0  0  0  0  0  0  # atno 6909 bound_to 6896
  144.7982  139.7160  143.6193 H   0  0  0  0  0  0  0  0  0  0  0  0  # atno 7974 bound_to 7965
  155.0899  140.0395  157.2665 H   0  0  0  0  0  0  0  0  0  0  0  0  # atno 8008 bound_to 7997
  154.6840  140.2639  155.6855 H   0  0  0  0  0  0  0  0  0  0  0  0  # atno 8009 bound_to 7997
  156.2705  140.2773  156.1394 H   0  0  0  0  0  0  0  0  0  0  0  0  # atno 8010 bound_to 7997
  140.0521  144.5303  150.7355 H   0  0  0  0  0  0  0  0  0  0  0  0  # atno 10167 bound_to 10162
  156.8036  130.5401  149.5718 H   0  0  0  0  0  0  0  0  0  0  0  0  # atno 10718 bound_to 10713
  154.4217  135.2758  155.1971 H   0  0  0  0  0  0  0  0  0  0  0  0  # atno 10763 bound_to 10752
  154.3914  135.6065  153.5849 H   0  0  0  0  0  0  0  0  0  0  0  0  # atno 10764 bound_to 10752
  152.9833  135.5904  154.4514 H   0  0  0  0  0  0  0  0  0  0  0  0  # atno 10765 bound_to 10752
  141.1510  133.7854  157.0089 H   0  0  0  0  0  0  0  0  0  0  0  0  # atno 11005 bound_to 11000
  146.2257  139.5718  142.9589 LP  0  0  0  0  0  0  0  0  0  0  0  0  # atno 17320 bound_to 7965
  145.5618  141.0403  143.2222 LP  0  0  0  0  0  0  0  0  0  0  0  0  # atno 17321 bound_to 7965
  140.7212  143.2590  151.4274 LP  0  0  0  0  0  0  0  0  0  0  0  0  # atno 17342 bound_to 10162
  139.5946  144.1425  152.2129 LP  0  0  0  0  0  0  0  0  0  0  0  0  # atno 17343 bound_to 10162
  156.1086  130.6023  151.0011 LP  0  0  0  0  0  0  0  0  0  0  0  0  # atno 17370 bound_to 10713
  157.6541  131.0892  150.7986 LP  0  0  0  0  0  0  0  0  0  0  0  0  # atno 17371 bound_to 10713
  140.0891  134.9603  157.1747 LP  0  0  0  0  0  0  0  0  0  0  0  0  # atno 17394 bound_to 11000
  140.3471  134.2640  155.7203 LP  0  0  0  0  0  0  0  0  0  0  0  0  # atno 17395 bound_to 11000

$$$$
