AV-unprocessed.smi:3126|AV-procd|sdf|11913|dock10
  -GOLD-   2272017293D 1   1.00000     0.00000
 Structure written by MMmdl.
 42 43  0  0  0  0  0  0  0  0  2 V2000
  153.7101  141.9828  162.2091 C   0  0  0  0  0  0  0  0  0  0  0  0
  153.2413  141.7496  160.7664 C   0  0  0  0  0  0  0  0  0  0  0  0
  152.2500  142.8104  160.2460 C   0  0  1  0  0  0  0  0  0  0  0  0
  152.2454  144.0882  161.1120 C   0  0  0  0  0  0  0  0  0  0  0  0
  151.2712  145.1437  160.5659 C   0  0  0  0  0  0  0  0  0  0  0  0
  151.5816  145.4925  159.1012 C   0  0  0  0  0  0  0  0  0  0  0  0
  151.6152  144.2424  158.2025 C   0  0  2  0  0  0  0  0  0  0  0  0
  150.2539  143.6932  158.0089 N   0  3  0  0  0  0  0  0  0  0  0  0
  150.2067  142.2692  157.6231 C   0  0  0  0  0  0  0  0  0  0  0  0
  151.1058  141.9981  156.4102 C   0  0  0  0  0  0  0  0  0  0  0  0
  150.6625  140.7723  155.6365 C   0  0  0  0  0  0  0  0  0  0  0  0
  151.5038  139.6463  155.5217 C   0  0  0  0  0  0  0  0  0  0  0  0
  151.0512  138.5329  154.7885 C   0  0  0  0  0  0  0  0  0  0  0  0
  149.7728  138.5930  154.1985 C   0  0  0  0  0  0  0  0  0  0  0  0
  148.9595  139.6663  154.3008 N   0  0  0  0  0  0  0  0  0  0  0  0
  149.4002  140.7292  155.0069 C   0  0  0  0  0  0  0  0  0  0  0  0
  152.5615  143.1699  158.7765 C   0  0  0  0  0  0  0  0  0  0  0  0
  154.3485  141.1640  162.5418 H   0  0  0  0  0  0  0  0  0  0  0  0
  152.8644  142.0407  162.8947 H   0  0  0  0  0  0  0  0  0  0  0  0
  154.2866  142.9026  162.3035 H   0  0  0  0  0  0  0  0  0  0  0  0
  154.1073  141.6932  160.1055 H   0  0  0  0  0  0  0  0  0  0  0  0
  152.7676  140.7682  160.7235 H   0  0  0  0  0  0  0  0  0  0  0  0
  151.2508  142.3733  160.2791 H   0  0  0  0  0  0  0  0  0  0  0  0
  151.9676  143.8523  162.1388 H   0  0  0  0  0  0  0  0  0  0  0  0
  153.2512  144.5089  161.1543 H   0  0  0  0  0  0  0  0  0  0  0  0
  150.2480  144.7758  160.6503 H   0  0  0  0  0  0  0  0  0  0  0  0
  151.3235  146.0447  161.1779 H   0  0  0  0  0  0  0  0  0  0  0  0
  150.8553  146.2133  158.7232 H   0  0  0  0  0  0  0  0  0  0  0  0
  152.5519  145.9889  159.0556 H   0  0  0  0  0  0  0  0  0  0  0  0
  152.0094  144.5417  157.2300 H   0  0  0  0  0  0  0  0  0  0  0  0
  149.7449  143.8024  158.8745 H   0  0  0  0  0  0  0  0  0  0  0  0
  150.5226  141.6559  158.4685 H   0  0  0  0  0  0  0  0  0  0  0  0
  149.1757  141.9978  157.3907 H   0  0  0  0  0  0  0  0  0  0  0  0
  151.1027  142.8596  155.7408 H   0  0  0  0  0  0  0  0  0  0  0  0
  152.1394  141.8608  156.7318 H   0  0  0  0  0  0  0  0  0  0  0  0
  152.4793  139.6348  155.9854 H   0  0  0  0  0  0  0  0  0  0  0  0
  151.6682  137.6530  154.6803 H   0  0  0  0  0  0  0  0  0  0  0  0
  149.3944  137.7569  153.6292 H   0  0  0  0  0  0  0  0  0  0  0  0
  148.7264  141.5711  155.0681 H   0  0  0  0  0  0  0  0  0  0  0  0
  153.5877  143.5347  158.7108 H   0  0  0  0  0  0  0  0  0  0  0  0
  152.5222  142.2754  158.1531 H   0  0  0  0  0  0  0  0  0  0  0  0
  149.7898  144.2376  157.2957 H   0  0  0  0  0  0  0  0  0  0  0  0
  1  2  1  0  0  0  0
  1 18  1  0  0  0  0
  1 19  1  0  0  0  0
  1 20  1  0  0  0  0
  2  3  1  0  0  0  0
  2 21  1  0  0  0  0
  2 22  1  0  0  0  0
  3 17  1  0  0  0  0
  3  4  1  0  0  0  0
  3 23  1  0  0  0  0
  4  5  1  0  0  0  0
  4 24  1  0  0  0  0
  4 25  1  0  0  0  0
  5  6  1  0  0  0  0
  5 26  1  0  0  0  0
  5 27  1  0  0  0  0
  6  7  1  0  0  0  0
  6 28  1  0  0  0  0
  6 29  1  0  0  0  0
  7  8  1  0  0  0  0
  7 17  1  0  0  0  0
  7 30  1  0  0  0  0
  8  9  1  0  0  0  0
  8 31  1  0  0  0  0
  8 42  1  0  0  0  0
  9 10  1  0  0  0  0
  9 32  1  0  0  0  0
  9 33  1  0  0  0  0
 10 11  1  0  0  0  0
 10 34  1  0  0  0  0
 10 35  1  0  0  0  0
 11 16  1  0  0  0  0
 11 12  2  0  0  0  0
 12 13  1  0  0  0  0
 12 36  1  0  0  0  0
 13 14  2  0  0  0  0
 13 37  1  0  0  0  0
 14 15  1  0  0  0  0
 14 38  1  0  0  0  0
 15 16  2  0  0  0  0
 16 39  1  0  0  0  0
 17 40  1  0  0  0  0
 17 41  1  0  0  0  0
M  CHG  1   8   1
M  END
> <s_m_source_file>
AV-unprocessed.smi

> <i_m_source_file_index>
3126

> <i_lp_mmshare_version>
43012

> <i_f3d_flags>
0

> <s_epik_input>
W0NIM11bQ0gyXVtDQEBIXTFbQ0gyXVtDSDJdW0NIMl1bQ0BIXShbQ0gyXTEpW05IXVtDSDJdW0NIMl1jMltjSF1bY0hdW2NIXW5bY0hdMg==

> <s_epik_cmdline>
J2VwaWtfcHl0aG9uJywgJy1waCcsICc3LjAnLCAnLXRuJywgJzgnLCAnLW1hJywgJzIwMCcsICctbWV0YWxfYmluZGluZycsICctaW1hZScsICc8aW5maWxlLm1hZT4nLCAnLW9tYWUnLCAnPG91dGZpbGUubWFlPic=

> <r_lp_tautomer_probability>
1

> <r_epik_Ionization_Penalty>
0.000947364

> <r_epik_Ionization_Penalty_Charging>
0.000286103

> <r_epik_Ionization_Penalty_Neutral>
0.000661261

> <r_epik_State_Penalty>
-0

> <r_epik_Charging_Adjusted_Penalty>
0.000286103

> <i_epik_Tot_Q>
1

> <i_epik_Tot_abs_Q>
1

> <r_epik_Metal_State_Penalty>
-0

> <b_epik_Metal_Only>
0

> <s_lp_Force_Field>
OPLS_2005

> <r_lp_Energy>
19.3892

> <b_lp_Chiralities_Consistent>
1

> <s_lp_Variant>
AV-unprocessed.smi:3126-4

> <Gold.Version>
5.8.1

> <Gold.Id.Protein>
6NUR|6NUR_protein|mol2

> <Gold.PLP.Fitness>
55.3457

> <Gold.PLP.PLP>
-48.3213

> <Gold.PLP.part.hbond>
-1.0329

> <Gold.PLP.part.metal>
0.0000

> <Gold.PLP.part.buried>
-1.8670

> <Gold.PLP.part.nonpolar>
-44.8881

> <Gold.PLP.part.repulsive>
0.1710

> <Gold.PLP.ligand.clash>
0.0000

> <Gold.PLP.ligand.torsion>
1.0074

> <Gold.PLP.Chemscore.Hbond>
2.0000

> <Gold.PLP.Chemscore.CHOScore>
1.0000

> <Gold.PLP.Chemscore.Metal>
0.0000

> <Gold.Chemscore.Hbonds>
donor molecule, donor type, donor heavy atom, donor atom, acceptor molecule, acceptor atom, score
      L1  H     8    42       P1  8028  2.00
      L1  C    14    38       P1  7948  1.00

> <Gold.PLP.Chemscore.Internal.Correction>
0.0392

> <Gold.Rescore>
     Score         DG    S(hbond)    S(metal)    S(lipo)     H(rot)  DE(clash)    DE(int)     intcor
     20.78     -22.11       0.96        0.00     144.27       1.35       0.39       0.94       ----

> <Gold.Chemscore.Fitness>
20.7847

> <Gold.Chemscore.DG>
-22.1084

> <Gold.Chemscore.ZeroCoef>
-5.4800

> <Gold.Chemscore.Hbond>
0.9601

> <Gold.Chemscore.Metal>
0.0000

> <Gold.Chemscore.Lipo>
144.2687

> <Gold.Chemscore.Internal_Hbond>
0.0000

> <Gold.Chemscore.DEClash>
0.3857

> <Gold.Chemscore.DEInternal>
0.9380

> <Gold.Chemscore.Rot>
1.3507

> <Gold.Chemscore.Internal.Correction>
   9.000000E+99

> <Gold.Chemscore.Hbonds>
donor molecule, donor type, donor heavy atom, donor atom, acceptor molecule, acceptor atom, score
      L1  H     8    42       P1  8028  0.45

> <Gold.Chemscore.Hbond.Weighted>
-3.2068

> <Gold.Chemscore.Metal.Weighted>
-0.0000

> <Gold.Chemscore.Lipo.Weighted>
-16.8794

> <Gold.Chemscore.Internal_Hbond.Weighted>
0.0000

> <Gold.Chemscore.DEClash.Weighted>
0.3857

> <Gold.Chemscore.DEInternal.Weighted>
0.9380

> <Gold.Chemscore.Rot.Weighted>
3.4579

> <Gold.Chemscore.Internal.Correction.Weighted>
   9.000000E+99

> <Gold.Protein.RotatedTorsions>
[ 6907 6896 6895 6894 ] final  -50.14 input  -60.11 | X-H torsion
[ 7974 7965 7964 7962 ] final -109.58 input  175.53 | X-H torsion
[ 8008 7997 7996 7995 ] final  -35.37 input   59.86 | X-H torsion
[ 10167 10162 10161 10158 ] final   99.61 input  -65.29 | X-H torsion
[ 10718 10713 10712 10709 ] final  156.74 input   66.30 | X-H torsion
[ 10763 10752 10751 10750 ] final   24.87 input  -60.55 | X-H torsion
[ 11005 11000 10999 10996 ] final  -63.89 input  -57.11 | X-H torsion

> <Gold.Protein.ActiveResidues>
 VAL166  LYS551  ARG553  GLY616  TRP617  ASP618  TYR619  PRO620  LYS621  CYS622 
 ASP623  PHE694  ASN695  SER759  ASP760  ASP761  ALA762  ILE779  LEU786  VAL792 
 PHE793  MET794  SER795  GLU796  ALA797  LYS798  CYS799  TRP800  GLU811  SER814 

> <Gold.Protein.RotatedAtoms>
  150.8736  134.8115  159.7173 H   0  0  0  0  0  0  0  0  0  0  0  0  # atno 6907 bound_to 6896
  152.4731  134.4907  159.9704 H   0  0  0  0  0  0  0  0  0  0  0  0  # atno 6908 bound_to 6896
  151.4992  133.3469  159.2901 H   0  0  0  0  0  0  0  0  0  0  0  0  # atno 6909 bound_to 6896
  145.1787  140.8961  143.3492 H   0  0  0  0  0  0  0  0  0  0  0  0  # atno 7974 bound_to 7965
  154.4097  140.1659  156.2200 H   0  0  0  0  0  0  0  0  0  0  0  0  # atno 8008 bound_to 7997
  155.9371  140.3410  155.6274 H   0  0  0  0  0  0  0  0  0  0  0  0  # atno 8009 bound_to 7997
  155.7034  140.0748  157.2391 H   0  0  0  0  0  0  0  0  0  0  0  0  # atno 8010 bound_to 7997
  139.7602  144.6957  151.0303 H   0  0  0  0  0  0  0  0  0  0  0  0  # atno 10167 bound_to 10162
  157.2008  131.0676  151.2026 H   0  0  0  0  0  0  0  0  0  0  0  0  # atno 10718 bound_to 10713
  153.0732  135.6595  154.0202 H   0  0  0  0  0  0  0  0  0  0  0  0  # atno 10763 bound_to 10752
  153.9842  135.2952  155.3419 H   0  0  0  0  0  0  0  0  0  0  0  0  # atno 10764 bound_to 10752
  154.7113  135.5204  153.8741 H   0  0  0  0  0  0  0  0  0  0  0  0  # atno 10765 bound_to 10752
  141.1407  133.6658  156.5749 H   0  0  0  0  0  0  0  0  0  0  0  0  # atno 11005 bound_to 11000
  145.0158  139.3468  143.6097 LP  0  0  0  0  0  0  0  0  0  0  0  0  # atno 17320 bound_to 7965
  146.3457  139.9439  142.8737 LP  0  0  0  0  0  0  0  0  0  0  0  0  # atno 17321 bound_to 7965
  140.7806  143.4706  151.0152 LP  0  0  0  0  0  0  0  0  0  0  0  0  # atno 17342 bound_to 10162
  139.8392  143.7586  152.3180 LP  0  0  0  0  0  0  0  0  0  0  0  0  # atno 17343 bound_to 10162
  157.3769  130.7210  149.6603 LP  0  0  0  0  0  0  0  0  0  0  0  0  # atno 17370 bound_to 10713
  155.9700  130.4183  150.4322 LP  0  0  0  0  0  0  0  0  0  0  0  0  # atno 17371 bound_to 10713
  140.3883  134.7462  157.4705 LP  0  0  0  0  0  0  0  0  0  0  0  0  # atno 17394 bound_to 11000
  140.0585  134.6029  155.8777 LP  0  0  0  0  0  0  0  0  0  0  0  0  # atno 17395 bound_to 11000

$$$$
