AV-unprocessed.smi:917|AV-procd|sdf|4162|dock5
  -GOLD-   22720 2 63D 1   1.00000     0.00000
 Structure written by MMmdl.
 43 44  0  0  0  0  0  0  0  0  1 V2000
  150.6294  135.5673  155.5706 C   0  0  0  0  0  0  0  0  0  0  0  0
  149.7426  136.7243  155.2098 C   0  0  0  0  0  0  0  0  0  0  0  0
  148.4330  136.6164  155.3585 N   0  0  0  0  0  0  0  0  0  0  0  0
  147.8990  137.8410  154.9465 O   0  0  0  0  0  0  0  0  0  0  0  0
  148.9198  138.6474  154.5600 C   0  0  0  0  0  0  0  0  0  0  0  0
  148.5460  140.0118  154.0880 C   0  0  0  0  0  0  0  0  0  0  0  0
  150.1171  137.9995  154.6974 C   0  0  0  0  0  0  0  0  0  0  0  0
  151.5051  138.5011  154.3919 C   0  0  0  0  0  0  0  0  0  0  0  0
  152.2396  138.8016  155.6986 C   0  0  0  0  0  0  0  0  0  0  0  0
  153.4192  138.4749  155.8310 O   0  0  0  0  0  0  0  0  0  0  0  0
  151.5263  139.4068  156.6606 N   0  0  0  0  0  0  0  0  0  0  0  0
  152.0179  139.7184  157.9968 C   0  0  0  0  0  0  0  0  0  0  0  0
  152.0322  141.2354  158.2432 C   0  0  0  0  0  0  0  0  0  0  0  0
  152.8782  141.6240  159.4653 C   0  0  0  0  0  0  0  0  0  0  0  0
  152.8496  143.1325  159.7687 C   0  0  0  0  0  0  0  0  0  0  0  0
  151.8342  143.5186  160.8461 C   0  0  0  0  0  0  0  0  0  0  0  0
  151.6365  145.0265  160.6712 C   0  0  0  0  0  0  0  0  0  0  0  0
  151.9490  145.3281  159.1976 C   0  0  0  0  0  0  0  0  0  0  0  0
  152.4450  144.0134  158.5816 C   0  0  0  0  0  0  0  0  0  0  0  0
  151.4738  135.8974  156.1760 H   0  0  0  0  0  0  0  0  0  0  0  0
  151.0293  135.0908  154.6756 H   0  0  0  0  0  0  0  0  0  0  0  0
  150.0921  134.8080  156.1407 H   0  0  0  0  0  0  0  0  0  0  0  0
  149.4074  140.6791  154.0950 H   0  0  0  0  0  0  0  0  0  0  0  0
  147.7800  140.4475  154.7298 H   0  0  0  0  0  0  0  0  0  0  0  0
  148.1553  139.9743  153.0711 H   0  0  0  0  0  0  0  0  0  0  0  0
  152.0817  137.7641  153.8322 H   0  0  0  0  0  0  0  0  0  0  0  0
  151.4742  139.3954  153.7681 H   0  0  0  0  0  0  0  0  0  0  0  0
  150.5645  139.6413  156.4621 H   0  0  0  0  0  0  0  0  0  0  0  0
  151.4128  139.2121  158.7508 H   0  0  0  0  0  0  0  0  0  0  0  0
  153.0274  139.3168  158.0885 H   0  0  0  0  0  0  0  0  0  0  0  0
  152.4173  141.7427  157.3575 H   0  0  0  0  0  0  0  0  0  0  0  0
  151.0100  141.5897  158.3812 H   0  0  0  0  0  0  0  0  0  0  0  0
  152.5389  141.0644  160.3381 H   0  0  0  0  0  0  0  0  0  0  0  0
  153.9112  141.3198  159.2921 H   0  0  0  0  0  0  0  0  0  0  0  0
  153.8374  143.4461  160.1104 H   0  0  0  0  0  0  0  0  0  0  0  0
  150.8881  143.0052  160.6674 H   0  0  0  0  0  0  0  0  0  0  0  0
  152.1678  143.2562  161.8505 H   0  0  0  0  0  0  0  0  0  0  0  0
  150.6298  145.3376  160.9519 H   0  0  0  0  0  0  0  0  0  0  0  0
  152.3357  145.5669  161.3107 H   0  0  0  0  0  0  0  0  0  0  0  0
  151.0717  145.7001  158.6670 H   0  0  0  0  0  0  0  0  0  0  0  0
  152.7195  146.0974  159.1307 H   0  0  0  0  0  0  0  0  0  0  0  0
  153.2652  144.1707  157.8807 H   0  0  0  0  0  0  0  0  0  0  0  0
  151.6292  143.5427  158.0308 H   0  0  0  0  0  0  0  0  0  0  0  0
  1  2  1  0  0  0  0
  1 20  1  0  0  0  0
  1 21  1  0  0  0  0
  1 22  1  0  0  0  0
  2  7  1  0  0  0  0
  2  3  2  0  0  0  0
  3  4  1  0  0  0  0
  4  5  1  0  0  0  0
  5  6  1  0  0  0  0
  5  7  2  0  0  0  0
  6 23  1  0  0  0  0
  6 24  1  0  0  0  0
  6 25  1  0  0  0  0
  7  8  1  0  0  0  0
  8  9  1  0  0  0  0
  8 26  1  0  0  0  0
  8 27  1  0  0  0  0
  9 10  2  0  0  0  0
  9 11  1  0  0  0  0
 11 12  1  0  0  0  0
 11 28  1  0  0  0  0
 12 13  1  0  0  0  0
 12 29  1  0  0  0  0
 12 30  1  0  0  0  0
 13 14  1  0  0  0  0
 13 31  1  0  0  0  0
 13 32  1  0  0  0  0
 14 15  1  0  0  0  0
 14 33  1  0  0  0  0
 14 34  1  0  0  0  0
 15 19  1  0  0  0  0
 15 16  1  0  0  0  0
 15 35  1  0  0  0  0
 16 17  1  0  0  0  0
 16 36  1  0  0  0  0
 16 37  1  0  0  0  0
 17 18  1  0  0  0  0
 17 38  1  0  0  0  0
 17 39  1  0  0  0  0
 18 19  1  0  0  0  0
 18 40  1  0  0  0  0
 18 41  1  0  0  0  0
 19 42  1  0  0  0  0
 19 43  1  0  0  0  0
M  END
> <s_m_source_file>
AV-unprocessed.smi

> <i_m_source_file_index>
917

> <i_lp_mmshare_version>
43012

> <i_f3d_flags>
0

> <s_epik_input>
W0NIM11jMW5vYyhbQ0gzXSljMVtDSDJdQyg9TylbTkhdW0NIMl1bQ0gyXVtDSDJdW0NIXTJbQ0gyXVtDSDJdW0NIMl1bQ0gyXTI=

> <s_epik_cmdline>
J2VwaWtfcHl0aG9uJywgJy1waCcsICc3LjAnLCAnLXRuJywgJzgnLCAnLW1hJywgJzIwMCcsICctbWV0YWxfYmluZGluZycsICctaW1hZScsICc8aW5maWxlLm1hZT4nLCAnLW9tYWUnLCAnPG91dGZpbGUubWFlPic=

> <r_lp_tautomer_probability>
1

> <r_epik_Ionization_Penalty>
1.90047e-08

> <r_epik_Ionization_Penalty_Charging>
0

> <r_epik_Ionization_Penalty_Neutral>
1.90047e-08

> <r_epik_State_Penalty>
-0

> <r_epik_Charging_Adjusted_Penalty>
0

> <i_epik_Tot_Q>
0

> <i_epik_Tot_abs_Q>
0

> <r_epik_Metal_State_Penalty>
-0

> <b_epik_Metal_Only>
0

> <s_lp_Force_Field>
OPLS_2005

> <r_lp_Energy>
14.8475

> <b_lp_Chiralities_Consistent>
1

> <s_lp_Variant>
AV-unprocessed.smi:917-1

> <Gold.Version>
5.8.1

> <Gold.Id.Protein>
6NUR|6NUR_protein|mol2

> <Gold.PLP.Fitness>
42.4571

> <Gold.PLP.PLP>
-42.0009

> <Gold.PLP.part.hbond>
-1.0000

> <Gold.PLP.part.metal>
0.0000

> <Gold.PLP.part.buried>
-5.0722

> <Gold.PLP.part.nonpolar>
-36.3287

> <Gold.PLP.part.repulsive>
0.2739

> <Gold.PLP.ligand.clash>
0.0000

> <Gold.PLP.ligand.torsion>
1.0032

> <Gold.PLP.Chemscore.Hbond>
0.8000

> <Gold.PLP.Chemscore.CHOScore>
0.0000

> <Gold.PLP.Chemscore.Metal>
0.0000

> <Gold.Chemscore.Hbonds>
donor molecule, donor type, donor heavy atom, donor atom, acceptor molecule, acceptor atom, score
      P1  H  7997  8010       L1    10  0.80

> <Gold.PLP.Chemscore.Internal.Correction>
0.0626

> <Gold.Rescore>
     Score         DG    S(hbond)    S(metal)    S(lipo)     H(rot)  DE(clash)    DE(int)     intcor
     17.60     -18.59       0.88        0.00     122.90       1.65       0.06       0.93       ----

> <Gold.Chemscore.Fitness>
17.5972

> <Gold.Chemscore.DG>
-18.5882

> <Gold.Chemscore.ZeroCoef>
-5.4800

> <Gold.Chemscore.Hbond>
0.8839

> <Gold.Chemscore.Metal>
0.0000

> <Gold.Chemscore.Lipo>
122.8955

> <Gold.Chemscore.Internal_Hbond>
0.0000

> <Gold.Chemscore.DEClash>
0.0602

> <Gold.Chemscore.DEInternal>
0.9309

> <Gold.Chemscore.Rot>
1.6495

> <Gold.Chemscore.Internal.Correction>
   9.000000E+99

> <Gold.Chemscore.Hbonds>
donor molecule, donor type, donor heavy atom, donor atom, acceptor molecule, acceptor atom, score
      P1  H  7997  8010       L1    10  0.43

> <Gold.Chemscore.Hbond.Weighted>
-2.9522

> <Gold.Chemscore.Metal.Weighted>
-0.0000

> <Gold.Chemscore.Lipo.Weighted>
-14.3788

> <Gold.Chemscore.Internal_Hbond.Weighted>
0.0000

> <Gold.Chemscore.DEClash.Weighted>
0.0602

> <Gold.Chemscore.DEInternal.Weighted>
0.9309

> <Gold.Chemscore.Rot.Weighted>
4.2228

> <Gold.Chemscore.Internal.Correction.Weighted>
   9.000000E+99

> <Gold.Protein.RotatedTorsions>
[ 6907 6896 6895 6894 ] final  -29.83 input  -60.11 | X-H torsion
[ 7974 7965 7964 7962 ] final  158.67 input  175.53 | X-H torsion
[ 8008 7997 7996 7995 ] final   96.41 input   59.86 | X-H torsion
[ 10167 10162 10161 10158 ] final -129.60 input  -65.29 | X-H torsion
[ 10718 10713 10712 10709 ] final  124.60 input   66.30 | X-H torsion
[ 10763 10752 10751 10750 ] final   84.43 input  -60.55 | X-H torsion
[ 11005 11000 10999 10996 ] final  154.88 input  -57.11 | X-H torsion

> <Gold.Protein.ActiveResidues>
 VAL166  LYS551  ARG553  GLY616  TRP617  ASP618  TYR619  PRO620  LYS621  CYS622 
 ASP623  PHE694  ASN695  SER759  ASP760  ASP761  ALA762  ILE779  LEU786  VAL792 
 PHE793  MET794  SER795  GLU796  ALA797  LYS798  CYS799  TRP800  GLU811  SER814 

> <Gold.Protein.RotatedAtoms>
  151.1138  135.0041  159.8506 H   0  0  0  0  0  0  0  0  0  0  0  0  # atno 6907 bound_to 6896
  152.5444  134.1804  159.8643 H   0  0  0  0  0  0  0  0  0  0  0  0  # atno 6908 bound_to 6896
  151.1856  133.4653  159.2627 H   0  0  0  0  0  0  0  0  0  0  0  0  # atno 6909 bound_to 6896
  144.7833  139.7510  143.6251 H   0  0  0  0  0  0  0  0  0  0  0  0  # atno 7974 bound_to 7965
  156.0793  140.3273  155.7674 H   0  0  0  0  0  0  0  0  0  0  0  0  # atno 8008 bound_to 7997
  155.5178  140.0582  157.2929 H   0  0  0  0  0  0  0  0  0  0  0  0  # atno 8009 bound_to 7997
  154.4573  140.1949  156.0360 H   0  0  0  0  0  0  0  0  0  0  0  0  # atno 8010 bound_to 7997
  139.9381  143.6194  152.2511 H   0  0  0  0  0  0  0  0  0  0  0  0  # atno 10167 bound_to 10162
  157.5572  131.1091  150.8602 H   0  0  0  0  0  0  0  0  0  0  0  0  # atno 10718 bound_to 10713
  153.1381  135.4654  154.9454 H   0  0  0  0  0  0  0  0  0  0  0  0  # atno 10763 bound_to 10752
  154.7724  135.3163  154.8165 H   0  0  0  0  0  0  0  0  0  0  0  0  # atno 10764 bound_to 10752
  153.8694  135.6905  153.4830 H   0  0  0  0  0  0  0  0  0  0  0  0  # atno 10765 bound_to 10752
  140.1530  134.8661  157.2479 H   0  0  0  0  0  0  0  0  0  0  0  0  # atno 11005 bound_to 11000
  146.2052  139.5372  142.9717 LP  0  0  0  0  0  0  0  0  0  0  0  0  # atno 17320 bound_to 7965
  145.5991  141.0358  143.2028 LP  0  0  0  0  0  0  0  0  0  0  0  0  # atno 17321 bound_to 7965
  139.6727  144.7660  151.1754 LP  0  0  0  0  0  0  0  0  0  0  0  0  # atno 17342 bound_to 10162
  140.7619  143.5841  150.8864 LP  0  0  0  0  0  0  0  0  0  0  0  0  # atno 17343 bound_to 10162
  156.9110  130.5280  149.5280 LP  0  0  0  0  0  0  0  0  0  0  0  0  # atno 17370 bound_to 10713
  156.0629  130.5678  150.9229 LP  0  0  0  0  0  0  0  0  0  0  0  0  # atno 17371 bound_to 10713
  140.2581  134.3603  155.7416 LP  0  0  0  0  0  0  0  0  0  0  0  0  # atno 17394 bound_to 11000
  141.2201  133.7354  156.9038 LP  0  0  0  0  0  0  0  0  0  0  0  0  # atno 17395 bound_to 11000

$$$$
