AV-unprocessed.smi:1742|AV-procd|sdf|7021|dock3
  -GOLD-   22720 8243D 1   1.00000     0.00000
 Structure written by MMmdl.
 34 35  0  0  0  0  0  0  0  0  1 V2000
  145.5780  131.1296  151.0466 C   0  0  0  0  0  0  0  0  0  0  0  0
  145.9820  132.1159  152.1484 C   0  0  0  0  0  0  0  0  0  0  0  0
  145.5419  133.4640  151.8475 N   0  0  0  0  0  0  0  0  0  0  0  0
  144.6238  134.2332  152.5339 C   0  0  0  0  0  0  0  0  0  0  0  0
  144.5614  135.4216  151.8626 C   0  0  0  0  0  0  0  0  0  0  0  0
  143.7774  136.5701  152.1378 N   0  0  0  0  0  0  0  0  0  0  0  0
  142.7590  136.6763  153.0128 C   0  0  0  0  0  0  0  0  0  0  0  0
  142.3547  135.7590  153.7245 O   0  0  0  0  0  0  0  0  0  0  0  0
  142.1963  137.8967  153.0656 N   0  0  0  0  0  0  0  0  0  0  0  0
  141.0814  138.3485  153.8992 C   0  0  1  0  0  0  0  0  0  0  0  0
  139.7330  138.0573  153.2140 C   0  0  0  0  0  0  0  0  0  0  0  0
  138.6094  138.1980  154.2486 C   0  0  0  0  0  0  0  0  0  0  0  0
  139.3445  137.7443  155.8655 S   0  0  0  0  0  0  0  0  0  0  0  0
  139.2096  138.8842  156.7850 O   0  0  0  0  0  0  0  0  0  0  0  0
  138.8937  136.3995  156.2544 O   0  0  0  0  0  0  0  0  0  0  0  0
  141.0730  137.6475  155.2674 C   0  0  0  0  0  0  0  0  0  0  0  0
  145.4699  135.3018  150.7789 C   0  0  0  0  0  0  0  0  0  0  0  0
  146.0606  134.1163  150.7777 N   0  0  0  0  0  0  0  0  0  0  0  0
  145.9306  130.1244  151.2781 H   0  0  0  0  0  0  0  0  0  0  0  0
  146.0029  131.4183  150.0849 H   0  0  0  0  0  0  0  0  0  0  0  0
  144.4943  131.0848  150.9349 H   0  0  0  0  0  0  0  0  0  0  0  0
  145.5589  131.8099  153.1063 H   0  0  0  0  0  0  0  0  0  0  0  0
  147.0660  132.1230  152.2684 H   0  0  0  0  0  0  0  0  0  0  0  0
  144.1162  133.8686  153.4146 H   0  0  0  0  0  0  0  0  0  0  0  0
  144.0162  137.4005  151.6159 H   0  0  0  0  0  0  0  0  0  0  0  0
  142.6010  138.5985  152.4627 H   0  0  0  0  0  0  0  0  0  0  0  0
  141.1416  139.4274  154.0545 H   0  0  0  0  0  0  0  0  0  0  0  0
  139.5664  138.7059  152.3535 H   0  0  0  0  0  0  0  0  0  0  0  0
  139.7338  137.0316  152.8419 H   0  0  0  0  0  0  0  0  0  0  0  0
  138.2685  139.2315  154.3128 H   0  0  0  0  0  0  0  0  0  0  0  0
  137.7512  137.5615  154.0321 H   0  0  0  0  0  0  0  0  0  0  0  0
  141.3320  136.5924  155.1709 H   0  0  0  0  0  0  0  0  0  0  0  0
  141.7465  138.1053  155.9920 H   0  0  0  0  0  0  0  0  0  0  0  0
  145.7163  136.0193  150.0102 H   0  0  0  0  0  0  0  0  0  0  0  0
  1  2  1  0  0  0  0
  1 19  1  0  0  0  0
  1 20  1  0  0  0  0
  1 21  1  0  0  0  0
  2  3  1  0  0  0  0
  2 22  1  0  0  0  0
  2 23  1  0  0  0  0
  3 18  1  0  0  0  0
  3  4  1  0  0  0  0
  4  5  2  0  0  0  0
  4 24  1  0  0  0  0
  5  6  1  0  0  0  0
  5 17  1  0  0  0  0
  6  7  1  0  0  0  0
  6 25  1  0  0  0  0
  7  8  2  0  0  0  0
  7  9  1  0  0  0  0
  9 10  1  0  0  0  0
  9 26  1  0  0  0  0
 10 16  1  0  0  0  0
 10 11  1  0  0  0  0
 10 27  1  0  0  0  0
 11 12  1  0  0  0  0
 11 28  1  0  0  0  0
 11 29  1  0  0  0  0
 12 13  1  0  0  0  0
 12 30  1  0  0  0  0
 12 31  1  0  0  0  0
 13 14  2  0  0  0  0
 13 15  2  0  0  0  0
 13 16  1  0  0  0  0
 16 32  1  0  0  0  0
 16 33  1  0  0  0  0
 17 18  2  0  0  0  0
 17 34  1  0  0  0  0
M  END
> <s_m_source_file>
AV-unprocessed.smi

> <i_m_source_file_index>
1742

> <i_lp_mmshare_version>
43012

> <i_f3d_flags>
0

> <s_epik_input>
W0NIM11bQ0gyXW4xW2NIXWMoW2NIXW4xKVtOSF1DKD1PKVtOSF1bQ0BASF0oW0NIMl0yKVtDSDJdW0NIMl1TMig9Tyk9Tw==

> <s_epik_cmdline>
J2VwaWtfcHl0aG9uJywgJy1waCcsICc3LjAnLCAnLXRuJywgJzgnLCAnLW1hJywgJzIwMCcsICctbWV0YWxfYmluZGluZycsICctaW1hZScsICc8aW5maWxlLm1hZT4nLCAnLW9tYWUnLCAnPG91dGZpbGUubWFlPic=

> <r_lp_tautomer_probability>
1

> <r_epik_Ionization_Penalty>
0.000152028

> <r_epik_Ionization_Penalty_Charging>
0

> <r_epik_Ionization_Penalty_Neutral>
0.000152028

> <r_epik_State_Penalty>
-0

> <r_epik_Charging_Adjusted_Penalty>
0

> <i_epik_Tot_Q>
0

> <i_epik_Tot_abs_Q>
0

> <r_epik_Metal_State_Penalty>
-0

> <b_epik_Metal_Only>
0

> <s_lp_Force_Field>
OPLS_2005

> <r_lp_Energy>
18.8672

> <b_lp_Chiralities_Consistent>
1

> <s_lp_Variant>
AV-unprocessed.smi:1742-2

> <Gold.Version>
5.8.1

> <Gold.Id.Protein>
6NUR|6NUR_protein|mol2

> <Gold.PLP.Fitness>
35.1420

> <Gold.PLP.PLP>
-25.7709

> <Gold.PLP.part.hbond>
-3.0000

> <Gold.PLP.part.metal>
0.0000

> <Gold.PLP.part.buried>
-5.2634

> <Gold.PLP.part.nonpolar>
-18.4875

> <Gold.PLP.part.repulsive>
0.4329

> <Gold.PLP.ligand.clash>
0.0000

> <Gold.PLP.ligand.torsion>
0.4139

> <Gold.PLP.Chemscore.Hbond>
2.7200

> <Gold.PLP.Chemscore.CHOScore>
0.6784

> <Gold.PLP.Chemscore.Metal>
0.0000

> <Gold.Chemscore.Hbonds>
donor molecule, donor type, donor heavy atom, donor atom, acceptor molecule, acceptor atom, score
      L1  H     6    25       P1 10171  0.68
      L1  H     9    26       P1 10175  0.74
      P1  H 11000 11005       L1    15  1.00
      L1  C     4    24       P1 10957  0.08
      L1  C    17    34       P1  7921  0.40

> <Gold.PLP.Chemscore.Internal.Correction>
0.0036

> <Gold.Rescore>
     Score         DG    S(hbond)    S(metal)    S(lipo)     H(rot)  DE(clash)    DE(int)     intcor
     14.05     -16.83       2.61        0.00      49.91       1.26       0.22       2.56       ----

> <Gold.Chemscore.Fitness>
14.0460

> <Gold.Chemscore.DG>
-16.8286

> <Gold.Chemscore.ZeroCoef>
-5.4800

> <Gold.Chemscore.Hbond>
2.6117

> <Gold.Chemscore.Metal>
0.0000

> <Gold.Chemscore.Lipo>
49.9098

> <Gold.Chemscore.Internal_Hbond>
0.0000

> <Gold.Chemscore.DEClash>
0.2226

> <Gold.Chemscore.DEInternal>
2.5599

> <Gold.Chemscore.Rot>
1.2554

> <Gold.Chemscore.Internal.Correction>
   9.000000E+99

> <Gold.Chemscore.Hbonds>
donor molecule, donor type, donor heavy atom, donor atom, acceptor molecule, acceptor atom, score
      L1  H     6    25       P1 10171  0.63
      L1  H     9    26       P1 10175  0.71
      P1  H 11000 11005       L1    15  1.00

> <Gold.Chemscore.Hbond.Weighted>
-8.7230

> <Gold.Chemscore.Metal.Weighted>
-0.0000

> <Gold.Chemscore.Lipo.Weighted>
-5.8394

> <Gold.Chemscore.Internal_Hbond.Weighted>
0.0000

> <Gold.Chemscore.DEClash.Weighted>
0.2226

> <Gold.Chemscore.DEInternal.Weighted>
2.5599

> <Gold.Chemscore.Rot.Weighted>
3.2139

> <Gold.Chemscore.Internal.Correction.Weighted>
   9.000000E+99

> <Gold.Protein.RotatedTorsions>
[ 6907 6896 6895 6894 ] final   -6.90 input  -60.11 | X-H torsion
[ 7974 7965 7964 7962 ] final  168.70 input  175.53 | X-H torsion
[ 8008 7997 7996 7995 ] final   36.46 input   59.86 | X-H torsion
[ 10167 10162 10161 10158 ] final   44.85 input  -65.29 | X-H torsion
[ 10718 10713 10712 10709 ] final   49.15 input   66.30 | X-H torsion
[ 10763 10752 10751 10750 ] final -132.38 input  -60.55 | X-H torsion
[ 11005 11000 10999 10996 ] final  107.88 input  -57.11 | X-H torsion

> <Gold.Protein.ActiveResidues>
 VAL166  LYS551  ARG553  GLY616  TRP617  ASP618  TYR619  PRO620  LYS621  CYS622 
 ASP623  PHE694  ASN695  SER759  ASP760  ASP761  ALA762  ILE779  LEU786  VAL792 
 PHE793  MET794  SER795  GLU796  ALA797  LYS798  CYS799  TRP800  GLU811  SER814 

> <Gold.Protein.RotatedAtoms>
  151.4581  135.1036  159.9716 H   0  0  0  0  0  0  0  0  0  0  0  0  # atno 6907 bound_to 6896
  152.4863  133.8378  159.7147 H   0  0  0  0  0  0  0  0  0  0  0  0  # atno 6908 bound_to 6896
  150.8976  133.7101  159.2915 H   0  0  0  0  0  0  0  0  0  0  0  0  # atno 6909 bound_to 6896
  144.7380  139.8945  143.6405 H   0  0  0  0  0  0  0  0  0  0  0  0  # atno 7974 bound_to 7965
  155.1877  140.3305  155.4364 H   0  0  0  0  0  0  0  0  0  0  0  0  # atno 8008 bound_to 7997
  156.2453  140.1915  156.6922 H   0  0  0  0  0  0  0  0  0  0  0  0  # atno 8009 bound_to 7997
  154.6227  140.0593  156.9621 H   0  0  0  0  0  0  0  0  0  0  0  0  # atno 8010 bound_to 7997
  140.3301  144.2599  150.6169 H   0  0  0  0  0  0  0  0  0  0  0  0  # atno 10167 bound_to 10162
  157.4758  130.8284  149.8038 H   0  0  0  0  0  0  0  0  0  0  0  0  # atno 10718 bound_to 10713
  154.8743  135.3799  154.4401 H   0  0  0  0  0  0  0  0  0  0  0  0  # atno 10763 bound_to 10752
  153.5087  135.7030  153.5798 H   0  0  0  0  0  0  0  0  0  0  0  0  # atno 10764 bound_to 10752
  153.4097  135.3928  155.2008 H   0  0  0  0  0  0  0  0  0  0  0  0  # atno 10765 bound_to 10752
  139.8835  134.9414  156.5887 H   0  0  0  0  0  0  0  0  0  0  0  0  # atno 11005 bound_to 11000
  146.1117  139.4123  143.0283 LP  0  0  0  0  0  0  0  0  0  0  0  0  # atno 17320 bound_to 7965
  145.7433  141.0000  143.1289 LP  0  0  0  0  0  0  0  0  0  0  0  0  # atno 17321 bound_to 7965
  140.5405  143.2224  151.8093 LP  0  0  0  0  0  0  0  0  0  0  0  0  # atno 17342 bound_to 10162
  139.4858  144.4607  151.9545 LP  0  0  0  0  0  0  0  0  0  0  0  0  # atno 17343 bound_to 10162
  156.0096  130.3839  150.2311 LP  0  0  0  0  0  0  0  0  0  0  0  0  # atno 17370 bound_to 10713
  157.0495  131.0058  151.3258 LP  0  0  0  0  0  0  0  0  0  0  0  0  # atno 17371 bound_to 10713
  140.7972  133.8535  155.8695 LP  0  0  0  0  0  0  0  0  0  0  0  0  # atno 17394 bound_to 11000
  140.9625  134.1637  157.4642 LP  0  0  0  0  0  0  0  0  0  0  0  0  # atno 17395 bound_to 11000

$$$$
