AV-unprocessed.smi:1813|AV-procd|sdf|7344|dock2
  -GOLD-   22720 9 03D 1   1.00000     0.00000
 Structure written by MMmdl.
 39 40  0  0  0  0  0  0  0  0  3 V2000
  147.3033  136.5353  162.4587 C   0  0  0  0  0  0  0  0  0  0  0  0
  148.3137  136.7137  161.4224 N   0  5  0  0  0  0  0  0  0  0  0  0
  148.0260  136.7614  160.0942 C   0  0  0  0  0  0  0  0  0  0  0  0
  146.9408  136.8036  159.5052 O   0  0  0  0  0  0  0  0  0  0  0  0
  149.3061  136.7933  159.2515 C   0  0  0  0  0  0  0  0  0  0  0  0
  149.0037  136.3867  157.8566 N   0  3  2  0  0  0  0  0  0  0  0  0
  148.3289  137.4612  157.0858 C   0  0  0  0  0  0  0  0  0  0  0  0
  148.1758  137.0684  155.6071 C   0  0  0  0  0  0  0  0  0  0  0  0
  147.4165  135.7402  155.4575 C   0  0  1  0  0  0  0  0  0  0  0  0
  147.3775  135.3502  154.0511 N   0  0  0  0  0  0  0  0  0  0  0  0
  146.5504  134.4355  153.5246 C   0  0  0  0  0  0  0  0  0  0  0  0
  145.7154  133.8158  154.1843 O   0  0  0  0  0  0  0  0  0  0  0  0
  146.7622  134.2917  152.2047 N   0  0  0  0  0  0  0  0  0  0  0  0
  146.0783  133.4455  151.2929 C   0  0  0  0  0  0  0  0  0  0  0  0
  146.6328  132.9102  150.1990 N   0  0  0  0  0  0  0  0  0  0  0  0
  145.7295  132.1144  149.4900 C   0  0  0  0  0  0  0  0  0  0  0  0
  144.4830  132.0553  150.0619 C   0  0  0  0  0  0  0  0  0  0  0  0
  144.3935  133.0016  151.5233 S   0  0  0  0  0  0  0  0  0  0  0  0
  148.1032  134.6534  156.3048 C   0  0  0  0  0  0  0  0  0  0  0  0
  148.2595  135.1018  157.7668 C   0  0  0  0  0  0  0  0  0  0  0  0
  147.7500  136.4374  163.4478 H   0  0  0  0  0  0  0  0  0  0  0  0
  146.6971  135.6424  162.3036 H   0  0  0  0  0  0  0  0  0  0  0  0
  146.6146  137.3790  162.5134 H   0  0  0  0  0  0  0  0  0  0  0  0
  149.8047  137.7651  159.2700 H   0  0  0  0  0  0  0  0  0  0  0  0
  149.9999  136.0842  159.7055 H   0  0  0  0  0  0  0  0  0  0  0  0
  147.3522  137.6686  157.5260 H   0  0  0  0  0  0  0  0  0  0  0  0
  148.9094  138.3823  157.1509 H   0  0  0  0  0  0  0  0  0  0  0  0
  147.6548  137.8602  155.0677 H   0  0  0  0  0  0  0  0  0  0  0  0
  149.1647  136.9843  155.1535 H   0  0  0  0  0  0  0  0  0  0  0  0
  146.3973  135.8855  155.8213 H   0  0  0  0  0  0  0  0  0  0  0  0
  148.0296  135.8108  153.4332 H   0  0  0  0  0  0  0  0  0  0  0  0
  147.4933  134.8589  151.8018 H   0  0  0  0  0  0  0  0  0  0  0  0
  146.0590  131.6243  148.5857 H   0  0  0  0  0  0  0  0  0  0  0  0
  143.6161  131.5135  149.7141 H   0  0  0  0  0  0  0  0  0  0  0  0
  147.5301  133.7262  156.2663 H   0  0  0  0  0  0  0  0  0  0  0  0
  149.0868  134.4250  155.8908 H   0  0  0  0  0  0  0  0  0  0  0  0
  148.7814  134.3212  158.3203 H   0  0  0  0  0  0  0  0  0  0  0  0
  147.2791  135.2146  158.2324 H   0  0  0  0  0  0  0  0  0  0  0  0
  149.9003  136.2391  157.4152 H   0  0  0  0  0  0  0  0  0  0  0  0
  1  2  1  0  0  0  0
  1 21  1  0  0  0  0
  1 22  1  0  0  0  0
  1 23  1  0  0  0  0
  2  3  1  0  0  0  0
  3  4  2  0  0  0  0
  3  5  1  0  0  0  0
  5  6  1  0  0  0  0
  5 24  1  0  0  0  0
  5 25  1  0  0  0  0
  6 20  1  0  0  0  0
  6  7  1  0  0  0  0
  6 39  1  0  0  0  0
  7  8  1  0  0  0  0
  7 26  1  0  0  0  0
  7 27  1  0  0  0  0
  8  9  1  0  0  0  0
  8 28  1  0  0  0  0
  8 29  1  0  0  0  0
  9 10  1  0  0  0  0
  9 19  1  0  0  0  0
  9 30  1  0  0  0  0
 10 11  1  0  0  0  0
 10 31  1  0  0  0  0
 11 12  2  0  0  0  0
 11 13  1  0  0  0  0
 13 14  1  0  0  0  0
 13 32  1  0  0  0  0
 14 18  1  0  0  0  0
 14 15  2  0  0  0  0
 15 16  1  0  0  0  0
 16 17  2  0  0  0  0
 16 33  1  0  0  0  0
 17 18  1  0  0  0  0
 17 34  1  0  0  0  0
 19 20  1  0  0  0  0
 19 35  1  0  0  0  0
 19 36  1  0  0  0  0
 20 37  1  0  0  0  0
 20 38  1  0  0  0  0
M  CHG  1   2  -1
M  CHG  1   6   1
M  END
> <s_m_source_file>
AV-unprocessed.smi

> <i_m_source_file_index>
1813

> <i_lp_mmshare_version>
43012

> <i_f3d_flags>
0

> <s_epik_input>
W0NIM11bTkhdQyg9TylbQ0gyXU4xW0NIMl1bQ0gyXVtDSF0oW0NIMl1bQ0gyXTEpW05IXUMoPU8pW05IXWMybltjSF1bY0hdczI=

> <s_epik_cmdline>
J2VwaWtfcHl0aG9uJywgJy1waCcsICc3LjAnLCAnLXRuJywgJzgnLCAnLW1hJywgJzIwMCcsICctbWV0YWxfYmluZGluZycsICctaW1hZScsICc8aW5maWxlLm1hZT4nLCAnLW9tYWUnLCAnPG91dGZpbGUubWFlPic=

> <r_lp_tautomer_probability>
0.999

> <r_epik_Ionization_Penalty>
6.14232

> <r_epik_Ionization_Penalty_Charging>
6.14218

> <r_epik_Ionization_Penalty_Neutral>
0.000139308

> <r_epik_State_Penalty>
6.98503

> <r_epik_Charging_Adjusted_Penalty>
13.1272

> <i_epik_Tot_Q>
0

> <i_epik_Tot_abs_Q>
2

> <r_epik_Metal_State_Penalty>
2.95036

> <b_epik_Metal_Only>
1

> <s_lp_Force_Field>
OPLS_2005

> <r_lp_Energy>
7.46639

> <b_lp_Chiralities_Consistent>
1

> <s_lp_Variant>
AV-unprocessed.smi:1813-5

> <Gold.Version>
5.8.1

> <Gold.Id.Protein>
6NUR|6NUR_protein|mol2

> <Gold.PLP.Fitness>
36.4237

> <Gold.PLP.PLP>
-25.8220

> <Gold.PLP.part.hbond>
-3.1833

> <Gold.PLP.part.metal>
0.0000

> <Gold.PLP.part.buried>
-4.9373

> <Gold.PLP.part.nonpolar>
-18.0767

> <Gold.PLP.part.repulsive>
0.4114

> <Gold.PLP.ligand.clash>
0.0000

> <Gold.PLP.ligand.torsion>
0.7569

> <Gold.PLP.Chemscore.Hbond>
4.0000

> <Gold.PLP.Chemscore.CHOScore>
0.0000

> <Gold.PLP.Chemscore.Metal>
0.0000

> <Gold.Chemscore.Hbonds>
donor molecule, donor type, donor heavy atom, donor atom, acceptor molecule, acceptor atom, score
      L1  H    10    31       P1  7948  1.00
      L1  H    13    32       P1  7948  1.00
      P1  H  6931  6943       L1     2  2.00

> <Gold.PLP.Chemscore.Internal.Correction>
0.1155

> <Gold.Rescore>
     Score         DG    S(hbond)    S(metal)    S(lipo)     H(rot)  DE(clash)    DE(int)     intcor
     11.39     -15.07       2.57        0.00      46.65       1.73       0.13       3.55       ----

> <Gold.Chemscore.Fitness>
11.3941

> <Gold.Chemscore.DG>
-15.0745

> <Gold.Chemscore.ZeroCoef>
-5.4800

> <Gold.Chemscore.Hbond>
2.5654

> <Gold.Chemscore.Metal>
0.0000

> <Gold.Chemscore.Lipo>
46.6487

> <Gold.Chemscore.Internal_Hbond>
0.0000

> <Gold.Chemscore.DEClash>
0.1322

> <Gold.Chemscore.DEInternal>
3.5481

> <Gold.Chemscore.Rot>
1.7312

> <Gold.Chemscore.Internal.Correction>
   9.000000E+99

> <Gold.Chemscore.Hbonds>
donor molecule, donor type, donor heavy atom, donor atom, acceptor molecule, acceptor atom, score
      L1  H    10    31       P1  7948  0.99
      L1  H    13    32       P1  7948  0.68
      P1  H  6931  6943       L1     2  0.21

> <Gold.Chemscore.Hbond.Weighted>
-8.5684

> <Gold.Chemscore.Metal.Weighted>
-0.0000

> <Gold.Chemscore.Lipo.Weighted>
-5.4579

> <Gold.Chemscore.Internal_Hbond.Weighted>
0.0000

> <Gold.Chemscore.DEClash.Weighted>
0.1322

> <Gold.Chemscore.DEInternal.Weighted>
3.5481

> <Gold.Chemscore.Rot.Weighted>
4.4319

> <Gold.Chemscore.Internal.Correction.Weighted>
   9.000000E+99

> <Gold.Protein.RotatedTorsions>
[ 6907 6896 6895 6894 ] final  116.74 input  -60.11 | X-H torsion
[ 7974 7965 7964 7962 ] final -158.83 input  175.53 | X-H torsion
[ 8008 7997 7996 7995 ] final  -81.16 input   59.86 | X-H torsion
[ 10167 10162 10161 10158 ] final   71.10 input  -65.29 | X-H torsion
[ 10718 10713 10712 10709 ] final  147.41 input   66.30 | X-H torsion
[ 10763 10752 10751 10750 ] final  155.27 input  -60.55 | X-H torsion
[ 11005 11000 10999 10996 ] final  147.60 input  -57.11 | X-H torsion

> <Gold.Protein.ActiveResidues>
 VAL166  LYS551  ARG553  GLY616  TRP617  ASP618  TYR619  PRO620  LYS621  CYS622 
 ASP623  PHE694  ASN695  SER759  ASP760  ASP761  ALA762  ILE779  LEU786  VAL792 
 PHE793  MET794  SER795  GLU796  ALA797  LYS798  CYS799  TRP800  GLU811  SER814 

> <Gold.Protein.RotatedAtoms>
  152.4658  133.7919  159.6906 H   0  0  0  0  0  0  0  0  0  0  0  0  # atno 6907 bound_to 6896
  150.8622  133.7618  159.2995 H   0  0  0  0  0  0  0  0  0  0  0  0  # atno 6908 bound_to 6896
  151.5179  135.1069  159.9923 H   0  0  0  0  0  0  0  0  0  0  0  0  # atno 6909 bound_to 6896
  144.7490  140.3772  143.6063 H   0  0  0  0  0  0  0  0  0  0  0  0  # atno 7974 bound_to 7965
  154.5955  140.0652  156.9298 H   0  0  0  0  0  0  0  0  0  0  0  0  # atno 8008 bound_to 7997
  155.2221  140.3331  155.4296 H   0  0  0  0  0  0  0  0  0  0  0  0  # atno 8009 bound_to 7997
  156.2284  140.1830  156.7288 H   0  0  0  0  0  0  0  0  0  0  0  0  # atno 8010 bound_to 7997
  140.0498  144.5321  150.7372 H   0  0  0  0  0  0  0  0  0  0  0  0  # atno 10167 bound_to 10162
  157.3213  131.0905  151.1238 H   0  0  0  0  0  0  0  0  0  0  0  0  # atno 10718 bound_to 10713
  154.1657  135.2807  155.3096 H   0  0  0  0  0  0  0  0  0  0  0  0  # atno 10763 bound_to 10752
  154.6113  135.5497  153.7480 H   0  0  0  0  0  0  0  0  0  0  0  0  # atno 10764 bound_to 10752
  153.0179  135.6416  154.1798 H   0  0  0  0  0  0  0  0  0  0  0  0  # atno 10765 bound_to 10752
  140.0890  134.9052  157.1620 H   0  0  0  0  0  0  0  0  0  0  0  0  # atno 11005 bound_to 11000
  145.7016  139.1662  143.2590 LP  0  0  0  0  0  0  0  0  0  0  0  0  # atno 17320 bound_to 7965
  146.1412  140.7055  142.9366 LP  0  0  0  0  0  0  0  0  0  0  0  0  # atno 17321 bound_to 7965
  140.7222  143.2600  151.4240 LP  0  0  0  0  0  0  0  0  0  0  0  0  # atno 17342 bound_to 10162
  139.5960  144.1396  152.2145 LP  0  0  0  0  0  0  0  0  0  0  0  0  # atno 17343 bound_to 10162
  157.2522  130.6619  149.5936 LP  0  0  0  0  0  0  0  0  0  0  0  0  # atno 17370 bound_to 10713
  155.9686  130.4535  150.5813 LP  0  0  0  0  0  0  0  0  0  0  0  0  # atno 17371 bound_to 10713
  140.3379  134.2736  155.7217 LP  0  0  0  0  0  0  0  0  0  0  0  0  # atno 17394 bound_to 11000
  141.2072  133.7813  157.0135 LP  0  0  0  0  0  0  0  0  0  0  0  0  # atno 17395 bound_to 11000

$$$$
