AV-unprocessed.smi:1196|AV-procd|sdf|4998|dock5
  -GOLD-   22720 4 03D 1   1.00000     0.00000
 Structure written by MMmdl.
 37 38  0  0  0  0  0  0  0  0  1 V2000
  152.6158  138.8837  157.9050 C   0  0  0  0  0  0  0  0  0  0  0  0
  151.9398  140.2392  157.6462 C   0  0  2  0  0  0  0  0  0  0  0  0
  151.5694  140.9464  158.9646 C   0  0  0  0  0  0  0  0  0  0  0  0
  151.6512  142.3929  158.8617 N   0  0  0  0  0  0  0  0  0  0  0  0
  152.4083  143.2646  159.6161 C   0  0  0  0  0  0  0  0  0  0  0  0
  152.1539  144.5251  159.1574 C   0  0  0  0  0  0  0  0  0  0  0  0
  151.2179  144.3195  158.1056 C   0  0  0  0  0  0  0  0  0  0  0  0
  150.9204  143.0422  157.9299 N   0  0  0  0  0  0  0  0  0  0  0  0
  150.7443  140.0537  156.8255 N   0  0  0  0  0  0  0  0  0  0  0  0
  150.7262  139.9542  155.4880 C   0  0  0  0  0  0  0  0  0  0  0  0
  151.7447  139.9734  154.7959 O   0  0  0  0  0  0  0  0  0  0  0  0
  149.3395  139.8194  154.8510 C   0  0  0  0  0  0  0  0  0  0  0  0
  148.7599  141.1533  154.3398 C   0  0  0  0  0  0  0  0  0  0  0  0
  147.4355  140.9820  153.5713 C   0  0  1  0  0  0  0  0  0  0  0  0
  147.6128  140.3313  152.2841 N   0  0  0  0  0  0  0  0  0  0  0  0
  146.9243  139.1856  152.1894 C   0  0  0  0  0  0  0  0  0  0  0  0
  146.8952  138.4397  151.2135 O   0  0  0  0  0  0  0  0  0  0  0  0
  146.2757  138.9975  153.3437 N   0  0  0  0  0  0  0  0  0  0  0  0
  146.5061  139.9723  154.2214 C   0  0  0  0  0  0  0  0  0  0  0  0
  146.0585  140.0614  155.3630 O   0  0  0  0  0  0  0  0  0  0  0  0
  153.5175  139.0049  158.5057 H   0  0  0  0  0  0  0  0  0  0  0  0
  152.9079  138.4025  156.9711 H   0  0  0  0  0  0  0  0  0  0  0  0
  151.9504  138.2031  158.4370 H   0  0  0  0  0  0  0  0  0  0  0  0
  152.6492  140.8731  157.1105 H   0  0  0  0  0  0  0  0  0  0  0  0
  150.5598  140.6743  159.2761 H   0  0  0  0  0  0  0  0  0  0  0  0
  152.2383  140.6255  159.7645 H   0  0  0  0  0  0  0  0  0  0  0  0
  153.0551  142.9195  160.4092 H   0  0  0  0  0  0  0  0  0  0  0  0
  152.5723  145.4531  159.5179 H   0  0  0  0  0  0  0  0  0  0  0  0
  150.7489  145.0552  157.4691 H   0  0  0  0  0  0  0  0  0  0  0  0
  149.8602  140.0254  157.3121 H   0  0  0  0  0  0  0  0  0  0  0  0
  149.4045  139.1086  154.0261 H   0  0  0  0  0  0  0  0  0  0  0  0
  148.6702  139.3809  155.5920 H   0  0  0  0  0  0  0  0  0  0  0  0
  148.6114  141.8354  155.1792 H   0  0  0  0  0  0  0  0  0  0  0  0
  149.4890  141.6316  153.6837 H   0  0  0  0  0  0  0  0  0  0  0  0
  146.9210  141.9354  153.4432 H   0  0  0  0  0  0  0  0  0  0  0  0
  148.1938  140.7111  151.5509 H   0  0  0  0  0  0  0  0  0  0  0  0
  145.6856  138.2003  153.5321 H   0  0  0  0  0  0  0  0  0  0  0  0
  1  2  1  0  0  0  0
  1 21  1  0  0  0  0
  1 22  1  0  0  0  0
  1 23  1  0  0  0  0
  2  3  1  0  0  0  0
  2  9  1  0  0  0  0
  2 24  1  0  0  0  0
  3  4  1  0  0  0  0
  3 25  1  0  0  0  0
  3 26  1  0  0  0  0
  4  8  1  0  0  0  0
  4  5  1  0  0  0  0
  5  6  2  0  0  0  0
  5 27  1  0  0  0  0
  6  7  1  0  0  0  0
  6 28  1  0  0  0  0
  7  8  2  0  0  0  0
  7 29  1  0  0  0  0
  9 10  1  0  0  0  0
  9 30  1  0  0  0  0
 10 11  2  0  0  0  0
 10 12  1  0  0  0  0
 12 13  1  0  0  0  0
 12 31  1  0  0  0  0
 12 32  1  0  0  0  0
 13 14  1  0  0  0  0
 13 33  1  0  0  0  0
 13 34  1  0  0  0  0
 14 19  1  0  0  0  0
 14 15  1  0  0  0  0
 14 35  1  0  0  0  0
 15 16  1  0  0  0  0
 15 36  1  0  0  0  0
 16 17  2  0  0  0  0
 16 18  1  0  0  0  0
 18 19  1  0  0  0  0
 18 37  1  0  0  0  0
 19 20  2  0  0  0  0
M  END
> <s_m_source_file>
AV-unprocessed.smi

> <i_m_source_file_index>
1196

> <i_lp_mmshare_version>
43012

> <i_f3d_flags>
0

> <s_epik_input>
bjFbY0hdW2NIXVtjSF1uMVtDSDJdW0NAQEhdKFtDSDNdKVtOSF1DKD1PKVtDSDJdW0NIMl1bQ0BASF0yW05IXUMoPU8pW05IXUMyPU8=

> <s_epik_cmdline>
J2VwaWtfcHl0aG9uJywgJy1waCcsICc3LjAnLCAnLXRuJywgJzgnLCAnLW1hJywgJzIwMCcsICctbWV0YWxfYmluZGluZycsICctaW1hZScsICc8aW5maWxlLm1hZT4nLCAnLW9tYWUnLCAnPG91dGZpbGUubWFlPic=

> <r_lp_tautomer_probability>
1

> <r_epik_Ionization_Penalty>
0.00815973

> <r_epik_Ionization_Penalty_Charging>
0

> <r_epik_Ionization_Penalty_Neutral>
0.00815973

> <r_epik_State_Penalty>
0.00583796

> <r_epik_Charging_Adjusted_Penalty>
0.00583796

> <i_epik_Tot_Q>
0

> <i_epik_Tot_abs_Q>
0

> <r_epik_Metal_State_Penalty>
0.409204

> <b_epik_Metal_Only>
0

> <s_lp_Force_Field>
OPLS_2005

> <r_lp_Energy>
16.3903

> <b_lp_Chiralities_Consistent>
1

> <s_lp_Variant>
AV-unprocessed.smi:1196-3

> <Gold.Version>
5.8.1

> <Gold.Id.Protein>
6NUR|6NUR_protein|mol2

> <Gold.PLP.Fitness>
47.2611

> <Gold.PLP.PLP>
-39.0288

> <Gold.PLP.part.hbond>
-3.0596

> <Gold.PLP.part.metal>
0.0000

> <Gold.PLP.part.buried>
-5.4208

> <Gold.PLP.part.nonpolar>
-33.0474

> <Gold.PLP.part.repulsive>
1.4539

> <Gold.PLP.ligand.clash>
0.0000

> <Gold.PLP.ligand.torsion>
1.2005

> <Gold.PLP.Chemscore.Hbond>
2.5710

> <Gold.PLP.Chemscore.CHOScore>
0.9495

> <Gold.PLP.Chemscore.Metal>
0.0000

> <Gold.Chemscore.Hbonds>
donor molecule, donor type, donor heavy atom, donor atom, acceptor molecule, acceptor atom, score
      L1  H    15    36       P1  7957  0.46
      P1  H  7954  7966       L1    17  1.00
      P1  H  7989  7998       L1    11  1.00
      L1  C     7    29       P1  8028  0.90

> <Gold.PLP.Chemscore.Internal.Correction>
0.0719

> <Gold.Rescore>
     Score         DG    S(hbond)    S(metal)    S(lipo)     H(rot)  DE(clash)    DE(int)     intcor
     13.11     -14.36       2.18        0.00      78.33       2.96       0.10       1.15       ----

> <Gold.Chemscore.Fitness>
13.1102

> <Gold.Chemscore.DG>
-14.3586

> <Gold.Chemscore.ZeroCoef>
-5.4800

> <Gold.Chemscore.Hbond>
2.1814

> <Gold.Chemscore.Metal>
0.0000

> <Gold.Chemscore.Lipo>
78.3260

> <Gold.Chemscore.Internal_Hbond>
0.0000

> <Gold.Chemscore.DEClash>
0.1031

> <Gold.Chemscore.DEInternal>
1.1453

> <Gold.Chemscore.Rot>
2.9575

> <Gold.Chemscore.Internal.Correction>
   9.000000E+99

> <Gold.Chemscore.Hbonds>
donor molecule, donor type, donor heavy atom, donor atom, acceptor molecule, acceptor atom, score
      L1  H    15    36       P1  7957  0.45
      P1  H  7954  7966       L1    17  0.99
      P1  H  7989  7998       L1    11  0.84

> <Gold.Chemscore.Hbond.Weighted>
-7.2858

> <Gold.Chemscore.Metal.Weighted>
-0.0000

> <Gold.Chemscore.Lipo.Weighted>
-9.1641

> <Gold.Chemscore.Internal_Hbond.Weighted>
0.0000

> <Gold.Chemscore.DEClash.Weighted>
0.1031

> <Gold.Chemscore.DEInternal.Weighted>
1.1453

> <Gold.Chemscore.Rot.Weighted>
7.5713

> <Gold.Chemscore.Internal.Correction.Weighted>
   9.000000E+99

> <Gold.Protein.RotatedTorsions>
[ 6907 6896 6895 6894 ] final  -54.46 input  -60.11 | X-H torsion
[ 7974 7965 7964 7962 ] final  153.32 input  175.53 | X-H torsion
[ 8008 7997 7996 7995 ] final    7.40 input   59.86 | X-H torsion
[ 10167 10162 10161 10158 ] final -138.40 input  -65.29 | X-H torsion
[ 10718 10713 10712 10709 ] final   20.99 input   66.30 | X-H torsion
[ 10763 10752 10751 10750 ] final  171.07 input  -60.55 | X-H torsion
[ 11005 11000 10999 10996 ] final  149.24 input  -57.11 | X-H torsion

> <Gold.Protein.ActiveResidues>
 VAL166  LYS551  ARG553  GLY616  TRP617  ASP618  TYR619  PRO620  LYS621  CYS622 
 ASP623  PHE694  ASN695  SER759  ASP760  ASP761  ALA762  ILE779  LEU786  VAL792 
 PHE793  MET794  SER795  GLU796  ALA797  LYS798  CYS799  TRP800  GLU811  SER814 

> <Gold.Protein.RotatedAtoms>
  150.8336  134.7600  159.6873 H   0  0  0  0  0  0  0  0  0  0  0  0  # atno 6907 bound_to 6896
  152.4436  134.5536  159.9884 H   0  0  0  0  0  0  0  0  0  0  0  0  # atno 6908 bound_to 6896
  151.5692  133.3354  159.3022 H   0  0  0  0  0  0  0  0  0  0  0  0  # atno 6909 bound_to 6896
  144.8162  139.6785  143.6120 H   0  0  0  0  0  0  0  0  0  0  0  0  # atno 7974 bound_to 7965
  154.7534  140.2771  155.6273 H   0  0  0  0  0  0  0  0  0  0  0  0  # atno 8008 bound_to 7997
  156.2900  140.2674  156.2220 H   0  0  0  0  0  0  0  0  0  0  0  0  # atno 8009 bound_to 7997
  155.0108  140.0372  157.2388 H   0  0  0  0  0  0  0  0  0  0  0  0  # atno 8010 bound_to 7997
  139.8482  143.7233  152.2659 H   0  0  0  0  0  0  0  0  0  0  0  0  # atno 10167 bound_to 10162
  157.1322  130.6596  149.5955 H   0  0  0  0  0  0  0  0  0  0  0  0  # atno 10718 bound_to 10713
  154.4066  135.2755  155.2063 H   0  0  0  0  0  0  0  0  0  0  0  0  # atno 10763 bound_to 10752
  154.4067  135.6032  153.5932 H   0  0  0  0  0  0  0  0  0  0  0  0  # atno 10764 bound_to 10752
  152.9831  135.5939  154.4341 H   0  0  0  0  0  0  0  0  0  0  0  0  # atno 10765 bound_to 10752
  140.1028  134.8973  157.1821 H   0  0  0  0  0  0  0  0  0  0  0  0  # atno 11005 bound_to 11000
  146.2466  139.6110  142.9456 LP  0  0  0  0  0  0  0  0  0  0  0  0  # atno 17320 bound_to 7965
  145.5208  141.0432  143.2436 LP  0  0  0  0  0  0  0  0  0  0  0  0  # atno 17321 bound_to 7965
  139.7492  144.7539  151.0533 LP  0  0  0  0  0  0  0  0  0  0  0  0  # atno 17342 bound_to 10162
  140.7790  143.4880  150.9930 LP  0  0  0  0  0  0  0  0  0  0  0  0  # atno 17343 bound_to 10162
  155.9805  130.4807  150.6779 LP  0  0  0  0  0  0  0  0  0  0  0  0  # atno 17370 bound_to 10713
  157.4382  131.0858  151.0970 LP  0  0  0  0  0  0  0  0  0  0  0  0  # atno 17371 bound_to 10713
  140.3197  134.2931  155.7249 LP  0  0  0  0  0  0  0  0  0  0  0  0  # atno 17394 bound_to 11000
  141.2110  133.7702  156.9893 LP  0  0  0  0  0  0  0  0  0  0  0  0  # atno 17395 bound_to 11000

$$$$
