AV-unprocessed.smi:607|AV-procd|sdf|3042|dock2
  -GOLD-   2262023563D 1   1.00000     0.00000
 Structure written by MMmdl.
 42 43  0  0  0  0  0  0  0  0  1 V2000
  148.6071  127.6130  151.5118 C   0  0  0  0  0  0  0  0  0  0  0  0
  147.9031  127.7299  152.8334 C   0  0  0  0  0  0  0  0  0  0  0  0
  147.3052  126.6666  153.3424 N   0  0  0  0  0  0  0  0  0  0  0  0
  146.7779  127.0931  154.5061 N   0  0  0  0  0  0  0  0  0  0  0  0
  146.0348  126.1597  155.3303 C   0  0  0  0  0  0  0  0  0  0  0  0
  147.0478  128.4282  154.7373 C   0  0  0  0  0  0  0  0  0  0  0  0
  146.5614  129.1270  155.9685 C   0  0  0  0  0  0  0  0  0  0  0  0
  147.7720  128.8832  153.6627 C   0  0  0  0  0  0  0  0  0  0  0  0
  148.3230  130.2659  153.3722 C   0  0  2  0  0  0  0  0  0  0  0  0
  149.2255  130.7641  154.5162 C   0  0  0  0  0  0  0  0  0  0  0  0
  147.1773  131.2351  153.0352 C   0  0  0  0  0  0  0  0  0  0  0  0
  146.3648  131.5770  153.8949 O   0  0  0  0  0  0  0  0  0  0  0  0
  147.1201  131.6649  151.7638 N   0  0  0  0  0  0  0  0  0  0  0  0
  146.0769  132.5130  151.1898 C   0  0  0  0  0  0  0  0  0  0  0  0
  146.1404  133.8900  151.7173 C   0  0  0  0  0  0  0  0  0  0  0  0
  146.1887  134.9695  152.1314 N   0  0  0  0  0  0  0  0  0  0  0  0
  146.1122  132.5064  149.6493 C   0  0  0  0  0  0  0  0  0  0  0  0
  144.6613  132.6710  149.1743 C   0  0  0  0  0  0  0  0  0  0  0  0
  143.7748  132.4574  150.4062 C   0  0  0  0  0  0  0  0  0  0  0  0
  144.7016  131.9025  151.4886 C   0  0  0  0  0  0  0  0  0  0  0  0
  148.1019  128.2051  150.7486 H   0  0  0  0  0  0  0  0  0  0  0  0
  148.6430  126.5810  151.1610 H   0  0  0  0  0  0  0  0  0  0  0  0
  149.6341  127.9712  151.5852 H   0  0  0  0  0  0  0  0  0  0  0  0
  145.0927  126.6117  155.6415 H   0  0  0  0  0  0  0  0  0  0  0  0
  146.6197  125.9076  156.2152 H   0  0  0  0  0  0  0  0  0  0  0  0
  145.8171  125.2453  154.7763 H   0  0  0  0  0  0  0  0  0  0  0  0
  147.1206  130.0422  156.1560 H   0  0  0  0  0  0  0  0  0  0  0  0
  146.6680  128.4938  156.8491 H   0  0  0  0  0  0  0  0  0  0  0  0
  145.5093  129.3936  155.8678 H   0  0  0  0  0  0  0  0  0  0  0  0
  148.9464  130.2327  152.4781 H   0  0  0  0  0  0  0  0  0  0  0  0
  148.6888  130.8264  155.4629 H   0  0  0  0  0  0  0  0  0  0  0  0
  149.6338  131.7519  154.2992 H   0  0  0  0  0  0  0  0  0  0  0  0
  150.0698  130.0897  154.6622 H   0  0  0  0  0  0  0  0  0  0  0  0
  147.8304  131.3327  151.1278 H   0  0  0  0  0  0  0  0  0  0  0  0
  146.7655  133.2810  149.2455 H   0  0  0  0  0  0  0  0  0  0  0  0
  146.4910  131.5495  149.2862 H   0  0  0  0  0  0  0  0  0  0  0  0
  144.4965  133.6649  148.7569 H   0  0  0  0  0  0  0  0  0  0  0  0
  144.4311  131.9471  148.3919 H   0  0  0  0  0  0  0  0  0  0  0  0
  143.3670  133.4150  150.7316 H   0  0  0  0  0  0  0  0  0  0  0  0
  142.9334  131.7940  150.2046 H   0  0  0  0  0  0  0  0  0  0  0  0
  144.7425  130.8158  151.3952 H   0  0  0  0  0  0  0  0  0  0  0  0
  144.3482  132.1296  152.4952 H   0  0  0  0  0  0  0  0  0  0  0  0
  1  2  1  0  0  0  0
  1 21  1  0  0  0  0
  1 22  1  0  0  0  0
  1 23  1  0  0  0  0
  2  8  1  0  0  0  0
  2  3  2  0  0  0  0
  3  4  1  0  0  0  0
  4  5  1  0  0  0  0
  4  6  1  0  0  0  0
  5 24  1  0  0  0  0
  5 25  1  0  0  0  0
  5 26  1  0  0  0  0
  6  7  1  0  0  0  0
  6  8  2  0  0  0  0
  7 27  1  0  0  0  0
  7 28  1  0  0  0  0
  7 29  1  0  0  0  0
  8  9  1  0  0  0  0
  9 10  1  0  0  0  0
  9 11  1  0  0  0  0
  9 30  1  0  0  0  0
 10 31  1  0  0  0  0
 10 32  1  0  0  0  0
 10 33  1  0  0  0  0
 11 12  2  0  0  0  0
 11 13  1  0  0  0  0
 13 14  1  0  0  0  0
 13 34  1  0  0  0  0
 14 20  1  0  0  0  0
 14 15  1  0  0  0  0
 14 17  1  0  0  0  0
 15 16  3  0  0  0  0
 17 18  1  0  0  0  0
 17 35  1  0  0  0  0
 17 36  1  0  0  0  0
 18 19  1  0  0  0  0
 18 37  1  0  0  0  0
 18 38  1  0  0  0  0
 19 20  1  0  0  0  0
 19 39  1  0  0  0  0
 19 40  1  0  0  0  0
 20 41  1  0  0  0  0
 20 42  1  0  0  0  0
M  END
> <s_m_source_file>
AV-unprocessed.smi

> <i_m_source_file_index>
607

> <i_lp_mmshare_version>
43012

> <i_f3d_flags>
0

> <s_epik_input>
W0NIM11jMW5uKFtDSDNdKWMoW0NIM10pYzFbQ0BIXShbQ0gzXSlDKD1PKVtOSF1DMihDI04pW0NIMl1bQ0gyXVtDSDJdW0NIMl0y

> <s_epik_cmdline>
J2VwaWtfcHl0aG9uJywgJy1waCcsICc3LjAnLCAnLXRuJywgJzgnLCAnLW1hJywgJzIwMCcsICctbWV0YWxfYmluZGluZycsICctaW1hZScsICc8aW5maWxlLm1hZT4nLCAnLW9tYWUnLCAnPG91dGZpbGUubWFlPic=

> <r_lp_tautomer_probability>
1

> <r_epik_Ionization_Penalty>
0.00342632

> <r_epik_Ionization_Penalty_Charging>
0

> <r_epik_Ionization_Penalty_Neutral>
0.00342632

> <r_epik_State_Penalty>
0.00242724

> <r_epik_Charging_Adjusted_Penalty>
0.00242724

> <i_epik_Tot_Q>
0

> <i_epik_Tot_abs_Q>
0

> <r_epik_Metal_State_Penalty>
-0

> <b_epik_Metal_Only>
0

> <s_lp_Force_Field>
OPLS_2005

> <r_lp_Energy>
13.4407

> <b_lp_Chiralities_Consistent>
1

> <s_lp_Variant>
AV-unprocessed.smi:607-1

> <Gold.Version>
5.8.1

> <Gold.Id.Protein>
6NUR|6NUR_protein|mol2

> <Gold.PLP.Fitness>
37.2484

> <Gold.PLP.PLP>
-34.8837

> <Gold.PLP.part.hbond>
-1.9172

> <Gold.PLP.part.metal>
0.0000

> <Gold.PLP.part.buried>
-5.3823

> <Gold.PLP.part.nonpolar>
-28.2320

> <Gold.PLP.part.repulsive>
0.6465

> <Gold.PLP.ligand.clash>
0.0000

> <Gold.PLP.ligand.torsion>
0.3721

> <Gold.PLP.Chemscore.Hbond>
1.0000

> <Gold.PLP.Chemscore.CHOScore>
0.0000

> <Gold.PLP.Chemscore.Metal>
0.0000

> <Gold.Chemscore.Hbonds>
donor molecule, donor type, donor heavy atom, donor atom, acceptor molecule, acceptor atom, score
      L1  H    13    34       P1 10747  0.94

> <Gold.PLP.Chemscore.Internal.Correction>
0.1089

> <Gold.Rescore>
     Score         DG    S(hbond)    S(metal)    S(lipo)     H(rot)  DE(clash)    DE(int)     intcor
     13.90     -15.14       0.99        0.00      84.31       1.37       0.10       1.13       ----

> <Gold.Chemscore.Fitness>
13.9017

> <Gold.Chemscore.DG>
-15.1359

> <Gold.Chemscore.ZeroCoef>
-5.4800

> <Gold.Chemscore.Hbond>
0.9893

> <Gold.Chemscore.Metal>
0.0000

> <Gold.Chemscore.Lipo>
84.3063

> <Gold.Chemscore.Internal_Hbond>
0.0000

> <Gold.Chemscore.DEClash>
0.1042

> <Gold.Chemscore.DEInternal>
1.1300

> <Gold.Chemscore.Rot>
1.3720

> <Gold.Chemscore.Internal.Correction>
   9.000000E+99

> <Gold.Chemscore.Hbonds>
donor molecule, donor type, donor heavy atom, donor atom, acceptor molecule, acceptor atom, score
      L1  H    13    34       P1 10747  0.90

> <Gold.Chemscore.Hbond.Weighted>
-3.3044

> <Gold.Chemscore.Metal.Weighted>
-0.0000

> <Gold.Chemscore.Lipo.Weighted>
-9.8638

> <Gold.Chemscore.Internal_Hbond.Weighted>
0.0000

> <Gold.Chemscore.DEClash.Weighted>
0.1042

> <Gold.Chemscore.DEInternal.Weighted>
1.1300

> <Gold.Chemscore.Rot.Weighted>
3.5123

> <Gold.Chemscore.Internal.Correction.Weighted>
   9.000000E+99

> <Gold.Protein.RotatedTorsions>
[ 6907 6896 6895 6894 ] final  -33.21 input  -60.11 | X-H torsion
[ 7974 7965 7964 7962 ] final   56.01 input  175.53 | X-H torsion
[ 8008 7997 7996 7995 ] final -131.21 input   59.86 | X-H torsion
[ 10167 10162 10161 10158 ] final  -98.79 input  -65.29 | X-H torsion
[ 10718 10713 10712 10709 ] final  -98.83 input   66.30 | X-H torsion
[ 10763 10752 10751 10750 ] final  -22.27 input  -60.55 | X-H torsion
[ 11005 11000 10999 10996 ] final   29.40 input  -57.11 | X-H torsion

> <Gold.Protein.ActiveResidues>
 VAL166  LYS551  ARG553  GLY616  TRP617  ASP618  TYR619  PRO620  LYS621  CYS622 
 ASP623  PHE694  ASN695  SER759  ASP760  ASP761  ALA762  ILE779  LEU786  VAL792 
 PHE793  MET794  SER795  GLU796  ALA797  LYS798  CYS799  TRP800  GLU811  SER814 

> <Gold.Protein.RotatedAtoms>
  151.0686  134.9784  159.8296 H   0  0  0  0  0  0  0  0  0  0  0  0  # atno 6907 bound_to 6896
  152.5405  134.2327  159.8841 H   0  0  0  0  0  0  0  0  0  0  0  0  # atno 6908 bound_to 6896
  151.2351  133.4386  159.2639 H   0  0  0  0  0  0  0  0  0  0  0  0  # atno 6909 bound_to 6896
  145.9444  139.3916  143.0344 H   0  0  0  0  0  0  0  0  0  0  0  0  # atno 7974 bound_to 7965
  155.3086  140.0456  157.3033 H   0  0  0  0  0  0  0  0  0  0  0  0  # atno 8008 bound_to 7997
  154.5446  140.2298  155.8551 H   0  0  0  0  0  0  0  0  0  0  0  0  # atno 8009 bound_to 7997
  156.1912  140.3050  155.9343 H   0  0  0  0  0  0  0  0  0  0  0  0  # atno 8010 bound_to 7997
  140.2693  143.3355  152.0550 H   0  0  0  0  0  0  0  0  0  0  0  0  # atno 10167 bound_to 10162
  156.0117  130.5255  150.6580 H   0  0  0  0  0  0  0  0  0  0  0  0  # atno 10718 bound_to 10713
  153.6493  135.6981  153.5214 H   0  0  0  0  0  0  0  0  0  0  0  0  # atno 10763 bound_to 10752
  153.2720  135.4212  155.0996 H   0  0  0  0  0  0  0  0  0  0  0  0  # atno 10764 bound_to 10752
  154.8480  135.3580  154.6037 H   0  0  0  0  0  0  0  0  0  0  0  0  # atno 10765 bound_to 10752
  140.3054  134.2710  155.7745 H   0  0  0  0  0  0  0  0  0  0  0  0  # atno 11005 bound_to 11000
  145.8256  140.9657  143.0876 LP  0  0  0  0  0  0  0  0  0  0  0  0  # atno 17320 bound_to 7965
  144.6784  140.0097  143.7484 LP  0  0  0  0  0  0  0  0  0  0  0  0  # atno 17321 bound_to 7965
  139.4993  144.6667  151.6340 LP  0  0  0  0  0  0  0  0  0  0  0  0  # atno 17342 bound_to 10162
  140.5903  143.9792  150.6320 LP  0  0  0  0  0  0  0  0  0  0  0  0  # atno 17343 bound_to 10162
  157.4328  131.0851  151.1021 LP  0  0  0  0  0  0  0  0  0  0  0  0  # atno 17370 bound_to 10713
  157.1589  130.6217  149.5605 LP  0  0  0  0  0  0  0  0  0  0  0  0  # atno 17371 bound_to 10713
  141.2119  133.7673  156.9828 LP  0  0  0  0  0  0  0  0  0  0  0  0  # atno 17394 bound_to 11000
  140.1072  134.9499  157.2012 LP  0  0  0  0  0  0  0  0  0  0  0  0  # atno 17395 bound_to 11000

$$$$
