AV-unprocessed.smi:717|AV-procd|sdf|3490|dock3
  -GOLD-   22720 0483D 1   1.00000     0.00000
 Structure written by MMmdl.
 43 44  0  0  0  0  0  0  0  0  1 V2000
  149.9576  140.3776  154.5692 O   0  0  0  0  0  0  0  0  0  0  0  0
  149.2676  141.3724  154.7936 C   0  0  0  0  0  0  0  0  0  0  0  0
  148.0519  141.6812  153.9161 C   0  0  0  0  0  0  0  0  0  0  0  0
  147.3964  140.4002  153.4313 C   0  0  0  0  0  0  0  0  0  0  0  0
  146.7014  139.5588  154.3249 C   0  0  0  0  0  0  0  0  0  0  0  0
  146.1140  138.3796  153.8282 C   0  0  0  0  0  0  0  0  0  0  0  0
  146.2467  138.0911  152.4553 C   0  0  0  0  0  0  0  0  0  0  0  0
  146.9085  138.8894  151.5900 N   0  0  0  0  0  0  0  0  0  0  0  0
  147.4694  140.0182  152.0745 C   0  0  0  0  0  0  0  0  0  0  0  0
  149.5166  142.2321  155.7934 N   0  0  0  0  0  0  0  0  0  0  0  0
  150.6187  142.1211  156.7421 C   0  0  0  0  0  0  0  0  0  0  0  0
  150.1170  142.0764  158.1952 C   0  0  0  0  0  0  0  0  0  0  0  0
  149.9511  143.4761  158.8033 C   0  0  0  0  0  0  0  0  0  0  0  0
  151.2982  144.1728  159.0520 C   0  0  0  0  0  0  0  0  0  0  0  0
  152.0225  143.6646  160.3111 C   0  0  0  0  0  0  0  0  0  0  0  0
  152.4099  142.1867  160.2360 C   0  0  0  0  0  0  0  0  0  0  0  0
  152.6918  141.7940  161.6872 C   0  0  0  0  0  0  0  0  0  0  0  0
  151.7912  142.6933  162.5465 C   0  0  0  0  0  0  0  0  0  0  0  0
  151.1950  143.7451  161.6000 C   0  0  0  0  0  0  0  0  0  0  0  0
  147.3374  142.2701  154.4922 H   0  0  0  0  0  0  0  0  0  0  0  0
  148.3409  142.2874  153.0557 H   0  0  0  0  0  0  0  0  0  0  0  0
  146.6219  139.8097  155.3726 H   0  0  0  0  0  0  0  0  0  0  0  0
  145.5760  137.7112  154.4840 H   0  0  0  0  0  0  0  0  0  0  0  0
  145.8093  137.1947  152.0414 H   0  0  0  0  0  0  0  0  0  0  0  0
  147.9939  140.6336  151.3583 H   0  0  0  0  0  0  0  0  0  0  0  0
  148.8984  143.0229  155.9041 H   0  0  0  0  0  0  0  0  0  0  0  0
  151.2177  141.2374  156.5162 H   0  0  0  0  0  0  0  0  0  0  0  0
  151.2717  142.9828  156.6009 H   0  0  0  0  0  0  0  0  0  0  0  0
  149.1637  141.5477  158.2357 H   0  0  0  0  0  0  0  0  0  0  0  0
  150.8148  141.5019  158.8055 H   0  0  0  0  0  0  0  0  0  0  0  0
  149.3451  144.0902  158.1360 H   0  0  0  0  0  0  0  0  0  0  0  0
  149.3980  143.3990  159.7398 H   0  0  0  0  0  0  0  0  0  0  0  0
  151.9418  144.0524  158.1795 H   0  0  0  0  0  0  0  0  0  0  0  0
  151.1258  145.2447  159.1563 H   0  0  0  0  0  0  0  0  0  0  0  0
  152.9379  144.2419  160.4522 H   0  0  0  0  0  0  0  0  0  0  0  0
  151.5732  141.5995  159.8547 H   0  0  0  0  0  0  0  0  0  0  0  0
  153.2651  142.0098  159.5829 H   0  0  0  0  0  0  0  0  0  0  0  0
  152.5138  140.7333  161.8668 H   0  0  0  0  0  0  0  0  0  0  0  0
  153.7377  141.9951  161.9230 H   0  0  0  0  0  0  0  0  0  0  0  0
  150.9990  142.1177  163.0266 H   0  0  0  0  0  0  0  0  0  0  0  0
  152.3746  143.1660  163.3374 H   0  0  0  0  0  0  0  0  0  0  0  0
  151.2060  144.7444  162.0365 H   0  0  0  0  0  0  0  0  0  0  0  0
  150.1546  143.4916  161.3912 H   0  0  0  0  0  0  0  0  0  0  0  0
  1  2  2  0  0  0  0
  2  3  1  0  0  0  0
  2 10  1  0  0  0  0
  3  4  1  0  0  0  0
  3 20  1  0  0  0  0
  3 21  1  0  0  0  0
  4  9  1  0  0  0  0
  4  5  2  0  0  0  0
  5  6  1  0  0  0  0
  5 22  1  0  0  0  0
  6  7  2  0  0  0  0
  6 23  1  0  0  0  0
  7  8  1  0  0  0  0
  7 24  1  0  0  0  0
  8  9  2  0  0  0  0
  9 25  1  0  0  0  0
 10 11  1  0  0  0  0
 10 26  1  0  0  0  0
 11 12  1  0  0  0  0
 11 27  1  0  0  0  0
 11 28  1  0  0  0  0
 12 13  1  0  0  0  0
 12 29  1  0  0  0  0
 12 30  1  0  0  0  0
 13 14  1  0  0  0  0
 13 31  1  0  0  0  0
 13 32  1  0  0  0  0
 14 15  1  0  0  0  0
 14 33  1  0  0  0  0
 14 34  1  0  0  0  0
 15 19  1  0  0  0  0
 15 16  1  0  0  0  0
 15 35  1  0  0  0  0
 16 17  1  0  0  0  0
 16 36  1  0  0  0  0
 16 37  1  0  0  0  0
 17 18  1  0  0  0  0
 17 38  1  0  0  0  0
 17 39  1  0  0  0  0
 18 19  1  0  0  0  0
 18 40  1  0  0  0  0
 18 41  1  0  0  0  0
 19 42  1  0  0  0  0
 19 43  1  0  0  0  0
M  END
> <s_m_source_file>
AV-unprocessed.smi

> <i_m_source_file_index>
717

> <i_lp_mmshare_version>
43012

> <i_f3d_flags>
0

> <s_epik_input>
W2NIXTFuW2NIXVtjSF1bY0hdYzFbQ0gyXUMoPU8pW05IXVtDSDJdW0NIMl1bQ0gyXVtDSDJdW0NIXTJbQ0gyXVtDSDJdW0NIMl1bQ0gyXTI=

> <s_epik_cmdline>
J2VwaWtfcHl0aG9uJywgJy1waCcsICc3LjAnLCAnLXRuJywgJzgnLCAnLW1hJywgJzIwMCcsICctbWV0YWxfYmluZGluZycsICctaW1hZScsICc8aW5maWxlLm1hZT4nLCAnLW9tYWUnLCAnPG91dGZpbGUubWFlPic=

> <r_epik_Ionization_Penalty>
0.00412097

> <r_epik_Ionization_Penalty_Charging>
0

> <r_epik_Ionization_Penalty_Neutral>
0.00412097

> <r_epik_State_Penalty>
0.00295657

> <r_epik_Charging_Adjusted_Penalty>
0.00295657

> <i_epik_Tot_Q>
0

> <i_epik_Tot_abs_Q>
0

> <r_epik_Metal_State_Penalty>
-0

> <b_epik_Metal_Only>
0

> <s_lp_Force_Field>
OPLS_2005

> <r_lp_Energy>
20.3192

> <b_lp_Chiralities_Consistent>
1

> <s_lp_Variant>
AV-unprocessed.smi:717-1

> <Gold.Version>
5.8.1

> <Gold.Id.Protein>
6NUR|6NUR_protein|mol2

> <Gold.PLP.Fitness>
53.6644

> <Gold.PLP.PLP>
-47.2292

> <Gold.PLP.part.hbond>
-2.0000

> <Gold.PLP.part.metal>
0.0000

> <Gold.PLP.part.buried>
-3.7167

> <Gold.PLP.part.nonpolar>
-42.2184

> <Gold.PLP.part.repulsive>
0.6147

> <Gold.PLP.ligand.clash>
0.0000

> <Gold.PLP.ligand.torsion>
0.7366

> <Gold.PLP.Chemscore.Hbond>
1.9120

> <Gold.PLP.Chemscore.CHOScore>
0.6785

> <Gold.PLP.Chemscore.Metal>
0.0000

> <Gold.Chemscore.Hbonds>
donor molecule, donor type, donor heavy atom, donor atom, acceptor molecule, acceptor atom, score
      L1  H    10    26       P1  8028  0.80
      P1  H  7954  7966       L1     8  0.23
      P1  H  7989  7998       L1     1  0.90
      L1  C     9    25       P1  7957  0.08

> <Gold.PLP.Chemscore.Internal.Correction>
0.1366

> <Gold.Rescore>
     Score         DG    S(hbond)    S(metal)    S(lipo)     H(rot)  DE(clash)    DE(int)     intcor
     19.54     -21.91       1.62        0.00     130.81       1.67       1.47       0.90       ----

> <Gold.Chemscore.Fitness>
19.5413

> <Gold.Chemscore.DG>
-21.9138

> <Gold.Chemscore.ZeroCoef>
-5.4800

> <Gold.Chemscore.Hbond>
1.6162

> <Gold.Chemscore.Metal>
0.0000

> <Gold.Chemscore.Lipo>
130.8107

> <Gold.Chemscore.Internal_Hbond>
0.0000

> <Gold.Chemscore.DEClash>
1.4734

> <Gold.Chemscore.DEInternal>
0.8991

> <Gold.Chemscore.Rot>
1.6676

> <Gold.Chemscore.Internal.Correction>
   9.000000E+99

> <Gold.Chemscore.Hbonds>
donor molecule, donor type, donor heavy atom, donor atom, acceptor molecule, acceptor atom, score
      L1  H    10    26       P1  8028  0.80
      P1  H  7954  7966       L1     8  0.18
      P1  H  7989  7998       L1     1  0.62

> <Gold.Chemscore.Hbond.Weighted>
-5.3980

> <Gold.Chemscore.Metal.Weighted>
-0.0000

> <Gold.Chemscore.Lipo.Weighted>
-15.3049

> <Gold.Chemscore.Internal_Hbond.Weighted>
0.0000

> <Gold.Chemscore.DEClash.Weighted>
1.4734

> <Gold.Chemscore.DEInternal.Weighted>
0.8991

> <Gold.Chemscore.Rot.Weighted>
4.2690

> <Gold.Chemscore.Internal.Correction.Weighted>
   9.000000E+99

> <Gold.Protein.RotatedTorsions>
[ 6907 6896 6895 6894 ] final   55.90 input  -60.11 | X-H torsion
[ 7974 7965 7964 7962 ] final -178.14 input  175.53 | X-H torsion
[ 8008 7997 7996 7995 ] final -108.30 input   59.86 | X-H torsion
[ 10167 10162 10161 10158 ] final   34.45 input  -65.29 | X-H torsion
[ 10718 10713 10712 10709 ] final  -50.02 input   66.30 | X-H torsion
[ 10763 10752 10751 10750 ] final -105.95 input  -60.55 | X-H torsion
[ 11005 11000 10999 10996 ] final   92.09 input  -57.11 | X-H torsion

> <Gold.Protein.ActiveResidues>
 VAL166  LYS551  ARG553  GLY616  TRP617  ASP618  TYR619  PRO620  LYS621  CYS622 
 ASP623  PHE694  ASN695  SER759  ASP760  ASP761  ALA762  ILE779  LEU786  VAL792 
 PHE793  MET794  SER795  GLU796  ALA797  LYS798  CYS799  TRP800  GLU811  SER814 

> <Gold.Protein.RotatedAtoms>
  152.3584  134.6907  160.0214 H   0  0  0  0  0  0  0  0  0  0  0  0  # atno 6907 bound_to 6896
  151.7238  133.3310  159.3330 H   0  0  0  0  0  0  0  0  0  0  0  0  # atno 6908 bound_to 6896
  150.7587  134.6358  159.6255 H   0  0  0  0  0  0  0  0  0  0  0  0  # atno 6909 bound_to 6896
  144.7130  140.0913  143.6421 H   0  0  0  0  0  0  0  0  0  0  0  0  # atno 7974 bound_to 7965
  154.9422  140.0402  157.2102 H   0  0  0  0  0  0  0  0  0  0  0  0  # atno 8008 bound_to 7997
  154.8058  140.2859  155.5867 H   0  0  0  0  0  0  0  0  0  0  0  0  # atno 8009 bound_to 7997
  156.2966  140.2546  156.2936 H   0  0  0  0  0  0  0  0  0  0  0  0  # atno 8010 bound_to 7997
  140.4314  144.1319  150.6160 H   0  0  0  0  0  0  0  0  0  0  0  0  # atno 10167 bound_to 10162
  156.1839  130.4151  149.9468 H   0  0  0  0  0  0  0  0  0  0  0  0  # atno 10718 bound_to 10713
  154.7980  135.4730  154.0208 H   0  0  0  0  0  0  0  0  0  0  0  0  # atno 10763 bound_to 10752
  153.1735  135.6829  153.8581 H   0  0  0  0  0  0  0  0  0  0  0  0  # atno 10764 bound_to 10752
  153.8156  135.3211  155.3383 H   0  0  0  0  0  0  0  0  0  0  0  0  # atno 10765 bound_to 10752
  139.8828  134.8712  156.3522 H   0  0  0  0  0  0  0  0  0  0  0  0  # atno 11005 bound_to 11000
  145.9618  139.2806  143.1151 LP  0  0  0  0  0  0  0  0  0  0  0  0  # atno 17320 bound_to 7965
  145.9213  140.9113  143.0404 LP  0  0  0  0  0  0  0  0  0  0  0  0  # atno 17321 bound_to 7965
  140.4423  143.2521  151.9457 LP  0  0  0  0  0  0  0  0  0  0  0  0  # atno 17342 bound_to 10162
  139.4785  144.5643  151.8190 LP  0  0  0  0  0  0  0  0  0  0  0  0  # atno 17343 bound_to 10162
  156.7230  130.9014  151.3619 LP  0  0  0  0  0  0  0  0  0  0  0  0  # atno 17370 bound_to 10713
  157.6886  130.9210  150.0452 LP  0  0  0  0  0  0  0  0  0  0  0  0  # atno 17371 bound_to 10713
  140.9586  133.7403  156.0370 LP  0  0  0  0  0  0  0  0  0  0  0  0  # atno 17394 bound_to 11000
  140.8017  134.3501  157.5437 LP  0  0  0  0  0  0  0  0  0  0  0  0  # atno 17395 bound_to 11000

$$$$
