AV-unprocessed.smi:1029|AV-procd|sdf|4474|dock1
  -GOLD-   22720 2453D 1   1.00000     0.00000
 Structure written by MMmdl.
 46 47  0  0  0  0  0  0  0  0  2 V2000
  151.7521  140.4931  158.2072 C   0  0  0  0  0  0  0  0  0  0  0  0
  151.3608  140.1346  156.8039 C   0  0  0  0  0  0  0  0  0  0  0  0
  150.0538  140.0192  156.2540 C   0  0  0  0  0  0  0  0  0  0  0  0
  150.3021  139.6737  154.9522 C   0  0  0  0  0  0  0  0  0  0  0  0
  149.4093  139.4399  153.9552 N   0  0  0  0  0  0  0  0  0  0  0  0
  148.1205  139.0675  154.0476 C   0  0  0  0  0  0  0  0  0  0  0  0
  147.5106  138.8494  155.0945 O   0  0  0  0  0  0  0  0  0  0  0  0
  147.5585  138.9544  152.8369 N   0  0  0  0  0  0  0  0  0  0  0  0
  146.1666  138.5844  152.6136 C   0  0  0  0  0  0  0  0  0  0  0  0
  146.0607  137.3028  151.7693 C   0  0  2  0  0  0  0  0  0  0  0  0
  146.1906  137.6590  150.4064 O   0  0  0  0  0  0  0  0  0  0  0  0
  144.6889  136.6211  151.9502 C   0  0  0  0  0  0  0  0  0  0  0  0
  144.7387  135.1568  151.7025 N   0  3  2  0  0  0  0  0  0  0  0  0
  145.8775  134.5073  152.4013 C   0  0  0  0  0  0  0  0  0  0  0  0
  145.8312  132.9781  152.2428 C   0  0  0  0  0  0  0  0  0  0  0  0
  145.8119  132.5711  150.7603 C   0  0  1  0  0  0  0  0  0  0  0  0
  145.7404  131.0474  150.5887 C   0  0  0  0  0  0  0  0  0  0  0  0
  144.6421  133.2807  150.0584 C   0  0  0  0  0  0  0  0  0  0  0  0
  144.7134  134.8040  150.2576 C   0  0  0  0  0  0  0  0  0  0  0  0
  151.6329  139.5867  154.7125 O   0  0  0  0  0  0  0  0  0  0  0  0
  152.3019  139.8815  155.9062 N   0  0  0  0  0  0  0  0  0  0  0  0
  150.8749  140.7024  158.8196 H   0  0  0  0  0  0  0  0  0  0  0  0
  152.3866  141.3797  158.2240 H   0  0  0  0  0  0  0  0  0  0  0  0
  152.3012  139.6794  158.6818 H   0  0  0  0  0  0  0  0  0  0  0  0
  149.1067  140.1709  156.7493 H   0  0  0  0  0  0  0  0  0  0  0  0
  149.7702  139.5646  153.0208 H   0  0  0  0  0  0  0  0  0  0  0  0
  148.1205  139.1531  152.0218 H   0  0  0  0  0  0  0  0  0  0  0  0
  145.7067  138.4159  153.5889 H   0  0  0  0  0  0  0  0  0  0  0  0
  145.6236  139.4084  152.1469 H   0  0  0  0  0  0  0  0  0  0  0  0
  146.8662  136.6212  152.0420 H   0  0  0  0  0  0  0  0  0  0  0  0
  145.3463  137.9357  150.0833 H   0  0  0  0  0  0  0  0  0  0  0  0
  144.3009  136.7980  152.9546 H   0  0  0  0  0  0  0  0  0  0  0  0
  143.9783  137.0903  151.2673 H   0  0  0  0  0  0  0  0  0  0  0  0
  146.8179  134.8991  152.0099 H   0  0  0  0  0  0  0  0  0  0  0  0
  145.8478  134.7544  153.4633 H   0  0  0  0  0  0  0  0  0  0  0  0
  146.6927  132.5323  152.7414 H   0  0  0  0  0  0  0  0  0  0  0  0
  144.9463  132.5864  152.7467 H   0  0  0  0  0  0  0  0  0  0  0  0
  146.7413  132.9125  150.3022 H   0  0  0  0  0  0  0  0  0  0  0  0
  144.8290  130.6395  151.0274 H   0  0  0  0  0  0  0  0  0  0  0  0
  146.5886  130.5582  151.0686 H   0  0  0  0  0  0  0  0  0  0  0  0
  145.7552  130.7702  149.5341 H   0  0  0  0  0  0  0  0  0  0  0  0
  144.6518  133.0500  148.9924 H   0  0  0  0  0  0  0  0  0  0  0  0
  143.6935  132.9066  150.4464 H   0  0  0  0  0  0  0  0  0  0  0  0
  143.8553  135.2632  149.7685 H   0  0  0  0  0  0  0  0  0  0  0  0
  145.6039  135.2026  149.7690 H   0  0  0  0  0  0  0  0  0  0  0  0
  143.9007  134.7726  152.1162 H   0  0  0  0  0  0  0  0  0  0  0  0
  1  2  1  0  0  0  0
  1 22  1  0  0  0  0
  1 23  1  0  0  0  0
  1 24  1  0  0  0  0
  2 21  2  0  0  0  0
  2  3  1  0  0  0  0
  3  4  2  0  0  0  0
  3 25  1  0  0  0  0
  4  5  1  0  0  0  0
  4 20  1  0  0  0  0
  5  6  1  0  0  0  0
  5 26  1  0  0  0  0
  6  7  2  0  0  0  0
  6  8  1  0  0  0  0
  8  9  1  0  0  0  0
  8 27  1  0  0  0  0
  9 10  1  0  0  0  0
  9 28  1  0  0  0  0
  9 29  1  0  0  0  0
 10 11  1  0  0  0  0
 10 12  1  0  0  0  0
 10 30  1  0  0  0  0
 11 31  1  0  0  0  0
 12 13  1  0  0  0  0
 12 32  1  0  0  0  0
 12 33  1  0  0  0  0
 13 19  1  0  0  0  0
 13 14  1  0  0  0  0
 13 46  1  0  0  0  0
 14 15  1  0  0  0  0
 14 34  1  0  0  0  0
 14 35  1  0  0  0  0
 15 16  1  0  0  0  0
 15 36  1  0  0  0  0
 15 37  1  0  0  0  0
 16 17  1  0  0  0  0
 16 18  1  0  0  0  0
 16 38  1  0  0  0  0
 17 39  1  0  0  0  0
 17 40  1  0  0  0  0
 17 41  1  0  0  0  0
 18 19  1  0  0  0  0
 18 42  1  0  0  0  0
 18 43  1  0  0  0  0
 19 44  1  0  0  0  0
 19 45  1  0  0  0  0
 20 21  1  0  0  0  0
M  CHG  1  13   1
M  END
> <s_m_source_file>
AV-unprocessed.smi

> <i_m_source_file_index>
1029

> <i_lp_mmshare_version>
43012

> <i_f3d_flags>
0

> <s_epik_input>
W0NIM11jMVtjSF1jKG9uMSlbTkhdQyg9TylbTkhdW0NIMl1bQ0BIXShbT0hdKVtDSDJdTjJbQ0gyXVtDSDJdW0NIXShbQ0gzXSlbQ0gyXVtDSDJdMg==

> <s_epik_cmdline>
J2VwaWtfcHl0aG9uJywgJy1waCcsICc3LjAnLCAnLXRuJywgJzgnLCAnLW1hJywgJzIwMCcsICctbWV0YWxfYmluZGluZycsICctaW1hZScsICc8aW5maWxlLm1hZT4nLCAnLW9tYWUnLCAnPG91dGZpbGUubWFlPic=

> <r_lp_tautomer_probability>
1

> <r_epik_Ionization_Penalty>
0.00211787

> <r_epik_Ionization_Penalty_Charging>
0.00153238

> <r_epik_Ionization_Penalty_Neutral>
0.000585488

> <r_epik_State_Penalty>
-0

> <r_epik_Charging_Adjusted_Penalty>
0.00153238

> <i_epik_Tot_Q>
1

> <i_epik_Tot_abs_Q>
1

> <r_epik_Metal_State_Penalty>
-0

> <b_epik_Metal_Only>
0

> <s_lp_Force_Field>
OPLS_2005

> <r_lp_Energy>
21.4534

> <b_lp_Chiralities_Consistent>
1

> <s_lp_Variant>
AV-unprocessed.smi:1029-1

> <Gold.Version>
5.8.1

> <Gold.Id.Protein>
6NUR|6NUR_protein|mol2

> <Gold.PLP.Fitness>
49.9693

> <Gold.PLP.PLP>
-35.6590

> <Gold.PLP.part.hbond>
-7.1421

> <Gold.PLP.part.metal>
0.0000

> <Gold.PLP.part.buried>
-3.2290

> <Gold.PLP.part.nonpolar>
-26.5106

> <Gold.PLP.part.repulsive>
0.2880

> <Gold.PLP.ligand.clash>
0.0000

> <Gold.PLP.ligand.torsion>
0.7823

> <Gold.PLP.Chemscore.Hbond>
5.2320

> <Gold.PLP.Chemscore.CHOScore>
0.0000

> <Gold.PLP.Chemscore.Metal>
0.0000

> <Gold.Chemscore.Hbonds>
donor molecule, donor type, donor heavy atom, donor atom, acceptor molecule, acceptor atom, score
      L1  H     5    26       P1  7957  1.00
      L1  H     8    27       P1  7957  1.00
      L1  H    11    31       P1 10171  1.00
      P1  H  7954  7966       L1    11  0.83
      P1  H  7989  7998       L1    20  0.75
      P1  H  7997  8009       L1    21  0.86

> <Gold.PLP.Chemscore.Internal.Correction>
0.1789

> <Gold.Rescore>
     Score         DG    S(hbond)    S(metal)    S(lipo)     H(rot)  DE(clash)    DE(int)     intcor
     22.45     -23.49       4.49        0.00      79.68       2.46       0.21       0.83       ----

> <Gold.Chemscore.Fitness>
22.4456

> <Gold.Chemscore.DG>
-23.4885

> <Gold.Chemscore.ZeroCoef>
-5.4800

> <Gold.Chemscore.Hbond>
4.4880

> <Gold.Chemscore.Metal>
0.0000

> <Gold.Chemscore.Lipo>
79.6763

> <Gold.Chemscore.Internal_Hbond>
0.0000

> <Gold.Chemscore.DEClash>
0.2128

> <Gold.Chemscore.DEInternal>
0.8301

> <Gold.Chemscore.Rot>
2.4624

> <Gold.Chemscore.Internal.Correction>
   9.000000E+99

> <Gold.Chemscore.Hbonds>
donor molecule, donor type, donor heavy atom, donor atom, acceptor molecule, acceptor atom, score
      L1  H     5    26       P1  7957  0.97
      L1  H     8    27       P1  7957  0.96
      L1  H    11    31       P1 10171  0.99
      P1  H  7954  7966       L1    11  0.63
      P1  H  7989  7998       L1    20  0.09
      P1  H  7997  8009       L1    21  0.83

> <Gold.Chemscore.Hbond.Weighted>
-14.9901

> <Gold.Chemscore.Metal.Weighted>
-0.0000

> <Gold.Chemscore.Lipo.Weighted>
-9.3221

> <Gold.Chemscore.Internal_Hbond.Weighted>
0.0000

> <Gold.Chemscore.DEClash.Weighted>
0.2128

> <Gold.Chemscore.DEInternal.Weighted>
0.8301

> <Gold.Chemscore.Rot.Weighted>
6.3037

> <Gold.Chemscore.Internal.Correction.Weighted>
   9.000000E+99

> <Gold.Protein.RotatedTorsions>
[ 6907 6896 6895 6894 ] final  -50.20 input  -60.11 | X-H torsion
[ 7974 7965 7964 7962 ] final  -23.29 input  175.53 | X-H torsion
[ 8008 7997 7996 7995 ] final -162.95 input   59.86 | X-H torsion
[ 10167 10162 10161 10158 ] final -123.70 input  -65.29 | X-H torsion
[ 10718 10713 10712 10709 ] final  -17.74 input   66.30 | X-H torsion
[ 10763 10752 10751 10750 ] final   -3.83 input  -60.55 | X-H torsion
[ 11005 11000 10999 10996 ] final -161.09 input  -57.11 | X-H torsion

> <Gold.Protein.ActiveResidues>
 VAL166  LYS551  ARG553  GLY616  TRP617  ASP618  TYR619  PRO620  LYS621  CYS622 
 ASP623  PHE694  ASN695  SER759  ASP760  ASP761  ALA762  ILE779  LEU786  VAL792 
 PHE793  MET794  SER795  GLU796  ALA797  LYS798  CYS799  TRP800  GLU811  SER814 

> <Gold.Protein.RotatedAtoms>
  150.8730  134.8108  159.7168 H   0  0  0  0  0  0  0  0  0  0  0  0  # atno 6907 bound_to 6896
  152.4728  134.4916  159.9707 H   0  0  0  0  0  0  0  0  0  0  0  0  # atno 6908 bound_to 6896
  151.5001  133.3467  159.2903 H   0  0  0  0  0  0  0  0  0  0  0  0  # atno 6909 bound_to 6896
  146.1625  140.4595  142.8565 H   0  0  0  0  0  0  0  0  0  0  0  0  # atno 7974 bound_to 7965
  155.8143  140.0910  157.1886 H   0  0  0  0  0  0  0  0  0  0  0  0  # atno 8008 bound_to 7997
  154.3979  140.1449  156.3484 H   0  0  0  0  0  0  0  0  0  0  0  0  # atno 8009 bound_to 7997
  155.8332  140.3442  155.5588 H   0  0  0  0  0  0  0  0  0  0  0  0  # atno 8010 bound_to 7997
  140.0007  143.5544  152.2305 H   0  0  0  0  0  0  0  0  0  0  0  0  # atno 10167 bound_to 10162
  156.5693  130.4745  149.6370 H   0  0  0  0  0  0  0  0  0  0  0  0  # atno 10718 bound_to 10713
  153.3766  135.6997  153.6597 H   0  0  0  0  0  0  0  0  0  0  0  0  # atno 10763 bound_to 10752
  153.5225  135.3609  155.2639 H   0  0  0  0  0  0  0  0  0  0  0  0  # atno 10764 bound_to 10752
  154.8688  135.4161  154.3055 H   0  0  0  0  0  0  0  0  0  0  0  0  # atno 10765 bound_to 10752
  140.6243  134.4718  157.5225 H   0  0  0  0  0  0  0  0  0  0  0  0  # atno 11005 bound_to 11000
  144.8047  140.6277  143.6455 LP  0  0  0  0  0  0  0  0  0  0  0  0  # atno 17320 bound_to 7965
  145.4552  139.1519  143.3897 LP  0  0  0  0  0  0  0  0  0  0  0  0  # atno 17321 bound_to 7965
  139.6274  144.7639  151.2609 LP  0  0  0  0  0  0  0  0  0  0  0  0  # atno 17342 bound_to 10162
  140.7420  143.6540  150.8223 LP  0  0  0  0  0  0  0  0  0  0  0  0  # atno 17343 bound_to 10162
  156.2729  130.7027  151.1829 LP  0  0  0  0  0  0  0  0  0  0  0  0  # atno 17370 bound_to 10713
  157.7351  131.0575  150.5485 LP  0  0  0  0  0  0  0  0  0  0  0  0  # atno 17371 bound_to 10713
  139.9141  134.8283  156.1426 LP  0  0  0  0  0  0  0  0  0  0  0  0  # atno 17394 bound_to 11000
  141.0721  133.6792  156.2161 LP  0  0  0  0  0  0  0  0  0  0  0  0  # atno 17395 bound_to 11000

$$$$
