AV-unprocessed.smi:1896|AV-procd|sdf|7683|dock10
  -GOLD-   22720 9423D 1   1.00000     0.00000
 Structure written by MMmdl.
 47 48  0  0  0  0  0  0  0  0  2 V2000
  151.2588  145.7397  159.6211 C   0  0  0  0  0  0  0  0  0  0  0  0
  151.8518  144.4932  160.2128 C   0  0  0  0  0  0  0  0  0  0  0  0
  152.0829  144.4483  161.5139 N   0  0  0  0  0  0  0  0  0  0  0  0
  152.6168  143.2293  161.7274 N   0  0  0  0  0  0  0  0  0  0  0  0
  152.9946  142.8437  163.0730 C   0  0  0  0  0  0  0  0  0  0  0  0
  152.7274  142.5035  160.5575 C   0  0  0  0  0  0  0  0  0  0  0  0
  153.3000  141.1229  160.5311 C   0  0  0  0  0  0  0  0  0  0  0  0
  152.2390  143.2912  159.5488 C   0  0  0  0  0  0  0  0  0  0  0  0
  152.1380  142.9782  158.0772 C   0  0  0  0  0  0  0  0  0  0  0  0
  150.9574  142.0378  157.8378 C   0  0  0  0  0  0  0  0  0  0  0  0
  150.4693  141.4085  158.7762 O   0  0  0  0  0  0  0  0  0  0  0  0
  150.5167  141.9382  156.5754 N   0  0  0  0  0  0  0  0  0  0  0  0
  149.4425  141.0509  156.1469 C   0  0  0  0  0  0  0  0  0  0  0  0
  148.9302  141.3971  154.7273 C   0  0  1  0  0  0  0  0  0  0  0  0
  148.5012  140.1209  153.9686 C   0  0  0  0  0  0  0  0  0  0  0  0
  147.8084  142.3799  154.7774 N   0  3  0  0  0  0  0  0  0  0  0  0
  147.1476  142.6725  153.4862 C   0  0  0  0  0  0  0  0  0  0  0  0
  145.7954  143.2684  153.8596 C   0  0  0  0  0  0  0  0  0  0  0  0
  145.3969  142.4682  155.0937 C   0  0  0  0  0  0  0  0  0  0  0  0
  146.7259  142.0569  155.7421 C   0  0  0  0  0  0  0  0  0  0  0  0
  152.0424  146.4175  159.2835 H   0  0  0  0  0  0  0  0  0  0  0  0
  150.6473  146.2760  160.3476 H   0  0  0  0  0  0  0  0  0  0  0  0
  150.6241  145.5103  158.7654 H   0  0  0  0  0  0  0  0  0  0  0  0
  152.4791  141.9238  163.3493 H   0  0  0  0  0  0  0  0  0  0  0  0
  152.7284  143.6241  163.7874 H   0  0  0  0  0  0  0  0  0  0  0  0
  154.0711  142.6770  163.1175 H   0  0  0  0  0  0  0  0  0  0  0  0
  153.3738  140.7421  159.5127 H   0  0  0  0  0  0  0  0  0  0  0  0
  152.6766  140.4347  161.1022 H   0  0  0  0  0  0  0  0  0  0  0  0
  154.3012  141.1103  160.9619 H   0  0  0  0  0  0  0  0  0  0  0  0
  151.9935  143.8815  157.4839 H   0  0  0  0  0  0  0  0  0  0  0  0
  153.0541  142.5213  157.7013 H   0  0  0  0  0  0  0  0  0  0  0  0
  150.9746  142.4902  155.8644 H   0  0  0  0  0  0  0  0  0  0  0  0
  149.8022  140.0207  156.1750 H   0  0  0  0  0  0  0  0  0  0  0  0
  148.6374  141.1288  156.8786 H   0  0  0  0  0  0  0  0  0  0  0  0
  149.7506  141.8609  154.1767 H   0  0  0  0  0  0  0  0  0  0  0  0
  149.3280  139.4190  153.8641 H   0  0  0  0  0  0  0  0  0  0  0  0
  148.1583  140.3361  152.9570 H   0  0  0  0  0  0  0  0  0  0  0  0
  147.6935  139.6054  154.4889 H   0  0  0  0  0  0  0  0  0  0  0  0
  147.7349  143.3543  152.8704 H   0  0  0  0  0  0  0  0  0  0  0  0
  147.0000  141.7460  152.9284 H   0  0  0  0  0  0  0  0  0  0  0  0
  145.9133  144.3211  154.1210 H   0  0  0  0  0  0  0  0  0  0  0  0
  145.0635  143.2005  153.0540 H   0  0  0  0  0  0  0  0  0  0  0  0
  144.7587  143.0382  155.7697 H   0  0  0  0  0  0  0  0  0  0  0  0
  144.8454  141.5771  154.7909 H   0  0  0  0  0  0  0  0  0  0  0  0
  146.7012  140.9925  155.9804 H   0  0  0  0  0  0  0  0  0  0  0  0
  146.8992  142.6015  156.6709 H   0  0  0  0  0  0  0  0  0  0  0  0
  148.2007  143.2582  155.0859 H   0  0  0  0  0  0  0  0  0  0  0  0
  1  2  1  0  0  0  0
  1 21  1  0  0  0  0
  1 22  1  0  0  0  0
  1 23  1  0  0  0  0
  2  8  1  0  0  0  0
  2  3  2  0  0  0  0
  3  4  1  0  0  0  0
  4  5  1  0  0  0  0
  4  6  1  0  0  0  0
  5 24  1  0  0  0  0
  5 25  1  0  0  0  0
  5 26  1  0  0  0  0
  6  7  1  0  0  0  0
  6  8  2  0  0  0  0
  7 27  1  0  0  0  0
  7 28  1  0  0  0  0
  7 29  1  0  0  0  0
  8  9  1  0  0  0  0
  9 10  1  0  0  0  0
  9 30  1  0  0  0  0
  9 31  1  0  0  0  0
 10 11  2  0  0  0  0
 10 12  1  0  0  0  0
 12 13  1  0  0  0  0
 12 32  1  0  0  0  0
 13 14  1  0  0  0  0
 13 33  1  0  0  0  0
 13 34  1  0  0  0  0
 14 15  1  0  0  0  0
 14 16  1  0  0  0  0
 14 35  1  0  0  0  0
 15 36  1  0  0  0  0
 15 37  1  0  0  0  0
 15 38  1  0  0  0  0
 16 20  1  0  0  0  0
 16 17  1  0  0  0  0
 16 47  1  0  0  0  0
 17 18  1  0  0  0  0
 17 39  1  0  0  0  0
 17 40  1  0  0  0  0
 18 19  1  0  0  0  0
 18 41  1  0  0  0  0
 18 42  1  0  0  0  0
 19 20  1  0  0  0  0
 19 43  1  0  0  0  0
 19 44  1  0  0  0  0
 20 45  1  0  0  0  0
 20 46  1  0  0  0  0
M  CHG  1  16   1
M  END
> <s_m_source_file>
AV-unprocessed.smi

> <i_m_source_file_index>
1896

> <i_lp_mmshare_version>
43012

> <i_f3d_flags>
0

> <s_epik_input>
W0NIM11jMW5uKFtDSDNdKWMoW0NIM10pYzFbQ0gyXUMoPU8pW05IXVtDSDJdW0NASF0oW0NIM10pTjJbQ0gyXVtDSDJdW0NIMl1bQ0gyXTI=

> <s_epik_cmdline>
J2VwaWtfcHl0aG9uJywgJy1waCcsICc3LjAnLCAnLXRuJywgJzgnLCAnLW1hJywgJzIwMCcsICctbWV0YWxfYmluZGluZycsICctaW1hZScsICc8aW5maWxlLm1hZT4nLCAnLW9tYWUnLCAnPG91dGZpbGUubWFlPic=

> <r_lp_tautomer_probability>
1

> <r_epik_Ionization_Penalty>
0.00723064

> <r_epik_Ionization_Penalty_Charging>
0.0050435

> <r_epik_Ionization_Penalty_Neutral>
0.00218714

> <r_epik_State_Penalty>
-0

> <r_epik_Charging_Adjusted_Penalty>
0.0050435

> <i_epik_Tot_Q>
1

> <i_epik_Tot_abs_Q>
1

> <r_epik_Metal_State_Penalty>
-0

> <b_epik_Metal_Only>
0

> <s_lp_Force_Field>
OPLS_2005

> <r_lp_Energy>
24.4883

> <b_lp_Chiralities_Consistent>
1

> <s_lp_Variant>
AV-unprocessed.smi:1896-2

> <Gold.Version>
5.8.1

> <Gold.Id.Protein>
6NUR|6NUR_protein|mol2

> <Gold.PLP.Fitness>
52.6062

> <Gold.PLP.PLP>
-48.6942

> <Gold.PLP.part.hbond>
-1.3321

> <Gold.PLP.part.metal>
0.0000

> <Gold.PLP.part.buried>
-7.1328

> <Gold.PLP.part.nonpolar>
-40.2464

> <Gold.PLP.part.repulsive>
0.3388

> <Gold.PLP.ligand.clash>
0.0000

> <Gold.PLP.ligand.torsion>
1.0713

> <Gold.PLP.Chemscore.Hbond>
2.0000

> <Gold.PLP.Chemscore.CHOScore>
0.0000

> <Gold.PLP.Chemscore.Metal>
0.0000

> <Gold.Chemscore.Hbonds>
donor molecule, donor type, donor heavy atom, donor atom, acceptor molecule, acceptor atom, score
      L1  H    16    47       P1  8028  2.00

> <Gold.PLP.Chemscore.Internal.Correction>
0.0546

> <Gold.Rescore>
     Score         DG    S(hbond)    S(metal)    S(lipo)     H(rot)  DE(clash)    DE(int)     intcor
     15.42     -17.27       0.82        0.00     113.42       1.65       0.33       1.52       ----

> <Gold.Chemscore.Fitness>
15.4167

> <Gold.Chemscore.DG>
-17.2707

> <Gold.Chemscore.ZeroCoef>
-5.4800

> <Gold.Chemscore.Hbond>
0.8211

> <Gold.Chemscore.Metal>
0.0000

> <Gold.Chemscore.Lipo>
113.4249

> <Gold.Chemscore.Internal_Hbond>
0.0000

> <Gold.Chemscore.DEClash>
0.3341

> <Gold.Chemscore.DEInternal>
1.5198

> <Gold.Chemscore.Rot>
1.6495

> <Gold.Chemscore.Internal.Correction>
   9.000000E+99

> <Gold.Chemscore.Hbonds>
donor molecule, donor type, donor heavy atom, donor atom, acceptor molecule, acceptor atom, score
      L1  H    16    47       P1  8028  0.96

> <Gold.Chemscore.Hbond.Weighted>
-2.7426

> <Gold.Chemscore.Metal.Weighted>
-0.0000

> <Gold.Chemscore.Lipo.Weighted>
-13.2707

> <Gold.Chemscore.Internal_Hbond.Weighted>
0.0000

> <Gold.Chemscore.DEClash.Weighted>
0.3341

> <Gold.Chemscore.DEInternal.Weighted>
1.5198

> <Gold.Chemscore.Rot.Weighted>
4.2227

> <Gold.Chemscore.Internal.Correction.Weighted>
   9.000000E+99

> <Gold.Protein.RotatedTorsions>
[ 6907 6896 6895 6894 ] final -171.51 input  -60.11 | X-H torsion
[ 7974 7965 7964 7962 ] final   11.23 input  175.53 | X-H torsion
[ 8008 7997 7996 7995 ] final -178.74 input   59.86 | X-H torsion
[ 10167 10162 10161 10158 ] final  -21.94 input  -65.29 | X-H torsion
[ 10718 10713 10712 10709 ] final  105.70 input   66.30 | X-H torsion
[ 10763 10752 10751 10750 ] final  -44.19 input  -60.55 | X-H torsion
[ 11005 11000 10999 10996 ] final   97.87 input  -57.11 | X-H torsion

> <Gold.Protein.ActiveResidues>
 VAL166  LYS551  ARG553  GLY616  TRP617  ASP618  TYR619  PRO620  LYS621  CYS622 
 ASP623  PHE694  ASN695  SER759  ASP760  ASP761  ALA762  ILE779  LEU786  VAL792 
 PHE793  MET794  SER795  GLU796  ALA797  LYS798  CYS799  TRP800  GLU811  SER814 

> <Gold.Protein.RotatedAtoms>
  151.5250  133.3459  159.2907 H   0  0  0  0  0  0  0  0  0  0  0  0  # atno 6907 bound_to 6896
  150.8629  134.7988  159.7107 H   0  0  0  0  0  0  0  0  0  0  0  0  # atno 6908 bound_to 6896
  152.4643  134.5121  159.9809 H   0  0  0  0  0  0  0  0  0  0  0  0  # atno 6909 bound_to 6896
  146.2375  139.9516  142.8470 H   0  0  0  0  0  0  0  0  0  0  0  0  # atno 7974 bound_to 7965
  156.0224  140.1264  157.0344 H   0  0  0  0  0  0  0  0  0  0  0  0  # atno 8008 bound_to 7997
  154.4317  140.1066  156.6052 H   0  0  0  0  0  0  0  0  0  0  0  0  # atno 8009 bound_to 7997
  155.5926  140.3469  155.4573 H   0  0  0  0  0  0  0  0  0  0  0  0  # atno 8010 bound_to 7997
  140.7284  143.4581  151.0419 H   0  0  0  0  0  0  0  0  0  0  0  0  # atno 10167 bound_to 10162
  157.6696  131.0834  150.5896 H   0  0  0  0  0  0  0  0  0  0  0  0  # atno 10718 bound_to 10713
  154.0079  135.6685  153.4763 H   0  0  0  0  0  0  0  0  0  0  0  0  # atno 10763 bound_to 10752
  153.0633  135.5015  154.8140 H   0  0  0  0  0  0  0  0  0  0  0  0  # atno 10764 bound_to 10752
  154.7013  135.3079  154.9300 H   0  0  0  0  0  0  0  0  0  0  0  0  # atno 10765 bound_to 10752
  139.8774  134.9022  156.4372 H   0  0  0  0  0  0  0  0  0  0  0  0  # atno 11005 bound_to 11000
  145.1856  140.9787  143.4241 LP  0  0  0  0  0  0  0  0  0  0  0  0  # atno 17320 bound_to 7965
  144.9903  139.3696  143.6218 LP  0  0  0  0  0  0  0  0  0  0  0  0  # atno 17321 bound_to 7965
  139.8263  143.7751  152.3178 LP  0  0  0  0  0  0  0  0  0  0  0  0  # atno 17342 bound_to 10162
  139.7851  144.7430  151.0033 LP  0  0  0  0  0  0  0  0  0  0  0  0  # atno 17343 bound_to 10162
  156.6197  130.4402  149.5827 LP  0  0  0  0  0  0  0  0  0  0  0  0  # atno 17370 bound_to 10713
  156.2366  130.6826  151.1515 LP  0  0  0  0  0  0  0  0  0  0  0  0  # atno 17371 bound_to 10713
  140.9025  133.7769  155.9697 LP  0  0  0  0  0  0  0  0  0  0  0  0  # atno 17394 bound_to 11000
  140.8635  134.2812  157.5223 LP  0  0  0  0  0  0  0  0  0  0  0  0  # atno 17395 bound_to 11000

$$$$
