AV-unprocessed.smi:3176|AV-procd|sdf|12124|dock9
  -GOLD-   2272017563D 1   1.00000     0.00000
 Structure written by MMmdl.
 32 33  0  0  0  0  0  0  0  0  1 V2000
  154.3229  140.1080  163.0501 O   0  0  0  0  0  0  0  0  0  0  0  0
  154.6121  139.3720  162.1059 C   0  0  0  0  0  0  0  0  0  0  0  0
  154.7183  139.8059  160.8405 N   0  0  0  0  0  0  0  0  0  0  0  0
  154.4961  141.1803  160.4060 C   0  0  0  0  0  0  0  0  0  0  0  0
  153.0726  141.6572  160.7409 C   0  0  0  0  0  0  0  0  0  0  0  0
  152.7141  142.9448  160.0239 C   0  0  0  0  0  0  0  0  0  0  0  0
  153.5531  143.4630  159.0143 C   0  0  0  0  0  0  0  0  0  0  0  0
  153.1730  144.6581  158.3736 C   0  0  0  0  0  0  0  0  0  0  0  0
  151.9741  145.2849  158.7643 C   0  0  0  0  0  0  0  0  0  0  0  0
  151.2052  144.6860  159.7822 C   0  0  0  0  0  0  0  0  0  0  0  0
  151.5602  143.5400  160.4025 N   0  0  0  0  0  0  0  0  0  0  0  0
  154.8794  137.8813  162.3411 C   0  0  2  0  0  0  0  0  0  0  0  0
  154.0665  136.9536  161.4190 C   0  0  0  0  0  0  0  0  0  0  0  0
  153.0628  136.3067  162.3530 C   0  0  0  0  0  0  0  0  0  0  0  0
  153.8244  136.2994  163.6703 C   0  0  0  0  0  0  0  0  0  0  0  0
  154.4745  137.5608  163.6710 O   0  0  0  0  0  0  0  0  0  0  0  0
  154.9689  139.1356  160.1282 H   0  0  0  0  0  0  0  0  0  0  0  0
  155.2368  141.8394  160.8621 H   0  0  0  0  0  0  0  0  0  0  0  0
  154.6614  141.2256  159.3291 H   0  0  0  0  0  0  0  0  0  0  0  0
  152.3477  140.8875  160.4716 H   0  0  0  0  0  0  0  0  0  0  0  0
  152.9681  141.8112  161.8158 H   0  0  0  0  0  0  0  0  0  0  0  0
  154.4657  142.9568  158.7348 H   0  0  0  0  0  0  0  0  0  0  0  0
  153.7896  145.0851  157.5965 H   0  0  0  0  0  0  0  0  0  0  0  0
  151.6513  146.2024  158.2949 H   0  0  0  0  0  0  0  0  0  0  0  0
  150.2800  145.1394  160.1064 H   0  0  0  0  0  0  0  0  0  0  0  0
  155.9439  137.6664  162.2320 H   0  0  0  0  0  0  0  0  0  0  0  0
  153.5800  137.4656  160.5873 H   0  0  0  0  0  0  0  0  0  0  0  0
  154.7226  136.1937  160.9929 H   0  0  0  0  0  0  0  0  0  0  0  0
  152.1731  136.9321  162.4393 H   0  0  0  0  0  0  0  0  0  0  0  0
  152.7550  135.3118  162.0300 H   0  0  0  0  0  0  0  0  0  0  0  0
  153.1719  136.1817  164.5356 H   0  0  0  0  0  0  0  0  0  0  0  0
  154.5699  135.5027  163.6862 H   0  0  0  0  0  0  0  0  0  0  0  0
  1  2  2  0  0  0  0
  2  3  1  0  0  0  0
  2 12  1  0  0  0  0
  3  4  1  0  0  0  0
  3 17  1  0  0  0  0
  4  5  1  0  0  0  0
  4 18  1  0  0  0  0
  4 19  1  0  0  0  0
  5  6  1  0  0  0  0
  5 20  1  0  0  0  0
  5 21  1  0  0  0  0
  6 11  1  0  0  0  0
  6  7  2  0  0  0  0
  7  8  1  0  0  0  0
  7 22  1  0  0  0  0
  8  9  2  0  0  0  0
  8 23  1  0  0  0  0
  9 10  1  0  0  0  0
  9 24  1  0  0  0  0
 10 11  2  0  0  0  0
 10 25  1  0  0  0  0
 12 16  1  0  0  0  0
 12 13  1  0  0  0  0
 12 26  1  0  0  0  0
 13 14  1  0  0  0  0
 13 27  1  0  0  0  0
 13 28  1  0  0  0  0
 14 15  1  0  0  0  0
 14 29  1  0  0  0  0
 14 30  1  0  0  0  0
 15 16  1  0  0  0  0
 15 31  1  0  0  0  0
 15 32  1  0  0  0  0
M  END
> <s_m_source_file>
AV-unprocessed.smi

> <i_m_source_file_index>
3176

> <i_lp_mmshare_version>
43012

> <i_f3d_flags>
0

> <s_epik_input>
TzFbQ0gyXVtDSDJdW0NIMl1bQ0BIXTFDKD1PKVtOSF1bQ0gyXVtDSDJdYzJbY0hdW2NIXVtjSF1bY0hdbjI=

> <s_epik_cmdline>
J2VwaWtfcHl0aG9uJywgJy1waCcsICc3LjAnLCAnLXRuJywgJzgnLCAnLW1hJywgJzIwMCcsICctbWV0YWxfYmluZGluZycsICctaW1hZScsICc8aW5maWxlLm1hZT4nLCAnLW9tYWUnLCAnPG91dGZpbGUubWFlPic=

> <r_epik_Ionization_Penalty>
0.0282744

> <r_epik_Ionization_Penalty_Charging>
0

> <r_epik_Ionization_Penalty_Neutral>
0.0282744

> <r_epik_State_Penalty>
0.0231919

> <r_epik_Charging_Adjusted_Penalty>
0.0231919

> <i_epik_Tot_Q>
0

> <i_epik_Tot_abs_Q>
0

> <r_epik_Metal_State_Penalty>
0.02213

> <b_epik_Metal_Only>
0

> <s_lp_Force_Field>
OPLS_2005

> <r_lp_Energy>
16.3652

> <b_lp_Chiralities_Consistent>
1

> <s_lp_Variant>
AV-unprocessed.smi:3176-1

> <Gold.Version>
5.8.1

> <Gold.Id.Protein>
6NUR|6NUR_protein|mol2

> <Gold.PLP.Fitness>
43.1043

> <Gold.PLP.PLP>
-43.6983

> <Gold.PLP.part.hbond>
-1.0000

> <Gold.PLP.part.metal>
0.0000

> <Gold.PLP.part.buried>
-5.6971

> <Gold.PLP.part.nonpolar>
-37.7319

> <Gold.PLP.part.repulsive>
0.1666

> <Gold.PLP.ligand.clash>
0.0000

> <Gold.PLP.ligand.torsion>
0.3048

> <Gold.PLP.Chemscore.Hbond>
0.0000

> <Gold.PLP.Chemscore.CHOScore>
0.0000

> <Gold.PLP.Chemscore.Metal>
0.0000

> <Gold.PLP.Chemscore.Internal.Correction>
0.0156

> <Gold.Rescore>
     Score         DG    S(hbond)    S(metal)    S(lipo)     H(rot)  DE(clash)    DE(int)     intcor
     14.66     -14.86       0.00        0.00     113.33       1.52       0.03       0.16       ----

> <Gold.Chemscore.Fitness>
14.6641

> <Gold.Chemscore.DG>
-14.8592

> <Gold.Chemscore.ZeroCoef>
-5.4800

> <Gold.Chemscore.Hbond>
0.0000

> <Gold.Chemscore.Metal>
0.0000

> <Gold.Chemscore.Lipo>
113.3322

> <Gold.Chemscore.Internal_Hbond>
0.0000

> <Gold.Chemscore.DEClash>
0.0326

> <Gold.Chemscore.DEInternal>
0.1625

> <Gold.Chemscore.Rot>
1.5159

> <Gold.Chemscore.Internal.Correction>
   9.000000E+99

> <Gold.Chemscore.Hbond.Weighted>
-0.0000

> <Gold.Chemscore.Metal.Weighted>
-0.0000

> <Gold.Chemscore.Lipo.Weighted>
-13.2599

> <Gold.Chemscore.Internal_Hbond.Weighted>
0.0000

> <Gold.Chemscore.DEClash.Weighted>
0.0326

> <Gold.Chemscore.DEInternal.Weighted>
0.1625

> <Gold.Chemscore.Rot.Weighted>
3.8807

> <Gold.Chemscore.Internal.Correction.Weighted>
   9.000000E+99

> <Gold.Protein.RotatedTorsions>
[ 6907 6896 6895 6894 ] final  122.62 input  -60.11 | X-H torsion
[ 7974 7965 7964 7962 ] final  108.21 input  175.53 | X-H torsion
[ 8008 7997 7996 7995 ] final  119.03 input   59.86 | X-H torsion
[ 10167 10162 10161 10158 ] final   68.91 input  -65.29 | X-H torsion
[ 10718 10713 10712 10709 ] final  155.52 input   66.30 | X-H torsion
[ 10763 10752 10751 10750 ] final    7.22 input  -60.55 | X-H torsion
[ 11005 11000 10999 10996 ] final -119.94 input  -57.11 | X-H torsion

> <Gold.Protein.ActiveResidues>
 VAL166  LYS551  ARG553  GLY616  TRP617  ASP618  TYR619  PRO620  LYS621  CYS622 
 ASP623  PHE694  ASN695  SER759  ASP760  ASP761  ALA762  ILE779  LEU786  VAL792 
 PHE793  MET794  SER795  GLU796  ALA797  LYS798  CYS799  TRP800  GLU811  SER814 

> <Gold.Protein.RotatedAtoms>
  152.4228  133.7145  159.6497 H   0  0  0  0  0  0  0  0  0  0  0  0  # atno 6907 bound_to 6896
  150.8104  133.8421  159.3191 H   0  0  0  0  0  0  0  0  0  0  0  0  # atno 6908 bound_to 6896
  151.6133  135.1040  160.0137 H   0  0  0  0  0  0  0  0  0  0  0  0  # atno 6909 bound_to 6896
  145.2836  139.2624  143.3902 H   0  0  0  0  0  0  0  0  0  0  0  0  # atno 7974 bound_to 7965
  156.2576  140.2862  156.0928 H   0  0  0  0  0  0  0  0  0  0  0  0  # atno 8008 bound_to 7997
  155.1445  140.0396  157.2824 H   0  0  0  0  0  0  0  0  0  0  0  0  # atno 8009 bound_to 7997
  154.6506  140.2543  155.7225 H   0  0  0  0  0  0  0  0  0  0  0  0  # atno 8010 bound_to 7997
  140.0735  144.5132  150.7210 H   0  0  0  0  0  0  0  0  0  0  0  0  # atno 10167 bound_to 10162
  157.2172  131.0710  151.1934 H   0  0  0  0  0  0  0  0  0  0  0  0  # atno 10718 bound_to 10713
  153.2387  135.6901  153.7807 H   0  0  0  0  0  0  0  0  0  0  0  0  # atno 10763 bound_to 10752
  153.6944  135.3307  155.3211 H   0  0  0  0  0  0  0  0  0  0  0  0  # atno 10764 bound_to 10752
  154.8346  135.4553  154.1301 H   0  0  0  0  0  0  0  0  0  0  0  0  # atno 10765 bound_to 10752
  141.0179  134.0167  157.3323 H   0  0  0  0  0  0  0  0  0  0  0  0  # atno 11005 bound_to 11000
  146.3208  140.3309  142.8640 LP  0  0  0  0  0  0  0  0  0  0  0  0  # atno 17320 bound_to 7965
  144.9232  140.7892  143.5735 LP  0  0  0  0  0  0  0  0  0  0  0  0  # atno 17321 bound_to 7965
  140.7113  143.2508  151.4571 LP  0  0  0  0  0  0  0  0  0  0  0  0  # atno 17342 bound_to 10162
  139.5821  144.1685  152.1982 LP  0  0  0  0  0  0  0  0  0  0  0  0  # atno 17343 bound_to 10162
  157.3612  130.7132  149.6503 LP  0  0  0  0  0  0  0  0  0  0  0  0  # atno 17370 bound_to 10713
  155.9685  130.4225  150.4518 LP  0  0  0  0  0  0  0  0  0  0  0  0  # atno 17371 bound_to 10713
  139.9128  135.0193  156.7762 LP  0  0  0  0  0  0  0  0  0  0  0  0  # atno 17394 bound_to 11000
  140.6622  133.9634  155.7811 LP  0  0  0  0  0  0  0  0  0  0  0  0  # atno 17395 bound_to 11000

$$$$
