AV-unprocessed.smi:511|AV-procd|sdf|2764|dock2
  -GOLD-   2262023233D 1   1.00000     0.00000
 Structure written by MMmdl.
 46 48  0  0  0  0  0  0  0  0  2 V2000
  150.5198  135.3885  154.3448 C   0  0  0  0  0  0  0  0  0  0  0  0
  151.1501  136.6539  154.2519 O   0  0  0  0  0  0  0  0  0  0  0  0
  150.6484  137.5804  155.1995 C   0  0  0  0  0  0  0  0  0  0  0  0
  150.3704  138.9108  154.4897 C   0  0  0  0  0  0  0  0  0  0  0  0
  150.1347  139.9879  155.4472 N   0  0  0  0  0  0  0  0  0  0  0  0
  149.0681  140.8273  155.5430 C   0  0  0  0  0  0  0  0  0  0  0  0
  147.9598  140.7145  154.7039 N   0  0  0  0  0  0  0  0  0  0  0  0
  147.3220  139.4551  154.3245 C   0  0  0  0  0  0  0  0  0  0  0  0
  146.0153  139.2278  155.1078 C   0  0  0  0  0  0  0  0  0  0  0  0
  145.0816  140.3654  154.9308 N   0  3  0  0  0  0  0  0  0  0  0  0
  143.8113  140.1801  155.6637 C   0  0  0  0  0  0  0  0  0  0  0  0
  145.7311  141.6630  155.2333 C   0  0  0  0  0  0  0  0  0  0  0  0
  147.0372  141.8133  154.4346 C   0  0  0  0  0  0  0  0  0  0  0  0
  149.1826  141.7722  156.4806 N   0  0  0  0  0  0  0  0  0  0  0  0
  150.4156  141.4950  157.0507 C   0  0  0  0  0  0  0  0  0  0  0  0
  151.0023  140.4325  156.4453 C   0  0  0  0  0  0  0  0  0  0  0  0
  152.3292  139.9391  156.8349 C   0  0  0  0  0  0  0  0  0  0  0  0
  152.8855  138.9888  156.2893 O   0  0  0  0  0  0  0  0  0  0  0  0
  152.8769  140.6415  157.8566 N   0  0  0  0  0  0  0  0  0  0  0  0
  152.3376  141.7137  158.5141 C   0  0  0  0  0  0  0  0  0  0  0  0
  152.9630  142.2431  159.4321 O   0  0  0  0  0  0  0  0  0  0  0  0
  151.1014  142.1532  158.1086 N   0  0  0  0  0  0  0  0  0  0  0  0
  150.4384  143.2940  158.7435 C   0  0  0  0  0  0  0  0  0  0  0  0
  153.7889  140.3400  158.1679 H   0  0  0  0  0  0  0  0  0  0  0  0
  150.9413  134.7136  153.5998 H   0  0  0  0  0  0  0  0  0  0  0  0
  149.4478  135.4669  154.1593 H   0  0  0  0  0  0  0  0  0  0  0  0
  150.6739  134.9424  155.3281 H   0  0  0  0  0  0  0  0  0  0  0  0
  149.7345  137.1940  155.6533 H   0  0  0  0  0  0  0  0  0  0  0  0
  151.3767  137.7279  155.9985 H   0  0  0  0  0  0  0  0  0  0  0  0
  151.2098  139.1538  153.8437 H   0  0  0  0  0  0  0  0  0  0  0  0
  149.5079  138.8239  153.8295 H   0  0  0  0  0  0  0  0  0  0  0  0
  147.1311  139.4551  153.2507 H   0  0  0  0  0  0  0  0  0  0  0  0
  147.9938  138.6210  154.5261 H   0  0  0  0  0  0  0  0  0  0  0  0
  145.5384  138.3062  154.7724 H   0  0  0  0  0  0  0  0  0  0  0  0
  146.2391  139.1041  156.1689 H   0  0  0  0  0  0  0  0  0  0  0  0
  143.9811  140.1434  156.7406 H   0  0  0  0  0  0  0  0  0  0  0  0
  143.3248  139.2519  155.3620 H   0  0  0  0  0  0  0  0  0  0  0  0
  143.1236  140.9999  155.4534 H   0  0  0  0  0  0  0  0  0  0  0  0
  145.0513  142.4799  154.9885 H   0  0  0  0  0  0  0  0  0  0  0  0
  145.9386  141.7290  156.3028 H   0  0  0  0  0  0  0  0  0  0  0  0
  147.5176  142.7606  154.6831 H   0  0  0  0  0  0  0  0  0  0  0  0
  146.8253  141.8477  153.3650 H   0  0  0  0  0  0  0  0  0  0  0  0
  151.0555  143.8143  159.4766 H   0  0  0  0  0  0  0  0  0  0  0  0
  149.5333  142.9606  159.2517 H   0  0  0  0  0  0  0  0  0  0  0  0
  150.1494  144.0263  157.9888 H   0  0  0  0  0  0  0  0  0  0  0  0
  144.8478  140.3890  153.9484 H   0  0  0  0  0  0  0  0  0  0  0  0
  1  2  1  0  0  0  0
  1 25  1  0  0  0  0
  1 26  1  0  0  0  0
  1 27  1  0  0  0  0
  2  3  1  0  0  0  0
  3  4  1  0  0  0  0
  3 28  1  0  0  0  0
  3 29  1  0  0  0  0
  4  5  1  0  0  0  0
  4 30  1  0  0  0  0
  4 31  1  0  0  0  0
  5 16  1  0  0  0  0
  5  6  1  0  0  0  0
  6  7  1  0  0  0  0
  6 14  2  0  0  0  0
  7 13  1  0  0  0  0
  7  8  1  0  0  0  0
  8  9  1  0  0  0  0
  8 32  1  0  0  0  0
  8 33  1  0  0  0  0
  9 10  1  0  0  0  0
  9 34  1  0  0  0  0
  9 35  1  0  0  0  0
 10 11  1  0  0  0  0
 10 12  1  0  0  0  0
 10 46  1  0  0  0  0
 11 36  1  0  0  0  0
 11 37  1  0  0  0  0
 11 38  1  0  0  0  0
 12 13  1  0  0  0  0
 12 39  1  0  0  0  0
 12 40  1  0  0  0  0
 13 41  1  0  0  0  0
 13 42  1  0  0  0  0
 14 15  1  0  0  0  0
 15 22  1  0  0  0  0
 15 16  2  0  0  0  0
 16 17  1  0  0  0  0
 17 18  2  0  0  0  0
 17 19  1  0  0  0  0
 19 24  1  0  0  0  0
 19 20  1  0  0  0  0
 20 21  2  0  0  0  0
 20 22  1  0  0  0  0
 22 23  1  0  0  0  0
 23 43  1  0  0  0  0
 23 44  1  0  0  0  0
 23 45  1  0  0  0  0
M  CHG  1  10   1
M  END
> <s_m_source_file>
AV-unprocessed.smi

> <i_m_source_file_index>
511

> <i_lp_mmshare_version>
43012

> <i_f3d_flags>
0

> <s_epik_input>
W0NIM11uMWMoPU8pW25IXWMoPU8pYyhjMTIpbihbQ0gyXVtDSDJdT1tDSDNdKWMobjIpTjNbQ0gyXVtDSDJdTihbQ0gzXSlbQ0gyXVtDSDJdMw==

> <s_epik_cmdline>
J2VwaWtfcHl0aG9uJywgJy1waCcsICc3LjAnLCAnLXRuJywgJzgnLCAnLW1hJywgJzIwMCcsICctbWV0YWxfYmluZGluZycsICctaW1hZScsICc8aW5maWxlLm1hZT4nLCAnLW9tYWUnLCAnPG91dGZpbGUubWFlPic=

> <r_epik_Ionization_Penalty>
0.064781

> <r_epik_Ionization_Penalty_Charging>
0.0647789

> <r_epik_Ionization_Penalty_Neutral>
2.1607e-06

> <r_epik_State_Penalty>
0.0564218

> <r_epik_Charging_Adjusted_Penalty>
0.121201

> <i_epik_Tot_Q>
1

> <i_epik_Tot_abs_Q>
1

> <r_epik_Metal_State_Penalty>
0.0833038

> <b_epik_Metal_Only>
0

> <s_lp_Force_Field>
OPLS_2005

> <r_lp_Energy>
49.4722

> <b_lp_Chiralities_Consistent>
1

> <s_lp_Variant>
AV-unprocessed.smi:511-1

> <Gold.Version>
5.8.1

> <Gold.Id.Protein>
6NUR|6NUR_protein|mol2

> <Gold.PLP.Fitness>
35.3107

> <Gold.PLP.PLP>
-27.4884

> <Gold.PLP.part.hbond>
-2.8429

> <Gold.PLP.part.metal>
0.0000

> <Gold.PLP.part.buried>
-4.1578

> <Gold.PLP.part.nonpolar>
-22.8451

> <Gold.PLP.part.repulsive>
1.6626

> <Gold.PLP.ligand.clash>
0.0000

> <Gold.PLP.ligand.torsion>
0.8189

> <Gold.PLP.Chemscore.Hbond>
2.9595

> <Gold.PLP.Chemscore.CHOScore>
0.0000

> <Gold.PLP.Chemscore.Metal>
0.0000

> <Gold.Chemscore.Hbonds>
donor molecule, donor type, donor heavy atom, donor atom, acceptor molecule, acceptor atom, score
      L1  H    10    46       P1 10175  2.00
      P1  H  7997  8009       L1    18  0.25
      P1  H 10752 10765       L1     2  0.27

> <Gold.PLP.Chemscore.Internal.Correction>
0.5816

> <Gold.Rescore>
     Score         DG    S(hbond)    S(metal)    S(lipo)     H(rot)  DE(clash)    DE(int)     intcor
      9.55     -11.93       1.58        0.00      42.97       1.51       0.18       2.20       ----

> <Gold.Chemscore.Fitness>
9.5543

> <Gold.Chemscore.DG>
-11.9335

> <Gold.Chemscore.ZeroCoef>
-5.4800

> <Gold.Chemscore.Hbond>
1.5832

> <Gold.Chemscore.Metal>
0.0000

> <Gold.Chemscore.Lipo>
42.9718

> <Gold.Chemscore.Internal_Hbond>
0.0000

> <Gold.Chemscore.DEClash>
0.1794

> <Gold.Chemscore.DEInternal>
2.1998

> <Gold.Chemscore.Rot>
1.5086

> <Gold.Chemscore.Internal.Correction>
   9.000000E+99

> <Gold.Chemscore.Hbonds>
donor molecule, donor type, donor heavy atom, donor atom, acceptor molecule, acceptor atom, score
      L1  H    10    46       P1 10175  0.98

> <Gold.Chemscore.Hbond.Weighted>
-5.2879

> <Gold.Chemscore.Metal.Weighted>
-0.0000

> <Gold.Chemscore.Lipo.Weighted>
-5.0277

> <Gold.Chemscore.Internal_Hbond.Weighted>
0.0000

> <Gold.Chemscore.DEClash.Weighted>
0.1794

> <Gold.Chemscore.DEInternal.Weighted>
2.1998

> <Gold.Chemscore.Rot.Weighted>
3.8620

> <Gold.Chemscore.Internal.Correction.Weighted>
   9.000000E+99

> <Gold.Protein.RotatedTorsions>
[ 6907 6896 6895 6894 ] final  -51.42 input  -60.11 | X-H torsion
[ 7974 7965 7964 7962 ] final  124.14 input  175.53 | X-H torsion
[ 8008 7997 7996 7995 ] final -151.07 input   59.86 | X-H torsion
[ 10167 10162 10161 10158 ] final   83.81 input  -65.29 | X-H torsion
[ 10718 10713 10712 10709 ] final  111.92 input   66.30 | X-H torsion
[ 10763 10752 10751 10750 ] final  174.07 input  -60.55 | X-H torsion
[ 11005 11000 10999 10996 ] final  -18.86 input  -57.11 | X-H torsion

> <Gold.Protein.ActiveResidues>
 VAL166  LYS551  ARG553  GLY616  TRP617  ASP618  TYR619  PRO620  LYS621  CYS622 
 ASP623  PHE694  ASN695  SER759  ASP760  ASP761  ALA762  ILE779  LEU786  VAL792 
 PHE793  MET794  SER795  GLU796  ALA797  LYS798  CYS799  TRP800  GLU811  SER814 

> <Gold.Protein.RotatedAtoms>
  150.8613  134.7965  159.7084 H   0  0  0  0  0  0  0  0  0  0  0  0  # atno 6907 bound_to 6896
  152.4649  134.5096  159.9759 H   0  0  0  0  0  0  0  0  0  0  0  0  # atno 6908 bound_to 6896
  151.5199  133.3430  159.2935 H   0  0  0  0  0  0  0  0  0  0  0  0  # atno 6909 bound_to 6896
  145.0878  139.3609  143.4876 H   0  0  0  0  0  0  0  0  0  0  0  0  # atno 7974 bound_to 7965
  155.6336  140.0694  157.2641 H   0  0  0  0  0  0  0  0  0  0  0  0  # atno 8008 bound_to 7997
  154.4200  140.1763  156.1548 H   0  0  0  0  0  0  0  0  0  0  0  0  # atno 8009 bound_to 7997
  155.9912  140.3345  155.6758 H   0  0  0  0  0  0  0  0  0  0  0  0  # atno 8010 bound_to 7997
  139.9145  144.6251  150.8503 H   0  0  0  0  0  0  0  0  0  0  0  0  # atno 10167 bound_to 10162
  157.6419  131.0959  150.6820 H   0  0  0  0  0  0  0  0  0  0  0  0  # atno 10718 bound_to 10713
  154.4489  135.2764  155.1795 H   0  0  0  0  0  0  0  0  0  0  0  0  # atno 10763 bound_to 10752
  154.3630  135.6125  153.5704 H   0  0  0  0  0  0  0  0  0  0  0  0  # atno 10764 bound_to 10752
  152.9845  135.5839  154.4830 H   0  0  0  0  0  0  0  0  0  0  0  0  # atno 10765 bound_to 10752
  140.8309  133.7997  155.9758 H   0  0  0  0  0  0  0  0  0  0  0  0  # atno 11005 bound_to 11000
  146.3531  140.0698  142.8624 LP  0  0  0  0  0  0  0  0  0  0  0  0  # atno 17320 bound_to 7965
  145.1101  140.9400  143.4661 LP  0  0  0  0  0  0  0  0  0  0  0  0  # atno 17321 bound_to 7965
  140.7677  143.3341  151.2346 LP  0  0  0  0  0  0  0  0  0  0  0  0  # atno 17342 bound_to 10162
  139.6914  143.9686  152.2861 LP  0  0  0  0  0  0  0  0  0  0  0  0  # atno 17343 bound_to 10162
  156.7142  130.4661  149.5539 LP  0  0  0  0  0  0  0  0  0  0  0  0  # atno 17370 bound_to 10713
  156.1709  130.6436  151.0836 LP  0  0  0  0  0  0  0  0  0  0  0  0  # atno 17371 bound_to 10713
  140.8999  134.2392  157.5048 LP  0  0  0  0  0  0  0  0  0  0  0  0  # atno 17394 bound_to 11000
  139.8705  134.9701  156.4690 LP  0  0  0  0  0  0  0  0  0  0  0  0  # atno 17395 bound_to 11000

$$$$
