AV-unprocessed.smi:2442|AV-procd|sdf|9626|dock5
  -GOLD-   2272013253D 1   1.00000     0.00000
 Structure written by MMmdl.
 46 47  0  0  0  0  0  0  0  0  1 V2000
  152.3168  139.5845  155.4106 C   0  0  0  0  0  0  0  0  0  0  0  0
  151.2060  139.6600  154.5315 O   0  0  0  0  0  0  0  0  0  0  0  0
  149.9772  140.0009  155.1635 C   0  0  1  0  0  0  0  0  0  0  0  0
  149.9733  141.5027  155.5215 C   0  0  0  0  0  0  0  0  0  0  0  0
  148.6106  141.9547  156.0670 C   0  0  0  0  0  0  0  0  0  0  0  0
  147.4868  141.6351  155.0720 C   0  0  0  0  0  0  0  0  0  0  0  0
  147.4682  140.1387  154.7293 C   0  0  0  0  0  0  0  0  0  0  0  0
  148.8287  139.6606  154.1858 C   0  0  2  0  0  0  0  0  0  0  0  0
  148.7626  138.2174  153.9665 N   0  0  0  0  0  0  0  0  0  0  0  0
  148.7317  137.2852  154.9285 C   0  0  0  0  0  0  0  0  0  0  0  0
  148.7379  137.5331  156.1345 O   0  0  0  0  0  0  0  0  0  0  0  0
  148.7134  136.0464  154.4155 N   0  0  0  0  0  0  0  0  0  0  0  0
  148.7438  134.8102  155.1935 C   0  0  0  0  0  0  0  0  0  0  0  0
  150.0923  134.0690  155.0767 C   0  0  0  0  0  0  0  0  0  0  0  0
  149.9695  132.5850  154.7494 C   0  0  0  0  0  0  0  0  0  0  0  0
  150.6764  131.6436  155.5284 C   0  0  0  0  0  0  0  0  0  0  0  0
  150.5356  130.2742  155.2333 C   0  0  0  0  0  0  0  0  0  0  0  0
  149.7591  129.8084  154.2339 N   0  0  0  0  0  0  0  0  0  0  0  0
  149.0876  130.7096  153.4868 C   0  0  0  0  0  0  0  0  0  0  0  0
  149.1549  132.1047  153.6936 C   0  0  0  0  0  0  0  0  0  0  0  0
  148.3561  133.0350  152.7987 C   0  0  0  0  0  0  0  0  0  0  0  0
  153.2022  139.2880  154.8483 H   0  0  0  0  0  0  0  0  0  0  0  0
  152.1526  138.8396  156.1901 H   0  0  0  0  0  0  0  0  0  0  0  0
  152.5296  140.5443  155.8810 H   0  0  0  0  0  0  0  0  0  0  0  0
  149.8442  139.4102  156.0722 H   0  0  0  0  0  0  0  0  0  0  0  0
  150.7434  141.7233  156.2601 H   0  0  0  0  0  0  0  0  0  0  0  0
  150.2199  142.0884  154.6349 H   0  0  0  0  0  0  0  0  0  0  0  0
  148.4122  141.4567  157.0170 H   0  0  0  0  0  0  0  0  0  0  0  0
  148.6299  143.0246  156.2751 H   0  0  0  0  0  0  0  0  0  0  0  0
  146.5240  141.9334  155.4880 H   0  0  0  0  0  0  0  0  0  0  0  0
  147.6254  142.2187  154.1608 H   0  0  0  0  0  0  0  0  0  0  0  0
  147.2061  139.5705  155.6233 H   0  0  0  0  0  0  0  0  0  0  0  0
  146.6844  139.9408  153.9968 H   0  0  0  0  0  0  0  0  0  0  0  0
  149.0080  140.1761  153.2399 H   0  0  0  0  0  0  0  0  0  0  0  0
  148.7525  137.9068  153.0064 H   0  0  0  0  0  0  0  0  0  0  0  0
  148.7060  135.9502  153.4107 H   0  0  0  0  0  0  0  0  0  0  0  0
  148.5114  135.0155  156.2387 H   0  0  0  0  0  0  0  0  0  0  0  0
  147.9436  134.1636  154.8337 H   0  0  0  0  0  0  0  0  0  0  0  0
  150.7196  134.5581  154.3316 H   0  0  0  0  0  0  0  0  0  0  0  0
  150.6339  134.1697  156.0181 H   0  0  0  0  0  0  0  0  0  0  0  0
  151.3061  131.9608  156.3466 H   0  0  0  0  0  0  0  0  0  0  0  0
  151.0594  129.5328  155.8181 H   0  0  0  0  0  0  0  0  0  0  0  0
  148.4754  130.3000  152.6969 H   0  0  0  0  0  0  0  0  0  0  0  0
  147.8726  132.4831  151.9923 H   0  0  0  0  0  0  0  0  0  0  0  0
  149.0016  133.7859  152.3439 H   0  0  0  0  0  0  0  0  0  0  0  0
  147.5765  133.5397  153.3681 H   0  0  0  0  0  0  0  0  0  0  0  0
  1  2  1  0  0  0  0
  1 22  1  0  0  0  0
  1 23  1  0  0  0  0
  1 24  1  0  0  0  0
  2  3  1  0  0  0  0
  3  8  1  0  0  0  0
  3  4  1  0  0  0  0
  3 25  1  0  0  0  0
  4  5  1  0  0  0  0
  4 26  1  0  0  0  0
  4 27  1  0  0  0  0
  5  6  1  0  0  0  0
  5 28  1  0  0  0  0
  5 29  1  0  0  0  0
  6  7  1  0  0  0  0
  6 30  1  0  0  0  0
  6 31  1  0  0  0  0
  7  8  1  0  0  0  0
  7 32  1  0  0  0  0
  7 33  1  0  0  0  0
  8  9  1  0  0  0  0
  8 34  1  0  0  0  0
  9 10  1  0  0  0  0
  9 35  1  0  0  0  0
 10 11  2  0  0  0  0
 10 12  1  0  0  0  0
 12 13  1  0  0  0  0
 12 36  1  0  0  0  0
 13 14  1  0  0  0  0
 13 37  1  0  0  0  0
 13 38  1  0  0  0  0
 14 15  1  0  0  0  0
 14 39  1  0  0  0  0
 14 40  1  0  0  0  0
 15 20  1  0  0  0  0
 15 16  2  0  0  0  0
 16 17  1  0  0  0  0
 16 41  1  0  0  0  0
 17 18  2  0  0  0  0
 17 42  1  0  0  0  0
 18 19  1  0  0  0  0
 19 20  2  0  0  0  0
 19 43  1  0  0  0  0
 20 21  1  0  0  0  0
 21 44  1  0  0  0  0
 21 45  1  0  0  0  0
 21 46  1  0  0  0  0
M  END
> <s_m_source_file>
AV-unprocessed.smi

> <i_m_source_file_index>
2442

> <i_lp_mmshare_version>
43012

> <i_f3d_flags>
0

> <s_epik_input>
W0NIM11PW0NAQEhdMVtDSDJdW0NIMl1bQ0gyXVtDSDJdW0NASF0xW05IXUMoPU8pW05IXVtDSDJdW0NIMl1jMltjSF1bY0hdbltjSF1jMltDSDNd

> <s_epik_cmdline>
J2VwaWtfcHl0aG9uJywgJy1waCcsICc3LjAnLCAnLXRuJywgJzgnLCAnLW1hJywgJzIwMCcsICctbWV0YWxfYmluZGluZycsICctaW1hZScsICc8aW5maWxlLm1hZT4nLCAnLW9tYWUnLCAnPG91dGZpbGUubWFlPic=

> <r_epik_Ionization_Penalty>
0.106136

> <r_epik_Ionization_Penalty_Charging>
0

> <r_epik_Ionization_Penalty_Neutral>
0.106136

> <r_epik_State_Penalty>
0.0959393

> <r_epik_Charging_Adjusted_Penalty>
0.0959393

> <i_epik_Tot_Q>
0

> <i_epik_Tot_abs_Q>
0

> <r_epik_Metal_State_Penalty>
0.0812517

> <b_epik_Metal_Only>
0

> <s_lp_Force_Field>
OPLS_2005

> <r_lp_Energy>
10.54

> <b_lp_Chiralities_Consistent>
1

> <s_lp_Variant>
AV-unprocessed.smi:2442-4

> <Gold.Version>
5.8.1

> <Gold.Id.Protein>
6NUR|6NUR_protein|mol2

> <Gold.PLP.Fitness>
41.9089

> <Gold.PLP.PLP>
-32.3966

> <Gold.PLP.part.hbond>
-3.0000

> <Gold.PLP.part.metal>
0.0000

> <Gold.PLP.part.buried>
-0.5527

> <Gold.PLP.part.nonpolar>
-30.1399

> <Gold.PLP.part.repulsive>
0.2049

> <Gold.PLP.ligand.clash>
0.0000

> <Gold.PLP.ligand.torsion>
0.7252

> <Gold.PLP.Chemscore.Hbond>
2.8640

> <Gold.PLP.Chemscore.CHOScore>
0.7839

> <Gold.PLP.Chemscore.Metal>
0.0000

> <Gold.Chemscore.Hbonds>
donor molecule, donor type, donor heavy atom, donor atom, acceptor molecule, acceptor atom, score
      L1  H     9    35       P1  7948  0.85
      L1  H    12    36       P1  7948  1.00
      P1  H  7989  7998       L1     2  1.00
      L1  C    19    43       P1 10747  0.80

> <Gold.PLP.Chemscore.Internal.Correction>
0.0192

> <Gold.Rescore>
     Score         DG    S(hbond)    S(metal)    S(lipo)     H(rot)  DE(clash)    DE(int)     intcor
     16.74     -19.08       2.52        0.00      80.25       1.64       0.48       1.86       ----

> <Gold.Chemscore.Fitness>
16.7408

> <Gold.Chemscore.DG>
-19.0802

> <Gold.Chemscore.ZeroCoef>
-5.4800

> <Gold.Chemscore.Hbond>
2.5161

> <Gold.Chemscore.Metal>
0.0000

> <Gold.Chemscore.Lipo>
80.2538

> <Gold.Chemscore.Internal_Hbond>
0.0000

> <Gold.Chemscore.DEClash>
0.4758

> <Gold.Chemscore.DEInternal>
1.8636

> <Gold.Chemscore.Rot>
1.6380

> <Gold.Chemscore.Internal.Correction>
   9.000000E+99

> <Gold.Chemscore.Hbonds>
donor molecule, donor type, donor heavy atom, donor atom, acceptor molecule, acceptor atom, score
      L1  H     9    35       P1  7948  0.80
      L1  H    12    36       P1  7948  0.97
      P1  H  7989  7998       L1     2  0.29

> <Gold.Chemscore.Hbond.Weighted>
-8.4039

> <Gold.Chemscore.Metal.Weighted>
-0.0000

> <Gold.Chemscore.Lipo.Weighted>
-9.3897

> <Gold.Chemscore.Internal_Hbond.Weighted>
0.0000

> <Gold.Chemscore.DEClash.Weighted>
0.4758

> <Gold.Chemscore.DEInternal.Weighted>
1.8636

> <Gold.Chemscore.Rot.Weighted>
4.1934

> <Gold.Chemscore.Internal.Correction.Weighted>
   9.000000E+99

> <Gold.Protein.RotatedTorsions>
[ 6907 6896 6895 6894 ] final -151.92 input  -60.11 | X-H torsion
[ 7974 7965 7964 7962 ] final   62.14 input  175.53 | X-H torsion
[ 8008 7997 7996 7995 ] final -166.23 input   59.86 | X-H torsion
[ 10167 10162 10161 10158 ] final  166.74 input  -65.29 | X-H torsion
[ 10718 10713 10712 10709 ] final   19.40 input   66.30 | X-H torsion
[ 10763 10752 10751 10750 ] final  117.68 input  -60.55 | X-H torsion
[ 11005 11000 10999 10996 ] final   21.21 input  -57.11 | X-H torsion

> <Gold.Protein.ActiveResidues>
 VAL166  LYS551  ARG553  GLY616  TRP617  ASP618  TYR619  PRO620  LYS621  CYS622 
 ASP623  PHE694  ASN695  SER759  ASP760  ASP761  ALA762  ILE779  LEU786  VAL792 
 PHE793  MET794  SER795  GLU796  ALA797  LYS798  CYS799  TRP800  GLU811  SER814 

> <Gold.Protein.RotatedAtoms>
  151.2202  133.4506  159.2600 H   0  0  0  0  0  0  0  0  0  0  0  0  # atno 6907 bound_to 6896
  151.0892  134.9906  159.8404 H   0  0  0  0  0  0  0  0  0  0  0  0  # atno 6908 bound_to 6896
  152.5433  134.2137  159.8813 H   0  0  0  0  0  0  0  0  0  0  0  0  # atno 6909 bound_to 6896
  145.8767  139.3415  143.0730 H   0  0  0  0  0  0  0  0  0  0  0  0  # atno 7974 bound_to 7965
  155.8609  140.0978  157.1614 H   0  0  0  0  0  0  0  0  0  0  0  0  # atno 8008 bound_to 7997
  154.3990  140.1365  156.4022 H   0  0  0  0  0  0  0  0  0  0  0  0  # atno 8009 bound_to 7997
  155.7858  140.3457  155.5324 H   0  0  0  0  0  0  0  0  0  0  0  0  # atno 8010 bound_to 7997
  139.4931  144.3995  151.9425 H   0  0  0  0  0  0  0  0  0  0  0  0  # atno 10167 bound_to 10162
  157.1098  130.6504  149.5894 H   0  0  0  0  0  0  0  0  0  0  0  0  # atno 10718 bound_to 10713
  153.5561  135.3530  155.2780 H   0  0  0  0  0  0  0  0  0  0  0  0  # atno 10763 bound_to 10752
  154.8701  135.4125  154.2883 H   0  0  0  0  0  0  0  0  0  0  0  0  # atno 10764 bound_to 10752
  153.3619  135.7060  153.6774 H   0  0  0  0  0  0  0  0  0  0  0  0  # atno 10765 bound_to 10752
  140.3940  134.1788  155.7663 H   0  0  0  0  0  0  0  0  0  0  0  0  # atno 11005 bound_to 11000
  145.9072  140.9204  143.0472 LP  0  0  0  0  0  0  0  0  0  0  0  0  # atno 17320 bound_to 7965
  144.6726  140.1112  143.7455 LP  0  0  0  0  0  0  0  0  0  0  0  0  # atno 17321 bound_to 7965
  140.3434  144.3176  150.5963 LP  0  0  0  0  0  0  0  0  0  0  0  0  # atno 17342 bound_to 10162
  140.5546  143.2201  151.7868 LP  0  0  0  0  0  0  0  0  0  0  0  0  # atno 17343 bound_to 10162
  155.9853  130.4882  150.7025 LP  0  0  0  0  0  0  0  0  0  0  0  0  # atno 17370 bound_to 10713
  157.4569  131.0879  151.0787 LP  0  0  0  0  0  0  0  0  0  0  0  0  # atno 17371 bound_to 10713
  141.1880  133.8268  157.1009 LP  0  0  0  0  0  0  0  0  0  0  0  0  # atno 17394 bound_to 11000
  140.0385  134.9866  157.0917 LP  0  0  0  0  0  0  0  0  0  0  0  0  # atno 17395 bound_to 11000

$$$$
