AV-unprocessed.smi:1897|AV-procd|sdf|7693|dock4
  -GOLD-   22720 9433D 1   1.00000     0.00000
 Structure written by MMmdl.
 38 40  0  0  0  0  0  0  0  0  3 V2000
  149.2284  133.9842  156.0835 C   0  0  0  0  0  0  0  0  0  0  0  0
  150.2421  135.0709  156.1956 C   0  0  0  0  0  0  0  0  0  0  0  0
  151.4527  134.8777  156.7248 N   0  0  0  0  0  0  0  0  0  0  0  0
  152.2156  136.0359  156.7207 N   0  0  0  0  0  0  0  0  0  0  0  0
  151.5680  137.0904  156.2040 C   0  0  0  0  0  0  0  0  0  0  0  0
  152.1258  138.3129  156.1225 N   0  5  0  0  0  0  0  0  0  0  0  0
  151.3886  139.4423  155.9610 C   0  0  0  0  0  0  0  0  0  0  0  0
  150.9052  139.7878  154.8837 O   0  0  0  0  0  0  0  0  0  0  0  0
  151.1933  140.2230  157.0407 N   0  0  0  0  0  0  0  0  0  0  0  0
  150.5040  141.5089  157.0523 C   0  0  1  0  0  0  0  0  0  0  0  0
  149.3335  141.5566  158.0432 C   0  0  0  0  0  0  0  0  0  0  0  0
  149.2902  143.0118  158.5420 C   0  0  0  0  0  0  0  0  0  0  0  0
  150.4049  143.7123  157.8658 N   0  3  1  0  0  0  0  0  0  0  0  0
  150.9455  144.9132  158.5522 C   0  0  0  0  0  0  0  0  0  0  0  0
  151.8878  144.5595  159.7150 C   0  0  0  0  0  0  0  0  0  0  0  0
  152.9968  143.6135  159.2437 C   0  0  0  0  0  0  0  0  0  0  0  0
  152.3731  142.3502  158.6418 C   0  0  0  0  0  0  0  0  0  0  0  0
  151.3971  142.6840  157.4832 C   0  0  1  0  0  0  0  0  0  0  0  0
  149.9376  136.7123  155.6517 S   0  0  0  0  0  0  0  0  0  0  0  0
  148.7048  133.8655  157.0320 H   0  0  0  0  0  0  0  0  0  0  0  0
  149.7111  133.0408  155.8267 H   0  0  0  0  0  0  0  0  0  0  0  0
  148.5003  134.2247  155.3087 H   0  0  0  0  0  0  0  0  0  0  0  0
  151.5970  139.9145  157.9133 H   0  0  0  0  0  0  0  0  0  0  0  0
  150.1069  141.7152  156.0562 H   0  0  0  0  0  0  0  0  0  0  0  0
  148.3975  141.2547  157.5722 H   0  0  0  0  0  0  0  0  0  0  0  0
  149.5076  140.8856  158.8860 H   0  0  0  0  0  0  0  0  0  0  0  0
  148.3437  143.4980  158.3039 H   0  0  0  0  0  0  0  0  0  0  0  0
  149.4134  143.0359  159.6254 H   0  0  0  0  0  0  0  0  0  0  0  0
  151.4940  145.5000  157.8143 H   0  0  0  0  0  0  0  0  0  0  0  0
  150.1239  145.5412  158.8983 H   0  0  0  0  0  0  0  0  0  0  0  0
  152.3259  145.4697  160.1257 H   0  0  0  0  0  0  0  0  0  0  0  0
  151.3273  144.0963  160.5277 H   0  0  0  0  0  0  0  0  0  0  0  0
  153.6232  144.1098  158.5017 H   0  0  0  0  0  0  0  0  0  0  0  0
  153.6468  143.3502  160.0786 H   0  0  0  0  0  0  0  0  0  0  0  0
  153.1652  141.6900  158.2868 H   0  0  0  0  0  0  0  0  0  0  0  0
  151.8525  141.8032  159.4290 H   0  0  0  0  0  0  0  0  0  0  0  0
  151.9751  143.0516  156.6339 H   0  0  0  0  0  0  0  0  0  0  0  0
  150.0119  144.0378  156.9941 H   0  0  0  0  0  0  0  0  0  0  0  0
  1  2  1  0  0  0  0
  1 20  1  0  0  0  0
  1 21  1  0  0  0  0
  1 22  1  0  0  0  0
  2 19  1  0  0  0  0
  2  3  2  0  0  0  0
  3  4  1  0  0  0  0
  4  5  2  0  0  0  0
  5  6  1  0  0  0  0
  5 19  1  0  0  0  0
  6  7  1  0  0  0  0
  7  8  2  0  0  0  0
  7  9  1  0  0  0  0
  9 10  1  0  0  0  0
  9 23  1  0  0  0  0
 10 18  1  0  0  0  0
 10 11  1  0  0  0  0
 10 24  1  0  0  0  0
 11 12  1  0  0  0  0
 11 25  1  0  0  0  0
 11 26  1  0  0  0  0
 12 13  1  0  0  0  0
 12 27  1  0  0  0  0
 12 28  1  0  0  0  0
 13 18  1  0  0  0  0
 13 14  1  0  0  0  0
 13 38  1  0  0  0  0
 14 15  1  0  0  0  0
 14 29  1  0  0  0  0
 14 30  1  0  0  0  0
 15 16  1  0  0  0  0
 15 31  1  0  0  0  0
 15 32  1  0  0  0  0
 16 17  1  0  0  0  0
 16 33  1  0  0  0  0
 16 34  1  0  0  0  0
 17 18  1  0  0  0  0
 17 35  1  0  0  0  0
 17 36  1  0  0  0  0
 18 37  1  0  0  0  0
M  CHG  1   6  -1
M  CHG  1  13   1
M  END
> <s_m_source_file>
AV-unprocessed.smi

> <i_m_source_file_index>
1897

> <i_lp_mmshare_version>
43012

> <i_f3d_flags>
0

> <s_epik_input>
W0NIM11jMW5uYyhzMSlbTkhdQyg9TylbTkhdW0NASF0oW0NIMl1bQ0gyXTIpW0NAQEhdKE4yMylbQ0gyXVtDSDJdW0NIMl1bQ0gyXTM=

> <s_epik_cmdline>
J2VwaWtfcHl0aG9uJywgJy1waCcsICc3LjAnLCAnLXRuJywgJzgnLCAnLW1hJywgJzIwMCcsICctbWV0YWxfYmluZGluZycsICctaW1hZScsICc8aW5maWxlLm1hZT4nLCAnLW9tYWUnLCAnPG91dGZpbGUubWFlPic=

> <r_lp_tautomer_probability>
1

> <r_epik_Ionization_Penalty>
3.77712

> <r_epik_Ionization_Penalty_Charging>
3.67739

> <r_epik_Ionization_Penalty_Neutral>
0.0997294

> <r_epik_State_Penalty>
3.67514

> <r_epik_Charging_Adjusted_Penalty>
7.35254

> <i_epik_Tot_Q>
0

> <i_epik_Tot_abs_Q>
2

> <r_epik_Metal_State_Penalty>
0.540795

> <b_epik_Metal_Only>
1

> <s_lp_Force_Field>
OPLS_2005

> <r_lp_Energy>
30.11

> <b_lp_Chiralities_Consistent>
1

> <s_lp_Variant>
AV-unprocessed.smi:1897-10

> <Gold.Version>
5.8.1

> <Gold.Id.Protein>
6NUR|6NUR_protein|mol2

> <Gold.PLP.Fitness>
42.6450

> <Gold.PLP.PLP>
-33.4468

> <Gold.PLP.part.hbond>
-4.0000

> <Gold.PLP.part.metal>
0.0000

> <Gold.PLP.part.buried>
-6.0540

> <Gold.PLP.part.nonpolar>
-24.6941

> <Gold.PLP.part.repulsive>
0.2544

> <Gold.PLP.ligand.clash>
0.0000

> <Gold.PLP.ligand.torsion>
0.8030

> <Gold.PLP.Chemscore.Hbond>
3.6000

> <Gold.PLP.Chemscore.CHOScore>
0.0000

> <Gold.PLP.Chemscore.Metal>
0.0000

> <Gold.Chemscore.Hbonds>
donor molecule, donor type, donor heavy atom, donor atom, acceptor molecule, acceptor atom, score
      L1  H    13    38       P1  8028  2.00
      P1  H  7989  7998       L1     8  1.00
      P1  H 10752 10763       L1     4  0.60

> <Gold.PLP.Chemscore.Internal.Correction>
0.0042

> <Gold.Rescore>
     Score         DG    S(hbond)    S(metal)    S(lipo)     H(rot)  DE(clash)    DE(int)     intcor
     18.74     -19.57       2.23        0.00      78.55       1.00       0.04       0.79       ----

> <Gold.Chemscore.Fitness>
18.7411

> <Gold.Chemscore.DG>
-19.5729

> <Gold.Chemscore.ZeroCoef>
-5.4800

> <Gold.Chemscore.Hbond>
2.2344

> <Gold.Chemscore.Metal>
0.0000

> <Gold.Chemscore.Lipo>
78.5472

> <Gold.Chemscore.Internal_Hbond>
0.0000

> <Gold.Chemscore.DEClash>
0.0444

> <Gold.Chemscore.DEInternal>
0.7875

> <Gold.Chemscore.Rot>
1.0000

> <Gold.Chemscore.Internal.Correction>
   9.000000E+99

> <Gold.Chemscore.Hbonds>
donor molecule, donor type, donor heavy atom, donor atom, acceptor molecule, acceptor atom, score
      L1  H    13    38       P1  8028  0.93
      P1  H  7989  7998       L1     8  1.00
      P1  H 10752 10763       L1     4  0.01

> <Gold.Chemscore.Hbond.Weighted>
-7.4629

> <Gold.Chemscore.Metal.Weighted>
-0.0000

> <Gold.Chemscore.Lipo.Weighted>
-9.1900

> <Gold.Chemscore.Internal_Hbond.Weighted>
0.0000

> <Gold.Chemscore.DEClash.Weighted>
0.0444

> <Gold.Chemscore.DEInternal.Weighted>
0.7875

> <Gold.Chemscore.Rot.Weighted>
2.5600

> <Gold.Chemscore.Internal.Correction.Weighted>
   9.000000E+99

> <Gold.Protein.RotatedTorsions>
[ 6907 6896 6895 6894 ] final  165.52 input  -60.11 | X-H torsion
[ 7974 7965 7964 7962 ] final  100.87 input  175.53 | X-H torsion
[ 8008 7997 7996 7995 ] final   35.10 input   59.86 | X-H torsion
[ 10167 10162 10161 10158 ] final   19.56 input  -65.29 | X-H torsion
[ 10718 10713 10712 10709 ] final  -74.94 input   66.30 | X-H torsion
[ 10763 10752 10751 10750 ] final   97.49 input  -60.55 | X-H torsion
[ 11005 11000 10999 10996 ] final -139.04 input  -57.11 | X-H torsion

> <Gold.Protein.ActiveResidues>
 VAL166  LYS551  ARG553  GLY616  TRP617  ASP618  TYR619  PRO620  LYS621  CYS622 
 ASP623  PHE694  ASN695  SER759  ASP760  ASP761  ALA762  ILE779  LEU786  VAL792 
 PHE793  MET794  SER795  GLU796  ALA797  LYS798  CYS799  TRP800  GLU811  SER814 

> <Gold.Protein.RotatedAtoms>
  151.8932  133.3521  159.3805 H   0  0  0  0  0  0  0  0  0  0  0  0  # atno 6907 bound_to 6896
  150.7098  134.4903  159.5522 H   0  0  0  0  0  0  0  0  0  0  0  0  # atno 6908 bound_to 6896
  152.2477  134.8165  160.0501 H   0  0  0  0  0  0  0  0  0  0  0  0  # atno 6909 bound_to 6896
  145.3798  139.2382  143.3410 H   0  0  0  0  0  0  0  0  0  0  0  0  # atno 7974 bound_to 7965
  155.1656  140.3287  155.4402 H   0  0  0  0  0  0  0  0  0  0  0  0  # atno 8008 bound_to 7997
  156.2527  140.1952  156.6712 H   0  0  0  0  0  0  0  0  0  0  0  0  # atno 8009 bound_to 7997
  154.6373  140.0574  156.9791 H   0  0  0  0  0  0  0  0  0  0  0  0  # atno 8010 bound_to 7997
  140.5570  143.9406  150.6616 H   0  0  0  0  0  0  0  0  0  0  0  0  # atno 10167 bound_to 10162
  156.0225  130.4429  150.2968 H   0  0  0  0  0  0  0  0  0  0  0  0  # atno 10718 bound_to 10713
  153.2776  135.4181  155.1048 H   0  0  0  0  0  0  0  0  0  0  0  0  # atno 10763 bound_to 10752
  154.8478  135.3487  154.6157 H   0  0  0  0  0  0  0  0  0  0  0  0  # atno 10764 bound_to 10752
  153.6577  135.7050  153.5245 H   0  0  0  0  0  0  0  0  0  0  0  0  # atno 10765 bound_to 10752
  140.8558  134.2229  157.4735 H   0  0  0  0  0  0  0  0  0  0  0  0  # atno 11005 bound_to 11000
  146.2847  140.4463  142.8762 LP  0  0  0  0  0  0  0  0  0  0  0  0  # atno 17320 bound_to 7965
  144.8516  140.7009  143.6165 LP  0  0  0  0  0  0  0  0  0  0  0  0  # atno 17321 bound_to 7965
  140.2847  143.3365  152.1118 LP  0  0  0  0  0  0  0  0  0  0  0  0  # atno 17342 bound_to 10162
  139.5052  144.6791  151.6054 LP  0  0  0  0  0  0  0  0  0  0  0  0  # atno 17343 bound_to 10162
  157.1071  131.0211  151.3063 LP  0  0  0  0  0  0  0  0  0  0  0  0  # atno 17370 bound_to 10713
  157.4734  130.7722  149.7345 LP  0  0  0  0  0  0  0  0  0  0  0  0  # atno 17371 bound_to 10713
  139.8705  134.9706  156.4706 LP  0  0  0  0  0  0  0  0  0  0  0  0  # atno 17394 bound_to 11000
  140.8738  133.7968  155.9393 LP  0  0  0  0  0  0  0  0  0  0  0  0  # atno 17395 bound_to 11000

$$$$
