AV-unprocessed.smi:3139|AV-procd|sdf|11956|dock6
  -GOLD-   2272017353D 1   1.00000     0.00000
 Structure written by MMmdl.
 33 33  0  0  0  0  0  0  0  0  2 V2000
  151.9054  143.3356  157.6750 C   0  0  0  0  0  0  0  0  0  0  0  0
  152.1307  142.0348  158.4734 C   0  0  2  0  0  0  0  0  0  0  0  0
  151.1514  140.9143  158.0857 C   0  0  0  0  0  0  0  0  0  0  0  0
  150.4012  140.4134  158.9247 O   0  0  0  0  0  0  0  0  0  0  0  0
  151.1636  140.5423  156.7959 N   0  0  0  0  0  0  0  0  0  0  0  0
  150.3039  139.5278  156.1856 C   0  0  0  0  0  0  0  0  0  0  0  0
  151.0548  138.2200  155.8024 C   0  0  0  0  0  0  0  0  0  0  0  0
  150.0518  137.2206  155.1911 C   0  0  0  0  0  0  0  0  0  0  0  0
  152.1526  138.5311  154.7558 C   0  0  0  0  0  0  0  0  0  0  0  0
  151.6785  137.5618  157.0613 C   0  0  0  0  0  0  0  0  0  0  0  0
  151.3427  136.3928  157.3569 O   0  0  0  0  0  0  0  0  0  0  0  0
  152.4861  138.2515  157.7235 O   0  5  0  0  0  0  0  0  0  0  0  0
  152.1056  142.2599  159.9148 N   0  0  0  0  0  0  0  0  0  0  0  0
  151.9362  143.4565  160.5819 C   0  0  0  0  0  0  0  0  0  0  0  0
  152.0239  143.1980  161.9196 C   0  0  0  0  0  0  0  0  0  0  0  0
  152.2654  141.7976  161.9772 C   0  0  0  0  0  0  0  0  0  0  0  0
  152.3220  141.2404  160.7788 N   0  0  0  0  0  0  0  0  0  0  0  0
  151.9964  143.1582  156.6028 H   0  0  0  0  0  0  0  0  0  0  0  0
  152.6454  144.0898  157.9440 H   0  0  0  0  0  0  0  0  0  0  0  0
  150.9180  143.7627  157.8560 H   0  0  0  0  0  0  0  0  0  0  0  0
  153.1316  141.6778  158.2245 H   0  0  0  0  0  0  0  0  0  0  0  0
  151.8033  141.0159  156.1743 H   0  0  0  0  0  0  0  0  0  0  0  0
  149.5174  139.3054  156.9078 H   0  0  0  0  0  0  0  0  0  0  0  0
  149.7849  139.9308  155.3143 H   0  0  0  0  0  0  0  0  0  0  0  0
  149.5981  137.6241  154.2852 H   0  0  0  0  0  0  0  0  0  0  0  0
  149.2411  136.9866  155.8828 H   0  0  0  0  0  0  0  0  0  0  0  0
  150.5361  136.2807  154.9227 H   0  0  0  0  0  0  0  0  0  0  0  0
  151.7310  139.0319  153.8838 H   0  0  0  0  0  0  0  0  0  0  0  0
  152.6410  137.6231  154.3994 H   0  0  0  0  0  0  0  0  0  0  0  0
  152.9271  139.1843  155.1595 H   0  0  0  0  0  0  0  0  0  0  0  0
  151.7702  144.3838  160.0533 H   0  0  0  0  0  0  0  0  0  0  0  0
  151.9354  143.9033  162.7326 H   0  0  0  0  0  0  0  0  0  0  0  0
  152.4047  141.1739  162.8479 H   0  0  0  0  0  0  0  0  0  0  0  0
  1  2  1  0  0  0  0
  1 18  1  0  0  0  0
  1 19  1  0  0  0  0
  1 20  1  0  0  0  0
  2  3  1  0  0  0  0
  2 13  1  0  0  0  0
  2 21  1  0  0  0  0
  3  4  2  0  0  0  0
  3  5  1  0  0  0  0
  5  6  1  0  0  0  0
  5 22  1  0  0  0  0
  6  7  1  0  0  0  0
  6 23  1  0  0  0  0
  6 24  1  0  0  0  0
  7  8  1  0  0  0  0
  7  9  1  0  0  0  0
  7 10  1  0  0  0  0
  8 25  1  0  0  0  0
  8 26  1  0  0  0  0
  8 27  1  0  0  0  0
  9 28  1  0  0  0  0
  9 29  1  0  0  0  0
  9 30  1  0  0  0  0
 10 11  2  0  0  0  0
 10 12  1  0  0  0  0
 13 17  1  0  0  0  0
 13 14  1  0  0  0  0
 14 15  2  0  0  0  0
 14 31  1  0  0  0  0
 15 16  1  0  0  0  0
 15 32  1  0  0  0  0
 16 17  2  0  0  0  0
 16 33  1  0  0  0  0
M  CHG  1  12  -1
M  END
> <s_m_source_file>
AV-unprocessed.smi

> <i_m_source_file_index>
3139

> <i_lp_mmshare_version>
43012

> <i_f3d_flags>
0

> <s_epik_input>
bjFbY0hdW2NIXVtjSF1uMVtDQEhdKFtDSDNdKUMoPU8pW05IXVtDSDJdQyhbQ0gzXSkoW0NIM10pQyg9TylbT0hd

> <s_epik_cmdline>
J2VwaWtfcHl0aG9uJywgJy1waCcsICc3LjAnLCAnLXRuJywgJzgnLCAnLW1hJywgJzIwMCcsICctbWV0YWxfYmluZGluZycsICctaW1hZScsICc8aW5maWxlLm1hZT4nLCAnLW9tYWUnLCAnPG91dGZpbGUubWFlPic=

> <r_lp_tautomer_probability>
1

> <r_epik_Ionization_Penalty>
0.00184643

> <r_epik_Ionization_Penalty_Charging>
0.00181045

> <r_epik_Ionization_Penalty_Neutral>
3.59763e-05

> <r_epik_State_Penalty>
0.00122842

> <r_epik_Charging_Adjusted_Penalty>
0.00303887

> <i_epik_Tot_Q>
-1

> <i_epik_Tot_abs_Q>
1

> <r_epik_Metal_State_Penalty>
-0

> <b_epik_Metal_Only>
0

> <s_lp_Force_Field>
OPLS_2005

> <r_lp_Energy>
5.55707

> <b_lp_Chiralities_Consistent>
1

> <s_lp_Variant>
AV-unprocessed.smi:3139-1

> <Gold.Version>
5.8.1

> <Gold.Id.Protein>
6NUR|6NUR_protein|mol2

> <Gold.PLP.Fitness>
43.3461

> <Gold.PLP.PLP>
-31.5931

> <Gold.PLP.part.hbond>
-2.0000

> <Gold.PLP.part.metal>
0.0000

> <Gold.PLP.part.buried>
-5.7771

> <Gold.PLP.part.nonpolar>
-24.0614

> <Gold.PLP.part.repulsive>
0.0861

> <Gold.PLP.ligand.clash>
0.0000

> <Gold.PLP.ligand.torsion>
0.1636

> <Gold.PLP.Chemscore.Hbond>
3.9840

> <Gold.PLP.Chemscore.CHOScore>
0.0000

> <Gold.PLP.Chemscore.Metal>
0.0000

> <Gold.PLP.Chemscore.Internal.Correction>
0.1281

> <Gold.Rescore>
     Score         DG    S(hbond)    S(metal)    S(lipo)     H(rot)  DE(clash)    DE(int)     intcor
     11.38     -14.29       1.91        0.00      71.66       2.32       0.00       2.91       ----

> <Gold.Chemscore.Fitness>
11.3751

> <Gold.Chemscore.DG>
-14.2851

> <Gold.Chemscore.ZeroCoef>
-5.4800

> <Gold.Chemscore.Hbond>
1.9075

> <Gold.Chemscore.Metal>
0.0000

> <Gold.Chemscore.Lipo>
71.6558

> <Gold.Chemscore.Internal_Hbond>
0.0000

> <Gold.Chemscore.DEClash>
0.0021

> <Gold.Chemscore.DEInternal>
2.9079

> <Gold.Chemscore.Rot>
2.3241

> <Gold.Chemscore.Internal.Correction>
   9.000000E+99

> <Gold.Chemscore.Hbond.Weighted>
-6.3712

> <Gold.Chemscore.Metal.Weighted>
-0.0000

> <Gold.Chemscore.Lipo.Weighted>
-8.3837

> <Gold.Chemscore.Internal_Hbond.Weighted>
0.0000

> <Gold.Chemscore.DEClash.Weighted>
0.0021

> <Gold.Chemscore.DEInternal.Weighted>
2.9079

> <Gold.Chemscore.Rot.Weighted>
5.9498

> <Gold.Chemscore.Internal.Correction.Weighted>
   9.000000E+99

> <Gold.Protein.RotatedTorsions>
[ 6907 6896 6895 6894 ] final   92.18 input  -60.11 | X-H torsion
[ 7974 7965 7964 7962 ] final   84.08 input  175.53 | X-H torsion
[ 8008 7997 7996 7995 ] final  170.75 input   59.86 | X-H torsion
[ 10167 10162 10161 10158 ] final   10.25 input  -65.29 | X-H torsion
[ 10718 10713 10712 10709 ] final  -55.37 input   66.30 | X-H torsion
[ 10763 10752 10751 10750 ] final   -6.08 input  -60.55 | X-H torsion
[ 11005 11000 10999 10996 ] final  124.18 input  -57.11 | X-H torsion

> <Gold.Protein.ActiveResidues>
 VAL166  LYS551  ARG553  GLY616  TRP617  ASP618  TYR619  PRO620  LYS621  CYS622 
 ASP623  PHE694  ASN695  SER759  ASP760  ASP761  ALA762  ILE779  LEU786  VAL792 
 PHE793  MET794  SER795  GLU796  ALA797  LYS798  CYS799  TRP800  GLU811  SER814 

> <Gold.Protein.RotatedAtoms>
  152.5452  134.1542  159.8530 H   0  0  0  0  0  0  0  0  0  0  0  0  # atno 6907 bound_to 6896
  151.1566  133.4865  159.2602 H   0  0  0  0  0  0  0  0  0  0  0  0  # atno 6908 bound_to 6896
  151.1416  135.0193  159.8683 H   0  0  0  0  0  0  0  0  0  0  0  0  # atno 6909 bound_to 6896
  145.6035  139.2356  143.2232 H   0  0  0  0  0  0  0  0  0  0  0  0  # atno 7974 bound_to 7965
  156.1336  140.1530  156.9027 H   0  0  0  0  0  0  0  0  0  0  0  0  # atno 8008 bound_to 7997
  154.4929  140.0846  156.7674 H   0  0  0  0  0  0  0  0  0  0  0  0  # atno 8009 bound_to 7997
  155.4209  140.3423  155.4273 H   0  0  0  0  0  0  0  0  0  0  0  0  # atno 8010 bound_to 7997
  140.6206  143.8213  150.7170 H   0  0  0  0  0  0  0  0  0  0  0  0  # atno 10167 bound_to 10162
  156.1374  130.4156  150.0162 H   0  0  0  0  0  0  0  0  0  0  0  0  # atno 10718 bound_to 10713
  153.4074  135.7006  153.6383 H   0  0  0  0  0  0  0  0  0  0  0  0  # atno 10763 bound_to 10752
  153.4891  135.3676  155.2483 H   0  0  0  0  0  0  0  0  0  0  0  0  # atno 10764 bound_to 10752
  154.8715  135.4084  154.3420 H   0  0  0  0  0  0  0  0  0  0  0  0  # atno 10765 bound_to 10752
  139.9346  134.9640  156.8370 H   0  0  0  0  0  0  0  0  0  0  0  0  # atno 11005 bound_to 11000
  146.1558  140.6859  142.9300 LP  0  0  0  0  0  0  0  0  0  0  0  0  # atno 17320 bound_to 7965
  144.7300  140.4642  143.6945 LP  0  0  0  0  0  0  0  0  0  0  0  0  # atno 17321 bound_to 7965
  140.1802  143.4121  152.1938 LP  0  0  0  0  0  0  0  0  0  0  0  0  # atno 17342 bound_to 10162
  139.5435  144.7278  151.4657 LP  0  0  0  0  0  0  0  0  0  0  0  0  # atno 17343 bound_to 10162
  156.8057  130.9307  151.3645 LP  0  0  0  0  0  0  0  0  0  0  0  0  # atno 17370 bound_to 10713
  157.6544  130.8912  149.9700 LP  0  0  0  0  0  0  0  0  0  0  0  0  # atno 17371 bound_to 10713
  140.6109  134.0083  155.7576 LP  0  0  0  0  0  0  0  0  0  0  0  0  # atno 17394 bound_to 11000
  141.0954  133.9852  157.3169 LP  0  0  0  0  0  0  0  0  0  0  0  0  # atno 17395 bound_to 11000

$$$$
