AV-unprocessed.smi:836|AV-procd|sdf|3890|dock9
  -GOLD-   22720 1343D 1   1.00000     0.00000
 Structure written by MMmdl.
 38 39  0  0  0  0  0  0  0  0  1 V2000
  153.1054  142.8035  160.8790 C   0  0  0  0  0  0  0  0  0  0  0  0
  152.0344  142.5151  159.8176 C   0  0  2  0  0  0  0  0  0  0  0  0
  152.4983  141.4275  158.8301 C   0  0  0  0  0  0  0  0  0  0  0  0
  151.4298  141.1363  157.7642 C   0  0  0  0  0  0  0  0  0  0  0  0
  151.0248  142.4167  157.0072 C   0  0  1  0  0  0  0  0  0  0  0  0
  149.9531  142.1354  156.0580 N   0  0  0  0  0  0  0  0  0  0  0  0
  149.9485  141.1392  155.1583 C   0  0  0  0  0  0  0  0  0  0  0  0
  150.8626  140.3231  155.0431 O   0  0  0  0  0  0  0  0  0  0  0  0
  148.7193  141.0434  154.2524 C   0  0  0  0  0  0  0  0  0  0  0  0
  147.5980  141.7859  154.8014 N   0  0  0  0  0  0  0  0  0  0  0  0
  146.7471  142.6561  154.1544 C   0  0  0  0  0  0  0  0  0  0  0  0
  145.8582  143.1182  155.0818 C   0  0  0  0  0  0  0  0  0  0  0  0
  146.2460  142.4675  156.2892 C   0  0  0  0  0  0  0  0  0  0  0  0
  145.6301  142.5916  157.6577 C   0  0  0  0  0  0  0  0  0  0  0  0
  144.6175  143.4583  157.6328 F   0  0  0  0  0  0  0  0  0  0  0  0
  145.1709  141.4067  158.0600 F   0  0  0  0  0  0  0  0  0  0  0  0
  146.5427  143.0230  158.5283 F   0  0  0  0  0  0  0  0  0  0  0  0
  147.2900  141.6692  156.1111 N   0  0  0  0  0  0  0  0  0  0  0  0
  150.5651  143.5077  157.9913 C   0  0  0  0  0  0  0  0  0  0  0  0
  151.6354  143.7939  159.0569 C   0  0  0  0  0  0  0  0  0  0  0  0
  154.0242  143.1753  160.4246 H   0  0  0  0  0  0  0  0  0  0  0  0
  153.3531  141.9031  161.4419 H   0  0  0  0  0  0  0  0  0  0  0  0
  152.7594  143.5523  161.5919 H   0  0  0  0  0  0  0  0  0  0  0  0
  151.1501  142.1430  160.3370 H   0  0  0  0  0  0  0  0  0  0  0  0
  153.4206  141.7426  158.3403 H   0  0  0  0  0  0  0  0  0  0  0  0
  152.7342  140.5095  159.3693 H   0  0  0  0  0  0  0  0  0  0  0  0
  151.8074  140.3891  157.0654 H   0  0  0  0  0  0  0  0  0  0  0  0
  150.5533  140.6968  158.2425 H   0  0  0  0  0  0  0  0  0  0  0  0
  151.8924  142.7956  156.4630 H   0  0  0  0  0  0  0  0  0  0  0  0
  149.1562  142.7557  156.0755 H   0  0  0  0  0  0  0  0  0  0  0  0
  148.9512  141.4417  153.2638 H   0  0  0  0  0  0  0  0  0  0  0  0
  148.4375  139.9976  154.1194 H   0  0  0  0  0  0  0  0  0  0  0  0
  146.8462  142.8731  153.1010 H   0  0  0  0  0  0  0  0  0  0  0  0
  145.0515  143.8185  154.9229 H   0  0  0  0  0  0  0  0  0  0  0  0
  150.3331  144.4252  157.4491 H   0  0  0  0  0  0  0  0  0  0  0  0
  149.6417  143.1977  158.4827 H   0  0  0  0  0  0  0  0  0  0  0  0
  151.2620  144.5428  159.7560 H   0  0  0  0  0  0  0  0  0  0  0  0
  152.5148  144.2292  158.5802 H   0  0  0  0  0  0  0  0  0  0  0  0
  1  2  1  0  0  0  0
  1 21  1  0  0  0  0
  1 22  1  0  0  0  0
  1 23  1  0  0  0  0
  2 20  1  0  0  0  0
  2  3  1  0  0  0  0
  2 24  1  0  0  0  0
  3  4  1  0  0  0  0
  3 25  1  0  0  0  0
  3 26  1  0  0  0  0
  4  5  1  0  0  0  0
  4 27  1  0  0  0  0
  4 28  1  0  0  0  0
  5  6  1  0  0  0  0
  5 19  1  0  0  0  0
  5 29  1  0  0  0  0
  6  7  1  0  0  0  0
  6 30  1  0  0  0  0
  7  8  2  0  0  0  0
  7  9  1  0  0  0  0
  9 10  1  0  0  0  0
  9 31  1  0  0  0  0
  9 32  1  0  0  0  0
 10 18  1  0  0  0  0
 10 11  1  0  0  0  0
 11 12  2  0  0  0  0
 11 33  1  0  0  0  0
 12 13  1  0  0  0  0
 12 34  1  0  0  0  0
 13 14  1  0  0  0  0
 13 18  2  0  0  0  0
 14 15  1  0  0  0  0
 14 16  1  0  0  0  0
 14 17  1  0  0  0  0
 19 20  1  0  0  0  0
 19 35  1  0  0  0  0
 19 36  1  0  0  0  0
 20 37  1  0  0  0  0
 20 38  1  0  0  0  0
M  END
> <s_m_source_file>
AV-unprocessed.smi

> <i_m_source_file_index>
836

> <i_lp_mmshare_version>
43012

> <i_f3d_flags>
0

> <s_epik_input>
W0NIM11bQ0BASF0xW0NIMl1bQ0gyXVtDQEhdKFtDSDJdW0NIMl0xKVtOSF1DKD1PKVtDSDJdbjJbY0hdW2NIXWMobjIpQyhGKShGKUY=

> <s_epik_cmdline>
J2VwaWtfcHl0aG9uJywgJy1waCcsICc3LjAnLCAnLXRuJywgJzgnLCAnLW1hJywgJzIwMCcsICctbWV0YWxfYmluZGluZycsICctaW1hZScsICc8aW5maWxlLm1hZT4nLCAnLW9tYWUnLCAnPG91dGZpbGUubWFlPic=

> <r_lp_tautomer_probability>
1

> <r_epik_Ionization_Penalty>
8.28749e-08

> <r_epik_Ionization_Penalty_Charging>
0

> <r_epik_Ionization_Penalty_Neutral>
8.28749e-08

> <r_epik_State_Penalty>
-0

> <r_epik_Charging_Adjusted_Penalty>
0

> <i_epik_Tot_Q>
0

> <i_epik_Tot_abs_Q>
0

> <r_epik_Metal_State_Penalty>
-0

> <b_epik_Metal_Only>
0

> <s_lp_Force_Field>
OPLS_2005

> <r_lp_Energy>
10.955

> <b_lp_Chiralities_Consistent>
1

> <s_lp_Variant>
AV-unprocessed.smi:836-1

> <Gold.Version>
5.8.1

> <Gold.Id.Protein>
6NUR|6NUR_protein|mol2

> <Gold.PLP.Fitness>
43.4629

> <Gold.PLP.PLP>
-39.3161

> <Gold.PLP.part.hbond>
-2.0000

> <Gold.PLP.part.metal>
0.0000

> <Gold.PLP.part.buried>
-3.6999

> <Gold.PLP.part.nonpolar>
-34.0247

> <Gold.PLP.part.repulsive>
0.2792

> <Gold.PLP.ligand.clash>
0.0000

> <Gold.PLP.ligand.torsion>
0.5091

> <Gold.PLP.Chemscore.Hbond>
1.7200

> <Gold.PLP.Chemscore.CHOScore>
0.0000

> <Gold.PLP.Chemscore.Metal>
0.0000

> <Gold.Chemscore.Hbonds>
donor molecule, donor type, donor heavy atom, donor atom, acceptor molecule, acceptor atom, score
      L1  H     6    30       P1  8028  0.69
      P1  H  7989  7998       L1     8  1.00

> <Gold.PLP.Chemscore.Internal.Correction>
0.0050

> <Gold.Rescore>
     Score         DG    S(hbond)    S(metal)    S(lipo)     H(rot)  DE(clash)    DE(int)     intcor
     13.32     -16.77       1.52        0.00      86.84       1.54       0.27       3.19       ----

> <Gold.Chemscore.Fitness>
13.3154

> <Gold.Chemscore.DG>
-16.7693

> <Gold.Chemscore.ZeroCoef>
-5.4800

> <Gold.Chemscore.Hbond>
1.5199

> <Gold.Chemscore.Metal>
0.0000

> <Gold.Chemscore.Lipo>
86.8432

> <Gold.Chemscore.Internal_Hbond>
0.0000

> <Gold.Chemscore.DEClash>
0.2665

> <Gold.Chemscore.DEInternal>
3.1874

> <Gold.Chemscore.Rot>
1.5422

> <Gold.Chemscore.Internal.Correction>
   9.000000E+99

> <Gold.Chemscore.Hbonds>
donor molecule, donor type, donor heavy atom, donor atom, acceptor molecule, acceptor atom, score
      L1  H     6    30       P1  8028  0.65
      P1  H  7989  7998       L1     8  0.30

> <Gold.Chemscore.Hbond.Weighted>
-5.0765

> <Gold.Chemscore.Metal.Weighted>
-0.0000

> <Gold.Chemscore.Lipo.Weighted>
-10.1607

> <Gold.Chemscore.Internal_Hbond.Weighted>
0.0000

> <Gold.Chemscore.DEClash.Weighted>
0.2665

> <Gold.Chemscore.DEInternal.Weighted>
3.1874

> <Gold.Chemscore.Rot.Weighted>
3.9479

> <Gold.Chemscore.Internal.Correction.Weighted>
   9.000000E+99

> <Gold.Protein.RotatedTorsions>
[ 6907 6896 6895 6894 ] final -169.00 input  -60.11 | X-H torsion
[ 7974 7965 7964 7962 ] final   17.01 input  175.53 | X-H torsion
[ 8008 7997 7996 7995 ] final -162.04 input   59.86 | X-H torsion
[ 10167 10162 10161 10158 ] final  140.45 input  -65.29 | X-H torsion
[ 10718 10713 10712 10709 ] final  -68.68 input   66.30 | X-H torsion
[ 10763 10752 10751 10750 ] final    8.20 input  -60.55 | X-H torsion
[ 11005 11000 10999 10996 ] final   60.66 input  -57.11 | X-H torsion

> <Gold.Protein.ActiveResidues>
 VAL166  LYS551  ARG553  GLY616  TRP617  ASP618  TYR619  PRO620  LYS621  CYS622 
 ASP623  PHE694  ASN695  SER759  ASP760  ASP761  ALA762  ILE779  LEU786  VAL792 
 PHE793  MET794  SER795  GLU796  ALA797  LYS798  CYS799  TRP800  GLU811  SER814 

> <Gold.Protein.RotatedAtoms>
  151.4845  133.3539  159.2843 H   0  0  0  0  0  0  0  0  0  0  0  0  # atno 6907 bound_to 6896
  150.8875  134.8277  159.7280 H   0  0  0  0  0  0  0  0  0  0  0  0  # atno 6908 bound_to 6896
  152.4802  134.4751  159.9699 H   0  0  0  0  0  0  0  0  0  0  0  0  # atno 6909 bound_to 6896
  146.2232  139.8665  142.8595 H   0  0  0  0  0  0  0  0  0  0  0  0  # atno 7974 bound_to 7965
  155.8010  140.0892  157.1957 H   0  0  0  0  0  0  0  0  0  0  0  0  # atno 8008 bound_to 7997
  154.3982  140.1472  156.3333 H   0  0  0  0  0  0  0  0  0  0  0  0  # atno 8009 bound_to 7997
  155.8463  140.3436  155.5666 H   0  0  0  0  0  0  0  0  0  0  0  0  # atno 8010 bound_to 7997
  139.5048  144.6233  151.5997 H   0  0  0  0  0  0  0  0  0  0  0  0  # atno 10167 bound_to 10162
  156.0493  130.4299  150.2036 H   0  0  0  0  0  0  0  0  0  0  0  0  # atno 10718 bound_to 10713
  153.2277  135.6889  153.7926 H   0  0  0  0  0  0  0  0  0  0  0  0  # atno 10763 bound_to 10752
  153.7101  135.3283  155.3245 H   0  0  0  0  0  0  0  0  0  0  0  0  # atno 10764 bound_to 10752
  154.8299  135.4588  154.1150 H   0  0  0  0  0  0  0  0  0  0  0  0  # atno 10765 bound_to 10752
  140.0216  134.6144  155.9631 H   0  0  0  0  0  0  0  0  0  0  0  0  # atno 11005 bound_to 11000
  145.2651  141.0090  143.3804 LP  0  0  0  0  0  0  0  0  0  0  0  0  # atno 17320 bound_to 7965
  144.9267  139.4346  143.6515 LP  0  0  0  0  0  0  0  0  0  0  0  0  # atno 17321 bound_to 7965
  140.5943  143.9725  150.6344 LP  0  0  0  0  0  0  0  0  0  0  0  0  # atno 17342 bound_to 10162
  140.2915  143.3321  152.1057 LP  0  0  0  0  0  0  0  0  0  0  0  0  # atno 17343 bound_to 10162
  157.0121  130.9954  151.3363 LP  0  0  0  0  0  0  0  0  0  0  0  0  # atno 17370 bound_to 10713
  157.5403  130.8115  149.8020 LP  0  0  0  0  0  0  0  0  0  0  0  0  # atno 17371 bound_to 10713
  141.1777  133.6542  156.4895 LP  0  0  0  0  0  0  0  0  0  0  0  0  # atno 17394 bound_to 11000
  140.4377  134.7044  157.4975 LP  0  0  0  0  0  0  0  0  0  0  0  0  # atno 17395 bound_to 11000

$$$$
