AV-unprocessed.smi:1261|AV-procd|sdf|5305|dock8
  -GOLD-   22720 4423D 1   1.00000     0.00000
 Structure written by MMmdl.
 50 51  0  0  0  0  0  0  0  0  2 V2000
  148.1796  127.9147  152.3684 C   0  0  0  0  0  0  0  0  0  0  0  0
  147.2732  128.4590  153.4869 C   0  0  2  0  0  0  0  0  0  0  0  0
  146.0547  129.2331  152.9498 C   0  0  0  0  0  0  0  0  0  0  0  0
  146.4529  130.6183  152.4087 C   0  0  1  0  0  0  0  0  0  0  0  0
  145.2244  131.4082  151.9358 C   0  0  0  0  0  0  0  0  0  0  0  0
  147.2501  131.3983  153.4721 C   0  0  0  0  0  0  0  0  0  0  0  0
  148.4400  130.6323  153.9243 N   0  3  1  0  0  0  0  0  0  0  0  0
  149.3209  131.4271  154.8170 C   0  0  0  0  0  0  0  0  0  0  0  0
  149.3475  132.9156  154.4311 C   0  0  0  0  0  0  0  0  0  0  0  0
  150.1543  133.7656  155.4258 C   0  0  0  0  0  0  0  0  0  0  0  0
  150.2527  135.1499  154.9806 N   0  0  0  0  0  0  0  0  0  0  0  0
  151.0467  136.0863  155.5282 C   0  0  0  0  0  0  0  0  0  0  0  0
  151.7702  135.8589  156.4972 O   0  0  0  0  0  0  0  0  0  0  0  0
  151.0547  137.4919  154.9020 C   0  0  0  0  0  0  0  0  0  0  0  0
  150.9754  138.6025  155.8652 N   0  0  0  0  0  0  0  0  0  0  0  0
  150.9849  138.2024  157.1930 N   0  0  0  0  0  0  0  0  0  0  0  0
  150.9189  139.0840  158.1329 C   0  0  0  0  0  0  0  0  0  0  0  0
  150.9275  138.6440  159.4337 O   0  0  0  0  0  0  0  0  0  0  0  0
  150.8373  140.4963  157.8300 C   0  0  0  0  0  0  0  0  0  0  0  0
  150.8274  140.8764  156.5334 C   0  0  0  0  0  0  0  0  0  0  0  0
  150.8953  139.9020  155.4428 C   0  0  0  0  0  0  0  0  0  0  0  0
  150.8711  140.2184  154.2536 O   0  0  0  0  0  0  0  0  0  0  0  0
  148.0534  129.3170  154.5021 C   0  0  0  0  0  0  0  0  0  0  0  0
  150.3957  139.2609  159.9125 H   0  0  0  0  0  0  0  0  0  0  0  0
  148.6444  128.7146  151.7922 H   0  0  0  0  0  0  0  0  0  0  0  0
  147.6147  127.2912  151.6746 H   0  0  0  0  0  0  0  0  0  0  0  0
  148.9805  127.3003  152.7806 H   0  0  0  0  0  0  0  0  0  0  0  0
  146.8924  127.5879  154.0216 H   0  0  0  0  0  0  0  0  0  0  0  0
  145.5495  128.6529  152.1765 H   0  0  0  0  0  0  0  0  0  0  0  0
  145.3310  129.3579  153.7566 H   0  0  0  0  0  0  0  0  0  0  0  0
  147.0971  130.4766  151.5403 H   0  0  0  0  0  0  0  0  0  0  0  0
  144.5273  131.5881  152.7548 H   0  0  0  0  0  0  0  0  0  0  0  0
  144.6877  130.8687  151.1549 H   0  0  0  0  0  0  0  0  0  0  0  0
  145.5130  132.3767  151.5261 H   0  0  0  0  0  0  0  0  0  0  0  0
  147.5694  132.3515  153.0484 H   0  0  0  0  0  0  0  0  0  0  0  0
  146.6182  131.6291  154.3315 H   0  0  0  0  0  0  0  0  0  0  0  0
  148.9552  131.3550  155.8423 H   0  0  0  0  0  0  0  0  0  0  0  0
  150.3272  131.0054  154.8190 H   0  0  0  0  0  0  0  0  0  0  0  0
  149.7719  133.0384  153.4350 H   0  0  0  0  0  0  0  0  0  0  0  0
  148.3259  133.2948  154.3785 H   0  0  0  0  0  0  0  0  0  0  0  0
  149.6697  133.7588  156.4026 H   0  0  0  0  0  0  0  0  0  0  0  0
  151.1515  133.3460  155.5700 H   0  0  0  0  0  0  0  0  0  0  0  0
  149.6847  135.4182  154.1896 H   0  0  0  0  0  0  0  0  0  0  0  0
  151.9637  137.5842  154.3050 H   0  0  0  0  0  0  0  0  0  0  0  0
  150.2344  137.5595  154.1851 H   0  0  0  0  0  0  0  0  0  0  0  0
  150.7863  141.2230  158.6274 H   0  0  0  0  0  0  0  0  0  0  0  0
  150.7677  141.9277  156.2928 H   0  0  0  0  0  0  0  0  0  0  0  0
  147.4411  129.4854  155.3896 H   0  0  0  0  0  0  0  0  0  0  0  0
  148.9326  128.7668  154.8357 H   0  0  0  0  0  0  0  0  0  0  0  0
  148.9800  130.4408  153.0926 H   0  0  0  0  0  0  0  0  0  0  0  0
  1  2  1  0  0  0  0
  1 25  1  0  0  0  0
  1 26  1  0  0  0  0
  1 27  1  0  0  0  0
  2 23  1  0  0  0  0
  2  3  1  0  0  0  0
  2 28  1  0  0  0  0
  3  4  1  0  0  0  0
  3 29  1  0  0  0  0
  3 30  1  0  0  0  0
  4  5  1  0  0  0  0
  4  6  1  0  0  0  0
  4 31  1  0  0  0  0
  5 32  1  0  0  0  0
  5 33  1  0  0  0  0
  5 34  1  0  0  0  0
  6  7  1  0  0  0  0
  6 35  1  0  0  0  0
  6 36  1  0  0  0  0
  7  8  1  0  0  0  0
  7 23  1  0  0  0  0
  7 50  1  0  0  0  0
  8  9  1  0  0  0  0
  8 37  1  0  0  0  0
  8 38  1  0  0  0  0
  9 10  1  0  0  0  0
  9 39  1  0  0  0  0
  9 40  1  0  0  0  0
 10 11  1  0  0  0  0
 10 41  1  0  0  0  0
 10 42  1  0  0  0  0
 11 12  1  0  0  0  0
 11 43  1  0  0  0  0
 12 13  2  0  0  0  0
 12 14  1  0  0  0  0
 14 44  1  0  0  0  0
 14 45  1  0  0  0  0
 14 15  1  0  0  0  0
 15 16  1  0  0  0  0
 15 21  1  0  0  0  0
 16 17  2  0  0  0  0
 17 18  1  0  0  0  0
 17 19  1  0  0  0  0
 18 24  1  0  0  0  0
 19 46  1  0  0  0  0
 19 20  2  0  0  0  0
 20 47  1  0  0  0  0
 20 21  1  0  0  0  0
 21 22  2  0  0  0  0
 23 48  1  0  0  0  0
 23 49  1  0  0  0  0
M  CHG  1   7   1
M  END
> <s_m_source_file>
AV-unprocessed.smi

> <i_m_source_file_index>
1261

> <i_lp_mmshare_version>
43012

> <i_f3d_flags>
0

> <s_epik_input>
W0NIM11bQ0BASF0xW0NIMl1bQ0BASF0oW0NIM10pW0NIMl1OKFtDSDJdMSlbQ0gyXVtDSDJdW0NIMl1bTkhdQyg9TylbQ0gyXW4yW25IXWMoPU8pW2NIXVtjSF1jMj1P

> <s_epik_cmdline>
J2VwaWtfcHl0aG9uJywgJy1waCcsICc3LjAnLCAnLXRuJywgJzgnLCAnLW1hJywgJzIwMCcsICctbWV0YWxfYmluZGluZycsICctaW1hZScsICc8aW5maWxlLm1hZT4nLCAnLW9tYWUnLCAnPG91dGZpbGUubWFlPic=

> <r_lp_tautomer_probability>
0.9996

> <r_epik_Ionization_Penalty>
2.1425

> <r_epik_Ionization_Penalty_Charging>
0.000312112

> <r_epik_Ionization_Penalty_Neutral>
2.14218

> <r_epik_State_Penalty>
1.71978

> <r_epik_Charging_Adjusted_Penalty>
1.72009

> <i_epik_Tot_Q>
1

> <i_epik_Tot_abs_Q>
1

> <r_epik_Metal_State_Penalty>
1.71978

> <b_epik_Metal_Only>
0

> <s_lp_Force_Field>
OPLS_2005

> <r_lp_Energy>
29.6525

> <b_lp_Chiralities_Consistent>
1

> <s_lp_Variant>
AV-unprocessed.smi:1261-5

> <Gold.Version>
5.8.1

> <Gold.Id.Protein>
6NUR|6NUR_protein|mol2

> <Gold.PLP.Fitness>
54.0109

> <Gold.PLP.PLP>
-42.9158

> <Gold.PLP.part.hbond>
-4.0394

> <Gold.PLP.part.metal>
0.0000

> <Gold.PLP.part.buried>
-4.8630

> <Gold.PLP.part.nonpolar>
-33.8240

> <Gold.PLP.part.repulsive>
0.6399

> <Gold.PLP.ligand.clash>
0.0000

> <Gold.PLP.ligand.torsion>
0.4684

> <Gold.PLP.Chemscore.Hbond>
3.9920

> <Gold.PLP.Chemscore.CHOScore>
0.0000

> <Gold.PLP.Chemscore.Metal>
0.0000

> <Gold.Chemscore.Hbonds>
donor molecule, donor type, donor heavy atom, donor atom, acceptor molecule, acceptor atom, score
      P1  H  7989  7998       L1    22  0.31
      P1  H 10752 10763       L1    13  0.30

> <Gold.PLP.Chemscore.Internal.Correction>
0.0560

> <Gold.Rescore>
     Score         DG    S(hbond)    S(metal)    S(lipo)     H(rot)  DE(clash)    DE(int)     intcor
     17.48     -19.52       3.44        0.00      90.30       3.14       0.06       1.98       ----

> <Gold.Chemscore.Fitness>
17.4771

> <Gold.Chemscore.DG>
-19.5174

> <Gold.Chemscore.ZeroCoef>
-5.4800

> <Gold.Chemscore.Hbond>
3.4427

> <Gold.Chemscore.Metal>
0.0000

> <Gold.Chemscore.Lipo>
90.2974

> <Gold.Chemscore.Internal_Hbond>
0.0000

> <Gold.Chemscore.DEClash>
0.0623

> <Gold.Chemscore.DEInternal>
1.9780

> <Gold.Chemscore.Rot>
3.1352

> <Gold.Chemscore.Internal.Correction>
   9.000000E+99

> <Gold.Chemscore.Hbonds>
donor molecule, donor type, donor heavy atom, donor atom, acceptor molecule, acceptor atom, score
      P1  H  7989  7998       L1    22  0.31

> <Gold.Chemscore.Hbond.Weighted>
-11.4986

> <Gold.Chemscore.Metal.Weighted>
-0.0000

> <Gold.Chemscore.Lipo.Weighted>
-10.5648

> <Gold.Chemscore.Internal_Hbond.Weighted>
0.0000

> <Gold.Chemscore.DEClash.Weighted>
0.0623

> <Gold.Chemscore.DEInternal.Weighted>
1.9780

> <Gold.Chemscore.Rot.Weighted>
8.0260

> <Gold.Chemscore.Internal.Correction.Weighted>
   9.000000E+99

> <Gold.Protein.RotatedTorsions>
[ 6907 6896 6895 6894 ] final -104.63 input  -60.11 | X-H torsion
[ 7974 7965 7964 7962 ] final  -47.98 input  175.53 | X-H torsion
[ 8008 7997 7996 7995 ] final  177.33 input   59.86 | X-H torsion
[ 10167 10162 10161 10158 ] final  -38.51 input  -65.29 | X-H torsion
[ 10718 10713 10712 10709 ] final -157.56 input   66.30 | X-H torsion
[ 10763 10752 10751 10750 ] final   97.47 input  -60.55 | X-H torsion
[ 11005 11000 10999 10996 ] final -160.50 input  -57.11 | X-H torsion

> <Gold.Protein.ActiveResidues>
 VAL166  LYS551  ARG553  GLY616  TRP617  ASP618  TYR619  PRO620  LYS621  CYS622 
 ASP623  PHE694  ASN695  SER759  ASP760  ASP761  ALA762  ILE779  LEU786  VAL792 
 PHE793  MET794  SER795  GLU796  ALA797  LYS798  CYS799  TRP800  GLU811  SER814 

> <Gold.Protein.RotatedAtoms>
  150.7297  134.0248  159.3713 H   0  0  0  0  0  0  0  0  0  0  0  0  # atno 6907 bound_to 6896
  151.8214  135.0648  160.0435 H   0  0  0  0  0  0  0  0  0  0  0  0  # atno 6908 bound_to 6896
  152.3000  133.5610  159.5649 H   0  0  0  0  0  0  0  0  0  0  0  0  # atno 6909 bound_to 6896
  145.9560  140.7526  142.9481 H   0  0  0  0  0  0  0  0  0  0  0  0  # atno 7974 bound_to 7965
  156.0668  140.1361  156.9876 H   0  0  0  0  0  0  0  0  0  0  0  0  # atno 8008 bound_to 7997
  154.4510  140.0980  156.6670 H   0  0  0  0  0  0  0  0  0  0  0  0  # atno 8009 bound_to 7997
  155.5291  140.3458  155.4424 H   0  0  0  0  0  0  0  0  0  0  0  0  # atno 8010 bound_to 7997
  140.7090  143.3272  151.2651 H   0  0  0  0  0  0  0  0  0  0  0  0  # atno 10167 bound_to 10162
  156.5419  130.8567  151.2752 H   0  0  0  0  0  0  0  0  0  0  0  0  # atno 10718 bound_to 10713
  153.2774  135.4182  155.1045 H   0  0  0  0  0  0  0  0  0  0  0  0  # atno 10763 bound_to 10752
  154.8477  135.3487  154.6160 H   0  0  0  0  0  0  0  0  0  0  0  0  # atno 10764 bound_to 10752
  153.6580  135.7049  153.5244 H   0  0  0  0  0  0  0  0  0  0  0  0  # atno 10765 bound_to 10752
  140.6309  134.4652  157.5229 H   0  0  0  0  0  0  0  0  0  0  0  0  # atno 11005 bound_to 11000
  144.6805  140.2512  143.7331 LP  0  0  0  0  0  0  0  0  0  0  0  0  # atno 17320 bound_to 7965
  145.8106  139.2001  143.1995 LP  0  0  0  0  0  0  0  0  0  0  0  0  # atno 17321 bound_to 7965
  139.6744  143.9963  152.2772 LP  0  0  0  0  0  0  0  0  0  0  0  0  # atno 17342 bound_to 10162
  139.9572  144.6581  150.8114 LP  0  0  0  0  0  0  0  0  0  0  0  0  # atno 17343 bound_to 10162
  157.7403  130.9849  150.2373 LP  0  0  0  0  0  0  0  0  0  0  0  0  # atno 17370 bound_to 10713
  156.2963  130.3752  149.7793 LP  0  0  0  0  0  0  0  0  0  0  0  0  # atno 17371 bound_to 10713
  139.9116  134.8332  156.1507 LP  0  0  0  0  0  0  0  0  0  0  0  0  # atno 17394 bound_to 11000
  141.0676  133.6812  156.2076 LP  0  0  0  0  0  0  0  0  0  0  0  0  # atno 17395 bound_to 11000

$$$$
