AV-unprocessed.smi:3027|AV-procd|sdf|11516|dock7
  -GOLD-   2272016453D 1   1.00000     0.00000
 Structure written by MMmdl.
 37 38  0  0  0  0  0  0  0  0  2 V2000
  153.3637  142.8184  162.2569 C   0  0  0  0  0  0  0  0  0  0  0  0
  152.7076  143.3986  161.0374 C   0  0  0  0  0  0  0  0  0  0  0  0
  152.0159  144.6379  160.9215 C   0  0  0  0  0  0  0  0  0  0  0  0
  151.5561  144.8573  159.7004 N   0  0  0  0  0  0  0  0  0  0  0  0
  151.9338  143.7685  158.9975 N   0  0  0  0  0  0  0  0  0  0  0  0
  151.6049  143.6700  157.5875 C   0  0  0  0  0  0  0  0  0  0  0  0
  150.8220  142.3854  157.2454 C   0  0  1  0  0  0  0  0  0  0  0  0
  149.7745  142.0829  158.3249 C   0  0  0  0  0  0  0  0  0  0  0  0
  150.1509  142.5022  155.9296 N   0  3  0  0  0  0  0  0  0  0  0  0
  149.2604  141.3777  155.5667 C   0  0  0  0  0  0  0  0  0  0  0  0
  150.0249  140.2213  154.9249 C   0  0  0  0  0  0  0  0  0  0  0  0
  148.9478  139.4170  154.1911 C   0  0  0  0  0  0  0  0  0  0  0  0
  147.8231  140.4121  153.8615 C   0  0  0  0  0  0  0  0  0  0  0  0
  148.2260  141.7476  154.5001 C   0  0  0  0  0  0  0  0  0  0  0  0
  152.6282  142.8708  159.7800 C   0  0  0  0  0  0  0  0  0  0  0  0
  153.2216  143.4502  163.1338 H   0  0  0  0  0  0  0  0  0  0  0  0
  154.4383  142.7000  162.1171 H   0  0  0  0  0  0  0  0  0  0  0  0
  152.9601  141.8354  162.5011 H   0  0  0  0  0  0  0  0  0  0  0  0
  151.8374  145.3815  161.6844 H   0  0  0  0  0  0  0  0  0  0  0  0
  151.0141  144.5482  157.3231 H   0  0  0  0  0  0  0  0  0  0  0  0
  152.5239  143.7295  157.0017 H   0  0  0  0  0  0  0  0  0  0  0  0
  151.5166  141.5441  157.2268 H   0  0  0  0  0  0  0  0  0  0  0  0
  150.2420  141.9596  159.3024 H   0  0  0  0  0  0  0  0  0  0  0  0
  149.2361  141.1611  158.1017 H   0  0  0  0  0  0  0  0  0  0  0  0
  149.0417  142.8865  158.4059 H   0  0  0  0  0  0  0  0  0  0  0  0
  149.5981  143.3473  155.9224 H   0  0  0  0  0  0  0  0  0  0  0  0
  148.7481  141.0026  156.4533 H   0  0  0  0  0  0  0  0  0  0  0  0
  150.7471  140.6033  154.2016 H   0  0  0  0  0  0  0  0  0  0  0  0
  150.5699  139.6218  155.6549 H   0  0  0  0  0  0  0  0  0  0  0  0
  149.3446  138.9327  153.2983 H   0  0  0  0  0  0  0  0  0  0  0  0
  148.5625  138.6324  154.8437 H   0  0  0  0  0  0  0  0  0  0  0  0
  147.6808  140.5195  152.7857 H   0  0  0  0  0  0  0  0  0  0  0  0
  146.8802  140.0581  154.2802 H   0  0  0  0  0  0  0  0  0  0  0  0
  147.3703  142.2838  154.9111 H   0  0  0  0  0  0  0  0  0  0  0  0
  148.6824  142.3860  153.7420 H   0  0  0  0  0  0  0  0  0  0  0  0
  153.0088  141.9421  159.3803 H   0  0  0  0  0  0  0  0  0  0  0  0
  150.8693  142.5848  155.2240 H   0  0  0  0  0  0  0  0  0  0  0  0
  1  2  1  0  0  0  0
  1 16  1  0  0  0  0
  1 17  1  0  0  0  0
  1 18  1  0  0  0  0
  2 15  2  0  0  0  0
  2  3  1  0  0  0  0
  3  4  2  0  0  0  0
  3 19  1  0  0  0  0
  4  5  1  0  0  0  0
  5  6  1  0  0  0  0
  5 15  1  0  0  0  0
  6  7  1  0  0  0  0
  6 20  1  0  0  0  0
  6 21  1  0  0  0  0
  7  8  1  0  0  0  0
  7  9  1  0  0  0  0
  7 22  1  0  0  0  0
  8 23  1  0  0  0  0
  8 24  1  0  0  0  0
  8 25  1  0  0  0  0
  9 10  1  0  0  0  0
  9 26  1  0  0  0  0
  9 37  1  0  0  0  0
 10 14  1  0  0  0  0
 10 11  1  0  0  0  0
 10 27  1  0  0  0  0
 11 12  1  0  0  0  0
 11 28  1  0  0  0  0
 11 29  1  0  0  0  0
 12 13  1  0  0  0  0
 12 30  1  0  0  0  0
 12 31  1  0  0  0  0
 13 14  1  0  0  0  0
 13 32  1  0  0  0  0
 13 33  1  0  0  0  0
 14 34  1  0  0  0  0
 14 35  1  0  0  0  0
 15 36  1  0  0  0  0
M  CHG  1   9   1
M  END
> <s_m_source_file>
AV-unprocessed.smi

> <i_m_source_file_index>
3027

> <i_lp_mmshare_version>
43012

> <i_f3d_flags>
0

> <s_epik_input>
W0NIM11jMVtjSF1ubihbY0hdMSlbQ0gyXVtDQEhdKFtDSDNdKVtOSF1bQ0hdMltDSDJdW0NIMl1bQ0gyXVtDSDJdMg==

> <s_epik_cmdline>
J2VwaWtfcHl0aG9uJywgJy1waCcsICc3LjAnLCAnLXRuJywgJzgnLCAnLW1hJywgJzIwMCcsICctbWV0YWxfYmluZGluZycsICctaW1hZScsICc8aW5maWxlLm1hZT4nLCAnLW9tYWUnLCAnPG91dGZpbGUubWFlPic=

> <r_lp_tautomer_probability>
1

> <r_epik_Ionization_Penalty>
0.00150056

> <r_epik_Ionization_Penalty_Charging>
0.00149132

> <r_epik_Ionization_Penalty_Neutral>
9.24096e-06

> <r_epik_State_Penalty>
0.00099871

> <r_epik_Charging_Adjusted_Penalty>
0.00249003

> <i_epik_Tot_Q>
1

> <i_epik_Tot_abs_Q>
1

> <r_epik_Metal_State_Penalty>
-0

> <b_epik_Metal_Only>
0

> <s_lp_Force_Field>
OPLS_2005

> <r_lp_Energy>
25.7776

> <b_lp_Chiralities_Consistent>
1

> <s_lp_Variant>
AV-unprocessed.smi:3027-2

> <Gold.Version>
5.8.1

> <Gold.Id.Protein>
6NUR|6NUR_protein|mol2

> <Gold.PLP.Fitness>
45.1989

> <Gold.PLP.PLP>
-40.0630

> <Gold.PLP.part.hbond>
-1.0000

> <Gold.PLP.part.metal>
0.0000

> <Gold.PLP.part.buried>
-3.2286

> <Gold.PLP.part.nonpolar>
-35.7117

> <Gold.PLP.part.repulsive>
0.2379

> <Gold.PLP.ligand.clash>
0.0000

> <Gold.PLP.ligand.torsion>
0.4452

> <Gold.PLP.Chemscore.Hbond>
2.0000

> <Gold.PLP.Chemscore.CHOScore>
0.0000

> <Gold.PLP.Chemscore.Metal>
0.0000

> <Gold.Chemscore.Hbonds>
donor molecule, donor type, donor heavy atom, donor atom, acceptor molecule, acceptor atom, score
      L1  H     9    26       P1  8028  2.00

> <Gold.PLP.Chemscore.Internal.Correction>
0.0264

> <Gold.Rescore>
     Score         DG    S(hbond)    S(metal)    S(lipo)     H(rot)  DE(clash)    DE(int)     intcor
     16.88     -17.28       1.00        0.00     103.02       1.40       0.01       0.38       ----

> <Gold.Chemscore.Fitness>
16.8815

> <Gold.Chemscore.DG>
-17.2763

> <Gold.Chemscore.ZeroCoef>
-5.4800

> <Gold.Chemscore.Hbond>
0.9953

> <Gold.Chemscore.Metal>
0.0000

> <Gold.Chemscore.Lipo>
103.0232

> <Gold.Chemscore.Internal_Hbond>
0.0000

> <Gold.Chemscore.DEClash>
0.0115

> <Gold.Chemscore.DEInternal>
0.3833

> <Gold.Chemscore.Rot>
1.3991

> <Gold.Chemscore.Internal.Correction>
   9.000000E+99

> <Gold.Chemscore.Hbonds>
donor molecule, donor type, donor heavy atom, donor atom, acceptor molecule, acceptor atom, score
      L1  H     9    26       P1  8028  0.97

> <Gold.Chemscore.Hbond.Weighted>
-3.3244

> <Gold.Chemscore.Metal.Weighted>
-0.0000

> <Gold.Chemscore.Lipo.Weighted>
-12.0537

> <Gold.Chemscore.Internal_Hbond.Weighted>
0.0000

> <Gold.Chemscore.DEClash.Weighted>
0.0115

> <Gold.Chemscore.DEInternal.Weighted>
0.3833

> <Gold.Chemscore.Rot.Weighted>
3.5818

> <Gold.Chemscore.Internal.Correction.Weighted>
   9.000000E+99

> <Gold.Protein.RotatedTorsions>
[ 6907 6896 6895 6894 ] final   39.08 input  -60.11 | X-H torsion
[ 7974 7965 7964 7962 ] final  145.46 input  175.53 | X-H torsion
[ 8008 7997 7996 7995 ] final  -97.49 input   59.86 | X-H torsion
[ 10167 10162 10161 10158 ] final  -80.62 input  -65.29 | X-H torsion
[ 10718 10713 10712 10709 ] final  -74.19 input   66.30 | X-H torsion
[ 10763 10752 10751 10750 ] final  -68.98 input  -60.55 | X-H torsion
[ 11005 11000 10999 10996 ] final -120.37 input  -57.11 | X-H torsion

> <Gold.Protein.ActiveResidues>
 VAL166  LYS551  ARG553  GLY616  TRP617  ASP618  TYR619  PRO620  LYS621  CYS622 
 ASP623  PHE694  ASN695  SER759  ASP760  ASP761  ALA762  ILE779  LEU786  VAL792 
 PHE793  MET794  SER795  GLU796  ALA797  LYS798  CYS799  TRP800  GLU811  SER814 

> <Gold.Protein.RotatedAtoms>
  152.1649  134.8882  160.0538 H   0  0  0  0  0  0  0  0  0  0  0  0  # atno 6907 bound_to 6896
  151.9864  133.3770  159.4135 H   0  0  0  0  0  0  0  0  0  0  0  0  # atno 6908 bound_to 6896
  150.6893  134.3907  159.5119 H   0  0  0  0  0  0  0  0  0  0  0  0  # atno 6909 bound_to 6896
  144.8751  139.5785  143.5869 H   0  0  0  0  0  0  0  0  0  0  0  0  # atno 7974 bound_to 7965
  154.7885  140.0462  157.1182 H   0  0  0  0  0  0  0  0  0  0  0  0  # atno 8008 bound_to 7997
  154.9619  140.3078  155.5007 H   0  0  0  0  0  0  0  0  0  0  0  0  # atno 8009 bound_to 7997
  156.2946  140.2269  156.4705 H   0  0  0  0  0  0  0  0  0  0  0  0  # atno 8010 bound_to 7997
  140.4487  143.2490  151.8521 H   0  0  0  0  0  0  0  0  0  0  0  0  # atno 10167 bound_to 10162
  156.0252  130.4411  150.2855 H   0  0  0  0  0  0  0  0  0  0  0  0  # atno 10718 bound_to 10713
  154.3969  135.6040  153.5875 H   0  0  0  0  0  0  0  0  0  0  0  0  # atno 10763 bound_to 10752
  152.9788  135.5897  154.4231 H   0  0  0  0  0  0  0  0  0  0  0  0  # atno 10764 bound_to 10752
  154.4023  135.2843  155.2067 H   0  0  0  0  0  0  0  0  0  0  0  0  # atno 10765 bound_to 10752
  141.0148  134.0211  157.3364 H   0  0  0  0  0  0  0  0  0  0  0  0  # atno 11005 bound_to 11000
  146.2957  139.7271  142.9128 LP  0  0  0  0  0  0  0  0  0  0  0  0  # atno 17320 bound_to 7965
  145.4058  141.0390  143.3045 LP  0  0  0  0  0  0  0  0  0  0  0  0  # atno 17321 bound_to 7965
  139.4795  144.5145  151.8886 LP  0  0  0  0  0  0  0  0  0  0  0  0  # atno 17342 bound_to 10162
  140.4233  144.2214  150.5887 LP  0  0  0  0  0  0  0  0  0  0  0  0  # atno 17343 bound_to 10162
  157.0958  131.0182  151.3104 LP  0  0  0  0  0  0  0  0  0  0  0  0  # atno 17370 bound_to 10713
  157.4818  130.7770  149.7422 LP  0  0  0  0  0  0  0  0  0  0  0  0  # atno 17371 bound_to 10713
  139.9111  135.0190  156.7694 LP  0  0  0  0  0  0  0  0  0  0  0  0  # atno 17394 bound_to 11000
  140.6672  133.9591  155.7837 LP  0  0  0  0  0  0  0  0  0  0  0  0  # atno 17395 bound_to 11000

$$$$
