AV-unprocessed.smi:1908|AV-procd|sdf|7734|dock5
  -GOLD-   22720 9473D 1   1.00000     0.00000
 Structure written by MMmdl.
 27 27  0  0  0  0  0  0  0  0  2 V2000
  152.8205  144.3964  158.2634 C   0  0  0  0  0  0  0  0  0  0  0  0
  151.2909  144.5139  158.2446 C   0  0  0  0  0  0  0  0  0  0  0  0
  150.6713  144.0912  159.5855 C   0  0  0  0  0  0  0  0  0  0  0  0
  150.7546  143.7013  157.1571 N   0  0  0  0  0  0  0  0  0  0  0  0
  150.9455  142.3818  157.0039 C   0  0  0  0  0  0  0  0  0  0  0  0
  151.6303  141.7036  157.7710 O   0  0  0  0  0  0  0  0  0  0  0  0
  150.2858  141.7413  155.7755 C   0  0  0  0  0  0  0  0  0  0  0  0
  150.6651  140.3302  155.5996 N   0  0  0  0  0  0  0  0  0  0  0  0
  152.0357  140.0165  155.5858 C   0  0  0  0  0  0  0  0  0  0  0  0
  152.4735  138.7516  155.4374 C   0  0  0  0  0  0  0  0  0  0  0  0
  151.4841  137.6917  155.2888 C   0  0  0  0  0  0  0  0  0  0  0  0
  151.8659  136.5313  155.1486 O   0  0  0  0  0  0  0  0  0  0  0  0
  150.1659  138.0460  155.3125 N   0  5  0  0  0  0  0  0  0  0  0  0
  149.7351  139.3368  155.4658 C   0  0  0  0  0  0  0  0  0  0  0  0
  148.5401  139.6346  155.4867 O   0  0  0  0  0  0  0  0  0  0  0  0
  153.2512  145.0188  159.0483 H   0  0  0  0  0  0  0  0  0  0  0  0
  153.2502  144.7201  157.3148 H   0  0  0  0  0  0  0  0  0  0  0  0
  153.1392  143.3688  158.4411 H   0  0  0  0  0  0  0  0  0  0  0  0
  151.0433  145.5612  158.0629 H   0  0  0  0  0  0  0  0  0  0  0  0
  151.0594  144.6978  160.4040 H   0  0  0  0  0  0  0  0  0  0  0  0
  150.8907  143.0474  159.8123 H   0  0  0  0  0  0  0  0  0  0  0  0
  149.5874  144.2106  159.5757 H   0  0  0  0  0  0  0  0  0  0  0  0
  150.1782  144.1745  156.4765 H   0  0  0  0  0  0  0  0  0  0  0  0
  149.1999  141.8334  155.8423 H   0  0  0  0  0  0  0  0  0  0  0  0
  150.5685  142.3238  154.8980 H   0  0  0  0  0  0  0  0  0  0  0  0
  152.7015  140.8578  155.7095 H   0  0  0  0  0  0  0  0  0  0  0  0
  153.5297  138.5264  155.4322 H   0  0  0  0  0  0  0  0  0  0  0  0
  1  2  1  0  0  0  0
  1 16  1  0  0  0  0
  1 17  1  0  0  0  0
  1 18  1  0  0  0  0
  2  3  1  0  0  0  0
  2  4  1  0  0  0  0
  2 19  1  0  0  0  0
  3 20  1  0  0  0  0
  3 21  1  0  0  0  0
  3 22  1  0  0  0  0
  4  5  1  0  0  0  0
  4 23  1  0  0  0  0
  5  6  2  0  0  0  0
  5  7  1  0  0  0  0
  7  8  1  0  0  0  0
  7 24  1  0  0  0  0
  7 25  1  0  0  0  0
  8 14  1  0  0  0  0
  8  9  1  0  0  0  0
  9 10  2  0  0  0  0
  9 26  1  0  0  0  0
 10 11  1  0  0  0  0
 10 27  1  0  0  0  0
 11 12  2  0  0  0  0
 11 13  1  0  0  0  0
 13 14  1  0  0  0  0
 14 15  2  0  0  0  0
M  CHG  1  13  -1
M  END
> <s_m_source_file>
AV-unprocessed.smi

> <i_m_source_file_index>
1908

> <i_lp_mmshare_version>
43012

> <i_f3d_flags>
0

> <s_epik_input>
W0NIM11bQ0hdKFtDSDNdKVtOSF1DKD1PKVtDSDJdbjFbY0hdW2NIXWMoPU8pW25IXWMxPU8=

> <s_epik_cmdline>
J2VwaWtfcHl0aG9uJywgJy1waCcsICc3LjAnLCAnLXRuJywgJzgnLCAnLW1hJywgJzIwMCcsICctbWV0YWxfYmluZGluZycsICctaW1hZScsICc8aW5maWxlLm1hZT4nLCAnLW9tYWUnLCAnPG91dGZpbGUubWFlPic=

> <r_lp_tautomer_probability>
0.999537

> <r_epik_Ionization_Penalty>
3.07884

> <r_epik_Ionization_Penalty_Charging>
2.69291e-08

> <r_epik_Ionization_Penalty_Neutral>
3.07884

> <r_epik_State_Penalty>
3.07787

> <r_epik_Charging_Adjusted_Penalty>
3.07787

> <i_epik_Tot_Q>
-1

> <i_epik_Tot_abs_Q>
1

> <r_epik_Metal_State_Penalty>
0.459857

> <b_epik_Metal_Only>
1

> <s_lp_Force_Field>
OPLS_2005

> <r_lp_Energy>
10.6939

> <b_lp_Chiralities_Consistent>
1

> <s_lp_Variant>
AV-unprocessed.smi:1908-2

> <Gold.Version>
5.8.1

> <Gold.Id.Protein>
6NUR|6NUR_protein|mol2

> <Gold.PLP.Fitness>
35.8551

> <Gold.PLP.PLP>
-30.0457

> <Gold.PLP.part.hbond>
-1.9140

> <Gold.PLP.part.metal>
0.0000

> <Gold.PLP.part.buried>
-3.7032

> <Gold.PLP.part.nonpolar>
-25.5573

> <Gold.PLP.part.repulsive>
0.2340

> <Gold.PLP.ligand.clash>
0.0000

> <Gold.PLP.ligand.torsion>
0.0994

> <Gold.PLP.Chemscore.Hbond>
2.0000

> <Gold.PLP.Chemscore.CHOScore>
0.0000

> <Gold.PLP.Chemscore.Metal>
0.0000

> <Gold.Chemscore.Hbonds>
donor molecule, donor type, donor heavy atom, donor atom, acceptor molecule, acceptor atom, score
      L1  H     4    23       P1  8028  1.00
      P1  H 10752 10763       L1    12  1.00

> <Gold.PLP.Chemscore.Internal.Correction>
0.0083

> <Gold.Rescore>
     Score         DG    S(hbond)    S(metal)    S(lipo)     H(rot)  DE(clash)    DE(int)     intcor
     12.60     -14.77       1.98        0.00      60.56       1.72       0.07       2.10       ----

> <Gold.Chemscore.Fitness>
12.6018

> <Gold.Chemscore.DG>
-14.7670

> <Gold.Chemscore.ZeroCoef>
-5.4800

> <Gold.Chemscore.Hbond>
1.9803

> <Gold.Chemscore.Metal>
0.0000

> <Gold.Chemscore.Lipo>
60.5579

> <Gold.Chemscore.Internal_Hbond>
0.0000

> <Gold.Chemscore.DEClash>
0.0679

> <Gold.Chemscore.DEInternal>
2.0972

> <Gold.Chemscore.Rot>
1.7236

> <Gold.Chemscore.Internal.Correction>
   9.000000E+99

> <Gold.Chemscore.Hbonds>
donor molecule, donor type, donor heavy atom, donor atom, acceptor molecule, acceptor atom, score
      L1  H     4    23       P1  8028  0.98
      P1  H 10752 10763       L1    12  0.93

> <Gold.Chemscore.Hbond.Weighted>
-6.6141

> <Gold.Chemscore.Metal.Weighted>
-0.0000

> <Gold.Chemscore.Lipo.Weighted>
-7.0853

> <Gold.Chemscore.Internal_Hbond.Weighted>
0.0000

> <Gold.Chemscore.DEClash.Weighted>
0.0679

> <Gold.Chemscore.DEInternal.Weighted>
2.0972

> <Gold.Chemscore.Rot.Weighted>
4.4124

> <Gold.Chemscore.Internal.Correction.Weighted>
   9.000000E+99

> <Gold.Protein.RotatedTorsions>
[ 6907 6896 6895 6894 ] final -109.66 input  -60.11 | X-H torsion
[ 7974 7965 7964 7962 ] final   32.73 input  175.53 | X-H torsion
[ 8008 7997 7996 7995 ] final   80.71 input   59.86 | X-H torsion
[ 10167 10162 10161 10158 ] final   61.35 input  -65.29 | X-H torsion
[ 10718 10713 10712 10709 ] final   21.12 input   66.30 | X-H torsion
[ 10763 10752 10751 10750 ] final   49.89 input  -60.55 | X-H torsion
[ 11005 11000 10999 10996 ] final  -52.17 input  -57.11 | X-H torsion

> <Gold.Protein.ActiveResidues>
 VAL166  LYS551  ARG553  GLY616  TRP617  ASP618  TYR619  PRO620  LYS621  CYS622 
 ASP623  PHE694  ASN695  SER759  ASP760  ASP761  ALA762  ILE779  LEU786  VAL792 
 PHE793  MET794  SER795  GLU796  ALA797  LYS798  CYS799  TRP800  GLU811  SER814 

> <Gold.Protein.RotatedAtoms>
  150.7575  133.9497  159.3481 H   0  0  0  0  0  0  0  0  0  0  0  0  # atno 6907 bound_to 6896
  151.7413  135.0851  160.0325 H   0  0  0  0  0  0  0  0  0  0  0  0  # atno 6908 bound_to 6896
  152.3526  133.6161  159.5992 H   0  0  0  0  0  0  0  0  0  0  0  0  # atno 6909 bound_to 6896
  146.1467  139.6489  142.9126 H   0  0  0  0  0  0  0  0  0  0  0  0  # atno 7974 bound_to 7965
  155.8872  140.3441  155.5930 H   0  0  0  0  0  0  0  0  0  0  0  0  # atno 8008 bound_to 7997
  155.7652  140.0838  157.2154 H   0  0  0  0  0  0  0  0  0  0  0  0  # atno 8009 bound_to 7997
  154.4030  140.1528  156.2865 H   0  0  0  0  0  0  0  0  0  0  0  0  # atno 8010 bound_to 7997
  140.1557  144.4420  150.6736 H   0  0  0  0  0  0  0  0  0  0  0  0  # atno 10167 bound_to 10162
  157.1341  130.6603  149.5960 H   0  0  0  0  0  0  0  0  0  0  0  0  # atno 10718 bound_to 10713
  152.9785  135.5897  154.4163 H   0  0  0  0  0  0  0  0  0  0  0  0  # atno 10763 bound_to 10752
  154.3792  135.2767  155.2223 H   0  0  0  0  0  0  0  0  0  0  0  0  # atno 10764 bound_to 10752
  154.4144  135.6074  153.6026 H   0  0  0  0  0  0  0  0  0  0  0  0  # atno 10765 bound_to 10752
  141.0910  133.6633  156.3985 H   0  0  0  0  0  0  0  0  0  0  0  0  # atno 11005 bound_to 11000
  145.4919  141.0438  143.2588 LP  0  0  0  0  0  0  0  0  0  0  0  0  # atno 17320 bound_to 7965
  144.7855  139.6435  143.7136 LP  0  0  0  0  0  0  0  0  0  0  0  0  # atno 17321 bound_to 7965
  140.6675  143.2273  151.5708 LP  0  0  0  0  0  0  0  0  0  0  0  0  # atno 17342 bound_to 10162
  139.5405  144.2662  152.1340 LP  0  0  0  0  0  0  0  0  0  0  0  0  # atno 17343 bound_to 10162
  155.9802  130.4801  150.6758 LP  0  0  0  0  0  0  0  0  0  0  0  0  # atno 17370 bound_to 10713
  157.4366  131.0856  151.0985 LP  0  0  0  0  0  0  0  0  0  0  0  0  # atno 17371 bound_to 10713
  140.5252  134.6266  157.5331 LP  0  0  0  0  0  0  0  0  0  0  0  0  # atno 17394 bound_to 11000
  139.9736  134.7252  155.9993 LP  0  0  0  0  0  0  0  0  0  0  0  0  # atno 17395 bound_to 11000

$$$$
