AV-unprocessed.smi:2557|AV-procd|sdf|10029|dock1
  -GOLD-   2272014 73D 1   1.00000     0.00000
 Structure written by MMmdl.
 39 41  0  0  0  0  0  0  0  0  3 V2000
  154.0944  135.6854  160.1379 O   0  5  0  0  0  0  0  0  0  0  0  0
  154.0665  136.8003  160.7102 C   0  0  0  0  0  0  0  0  0  0  0  0
  153.6172  138.0604  160.3069 C   0  0  0  0  0  0  0  0  0  0  0  0
  153.0056  138.2689  158.9681 C   0  0  0  0  0  0  0  0  0  0  0  0
  152.8922  137.3589  158.1474 O   0  0  0  0  0  0  0  0  0  0  0  0
  152.5444  139.5525  158.6389 N   0  0  0  0  0  0  0  0  0  0  0  0
  152.6644  140.5242  159.4921 C   0  0  0  0  0  0  0  0  0  0  0  0
  152.1802  141.9409  159.1709 C   0  0  0  0  0  0  0  0  0  0  0  0
  151.4835  142.0624  157.7937 C   0  0  0  0  0  0  0  0  0  0  0  0
  150.9793  143.4922  157.5396 C   0  0  0  0  0  0  0  0  0  0  0  0
  152.1221  144.5116  157.6546 C   0  0  0  0  0  0  0  0  0  0  0  0
  152.8205  144.4068  159.0187 C   0  0  0  0  0  0  0  0  0  0  0  0
  153.3218  142.9772  159.2846 C   0  0  0  0  0  0  0  0  0  0  0  0
  153.2383  140.4133  160.7456 N   0  0  0  0  0  0  0  0  0  0  0  0
  153.7099  139.1690  161.1477 N   0  0  0  0  0  0  0  0  0  0  0  0
  154.6971  136.6634  162.0356 C   0  0  0  0  0  0  0  0  0  0  0  0
  156.0127  136.1608  162.1603 C   0  0  0  0  0  0  0  0  0  0  0  0
  156.5849  136.0249  163.4411 C   0  0  0  0  0  0  0  0  0  0  0  0
  155.8730  136.3718  164.5355 N   0  3  0  0  0  0  0  0  0  0  0  0
  154.6120  136.8511  164.4656 C   0  0  0  0  0  0  0  0  0  0  0  0
  153.9897  137.0073  163.2109 C   0  0  0  0  0  0  0  0  0  0  0  0
  151.4326  142.1937  159.9247 H   0  0  0  0  0  0  0  0  0  0  0  0
  152.1743  141.7836  156.9963 H   0  0  0  0  0  0  0  0  0  0  0  0
  150.6432  141.3692  157.7335 H   0  0  0  0  0  0  0  0  0  0  0  0
  150.5237  143.5549  156.5510 H   0  0  0  0  0  0  0  0  0  0  0  0
  150.1954  143.7369  158.2574 H   0  0  0  0  0  0  0  0  0  0  0  0
  152.8471  144.3397  156.8581 H   0  0  0  0  0  0  0  0  0  0  0  0
  151.7365  145.5210  157.5103 H   0  0  0  0  0  0  0  0  0  0  0  0
  153.6553  145.1068  159.0621 H   0  0  0  0  0  0  0  0  0  0  0  0
  152.1274  144.7031  159.8070 H   0  0  0  0  0  0  0  0  0  0  0  0
  153.7774  142.9405  160.2750 H   0  0  0  0  0  0  0  0  0  0  0  0
  154.1126  142.7334  158.5733 H   0  0  0  0  0  0  0  0  0  0  0  0
  153.3293  141.1784  161.3983 H   0  0  0  0  0  0  0  0  0  0  0  0
  154.0943  139.0828  162.0772 H   0  0  0  0  0  0  0  0  0  0  0  0
  156.5726  135.8815  161.2795 H   0  0  0  0  0  0  0  0  0  0  0  0
  157.5814  135.6492  163.6213 H   0  0  0  0  0  0  0  0  0  0  0  0
  154.1411  137.0910  165.4076 H   0  0  0  0  0  0  0  0  0  0  0  0
  152.9800  137.3864  163.1454 H   0  0  0  0  0  0  0  0  0  0  0  0
  156.3047  136.2644  165.4537 H   0  0  0  0  0  0  0  0  0  0  0  0
  1  2  1  0  0  0  0
  2  3  2  0  0  0  0
  2 16  1  0  0  0  0
  3 15  1  0  0  0  0
  3  4  1  0  0  0  0
  4  5  2  0  0  0  0
  4  6  1  0  0  0  0
  6  7  2  0  0  0  0
  7  8  1  0  0  0  0
  7 14  1  0  0  0  0
  8 13  1  0  0  0  0
  8  9  1  0  0  0  0
  8 22  1  0  0  0  0
  9 10  1  0  0  0  0
  9 23  1  0  0  0  0
  9 24  1  0  0  0  0
 10 11  1  0  0  0  0
 10 25  1  0  0  0  0
 10 26  1  0  0  0  0
 11 12  1  0  0  0  0
 11 27  1  0  0  0  0
 11 28  1  0  0  0  0
 12 13  1  0  0  0  0
 12 29  1  0  0  0  0
 12 30  1  0  0  0  0
 13 31  1  0  0  0  0
 13 32  1  0  0  0  0
 14 15  1  0  0  0  0
 14 33  1  0  0  0  0
 15 34  1  0  0  0  0
 16 21  1  0  0  0  0
 16 17  2  0  0  0  0
 17 18  1  0  0  0  0
 17 35  1  0  0  0  0
 18 19  2  0  0  0  0
 18 36  1  0  0  0  0
 19 20  1  0  0  0  0
 19 39  1  0  0  0  0
 20 21  2  0  0  0  0
 20 37  1  0  0  0  0
 21 38  1  0  0  0  0
M  CHG  1   1  -1
M  CHG  1  19   1
M  END
> <s_m_source_file>
AV-unprocessed.smi

> <i_m_source_file_index>
2557

> <i_lp_mmshare_version>
43012

> <i_f3d_flags>
0

> <s_epik_input>
W2NIXTFbY0hdbltjSF1bY0hdYzFDKD1PKUMyPUMoW09IXSlOPUMoW05IXVtOSF0yKVtDSF0zW0NIMl1bQ0gyXVtDSDJdW0NIMl1bQ0gyXTM=

> <s_epik_cmdline>
J2VwaWtfcHl0aG9uJywgJy1waCcsICc3LjAnLCAnLXRuJywgJzgnLCAnLW1hJywgJzIwMCcsICctbWV0YWxfYmluZGluZycsICctaW1hZScsICc8aW5maWxlLm1hZT4nLCAnLW9tYWUnLCAnPG91dGZpbGUubWFlPic=

> <r_epik_Ionization_Penalty>
0.514573

> <r_epik_Ionization_Penalty_Charging>
0.470311

> <r_epik_Ionization_Penalty_Neutral>
0.0442626

> <r_epik_State_Penalty>
1.93511

> <r_epik_Charging_Adjusted_Penalty>
2.40542

> <i_epik_Tot_Q>
0

> <i_epik_Tot_abs_Q>
2

> <r_epik_Metal_State_Penalty>
5.62711

> <b_epik_Metal_Only>
0

> <s_epik_Chemistry_Notes>
This compound has an imine and may undergo hydrolysis.

> <s_lp_Force_Field>
OPLS_2005

> <r_lp_Energy>
35.5882

> <b_lp_Chiralities_Consistent>
1

> <s_lp_Variant>
AV-unprocessed.smi:2557-3

> <Gold.Version>
5.8.1

> <Gold.Id.Protein>
6NUR|6NUR_protein|mol2

> <Gold.PLP.Fitness>
39.0469

> <Gold.PLP.PLP>
-33.0509

> <Gold.PLP.part.hbond>
-1.2047

> <Gold.PLP.part.metal>
0.0000

> <Gold.PLP.part.buried>
-0.6693

> <Gold.PLP.part.nonpolar>
-31.0251

> <Gold.PLP.part.repulsive>
0.1673

> <Gold.PLP.ligand.clash>
0.0000

> <Gold.PLP.ligand.torsion>
1.0812

> <Gold.PLP.Chemscore.Hbond>
2.0000

> <Gold.PLP.Chemscore.CHOScore>
0.0000

> <Gold.PLP.Chemscore.Metal>
0.0000

> <Gold.Chemscore.Hbonds>
donor molecule, donor type, donor heavy atom, donor atom, acceptor molecule, acceptor atom, score
      P1  H  6896  6907       L1     1  2.00

> <Gold.PLP.Chemscore.Internal.Correction>
2.1584

> <Gold.Rescore>
     Score         DG    S(hbond)    S(metal)    S(lipo)     H(rot)  DE(clash)    DE(int)     intcor
     17.38     -18.74       1.00        0.00     106.84       1.00       0.05       1.31       ----

> <Gold.Chemscore.Fitness>
17.3795

> <Gold.Chemscore.DG>
-18.7445

> <Gold.Chemscore.ZeroCoef>
-5.4800

> <Gold.Chemscore.Hbond>
0.9954

> <Gold.Chemscore.Metal>
0.0000

> <Gold.Chemscore.Lipo>
106.8361

> <Gold.Chemscore.Internal_Hbond>
0.0000

> <Gold.Chemscore.DEClash>
0.0533

> <Gold.Chemscore.DEInternal>
1.3117

> <Gold.Chemscore.Rot>
1.0000

> <Gold.Chemscore.Internal.Correction>
   9.000000E+99

> <Gold.Chemscore.Hbonds>
donor molecule, donor type, donor heavy atom, donor atom, acceptor molecule, acceptor atom, score
      P1  H  6896  6907       L1     1  0.87

> <Gold.Chemscore.Hbond.Weighted>
-3.3247

> <Gold.Chemscore.Metal.Weighted>
-0.0000

> <Gold.Chemscore.Lipo.Weighted>
-12.4998

> <Gold.Chemscore.Internal_Hbond.Weighted>
0.0000

> <Gold.Chemscore.DEClash.Weighted>
0.0533

> <Gold.Chemscore.DEInternal.Weighted>
1.3117

> <Gold.Chemscore.Rot.Weighted>
2.5600

> <Gold.Chemscore.Internal.Correction.Weighted>
   9.000000E+99

> <Gold.Protein.RotatedTorsions>
[ 6907 6896 6895 6894 ] final   50.64 input  -60.11 | X-H torsion
[ 7974 7965 7964 7962 ] final -114.47 input  175.53 | X-H torsion
[ 8008 7997 7996 7995 ] final -169.79 input   59.86 | X-H torsion
[ 10167 10162 10161 10158 ] final -146.25 input  -65.29 | X-H torsion
[ 10718 10713 10712 10709 ] final  -68.14 input   66.30 | X-H torsion
[ 10763 10752 10751 10750 ] final  -19.99 input  -60.55 | X-H torsion
[ 11005 11000 10999 10996 ] final    9.04 input  -57.11 | X-H torsion

> <Gold.Protein.ActiveResidues>
 VAL166  LYS551  ARG553  GLY616  TRP617  ASP618  TYR619  PRO620  LYS621  CYS622 
 ASP623  PHE694  ASN695  SER759  ASP760  ASP761  ALA762  ILE779  LEU786  VAL792 
 PHE793  MET794  SER795  GLU796  ALA797  LYS798  CYS799  TRP800  GLU811  SER814 

> <Gold.Protein.RotatedAtoms>
  152.3041  134.7576  160.0351 H   0  0  0  0  0  0  0  0  0  0  0  0  # atno 6907 bound_to 6896
  151.8080  133.3373  159.3555 H   0  0  0  0  0  0  0  0  0  0  0  0  # atno 6908 bound_to 6896
  150.7288  134.5621  159.5892 H   0  0  0  0  0  0  0  0  0  0  0  0  # atno 6909 bound_to 6896
  145.1197  140.8662  143.3821 H   0  0  0  0  0  0  0  0  0  0  0  0  # atno 7974 bound_to 7965
  155.9097  140.1055  157.1288 H   0  0  0  0  0  0  0  0  0  0  0  0  # atno 8008 bound_to 7997
  154.4037  140.1276  156.4606 H   0  0  0  0  0  0  0  0  0  0  0  0  # atno 8009 bound_to 7997
  155.7325  140.3468  155.5068 H   0  0  0  0  0  0  0  0  0  0  0  0  # atno 8010 bound_to 7997
  139.7730  143.8210  152.2627 H   0  0  0  0  0  0  0  0  0  0  0  0  # atno 10167 bound_to 10162
  156.0520  130.4290  150.1957 H   0  0  0  0  0  0  0  0  0  0  0  0  # atno 10718 bound_to 10713
  153.6135  135.6995  153.5338 H   0  0  0  0  0  0  0  0  0  0  0  0  # atno 10763 bound_to 10752
  153.2997  135.4132  155.1241 H   0  0  0  0  0  0  0  0  0  0  0  0  # atno 10764 bound_to 10752
  154.8558  135.3645  154.5674 H   0  0  0  0  0  0  0  0  0  0  0  0  # atno 10765 bound_to 10752
  140.5302  134.0473  155.7871 H   0  0  0  0  0  0  0  0  0  0  0  0  # atno 11005 bound_to 11000
  145.0754  139.3000  143.5811 LP  0  0  0  0  0  0  0  0  0  0  0  0  # atno 17320 bound_to 7965
  146.3521  140.0242  142.8656 LP  0  0  0  0  0  0  0  0  0  0  0  0  # atno 17321 bound_to 7965
  139.8250  144.7279  150.9523 LP  0  0  0  0  0  0  0  0  0  0  0  0  # atno 17342 bound_to 10162
  140.7815  143.4123  151.0973 LP  0  0  0  0  0  0  0  0  0  0  0  0  # atno 17343 bound_to 10162
  157.0039  130.9930  151.3383 LP  0  0  0  0  0  0  0  0  0  0  0  0  # atno 17370 bound_to 10713
  157.5456  130.8148  149.8082 LP  0  0  0  0  0  0  0  0  0  0  0  0  # atno 17371 bound_to 10713
  141.1285  133.9342  157.2585 LP  0  0  0  0  0  0  0  0  0  0  0  0  # atno 17394 bound_to 11000
  139.9558  135.0166  156.9124 LP  0  0  0  0  0  0  0  0  0  0  0  0  # atno 17395 bound_to 11000

$$$$
