AV-unprocessed.smi:157|AV-procd|sdf|1296|dock1
  -GOLD-   2262018583D 1   1.00000     0.00000
 Structure written by MMmdl.
 35 37  0  0  0  0  0  0  0  0  1 V2000
  147.9697  142.8673  154.1214 O   0  0  0  0  0  0  0  0  0  0  0  0
  147.4164  141.9703  155.0611 C   0  0  0  0  0  0  0  0  0  0  0  0
  148.4735  140.9490  155.5162 C   0  0  2  0  0  0  0  0  0  0  0  0
  149.5270  141.5907  156.2349 O   0  0  0  0  0  0  0  0  0  0  0  0
  150.7565  141.0276  155.8883 C   0  0  1  0  0  0  0  0  0  0  0  0
  151.5288  140.7204  157.1352 N   0  0  0  0  0  0  0  0  0  0  0  0
  152.0045  139.5127  157.4616 C   0  0  0  0  0  0  0  0  0  0  0  0
  152.6539  139.4673  158.6121 N   0  0  0  0  0  0  0  0  0  0  0  0
  152.6048  140.7800  159.0775 C   0  0  0  0  0  0  0  0  0  0  0  0
  151.9158  141.5777  158.1741 C   0  0  0  0  0  0  0  0  0  0  0  0
  151.5564  142.9103  158.1062 N   0  0  0  0  0  0  0  0  0  0  0  0
  152.2117  143.7561  158.8367 C   0  0  0  0  0  0  0  0  0  0  0  0
  153.1924  143.5382  159.7934 N   0  0  0  0  0  0  0  0  0  0  0  0
  153.0472  142.5680  160.8648 C   0  0  0  0  0  0  0  0  0  0  0  0
  153.2231  141.1151  160.4054 C   0  0  2  0  0  0  0  0  0  0  0  0
  154.6020  140.8224  160.3063 O   0  0  0  0  0  0  0  0  0  0  0  0
  150.4758  139.7619  155.0779 C   0  0  0  0  0  0  0  0  0  0  0  0
  149.1612  140.1200  154.4175 C   0  0  2  0  0  0  0  0  0  0  0  0
  149.3842  140.8628  153.2330 O   0  0  0  0  0  0  0  0  0  0  0  0
  148.0097  140.2563  156.2207 H   0  0  0  0  0  0  0  0  0  0  0  0
  151.3533  141.7596  155.3418 H   0  0  0  0  0  0  0  0  0  0  0  0
  152.8177  140.4598  161.1770 H   0  0  0  0  0  0  0  0  0  0  0  0
  148.5817  139.2328  154.1612 H   0  0  0  0  0  0  0  0  0  0  0  0
  148.0314  143.7211  154.5222 H   0  0  0  0  0  0  0  0  0  0  0  0
  147.0044  142.5237  155.9051 H   0  0  0  0  0  0  0  0  0  0  0  0
  146.5832  141.4519  154.5863 H   0  0  0  0  0  0  0  0  0  0  0  0
  151.8645  138.6398  156.8410 H   0  0  0  0  0  0  0  0  0  0  0  0
  151.9882  144.8180  158.7265 H   0  0  0  0  0  0  0  0  0  0  0  0
  153.7642  144.3187  160.0824 H   0  0  0  0  0  0  0  0  0  0  0  0
  153.7325  142.8056  161.6790 H   0  0  0  0  0  0  0  0  0  0  0  0
  152.0414  142.6860  161.2705 H   0  0  0  0  0  0  0  0  0  0  0  0
  154.9053  140.5429  161.1569 H   0  0  0  0  0  0  0  0  0  0  0  0
  151.2884  139.5419  154.3846 H   0  0  0  0  0  0  0  0  0  0  0  0
  150.3408  138.9108  155.7459 H   0  0  0  0  0  0  0  0  0  0  0  0
  149.1346  140.3278  152.4949 H   0  0  0  0  0  0  0  0  0  0  0  0
  1  2  1  0  0  0  0
  1 24  1  0  0  0  0
  2  3  1  0  0  0  0
  2 25  1  0  0  0  0
  2 26  1  0  0  0  0
  3 20  1  0  0  0  0
  3 18  1  0  0  0  0
  3  4  1  0  0  0  0
  4  5  1  0  0  0  0
  5 21  1  0  0  0  0
  5  6  1  0  0  0  0
  5 17  1  0  0  0  0
  6 10  1  0  0  0  0
  6  7  1  0  0  0  0
  7  8  2  0  0  0  0
  7 27  1  0  0  0  0
  8  9  1  0  0  0  0
  9 15  1  0  0  0  0
  9 10  2  0  0  0  0
 10 11  1  0  0  0  0
 11 12  2  0  0  0  0
 12 13  1  0  0  0  0
 12 28  1  0  0  0  0
 13 14  1  0  0  0  0
 13 29  1  0  0  0  0
 14 15  1  0  0  0  0
 14 30  1  0  0  0  0
 14 31  1  0  0  0  0
 15 22  1  0  0  0  0
 15 16  1  0  0  0  0
 16 32  1  0  0  0  0
 17 18  1  0  0  0  0
 17 33  1  0  0  0  0
 17 34  1  0  0  0  0
 18 23  1  0  0  0  0
 18 19  1  0  0  0  0
 19 35  1  0  0  0  0
M  END
> <s_m_source_file>
AV-unprocessed.smi

> <i_m_source_file_index>
157

> <i_lp_mmshare_version>
43012

> <i_f3d_flags>
0

> <s_epik_input>
W09IXVtDSDJdW0NASF0xT1tDQEhdKFtDSDJdW0NAQEhdMVtPSF0pbihbY0hdbjIpYyhjMjMpTj1bQ0hdW05IXVtDSDJdW0NASF0zW09IXQ==

> <s_epik_cmdline>
J2VwaWtfcHl0aG9uJywgJy1waCcsICc3LjAnLCAnLXRuJywgJzgnLCAnLW1hJywgJzIwMCcsICctbWV0YWxfYmluZGluZycsICctaW1hZScsICc8aW5maWxlLm1hZT4nLCAnLW9tYWUnLCAnPG91dGZpbGUubWFlPic=

> <r_lp_tautomer_probability>
1

> <r_epik_Ionization_Penalty>
0.0357149

> <r_epik_Ionization_Penalty_Charging>
0.0355056

> <r_epik_Ionization_Penalty_Neutral>
0.000209255

> <r_epik_State_Penalty>
0.0296046

> <r_epik_Charging_Adjusted_Penalty>
0.0651102

> <i_epik_Tot_Q>
0

> <i_epik_Tot_abs_Q>
0

> <r_epik_Metal_State_Penalty>
3.03559e-05

> <b_epik_Metal_Only>
0

> <s_epik_Chemistry_Notes>
This compound has an imine and may undergo hydrolysis. This compound contains an acetal/aminal-like group ( X-CH(R)-Y where X, Y are N, S, or O) that may be acid/base labile, releasing an aldehyde.

> <s_lp_Force_Field>
OPLS_2005

> <r_lp_Energy>
46.6241

> <b_lp_Chiralities_Consistent>
1

> <s_lp_Variant>
AV-unprocessed.smi:157-6

> <Gold.Version>
5.8.1

> <Gold.Id.Protein>
6NUR|6NUR_protein|mol2

> <Gold.PLP.Fitness>
45.2271

> <Gold.PLP.PLP>
-37.4598

> <Gold.PLP.part.hbond>
-4.9674

> <Gold.PLP.part.metal>
0.0000

> <Gold.PLP.part.buried>
-3.9730

> <Gold.PLP.part.nonpolar>
-27.9485

> <Gold.PLP.part.repulsive>
0.1631

> <Gold.PLP.ligand.clash>
0.0000

> <Gold.PLP.ligand.torsion>
0.0398

> <Gold.PLP.Chemscore.Hbond>
2.6149

> <Gold.PLP.Chemscore.CHOScore>
0.0000

> <Gold.PLP.Chemscore.Metal>
0.0000

> <Gold.Chemscore.Hbonds>
donor molecule, donor type, donor heavy atom, donor atom, acceptor molecule, acceptor atom, score
      L1  H     1    24       P1  8028  0.96
      L1  H    19    35       P1  7957  0.60
      P1  H  7989  7998       L1    19  0.09
      P1  H  8011  8017       L1    19  0.90

> <Gold.PLP.Chemscore.Internal.Correction>
0.0024

> <Gold.Rescore>
     Score         DG    S(hbond)    S(metal)    S(lipo)     H(rot)  DE(clash)    DE(int)     intcor
      7.44      -7.48       1.60        0.00      50.95       3.64       0.03       0.01       ----

> <Gold.Chemscore.Fitness>
7.4384

> <Gold.Chemscore.DG>
-7.4775

> <Gold.Chemscore.ZeroCoef>
-5.4800

> <Gold.Chemscore.Hbond>
1.6004

> <Gold.Chemscore.Metal>
0.0000

> <Gold.Chemscore.Lipo>
50.9484

> <Gold.Chemscore.Internal_Hbond>
0.0000

> <Gold.Chemscore.DEClash>
0.0319

> <Gold.Chemscore.DEInternal>
0.0072

> <Gold.Chemscore.Rot>
3.6362

> <Gold.Chemscore.Internal.Correction>
   9.000000E+99

> <Gold.Chemscore.Hbonds>
donor molecule, donor type, donor heavy atom, donor atom, acceptor molecule, acceptor atom, score
      L1  H     1    24       P1  8028  0.65
      L1  H    19    35       P1  7957  0.58
      P1  H  7989  7998       L1    19  0.01
      P1  H  8011  8017       L1    19  0.18

> <Gold.Chemscore.Hbond.Weighted>
-5.3453

> <Gold.Chemscore.Metal.Weighted>
-0.0000

> <Gold.Chemscore.Lipo.Weighted>
-5.9610

> <Gold.Chemscore.Internal_Hbond.Weighted>
0.0000

> <Gold.Chemscore.DEClash.Weighted>
0.0319

> <Gold.Chemscore.DEInternal.Weighted>
0.0072

> <Gold.Chemscore.Rot.Weighted>
9.3087

> <Gold.Chemscore.Internal.Correction.Weighted>
   9.000000E+99

> <Gold.Protein.RotatedTorsions>
[ 6907 6896 6895 6894 ] final   93.50 input  -60.11 | X-H torsion
[ 7974 7965 7964 7962 ] final  -23.76 input  175.53 | X-H torsion
[ 8008 7997 7996 7995 ] final  -97.43 input   59.86 | X-H torsion
[ 10167 10162 10161 10158 ] final -147.16 input  -65.29 | X-H torsion
[ 10718 10713 10712 10709 ] final -174.30 input   66.30 | X-H torsion
[ 10763 10752 10751 10750 ] final   20.14 input  -60.55 | X-H torsion
[ 11005 11000 10999 10996 ] final   58.32 input  -57.11 | X-H torsion

> <Gold.Protein.ActiveResidues>
 VAL166  LYS551  ARG553  GLY616  TRP617  ASP618  TYR619  PRO620  LYS621  CYS622 
 ASP623  PHE694  ASN695  SER759  ASP760  ASP761  ALA762  ILE779  LEU786  VAL792 
 PHE793  MET794  SER795  GLU796  ALA797  LYS798  CYS799  TRP800  GLU811  SER814 

> <Gold.Protein.RotatedAtoms>
  152.5452  134.1338  159.8449 H   0  0  0  0  0  0  0  0  0  0  0  0  # atno 6907 bound_to 6896
  151.1381  133.4983  159.2605 H   0  0  0  0  0  0  0  0  0  0  0  0  # atno 6908 bound_to 6896
  151.1603  135.0280  159.8762 H   0  0  0  0  0  0  0  0  0  0  0  0  # atno 6909 bound_to 6896
  146.1596  140.4660  142.8577 H   0  0  0  0  0  0  0  0  0  0  0  0  # atno 7974 bound_to 7965
  154.7876  140.0463  157.1176 H   0  0  0  0  0  0  0  0  0  0  0  0  # atno 8008 bound_to 7997
  154.9629  140.3080  155.5003 H   0  0  0  0  0  0  0  0  0  0  0  0  # atno 8009 bound_to 7997
  156.2945  140.2267  156.4716 H   0  0  0  0  0  0  0  0  0  0  0  0  # atno 8010 bound_to 7997
  139.7647  143.8325  152.2614 H   0  0  0  0  0  0  0  0  0  0  0  0  # atno 10167 bound_to 10162
  156.7830  130.9490  151.3120 H   0  0  0  0  0  0  0  0  0  0  0  0  # atno 10718 bound_to 10713
  153.1102  135.6695  153.9514 H   0  0  0  0  0  0  0  0  0  0  0  0  # atno 10763 bound_to 10752
  153.9059  135.3030  155.3450 H   0  0  0  0  0  0  0  0  0  0  0  0  # atno 10764 bound_to 10752
  154.7522  135.5029  153.9387 H   0  0  0  0  0  0  0  0  0  0  0  0  # atno 10765 bound_to 10752
  140.0387  134.5906  155.9411 H   0  0  0  0  0  0  0  0  0  0  0  0  # atno 11005 bound_to 11000
  144.8009  140.6212  143.6478 LP  0  0  0  0  0  0  0  0  0  0  0  0  # atno 17320 bound_to 7965
  145.4621  139.1512  143.3860 LP  0  0  0  0  0  0  0  0  0  0  0  0  # atno 17321 bound_to 7965
  139.8342  144.7240  150.9412 LP  0  0  0  0  0  0  0  0  0  0  0  0  # atno 17342 bound_to 10162
  140.7810  143.4042  151.1098 LP  0  0  0  0  0  0  0  0  0  0  0  0  # atno 17343 bound_to 10162
  157.6637  130.8988  149.9885 LP  0  0  0  0  0  0  0  0  0  0  0  0  # atno 17370 bound_to 10713
  156.1206  130.3646  149.9894 LP  0  0  0  0  0  0  0  0  0  0  0  0  # atno 17371 bound_to 10713
  141.1871  133.6559  156.5268 LP  0  0  0  0  0  0  0  0  0  0  0  0  # atno 17394 bound_to 11000
  140.4105  134.7276  157.4833 LP  0  0  0  0  0  0  0  0  0  0  0  0  # atno 17395 bound_to 11000

$$$$
