AV-unprocessed.smi:2388|AV-procd|sdf|9471|dock9
  -GOLD-   2272013103D 1   1.00000     0.00000
 Structure written by MMmdl.
 43 44  0  0  0  0  0  0  0  0  1 V2000
  152.4328  144.5909  158.2704 C   0  0  0  0  0  0  0  0  0  0  0  0
  152.6699  143.8281  159.5567 C   0  0  0  0  0  0  0  0  0  0  0  0
  152.2570  144.3525  160.7973 C   0  0  0  0  0  0  0  0  0  0  0  0
  152.5016  143.5900  161.9534 C   0  0  0  0  0  0  0  0  0  0  0  0
  153.1447  142.3440  161.8226 C   0  0  0  0  0  0  0  0  0  0  0  0
  153.5302  141.8919  160.5405 C   0  0  0  0  0  0  0  0  0  0  0  0
  154.1735  140.6260  160.5171 N   0  0  0  0  0  0  0  0  0  0  0  0
  154.1657  139.7074  159.5349 C   0  0  0  0  0  0  0  0  0  0  0  0
  153.5842  139.8240  158.4558 O   0  0  0  0  0  0  0  0  0  0  0  0
  154.8866  138.6302  159.8766 N   0  0  0  0  0  0  0  0  0  0  0  0
  155.0959  137.4546  159.0390 C   0  0  0  0  0  0  0  0  0  0  0  0
  156.0137  136.4453  159.7528 C   0  0  0  0  0  0  0  0  0  0  0  0
  155.3000  135.6061  160.8275 C   0  0  0  0  0  0  0  0  0  0  0  0
  154.4947  134.7432  160.4734 O   0  0  0  0  0  0  0  0  0  0  0  0
  155.5731  135.8434  162.1341 N   0  0  0  0  0  0  0  0  0  0  0  0
  156.4725  136.8883  162.6429 C   0  0  0  0  0  0  0  0  0  0  0  0
  155.6237  137.9941  163.2967 C   0  0  0  0  0  0  0  0  0  0  0  0
  154.7243  137.4135  164.4051 C   0  0  0  0  0  0  0  0  0  0  0  0
  153.9320  136.1868  163.9139 C   0  0  0  0  0  0  0  0  0  0  0  0
  154.8612  135.1685  163.2274 C   0  0  0  0  0  0  0  0  0  0  0  0
  153.2879  142.6339  159.4312 N   0  0  0  0  0  0  0  0  0  0  0  0
  152.0482  145.5916  158.4691 H   0  0  0  0  0  0  0  0  0  0  0  0
  151.7092  144.0642  157.6477 H   0  0  0  0  0  0  0  0  0  0  0  0
  153.3623  144.6897  157.7087 H   0  0  0  0  0  0  0  0  0  0  0  0
  151.7651  145.3115  160.8641 H   0  0  0  0  0  0  0  0  0  0  0  0
  152.2013  143.9537  162.9250 H   0  0  0  0  0  0  0  0  0  0  0  0
  153.3398  141.7463  162.7012 H   0  0  0  0  0  0  0  0  0  0  0  0
  154.7080  140.3961  161.3415 H   0  0  0  0  0  0  0  0  0  0  0  0
  155.3311  138.6253  160.7829 H   0  0  0  0  0  0  0  0  0  0  0  0
  154.1456  136.9769  158.7929 H   0  0  0  0  0  0  0  0  0  0  0  0
  155.5421  137.7828  158.0993 H   0  0  0  0  0  0  0  0  0  0  0  0
  156.4494  135.7679  159.0172 H   0  0  0  0  0  0  0  0  0  0  0  0
  156.8346  136.9916  160.2199 H   0  0  0  0  0  0  0  0  0  0  0  0
  157.1452  136.4517  163.3824 H   0  0  0  0  0  0  0  0  0  0  0  0
  157.1236  137.3165  161.8826 H   0  0  0  0  0  0  0  0  0  0  0  0
  156.2693  138.7697  163.7093 H   0  0  0  0  0  0  0  0  0  0  0  0
  155.0052  138.4752  162.5377 H   0  0  0  0  0  0  0  0  0  0  0  0
  155.3474  137.1184  165.2503 H   0  0  0  0  0  0  0  0  0  0  0  0
  154.0424  138.1783  164.7776 H   0  0  0  0  0  0  0  0  0  0  0  0
  153.4124  135.7180  164.7500 H   0  0  0  0  0  0  0  0  0  0  0  0
  153.1619  136.5068  163.2106 H   0  0  0  0  0  0  0  0  0  0  0  0
  154.2836  134.3069  162.8905 H   0  0  0  0  0  0  0  0  0  0  0  0
  155.5846  134.7775  163.9445 H   0  0  0  0  0  0  0  0  0  0  0  0
  1  2  1  0  0  0  0
  1 22  1  0  0  0  0
  1 23  1  0  0  0  0
  1 24  1  0  0  0  0
  2 21  1  0  0  0  0
  2  3  2  0  0  0  0
  3  4  1  0  0  0  0
  3 25  1  0  0  0  0
  4  5  2  0  0  0  0
  4 26  1  0  0  0  0
  5  6  1  0  0  0  0
  5 27  1  0  0  0  0
  6  7  1  0  0  0  0
  6 21  2  0  0  0  0
  7  8  1  0  0  0  0
  7 28  1  0  0  0  0
  8  9  2  0  0  0  0
  8 10  1  0  0  0  0
 10 11  1  0  0  0  0
 10 29  1  0  0  0  0
 11 12  1  0  0  0  0
 11 30  1  0  0  0  0
 11 31  1  0  0  0  0
 12 13  1  0  0  0  0
 12 32  1  0  0  0  0
 12 33  1  0  0  0  0
 13 14  2  0  0  0  0
 13 15  1  0  0  0  0
 15 20  1  0  0  0  0
 15 16  1  0  0  0  0
 16 17  1  0  0  0  0
 16 34  1  0  0  0  0
 16 35  1  0  0  0  0
 17 18  1  0  0  0  0
 17 36  1  0  0  0  0
 17 37  1  0  0  0  0
 18 19  1  0  0  0  0
 18 38  1  0  0  0  0
 18 39  1  0  0  0  0
 19 20  1  0  0  0  0
 19 40  1  0  0  0  0
 19 41  1  0  0  0  0
 20 42  1  0  0  0  0
 20 43  1  0  0  0  0
M  END
> <s_m_source_file>
AV-unprocessed.smi

> <i_m_source_file_index>
2388

> <i_lp_mmshare_version>
43012

> <i_f3d_flags>
0

> <s_epik_input>
W0NIM11jMVtjSF1bY0hdW2NIXWMobjEpW05IXUMoPU8pW05IXVtDSDJdW0NIMl1DKD1PKU4yW0NIMl1bQ0gyXVtDSDJdW0NIMl1bQ0gyXTI=

> <s_epik_cmdline>
J2VwaWtfcHl0aG9uJywgJy1waCcsICc3LjAnLCAnLXRuJywgJzgnLCAnLW1hJywgJzIwMCcsICctbWV0YWxfYmluZGluZycsICctaW1hZScsICc8aW5maWxlLm1hZT4nLCAnLW9tYWUnLCAnPG91dGZpbGUubWFlPic=

> <r_lp_tautomer_probability>
1

> <r_epik_Ionization_Penalty>
7.16628e-05

> <r_epik_Ionization_Penalty_Charging>
0

> <r_epik_Ionization_Penalty_Neutral>
7.16628e-05

> <r_epik_State_Penalty>
-0

> <r_epik_Charging_Adjusted_Penalty>
0

> <i_epik_Tot_Q>
0

> <i_epik_Tot_abs_Q>
0

> <r_epik_Metal_State_Penalty>
-0

> <b_epik_Metal_Only>
0

> <s_lp_Force_Field>
OPLS_2005

> <r_lp_Energy>
26.3076

> <b_lp_Chiralities_Consistent>
1

> <s_lp_Variant>
AV-unprocessed.smi:2388-1

> <Gold.Version>
5.8.1

> <Gold.Id.Protein>
6NUR|6NUR_protein|mol2

> <Gold.PLP.Fitness>
48.4743

> <Gold.PLP.PLP>
-43.2275

> <Gold.PLP.part.hbond>
-2.0000

> <Gold.PLP.part.metal>
0.0000

> <Gold.PLP.part.buried>
-5.4632

> <Gold.PLP.part.nonpolar>
-34.9724

> <Gold.PLP.part.repulsive>
0.0939

> <Gold.PLP.ligand.clash>
0.0000

> <Gold.PLP.ligand.torsion>
0.3891

> <Gold.PLP.Chemscore.Hbond>
2.0000

> <Gold.PLP.Chemscore.CHOScore>
0.0000

> <Gold.PLP.Chemscore.Metal>
0.0000

> <Gold.Chemscore.Hbonds>
donor molecule, donor type, donor heavy atom, donor atom, acceptor molecule, acceptor atom, score
      P1  H  6896  6908       L1    14  1.00
      P1  H  7997  8010       L1     9  1.00

> <Gold.PLP.Chemscore.Internal.Correction>
0.0251

> <Gold.Rescore>
     Score         DG    S(hbond)    S(metal)    S(lipo)     H(rot)  DE(clash)    DE(int)     intcor
     18.85     -20.34       1.94        0.00     104.62       1.51       0.02       1.47       ----

> <Gold.Chemscore.Fitness>
18.8501

> <Gold.Chemscore.DG>
-20.3378

> <Gold.Chemscore.ZeroCoef>
-5.4800

> <Gold.Chemscore.Hbond>
1.9433

> <Gold.Chemscore.Metal>
0.0000

> <Gold.Chemscore.Lipo>
104.6207

> <Gold.Chemscore.Internal_Hbond>
0.0000

> <Gold.Chemscore.DEClash>
0.0178

> <Gold.Chemscore.DEInternal>
1.4699

> <Gold.Chemscore.Rot>
1.5131

> <Gold.Chemscore.Internal.Correction>
   9.000000E+99

> <Gold.Chemscore.Hbonds>
donor molecule, donor type, donor heavy atom, donor atom, acceptor molecule, acceptor atom, score
      P1  H  6896  6908       L1    14  0.94
      P1  H  7997  8010       L1     9  0.48

> <Gold.Chemscore.Hbond.Weighted>
-6.4907

> <Gold.Chemscore.Metal.Weighted>
-0.0000

> <Gold.Chemscore.Lipo.Weighted>
-12.2406

> <Gold.Chemscore.Internal_Hbond.Weighted>
0.0000

> <Gold.Chemscore.DEClash.Weighted>
0.0178

> <Gold.Chemscore.DEInternal.Weighted>
1.4699

> <Gold.Chemscore.Rot.Weighted>
3.8735

> <Gold.Chemscore.Internal.Correction.Weighted>
   9.000000E+99

> <Gold.Protein.RotatedTorsions>
[ 6907 6896 6895 6894 ] final  -45.94 input  -60.11 | X-H torsion
[ 7974 7965 7964 7962 ] final   15.16 input  175.53 | X-H torsion
[ 8008 7997 7996 7995 ] final   12.88 input   59.86 | X-H torsion
[ 10167 10162 10161 10158 ] final  165.84 input  -65.29 | X-H torsion
[ 10718 10713 10712 10709 ] final  -32.43 input   66.30 | X-H torsion
[ 10763 10752 10751 10750 ] final  129.62 input  -60.55 | X-H torsion
[ 11005 11000 10999 10996 ] final   -6.74 input  -57.11 | X-H torsion

> <Gold.Protein.ActiveResidues>
 VAL166  LYS551  ARG553  GLY616  TRP617  ASP618  TYR619  PRO620  LYS621  CYS622 
 ASP623  PHE694  ASN695  SER759  ASP760  ASP761  ALA762  ILE779  LEU786  VAL792 
 PHE793  MET794  SER795  GLU796  ALA797  LYS798  CYS799  TRP800  GLU811  SER814 

> <Gold.Protein.RotatedAtoms>
  150.9166  134.8583  159.7460 H   0  0  0  0  0  0  0  0  0  0  0  0  # atno 6907 bound_to 6896
  152.4971  134.4280  159.9512 H   0  0  0  0  0  0  0  0  0  0  0  0  # atno 6908 bound_to 6896
  151.4318  133.3628  159.2805 H   0  0  0  0  0  0  0  0  0  0  0  0  # atno 6909 bound_to 6896
  146.2286  139.8935  142.8551 H   0  0  0  0  0  0  0  0  0  0  0  0  # atno 7974 bound_to 7965
  154.8268  140.2893  155.5749 H   0  0  0  0  0  0  0  0  0  0  0  0  # atno 8008 bound_to 7997
  156.3002  140.2539  156.3116 H   0  0  0  0  0  0  0  0  0  0  0  0  # atno 8009 bound_to 7997
  154.9276  140.0384  157.2020 H   0  0  0  0  0  0  0  0  0  0  0  0  # atno 8010 bound_to 7997
  139.4913  144.4090  151.9321 H   0  0  0  0  0  0  0  0  0  0  0  0  # atno 10167 bound_to 10162
  156.3750  130.4346  149.7515 H   0  0  0  0  0  0  0  0  0  0  0  0  # atno 10718 bound_to 10713
  153.7448  135.3219  155.3310 H   0  0  0  0  0  0  0  0  0  0  0  0  # atno 10763 bound_to 10752
  154.8283  135.4553  154.0990 H   0  0  0  0  0  0  0  0  0  0  0  0  # atno 10764 bound_to 10752
  153.2176  135.6944  153.8121 H   0  0  0  0  0  0  0  0  0  0  0  0  # atno 10765 bound_to 10752
  140.7053  133.8955  155.8712 H   0  0  0  0  0  0  0  0  0  0  0  0  # atno 11005 bound_to 11000
  145.2394  141.0003  143.3944 LP  0  0  0  0  0  0  0  0  0  0  0  0  # atno 17320 bound_to 7965
  144.9464  139.4131  143.6424 LP  0  0  0  0  0  0  0  0  0  0  0  0  # atno 17321 bound_to 7965
  140.3531  144.3065  150.5946 LP  0  0  0  0  0  0  0  0  0  0  0  0  # atno 17342 bound_to 10162
  140.5468  143.2213  151.7994 LP  0  0  0  0  0  0  0  0  0  0  0  0  # atno 17343 bound_to 10162
  156.4627  130.7959  151.2979 LP  0  0  0  0  0  0  0  0  0  0  0  0  # atno 17370 bound_to 10713
  157.7487  131.0060  150.3137 LP  0  0  0  0  0  0  0  0  0  0  0  0  # atno 17371 bound_to 10713
  141.0130  134.0994  157.4202 LP  0  0  0  0  0  0  0  0  0  0  0  0  # atno 17394 bound_to 11000
  139.8886  135.0099  156.6629 LP  0  0  0  0  0  0  0  0  0  0  0  0  # atno 17395 bound_to 11000

$$$$
