AV-unprocessed.smi:912|AV-procd|sdf|4146|dock1
  -GOLD-   22720 2 53D 1   1.00000     0.00000
 Structure written by MMmdl.
 26 26  0  0  0  0  0  0  0  0  3 V2000
  146.8227  138.9370  152.2705 C   0  0  0  0  0  0  0  0  0  0  0  0
  148.2054  138.8027  152.7847 N   0  3  0  0  0  0  0  0  0  0  0  0
  148.4360  139.0170  154.2447 C   0  0  1  0  0  0  0  0  0  0  0  0
  147.7430  140.3309  154.6933 C   0  0  0  0  0  0  0  0  0  0  0  0
  147.8798  137.7863  155.0183 C   0  0  0  0  0  0  0  0  0  0  0  0
  148.3637  136.6054  154.5710 N   0  5  0  0  0  0  0  0  0  0  0  0
  147.0752  137.9462  155.9350 O   0  0  0  0  0  0  0  0  0  0  0  0
  149.9486  139.1398  154.5354 C   0  0  0  0  0  0  0  0  0  0  0  0
  150.8897  138.1630  154.1194 C   0  0  0  0  0  0  0  0  0  0  0  0
  152.2535  138.3545  154.4190 C   0  0  0  0  0  0  0  0  0  0  0  0
  152.7268  139.4297  155.0809 N   0  0  0  0  0  0  0  0  0  0  0  0
  151.8371  140.3625  155.4766 C   0  0  0  0  0  0  0  0  0  0  0  0
  150.4539  140.2666  155.2291 C   0  0  0  0  0  0  0  0  0  0  0  0
  146.7989  138.6352  151.2236 H   0  0  0  0  0  0  0  0  0  0  0  0
  146.4748  139.9685  152.3206 H   0  0  0  0  0  0  0  0  0  0  0  0
  146.1225  138.3024  152.8137 H   0  0  0  0  0  0  0  0  0  0  0  0
  148.5202  137.8642  152.5819 H   0  0  0  0  0  0  0  0  0  0  0  0
  147.9317  140.5563  155.7432 H   0  0  0  0  0  0  0  0  0  0  0  0
  146.6594  140.2900  154.5796 H   0  0  0  0  0  0  0  0  0  0  0  0
  148.1028  141.1811  154.1129 H   0  0  0  0  0  0  0  0  0  0  0  0
  148.4160  136.4376  153.5595 H   0  0  0  0  0  0  0  0  0  0  0  0
  150.6016  137.2716  153.5839 H   0  0  0  0  0  0  0  0  0  0  0  0
  152.9858  137.6212  154.1150 H   0  0  0  0  0  0  0  0  0  0  0  0
  152.2394  141.2134  156.0062 H   0  0  0  0  0  0  0  0  0  0  0  0
  149.7940  141.0481  155.5769 H   0  0  0  0  0  0  0  0  0  0  0  0
  148.7904  139.4515  152.2797 H   0  0  0  0  0  0  0  0  0  0  0  0
  1  2  1  0  0  0  0
  1 14  1  0  0  0  0
  1 15  1  0  0  0  0
  1 16  1  0  0  0  0
  2  3  1  0  0  0  0
  2 17  1  0  0  0  0
  2 26  1  0  0  0  0
  3  4  1  0  0  0  0
  3  5  1  0  0  0  0
  3  8  1  0  0  0  0
  4 18  1  0  0  0  0
  4 19  1  0  0  0  0
  4 20  1  0  0  0  0
  5  6  1  0  0  0  0
  5  7  2  0  0  0  0
  6 21  1  0  0  0  0
  8 13  1  0  0  0  0
  8  9  2  0  0  0  0
  9 10  1  0  0  0  0
  9 22  1  0  0  0  0
 10 11  2  0  0  0  0
 10 23  1  0  0  0  0
 11 12  1  0  0  0  0
 12 13  2  0  0  0  0
 12 24  1  0  0  0  0
 13 25  1  0  0  0  0
M  CHG  1   2   1
M  CHG  1   6  -1
M  END
> <s_m_source_file>
AV-unprocessed.smi

> <i_m_source_file_index>
912

> <i_lp_mmshare_version>
43012

> <i_f3d_flags>
0

> <s_epik_input>
W0NIM11bTkhdW0NAQF0oW0NIM10pKEMoPU8pW05IMl0pYzFbY0hdW2NIXW5bY0hdW2NIXTE=

> <s_epik_cmdline>
J2VwaWtfcHl0aG9uJywgJy1waCcsICc3LjAnLCAnLXRuJywgJzgnLCAnLW1hJywgJzIwMCcsICctbWV0YWxfYmluZGluZycsICctaW1hZScsICc8aW5maWxlLm1hZT4nLCAnLW9tYWUnLCAnPG91dGZpbGUubWFlPic=

> <r_epik_Ionization_Penalty>
6.88213

> <r_epik_Ionization_Penalty_Charging>
6.88153

> <r_epik_Ionization_Penalty_Neutral>
0.000601258

> <r_epik_State_Penalty>
7.02604

> <r_epik_Charging_Adjusted_Penalty>
13.9076

> <i_epik_Tot_Q>
0

> <i_epik_Tot_abs_Q>
2

> <r_epik_Metal_State_Penalty>
3.10652

> <b_epik_Metal_Only>
1

> <s_lp_Force_Field>
OPLS_2005

> <r_lp_Energy>
7.69215

> <b_lp_Chiralities_Consistent>
1

> <s_lp_Variant>
AV-unprocessed.smi:912-7

> <Gold.Version>
5.8.1

> <Gold.Id.Protein>
6NUR|6NUR_protein|mol2

> <Gold.PLP.Fitness>
38.9596

> <Gold.PLP.PLP>
-24.6384

> <Gold.PLP.part.hbond>
-4.6311

> <Gold.PLP.part.metal>
0.0000

> <Gold.PLP.part.buried>
-2.8896

> <Gold.PLP.part.nonpolar>
-17.6375

> <Gold.PLP.part.repulsive>
0.0912

> <Gold.PLP.ligand.clash>
0.0000

> <Gold.PLP.ligand.torsion>
0.3308

> <Gold.PLP.Chemscore.Hbond>
4.9913

> <Gold.PLP.Chemscore.CHOScore>
0.0000

> <Gold.PLP.Chemscore.Metal>
0.0000

> <Gold.Chemscore.Hbonds>
donor molecule, donor type, donor heavy atom, donor atom, acceptor molecule, acceptor atom, score
      L1  H     2    17       P1  7948  2.00
      L1  H     2    26       P1  7957  0.91
      L1  H     6    21       P1  7948  1.00
      P1  H  7997  8008       L1    11  0.83

> <Gold.PLP.Chemscore.Internal.Correction>
0.0089

> <Gold.Rescore>
     Score         DG    S(hbond)    S(metal)    S(lipo)     H(rot)  DE(clash)    DE(int)     intcor
     19.36     -20.23       3.87        0.00      54.99       1.80       0.06       0.81       ----

> <Gold.Chemscore.Fitness>
19.3641

> <Gold.Chemscore.DG>
-20.2257

> <Gold.Chemscore.ZeroCoef>
-5.4800

> <Gold.Chemscore.Hbond>
3.8710

> <Gold.Chemscore.Metal>
0.0000

> <Gold.Chemscore.Lipo>
54.9911

> <Gold.Chemscore.Internal_Hbond>
0.0000

> <Gold.Chemscore.DEClash>
0.0551

> <Gold.Chemscore.DEInternal>
0.8065

> <Gold.Chemscore.Rot>
1.8037

> <Gold.Chemscore.Internal.Correction>
   9.000000E+99

> <Gold.Chemscore.Hbonds>
donor molecule, donor type, donor heavy atom, donor atom, acceptor molecule, acceptor atom, score
      L1  H     2    17       P1  7948  1.00
      L1  H     2    26       P1  7957  0.88
      L1  H     6    21       P1  7948  1.00
      P1  H  7997  8008       L1    11  0.16

> <Gold.Chemscore.Hbond.Weighted>
-12.9292

> <Gold.Chemscore.Metal.Weighted>
-0.0000

> <Gold.Chemscore.Lipo.Weighted>
-6.4340

> <Gold.Chemscore.Internal_Hbond.Weighted>
0.0000

> <Gold.Chemscore.DEClash.Weighted>
0.0551

> <Gold.Chemscore.DEInternal.Weighted>
0.8065

> <Gold.Chemscore.Rot.Weighted>
4.6174

> <Gold.Chemscore.Internal.Correction.Weighted>
   9.000000E+99

> <Gold.Protein.RotatedTorsions>
[ 6907 6896 6895 6894 ] final   24.02 input  -60.11 | X-H torsion
[ 7974 7965 7964 7962 ] final  -96.65 input  175.53 | X-H torsion
[ 8008 7997 7996 7995 ] final  -27.63 input   59.86 | X-H torsion
[ 10167 10162 10161 10158 ] final   16.50 input  -65.29 | X-H torsion
[ 10718 10713 10712 10709 ] final -126.49 input   66.30 | X-H torsion
[ 10763 10752 10751 10750 ] final   20.08 input  -60.55 | X-H torsion
[ 11005 11000 10999 10996 ] final -172.68 input  -57.11 | X-H torsion

> <Gold.Protein.ActiveResidues>
 VAL166  LYS551  ARG553  GLY616  TRP617  ASP618  TYR619  PRO620  LYS621  CYS622 
 ASP623  PHE694  ASN695  SER759  ASP760  ASP761  ALA762  ILE779  LEU786  VAL792 
 PHE793  MET794  SER795  GLU796  ALA797  LYS798  CYS799  TRP800  GLU811  SER814 

> <Gold.Protein.RotatedAtoms>
  151.9512  135.0168  160.0541 H   0  0  0  0  0  0  0  0  0  0  0  0  # atno 6907 bound_to 6896
  152.1951  133.4796  159.5037 H   0  0  0  0  0  0  0  0  0  0  0  0  # atno 6908 bound_to 6896
  150.6943  134.1579  159.4208 H   0  0  0  0  0  0  0  0  0  0  0  0  # atno 6909 bound_to 6896
  145.3441  140.9465  143.2591 H   0  0  0  0  0  0  0  0  0  0  0  0  # atno 7974 bound_to 7965
  154.4369  140.1867  156.0962 H   0  0  0  0  0  0  0  0  0  0  0  0  # atno 8008 bound_to 7997
  156.0328  140.3328  155.7132 H   0  0  0  0  0  0  0  0  0  0  0  0  # atno 8009 bound_to 7997
  155.5815  140.0622  157.2773 H   0  0  0  0  0  0  0  0  0  0  0  0  # atno 8010 bound_to 7997
  140.5793  143.9012  150.6776 H   0  0  0  0  0  0  0  0  0  0  0  0  # atno 10167 bound_to 10162
  156.1770  130.6706  151.0254 H   0  0  0  0  0  0  0  0  0  0  0  0  # atno 10718 bound_to 10713
  153.1108  135.6696  153.9505 H   0  0  0  0  0  0  0  0  0  0  0  0  # atno 10763 bound_to 10752
  153.9049  135.3032  155.3450 H   0  0  0  0  0  0  0  0  0  0  0  0  # atno 10764 bound_to 10752
  154.7527  135.5027  153.9396 H   0  0  0  0  0  0  0  0  0  0  0  0  # atno 10765 bound_to 10752
  140.4942  134.5955  157.4965 H   0  0  0  0  0  0  0  0  0  0  0  0  # atno 11005 bound_to 11000
  144.8768  139.4960  143.6742 LP  0  0  0  0  0  0  0  0  0  0  0  0  # atno 17320 bound_to 7965
  146.2995  139.7382  142.9102 LP  0  0  0  0  0  0  0  0  0  0  0  0  # atno 17321 bound_to 7965
  140.2508  143.3595  152.1407 LP  0  0  0  0  0  0  0  0  0  0  0  0  # atno 17342 bound_to 10162
  139.5160  144.6971  151.5598 LP  0  0  0  0  0  0  0  0  0  0  0  0  # atno 17343 bound_to 10162
  157.6842  131.0829  150.7288 LP  0  0  0  0  0  0  0  0  0  0  0  0  # atno 17370 bound_to 10713
  156.7346  130.4720  149.5491 LP  0  0  0  0  0  0  0  0  0  0  0  0  # atno 17371 bound_to 10713
  139.9751  134.7229  155.9966 LP  0  0  0  0  0  0  0  0  0  0  0  0  # atno 17394 bound_to 11000
  141.1468  133.6554  156.3893 LP  0  0  0  0  0  0  0  0  0  0  0  0  # atno 17395 bound_to 11000

$$$$
