AV-unprocessed.smi:1150|AV-procd|sdf|4893|dock3
  -GOLD-   22720 3463D 1   1.00000     0.00000
 Structure written by MMmdl.
 50 51  0  0  0  0  0  0  0  0  1 V2000
  151.5054  139.5685  155.3242 C   0  0  0  0  0  0  0  0  0  0  0  0
  150.9807  140.4785  156.4442 C   0  0  0  0  0  0  0  0  0  0  0  0
  152.0042  140.7169  157.5737 C   0  0  2  0  0  0  0  0  0  0  0  0
  152.0259  139.5705  158.4808 N   0  0  0  0  0  0  0  0  0  0  0  0
  153.1170  138.9595  158.9685 C   0  0  0  0  0  0  0  0  0  0  0  0
  154.2602  139.1767  158.5690 O   0  0  0  0  0  0  0  0  0  0  0  0
  152.8789  137.9924  160.1289 C   0  0  0  0  0  0  0  0  0  0  0  0
  153.9830  138.1619  161.1457 C   0  0  0  0  0  0  0  0  0  0  0  0
  154.7396  137.1357  161.7844 C   0  0  0  0  0  0  0  0  0  0  0  0
  154.6397  135.6504  161.5868 C   0  0  0  0  0  0  0  0  0  0  0  0
  155.6026  137.6169  162.6637 N   0  0  0  0  0  0  0  0  0  0  0  0
  155.4300  138.9529  162.6191 N   0  0  0  0  0  0  0  0  0  0  0  0
  156.2247  139.8025  163.4842 C   0  0  0  0  0  0  0  0  0  0  0  0
  154.4618  139.3170  161.7046 C   0  0  0  0  0  0  0  0  0  0  0  0
  154.0783  140.7433  161.4766 C   0  0  0  0  0  0  0  0  0  0  0  0
  151.7410  142.0282  158.3650 C   0  0  0  0  0  0  0  0  0  0  0  0
  151.3638  143.1988  157.4269 C   0  0  0  0  0  0  0  0  0  0  0  0
  151.0609  144.4888  158.2044 C   0  0  0  0  0  0  0  0  0  0  0  0
  152.2451  144.8847  159.0974 C   0  0  0  0  0  0  0  0  0  0  0  0
  152.6139  143.7411  160.0528 C   0  0  0  0  0  0  0  0  0  0  0  0
  152.9188  142.4478  159.2807 C   0  0  0  0  0  0  0  0  0  0  0  0
  150.7643  139.4640  154.5318 H   0  0  0  0  0  0  0  0  0  0  0  0
  151.7351  138.5689  155.6938 H   0  0  0  0  0  0  0  0  0  0  0  0
  152.4128  139.9769  154.8781 H   0  0  0  0  0  0  0  0  0  0  0  0
  150.6979  141.4366  156.0066 H   0  0  0  0  0  0  0  0  0  0  0  0
  150.0648  140.0467  156.8480 H   0  0  0  0  0  0  0  0  0  0  0  0
  152.9776  140.8196  157.0907 H   0  0  0  0  0  0  0  0  0  0  0  0
  151.1359  139.3013  158.8737 H   0  0  0  0  0  0  0  0  0  0  0  0
  151.8976  138.1932  160.5594 H   0  0  0  0  0  0  0  0  0  0  0  0
  152.8426  136.9711  159.7486 H   0  0  0  0  0  0  0  0  0  0  0  0
  153.6359  135.2942  161.8179 H   0  0  0  0  0  0  0  0  0  0  0  0
  155.3372  135.1084  162.2263 H   0  0  0  0  0  0  0  0  0  0  0  0
  154.8591  135.3797  160.5542 H   0  0  0  0  0  0  0  0  0  0  0  0
  156.9093  140.3994  162.8813 H   0  0  0  0  0  0  0  0  0  0  0  0
  156.8028  139.2030  164.1887 H   0  0  0  0  0  0  0  0  0  0  0  0
  155.5697  140.4688  164.0462 H   0  0  0  0  0  0  0  0  0  0  0  0
  153.4062  140.8407  160.6241 H   0  0  0  0  0  0  0  0  0  0  0  0
  154.9575  141.3570  161.2801 H   0  0  0  0  0  0  0  0  0  0  0  0
  153.5698  141.1492  162.3510 H   0  0  0  0  0  0  0  0  0  0  0  0
  150.8758  141.8492  159.0054 H   0  0  0  0  0  0  0  0  0  0  0  0
  152.1765  143.3977  156.7293 H   0  0  0  0  0  0  0  0  0  0  0  0
  150.4990  142.9280  156.8205 H   0  0  0  0  0  0  0  0  0  0  0  0
  150.8351  145.2967  157.5079 H   0  0  0  0  0  0  0  0  0  0  0  0
  150.1692  144.3482  158.8166 H   0  0  0  0  0  0  0  0  0  0  0  0
  153.1062  145.1353  158.4763 H   0  0  0  0  0  0  0  0  0  0  0  0
  152.0001  145.7821  159.6658 H   0  0  0  0  0  0  0  0  0  0  0  0
  153.4774  144.0253  160.6550 H   0  0  0  0  0  0  0  0  0  0  0  0
  151.7937  143.5666  160.7503 H   0  0  0  0  0  0  0  0  0  0  0  0
  153.1474  141.6568  159.9940 H   0  0  0  0  0  0  0  0  0  0  0  0
  153.8226  142.6006  158.6905 H   0  0  0  0  0  0  0  0  0  0  0  0
  1  2  1  0  0  0  0
  1 22  1  0  0  0  0
  1 23  1  0  0  0  0
  1 24  1  0  0  0  0
  2  3  1  0  0  0  0
  2 25  1  0  0  0  0
  2 26  1  0  0  0  0
  3  4  1  0  0  0  0
  3 16  1  0  0  0  0
  3 27  1  0  0  0  0
  4  5  1  0  0  0  0
  4 28  1  0  0  0  0
  5  6  2  0  0  0  0
  5  7  1  0  0  0  0
  7  8  1  0  0  0  0
  7 29  1  0  0  0  0
  7 30  1  0  0  0  0
  8 14  2  0  0  0  0
  8  9  1  0  0  0  0
  9 10  1  0  0  0  0
  9 11  2  0  0  0  0
 10 31  1  0  0  0  0
 10 32  1  0  0  0  0
 10 33  1  0  0  0  0
 11 12  1  0  0  0  0
 12 13  1  0  0  0  0
 12 14  1  0  0  0  0
 13 34  1  0  0  0  0
 13 35  1  0  0  0  0
 13 36  1  0  0  0  0
 14 15  1  0  0  0  0
 15 37  1  0  0  0  0
 15 38  1  0  0  0  0
 15 39  1  0  0  0  0
 16 21  1  0  0  0  0
 16 17  1  0  0  0  0
 16 40  1  0  0  0  0
 17 18  1  0  0  0  0
 17 41  1  0  0  0  0
 17 42  1  0  0  0  0
 18 19  1  0  0  0  0
 18 43  1  0  0  0  0
 18 44  1  0  0  0  0
 19 20  1  0  0  0  0
 19 45  1  0  0  0  0
 19 46  1  0  0  0  0
 20 21  1  0  0  0  0
 20 47  1  0  0  0  0
 20 48  1  0  0  0  0
 21 49  1  0  0  0  0
 21 50  1  0  0  0  0
M  END
> <s_m_source_file>
AV-unprocessed.smi

> <i_m_source_file_index>
1150

> <i_lp_mmshare_version>
43012

> <i_f3d_flags>
0

> <s_epik_input>
W0NIMl0xW0NIMl1bQ0gyXVtDSDJdW0NIMl1bQ0hdMVtDQEhdKFtDSDJdW0NIM10pW05IXUMoPU8pW0NIMl1jMmMoW0NIM10pbm4oW0NIM10pYzJbQ0gzXQ==

> <s_epik_cmdline>
J2VwaWtfcHl0aG9uJywgJy1waCcsICc3LjAnLCAnLXRuJywgJzgnLCAnLW1hJywgJzIwMCcsICctbWV0YWxfYmluZGluZycsICctaW1hZScsICc8aW5maWxlLm1hZT4nLCAnLW9tYWUnLCAnPG91dGZpbGUubWFlPic=

> <r_lp_tautomer_probability>
1

> <r_epik_Ionization_Penalty>
0.00328092

> <r_epik_Ionization_Penalty_Charging>
0

> <r_epik_Ionization_Penalty_Neutral>
0.00328092

> <r_epik_State_Penalty>
0.00231765

> <r_epik_Charging_Adjusted_Penalty>
0.00231765

> <i_epik_Tot_Q>
0

> <i_epik_Tot_abs_Q>
0

> <r_epik_Metal_State_Penalty>
-0

> <b_epik_Metal_Only>
0

> <s_lp_Force_Field>
OPLS_2005

> <r_lp_Energy>
6.65813

> <b_lp_Chiralities_Consistent>
1

> <s_lp_Variant>
AV-unprocessed.smi:1150-1

> <Gold.Version>
5.8.1

> <Gold.Id.Protein>
6NUR|6NUR_protein|mol2

> <Gold.PLP.Fitness>
44.0385

> <Gold.PLP.PLP>
-43.0839

> <Gold.PLP.part.hbond>
-1.0000

> <Gold.PLP.part.metal>
0.0000

> <Gold.PLP.part.buried>
-3.7550

> <Gold.PLP.part.nonpolar>
-39.0929

> <Gold.PLP.part.repulsive>
0.0972

> <Gold.PLP.ligand.clash>
0.0000

> <Gold.PLP.ligand.torsion>
1.0579

> <Gold.PLP.Chemscore.Hbond>
1.0000

> <Gold.PLP.Chemscore.CHOScore>
0.0000

> <Gold.PLP.Chemscore.Metal>
0.0000

> <Gold.Chemscore.Hbonds>
donor molecule, donor type, donor heavy atom, donor atom, acceptor molecule, acceptor atom, score
      P1  H  7997  8009       L1     6  1.00

> <Gold.PLP.Chemscore.Internal.Correction>
0.0703

> <Gold.Rescore>
     Score         DG    S(hbond)    S(metal)    S(lipo)     H(rot)  DE(clash)    DE(int)     intcor
     20.13     -21.19       0.99        0.00     136.94       1.42       0.01       1.05       ----

> <Gold.Chemscore.Fitness>
20.1261

> <Gold.Chemscore.DG>
-21.1857

> <Gold.Chemscore.ZeroCoef>
-5.4800

> <Gold.Chemscore.Hbond>
0.9916

> <Gold.Chemscore.Metal>
0.0000

> <Gold.Chemscore.Lipo>
136.9436

> <Gold.Chemscore.Internal_Hbond>
0.0000

> <Gold.Chemscore.DEClash>
0.0069

> <Gold.Chemscore.DEInternal>
1.0528

> <Gold.Chemscore.Rot>
1.4174

> <Gold.Chemscore.Internal.Correction>
   9.000000E+99

> <Gold.Chemscore.Hbonds>
donor molecule, donor type, donor heavy atom, donor atom, acceptor molecule, acceptor atom, score
      P1  H  7997  8009       L1     6  1.00

> <Gold.Chemscore.Hbond.Weighted>
-3.3119

> <Gold.Chemscore.Metal.Weighted>
-0.0000

> <Gold.Chemscore.Lipo.Weighted>
-16.0224

> <Gold.Chemscore.Internal_Hbond.Weighted>
0.0000

> <Gold.Chemscore.DEClash.Weighted>
0.0069

> <Gold.Chemscore.DEInternal.Weighted>
1.0528

> <Gold.Chemscore.Rot.Weighted>
3.6286

> <Gold.Chemscore.Internal.Correction.Weighted>
   9.000000E+99

> <Gold.Protein.RotatedTorsions>
[ 6907 6896 6895 6894 ] final  150.83 input  -60.11 | X-H torsion
[ 7974 7965 7964 7962 ] final    1.18 input  175.53 | X-H torsion
[ 8008 7997 7996 7995 ] final  123.93 input   59.86 | X-H torsion
[ 10167 10162 10161 10158 ] final -123.17 input  -65.29 | X-H torsion
[ 10718 10713 10712 10709 ] final   81.62 input   66.30 | X-H torsion
[ 10763 10752 10751 10750 ] final -123.79 input  -60.55 | X-H torsion
[ 11005 11000 10999 10996 ] final -150.19 input  -57.11 | X-H torsion

> <Gold.Protein.ActiveResidues>
 VAL166  LYS551  ARG553  GLY616  TRP617  ASP618  TYR619  PRO620  LYS621  CYS622 
 ASP623  PHE694  ASN695  SER759  ASP760  ASP761  ALA762  ILE779  LEU786  VAL792 
 PHE793  MET794  SER795  GLU796  ALA797  LYS798  CYS799  TRP800  GLU811  SER814 

> <Gold.Protein.RotatedAtoms>
  152.1091  133.4291  159.4622 H   0  0  0  0  0  0  0  0  0  0  0  0  # atno 6907 bound_to 6896
  150.6866  134.2670  159.4582 H   0  0  0  0  0  0  0  0  0  0  0  0  # atno 6908 bound_to 6896
  152.0537  134.9637  160.0625 H   0  0  0  0  0  0  0  0  0  0  0  0  # atno 6909 bound_to 6896
  146.2439  140.1026  142.8347 H   0  0  0  0  0  0  0  0  0  0  0  0  # atno 7974 bound_to 7965
  156.2783  140.2751  156.1706 H   0  0  0  0  0  0  0  0  0  0  0  0  # atno 8008 bound_to 7997
  155.0659  140.0387  157.2610 H   0  0  0  0  0  0  0  0  0  0  0  0  # atno 8009 bound_to 7997
  154.7079  140.2662  155.6662 H   0  0  0  0  0  0  0  0  0  0  0  0  # atno 8010 bound_to 7997
  140.0064  143.5487  152.2282 H   0  0  0  0  0  0  0  0  0  0  0  0  # atno 10167 bound_to 10162
  157.6837  131.0012  150.2253 H   0  0  0  0  0  0  0  0  0  0  0  0  # atno 10718 bound_to 10713
  154.8713  135.4086  154.3000 H   0  0  0  0  0  0  0  0  0  0  0  0  # atno 10763 bound_to 10752
  153.3861  135.7013  153.6534 H   0  0  0  0  0  0  0  0  0  0  0  0  # atno 10764 bound_to 10752
  153.5337  135.3662  155.2658 H   0  0  0  0  0  0  0  0  0  0  0  0  # atno 10765 bound_to 10752
  140.7428  134.3495  157.5144 H   0  0  0  0  0  0  0  0  0  0  0  0  # atno 11005 bound_to 11000
  145.0555  140.9049  143.4970 LP  0  0  0  0  0  0  0  0  0  0  0  0  # atno 17320 bound_to 7965
  145.1132  139.2743  143.5627 LP  0  0  0  0  0  0  0  0  0  0  0  0  # atno 17321 bound_to 7965
  139.6235  144.7633  151.2688 LP  0  0  0  0  0  0  0  0  0  0  0  0  # atno 17342 bound_to 10162
  140.7399  143.6605  150.8168 LP  0  0  0  0  0  0  0  0  0  0  0  0  # atno 17343 bound_to 10162
  156.2896  130.3744  149.7854 LP  0  0  0  0  0  0  0  0  0  0  0  0  # atno 17370 bound_to 10713
  156.5518  130.8345  151.3302 LP  0  0  0  0  0  0  0  0  0  0  0  0  # atno 17371 bound_to 10713
  139.8803  134.9092  156.2984 LP  0  0  0  0  0  0  0  0  0  0  0  0  # atno 17394 bound_to 11000
  140.9821  133.7260  156.0688 LP  0  0  0  0  0  0  0  0  0  0  0  0  # atno 17395 bound_to 11000

$$$$
