AV-unprocessed.smi:289|AV-procd|sdf|2214|dock5
  -GOLD-   2262022 53D 1   1.00000     0.00000
 Structure written by MMmdl.
 51 54  0  0  0  0  0  0  0  0  1 V2000
  146.9393  137.7993  157.2787 O   0  0  0  0  0  0  0  0  0  0  0  0
  148.0696  137.3363  157.4450 C   0  0  0  0  0  0  0  0  0  0  0  0
  148.2211  135.8451  157.8133 C   0  0  0  0  0  0  0  0  0  0  0  0
  148.3371  134.9516  156.6388 N   0  0  0  0  0  0  0  0  0  0  0  0
  149.4671  134.1032  156.5396 C   0  0  0  0  0  0  0  0  0  0  0  0
  150.3557  134.1200  157.3926 O   0  0  0  0  0  0  0  0  0  0  0  0
  149.4850  133.2141  155.3850 C   0  0  0  0  0  0  0  0  0  0  0  0
  150.4968  132.3431  155.2315 F   0  0  0  0  0  0  0  0  0  0  0  0
  148.4909  133.2378  154.4735 C   0  0  0  0  0  0  0  0  0  0  0  0
  147.4115  134.1025  154.5561 N   0  0  0  0  0  0  0  0  0  0  0  0
  146.2551  134.0701  153.5677 C   0  0  1  0  0  0  0  0  0  0  0  0
  146.6780  134.1694  152.0955 C   0  0  0  0  0  0  0  0  0  0  0  0
  146.6937  132.7140  151.6355 C   0  0  0  0  0  0  0  0  0  0  0  0
  146.2780  131.9082  152.8709 C   0  0  0  0  0  0  0  0  0  0  0  0
  145.6004  132.8482  153.6935 O   0  0  0  0  0  0  0  0  0  0  0  0
  147.2934  134.9481  155.6822 C   0  0  0  0  0  0  0  0  0  0  0  0
  146.3014  135.6657  155.8297 O   0  0  0  0  0  0  0  0  0  0  0  0
  149.1837  138.0964  157.3130 N   0  0  0  0  0  0  0  0  0  0  0  0
  149.2151  139.5367  157.0214 C   0  0  0  0  0  0  0  0  0  0  0  0
  149.7889  140.2848  158.2425 C   0  0  0  0  0  0  0  0  0  0  0  0
  151.1316  139.7588  158.5521 N   0  0  0  0  0  0  0  0  0  0  0  0
  152.2942  140.4527  158.4649 C   0  0  0  0  0  0  0  0  0  0  0  0
  153.3944  139.9012  158.4277 O   0  0  0  0  0  0  0  0  0  0  0  0
  152.2531  141.9304  158.4262 C   0  0  0  0  0  0  0  0  0  0  0  0
  153.0196  142.8523  159.0867 C   0  0  0  0  0  0  0  0  0  0  0  0
  152.5167  144.1332  158.7271 C   0  0  0  0  0  0  0  0  0  0  0  0
  151.4617  143.9016  157.8923 C   0  0  0  0  0  0  0  0  0  0  0  0
  151.2788  142.5657  157.7098 O   0  0  0  0  0  0  0  0  0  0  0  0
  151.1055  138.3083  158.8034 C   0  0  0  0  0  0  0  0  0  0  0  0
  150.5352  137.5817  157.5707 C   0  0  0  0  0  0  0  0  0  0  0  0
  149.0906  135.7269  158.4615 H   0  0  0  0  0  0  0  0  0  0  0  0
  147.3743  135.5509  158.4354 H   0  0  0  0  0  0  0  0  0  0  0  0
  148.5569  132.5318  153.6610 H   0  0  0  0  0  0  0  0  0  0  0  0
  145.6092  134.9029  153.8505 H   0  0  0  0  0  0  0  0  0  0  0  0
  145.9030  134.7149  151.5559 H   0  0  0  0  0  0  0  0  0  0  0  0
  147.6142  134.7100  151.9592 H   0  0  0  0  0  0  0  0  0  0  0  0
  145.9749  132.5724  150.8275 H   0  0  0  0  0  0  0  0  0  0  0  0
  147.6726  132.4050  151.2680 H   0  0  0  0  0  0  0  0  0  0  0  0
  145.6355  131.0633  152.6225 H   0  0  0  0  0  0  0  0  0  0  0  0
  147.1519  131.5213  153.3970 H   0  0  0  0  0  0  0  0  0  0  0  0
  149.8480  139.7083  156.1494 H   0  0  0  0  0  0  0  0  0  0  0  0
  148.2456  139.9560  156.7594 H   0  0  0  0  0  0  0  0  0  0  0  0
  149.7776  141.3480  158.0119 H   0  0  0  0  0  0  0  0  0  0  0  0
  149.1412  140.1525  159.1104 H   0  0  0  0  0  0  0  0  0  0  0  0
  153.8452  142.6307  159.7471 H   0  0  0  0  0  0  0  0  0  0  0  0
  152.8755  145.1005  159.0469 H   0  0  0  0  0  0  0  0  0  0  0  0
  150.7630  144.5389  157.3705 H   0  0  0  0  0  0  0  0  0  0  0  0
  152.0887  137.9028  159.0459 H   0  0  0  0  0  0  0  0  0  0  0  0
  150.4815  138.1110  159.6765 H   0  0  0  0  0  0  0  0  0  0  0  0
  150.5550  136.5045  157.7399 H   0  0  0  0  0  0  0  0  0  0  0  0
  151.1660  137.7591  156.6983 H   0  0  0  0  0  0  0  0  0  0  0  0
  1  2  2  0  0  0  0
  2  3  1  0  0  0  0
  2 18  1  0  0  0  0
  3  4  1  0  0  0  0
  3 31  1  0  0  0  0
  3 32  1  0  0  0  0
  4 16  1  0  0  0  0
  4  5  1  0  0  0  0
  5  6  2  0  0  0  0
  5  7  1  0  0  0  0
  7  8  1  0  0  0  0
  7  9  2  0  0  0  0
  9 10  1  0  0  0  0
  9 33  1  0  0  0  0
 10 11  1  0  0  0  0
 10 16  1  0  0  0  0
 11 15  1  0  0  0  0
 11 12  1  0  0  0  0
 11 34  1  0  0  0  0
 12 13  1  0  0  0  0
 12 35  1  0  0  0  0
 12 36  1  0  0  0  0
 13 14  1  0  0  0  0
 13 37  1  0  0  0  0
 13 38  1  0  0  0  0
 14 15  1  0  0  0  0
 14 39  1  0  0  0  0
 14 40  1  0  0  0  0
 16 17  2  0  0  0  0
 18 30  1  0  0  0  0
 18 19  1  0  0  0  0
 19 20  1  0  0  0  0
 19 41  1  0  0  0  0
 19 42  1  0  0  0  0
 20 21  1  0  0  0  0
 20 43  1  0  0  0  0
 20 44  1  0  0  0  0
 21 22  1  0  0  0  0
 21 29  1  0  0  0  0
 22 23  2  0  0  0  0
 22 24  1  0  0  0  0
 24 28  1  0  0  0  0
 24 25  2  0  0  0  0
 25 26  1  0  0  0  0
 25 45  1  0  0  0  0
 26 27  2  0  0  0  0
 26 46  1  0  0  0  0
 27 28  1  0  0  0  0
 27 47  1  0  0  0  0
 29 30  1  0  0  0  0
 29 48  1  0  0  0  0
 29 49  1  0  0  0  0
 30 50  1  0  0  0  0
 30 51  1  0  0  0  0
M  END
> <s_m_source_file>
AV-unprocessed.smi

> <i_m_source_file_index>
289

> <i_lp_mmshare_version>
43012

> <i_f3d_flags>
0

> <s_epik_input>
bzFbY0hdW2NIXVtjSF1jMUMoPU8pTihbQ0gyXVtDSDJdMilbQ0gyXVtDSDJdTjJDKD1PKVtDSDJdbjNjKD1PKWMoRilbY0hdbihjMz1PKVtDQEBIXTRbQ0gyXVtDSDJdW0NIMl1PNA==

> <s_epik_cmdline>
J2VwaWtfcHl0aG9uJywgJy1waCcsICc3LjAnLCAnLXRuJywgJzgnLCAnLW1hJywgJzIwMCcsICctbWV0YWxfYmluZGluZycsICctaW1hZScsICc8aW5maWxlLm1hZT4nLCAnLW9tYWUnLCAnPG91dGZpbGUubWFlPic=

> <r_lp_tautomer_probability>
1

> <r_epik_Ionization_Penalty>
6.38128e-09

> <r_epik_Ionization_Penalty_Charging>
4.20153e-09

> <r_epik_Ionization_Penalty_Neutral>
2.17976e-09

> <r_epik_State_Penalty>
-0

> <r_epik_Charging_Adjusted_Penalty>
4.20153e-09

> <i_epik_Tot_Q>
0

> <i_epik_Tot_abs_Q>
0

> <r_epik_Metal_State_Penalty>
-0

> <b_epik_Metal_Only>
0

> <s_epik_Chemistry_Notes>
This compound contains an acetal/aminal-like group ( X-CH(R)-Y where X, Y are N, S, or O) that may be acid/base labile, releasing an aldehyde.

> <s_lp_Force_Field>
OPLS_2005

> <r_lp_Energy>
67.9556

> <b_lp_Chiralities_Consistent>
1

> <s_lp_Variant>
AV-unprocessed.smi:289-2

> <Gold.Version>
5.8.1

> <Gold.Id.Protein>
6NUR|6NUR_protein|mol2

> <Gold.PLP.Fitness>
41.6287

> <Gold.PLP.PLP>
-35.3570

> <Gold.PLP.part.hbond>
-2.0000

> <Gold.PLP.part.metal>
0.0000

> <Gold.PLP.part.buried>
-4.0152

> <Gold.PLP.part.nonpolar>
-29.4532

> <Gold.PLP.part.repulsive>
0.2111

> <Gold.PLP.ligand.clash>
0.0000

> <Gold.PLP.ligand.torsion>
1.3048

> <Gold.PLP.Chemscore.Hbond>
1.7520

> <Gold.PLP.Chemscore.CHOScore>
1.0000

> <Gold.PLP.Chemscore.Metal>
0.0000

> <Gold.Chemscore.Hbonds>
donor molecule, donor type, donor heavy atom, donor atom, acceptor molecule, acceptor atom, score
      P1  H  6896  6909       L1     6  0.77
      P1  H  7997  8009       L1    23  1.00
      L1  C    27    47       P1  8028  1.00

> <Gold.PLP.Chemscore.Internal.Correction>
0.6253

> <Gold.Rescore>
     Score         DG    S(hbond)    S(metal)    S(lipo)     H(rot)  DE(clash)    DE(int)     intcor
     10.68     -17.04       1.73        0.00      85.65       1.66       0.04       6.32       ----

> <Gold.Chemscore.Fitness>
10.6780

> <Gold.Chemscore.DG>
-17.0385

> <Gold.Chemscore.ZeroCoef>
-5.4800

> <Gold.Chemscore.Hbond>
1.7313

> <Gold.Chemscore.Metal>
0.0000

> <Gold.Chemscore.Lipo>
85.6458

> <Gold.Chemscore.Internal_Hbond>
0.0000

> <Gold.Chemscore.DEClash>
0.0402

> <Gold.Chemscore.DEInternal>
6.3202

> <Gold.Chemscore.Rot>
1.6580

> <Gold.Chemscore.Internal.Correction>
   9.000000E+99

> <Gold.Chemscore.Hbonds>
donor molecule, donor type, donor heavy atom, donor atom, acceptor molecule, acceptor atom, score
      P1  H  6896  6909       L1     6  0.75
      P1  H  7997  8009       L1    23  0.95

> <Gold.Chemscore.Hbond.Weighted>
-5.7825

> <Gold.Chemscore.Metal.Weighted>
-0.0000

> <Gold.Chemscore.Lipo.Weighted>
-10.0206

> <Gold.Chemscore.Internal_Hbond.Weighted>
0.0000

> <Gold.Chemscore.DEClash.Weighted>
0.0402

> <Gold.Chemscore.DEInternal.Weighted>
6.3202

> <Gold.Chemscore.Rot.Weighted>
4.2446

> <Gold.Chemscore.Internal.Correction.Weighted>
   9.000000E+99

> <Gold.Protein.RotatedTorsions>
[ 6907 6896 6895 6894 ] final    2.40 input  -60.11 | X-H torsion
[ 7974 7965 7964 7962 ] final  -37.37 input  175.53 | X-H torsion
[ 8008 7997 7996 7995 ] final  138.16 input   59.86 | X-H torsion
[ 10167 10162 10161 10158 ] final  166.82 input  -65.29 | X-H torsion
[ 10718 10713 10712 10709 ] final -137.53 input   66.30 | X-H torsion
[ 10763 10752 10751 10750 ] final  115.13 input  -60.55 | X-H torsion
[ 11005 11000 10999 10996 ] final  -23.36 input  -57.11 | X-H torsion

> <Gold.Protein.ActiveResidues>
 VAL166  LYS551  ARG553  GLY616  TRP617  ASP618  TYR619  PRO620  LYS621  CYS622 
 ASP623  PHE694  ASN695  SER759  ASP760  ASP761  ALA762  ILE779  LEU786  VAL792 
 PHE793  MET794  SER795  GLU796  ALA797  LYS798  CYS799  TRP800  GLU811  SER814 

> <Gold.Protein.RotatedAtoms>
  151.6083  135.1042  160.0075 H   0  0  0  0  0  0  0  0  0  0  0  0  # atno 6907 bound_to 6896
  152.4222  133.7131  159.6501 H   0  0  0  0  0  0  0  0  0  0  0  0  # atno 6908 bound_to 6896
  150.8110  133.8350  159.3204 H   0  0  0  0  0  0  0  0  0  0  0  0  # atno 6909 bound_to 6896
  146.0580  140.6388  142.9010 H   0  0  0  0  0  0  0  0  0  0  0  0  # atno 7974 bound_to 7965
  156.2999  140.2401  156.4028 H   0  0  0  0  0  0  0  0  0  0  0  0  # atno 8008 bound_to 7997
  154.8511  140.0424  157.1625 H   0  0  0  0  0  0  0  0  0  0  0  0  # atno 8009 bound_to 7997
  154.8997  140.2975  155.5328 H   0  0  0  0  0  0  0  0  0  0  0  0  # atno 8010 bound_to 7997
  139.4932  144.3987  151.9434 H   0  0  0  0  0  0  0  0  0  0  0  0  # atno 10167 bound_to 10162
  156.2892  130.7365  151.1385 H   0  0  0  0  0  0  0  0  0  0  0  0  # atno 10718 bound_to 10713
  153.5176  135.3604  155.2616 H   0  0  0  0  0  0  0  0  0  0  0  0  # atno 10763 bound_to 10752
  154.8737  135.4037  154.3297 H   0  0  0  0  0  0  0  0  0  0  0  0  # atno 10764 bound_to 10752
  153.3961  135.7073  153.6526 H   0  0  0  0  0  0  0  0  0  0  0  0  # atno 10765 bound_to 10752
  140.8744  133.7698  156.0225 H   0  0  0  0  0  0  0  0  0  0  0  0  # atno 11005 bound_to 11000
  144.7159  140.4207  143.7045 LP  0  0  0  0  0  0  0  0  0  0  0  0  # atno 17320 bound_to 7965
  145.6609  139.1581  143.2809 LP  0  0  0  0  0  0  0  0  0  0  0  0  # atno 17321 bound_to 7965
  140.3426  144.3185  150.5964 LP  0  0  0  0  0  0  0  0  0  0  0  0  # atno 17342 bound_to 10162
  140.5553  143.2200  151.7857 LP  0  0  0  0  0  0  0  0  0  0  0  0  # atno 17343 bound_to 10162
  157.7337  131.0588  150.5561 LP  0  0  0  0  0  0  0  0  0  0  0  0  # atno 17370 bound_to 10713
  156.5676  130.4271  149.6034 LP  0  0  0  0  0  0  0  0  0  0  0  0  # atno 17371 bound_to 10713
  140.8535  134.2925  157.5265 LP  0  0  0  0  0  0  0  0  0  0  0  0  # atno 17394 bound_to 11000
  139.8714  134.9480  156.3985 LP  0  0  0  0  0  0  0  0  0  0  0  0  # atno 17395 bound_to 11000

$$$$
