AV-unprocessed.smi:2133|AV-procd|sdf|8693|dock10
  -GOLD-   2272011453D 1   1.00000     0.00000
 Structure written by MMmdl.
 45 47  0  0  0  0  0  0  0  0  1 V2000
  144.8288  144.8202  153.1583 C   0  0  0  0  0  0  0  0  0  0  0  0
  144.9104  143.7588  154.1790 N   0  0  0  0  0  0  0  0  0  0  0  0
  145.8434  142.7693  154.0125 C   0  0  0  0  0  0  0  0  0  0  0  0
  146.6418  142.7024  153.0773 O   0  0  0  0  0  0  0  0  0  0  0  0
  145.8242  141.7525  155.0678 C   0  0  0  0  0  0  0  0  0  0  0  0
  144.9891  141.8085  156.1341 C   0  0  0  0  0  0  0  0  0  0  0  0
  145.1834  140.7256  156.9845 N   0  0  0  0  0  0  0  0  0  0  0  0
  146.1560  140.0564  156.3652 C   0  0  0  0  0  0  0  0  0  0  0  0
  146.5860  140.5940  155.2052 N   0  0  0  0  0  0  0  0  0  0  0  0
  147.6159  140.0491  154.3327 C   0  0  0  0  0  0  0  0  0  0  0  0
  149.0467  140.2364  154.8848 C   0  0  1  0  0  0  0  0  0  0  0  0
  149.9863  140.1434  153.8346 O   0  0  0  0  0  0  0  0  0  0  0  0
  149.2880  141.5328  155.6807 C   0  0  0  0  0  0  0  0  0  0  0  0
  150.6067  141.5530  156.2036 O   0  0  0  0  0  0  0  0  0  0  0  0
  150.9449  142.7982  156.7896 C   0  0  0  0  0  0  0  0  0  0  0  0
  151.7012  142.6079  158.0879 C   0  0  0  0  0  0  0  0  0  0  0  0
  152.0644  141.3138  158.5157 C   0  0  0  0  0  0  0  0  0  0  0  0
  152.7685  141.1403  159.7232 C   0  0  0  0  0  0  0  0  0  0  0  0
  153.1152  142.2600  160.5043 C   0  0  0  0  0  0  0  0  0  0  0  0
  152.7556  143.5535  160.0787 C   0  0  0  0  0  0  0  0  0  0  0  0
  152.0489  143.7272  158.8728 C   0  0  0  0  0  0  0  0  0  0  0  0
  144.0839  142.8970  156.2265 N   0  0  0  0  0  0  0  0  0  0  0  0
  143.1767  142.9667  157.3758 C   0  0  0  0  0  0  0  0  0  0  0  0
  144.0311  143.8547  155.2442 C   0  0  0  0  0  0  0  0  0  0  0  0
  143.2146  144.7778  155.3164 O   0  0  0  0  0  0  0  0  0  0  0  0
  145.4744  144.6729  152.2918 H   0  0  0  0  0  0  0  0  0  0  0  0
  145.1005  145.7828  153.5941 H   0  0  0  0  0  0  0  0  0  0  0  0
  143.8129  144.9032  152.7685 H   0  0  0  0  0  0  0  0  0  0  0  0
  146.5613  139.1370  156.7616 H   0  0  0  0  0  0  0  0  0  0  0  0
  147.4060  138.9947  154.1516 H   0  0  0  0  0  0  0  0  0  0  0  0
  147.5286  140.5456  153.3649 H   0  0  0  0  0  0  0  0  0  0  0  0
  149.2713  139.4056  155.5531 H   0  0  0  0  0  0  0  0  0  0  0  0
  149.5229  140.1848  153.0120 H   0  0  0  0  0  0  0  0  0  0  0  0
  149.1572  142.3861  155.0130 H   0  0  0  0  0  0  0  0  0  0  0  0
  148.5536  141.6420  156.4805 H   0  0  0  0  0  0  0  0  0  0  0  0
  151.5668  143.3773  156.1046 H   0  0  0  0  0  0  0  0  0  0  0  0
  150.0415  143.3819  156.9742 H   0  0  0  0  0  0  0  0  0  0  0  0
  151.8044  140.4514  157.9195 H   0  0  0  0  0  0  0  0  0  0  0  0
  153.0436  140.1482  160.0496 H   0  0  0  0  0  0  0  0  0  0  0  0
  153.6564  142.1264  161.4294 H   0  0  0  0  0  0  0  0  0  0  0  0
  153.0215  144.4122  160.6774 H   0  0  0  0  0  0  0  0  0  0  0  0
  151.7743  144.7215  158.5520 H   0  0  0  0  0  0  0  0  0  0  0  0
  143.1366  143.9750  157.7911 H   0  0  0  0  0  0  0  0  0  0  0  0
  143.4833  142.3065  158.1870 H   0  0  0  0  0  0  0  0  0  0  0  0
  142.1679  142.6799  157.0771 H   0  0  0  0  0  0  0  0  0  0  0  0
  1  2  1  0  0  0  0
  1 26  1  0  0  0  0
  1 27  1  0  0  0  0
  1 28  1  0  0  0  0
  2 24  1  0  0  0  0
  2  3  1  0  0  0  0
  3  4  2  0  0  0  0
  3  5  1  0  0  0  0
  5  9  1  0  0  0  0
  5  6  2  0  0  0  0
  6  7  1  0  0  0  0
  6 22  1  0  0  0  0
  7  8  2  0  0  0  0
  8  9  1  0  0  0  0
  8 29  1  0  0  0  0
  9 10  1  0  0  0  0
 10 11  1  0  0  0  0
 10 30  1  0  0  0  0
 10 31  1  0  0  0  0
 11 12  1  0  0  0  0
 11 13  1  0  0  0  0
 11 32  1  0  0  0  0
 12 33  1  0  0  0  0
 13 14  1  0  0  0  0
 13 34  1  0  0  0  0
 13 35  1  0  0  0  0
 14 15  1  0  0  0  0
 15 16  1  0  0  0  0
 15 36  1  0  0  0  0
 15 37  1  0  0  0  0
 16 21  1  0  0  0  0
 16 17  2  0  0  0  0
 17 18  1  0  0  0  0
 17 38  1  0  0  0  0
 18 19  2  0  0  0  0
 18 39  1  0  0  0  0
 19 20  1  0  0  0  0
 19 40  1  0  0  0  0
 20 21  2  0  0  0  0
 20 41  1  0  0  0  0
 21 42  1  0  0  0  0
 22 23  1  0  0  0  0
 22 24  1  0  0  0  0
 23 43  1  0  0  0  0
 23 44  1  0  0  0  0
 23 45  1  0  0  0  0
 24 25  2  0  0  0  0
M  END
> <s_m_source_file>
AV-unprocessed.smi

> <i_m_source_file_index>
2133

> <i_lp_mmshare_version>
43012

> <i_f3d_flags>
0

> <s_epik_input>
Tz1jMW4oW0NIM10pYyg9TyluKFtDSDNdKWMoYzEyKW5bY0hdbjJbQ0gyXVtDQEhdKFtPSF0pW0NIMl1PW0NIMl1jM1tjSF1bY0hdW2NIXVtjSF1bY0hdMw==

> <s_epik_cmdline>
J2VwaWtfcHl0aG9uJywgJy1waCcsICc3LjAnLCAnLXRuJywgJzgnLCAnLW1hJywgJzIwMCcsICctbWV0YWxfYmluZGluZycsICctaW1hZScsICc8aW5maWxlLm1hZT4nLCAnLW9tYWUnLCAnPG91dGZpbGUubWFlPic=

> <r_lp_tautomer_probability>
1

> <r_epik_Ionization_Penalty>
1.52174e-06

> <r_epik_Ionization_Penalty_Charging>
3.83535e-09

> <r_epik_Ionization_Penalty_Neutral>
1.5179e-06

> <r_epik_State_Penalty>
-0

> <r_epik_Charging_Adjusted_Penalty>
3.83535e-09

> <i_epik_Tot_Q>
0

> <i_epik_Tot_abs_Q>
0

> <r_epik_Metal_State_Penalty>
-0

> <b_epik_Metal_Only>
0

> <s_lp_Force_Field>
OPLS_2005

> <r_lp_Energy>
39.5783

> <b_lp_Chiralities_Consistent>
1

> <s_lp_Variant>
AV-unprocessed.smi:2133-2

> <Gold.Version>
5.8.1

> <Gold.Id.Protein>
6NUR|6NUR_protein|mol2

> <Gold.PLP.Fitness>
44.8616

> <Gold.PLP.PLP>
-40.9899

> <Gold.PLP.part.hbond>
-2.3339

> <Gold.PLP.part.metal>
0.0000

> <Gold.PLP.part.buried>
-1.3623

> <Gold.PLP.part.nonpolar>
-38.2707

> <Gold.PLP.part.repulsive>
0.3540

> <Gold.PLP.ligand.clash>
0.0000

> <Gold.PLP.ligand.torsion>
0.7638

> <Gold.PLP.Chemscore.Hbond>
1.7760

> <Gold.PLP.Chemscore.CHOScore>
0.0000

> <Gold.PLP.Chemscore.Metal>
0.0000

> <Gold.Chemscore.Hbonds>
donor molecule, donor type, donor heavy atom, donor atom, acceptor molecule, acceptor atom, score
      L1  H    12    33       P1  7957  0.94
      P1  H  7989  7998       L1    12  0.78

> <Gold.PLP.Chemscore.Internal.Correction>
0.0712

> <Gold.Rescore>
     Score         DG    S(hbond)    S(metal)    S(lipo)     H(rot)  DE(clash)    DE(int)     intcor
     11.67     -14.40       1.31        0.00     102.55       2.91       1.84       0.88       ----

> <Gold.Chemscore.Fitness>
11.6718

> <Gold.Chemscore.DG>
-14.3980

> <Gold.Chemscore.ZeroCoef>
-5.4800

> <Gold.Chemscore.Hbond>
1.3105

> <Gold.Chemscore.Metal>
0.0000

> <Gold.Chemscore.Lipo>
102.5518

> <Gold.Chemscore.Internal_Hbond>
0.0000

> <Gold.Chemscore.DEClash>
1.8420

> <Gold.Chemscore.DEInternal>
0.8841

> <Gold.Chemscore.Rot>
2.9132

> <Gold.Chemscore.Internal.Correction>
   9.000000E+99

> <Gold.Chemscore.Hbonds>
donor molecule, donor type, donor heavy atom, donor atom, acceptor molecule, acceptor atom, score
      L1  H    12    33       P1  7957  0.91
      P1  H  7989  7998       L1    12  0.35

> <Gold.Chemscore.Hbond.Weighted>
-4.3772

> <Gold.Chemscore.Metal.Weighted>
-0.0000

> <Gold.Chemscore.Lipo.Weighted>
-11.9986

> <Gold.Chemscore.Internal_Hbond.Weighted>
0.0000

> <Gold.Chemscore.DEClash.Weighted>
1.8420

> <Gold.Chemscore.DEInternal.Weighted>
0.8841

> <Gold.Chemscore.Rot.Weighted>
7.4578

> <Gold.Chemscore.Internal.Correction.Weighted>
   9.000000E+99

> <Gold.Protein.RotatedTorsions>
[ 6907 6896 6895 6894 ] final -170.92 input  -60.11 | X-H torsion
[ 7974 7965 7964 7962 ] final  141.20 input  175.53 | X-H torsion
[ 8008 7997 7996 7995 ] final  -72.22 input   59.86 | X-H torsion
[ 10167 10162 10161 10158 ] final -135.40 input  -65.29 | X-H torsion
[ 10718 10713 10712 10709 ] final   -7.97 input   66.30 | X-H torsion
[ 10763 10752 10751 10750 ] final   31.54 input  -60.55 | X-H torsion
[ 11005 11000 10999 10996 ] final  130.90 input  -57.11 | X-H torsion

> <Gold.Protein.ActiveResidues>
 VAL166  LYS551  ARG553  GLY616  TRP617  ASP618  TYR619  PRO620  LYS621  CYS622 
 ASP623  PHE694  ASN695  SER759  ASP760  ASP761  ALA762  ILE779  LEU786  VAL792 
 PHE793  MET794  SER795  GLU796  ALA797  LYS798  CYS799  TRP800  GLU811  SER814 

> <Gold.Protein.RotatedAtoms>
  151.5155  133.3476  159.2891 H   0  0  0  0  0  0  0  0  0  0  0  0  # atno 6907 bound_to 6896
  150.8685  134.8056  159.7148 H   0  0  0  0  0  0  0  0  0  0  0  0  # atno 6908 bound_to 6896
  152.4682  134.5035  159.9784 H   0  0  0  0  0  0  0  0  0  0  0  0  # atno 6909 bound_to 6896
  144.9118  139.5283  143.5705 H   0  0  0  0  0  0  0  0  0  0  0  0  # atno 7974 bound_to 7965
  154.5149  140.0801  156.8061 H   0  0  0  0  0  0  0  0  0  0  0  0  # atno 8008 bound_to 7997
  155.3703  140.3422  155.4225 H   0  0  0  0  0  0  0  0  0  0  0  0  # atno 8009 bound_to 7997
  156.1616  140.1590  156.8590 H   0  0  0  0  0  0  0  0  0  0  0  0  # atno 8010 bound_to 7997
  139.8782  143.6872  152.2631 H   0  0  0  0  0  0  0  0  0  0  0  0  # atno 10167 bound_to 10162
  156.7094  130.5117  149.5896 H   0  0  0  0  0  0  0  0  0  0  0  0  # atno 10718 bound_to 10713
  153.0310  135.6436  154.1216 H   0  0  0  0  0  0  0  0  0  0  0  0  # atno 10763 bound_to 10752
  154.0938  135.2864  155.3267 H   0  0  0  0  0  0  0  0  0  0  0  0  # atno 10764 bound_to 10752
  154.6446  135.5447  153.7893 H   0  0  0  0  0  0  0  0  0  0  0  0  # atno 10765 bound_to 10752
  139.9699  134.9580  156.9361 H   0  0  0  0  0  0  0  0  0  0  0  0  # atno 11005 bound_to 11000
  146.3162  139.7929  142.8981 LP  0  0  0  0  0  0  0  0  0  0  0  0  # atno 17320 bound_to 7965
  145.3442  141.0294  143.3375 LP  0  0  0  0  0  0  0  0  0  0  0  0  # atno 17321 bound_to 7965
  139.7220  144.7600  151.0939 LP  0  0  0  0  0  0  0  0  0  0  0  0  # atno 17342 bound_to 10162
  140.7749  143.5195  150.9553 LP  0  0  0  0  0  0  0  0  0  0  0  0  # atno 17343 bound_to 10162
  156.1671  130.6413  151.0792 LP  0  0  0  0  0  0  0  0  0  0  0  0  # atno 17370 bound_to 10713
  157.6942  131.0800  150.7019 LP  0  0  0  0  0  0  0  0  0  0  0  0  # atno 17371 bound_to 10713
  140.5316  134.0808  155.7317 LP  0  0  0  0  0  0  0  0  0  0  0  0  # atno 17394 bound_to 11000
  141.1379  133.9190  157.2393 LP  0  0  0  0  0  0  0  0  0  0  0  0  # atno 17395 bound_to 11000

$$$$
