AV-unprocessed.smi:2718|AV-procd|sdf|10488|dock3
  -GOLD-   2272014533D 1   1.00000     0.00000
 Structure written by MMmdl.
 47 48  0  0  0  0  0  0  0  0  1 V2000
  146.4339  139.3284  153.0513 C   0  0  0  0  0  0  0  0  0  0  0  0
  147.0260  138.6423  154.2666 C   0  0  0  0  0  0  0  0  0  0  0  0
  146.0500  137.7758  155.0440 C   0  0  0  0  0  0  0  0  0  0  0  0
  148.3205  138.7973  154.6047 C   0  0  0  0  0  0  0  0  0  0  0  0
  149.0161  138.1555  155.7580 C   0  0  2  0  0  0  0  0  0  0  0  0
  150.1302  138.8219  156.5536 C   0  0  2  0  0  0  0  0  0  0  0  0
  150.6431  140.1840  156.1761 C   0  0  0  0  0  0  0  0  0  0  0  0
  151.1399  140.4649  155.0854 O   0  0  0  0  0  0  0  0  0  0  0  0
  150.5063  141.0878  157.1581 N   0  0  0  0  0  0  0  0  0  0  0  0
  150.9542  142.4781  157.1158 C   0  0  0  0  0  0  0  0  0  0  0  0
  151.5082  143.0040  158.4605 C   0  0  2  0  0  0  0  0  0  0  0  0
  152.1564  144.3870  158.3051 C   0  0  0  0  0  0  0  0  0  0  0  0
  152.4363  142.0325  159.1391 C   0  0  0  0  0  0  0  0  0  0  0  0
  152.8570  140.8914  158.5767 N   0  0  0  0  0  0  0  0  0  0  0  0
  153.6886  140.3006  159.5064 N   0  0  0  0  0  0  0  0  0  0  0  0
  153.7012  141.1506  160.5318 C   0  0  0  0  0  0  0  0  0  0  0  0
  152.9513  142.2502  160.3675 N   0  0  0  0  0  0  0  0  0  0  0  0
  152.7675  143.3608  161.2800 C   0  0  0  0  0  0  0  0  0  0  0  0
  150.4315  137.6007  155.6868 C   0  0  0  0  0  0  0  0  0  0  0  0
  150.7439  136.2974  156.4029 C   0  0  0  0  0  0  0  0  0  0  0  0
  151.2579  137.6621  154.4030 C   0  0  0  0  0  0  0  0  0  0  0  0
  146.0612  138.5869  152.3443 H   0  0  0  0  0  0  0  0  0  0  0  0
  147.1727  139.9448  152.5377 H   0  0  0  0  0  0  0  0  0  0  0  0
  145.6032  139.9701  153.3438 H   0  0  0  0  0  0  0  0  0  0  0  0
  145.1627  138.3510  155.3061 H   0  0  0  0  0  0  0  0  0  0  0  0
  146.4759  137.3895  155.9695 H   0  0  0  0  0  0  0  0  0  0  0  0
  145.7345  136.9281  154.4354 H   0  0  0  0  0  0  0  0  0  0  0  0
  148.9286  139.4375  153.9843 H   0  0  0  0  0  0  0  0  0  0  0  0
  148.3094  137.5746  156.3479 H   0  0  0  0  0  0  0  0  0  0  0  0
  150.0985  138.6399  157.6272 H   0  0  0  0  0  0  0  0  0  0  0  0
  150.0755  140.7813  158.0184 H   0  0  0  0  0  0  0  0  0  0  0  0
  151.7373  142.5290  156.3591 H   0  0  0  0  0  0  0  0  0  0  0  0
  150.1439  143.1167  156.7604 H   0  0  0  0  0  0  0  0  0  0  0  0
  150.6456  143.1497  159.1094 H   0  0  0  0  0  0  0  0  0  0  0  0
  152.4612  144.7866  159.2728 H   0  0  0  0  0  0  0  0  0  0  0  0
  151.4614  145.0982  157.8581 H   0  0  0  0  0  0  0  0  0  0  0  0
  153.0413  144.3419  157.6697 H   0  0  0  0  0  0  0  0  0  0  0  0
  154.2780  140.9669  161.4264 H   0  0  0  0  0  0  0  0  0  0  0  0
  153.3739  143.2168  162.1745 H   0  0  0  0  0  0  0  0  0  0  0  0
  151.7188  143.4293  161.5694 H   0  0  0  0  0  0  0  0  0  0  0  0
  153.0687  144.2895  160.7952 H   0  0  0  0  0  0  0  0  0  0  0  0
  151.8042  136.2453  156.6519 H   0  0  0  0  0  0  0  0  0  0  0  0
  150.4909  135.4449  155.7718 H   0  0  0  0  0  0  0  0  0  0  0  0
  150.1719  136.2154  157.3278 H   0  0  0  0  0  0  0  0  0  0  0  0
  152.3186  137.7385  154.6440 H   0  0  0  0  0  0  0  0  0  0  0  0
  150.9950  138.5058  153.7694 H   0  0  0  0  0  0  0  0  0  0  0  0
  151.1054  136.7575  153.8136 H   0  0  0  0  0  0  0  0  0  0  0  0
  1  2  1  0  0  0  0
  1 22  1  0  0  0  0
  1 23  1  0  0  0  0
  1 24  1  0  0  0  0
  2  3  1  0  0  0  0
  2  4  2  0  0  0  0
  3 25  1  0  0  0  0
  3 26  1  0  0  0  0
  3 27  1  0  0  0  0
  4  5  1  0  0  0  0
  4 28  1  0  0  0  0
  5 19  1  0  0  0  0
  5  6  1  0  0  0  0
  5 29  1  0  0  0  0
  6  7  1  0  0  0  0
  6 19  1  0  0  0  0
  6 30  1  0  0  0  0
  7  8  2  0  0  0  0
  7  9  1  0  0  0  0
  9 10  1  0  0  0  0
  9 31  1  0  0  0  0
 10 11  1  0  0  0  0
 10 32  1  0  0  0  0
 10 33  1  0  0  0  0
 11 12  1  0  0  0  0
 11 13  1  0  0  0  0
 11 34  1  0  0  0  0
 12 35  1  0  0  0  0
 12 36  1  0  0  0  0
 12 37  1  0  0  0  0
 13 17  1  0  0  0  0
 13 14  2  0  0  0  0
 14 15  1  0  0  0  0
 15 16  2  0  0  0  0
 16 17  1  0  0  0  0
 16 38  1  0  0  0  0
 17 18  1  0  0  0  0
 18 39  1  0  0  0  0
 18 40  1  0  0  0  0
 18 41  1  0  0  0  0
 19 20  1  0  0  0  0
 19 21  1  0  0  0  0
 20 42  1  0  0  0  0
 20 43  1  0  0  0  0
 20 44  1  0  0  0  0
 21 45  1  0  0  0  0
 21 46  1  0  0  0  0
 21 47  1  0  0  0  0
M  END
> <s_m_source_file>
AV-unprocessed.smi

> <i_m_source_file_index>
2718

> <i_lp_mmshare_version>
43012

> <i_f3d_flags>
0

> <s_epik_input>
W0NIM11DKFtDSDNdKT1bQ0hdW0NAQEhdKEMxKFtDSDNdKVtDSDNdKVtDQEhdMUMoPU8pW05IXVtDSDJdW0NASF0oW0NIM10pYzJubltjSF1uMltDSDNd

> <s_epik_cmdline>
J2VwaWtfcHl0aG9uJywgJy1waCcsICc3LjAnLCAnLXRuJywgJzgnLCAnLW1hJywgJzIwMCcsICctbWV0YWxfYmluZGluZycsICctaW1hZScsICc8aW5maWxlLm1hZT4nLCAnLW9tYWUnLCAnPG91dGZpbGUubWFlPic=

> <r_lp_tautomer_probability>
1

> <r_epik_Ionization_Penalty>
0.000449586

> <r_epik_Ionization_Penalty_Charging>
0

> <r_epik_Ionization_Penalty_Neutral>
0.000449586

> <r_epik_State_Penalty>
0.000243372

> <r_epik_Charging_Adjusted_Penalty>
0.000243372

> <i_epik_Tot_Q>
0

> <i_epik_Tot_abs_Q>
0

> <r_epik_Metal_State_Penalty>
-0

> <b_epik_Metal_Only>
0

> <s_lp_Force_Field>
OPLS_2005

> <r_lp_Energy>
15.3261

> <b_lp_Chiralities_Consistent>
1

> <s_lp_Variant>
AV-unprocessed.smi:2718-3

> <Gold.Version>
5.8.1

> <Gold.Id.Protein>
6NUR|6NUR_protein|mol2

> <Gold.PLP.Fitness>
40.3311

> <Gold.PLP.PLP>
-38.7642

> <Gold.PLP.part.hbond>
-0.9871

> <Gold.PLP.part.metal>
0.0000

> <Gold.PLP.part.buried>
-3.5707

> <Gold.PLP.part.nonpolar>
-34.8407

> <Gold.PLP.part.repulsive>
0.0943

> <Gold.PLP.ligand.clash>
0.0000

> <Gold.PLP.ligand.torsion>
0.7230

> <Gold.PLP.Chemscore.Hbond>
0.8960

> <Gold.PLP.Chemscore.CHOScore>
0.0000

> <Gold.PLP.Chemscore.Metal>
0.0000

> <Gold.Chemscore.Hbonds>
donor molecule, donor type, donor heavy atom, donor atom, acceptor molecule, acceptor atom, score
      P1  H  7989  7998       L1     8  1.00

> <Gold.PLP.Chemscore.Internal.Correction>
0.3249

> <Gold.Rescore>
     Score         DG    S(hbond)    S(metal)    S(lipo)     H(rot)  DE(clash)    DE(int)     intcor
     10.25     -13.81       0.92        0.00      87.78       1.95       0.08       3.48       ----

> <Gold.Chemscore.Fitness>
10.2507

> <Gold.Chemscore.DG>
-13.8124

> <Gold.Chemscore.ZeroCoef>
-5.4800

> <Gold.Chemscore.Hbond>
0.9169

> <Gold.Chemscore.Metal>
0.0000

> <Gold.Chemscore.Lipo>
87.7828

> <Gold.Chemscore.Internal_Hbond>
0.0000

> <Gold.Chemscore.DEClash>
0.0834

> <Gold.Chemscore.DEInternal>
3.4784

> <Gold.Chemscore.Rot>
1.9533

> <Gold.Chemscore.Internal.Correction>
   9.000000E+99

> <Gold.Chemscore.Hbonds>
donor molecule, donor type, donor heavy atom, donor atom, acceptor molecule, acceptor atom, score
      P1  H  7989  7998       L1     8  0.94

> <Gold.Chemscore.Hbond.Weighted>
-3.0624

> <Gold.Chemscore.Metal.Weighted>
-0.0000

> <Gold.Chemscore.Lipo.Weighted>
-10.2706

> <Gold.Chemscore.Internal_Hbond.Weighted>
0.0000

> <Gold.Chemscore.DEClash.Weighted>
0.0834

> <Gold.Chemscore.DEInternal.Weighted>
3.4784

> <Gold.Chemscore.Rot.Weighted>
5.0005

> <Gold.Chemscore.Internal.Correction.Weighted>
   9.000000E+99

> <Gold.Protein.RotatedTorsions>
[ 6907 6896 6895 6894 ] final  114.69 input  -60.11 | X-H torsion
[ 7974 7965 7964 7962 ] final  -86.87 input  175.53 | X-H torsion
[ 8008 7997 7996 7995 ] final  -24.62 input   59.86 | X-H torsion
[ 10167 10162 10161 10158 ] final  101.47 input  -65.29 | X-H torsion
[ 10718 10713 10712 10709 ] final  -68.39 input   66.30 | X-H torsion
[ 10763 10752 10751 10750 ] final   71.14 input  -60.55 | X-H torsion
[ 11005 11000 10999 10996 ] final -127.71 input  -57.11 | X-H torsion

> <Gold.Protein.ActiveResidues>
 VAL166  LYS551  ARG553  GLY616  TRP617  ASP618  TYR619  PRO620  LYS621  CYS622 
 ASP623  PHE694  ASN695  SER759  ASP760  ASP761  ALA762  ILE779  LEU786  VAL792 
 PHE793  MET794  SER795  GLU796  ALA797  LYS798  CYS799  TRP800  GLU811  SER814 

> <Gold.Protein.RotatedAtoms>
  152.4787  133.8202  159.7048 H   0  0  0  0  0  0  0  0  0  0  0  0  # atno 6907 bound_to 6896
  150.8822  133.7347  159.2935 H   0  0  0  0  0  0  0  0  0  0  0  0  # atno 6908 bound_to 6896
  151.4847  135.1058  159.9839 H   0  0  0  0  0  0  0  0  0  0  0  0  # atno 6909 bound_to 6896
  145.4741  140.9559  143.1901 H   0  0  0  0  0  0  0  0  0  0  0  0  # atno 7974 bound_to 7965
  154.4519  140.1948  156.0493 H   0  0  0  0  0  0  0  0  0  0  0  0  # atno 8008 bound_to 7997
  156.0666  140.3290  155.7498 H   0  0  0  0  0  0  0  0  0  0  0  0  # atno 8009 bound_to 7997
  155.5329  140.0579  157.2876 H   0  0  0  0  0  0  0  0  0  0  0  0  # atno 8010 bound_to 7997
  139.7435  144.7004  151.0539 H   0  0  0  0  0  0  0  0  0  0  0  0  # atno 10167 bound_to 10162
  156.0508  130.4294  150.1993 H   0  0  0  0  0  0  0  0  0  0  0  0  # atno 10718 bound_to 10713
  153.0382  135.5148  154.7548 H   0  0  0  0  0  0  0  0  0  0  0  0  # atno 10763 bound_to 10752
  154.6508  135.2925  154.9992 H   0  0  0  0  0  0  0  0  0  0  0  0  # atno 10764 bound_to 10752
  154.0877  135.6655  153.4900 H   0  0  0  0  0  0  0  0  0  0  0  0  # atno 10765 bound_to 10752
  140.9576  134.0980  157.4000 H   0  0  0  0  0  0  0  0  0  0  0  0  # atno 11005 bound_to 11000
  144.7928  139.6295  143.7106 LP  0  0  0  0  0  0  0  0  0  0  0  0  # atno 17320 bound_to 7965
  146.2379  139.5943  142.9511 LP  0  0  0  0  0  0  0  0  0  0  0  0  # atno 17321 bound_to 7965
  140.7789  143.4895  150.9912 LP  0  0  0  0  0  0  0  0  0  0  0  0  # atno 17342 bound_to 10162
  139.8583  143.7347  152.3175 LP  0  0  0  0  0  0  0  0  0  0  0  0  # atno 17343 bound_to 10162
  157.0077  130.9941  151.3374 LP  0  0  0  0  0  0  0  0  0  0  0  0  # atno 17370 bound_to 10713
  157.5432  130.8133  149.8054 LP  0  0  0  0  0  0  0  0  0  0  0  0  # atno 17371 bound_to 10713
  139.8867  135.0084  156.6517 LP  0  0  0  0  0  0  0  0  0  0  0  0  # atno 17394 bound_to 11000
  140.7513  133.8895  155.8349 LP  0  0  0  0  0  0  0  0  0  0  0  0  # atno 17395 bound_to 11000

$$$$
