AV-unprocessed.smi:1033|AV-procd|sdf|4512|dock5
  -GOLD-   22720 2523D 1   1.00000     0.00000
 Structure written by MMmdl.
 57 59  0  0  0  0  0  0  0  0  3 V2000
  152.6041  142.6180  162.0628 C   0  0  0  0  0  0  0  0  0  0  0  0
  152.1013  142.3266  160.6598 C   0  0  0  0  0  0  0  0  0  0  0  0
  152.3003  141.0392  160.1129 C   0  0  0  0  0  0  0  0  0  0  0  0
  151.8459  140.7264  158.8136 C   0  0  0  0  0  0  0  0  0  0  0  0
  151.9320  139.5495  158.0907 N   0  0  0  0  0  0  0  0  0  0  0  0
  151.3286  139.8867  156.9551 C   0  0  0  0  0  0  0  0  0  0  0  0
  150.8756  141.1511  156.8496 N   0  0  0  0  0  0  0  0  0  0  0  0
  150.2027  141.7473  155.7098 C   0  0  0  0  0  0  0  0  0  0  0  0
  149.4625  140.7065  154.8449 C   0  0  2  0  0  0  0  0  0  0  0  0
  150.4039  140.1259  153.9656 O   0  0  0  0  0  0  0  0  0  0  0  0
  148.3073  141.3071  154.0120 C   0  0  0  0  0  0  0  0  0  0  0  0
  147.4355  142.2144  154.8026 N   0  3  2  0  0  0  0  0  0  0  0  0
  146.9394  141.5721  156.0452 C   0  0  0  0  0  0  0  0  0  0  0  0
  146.1256  142.5645  156.8967 C   0  0  0  0  0  0  0  0  0  0  0  0
  144.9972  143.1517  156.1320 N   0  3  2  0  0  0  0  0  0  0  0  0
  143.8426  142.2268  155.9706 C   0  0  0  0  0  0  0  0  0  0  0  0
  142.4981  142.9700  155.8361 C   0  0  1  0  0  0  0  0  0  0  0  0
  142.3299  144.0421  156.9204 C   0  0  0  0  0  0  0  0  0  0  0  0
  142.4405  143.6149  154.5797 O   0  0  0  0  0  0  0  0  0  0  0  0
  145.4761  143.7730  154.8688 C   0  0  0  0  0  0  0  0  0  0  0  0
  146.3179  142.7998  154.0164 C   0  0  0  0  0  0  0  0  0  0  0  0
  151.1852  141.7464  158.0680 C   0  0  0  0  0  0  0  0  0  0  0  0
  150.9789  143.0307  158.6022 C   0  0  0  0  0  0  0  0  0  0  0  0
  151.4374  143.3254  159.9031 C   0  0  0  0  0  0  0  0  0  0  0  0
  151.2081  144.7139  160.4733 C   0  0  0  0  0  0  0  0  0  0  0  0
  153.0926  141.7466  162.4998 H   0  0  0  0  0  0  0  0  0  0  0  0
  151.7767  142.8987  162.7148 H   0  0  0  0  0  0  0  0  0  0  0  0
  153.3268  143.4339  162.0485 H   0  0  0  0  0  0  0  0  0  0  0  0
  152.8041  140.2775  160.6900 H   0  0  0  0  0  0  0  0  0  0  0  0
  151.2195  139.1759  156.1489 H   0  0  0  0  0  0  0  0  0  0  0  0
  149.5032  142.4997  156.0778 H   0  0  0  0  0  0  0  0  0  0  0  0
  150.9471  142.2779  155.1143 H   0  0  0  0  0  0  0  0  0  0  0  0
  149.0890  139.9214  155.5005 H   0  0  0  0  0  0  0  0  0  0  0  0
  150.0145  140.0607  153.1060 H   0  0  0  0  0  0  0  0  0  0  0  0
  148.6874  141.8553  153.1489 H   0  0  0  0  0  0  0  0  0  0  0  0
  147.7126  140.4848  153.6107 H   0  0  0  0  0  0  0  0  0  0  0  0
  146.3334  140.7008  155.7910 H   0  0  0  0  0  0  0  0  0  0  0  0
  147.7835  141.2077  156.6319 H   0  0  0  0  0  0  0  0  0  0  0  0
  145.7619  142.0851  157.8065 H   0  0  0  0  0  0  0  0  0  0  0  0
  146.7761  143.3767  157.2241 H   0  0  0  0  0  0  0  0  0  0  0  0
  144.0047  141.5818  155.1070 H   0  0  0  0  0  0  0  0  0  0  0  0
  143.7798  141.5587  156.8312 H   0  0  0  0  0  0  0  0  0  0  0  0
  141.6594  142.2785  155.9073 H   0  0  0  0  0  0  0  0  0  0  0  0
  142.3422  143.5972  157.9156 H   0  0  0  0  0  0  0  0  0  0  0  0
  141.3817  144.5693  156.8091 H   0  0  0  0  0  0  0  0  0  0  0  0
  143.1286  144.7834  156.8771 H   0  0  0  0  0  0  0  0  0  0  0  0
  142.5335  142.9710  153.8947 H   0  0  0  0  0  0  0  0  0  0  0  0
  144.6434  144.1635  154.2850 H   0  0  0  0  0  0  0  0  0  0  0  0
  146.0883  144.6372  155.1311 H   0  0  0  0  0  0  0  0  0  0  0  0
  146.7055  143.3411  153.1542 H   0  0  0  0  0  0  0  0  0  0  0  0
  145.6922  141.9995  153.6197 H   0  0  0  0  0  0  0  0  0  0  0  0
  150.4686  143.7824  158.0186 H   0  0  0  0  0  0  0  0  0  0  0  0
  150.6805  145.3534  159.7650 H   0  0  0  0  0  0  0  0  0  0  0  0
  152.1589  145.1909  160.7114 H   0  0  0  0  0  0  0  0  0  0  0  0
  150.6103  144.6593  161.3833 H   0  0  0  0  0  0  0  0  0  0  0  0
  144.6447  143.9035  156.7078 H   0  0  0  0  0  0  0  0  0  0  0  0
  148.0260  142.9799  155.0968 H   0  0  0  0  0  0  0  0  0  0  0  0
  1  2  1  0  0  0  0
  1 26  1  0  0  0  0
  1 27  1  0  0  0  0
  1 28  1  0  0  0  0
  2 24  1  0  0  0  0
  2  3  2  0  0  0  0
  3  4  1  0  0  0  0
  3 29  1  0  0  0  0
  4 22  2  0  0  0  0
  4  5  1  0  0  0  0
  5  6  2  0  0  0  0
  6  7  1  0  0  0  0
  6 30  1  0  0  0  0
  7  8  1  0  0  0  0
  7 22  1  0  0  0  0
  8  9  1  0  0  0  0
  8 31  1  0  0  0  0
  8 32  1  0  0  0  0
  9 10  1  0  0  0  0
  9 11  1  0  0  0  0
  9 33  1  0  0  0  0
 10 34  1  0  0  0  0
 11 12  1  0  0  0  0
 11 35  1  0  0  0  0
 11 36  1  0  0  0  0
 12 21  1  0  0  0  0
 12 13  1  0  0  0  0
 12 57  1  0  0  0  0
 13 14  1  0  0  0  0
 13 37  1  0  0  0  0
 13 38  1  0  0  0  0
 14 15  1  0  0  0  0
 14 39  1  0  0  0  0
 14 40  1  0  0  0  0
 15 16  1  0  0  0  0
 15 20  1  0  0  0  0
 15 56  1  0  0  0  0
 16 17  1  0  0  0  0
 16 41  1  0  0  0  0
 16 42  1  0  0  0  0
 17 18  1  0  0  0  0
 17 19  1  0  0  0  0
 17 43  1  0  0  0  0
 18 44  1  0  0  0  0
 18 45  1  0  0  0  0
 18 46  1  0  0  0  0
 19 47  1  0  0  0  0
 20 21  1  0  0  0  0
 20 48  1  0  0  0  0
 20 49  1  0  0  0  0
 21 50  1  0  0  0  0
 21 51  1  0  0  0  0
 22 23  1  0  0  0  0
 23 24  2  0  0  0  0
 23 52  1  0  0  0  0
 24 25  1  0  0  0  0
 25 53  1  0  0  0  0
 25 54  1  0  0  0  0
 25 55  1  0  0  0  0
M  CHG  1  12   1
M  CHG  1  15   1
M  END
> <s_m_source_file>
AV-unprocessed.smi

> <i_m_source_file_index>
1033

> <i_lp_mmshare_version>
43012

> <i_f3d_flags>
0

> <s_epik_input>
W0NIM11jKFtjSF0xKWMoW0NIM10pW2NIXWMoYzEyKW4oW2NIXW4yKVtDSDJdW0NASF0oW09IXSlbQ0gyXU4zW0NIMl1bQ0gyXU4oW0NIMl1bQ0gyXTMpW0NIMl1bQ0BIXShbQ0gzXSlbT0hd

> <s_epik_cmdline>
J2VwaWtfcHl0aG9uJywgJy1waCcsICc3LjAnLCAnLXRuJywgJzgnLCAnLW1hJywgJzIwMCcsICctbWV0YWxfYmluZGluZycsICctaW1hZScsICc8aW5maWxlLm1hZT4nLCAnLW9tYWUnLCAnPG91dGZpbGUubWFlPic=

> <r_epik_Ionization_Penalty>
3.16016

> <r_epik_Ionization_Penalty_Charging>
3.07679

> <r_epik_Ionization_Penalty_Neutral>
0.083365

> <r_epik_State_Penalty>
2.09701

> <r_epik_Charging_Adjusted_Penalty>
5.1738

> <i_epik_Tot_Q>
2

> <i_epik_Tot_abs_Q>
2

> <r_epik_Metal_State_Penalty>
2.02534

> <b_epik_Metal_Only>
0

> <s_lp_Force_Field>
OPLS_2005

> <r_lp_Energy>
31.6916

> <b_lp_Chiralities_Consistent>
1

> <s_lp_Variant>
AV-unprocessed.smi:1033-23

> <Gold.Version>
5.8.1

> <Gold.Id.Protein>
6NUR|6NUR_protein|mol2

> <Gold.PLP.Fitness>
62.2701

> <Gold.PLP.PLP>
-49.3865

> <Gold.PLP.part.hbond>
-4.0000

> <Gold.PLP.part.metal>
0.0000

> <Gold.PLP.part.buried>
-8.0359

> <Gold.PLP.part.nonpolar>
-37.3338

> <Gold.PLP.part.repulsive>
0.1286

> <Gold.PLP.ligand.clash>
0.0000

> <Gold.PLP.ligand.torsion>
1.0358

> <Gold.PLP.Chemscore.Hbond>
4.9600

> <Gold.PLP.Chemscore.CHOScore>
0.0000

> <Gold.PLP.Chemscore.Metal>
0.0000

> <Gold.Chemscore.Hbonds>
donor molecule, donor type, donor heavy atom, donor atom, acceptor molecule, acceptor atom, score
      L1  H    10    34       P1  7957  1.00
      L1  H    12    57       P1  8028  2.00
      L1  H    19    47       P1 10174  1.00
      P1  H  7989  7998       L1    10  0.64

> <Gold.PLP.Chemscore.Internal.Correction>
0.0751

> <Gold.Rescore>
     Score         DG    S(hbond)    S(metal)    S(lipo)     H(rot)  DE(clash)    DE(int)     intcor
     20.52     -23.00       3.16        0.00     128.27       3.14       1.31       1.16       ----

> <Gold.Chemscore.Fitness>
20.5233

> <Gold.Chemscore.DG>
-22.9981

> <Gold.Chemscore.ZeroCoef>
-5.4800

> <Gold.Chemscore.Hbond>
3.1569

> <Gold.Chemscore.Metal>
0.0000

> <Gold.Chemscore.Lipo>
128.2682

> <Gold.Chemscore.Internal_Hbond>
0.0000

> <Gold.Chemscore.DEClash>
1.3124

> <Gold.Chemscore.DEInternal>
1.1624

> <Gold.Chemscore.Rot>
3.1380

> <Gold.Chemscore.Internal.Correction>
   9.000000E+99

> <Gold.Chemscore.Hbonds>
donor molecule, donor type, donor heavy atom, donor atom, acceptor molecule, acceptor atom, score
      L1  H    10    34       P1  7957  0.97
      L1  H    12    57       P1  8028  0.90
      L1  H    19    47       P1 10174  0.95
      P1  H  7989  7998       L1    10  0.06

> <Gold.Chemscore.Hbond.Weighted>
-10.5439

> <Gold.Chemscore.Metal.Weighted>
-0.0000

> <Gold.Chemscore.Lipo.Weighted>
-15.0074

> <Gold.Chemscore.Internal_Hbond.Weighted>
0.0000

> <Gold.Chemscore.DEClash.Weighted>
1.3124

> <Gold.Chemscore.DEInternal.Weighted>
1.1624

> <Gold.Chemscore.Rot.Weighted>
8.0332

> <Gold.Chemscore.Internal.Correction.Weighted>
   9.000000E+99

> <Gold.Protein.RotatedTorsions>
[ 6907 6896 6895 6894 ] final  -58.52 input  -60.11 | X-H torsion
[ 7974 7965 7964 7962 ] final  -21.80 input  175.53 | X-H torsion
[ 8008 7997 7996 7995 ] final   64.42 input   59.86 | X-H torsion
[ 10167 10162 10161 10158 ] final  -50.26 input  -65.29 | X-H torsion
[ 10718 10713 10712 10709 ] final  -36.19 input   66.30 | X-H torsion
[ 10763 10752 10751 10750 ] final  128.22 input  -60.55 | X-H torsion
[ 11005 11000 10999 10996 ] final  -17.39 input  -57.11 | X-H torsion

> <Gold.Protein.ActiveResidues>
 VAL166  LYS551  ARG553  GLY616  TRP617  ASP618  TYR619  PRO620  LYS621  CYS622 
 ASP623  PHE694  ASN695  SER759  ASP760  ASP761  ALA762  ILE779  LEU786  VAL792 
 PHE793  MET794  SER795  GLU796  ALA797  LYS798  CYS799  TRP800  GLU811  SER814 

> <Gold.Protein.RotatedAtoms>
  150.8001  134.7088  159.6591 H   0  0  0  0  0  0  0  0  0  0  0  0  # atno 6907 bound_to 6896
  152.4117  134.6110  160.0035 H   0  0  0  0  0  0  0  0  0  0  0  0  # atno 6908 bound_to 6896
  151.6351  133.3292  159.3153 H   0  0  0  0  0  0  0  0  0  0  0  0  # atno 6909 bound_to 6896
  146.1712  140.4390  142.8531 H   0  0  0  0  0  0  0  0  0  0  0  0  # atno 7974 bound_to 7965
  155.6458  140.3497  155.4731 H   0  0  0  0  0  0  0  0  0  0  0  0  # atno 8008 bound_to 7997
  155.9888  140.1189  157.0681 H   0  0  0  0  0  0  0  0  0  0  0  0  # atno 8009 bound_to 7997
  154.4213  140.1123  156.5523 H   0  0  0  0  0  0  0  0  0  0  0  0  # atno 8010 bound_to 7997
  140.6646  143.2665  151.4333 H   0  0  0  0  0  0  0  0  0  0  0  0  # atno 10167 bound_to 10162
  156.3298  130.4277  149.7883 H   0  0  0  0  0  0  0  0  0  0  0  0  # atno 10718 bound_to 10713
  153.7221  135.3252  155.3269 H   0  0  0  0  0  0  0  0  0  0  0  0  # atno 10763 bound_to 10752
  154.8353  135.4502  154.1207 H   0  0  0  0  0  0  0  0  0  0  0  0  # atno 10764 bound_to 10752
  153.2330  135.6962  153.7948 H   0  0  0  0  0  0  0  0  0  0  0  0  # atno 10765 bound_to 10752
  140.8163  133.8102  155.9614 H   0  0  0  0  0  0  0  0  0  0  0  0  # atno 11005 bound_to 11000
  144.8167  140.6479  143.6380 LP  0  0  0  0  0  0  0  0  0  0  0  0  # atno 17320 bound_to 7965
  145.4334  139.1546  143.4010 LP  0  0  0  0  0  0  0  0  0  0  0  0  # atno 17321 bound_to 7965
  139.5891  144.1539  152.2066 LP  0  0  0  0  0  0  0  0  0  0  0  0  # atno 17342 bound_to 10162
  140.0888  144.5638  150.7069 LP  0  0  0  0  0  0  0  0  0  0  0  0  # atno 17343 bound_to 10162
  156.5160  130.8193  151.3186 LP  0  0  0  0  0  0  0  0  0  0  0  0  # atno 17370 bound_to 10713
  157.7428  130.9898  150.2544 LP  0  0  0  0  0  0  0  0  0  0  0  0  # atno 17371 bound_to 10713
  140.9145  134.2218  157.4965 LP  0  0  0  0  0  0  0  0  0  0  0  0  # atno 17394 bound_to 11000
  139.8711  134.9765  156.4924 LP  0  0  0  0  0  0  0  0  0  0  0  0  # atno 17395 bound_to 11000

$$$$
