AV-unprocessed.smi:3243|AV-procd|sdf|12394|dock4
  -GOLD-   2272018263D 1   1.00000     0.00000
 Structure written by MMmdl.
 37 38  0  0  0  0  0  0  0  0  1 V2000
  154.0593  140.6572  160.0324 C   0  0  0  0  0  0  0  0  0  0  0  0
  153.6079  142.0638  160.4505 C   0  0  0  0  0  0  0  0  0  0  0  0
  153.1497  142.1400  161.9140 C   0  0  0  0  0  0  0  0  0  0  0  0
  152.5894  142.6308  159.5121 C   0  0  0  0  0  0  0  0  0  0  0  0
  151.3988  142.0688  159.2806 N   0  0  0  0  0  0  0  0  0  0  0  0
  150.6275  142.7928  158.3668 C   0  0  0  0  0  0  0  0  0  0  0  0
  149.2562  142.3139  157.9989 C   0  0  0  0  0  0  0  0  0  0  0  0
  149.2903  140.9427  157.3035 C   0  0  0  0  0  0  0  0  0  0  0  0
  148.6256  140.9779  156.0057 N   0  0  0  0  0  0  0  0  0  0  0  0
  149.2346  140.8023  154.8230 C   0  0  0  0  0  0  0  0  0  0  0  0
  150.4421  140.5809  154.7166 O   0  0  0  0  0  0  0  0  0  0  0  0
  148.3173  140.8994  153.6479 C   0  0  2  0  0  0  0  0  0  0  0  0
  146.9060  141.3905  153.8991 C   0  0  0  0  0  0  0  0  0  0  0  0
  147.1479  139.9345  153.5834 C   0  0  1  0  0  0  0  0  0  0  0  0
  146.7151  139.3442  152.2588 C   0  0  0  0  0  0  0  0  0  0  0  0
  151.2566  143.9205  157.9020 C   0  0  0  0  0  0  0  0  0  0  0  0
  152.8416  144.1140  158.5980 S   0  0  0  0  0  0  0  0  0  0  0  0
  154.4569  140.6588  159.0171 H   0  0  0  0  0  0  0  0  0  0  0  0
  153.2311  139.9486  160.0653 H   0  0  0  0  0  0  0  0  0  0  0  0
  154.8424  140.2838  160.6927 H   0  0  0  0  0  0  0  0  0  0  0  0
  154.4873  142.7041  160.3713 H   0  0  0  0  0  0  0  0  0  0  0  0
  152.9172  143.1666  162.1990 H   0  0  0  0  0  0  0  0  0  0  0  0
  153.9261  141.7779  162.5884 H   0  0  0  0  0  0  0  0  0  0  0  0
  152.2567  141.5371  162.0819 H   0  0  0  0  0  0  0  0  0  0  0  0
  148.6353  142.2573  158.8940 H   0  0  0  0  0  0  0  0  0  0  0  0
  148.7720  143.0414  157.3462 H   0  0  0  0  0  0  0  0  0  0  0  0
  150.3233  140.6317  157.1446 H   0  0  0  0  0  0  0  0  0  0  0  0
  148.8315  140.1817  157.9373 H   0  0  0  0  0  0  0  0  0  0  0  0
  147.6314  141.1547  156.0066 H   0  0  0  0  0  0  0  0  0  0  0  0
  148.7715  141.1882  152.7010 H   0  0  0  0  0  0  0  0  0  0  0  0
  146.6146  141.6388  154.9181 H   0  0  0  0  0  0  0  0  0  0  0  0
  146.4595  142.0174  153.1300 H   0  0  0  0  0  0  0  0  0  0  0  0
  147.0303  139.2442  154.4171 H   0  0  0  0  0  0  0  0  0  0  0  0
  146.8358  140.0688  151.4531 H   0  0  0  0  0  0  0  0  0  0  0  0
  145.6671  139.0485  152.3057 H   0  0  0  0  0  0  0  0  0  0  0  0
  147.3155  138.4644  152.0280 H   0  0  0  0  0  0  0  0  0  0  0  0
  150.8832  144.6484  157.1968 H   0  0  0  0  0  0  0  0  0  0  0  0
  1  2  1  0  0  0  0
  1 18  1  0  0  0  0
  1 19  1  0  0  0  0
  1 20  1  0  0  0  0
  2  3  1  0  0  0  0
  2  4  1  0  0  0  0
  2 21  1  0  0  0  0
  3 22  1  0  0  0  0
  3 23  1  0  0  0  0
  3 24  1  0  0  0  0
  4 17  1  0  0  0  0
  4  5  2  0  0  0  0
  5  6  1  0  0  0  0
  6  7  1  0  0  0  0
  6 16  2  0  0  0  0
  7  8  1  0  0  0  0
  7 25  1  0  0  0  0
  7 26  1  0  0  0  0
  8  9  1  0  0  0  0
  8 27  1  0  0  0  0
  8 28  1  0  0  0  0
  9 10  1  0  0  0  0
  9 29  1  0  0  0  0
 10 11  2  0  0  0  0
 10 12  1  0  0  0  0
 12 14  1  0  0  0  0
 12 13  1  0  0  0  0
 12 30  1  0  0  0  0
 13 14  1  0  0  0  0
 13 31  1  0  0  0  0
 13 32  1  0  0  0  0
 14 15  1  0  0  0  0
 14 33  1  0  0  0  0
 15 34  1  0  0  0  0
 15 35  1  0  0  0  0
 15 36  1  0  0  0  0
 16 17  1  0  0  0  0
 16 37  1  0  0  0  0
M  END
> <s_m_source_file>
AV-unprocessed.smi

> <i_m_source_file_index>
3243

> <i_lp_mmshare_version>
43012

> <i_f3d_flags>
0

> <s_epik_input>
W0NIM11bQ0hdKFtDSDNdKWMxbmMoW2NIXXMxKVtDSDJdW0NIMl1bTkhdQyg9TylbQ0BASF0yW0NIMl1bQ0BIXTJbQ0gzXQ==

> <s_epik_cmdline>
J2VwaWtfcHl0aG9uJywgJy1waCcsICc3LjAnLCAnLXRuJywgJzgnLCAnLW1hJywgJzIwMCcsICctbWV0YWxfYmluZGluZycsICctaW1hZScsICc8aW5maWxlLm1hZT4nLCAnLW9tYWUnLCAnPG91dGZpbGUubWFlPic=

> <r_epik_Ionization_Penalty>
0.00084212

> <r_epik_Ionization_Penalty_Charging>
0

> <r_epik_Ionization_Penalty_Neutral>
0.00084212

> <r_epik_State_Penalty>
0.000542609

> <r_epik_Charging_Adjusted_Penalty>
0.000542609

> <i_epik_Tot_Q>
0

> <i_epik_Tot_abs_Q>
0

> <r_epik_Metal_State_Penalty>
-0

> <b_epik_Metal_Only>
0

> <s_lp_Force_Field>
OPLS_2005

> <r_lp_Energy>
-2.76955

> <b_lp_Chiralities_Consistent>
1

> <s_lp_Variant>
AV-unprocessed.smi:3243-1

> <Gold.Version>
5.8.1

> <Gold.Id.Protein>
6NUR|6NUR_protein|mol2

> <Gold.PLP.Fitness>
46.9560

> <Gold.PLP.PLP>
-41.8720

> <Gold.PLP.part.hbond>
-1.4789

> <Gold.PLP.part.metal>
0.0000

> <Gold.PLP.part.buried>
-2.1861

> <Gold.PLP.part.nonpolar>
-38.7556

> <Gold.PLP.part.repulsive>
0.0908

> <Gold.PLP.ligand.clash>
0.0000

> <Gold.PLP.ligand.torsion>
0.5409

> <Gold.PLP.Chemscore.Hbond>
1.0000

> <Gold.PLP.Chemscore.CHOScore>
0.9962

> <Gold.PLP.Chemscore.Metal>
0.0000

> <Gold.Chemscore.Hbonds>
donor molecule, donor type, donor heavy atom, donor atom, acceptor molecule, acceptor atom, score
      P1  H  7989  7998       L1    11  0.96
      L1  C    16    37       P1  8028  1.00

> <Gold.PLP.Chemscore.Internal.Correction>
0.1771

> <Gold.Rescore>
     Score         DG    S(hbond)    S(metal)    S(lipo)     H(rot)  DE(clash)    DE(int)     intcor
     16.80     -17.55       0.89        0.00     110.44       1.49       0.08       0.67       ----

> <Gold.Chemscore.Fitness>
16.7973

> <Gold.Chemscore.DG>
-17.5512

> <Gold.Chemscore.ZeroCoef>
-5.4800

> <Gold.Chemscore.Hbond>
0.8851

> <Gold.Chemscore.Metal>
0.0000

> <Gold.Chemscore.Lipo>
110.4426

> <Gold.Chemscore.Internal_Hbond>
0.0000

> <Gold.Chemscore.DEClash>
0.0839

> <Gold.Chemscore.DEInternal>
0.6700

> <Gold.Chemscore.Rot>
1.4870

> <Gold.Chemscore.Internal.Correction>
   9.000000E+99

> <Gold.Chemscore.Hbonds>
donor molecule, donor type, donor heavy atom, donor atom, acceptor molecule, acceptor atom, score
      P1  H  7989  7998       L1    11  0.92

> <Gold.Chemscore.Hbond.Weighted>
-2.9561

> <Gold.Chemscore.Metal.Weighted>
-0.0000

> <Gold.Chemscore.Lipo.Weighted>
-12.9218

> <Gold.Chemscore.Internal_Hbond.Weighted>
0.0000

> <Gold.Chemscore.DEClash.Weighted>
0.0839

> <Gold.Chemscore.DEInternal.Weighted>
0.6700

> <Gold.Chemscore.Rot.Weighted>
3.8067

> <Gold.Chemscore.Internal.Correction.Weighted>
   9.000000E+99

> <Gold.Protein.RotatedTorsions>
[ 6907 6896 6895 6894 ] final  -74.60 input  -60.11 | X-H torsion
[ 7974 7965 7964 7962 ] final -146.06 input  175.53 | X-H torsion
[ 8008 7997 7996 7995 ] final  144.57 input   59.86 | X-H torsion
[ 10167 10162 10161 10158 ] final   34.87 input  -65.29 | X-H torsion
[ 10718 10713 10712 10709 ] final  -35.65 input   66.30 | X-H torsion
[ 10763 10752 10751 10750 ] final -136.23 input  -60.55 | X-H torsion
[ 11005 11000 10999 10996 ] final  130.10 input  -57.11 | X-H torsion

> <Gold.Protein.ActiveResidues>
 VAL166  LYS551  ARG553  GLY616  TRP617  ASP618  TYR619  PRO620  LYS621  CYS622 
 ASP623  PHE694  ASN695  SER759  ASP760  ASP761  ALA762  ILE779  LEU786  VAL792 
 PHE793  MET794  SER795  GLU796  ALA797  LYS798  CYS799  TRP800  GLU811  SER814 

> <Gold.Protein.RotatedAtoms>
  150.7087  134.4845  159.5486 H   0  0  0  0  0  0  0  0  0  0  0  0  # atno 6907 bound_to 6896
  152.2476  134.8163  160.0460 H   0  0  0  0  0  0  0  0  0  0  0  0  # atno 6908 bound_to 6896
  151.8922  133.3483  159.3839 H   0  0  0  0  0  0  0  0  0  0  0  0  # atno 6909 bound_to 6896
  144.8185  140.5504  143.5595 H   0  0  0  0  0  0  0  0  0  0  0  0  # atno 7974 bound_to 7965
  156.2905  140.2232  156.5075 H   0  0  0  0  0  0  0  0  0  0  0  0  # atno 8008 bound_to 7997
  154.7637  140.0471  157.1016 H   0  0  0  0  0  0  0  0  0  0  0  0  # atno 8009 bound_to 7997
  154.9959  140.3096  155.4890 H   0  0  0  0  0  0  0  0  0  0  0  0  # atno 8010 bound_to 7997
  140.4275  144.1372  150.6155 H   0  0  0  0  0  0  0  0  0  0  0  0  # atno 10167 bound_to 10162
  156.3361  130.4286  149.7828 H   0  0  0  0  0  0  0  0  0  0  0  0  # atno 10718 bound_to 10713
  154.8688  135.3679  154.5028 H   0  0  0  0  0  0  0  0  0  0  0  0  # atno 10763 bound_to 10752
  153.5667  135.7021  153.5527 H   0  0  0  0  0  0  0  0  0  0  0  0  # atno 10764 bound_to 10752
  153.3578  135.4054  155.1659 H   0  0  0  0  0  0  0  0  0  0  0  0  # atno 10765 bound_to 10752
  139.9652  134.9592  156.9244 H   0  0  0  0  0  0  0  0  0  0  0  0  # atno 11005 bound_to 11000
  145.5160  139.1478  143.3578 LP  0  0  0  0  0  0  0  0  0  0  0  0  # atno 17320 bound_to 7965
  146.2489  140.5301  142.8902 LP  0  0  0  0  0  0  0  0  0  0  0  0  # atno 17321 bound_to 7965
  140.4465  143.2504  151.9405 LP  0  0  0  0  0  0  0  0  0  0  0  0  # atno 17342 bound_to 10162
  139.4784  144.5604  151.8248 LP  0  0  0  0  0  0  0  0  0  0  0  0  # atno 17343 bound_to 10162
  156.5082  130.8160  151.3159 LP  0  0  0  0  0  0  0  0  0  0  0  0  # atno 17370 bound_to 10713
  157.7439  130.9922  150.2629 LP  0  0  0  0  0  0  0  0  0  0  0  0  # atno 17371 bound_to 10713
  140.5411  134.0719  155.7342 LP  0  0  0  0  0  0  0  0  0  0  0  0  # atno 17394 bound_to 11000
  141.1332  133.9267  157.2491 LP  0  0  0  0  0  0  0  0  0  0  0  0  # atno 17395 bound_to 11000

$$$$
