AV-unprocessed.smi:2563|AV-procd|sdf|10056|dock5
  -GOLD-   2272014 93D 1   1.00000     0.00000
 Structure written by MMmdl.
 35 36  0  0  0  0  0  0  0  0  2 V2000
  145.7525  143.0038  154.8533 C   0  0  0  0  0  0  0  0  0  0  0  0
  146.3581  141.7029  155.3963 C   0  0  0  0  0  0  0  0  0  0  0  0
  147.4001  141.1718  154.5203 N   0  0  0  0  0  0  0  0  0  0  0  0
  147.0499  140.8195  153.1436 C   0  0  0  0  0  0  0  0  0  0  0  0
  146.9405  139.2983  152.9350 C   0  0  2  0  0  0  0  0  0  0  0  0
  146.5480  138.9489  151.4863 C   0  0  0  0  0  0  0  0  0  0  0  0
  146.3854  137.4887  151.3422 N   0  3  0  0  0  0  0  0  0  0  0  0
  145.4206  136.9500  152.3204 C   0  0  0  0  0  0  0  0  0  0  0  0
  145.8226  137.3704  153.7442 C   0  0  0  0  0  0  0  0  0  0  0  0
  145.9336  138.7883  153.8065 O   0  0  0  0  0  0  0  0  0  0  0  0
  148.7246  140.9936  154.9893 C   0  0  0  0  0  0  0  0  0  0  0  0
  149.1435  141.4751  156.2539 C   0  0  0  0  0  0  0  0  0  0  0  0
  150.4749  141.2472  156.6425 C   0  0  0  0  0  0  0  0  0  0  0  0
  151.3022  140.5538  155.7431 C   0  0  0  0  0  0  0  0  0  0  0  0
  150.8610  140.1143  154.5451 N   0  0  0  0  0  0  0  0  0  0  0  0
  149.5943  140.3343  154.1790 N   0  0  0  0  0  0  0  0  0  0  0  0
  144.9680  143.3694  155.5159 H   0  0  0  0  0  0  0  0  0  0  0  0
  145.3100  142.8526  153.8683 H   0  0  0  0  0  0  0  0  0  0  0  0
  146.5040  143.7886  154.7653 H   0  0  0  0  0  0  0  0  0  0  0  0
  146.7328  141.8412  156.4102 H   0  0  0  0  0  0  0  0  0  0  0  0
  145.5659  140.9591  155.4839 H   0  0  0  0  0  0  0  0  0  0  0  0
  146.1039  141.2940  152.8802 H   0  0  0  0  0  0  0  0  0  0  0  0
  147.7859  141.2435  152.4593 H   0  0  0  0  0  0  0  0  0  0  0  0
  147.8973  138.8280  153.1683 H   0  0  0  0  0  0  0  0  0  0  0  0
  145.6145  139.4435  151.2132 H   0  0  0  0  0  0  0  0  0  0  0  0
  147.3113  139.2926  150.7876 H   0  0  0  0  0  0  0  0  0  0  0  0
  146.0718  137.2753  150.4060 H   0  0  0  0  0  0  0  0  0  0  0  0
  144.4241  137.3254  152.0843 H   0  0  0  0  0  0  0  0  0  0  0  0
  145.3847  135.8637  152.2352 H   0  0  0  0  0  0  0  0  0  0  0  0
  145.0690  137.0425  154.4601 H   0  0  0  0  0  0  0  0  0  0  0  0
  146.7654  136.9066  154.0383 H   0  0  0  0  0  0  0  0  0  0  0  0
  148.4861  142.0119  156.9202 H   0  0  0  0  0  0  0  0  0  0  0  0
  150.8486  141.5926  157.5949 H   0  0  0  0  0  0  0  0  0  0  0  0
  152.3342  140.3489  155.9863 H   0  0  0  0  0  0  0  0  0  0  0  0
  147.2816  137.0488  151.4974 H   0  0  0  0  0  0  0  0  0  0  0  0
  1  2  1  0  0  0  0
  1 17  1  0  0  0  0
  1 18  1  0  0  0  0
  1 19  1  0  0  0  0
  2  3  1  0  0  0  0
  2 20  1  0  0  0  0
  2 21  1  0  0  0  0
  3  4  1  0  0  0  0
  3 11  1  0  0  0  0
  4  5  1  0  0  0  0
  4 22  1  0  0  0  0
  4 23  1  0  0  0  0
  5 10  1  0  0  0  0
  5  6  1  0  0  0  0
  5 24  1  0  0  0  0
  6  7  1  0  0  0  0
  6 25  1  0  0  0  0
  6 26  1  0  0  0  0
  7  8  1  0  0  0  0
  7 27  1  0  0  0  0
  7 35  1  0  0  0  0
  8  9  1  0  0  0  0
  8 28  1  0  0  0  0
  8 29  1  0  0  0  0
  9 10  1  0  0  0  0
  9 30  1  0  0  0  0
  9 31  1  0  0  0  0
 11 16  1  0  0  0  0
 11 12  2  0  0  0  0
 12 13  1  0  0  0  0
 12 32  1  0  0  0  0
 13 14  2  0  0  0  0
 13 33  1  0  0  0  0
 14 15  1  0  0  0  0
 14 34  1  0  0  0  0
 15 16  2  0  0  0  0
M  CHG  1   7   1
M  END
> <s_m_source_file>
AV-unprocessed.smi

> <i_m_source_file_index>
2563

> <i_lp_mmshare_version>
43012

> <i_f3d_flags>
0

> <s_epik_input>
bjFuW2NIXVtjSF1bY0hdYzFOKFtDSDJdW0NIM10pW0NIMl1bQ0BASF0yW0NIMl1bTkhdW0NIMl1bQ0gyXU8y

> <s_epik_cmdline>
J2VwaWtfcHl0aG9uJywgJy1waCcsICc3LjAnLCAnLXRuJywgJzgnLCAnLW1hJywgJzIwMCcsICctbWV0YWxfYmluZGluZycsICctaW1hZScsICc8aW5maWxlLm1hZT4nLCAnLW9tYWUnLCAnPG91dGZpbGUubWFlPic=

> <r_lp_tautomer_probability>
1

> <r_epik_Ionization_Penalty>
0.0472862

> <r_epik_Ionization_Penalty_Charging>
0.0127794

> <r_epik_Ionization_Penalty_Neutral>
0.0345068

> <r_epik_State_Penalty>
0.0614045

> <r_epik_Charging_Adjusted_Penalty>
0.0741839

> <i_epik_Tot_Q>
1

> <i_epik_Tot_abs_Q>
1

> <r_epik_Metal_State_Penalty>
0.0547208

> <b_epik_Metal_Only>
0

> <s_lp_Force_Field>
OPLS_2005

> <r_lp_Energy>
24.8207

> <b_lp_Chiralities_Consistent>
1

> <s_lp_Variant>
AV-unprocessed.smi:2563-1

> <Gold.Version>
5.8.1

> <Gold.Id.Protein>
6NUR|6NUR_protein|mol2

> <Gold.PLP.Fitness>
38.0511

> <Gold.PLP.PLP>
-29.6268

> <Gold.PLP.part.hbond>
-3.5185

> <Gold.PLP.part.metal>
0.0000

> <Gold.PLP.part.buried>
-3.3551

> <Gold.PLP.part.nonpolar>
-25.7313

> <Gold.PLP.part.repulsive>
1.2780

> <Gold.PLP.ligand.clash>
0.0000

> <Gold.PLP.ligand.torsion>
0.2224

> <Gold.PLP.Chemscore.Hbond>
2.9500

> <Gold.PLP.Chemscore.CHOScore>
0.0000

> <Gold.PLP.Chemscore.Metal>
0.0000

> <Gold.Chemscore.Hbonds>
donor molecule, donor type, donor heavy atom, donor atom, acceptor molecule, acceptor atom, score
      L1  H     7    35       P1  7948  2.00
      P1  H  7989  7998       L1    15  0.93

> <Gold.PLP.Chemscore.Internal.Correction>
0.0191

> <Gold.Rescore>
     Score         DG    S(hbond)    S(metal)    S(lipo)     H(rot)  DE(clash)    DE(int)     intcor
     12.86     -13.18       1.28        0.00      59.89       1.40       0.08       0.24       ----

> <Gold.Chemscore.Fitness>
12.8621

> <Gold.Chemscore.DG>
-13.1772

> <Gold.Chemscore.ZeroCoef>
-5.4800

> <Gold.Chemscore.Hbond>
1.2822

> <Gold.Chemscore.Metal>
0.0000

> <Gold.Chemscore.Lipo>
59.8899

> <Gold.Chemscore.Internal_Hbond>
0.0000

> <Gold.Chemscore.DEClash>
0.0759

> <Gold.Chemscore.DEInternal>
0.2392

> <Gold.Chemscore.Rot>
1.4033

> <Gold.Chemscore.Internal.Correction>
   9.000000E+99

> <Gold.Chemscore.Hbonds>
donor molecule, donor type, donor heavy atom, donor atom, acceptor molecule, acceptor atom, score
      L1  H     7    35       P1  7948  1.00
      P1  H  7989  7998       L1    15  0.19

> <Gold.Chemscore.Hbond.Weighted>
-4.2825

> <Gold.Chemscore.Metal.Weighted>
-0.0000

> <Gold.Chemscore.Lipo.Weighted>
-7.0071

> <Gold.Chemscore.Internal_Hbond.Weighted>
0.0000

> <Gold.Chemscore.DEClash.Weighted>
0.0759

> <Gold.Chemscore.DEInternal.Weighted>
0.2392

> <Gold.Chemscore.Rot.Weighted>
3.5924

> <Gold.Chemscore.Internal.Correction.Weighted>
   9.000000E+99

> <Gold.Protein.RotatedTorsions>
[ 6907 6896 6895 6894 ] final   46.66 input  -60.11 | X-H torsion
[ 7974 7965 7964 7962 ] final -146.79 input  175.53 | X-H torsion
[ 8008 7997 7996 7995 ] final  167.36 input   59.86 | X-H torsion
[ 10167 10162 10161 10158 ] final  162.21 input  -65.29 | X-H torsion
[ 10718 10713 10712 10709 ] final -121.90 input   66.30 | X-H torsion
[ 10763 10752 10751 10750 ] final  -55.23 input  -60.55 | X-H torsion
[ 11005 11000 10999 10996 ] final  -24.53 input  -57.11 | X-H torsion

> <Gold.Protein.ActiveResidues>
 VAL166  LYS551  ARG553  GLY616  TRP617  ASP618  TYR619  PRO620  LYS621  CYS622 
 ASP623  PHE694  ASN695  SER759  ASP760  ASP761  ALA762  ILE779  LEU786  VAL792 
 PHE793  MET794  SER795  GLU796  ALA797  LYS798  CYS799  TRP800  GLU811  SER814 

> <Gold.Protein.RotatedAtoms>
  152.2590  134.8054  160.0433 H   0  0  0  0  0  0  0  0  0  0  0  0  # atno 6907 bound_to 6896
  151.8707  133.3470  159.3742 H   0  0  0  0  0  0  0  0  0  0  0  0  # atno 6908 bound_to 6896
  150.7110  134.5042  159.5620 H   0  0  0  0  0  0  0  0  0  0  0  0  # atno 6909 bound_to 6896
  144.8136  140.5410  143.5626 H   0  0  0  0  0  0  0  0  0  0  0  0  # atno 7974 bound_to 7965
  156.1640  140.1619  156.8563 H   0  0  0  0  0  0  0  0  0  0  0  0  # atno 8008 bound_to 7997
  154.5189  140.0783  156.8169 H   0  0  0  0  0  0  0  0  0  0  0  0  # atno 8009 bound_to 7997
  155.3649  140.3397  155.4244 H   0  0  0  0  0  0  0  0  0  0  0  0  # atno 8010 bound_to 7997
  139.4858  144.4460  151.8891 H   0  0  0  0  0  0  0  0  0  0  0  0  # atno 10167 bound_to 10162
  156.1374  130.6441  150.9718 H   0  0  0  0  0  0  0  0  0  0  0  0  # atno 10718 bound_to 10713
  154.1875  135.6433  153.5051 H   0  0  0  0  0  0  0  0  0  0  0  0  # atno 10763 bound_to 10752
  153.0043  135.5420  154.6450 H   0  0  0  0  0  0  0  0  0  0  0  0  # atno 10764 bound_to 10752
  154.5830  135.2927  155.0686 H   0  0  0  0  0  0  0  0  0  0  0  0  # atno 10765 bound_to 10752
  140.8854  133.7625  156.0353 H   0  0  0  0  0  0  0  0  0  0  0  0  # atno 11005 bound_to 11000
  145.5267  139.1476  143.3522 LP  0  0  0  0  0  0  0  0  0  0  0  0  # atno 17320 bound_to 7965
  146.2437  140.5408  142.8923 LP  0  0  0  0  0  0  0  0  0  0  0  0  # atno 17321 bound_to 7965
  140.3914  144.2611  150.5899 LP  0  0  0  0  0  0  0  0  0  0  0  0  # atno 17342 bound_to 10162
  140.5142  143.2282  151.8488 LP  0  0  0  0  0  0  0  0  0  0  0  0  # atno 17343 bound_to 10162
  157.6545  131.0891  150.7978 LP  0  0  0  0  0  0  0  0  0  0  0  0  # atno 17370 bound_to 10713
  156.8057  130.4935  149.5363 LP  0  0  0  0  0  0  0  0  0  0  0  0  # atno 17371 bound_to 10713
  140.8412  134.3065  157.5313 LP  0  0  0  0  0  0  0  0  0  0  0  0  # atno 17394 bound_to 11000
  139.8724  134.9417  156.3804 LP  0  0  0  0  0  0  0  0  0  0  0  0  # atno 17395 bound_to 11000

$$$$
