AV-unprocessed.smi:259|AV-procd|sdf|1974|dock1
  -GOLD-   2262021143D 1   1.00000     0.00000
 Structure written by MMmdl.
 54 57  0  0  0  0  0  0  0  0  1 V2000
  151.2237  144.0923  158.5004 C   0  0  0  0  0  0  0  0  0  0  0  0
  150.7367  143.2172  157.4451 N   0  0  0  0  0  0  0  0  0  0  0  0
  151.1170  141.9411  157.2879 C   0  0  0  0  0  0  0  0  0  0  0  0
  151.9230  141.3867  158.0356 O   0  0  0  0  0  0  0  0  0  0  0  0
  150.4781  141.1775  156.1155 C   0  0  0  0  0  0  0  0  0  0  0  0
  148.9471  140.9283  156.2118 C   0  0  2  0  0  0  0  0  0  0  0  0
  148.2869  142.1369  155.8743 O   0  0  0  0  0  0  0  0  0  0  0  0
  148.5109  140.4552  157.6226 C   0  0  0  0  0  0  0  0  0  0  0  0
  147.0402  140.0119  157.6595 C   0  0  0  0  0  0  0  0  0  0  0  0
  146.7544  138.9603  156.5806 C   0  0  0  0  0  0  0  0  0  0  0  0
  147.1462  139.4654  155.2668 N   0  0  0  0  0  0  0  0  0  0  0  0
  146.6289  138.8597  154.1684 C   0  0  0  0  0  0  0  0  0  0  0  0
  146.8008  139.4202  152.9410 N   0  0  0  0  0  0  0  0  0  0  0  0
  146.2823  138.8397  151.8550 C   0  0  0  0  0  0  0  0  0  0  0  0
  145.5712  137.7138  151.7693 N   0  0  0  0  0  0  0  0  0  0  0  0
  145.4032  137.1408  152.9953 C   0  0  0  0  0  0  0  0  0  0  0  0
  145.8951  137.6412  154.2338 C   0  0  0  0  0  0  0  0  0  0  0  0
  145.5371  136.7807  155.2649 N   0  0  0  0  0  0  0  0  0  0  0  0
  144.8621  135.8342  154.6726 C   0  0  0  0  0  0  0  0  0  0  0  0
  144.7390  135.9667  153.3079 N   0  0  0  0  0  0  0  0  0  0  0  0
  144.0417  135.0653  152.4032 C   0  0  0  0  0  0  0  0  0  0  0  0
  144.9650  134.0654  151.6825 C   0  0  0  0  0  0  0  0  0  0  0  0
  144.1457  133.3259  150.6053 C   0  0  0  0  0  0  0  0  0  0  0  0
  142.9028  132.8617  151.0938 O   0  0  0  0  0  0  0  0  0  0  0  0
  146.3322  134.6046  151.2372 C   0  0  0  0  0  0  0  0  0  0  0  0
  147.0415  133.5686  151.9518 O   0  0  0  0  0  0  0  0  0  0  0  0
  145.8147  133.1882  152.6133 C   0  0  0  0  0  0  0  0  0  0  0  0
  148.5413  139.8900  155.1383 C   0  0  0  0  0  0  0  0  0  0  0  0
  150.7659  145.0771  158.4075 H   0  0  0  0  0  0  0  0  0  0  0  0
  152.3061  144.2119  158.4375 H   0  0  0  0  0  0  0  0  0  0  0  0
  150.9736  143.6911  159.4833 H   0  0  0  0  0  0  0  0  0  0  0  0
  150.0667  143.6041  156.7960 H   0  0  0  0  0  0  0  0  0  0  0  0
  150.7080  141.7217  155.1984 H   0  0  0  0  0  0  0  0  0  0  0  0
  150.9832  140.2147  156.0214 H   0  0  0  0  0  0  0  0  0  0  0  0
  148.5949  142.8178  156.4536 H   0  0  0  0  0  0  0  0  0  0  0  0
  149.1362  139.6151  157.9277 H   0  0  0  0  0  0  0  0  0  0  0  0
  148.6683  141.2381  158.3650 H   0  0  0  0  0  0  0  0  0  0  0  0
  146.7949  139.6122  158.6435 H   0  0  0  0  0  0  0  0  0  0  0  0
  146.3923  140.8760  157.5071 H   0  0  0  0  0  0  0  0  0  0  0  0
  147.3027  138.0416  156.7944 H   0  0  0  0  0  0  0  0  0  0  0  0
  145.6916  138.7143  156.5901 H   0  0  0  0  0  0  0  0  0  0  0  0
  146.4626  139.3511  150.9209 H   0  0  0  0  0  0  0  0  0  0  0  0
  144.4345  135.0082  155.2216 H   0  0  0  0  0  0  0  0  0  0  0  0
  143.2866  134.5361  152.9857 H   0  0  0  0  0  0  0  0  0  0  0  0
  143.4868  135.6627  151.6789 H   0  0  0  0  0  0  0  0  0  0  0  0
  143.9516  133.9762  149.7519 H   0  0  0  0  0  0  0  0  0  0  0  0
  144.6857  132.4580  150.2264 H   0  0  0  0  0  0  0  0  0  0  0  0
  142.2204  133.1597  150.5116 H   0  0  0  0  0  0  0  0  0  0  0  0
  146.5008  134.5627  150.1605 H   0  0  0  0  0  0  0  0  0  0  0  0
  146.5713  135.5939  151.6283 H   0  0  0  0  0  0  0  0  0  0  0  0
  145.8042  133.5087  153.6562 H   0  0  0  0  0  0  0  0  0  0  0  0
  145.6105  132.1196  152.5384 H   0  0  0  0  0  0  0  0  0  0  0  0
  148.7530  140.2863  154.1457 H   0  0  0  0  0  0  0  0  0  0  0  0
  149.1604  138.9981  155.2441 H   0  0  0  0  0  0  0  0  0  0  0  0
  1  2  1  0  0  0  0
  1 29  1  0  0  0  0
  1 30  1  0  0  0  0
  1 31  1  0  0  0  0
  2  3  1  0  0  0  0
  2 32  1  0  0  0  0
  3  4  2  0  0  0  0
  3  5  1  0  0  0  0
  5  6  1  0  0  0  0
  5 33  1  0  0  0  0
  5 34  1  0  0  0  0
  6 28  1  0  0  0  0
  6  7  1  0  0  0  0
  6  8  1  0  0  0  0
  7 35  1  0  0  0  0
  8  9  1  0  0  0  0
  8 36  1  0  0  0  0
  8 37  1  0  0  0  0
  9 10  1  0  0  0  0
  9 38  1  0  0  0  0
  9 39  1  0  0  0  0
 10 11  1  0  0  0  0
 10 40  1  0  0  0  0
 10 41  1  0  0  0  0
 11 12  1  0  0  0  0
 11 28  1  0  0  0  0
 12 17  1  0  0  0  0
 12 13  2  0  0  0  0
 13 14  1  0  0  0  0
 14 15  2  0  0  0  0
 14 42  1  0  0  0  0
 15 16  1  0  0  0  0
 16 20  1  0  0  0  0
 16 17  2  0  0  0  0
 17 18  1  0  0  0  0
 18 19  2  0  0  0  0
 19 20  1  0  0  0  0
 19 43  1  0  0  0  0
 20 21  1  0  0  0  0
 21 22  1  0  0  0  0
 21 44  1  0  0  0  0
 21 45  1  0  0  0  0
 22 27  1  0  0  0  0
 22 23  1  0  0  0  0
 22 25  1  0  0  0  0
 23 24  1  0  0  0  0
 23 46  1  0  0  0  0
 23 47  1  0  0  0  0
 24 48  1  0  0  0  0
 25 26  1  0  0  0  0
 25 49  1  0  0  0  0
 25 50  1  0  0  0  0
 26 27  1  0  0  0  0
 27 51  1  0  0  0  0
 27 52  1  0  0  0  0
 28 53  1  0  0  0  0
 28 54  1  0  0  0  0
M  END
> <s_m_source_file>
AV-unprocessed.smi

> <i_m_source_file_index>
259

> <i_lp_mmshare_version>
43012

> <i_f3d_flags>
0

> <s_epik_input>
W0NIM11bTkhdQyg9TylbQ0gyXVtDQEBdMShbT0hdKVtDSDJdW0NIMl1bQ0gyXU4oW0NIMl0xKWMobltjSF1uMiljKGMyMyluW2NIXW4zW0NIMl1DNChbQ0gyXVtPSF0pW0NIMl1PW0NIMl00

> <s_epik_cmdline>
J2VwaWtfcHl0aG9uJywgJy1waCcsICc3LjAnLCAnLXRuJywgJzgnLCAnLW1hJywgJzIwMCcsICctbWV0YWxfYmluZGluZycsICctaW1hZScsICc8aW5maWxlLm1hZT4nLCAnLW9tYWUnLCAnPG91dGZpbGUubWFlPic=

> <r_lp_tautomer_probability>
1

> <r_epik_Ionization_Penalty>
0.00366363

> <r_epik_Ionization_Penalty_Charging>
0

> <r_epik_Ionization_Penalty_Neutral>
0.00366363

> <r_epik_State_Penalty>
0.00243014

> <r_epik_Charging_Adjusted_Penalty>
0.00243014

> <i_epik_Tot_Q>
0

> <i_epik_Tot_abs_Q>
0

> <r_epik_Metal_State_Penalty>
-0

> <b_epik_Metal_Only>
0

> <s_lp_Force_Field>
OPLS_2005

> <r_lp_Energy>
39.9433

> <b_lp_Chiralities_Consistent>
1

> <s_lp_Variant>
AV-unprocessed.smi:259-2

> <Gold.Version>
5.8.1

> <Gold.Id.Protein>
6NUR|6NUR_protein|mol2

> <Gold.PLP.Fitness>
40.6401

> <Gold.PLP.PLP>
-33.2441

> <Gold.PLP.part.hbond>
-2.7327

> <Gold.PLP.part.metal>
0.0000

> <Gold.PLP.part.buried>
-8.7144

> <Gold.PLP.part.nonpolar>
-26.0790

> <Gold.PLP.part.repulsive>
4.4766

> <Gold.PLP.ligand.clash>
0.0000

> <Gold.PLP.ligand.torsion>
1.0616

> <Gold.PLP.Chemscore.Hbond>
2.6640

> <Gold.PLP.Chemscore.CHOScore>
0.1837

> <Gold.PLP.Chemscore.Metal>
0.0000

> <Gold.Chemscore.Hbonds>
donor molecule, donor type, donor heavy atom, donor atom, acceptor molecule, acceptor atom, score
      L1  H     2    32       P1  8028  1.00
      L1  H     7    35       P1  8028  0.33
      L1  H    24    48       P1 10186  1.00
      L1  C    14    42       P1 10171  0.03

> <Gold.PLP.Chemscore.Internal.Correction>
0.9762

> <Gold.Rescore>
     Score         DG    S(hbond)    S(metal)    S(lipo)     H(rot)  DE(clash)    DE(int)     intcor
      6.73     -10.76       2.70        0.00      57.57       4.09       1.45       2.59       ----

> <Gold.Chemscore.Fitness>
6.7264

> <Gold.Chemscore.DG>
-10.7643

> <Gold.Chemscore.ZeroCoef>
-5.4800

> <Gold.Chemscore.Hbond>
2.7008

> <Gold.Chemscore.Metal>
0.0000

> <Gold.Chemscore.Lipo>
57.5682

> <Gold.Chemscore.Internal_Hbond>
0.0000

> <Gold.Chemscore.DEClash>
1.4489

> <Gold.Chemscore.DEInternal>
2.5889

> <Gold.Chemscore.Rot>
4.0906

> <Gold.Chemscore.Internal.Correction>
   9.000000E+99

> <Gold.Chemscore.Hbonds>
donor molecule, donor type, donor heavy atom, donor atom, acceptor molecule, acceptor atom, score
      L1  H     2    32       P1  8028  0.98
      L1  H     7    35       P1  8028  0.29
      L1  H    24    48       P1 10186  0.96

> <Gold.Chemscore.Hbond.Weighted>
-9.0207

> <Gold.Chemscore.Metal.Weighted>
-0.0000

> <Gold.Chemscore.Lipo.Weighted>
-6.7355

> <Gold.Chemscore.Internal_Hbond.Weighted>
0.0000

> <Gold.Chemscore.DEClash.Weighted>
1.4489

> <Gold.Chemscore.DEInternal.Weighted>
2.5889

> <Gold.Chemscore.Rot.Weighted>
10.4719

> <Gold.Chemscore.Internal.Correction.Weighted>
   9.000000E+99

> <Gold.Protein.RotatedTorsions>
[ 6907 6896 6895 6894 ] final -171.60 input  -60.11 | X-H torsion
[ 7974 7965 7964 7962 ] final -125.43 input  175.53 | X-H torsion
[ 8008 7997 7996 7995 ] final -128.80 input   59.86 | X-H torsion
[ 10167 10162 10161 10158 ] final -147.04 input  -65.29 | X-H torsion
[ 10718 10713 10712 10709 ] final   54.92 input   66.30 | X-H torsion
[ 10763 10752 10751 10750 ] final -149.41 input  -60.55 | X-H torsion
[ 11005 11000 10999 10996 ] final  -43.94 input  -57.11 | X-H torsion

> <Gold.Protein.ActiveResidues>
 VAL166  LYS551  ARG553  GLY616  TRP617  ASP618  TYR619  PRO620  LYS621  CYS622 
 ASP623  PHE694  ASN695  SER759  ASP760  ASP761  ALA762  ILE779  LEU786  VAL792 
 PHE793  MET794  SER795  GLU796  ALA797  LYS798  CYS799  TRP800  GLU811  SER814 

> <Gold.Protein.RotatedAtoms>
  151.5265  133.3457  159.2910 H   0  0  0  0  0  0  0  0  0  0  0  0  # atno 6907 bound_to 6896
  150.8620  134.7977  159.7101 H   0  0  0  0  0  0  0  0  0  0  0  0  # atno 6908 bound_to 6896
  152.4636  134.5135  159.9813 H   0  0  0  0  0  0  0  0  0  0  0  0  # atno 6909 bound_to 6896
  144.9977  140.7791  143.4515 H   0  0  0  0  0  0  0  0  0  0  0  0  # atno 7974 bound_to 7965
  155.2686  140.0439  157.3004 H   0  0  0  0  0  0  0  0  0  0  0  0  # atno 8008 bound_to 7997
  154.5667  140.2362  155.8222 H   0  0  0  0  0  0  0  0  0  0  0  0  # atno 8009 bound_to 7997
  156.2090  140.3004  155.9699 H   0  0  0  0  0  0  0  0  0  0  0  0  # atno 8010 bound_to 7997
  139.7658  143.8310  152.2616 H   0  0  0  0  0  0  0  0  0  0  0  0  # atno 10167 bound_to 10162
  157.5299  130.8623  149.8673 H   0  0  0  0  0  0  0  0  0  0  0  0  # atno 10718 bound_to 10713
  154.8179  135.3310  154.7124 H   0  0  0  0  0  0  0  0  0  0  0  0  # atno 10763 bound_to 10752
  153.7762  135.6922  153.4901 H   0  0  0  0  0  0  0  0  0  0  0  0  # atno 10764 bound_to 10752
  153.2011  135.4516  155.0215 H   0  0  0  0  0  0  0  0  0  0  0  0  # atno 10765 bound_to 10752
  141.0417  133.6777  156.2803 H   0  0  0  0  0  0  0  0  0  0  0  0  # atno 11005 bound_to 11000
  145.2197  139.2165  143.5099 LP  0  0  0  0  0  0  0  0  0  0  0  0  # atno 17320 bound_to 7965
  146.3445  140.2052  142.8589 LP  0  0  0  0  0  0  0  0  0  0  0  0  # atno 17321 bound_to 7965
  139.8330  144.7245  150.9427 LP  0  0  0  0  0  0  0  0  0  0  0  0  # atno 17342 bound_to 10162
  140.7810  143.4053  151.1082 LP  0  0  0  0  0  0  0  0  0  0  0  0  # atno 17343 bound_to 10162
  156.0415  130.3738  150.1424 LP  0  0  0  0  0  0  0  0  0  0  0  0  # atno 17370 bound_to 10713
  156.9609  130.9804  151.3479 LP  0  0  0  0  0  0  0  0  0  0  0  0  # atno 17371 bound_to 10713
  140.6222  134.5350  157.5549 LP  0  0  0  0  0  0  0  0  0  0  0  0  # atno 17394 bound_to 11000
  139.9281  134.8017  156.1010 LP  0  0  0  0  0  0  0  0  0  0  0  0  # atno 17395 bound_to 11000

$$$$
