AV-unprocessed.smi:3254|AV-procd|sdf|12454|dock3
  -GOLD-   2272018353D 1   1.00000     0.00000
 Structure written by MMmdl.
 37 38  0  0  0  0  0  0  0  0  2 V2000
  150.8213  145.1319  159.2826 C   0  0  0  0  0  0  0  0  0  0  0  0
  151.4169  144.7429  160.6428 C   0  0  0  0  0  0  0  0  0  0  0  0
  152.1220  143.4652  160.5785 N   0  0  0  0  0  0  0  0  0  0  0  0
  152.8488  143.0785  159.3806 C   0  0  0  0  0  0  0  0  0  0  0  0
  153.2924  141.6176  159.6134 C   0  0  2  0  0  0  0  0  0  0  0  0
  152.5568  140.6304  158.6935 C   0  0  0  0  0  0  0  0  0  0  0  0
  152.9898  139.4882  158.5351 O   0  0  0  0  0  0  0  0  0  0  0  0
  151.4428  141.0817  158.0968 N   0  0  0  0  0  0  0  0  0  0  0  0
  150.6078  140.3006  157.1924 C   0  0  0  0  0  0  0  0  0  0  0  0
  150.8346  140.7014  155.7251 C   0  0  0  0  0  0  0  0  0  0  0  0
  149.8497  140.0821  154.8374 N   0  0  0  0  0  0  0  0  0  0  0  0
  148.6310  140.5910  154.4686 C   0  0  0  0  0  0  0  0  0  0  0  0
  148.0583  139.6662  153.6339 C   0  0  0  0  0  0  0  0  0  0  0  0
  148.9507  138.6328  153.5297 N   0  3  0  0  0  0  0  0  0  0  0  0
  150.0396  138.8875  154.2628 C   0  0  0  0  0  0  0  0  0  0  0  0
  152.9921  141.3372  161.0996 C   0  0  0  0  0  0  0  0  0  0  0  0
  152.1912  142.5475  161.5490 C   0  0  0  0  0  0  0  0  0  0  0  0
  151.6809  142.6312  162.6649 O   0  0  0  0  0  0  0  0  0  0  0  0
  150.2805  146.0756  159.3532 H   0  0  0  0  0  0  0  0  0  0  0  0
  150.1217  144.3741  158.9287 H   0  0  0  0  0  0  0  0  0  0  0  0
  151.5973  145.2521  158.5262 H   0  0  0  0  0  0  0  0  0  0  0  0
  152.1023  145.5193  160.9860 H   0  0  0  0  0  0  0  0  0  0  0  0
  150.6222  144.6843  161.3874 H   0  0  0  0  0  0  0  0  0  0  0  0
  152.2204  143.1981  158.4959 H   0  0  0  0  0  0  0  0  0  0  0  0
  153.7143  143.7311  159.2585 H   0  0  0  0  0  0  0  0  0  0  0  0
  154.3662  141.5348  159.4367 H   0  0  0  0  0  0  0  0  0  0  0  0
  151.1580  142.0335  158.2785 H   0  0  0  0  0  0  0  0  0  0  0  0
  150.8486  139.2464  157.3325 H   0  0  0  0  0  0  0  0  0  0  0  0
  149.5570  140.4177  157.4643 H   0  0  0  0  0  0  0  0  0  0  0  0
  150.7564  141.7818  155.5977 H   0  0  0  0  0  0  0  0  0  0  0  0
  151.8320  140.4101  155.3921 H   0  0  0  0  0  0  0  0  0  0  0  0
  148.2715  141.5481  154.8190 H   0  0  0  0  0  0  0  0  0  0  0  0
  147.1076  139.6658  153.1205 H   0  0  0  0  0  0  0  0  0  0  0  0
  150.9009  138.2523  154.3692 H   0  0  0  0  0  0  0  0  0  0  0  0
  152.4246  140.4205  161.2689 H   0  0  0  0  0  0  0  0  0  0  0  0
  153.9119  141.2748  161.6818 H   0  0  0  0  0  0  0  0  0  0  0  0
  148.8094  137.7956  152.9780 H   0  0  0  0  0  0  0  0  0  0  0  0
  1  2  1  0  0  0  0
  1 19  1  0  0  0  0
  1 20  1  0  0  0  0
  1 21  1  0  0  0  0
  2  3  1  0  0  0  0
  2 22  1  0  0  0  0
  2 23  1  0  0  0  0
  3 17  1  0  0  0  0
  3  4  1  0  0  0  0
  4  5  1  0  0  0  0
  4 24  1  0  0  0  0
  4 25  1  0  0  0  0
  5  6  1  0  0  0  0
  5 16  1  0  0  0  0
  5 26  1  0  0  0  0
  6  7  2  0  0  0  0
  6  8  1  0  0  0  0
  8  9  1  0  0  0  0
  8 27  1  0  0  0  0
  9 10  1  0  0  0  0
  9 28  1  0  0  0  0
  9 29  1  0  0  0  0
 10 11  1  0  0  0  0
 10 30  1  0  0  0  0
 10 31  1  0  0  0  0
 11 15  1  0  0  0  0
 11 12  1  0  0  0  0
 12 13  2  0  0  0  0
 12 32  1  0  0  0  0
 13 14  1  0  0  0  0
 13 33  1  0  0  0  0
 14 15  2  0  0  0  0
 14 37  1  0  0  0  0
 15 34  1  0  0  0  0
 16 17  1  0  0  0  0
 16 35  1  0  0  0  0
 16 36  1  0  0  0  0
 17 18  2  0  0  0  0
M  CHG  1  14   1
M  END
> <s_m_source_file>
AV-unprocessed.smi

> <i_m_source_file_index>
3254

> <i_lp_mmshare_version>
43012

> <i_f3d_flags>
0

> <s_epik_input>
W0NIM11bQ0gyXU4xW0NIMl1bQ0BIXShbQ0gyXUMxPU8pQyg9TylbTkhdW0NIMl1bQ0gyXW4yW2NIXVtjSF1uW2NIXTI=

> <s_epik_cmdline>
J2VwaWtfcHl0aG9uJywgJy1waCcsICc3LjAnLCAnLXRuJywgJzgnLCAnLW1hJywgJzIwMCcsICctbWV0YWxfYmluZGluZycsICctaW1hZScsICc8aW5maWxlLm1hZT4nLCAnLW9tYWUnLCAnPG91dGZpbGUubWFlPic=

> <r_lp_tautomer_probability>
1

> <r_epik_Ionization_Penalty>
0.274742

> <r_epik_Ionization_Penalty_Charging>
0

> <r_epik_Ionization_Penalty_Neutral>
0.274742

> <r_epik_State_Penalty>
0.267046

> <r_epik_Charging_Adjusted_Penalty>
0.267046

> <i_epik_Tot_Q>
1

> <i_epik_Tot_abs_Q>
1

> <r_epik_Metal_State_Penalty>
0.550456

> <b_epik_Metal_Only>
0

> <s_lp_Force_Field>
OPLS_2005

> <r_lp_Energy>
15.3275

> <b_lp_Chiralities_Consistent>
1

> <s_lp_Variant>
AV-unprocessed.smi:3254-2

> <Gold.Version>
5.8.1

> <Gold.Id.Protein>
6NUR|6NUR_protein|mol2

> <Gold.PLP.Fitness>
49.5707

> <Gold.PLP.PLP>
-41.7724

> <Gold.PLP.part.hbond>
-3.5080

> <Gold.PLP.part.metal>
0.0000

> <Gold.PLP.part.buried>
-2.3557

> <Gold.PLP.part.nonpolar>
-38.0441

> <Gold.PLP.part.repulsive>
2.4934

> <Gold.PLP.ligand.clash>
0.0000

> <Gold.PLP.ligand.torsion>
1.3225

> <Gold.PLP.Chemscore.Hbond>
3.4713

> <Gold.PLP.Chemscore.CHOScore>
0.0000

> <Gold.PLP.Chemscore.Metal>
0.0000

> <Gold.Chemscore.Hbonds>
donor molecule, donor type, donor heavy atom, donor atom, acceptor molecule, acceptor atom, score
      L1  H    14    37       P1  7948  2.00
      P1  H  6933  6945       L1    18  0.90
      P1  H  7997  8008       L1     7  0.29

> <Gold.PLP.Chemscore.Internal.Correction>
0.0295

> <Gold.Rescore>
     Score         DG    S(hbond)    S(metal)    S(lipo)     H(rot)  DE(clash)    DE(int)     intcor
     13.04     -15.52       1.94        0.00      80.18       2.28       1.40       1.08       ----

> <Gold.Chemscore.Fitness>
13.0438

> <Gold.Chemscore.DG>
-15.5184

> <Gold.Chemscore.ZeroCoef>
-5.4800

> <Gold.Chemscore.Hbond>
1.9424

> <Gold.Chemscore.Metal>
0.0000

> <Gold.Chemscore.Lipo>
80.1834

> <Gold.Chemscore.Internal_Hbond>
0.0000

> <Gold.Chemscore.DEClash>
1.3987

> <Gold.Chemscore.DEInternal>
1.0759

> <Gold.Chemscore.Rot>
2.2776

> <Gold.Chemscore.Internal.Correction>
   9.000000E+99

> <Gold.Chemscore.Hbonds>
donor molecule, donor type, donor heavy atom, donor atom, acceptor molecule, acceptor atom, score
      L1  H    14    37       P1  7948  1.00
      P1  H  6933  6945       L1    18  0.18
      P1  H  7997  8008       L1     7  0.05

> <Gold.Chemscore.Hbond.Weighted>
-6.4877

> <Gold.Chemscore.Metal.Weighted>
-0.0000

> <Gold.Chemscore.Lipo.Weighted>
-9.3815

> <Gold.Chemscore.Internal_Hbond.Weighted>
0.0000

> <Gold.Chemscore.DEClash.Weighted>
1.3987

> <Gold.Chemscore.DEInternal.Weighted>
1.0759

> <Gold.Chemscore.Rot.Weighted>
5.8307

> <Gold.Chemscore.Internal.Correction.Weighted>
   9.000000E+99

> <Gold.Protein.RotatedTorsions>
[ 6907 6896 6895 6894 ] final   83.46 input  -60.11 | X-H torsion
[ 7974 7965 7964 7962 ] final  156.28 input  175.53 | X-H torsion
[ 8008 7997 7996 7995 ] final  -99.65 input   59.86 | X-H torsion
[ 10167 10162 10161 10158 ] final  -82.03 input  -65.29 | X-H torsion
[ 10718 10713 10712 10709 ] final -154.00 input   66.30 | X-H torsion
[ 10763 10752 10751 10750 ] final   15.09 input  -60.55 | X-H torsion
[ 11005 11000 10999 10996 ] final  -27.87 input  -57.11 | X-H torsion

> <Gold.Protein.ActiveResidues>
 VAL166  LYS551  ARG553  GLY616  TRP617  ASP618  TYR619  PRO620  LYS621  CYS622 
 ASP623  PHE694  ASN695  SER759  ASP760  ASP761  ALA762  ILE779  LEU786  VAL792 
 PHE793  MET794  SER795  GLU796  ALA797  LYS798  CYS799  TRP800  GLU811  SER814 

> <Gold.Protein.RotatedAtoms>
  152.5327  134.2892  159.9036 H   0  0  0  0  0  0  0  0  0  0  0  0  # atno 6907 bound_to 6896
  151.2845  133.4187  159.2636 H   0  0  0  0  0  0  0  0  0  0  0  0  # atno 6908 bound_to 6896
  151.0255  134.9516  159.8139 H   0  0  0  0  0  0  0  0  0  0  0  0  # atno 6909 bound_to 6896
  144.7972  139.7183  143.6197 H   0  0  0  0  0  0  0  0  0  0  0  0  # atno 7974 bound_to 7965
  154.8177  140.0446  157.1388 H   0  0  0  0  0  0  0  0  0  0  0  0  # atno 8008 bound_to 7997
  154.9295  140.3038  155.5155 H   0  0  0  0  0  0  0  0  0  0  0  0  # atno 8009 bound_to 7997
  156.2977  140.2325  156.4353 H   0  0  0  0  0  0  0  0  0  0  0  0  # atno 8010 bound_to 7997
  140.4358  143.2532  151.8696 H   0  0  0  0  0  0  0  0  0  0  0  0  # atno 10167 bound_to 10162
  156.4933  130.8358  151.2579 H   0  0  0  0  0  0  0  0  0  0  0  0  # atno 10718 bound_to 10713
  153.1559  135.6787  153.8814 H   0  0  0  0  0  0  0  0  0  0  0  0  # atno 10763 bound_to 10752
  153.8225  135.3128  155.3412 H   0  0  0  0  0  0  0  0  0  0  0  0  # atno 10764 bound_to 10752
  154.7897  135.4842  154.0112 H   0  0  0  0  0  0  0  0  0  0  0  0  # atno 10765 bound_to 10752
  140.9158  133.7431  156.0733 H   0  0  0  0  0  0  0  0  0  0  0  0  # atno 11005 bound_to 11000
  146.2244  139.5695  142.9597 LP  0  0  0  0  0  0  0  0  0  0  0  0  # atno 17320 bound_to 7965
  145.5642  141.0401  143.2209 LP  0  0  0  0  0  0  0  0  0  0  0  0  # atno 17321 bound_to 7965
  139.4787  144.5284  151.8701 LP  0  0  0  0  0  0  0  0  0  0  0  0  # atno 17342 bound_to 10162
  140.4375  144.2031  150.5890 LP  0  0  0  0  0  0  0  0  0  0  0  0  # atno 17343 bound_to 10162
  157.7471  131.0006  150.2932 LP  0  0  0  0  0  0  0  0  0  0  0  0  # atno 17370 bound_to 10713
  156.3404  130.3814  149.7414 LP  0  0  0  0  0  0  0  0  0  0  0  0  # atno 17371 bound_to 10713
  140.8052  134.3463  157.5428 LP  0  0  0  0  0  0  0  0  0  0  0  0  # atno 17394 bound_to 11000
  139.8766  134.9221  156.3292 LP  0  0  0  0  0  0  0  0  0  0  0  0  # atno 17395 bound_to 11000

$$$$
