AV-unprocessed.smi:1586|AV-procd|sdf|6381|dock2
  -GOLD-   22720 7 13D 1   1.00000     0.00000
 Structure written by MMmdl.
 46 47  0  0  0  0  0  0  0  0  3 V2000
  152.7198  143.1120  161.1946 C   0  0  0  0  0  0  0  0  0  0  0  0
  152.8319  143.3988  159.6901 C   0  0  0  0  0  0  0  0  0  0  0  0
  151.6572  144.1081  159.1774 N   0  0  0  0  0  0  0  0  0  0  0  0
  151.8103  144.6771  157.8334 C   0  0  0  0  0  0  0  0  0  0  0  0
  151.8763  143.5876  156.7435 C   0  0  0  0  0  0  0  0  0  0  0  0
  150.6508  142.7410  156.7870 N   0  3  0  0  0  0  0  0  0  0  0  0
  150.4847  141.7426  155.6855 C   0  0  2  0  0  0  0  0  0  0  0  0
  149.0011  141.3951  155.4033 C   0  0  0  0  0  0  0  0  0  0  0  0
  151.3926  140.5049  155.9286 C   0  0  0  0  0  0  0  0  0  0  0  0
  151.4814  139.6711  154.7284 N   0  5  0  0  0  0  0  0  0  0  0  0
  151.5891  138.3133  154.7323 C   0  0  0  0  0  0  0  0  0  0  0  0
  152.1142  137.6005  153.8686 O   0  0  0  0  0  0  0  0  0  0  0  0
  151.0329  137.7595  155.8250 N   0  0  0  0  0  0  0  0  0  0  0  0
  150.9453  136.3870  156.1789 C   0  0  0  0  0  0  0  0  0  0  0  0
  151.0615  135.3746  155.1893 C   0  0  0  0  0  0  0  0  0  0  0  0
  150.9273  134.2213  155.9098 C   0  0  0  0  0  0  0  0  0  0  0  0
  150.9452  132.7803  155.5303 C   0  0  0  0  0  0  0  0  0  0  0  0
  150.7469  134.5042  157.2280 O   0  0  0  0  0  0  0  0  0  0  0  0
  150.7589  135.8939  157.3943 N   0  0  0  0  0  0  0  0  0  0  0  0
  150.4848  142.1602  158.1428 C   0  0  0  0  0  0  0  0  0  0  0  0
  150.4505  143.2780  159.2062 C   0  0  0  0  0  0  0  0  0  0  0  0
  153.5367  142.4680  161.5206 H   0  0  0  0  0  0  0  0  0  0  0  0
  151.7852  142.6029  161.4323 H   0  0  0  0  0  0  0  0  0  0  0  0
  152.7729  144.0229  161.7905 H   0  0  0  0  0  0  0  0  0  0  0  0
  153.7546  143.9369  159.4762 H   0  0  0  0  0  0  0  0  0  0  0  0
  152.9072  142.4418  159.1721 H   0  0  0  0  0  0  0  0  0  0  0  0
  150.9587  145.3302  157.6379 H   0  0  0  0  0  0  0  0  0  0  0  0
  152.6913  145.3159  157.7857 H   0  0  0  0  0  0  0  0  0  0  0  0
  151.9639  144.0710  155.7703 H   0  0  0  0  0  0  0  0  0  0  0  0
  152.7729  142.9807  156.8680 H   0  0  0  0  0  0  0  0  0  0  0  0
  150.8673  142.2212  154.7826 H   0  0  0  0  0  0  0  0  0  0  0  0
  148.8917  140.7931  154.4994 H   0  0  0  0  0  0  0  0  0  0  0  0
  148.4140  142.2996  155.2436 H   0  0  0  0  0  0  0  0  0  0  0  0
  148.5337  140.8409  156.2190 H   0  0  0  0  0  0  0  0  0  0  0  0
  152.3779  140.8479  156.2483 H   0  0  0  0  0  0  0  0  0  0  0  0
  151.0026  139.9404  156.7756 H   0  0  0  0  0  0  0  0  0  0  0  0
  150.6252  138.4062  156.4836 H   0  0  0  0  0  0  0  0  0  0  0  0
  151.2170  135.4762  154.1257 H   0  0  0  0  0  0  0  0  0  0  0  0
  150.8266  132.6596  154.4535 H   0  0  0  0  0  0  0  0  0  0  0  0
  150.1361  132.2397  156.0215 H   0  0  0  0  0  0  0  0  0  0  0  0
  151.8882  132.3174  155.8213 H   0  0  0  0  0  0  0  0  0  0  0  0
  149.5460  141.6076  158.1929 H   0  0  0  0  0  0  0  0  0  0  0  0
  151.2801  141.4426  158.3467 H   0  0  0  0  0  0  0  0  0  0  0  0
  150.3190  142.8513  160.2011 H   0  0  0  0  0  0  0  0  0  0  0  0
  149.5843  143.9178  159.0324 H   0  0  0  0  0  0  0  0  0  0  0  0
  149.8709  143.3732  156.6764 H   0  0  0  0  0  0  0  0  0  0  0  0
  1  2  1  0  0  0  0
  1 22  1  0  0  0  0
  1 23  1  0  0  0  0
  1 24  1  0  0  0  0
  2  3  1  0  0  0  0
  2 25  1  0  0  0  0
  2 26  1  0  0  0  0
  3 21  1  0  0  0  0
  3  4  1  0  0  0  0
  4  5  1  0  0  0  0
  4 27  1  0  0  0  0
  4 28  1  0  0  0  0
  5  6  1  0  0  0  0
  5 29  1  0  0  0  0
  5 30  1  0  0  0  0
  6  7  1  0  0  0  0
  6 20  1  0  0  0  0
  6 46  1  0  0  0  0
  7  8  1  0  0  0  0
  7  9  1  0  0  0  0
  7 31  1  0  0  0  0
  8 32  1  0  0  0  0
  8 33  1  0  0  0  0
  8 34  1  0  0  0  0
  9 10  1  0  0  0  0
  9 35  1  0  0  0  0
  9 36  1  0  0  0  0
 10 11  1  0  0  0  0
 11 12  2  0  0  0  0
 11 13  1  0  0  0  0
 13 14  1  0  0  0  0
 13 37  1  0  0  0  0
 14 19  2  0  0  0  0
 14 15  1  0  0  0  0
 15 16  2  0  0  0  0
 15 38  1  0  0  0  0
 16 17  1  0  0  0  0
 16 18  1  0  0  0  0
 17 39  1  0  0  0  0
 17 40  1  0  0  0  0
 17 41  1  0  0  0  0
 18 19  1  0  0  0  0
 20 21  1  0  0  0  0
 20 42  1  0  0  0  0
 20 43  1  0  0  0  0
 21 44  1  0  0  0  0
 21 45  1  0  0  0  0
M  CHG  1   6   1
M  CHG  1  10  -1
M  END
> <s_m_source_file>
AV-unprocessed.smi

> <i_m_source_file_index>
1586

> <i_lp_mmshare_version>
43012

> <i_f3d_flags>
0

> <s_epik_input>
W0NIM11bQ0gyXU4xW0NIMl1bQ0gyXU4oW0NIMl1bQ0gyXTEpW0NASF0oW0NIM10pW0NIMl1bTkhdQyg9TylbTkhdYzJbY0hdYyhbQ0gzXSlvbjI=

> <s_epik_cmdline>
J2VwaWtfcHl0aG9uJywgJy1waCcsICc3LjAnLCAnLXRuJywgJzgnLCAnLW1hJywgJzIwMCcsICctbWV0YWxfYmluZGluZycsICctaW1hZScsICc8aW5maWxlLm1hZT4nLCAnLW9tYWUnLCAnPG91dGZpbGUubWFlPic=

> <r_epik_Ionization_Penalty>
6.72969

> <r_epik_Ionization_Penalty_Charging>
6.72741

> <r_epik_Ionization_Penalty_Neutral>
0.00227419

> <r_epik_State_Penalty>
7.72748

> <r_epik_Charging_Adjusted_Penalty>
14.4549

> <i_epik_Tot_Q>
0

> <i_epik_Tot_abs_Q>
2

> <r_epik_Metal_State_Penalty>
3.65268

> <b_epik_Metal_Only>
1

> <s_lp_Force_Field>
OPLS_2005

> <r_lp_Energy>
18.0395

> <b_lp_Chiralities_Consistent>
1

> <s_lp_Variant>
AV-unprocessed.smi:1586-9

> <Gold.Version>
5.8.1

> <Gold.Id.Protein>
6NUR|6NUR_protein|mol2

> <Gold.PLP.Fitness>
50.7672

> <Gold.PLP.PLP>
-37.8675

> <Gold.PLP.part.hbond>
-4.5490

> <Gold.PLP.part.metal>
0.0000

> <Gold.PLP.part.buried>
-8.0670

> <Gold.PLP.part.nonpolar>
-26.5158

> <Gold.PLP.part.repulsive>
0.7554

> <Gold.PLP.ligand.clash>
0.0000

> <Gold.PLP.ligand.torsion>
0.8602

> <Gold.PLP.Chemscore.Hbond>
4.7280

> <Gold.PLP.Chemscore.CHOScore>
0.0000

> <Gold.PLP.Chemscore.Metal>
0.0000

> <Gold.Chemscore.Hbonds>
donor molecule, donor type, donor heavy atom, donor atom, acceptor molecule, acceptor atom, score
      L1  H     6    46       P1  8028  2.00
      P1  H  6896  6907       L1    18  0.34
      P1  H  7989  7998       L1    10  1.00
      P1  H 10752 10765       L1    12  0.73

> <Gold.PLP.Chemscore.Internal.Correction>
0.4361

> <Gold.Rescore>
     Score         DG    S(hbond)    S(metal)    S(lipo)     H(rot)  DE(clash)    DE(int)     intcor
     18.24     -21.81       2.79        0.00      97.78       1.73       1.44       2.12       ----

> <Gold.Chemscore.Fitness>
18.2439

> <Gold.Chemscore.DG>
-21.8083

> <Gold.Chemscore.ZeroCoef>
-5.4800

> <Gold.Chemscore.Hbond>
2.7857

> <Gold.Chemscore.Metal>
0.0000

> <Gold.Chemscore.Lipo>
97.7788

> <Gold.Chemscore.Internal_Hbond>
0.0000

> <Gold.Chemscore.DEClash>
1.4441

> <Gold.Chemscore.DEInternal>
2.1202

> <Gold.Chemscore.Rot>
1.7250

> <Gold.Chemscore.Internal.Correction>
   9.000000E+99

> <Gold.Chemscore.Hbonds>
donor molecule, donor type, donor heavy atom, donor atom, acceptor molecule, acceptor atom, score
      L1  H     6    46       P1  8028  0.95
      P1  H  6896  6907       L1    18  0.07
      P1  H  7989  7998       L1    10  0.35
      P1  H 10752 10765       L1    12  0.71

> <Gold.Chemscore.Hbond.Weighted>
-9.3043

> <Gold.Chemscore.Metal.Weighted>
-0.0000

> <Gold.Chemscore.Lipo.Weighted>
-11.4401

> <Gold.Chemscore.Internal_Hbond.Weighted>
0.0000

> <Gold.Chemscore.DEClash.Weighted>
1.4441

> <Gold.Chemscore.DEInternal.Weighted>
2.1202

> <Gold.Chemscore.Rot.Weighted>
4.4161

> <Gold.Chemscore.Internal.Correction.Weighted>
   9.000000E+99

> <Gold.Protein.RotatedTorsions>
[ 6907 6896 6895 6894 ] final -110.87 input  -60.11 | X-H torsion
[ 7974 7965 7964 7962 ] final  -49.44 input  175.53 | X-H torsion
[ 8008 7997 7996 7995 ] final  121.42 input   59.86 | X-H torsion
[ 10167 10162 10161 10158 ] final -167.72 input  -65.29 | X-H torsion
[ 10718 10713 10712 10709 ] final  -78.81 input   66.30 | X-H torsion
[ 10763 10752 10751 10750 ] final  152.24 input  -60.55 | X-H torsion
[ 11005 11000 10999 10996 ] final   49.32 input  -57.11 | X-H torsion

> <Gold.Protein.ActiveResidues>
 VAL166  LYS551  ARG553  GLY616  TRP617  ASP618  TYR619  PRO620  LYS621  CYS622 
 ASP623  PHE694  ASN695  SER759  ASP760  ASP761  ALA762  ILE779  LEU786  VAL792 
 PHE793  MET794  SER795  GLU796  ALA797  LYS798  CYS799  TRP800  GLU811  SER814 

> <Gold.Protein.RotatedAtoms>
  150.7653  133.9319  159.3429 H   0  0  0  0  0  0  0  0  0  0  0  0  # atno 6907 bound_to 6896
  151.7218  135.0891  160.0295 H   0  0  0  0  0  0  0  0  0  0  0  0  # atno 6908 bound_to 6896
  152.3645  133.6301  159.6076 H   0  0  0  0  0  0  0  0  0  0  0  0  # atno 6909 bound_to 6896
  145.9406  140.7666  142.9554 H   0  0  0  0  0  0  0  0  0  0  0  0  # atno 7974 bound_to 7965
  156.2685  140.2809  156.1305 H   0  0  0  0  0  0  0  0  0  0  0  0  # atno 8008 bound_to 7997
  155.1059  140.0390  157.2728 H   0  0  0  0  0  0  0  0  0  0  0  0  # atno 8009 bound_to 7997
  154.6779  140.2602  155.6944 H   0  0  0  0  0  0  0  0  0  0  0  0  # atno 8010 bound_to 7997
  139.6031  144.0968  152.1764 H   0  0  0  0  0  0  0  0  0  0  0  0  # atno 10167 bound_to 10162
  156.0108  130.4528  150.3553 H   0  0  0  0  0  0  0  0  0  0  0  0  # atno 10718 bound_to 10713
  154.1168  135.2835  155.3218 H   0  0  0  0  0  0  0  0  0  0  0  0  # atno 10763 bound_to 10752
  154.6451  135.5389  153.7838 H   0  0  0  0  0  0  0  0  0  0  0  0  # atno 10764 bound_to 10752
  153.0326  135.6496  154.1324 H   0  0  0  0  0  0  0  0  0  0  0  0  # atno 10765 bound_to 10752
  140.1113  134.4951  155.8675 H   0  0  0  0  0  0  0  0  0  0  0  0  # atno 11005 bound_to 11000
  144.6778  140.2273  143.7359 LP  0  0  0  0  0  0  0  0  0  0  0  0  # atno 17320 bound_to 7965
  145.8305  139.2084  143.1885 LP  0  0  0  0  0  0  0  0  0  0  0  0  # atno 17321 bound_to 7965
  140.0569  144.5887  150.7292 LP  0  0  0  0  0  0  0  0  0  0  0  0  # atno 17342 bound_to 10162
  140.7265  143.2642  151.4103 LP  0  0  0  0  0  0  0  0  0  0  0  0  # atno 17343 bound_to 10162
  157.1644  131.0353  151.2826 LP  0  0  0  0  0  0  0  0  0  0  0  0  # atno 17370 bound_to 10713
  157.4284  130.7476  149.6969 LP  0  0  0  0  0  0  0  0  0  0  0  0  # atno 17371 bound_to 10713
  141.2131  133.6728  156.6711 LP  0  0  0  0  0  0  0  0  0  0  0  0  # atno 17394 bound_to 11000
  140.3087  134.8104  157.4158 LP  0  0  0  0  0  0  0  0  0  0  0  0  # atno 17395 bound_to 11000

$$$$
