AV-unprocessed.smi:623|AV-procd|sdf|3098|dock4
  -GOLD-   22720 0 13D 1   1.00000     0.00000
 Structure written by MMmdl.
 44 46  0  0  0  0  0  0  0  0  2 V2000
  144.4665  134.2372  162.1112 C   0  0  0  0  0  0  0  0  0  0  0  0
  145.5461  135.3403  161.9233 C   0  0  0  0  0  0  0  0  0  0  0  0
  144.7817  136.6897  162.0266 C   0  0  0  0  0  0  0  0  0  0  0  0
  146.7460  135.2192  162.8844 C   0  0  1  0  0  0  0  0  0  0  0  0
  147.3932  133.8725  162.4934 C   0  0  0  0  0  0  0  0  0  0  0  0
  147.1734  133.8266  160.9687 C   0  0  0  0  0  0  0  0  0  0  0  0
  146.4663  135.1814  160.6822 C   0  0  1  0  0  0  0  0  0  0  0  0
  145.7638  135.2167  159.3144 C   0  0  0  0  0  0  0  0  0  0  0  0
  147.5061  136.3278  160.8739 C   0  0  2  0  0  0  0  0  0  0  0  0
  148.7538  136.1165  160.1411 N   0  0  0  0  0  0  0  0  0  0  0  0
  149.3137  136.9957  159.2976 C   0  0  0  0  0  0  0  0  0  0  0  0
  148.8294  138.1034  159.0612 O   0  0  0  0  0  0  0  0  0  0  0  0
  150.6357  136.5542  158.6542 C   0  0  0  0  0  0  0  0  0  0  0  0
  151.1390  137.5001  157.6451 N   0  0  0  0  0  0  0  0  0  0  0  0
  150.3602  137.6974  156.4915 C   0  0  0  0  0  0  0  0  0  0  0  0
  150.7413  138.5394  155.5121 C   0  0  0  0  0  0  0  0  0  0  0  0
  151.9996  139.2578  155.6708 C   0  0  0  0  0  0  0  0  0  0  0  0
  152.3609  140.0346  154.7889 O   0  0  0  0  0  0  0  0  0  0  0  0
  152.7224  139.0289  156.8062 N   0  5  0  0  0  0  0  0  0  0  0  0
  152.3239  138.1663  157.7923 C   0  0  0  0  0  0  0  0  0  0  0  0
  152.9938  137.9709  158.8071 O   0  0  0  0  0  0  0  0  0  0  0  0
  147.7072  136.3311  162.4095 C   0  0  0  0  0  0  0  0  0  0  0  0
  143.9668  134.3509  163.0737 H   0  0  0  0  0  0  0  0  0  0  0  0
  144.8378  133.2153  162.0798 H   0  0  0  0  0  0  0  0  0  0  0  0
  143.6977  134.3124  161.3419 H   0  0  0  0  0  0  0  0  0  0  0  0
  145.3972  137.5802  161.9231 H   0  0  0  0  0  0  0  0  0  0  0  0
  144.2832  136.7737  162.9929 H   0  0  0  0  0  0  0  0  0  0  0  0
  144.0084  136.7564  161.2609 H   0  0  0  0  0  0  0  0  0  0  0  0
  146.4974  135.2879  163.9439 H   0  0  0  0  0  0  0  0  0  0  0  0
  148.4505  133.8296  162.7576 H   0  0  0  0  0  0  0  0  0  0  0  0
  146.9058  133.0327  162.9890 H   0  0  0  0  0  0  0  0  0  0  0  0
  148.1063  133.6888  160.4229 H   0  0  0  0  0  0  0  0  0  0  0  0
  146.5429  132.9811  160.6934 H   0  0  0  0  0  0  0  0  0  0  0  0
  146.4814  135.0867  158.5041 H   0  0  0  0  0  0  0  0  0  0  0  0
  145.2547  136.1671  159.1537 H   0  0  0  0  0  0  0  0  0  0  0  0
  145.0220  134.4228  159.2273 H   0  0  0  0  0  0  0  0  0  0  0  0
  147.0844  137.2786  160.5444 H   0  0  0  0  0  0  0  0  0  0  0  0
  149.2172  135.2299  160.2764 H   0  0  0  0  0  0  0  0  0  0  0  0
  151.3719  136.4223  159.4481 H   0  0  0  0  0  0  0  0  0  0  0  0
  150.5113  135.5634  158.2132 H   0  0  0  0  0  0  0  0  0  0  0  0
  149.4470  137.1219  156.4496 H   0  0  0  0  0  0  0  0  0  0  0  0
  150.1328  138.6770  154.6306 H   0  0  0  0  0  0  0  0  0  0  0  0
  147.4418  137.2987  162.8358 H   0  0  0  0  0  0  0  0  0  0  0  0
  148.7372  136.1310  162.7086 H   0  0  0  0  0  0  0  0  0  0  0  0
  1  2  1  0  0  0  0
  1 23  1  0  0  0  0
  1 24  1  0  0  0  0
  1 25  1  0  0  0  0
  2  7  1  0  0  0  0
  2  3  1  0  0  0  0
  2  4  1  0  0  0  0
  3 26  1  0  0  0  0
  3 27  1  0  0  0  0
  3 28  1  0  0  0  0
  4 22  1  0  0  0  0
  4  5  1  0  0  0  0
  4 29  1  0  0  0  0
  5  6  1  0  0  0  0
  5 30  1  0  0  0  0
  5 31  1  0  0  0  0
  6  7  1  0  0  0  0
  6 32  1  0  0  0  0
  6 33  1  0  0  0  0
  7  8  1  0  0  0  0
  7  9  1  0  0  0  0
  8 34  1  0  0  0  0
  8 35  1  0  0  0  0
  8 36  1  0  0  0  0
  9 10  1  0  0  0  0
  9 22  1  0  0  0  0
  9 37  1  0  0  0  0
 10 11  1  0  0  0  0
 10 38  1  0  0  0  0
 11 12  2  0  0  0  0
 11 13  1  0  0  0  0
 13 14  1  0  0  0  0
 13 39  1  0  0  0  0
 13 40  1  0  0  0  0
 14 20  1  0  0  0  0
 14 15  1  0  0  0  0
 15 16  2  0  0  0  0
 15 41  1  0  0  0  0
 16 17  1  0  0  0  0
 16 42  1  0  0  0  0
 17 18  2  0  0  0  0
 17 19  1  0  0  0  0
 19 20  1  0  0  0  0
 20 21  2  0  0  0  0
 22 43  1  0  0  0  0
 22 44  1  0  0  0  0
M  CHG  1  19  -1
M  END
> <s_m_source_file>
AV-unprocessed.smi

> <i_m_source_file_index>
623

> <i_lp_mmshare_version>
43012

> <i_f3d_flags>
0

> <s_epik_input>
W0NIM11bQ0BdMTJDKFtDSDNdKShbQ0gzXSlbQ0BIXShbQ0gyXVtDSDJdMSlbQ0gyXVtDQEBIXTJbTkhdQyg9TylbQ0gyXW4zW2NIXVtjSF1jKD1PKVtuSF1jMz1P

> <s_epik_cmdline>
J2VwaWtfcHl0aG9uJywgJy1waCcsICc3LjAnLCAnLXRuJywgJzgnLCAnLW1hJywgJzIwMCcsICctbWV0YWxfYmluZGluZycsICctaW1hZScsICc8aW5maWxlLm1hZT4nLCAnLW9tYWUnLCAnPG91dGZpbGUubWFlPic=

> <r_lp_tautomer_probability>
0.999537

> <r_epik_Ionization_Penalty>
3.12624

> <r_epik_Ionization_Penalty_Charging>
3.01273e-08

> <r_epik_Ionization_Penalty_Neutral>
3.12624

> <r_epik_State_Penalty>
3.12534

> <r_epik_Charging_Adjusted_Penalty>
3.12534

> <i_epik_Tot_Q>
-1

> <i_epik_Tot_abs_Q>
1

> <r_epik_Metal_State_Penalty>
0.46406

> <b_epik_Metal_Only>
1

> <s_lp_Force_Field>
OPLS_2005

> <r_lp_Energy>
65.8638

> <b_lp_Chiralities_Consistent>
1

> <s_lp_Variant>
AV-unprocessed.smi:623-8

> <Gold.Version>
5.8.1

> <Gold.Id.Protein>
6NUR|6NUR_protein|mol2

> <Gold.PLP.Fitness>
38.4321

> <Gold.PLP.PLP>
-30.5650

> <Gold.PLP.part.hbond>
-2.9476

> <Gold.PLP.part.metal>
0.0000

> <Gold.PLP.part.buried>
-1.5379

> <Gold.PLP.part.nonpolar>
-26.7431

> <Gold.PLP.part.repulsive>
0.2605

> <Gold.PLP.ligand.clash>
0.0000

> <Gold.PLP.ligand.torsion>
0.0806

> <Gold.PLP.Chemscore.Hbond>
2.6720

> <Gold.PLP.Chemscore.CHOScore>
0.0000

> <Gold.PLP.Chemscore.Metal>
0.0000

> <Gold.Chemscore.Hbonds>
donor molecule, donor type, donor heavy atom, donor atom, acceptor molecule, acceptor atom, score
      P1  H  7989  7998       L1    18  0.61
      P1  H  7997  8008       L1    19  2.00

> <Gold.PLP.Chemscore.Internal.Correction>
0.0123

> <Gold.Rescore>
     Score         DG    S(hbond)    S(metal)    S(lipo)     H(rot)  DE(clash)    DE(int)     intcor
     14.08     -16.08       1.51        0.00      83.12       1.63       1.26       0.74       ----

> <Gold.Chemscore.Fitness>
14.0771

> <Gold.Chemscore.DG>
-16.0763

> <Gold.Chemscore.ZeroCoef>
-5.4800

> <Gold.Chemscore.Hbond>
1.5117

> <Gold.Chemscore.Metal>
0.0000

> <Gold.Chemscore.Lipo>
83.1238

> <Gold.Chemscore.Internal_Hbond>
0.0000

> <Gold.Chemscore.DEClash>
1.2596

> <Gold.Chemscore.DEInternal>
0.7397

> <Gold.Chemscore.Rot>
1.6322

> <Gold.Chemscore.Internal.Correction>
   9.000000E+99

> <Gold.Chemscore.Hbonds>
donor molecule, donor type, donor heavy atom, donor atom, acceptor molecule, acceptor atom, score
      P1  H  7989  7998       L1    18  0.62
      P1  H  7997  8008       L1    19  0.59

> <Gold.Chemscore.Hbond.Weighted>
-5.0491

> <Gold.Chemscore.Metal.Weighted>
-0.0000

> <Gold.Chemscore.Lipo.Weighted>
-9.7255

> <Gold.Chemscore.Internal_Hbond.Weighted>
0.0000

> <Gold.Chemscore.DEClash.Weighted>
1.2596

> <Gold.Chemscore.DEInternal.Weighted>
0.7397

> <Gold.Chemscore.Rot.Weighted>
4.1783

> <Gold.Chemscore.Internal.Correction.Weighted>
   9.000000E+99

> <Gold.Protein.RotatedTorsions>
[ 6907 6896 6895 6894 ] final -121.43 input  -60.11 | X-H torsion
[ 7974 7965 7964 7962 ] final -168.43 input  175.53 | X-H torsion
[ 8008 7997 7996 7995 ] final  -60.87 input   59.86 | X-H torsion
[ 10167 10162 10161 10158 ] final   56.67 input  -65.29 | X-H torsion
[ 10718 10713 10712 10709 ] final   94.31 input   66.30 | X-H torsion
[ 10763 10752 10751 10750 ] final  -67.74 input  -60.55 | X-H torsion
[ 11005 11000 10999 10996 ] final -114.27 input  -57.11 | X-H torsion

> <Gold.Protein.ActiveResidues>
 VAL166  LYS551  ARG553  GLY616  TRP617  ASP618  TYR619  PRO620  LYS621  CYS622 
 ASP623  PHE694  ASN695  SER759  ASP760  ASP761  ALA762  ILE779  LEU786  VAL792 
 PHE793  MET794  SER795  GLU796  ALA797  LYS798  CYS799  TRP800  GLU811  SER814 

> <Gold.Protein.RotatedAtoms>
  150.8483  133.7827  159.3034 H   0  0  0  0  0  0  0  0  0  0  0  0  # atno 6907 bound_to 6896
  151.5507  135.1066  159.9958 H   0  0  0  0  0  0  0  0  0  0  0  0  # atno 6908 bound_to 6896
  152.4531  133.7627  159.6811 H   0  0  0  0  0  0  0  0  0  0  0  0  # atno 6909 bound_to 6896
  144.7203  140.2371  143.6296 H   0  0  0  0  0  0  0  0  0  0  0  0  # atno 7974 bound_to 7965
  154.4420  140.1030  156.6341 H   0  0  0  0  0  0  0  0  0  0  0  0  # atno 8008 bound_to 7997
  155.5572  140.3487  155.4464 H   0  0  0  0  0  0  0  0  0  0  0  0  # atno 8009 bound_to 7997
  156.0486  140.1298  157.0065 H   0  0  0  0  0  0  0  0  0  0  0  0  # atno 8010 bound_to 7997
  140.2062  144.3937  150.6508 H   0  0  0  0  0  0  0  0  0  0  0  0  # atno 10167 bound_to 10162
  157.6949  131.0508  150.4167 H   0  0  0  0  0  0  0  0  0  0  0  0  # atno 10718 bound_to 10713
  154.3789  135.6078  153.5780 H   0  0  0  0  0  0  0  0  0  0  0  0  # atno 10763 bound_to 10752
  152.9788  135.5856  154.4434 H   0  0  0  0  0  0  0  0  0  0  0  0  # atno 10764 bound_to 10752
  154.4200  135.2845  155.1960 H   0  0  0  0  0  0  0  0  0  0  0  0  # atno 10765 bound_to 10752
  141.0562  133.9609  157.2749 H   0  0  0  0  0  0  0  0  0  0  0  0  # atno 11005 bound_to 11000
  145.8356  139.2106  143.1857 LP  0  0  0  0  0  0  0  0  0  0  0  0  # atno 17320 bound_to 7965
  146.0392  140.8181  142.9837 LP  0  0  0  0  0  0  0  0  0  0  0  0  # atno 17321 bound_to 7965
  140.6356  143.2194  151.6402 LP  0  0  0  0  0  0  0  0  0  0  0  0  # atno 17342 bound_to 10162
  139.5198  144.3243  152.0882 LP  0  0  0  0  0  0  0  0  0  0  0  0  # atno 17343 bound_to 10162
  156.4546  130.4019  149.6614 LP  0  0  0  0  0  0  0  0  0  0  0  0  # atno 17370 bound_to 10713
  156.3751  130.7550  151.2538 LP  0  0  0  0  0  0  0  0  0  0  0  0  # atno 17371 bound_to 10713
  139.9392  135.0193  156.8654 LP  0  0  0  0  0  0  0  0  0  0  0  0  # atno 17394 bound_to 11000
  140.5959  134.0217  155.7518 LP  0  0  0  0  0  0  0  0  0  0  0  0  # atno 17395 bound_to 11000

$$$$
