AV-unprocessed.smi:1563|AV-procd|sdf|6289|dock7
  -GOLD-   22720 6483D 1   1.00000     0.00000
 Structure written by MMmdl.
 43 44  0  0  0  0  0  0  0  0  1 V2000
  145.7827  135.9202  152.9849 C   0  0  0  0  0  0  0  0  0  0  0  0
  145.9549  137.2158  153.7703 C   0  0  0  0  0  0  0  0  0  0  0  0
  145.0081  137.6872  154.3991 O   0  0  0  0  0  0  0  0  0  0  0  0
  147.1713  137.7797  153.7234 N   0  0  0  0  0  0  0  0  0  0  0  0
  147.5530  139.0198  154.3925 C   0  0  2  0  0  0  0  0  0  0  0  0
  146.5770  140.1465  153.9908 C   0  0  0  0  0  0  0  0  0  0  0  0
  147.0380  141.5218  154.5087 C   0  0  0  0  0  0  0  0  0  0  0  0
  148.5088  141.7805  154.1407 C   0  0  0  0  0  0  0  0  0  0  0  0
  149.3291  140.6857  154.6867 N   0  0  0  0  0  0  0  0  0  0  0  0
  150.1959  140.7699  155.7280 C   0  0  0  0  0  0  0  0  0  0  0  0
  150.8127  139.8003  156.1715 O   0  0  0  0  0  0  0  0  0  0  0  0
  150.3192  142.0006  156.2542 N   0  0  0  0  0  0  0  0  0  0  0  0
  151.2193  142.3907  157.3364 C   0  0  0  0  0  0  0  0  0  0  0  0
  151.3026  141.3095  158.4294 C   0  0  0  0  0  0  0  0  0  0  0  0
  152.1479  141.7132  159.6265 C   0  0  0  0  0  0  0  0  0  0  0  0
  153.2844  140.9584  159.9875 C   0  0  0  0  0  0  0  0  0  0  0  0
  154.0457  141.3790  161.0952 C   0  0  0  0  0  0  0  0  0  0  0  0
  153.6441  142.5325  161.7958 C   0  0  0  0  0  0  0  0  0  0  0  0
  152.4945  143.2179  161.3550 C   0  0  0  0  0  0  0  0  0  0  0  0
  151.7565  142.8223  160.2955 N   0  0  0  0  0  0  0  0  0  0  0  0
  149.0070  139.4072  154.0393 C   0  0  0  0  0  0  0  0  0  0  0  0
  146.5253  135.1839  153.2938 H   0  0  0  0  0  0  0  0  0  0  0  0
  145.9012  136.1046  151.9168 H   0  0  0  0  0  0  0  0  0  0  0  0
  144.7921  135.4952  153.1505 H   0  0  0  0  0  0  0  0  0  0  0  0
  147.8862  137.3168  153.1813 H   0  0  0  0  0  0  0  0  0  0  0  0
  147.4799  138.8796  155.4729 H   0  0  0  0  0  0  0  0  0  0  0  0
  146.5045  140.1909  152.9032 H   0  0  0  0  0  0  0  0  0  0  0  0
  145.5735  139.9272  154.3572 H   0  0  0  0  0  0  0  0  0  0  0  0
  146.4034  142.3067  154.0968 H   0  0  0  0  0  0  0  0  0  0  0  0
  146.9207  141.5637  155.5924 H   0  0  0  0  0  0  0  0  0  0  0  0
  148.6211  141.8032  153.0559 H   0  0  0  0  0  0  0  0  0  0  0  0
  148.8096  142.7724  154.4780 H   0  0  0  0  0  0  0  0  0  0  0  0
  149.7699  142.7389  155.8392 H   0  0  0  0  0  0  0  0  0  0  0  0
  152.2088  142.5571  156.9103 H   0  0  0  0  0  0  0  0  0  0  0  0
  150.9170  143.3376  157.7861 H   0  0  0  0  0  0  0  0  0  0  0  0
  150.2985  141.0580  158.7743 H   0  0  0  0  0  0  0  0  0  0  0  0
  151.7102  140.3921  158.0029 H   0  0  0  0  0  0  0  0  0  0  0  0
  153.5697  140.0802  159.4271 H   0  0  0  0  0  0  0  0  0  0  0  0
  154.9224  140.8274  161.4009 H   0  0  0  0  0  0  0  0  0  0  0  0
  154.2039  142.8848  162.6495 H   0  0  0  0  0  0  0  0  0  0  0  0
  152.1581  144.1070  161.8674 H   0  0  0  0  0  0  0  0  0  0  0  0
  149.6901  138.6078  154.3304 H   0  0  0  0  0  0  0  0  0  0  0  0
  149.1214  139.5119  152.9591 H   0  0  0  0  0  0  0  0  0  0  0  0
  1  2  1  0  0  0  0
  1 22  1  0  0  0  0
  1 23  1  0  0  0  0
  1 24  1  0  0  0  0
  2  3  2  0  0  0  0
  2  4  1  0  0  0  0
  4  5  1  0  0  0  0
  4 25  1  0  0  0  0
  5 21  1  0  0  0  0
  5  6  1  0  0  0  0
  5 26  1  0  0  0  0
  6  7  1  0  0  0  0
  6 27  1  0  0  0  0
  6 28  1  0  0  0  0
  7  8  1  0  0  0  0
  7 29  1  0  0  0  0
  7 30  1  0  0  0  0
  8  9  1  0  0  0  0
  8 31  1  0  0  0  0
  8 32  1  0  0  0  0
  9 10  1  0  0  0  0
  9 21  1  0  0  0  0
 10 11  2  0  0  0  0
 10 12  1  0  0  0  0
 12 13  1  0  0  0  0
 12 33  1  0  0  0  0
 13 14  1  0  0  0  0
 13 34  1  0  0  0  0
 13 35  1  0  0  0  0
 14 15  1  0  0  0  0
 14 36  1  0  0  0  0
 14 37  1  0  0  0  0
 15 20  1  0  0  0  0
 15 16  2  0  0  0  0
 16 17  1  0  0  0  0
 16 38  1  0  0  0  0
 17 18  2  0  0  0  0
 17 39  1  0  0  0  0
 18 19  1  0  0  0  0
 18 40  1  0  0  0  0
 19 20  2  0  0  0  0
 19 41  1  0  0  0  0
 21 42  1  0  0  0  0
 21 43  1  0  0  0  0
M  END
> <s_m_source_file>
AV-unprocessed.smi

> <i_m_source_file_index>
1563

> <i_lp_mmshare_version>
43012

> <i_f3d_flags>
0

> <s_epik_input>
W0NIM11DKD1PKVtOSF1bQ0BASF0xW0NIMl1bQ0gyXVtDSDJdTihbQ0gyXTEpQyg9TylbTkhdW0NIMl1bQ0gyXWMyW2NIXVtjSF1bY0hdW2NIXW4y

> <s_epik_cmdline>
J2VwaWtfcHl0aG9uJywgJy1waCcsICc3LjAnLCAnLXRuJywgJzgnLCAnLW1hJywgJzIwMCcsICctbWV0YWxfYmluZGluZycsICctaW1hZScsICc8aW5maWxlLm1hZT4nLCAnLW9tYWUnLCAnPG91dGZpbGUubWFlPic=

> <r_epik_Ionization_Penalty>
0.0442074

> <r_epik_Ionization_Penalty_Charging>
0

> <r_epik_Ionization_Penalty_Neutral>
0.0442074

> <r_epik_State_Penalty>
0.0374027

> <r_epik_Charging_Adjusted_Penalty>
0.0374027

> <i_epik_Tot_Q>
0

> <i_epik_Tot_abs_Q>
0

> <r_epik_Metal_State_Penalty>
0.0347963

> <b_epik_Metal_Only>
0

> <s_lp_Force_Field>
OPLS_2005

> <r_lp_Energy>
29.1558

> <b_lp_Chiralities_Consistent>
1

> <s_lp_Variant>
AV-unprocessed.smi:1563-1

> <Gold.Version>
5.8.1

> <Gold.Id.Protein>
6NUR|6NUR_protein|mol2

> <Gold.PLP.Fitness>
43.4735

> <Gold.PLP.PLP>
-37.8172

> <Gold.PLP.part.hbond>
-3.0000

> <Gold.PLP.part.metal>
0.0000

> <Gold.PLP.part.buried>
-1.0949

> <Gold.PLP.part.nonpolar>
-34.1982

> <Gold.PLP.part.repulsive>
0.2428

> <Gold.PLP.ligand.clash>
0.0000

> <Gold.PLP.ligand.torsion>
0.1797

> <Gold.PLP.Chemscore.Hbond>
2.0000

> <Gold.PLP.Chemscore.CHOScore>
0.0000

> <Gold.PLP.Chemscore.Metal>
0.0000

> <Gold.Chemscore.Hbonds>
donor molecule, donor type, donor heavy atom, donor atom, acceptor molecule, acceptor atom, score
      L1  H     4    25       P1  7948  1.00
      L1  H    12    33       P1  8028  0.63

> <Gold.PLP.Chemscore.Internal.Correction>
0.0157

> <Gold.Rescore>
     Score         DG    S(hbond)    S(metal)    S(lipo)     H(rot)  DE(clash)    DE(int)     intcor
     16.14     -18.98       1.89        0.00      98.27       1.68       1.23       1.61       ----

> <Gold.Chemscore.Fitness>
16.1408

> <Gold.Chemscore.DG>
-18.9833

> <Gold.Chemscore.ZeroCoef>
-5.4800

> <Gold.Chemscore.Hbond>
1.8891

> <Gold.Chemscore.Metal>
0.0000

> <Gold.Chemscore.Lipo>
98.2728

> <Gold.Chemscore.Internal_Hbond>
0.0000

> <Gold.Chemscore.DEClash>
1.2330

> <Gold.Chemscore.DEInternal>
1.6095

> <Gold.Chemscore.Rot>
1.6813

> <Gold.Chemscore.Internal.Correction>
   9.000000E+99

> <Gold.Chemscore.Hbonds>
donor molecule, donor type, donor heavy atom, donor atom, acceptor molecule, acceptor atom, score
      L1  H     4    25       P1  7948  0.95
      L1  H    12    33       P1  8028  0.62

> <Gold.Chemscore.Hbond.Weighted>
-6.3096

> <Gold.Chemscore.Metal.Weighted>
-0.0000

> <Gold.Chemscore.Lipo.Weighted>
-11.4979

> <Gold.Chemscore.Internal_Hbond.Weighted>
0.0000

> <Gold.Chemscore.DEClash.Weighted>
1.2330

> <Gold.Chemscore.DEInternal.Weighted>
1.6095

> <Gold.Chemscore.Rot.Weighted>
4.3042

> <Gold.Chemscore.Internal.Correction.Weighted>
   9.000000E+99

> <Gold.Protein.RotatedTorsions>
[ 6907 6896 6895 6894 ] final  140.78 input  -60.11 | X-H torsion
[ 7974 7965 7964 7962 ] final  157.36 input  175.53 | X-H torsion
[ 8008 7997 7996 7995 ] final  -57.87 input   59.86 | X-H torsion
[ 10167 10162 10161 10158 ] final -135.92 input  -65.29 | X-H torsion
[ 10718 10713 10712 10709 ] final  166.68 input   66.30 | X-H torsion
[ 10763 10752 10751 10750 ] final   -7.05 input  -60.55 | X-H torsion
[ 11005 11000 10999 10996 ] final  161.75 input  -57.11 | X-H torsion

> <Gold.Protein.ActiveResidues>
 VAL166  LYS551  ARG553  GLY616  TRP617  ASP618  TYR619  PRO620  LYS621  CYS622 
 ASP623  PHE694  ASN695  SER759  ASP760  ASP761  ALA762  ILE779  LEU786  VAL792 
 PHE793  MET794  SER795  GLU796  ALA797  LYS798  CYS799  TRP800  GLU811  SER814 

> <Gold.Protein.RotatedAtoms>
  152.2389  133.5119  159.5258 H   0  0  0  0  0  0  0  0  0  0  0  0  # atno 6907 bound_to 6896
  150.7058  134.1116  159.4011 H   0  0  0  0  0  0  0  0  0  0  0  0  # atno 6908 bound_to 6896
  151.9036  135.0368  160.0559 H   0  0  0  0  0  0  0  0  0  0  0  0  # atno 6909 bound_to 6896
  144.7908  139.7330  143.6222 H   0  0  0  0  0  0  0  0  0  0  0  0  # atno 7974 bound_to 7965
  154.4285  140.1097  156.5866 H   0  0  0  0  0  0  0  0  0  0  0  0  # atno 8008 bound_to 7997
  155.6056  140.3494  155.4588 H   0  0  0  0  0  0  0  0  0  0  0  0  # atno 8009 bound_to 7997
  156.0139  140.1225  157.0415 H   0  0  0  0  0  0  0  0  0  0  0  0  # atno 8010 bound_to 7997
  139.8730  143.6933  152.2637 H   0  0  0  0  0  0  0  0  0  0  0  0  # atno 10167 bound_to 10162
  157.0623  131.0343  151.2642 H   0  0  0  0  0  0  0  0  0  0  0  0  # atno 10718 bound_to 10713
  153.4210  135.7010  153.6294 H   0  0  0  0  0  0  0  0  0  0  0  0  # atno 10763 bound_to 10752
  153.4749  135.3706  155.2411 H   0  0  0  0  0  0  0  0  0  0  0  0  # atno 10764 bound_to 10752
  154.8722  135.4052  154.3578 H   0  0  0  0  0  0  0  0  0  0  0  0  # atno 10765 bound_to 10752
  140.2189  134.8211  157.3200 H   0  0  0  0  0  0  0  0  0  0  0  0  # atno 11005 bound_to 11000
  146.2159  139.5548  142.9650 LP  0  0  0  0  0  0  0  0  0  0  0  0  # atno 17320 bound_to 7965
  145.5800  141.0384  143.2127 LP  0  0  0  0  0  0  0  0  0  0  0  0  # atno 17321 bound_to 7965
  139.7266  144.7591  151.0869 LP  0  0  0  0  0  0  0  0  0  0  0  0  # atno 17342 bound_to 10162
  140.7757  143.5140  150.9617 LP  0  0  0  0  0  0  0  0  0  0  0  0  # atno 17343 bound_to 10162
  157.4944  130.7842  149.7541 LP  0  0  0  0  0  0  0  0  0  0  0  0  # atno 17370 bound_to 10713
  155.9975  130.3900  150.2739 LP  0  0  0  0  0  0  0  0  0  0  0  0  # atno 17371 bound_to 10713
  140.1871  134.4418  155.7738 LP  0  0  0  0  0  0  0  0  0  0  0  0  # atno 17394 bound_to 11000
  141.2224  133.7010  156.7965 LP  0  0  0  0  0  0  0  0  0  0  0  0  # atno 17395 bound_to 11000

$$$$
