AV-unprocessed.smi:1701|AV-procd|sdf|6828|dock5
  -GOLD-   22720 8 03D 1   1.00000     0.00000
 Structure written by MMmdl.
 55 57  0  0  0  0  0  0  0  0  3 V2000
  153.4087  142.3691  160.0478 C   0  0  0  0  0  0  0  0  0  0  0  0
  153.1504  143.6612  159.2580 C   0  0  0  0  0  0  0  0  0  0  0  0
  152.0111  143.5647  158.3452 N   0  0  0  0  0  0  0  0  0  0  0  0
  150.8949  144.5029  158.4878 C   0  0  0  0  0  0  0  0  0  0  0  0
  151.0050  145.3889  159.7378 C   0  0  0  0  0  0  0  0  0  0  0  0
  152.0700  142.7040  157.2217 C   0  0  0  0  0  0  0  0  0  0  0  0
  152.9863  141.6289  157.1044 C   0  0  0  0  0  0  0  0  0  0  0  0
  152.9814  140.8205  155.9495 C   0  0  0  0  0  0  0  0  0  0  0  0
  152.0584  141.0761  154.9150 C   0  0  0  0  0  0  0  0  0  0  0  0
  152.1070  140.2402  153.7661 N   0  0  0  0  0  0  0  0  0  0  0  0
  152.4589  138.9420  153.6756 C   0  0  0  0  0  0  0  0  0  0  0  0
  152.8446  138.2526  154.6164 O   0  0  0  0  0  0  0  0  0  0  0  0
  152.3809  138.4356  152.4320 N   0  0  0  0  0  0  0  0  0  0  0  0
  152.6884  137.0738  151.9914 C   0  0  1  0  0  0  0  0  0  0  0  0
  153.8245  136.4017  152.7802 C   0  0  0  0  0  0  0  0  0  0  0  0
  153.3890  134.9333  152.9584 C   0  0  0  0  0  0  0  0  0  0  0  0
  152.1158  134.7740  152.2189 N   0  3  2  0  0  0  0  0  0  0  0  0
  152.3236  134.1897  150.8653 C   0  0  0  0  0  0  0  0  0  0  0  0
  151.0497  134.2412  150.0122 C   0  0  0  0  0  0  0  0  0  0  0  0
  150.5635  135.6860  149.8759 C   0  0  0  0  0  0  0  0  0  0  0  0
  150.3023  136.2710  151.2683 C   0  0  0  0  0  0  0  0  0  0  0  0
  151.5071  136.1263  152.2252 C   0  0  2  0  0  0  0  0  0  0  0  0
  151.1666  142.1629  155.0728 C   0  0  0  0  0  0  0  0  0  0  0  0
  151.2081  142.9120  156.1957 N   0  3  0  0  0  0  0  0  0  0  0  0
  154.2369  142.5074  160.7428 H   0  0  0  0  0  0  0  0  0  0  0  0
  153.6742  141.5420  159.3911 H   0  0  0  0  0  0  0  0  0  0  0  0
  152.5373  142.0689  160.6298 H   0  0  0  0  0  0  0  0  0  0  0  0
  153.0167  144.5035  159.9362 H   0  0  0  0  0  0  0  0  0  0  0  0
  154.0427  143.9028  158.6797 H   0  0  0  0  0  0  0  0  0  0  0  0
  150.8098  145.1221  157.5944 H   0  0  0  0  0  0  0  0  0  0  0  0
  149.9633  143.9385  158.5356 H   0  0  0  0  0  0  0  0  0  0  0  0
  150.1660  146.0830  159.7882 H   0  0  0  0  0  0  0  0  0  0  0  0
  151.9203  145.9811  159.7320 H   0  0  0  0  0  0  0  0  0  0  0  0
  150.9934  144.7997  160.6534 H   0  0  0  0  0  0  0  0  0  0  0  0
  153.7047  141.4080  157.8787 H   0  0  0  0  0  0  0  0  0  0  0  0
  153.6858  140.0062  155.8642 H   0  0  0  0  0  0  0  0  0  0  0  0
  151.8764  140.6932  152.8942 H   0  0  0  0  0  0  0  0  0  0  0  0
  152.0934  139.0774  151.7068 H   0  0  0  0  0  0  0  0  0  0  0  0
  152.9368  137.0761  150.9287 H   0  0  0  0  0  0  0  0  0  0  0  0
  154.7711  136.4793  152.2443 H   0  0  0  0  0  0  0  0  0  0  0  0
  153.9625  136.8674  153.7573 H   0  0  0  0  0  0  0  0  0  0  0  0
  154.1549  134.2286  152.6310 H   0  0  0  0  0  0  0  0  0  0  0  0
  153.1986  134.7344  154.0138 H   0  0  0  0  0  0  0  0  0  0  0  0
  153.1244  134.7216  150.3491 H   0  0  0  0  0  0  0  0  0  0  0  0
  152.6559  133.1563  150.9719 H   0  0  0  0  0  0  0  0  0  0  0  0
  151.2458  133.8206  149.0254 H   0  0  0  0  0  0  0  0  0  0  0  0
  150.2714  133.6251  150.4647 H   0  0  0  0  0  0  0  0  0  0  0  0
  151.3062  136.2841  149.3469 H   0  0  0  0  0  0  0  0  0  0  0  0
  149.6527  135.7216  149.2775 H   0  0  0  0  0  0  0  0  0  0  0  0
  150.0075  137.3177  151.1868 H   0  0  0  0  0  0  0  0  0  0  0  0
  149.4473  135.7527  151.7047 H   0  0  0  0  0  0  0  0  0  0  0  0
  151.1403  136.2960  153.2397 H   0  0  0  0  0  0  0  0  0  0  0  0
  150.4293  142.4775  154.3502 H   0  0  0  0  0  0  0  0  0  0  0  0
  151.5104  134.1440  152.7260 H   0  0  0  0  0  0  0  0  0  0  0  0
  150.5504  143.6878  156.2739 H   0  0  0  0  0  0  0  0  0  0  0  0
  1  2  1  0  0  0  0
  1 25  1  0  0  0  0
  1 26  1  0  0  0  0
  1 27  1  0  0  0  0
  2  3  1  0  0  0  0
  2 28  1  0  0  0  0
  2 29  1  0  0  0  0
  3  4  1  0  0  0  0
  3  6  1  0  0  0  0
  4  5  1  0  0  0  0
  4 30  1  0  0  0  0
  4 31  1  0  0  0  0
  5 32  1  0  0  0  0
  5 33  1  0  0  0  0
  5 34  1  0  0  0  0
  6 24  1  0  0  0  0
  6  7  2  0  0  0  0
  7  8  1  0  0  0  0
  7 35  1  0  0  0  0
  8  9  2  0  0  0  0
  8 36  1  0  0  0  0
  9 10  1  0  0  0  0
  9 23  1  0  0  0  0
 10 11  1  0  0  0  0
 10 37  1  0  0  0  0
 11 12  2  0  0  0  0
 11 13  1  0  0  0  0
 13 14  1  0  0  0  0
 13 38  1  0  0  0  0
 14 22  1  0  0  0  0
 14 15  1  0  0  0  0
 14 39  1  0  0  0  0
 15 16  1  0  0  0  0
 15 40  1  0  0  0  0
 15 41  1  0  0  0  0
 16 17  1  0  0  0  0
 16 42  1  0  0  0  0
 16 43  1  0  0  0  0
 17 22  1  0  0  0  0
 17 18  1  0  0  0  0
 17 54  1  0  0  0  0
 18 19  1  0  0  0  0
 18 44  1  0  0  0  0
 18 45  1  0  0  0  0
 19 20  1  0  0  0  0
 19 46  1  0  0  0  0
 19 47  1  0  0  0  0
 20 21  1  0  0  0  0
 20 48  1  0  0  0  0
 20 49  1  0  0  0  0
 21 22  1  0  0  0  0
 21 50  1  0  0  0  0
 21 51  1  0  0  0  0
 22 52  1  0  0  0  0
 23 24  2  0  0  0  0
 23 53  1  0  0  0  0
 24 55  1  0  0  0  0
M  CHG  1  17   1
M  CHG  1  24   1
M  END
> <s_m_source_file>
AV-unprocessed.smi

> <i_m_source_file_index>
1701

> <i_lp_mmshare_version>
43012

> <i_f3d_flags>
0

> <s_epik_input>
W0NIM11bQ0gyXU4oW0NIMl1bQ0gzXSljMVtjSF1bY0hdYyhbY0hdbjEpW05IXUMoPU8pW05IXVtDQEhdKFtDSDJdW0NIMl0yKVtDQEBIXShOMjMpW0NIMl1bQ0gyXVtDSDJdW0NIMl0z

> <s_epik_cmdline>
J2VwaWtfcHl0aG9uJywgJy1waCcsICc3LjAnLCAnLXRuJywgJzgnLCAnLW1hJywgJzIwMCcsICctbWV0YWxfYmluZGluZycsICctaW1hZScsICc8aW5maWxlLm1hZT4nLCAnLW9tYWUnLCAnPG91dGZpbGUubWFlPic=

> <r_lp_tautomer_probability>
0.999994

> <r_epik_Ionization_Penalty>
0.302862

> <r_epik_Ionization_Penalty_Charging>
0.302842

> <r_epik_Ionization_Penalty_Neutral>
1.95166e-05

> <r_epik_State_Penalty>
0.019791

> <r_epik_Charging_Adjusted_Penalty>
0.322633

> <i_epik_Tot_Q>
2

> <i_epik_Tot_abs_Q>
2

> <r_epik_Metal_State_Penalty>
0.0536763

> <b_epik_Metal_Only>
0

> <s_lp_Force_Field>
OPLS_2005

> <r_lp_Energy>
65.6354

> <b_lp_Chiralities_Consistent>
1

> <s_lp_Variant>
AV-unprocessed.smi:1701-8

> <Gold.Version>
5.8.1

> <Gold.Id.Protein>
6NUR|6NUR_protein|mol2

> <Gold.PLP.Fitness>
42.0996

> <Gold.PLP.PLP>
-36.1185

> <Gold.PLP.part.hbond>
-2.0000

> <Gold.PLP.part.metal>
0.0000

> <Gold.PLP.part.buried>
-0.1327

> <Gold.PLP.part.nonpolar>
-34.3801

> <Gold.PLP.part.repulsive>
0.1378

> <Gold.PLP.ligand.clash>
0.0000

> <Gold.PLP.ligand.torsion>
0.7003

> <Gold.PLP.Chemscore.Hbond>
2.4000

> <Gold.PLP.Chemscore.CHOScore>
0.0000

> <Gold.PLP.Chemscore.Metal>
0.0000

> <Gold.Chemscore.Hbonds>
donor molecule, donor type, donor heavy atom, donor atom, acceptor molecule, acceptor atom, score
      L1  H    24    55       P1  8028  1.95

> <Gold.PLP.Chemscore.Internal.Correction>
0.1816

> <Gold.Rescore>
     Score         DG    S(hbond)    S(metal)    S(lipo)     H(rot)  DE(clash)    DE(int)     intcor
     13.76     -17.81       1.24        0.00      98.33       1.30       0.49       3.56       ----

> <Gold.Chemscore.Fitness>
13.7613

> <Gold.Chemscore.DG>
-17.8068

> <Gold.Chemscore.ZeroCoef>
-5.4800

> <Gold.Chemscore.Hbond>
1.2442

> <Gold.Chemscore.Metal>
0.0000

> <Gold.Chemscore.Lipo>
98.3280

> <Gold.Chemscore.Internal_Hbond>
0.0000

> <Gold.Chemscore.DEClash>
0.4879

> <Gold.Chemscore.DEInternal>
3.5576

> <Gold.Chemscore.Rot>
1.3020

> <Gold.Chemscore.Internal.Correction>
   9.000000E+99

> <Gold.Chemscore.Hbonds>
donor molecule, donor type, donor heavy atom, donor atom, acceptor molecule, acceptor atom, score
      L1  H    24    55       P1  8028  0.90

> <Gold.Chemscore.Hbond.Weighted>
-4.1555

> <Gold.Chemscore.Metal.Weighted>
-0.0000

> <Gold.Chemscore.Lipo.Weighted>
-11.5044

> <Gold.Chemscore.Internal_Hbond.Weighted>
0.0000

> <Gold.Chemscore.DEClash.Weighted>
0.4879

> <Gold.Chemscore.DEInternal.Weighted>
3.5576

> <Gold.Chemscore.Rot.Weighted>
3.3330

> <Gold.Chemscore.Internal.Correction.Weighted>
   9.000000E+99

> <Gold.Protein.RotatedTorsions>
[ 6907 6896 6895 6894 ] final  122.88 input  -60.11 | X-H torsion
[ 7974 7965 7964 7962 ] final   17.30 input  175.53 | X-H torsion
[ 8008 7997 7996 7995 ] final -140.29 input   59.86 | X-H torsion
[ 10167 10162 10161 10158 ] final   75.36 input  -65.29 | X-H torsion
[ 10718 10713 10712 10709 ] final -144.46 input   66.30 | X-H torsion
[ 10763 10752 10751 10750 ] final   22.27 input  -60.55 | X-H torsion
[ 11005 11000 10999 10996 ] final  123.43 input  -57.11 | X-H torsion

> <Gold.Protein.ActiveResidues>
 VAL166  LYS551  ARG553  GLY616  TRP617  ASP618  TYR619  PRO620  LYS621  CYS622 
 ASP623  PHE694  ASN695  SER759  ASP760  ASP761  ALA762  ILE779  LEU786  VAL792 
 PHE793  MET794  SER795  GLU796  ALA797  LYS798  CYS799  TRP800  GLU811  SER814 

> <Gold.Protein.RotatedAtoms>
  152.4207  133.7112  159.6479 H   0  0  0  0  0  0  0  0  0  0  0  0  # atno 6907 bound_to 6896
  150.8083  133.8457  159.3200 H   0  0  0  0  0  0  0  0  0  0  0  0  # atno 6908 bound_to 6896
  151.6175  135.1037  160.0146 H   0  0  0  0  0  0  0  0  0  0  0  0  # atno 6909 bound_to 6896
  146.2222  139.8622  142.8602 H   0  0  0  0  0  0  0  0  0  0  0  0  # atno 7974 bound_to 7965
  155.4589  140.0544  157.2993 H   0  0  0  0  0  0  0  0  0  0  0  0  # atno 8008 bound_to 7997
  154.4746  140.2055  155.9866 H   0  0  0  0  0  0  0  0  0  0  0  0  # atno 8009 bound_to 7997
  156.1111  140.3204  155.8078 H   0  0  0  0  0  0  0  0  0  0  0  0  # atno 8010 bound_to 7997
  140.0037  144.5666  150.7715 H   0  0  0  0  0  0  0  0  0  0  0  0  # atno 10167 bound_to 10162
  156.3704  130.7785  151.1965 H   0  0  0  0  0  0  0  0  0  0  0  0  # atno 10718 bound_to 10713
  153.0929  135.6652  153.9819 H   0  0  0  0  0  0  0  0  0  0  0  0  # atno 10763 bound_to 10752
  153.9411  135.2994  155.3444 H   0  0  0  0  0  0  0  0  0  0  0  0  # atno 10764 bound_to 10752
  154.7345  135.5108  153.9092 H   0  0  0  0  0  0  0  0  0  0  0  0  # atno 10765 bound_to 10752
  139.9312  134.9641  156.8258 H   0  0  0  0  0  0  0  0  0  0  0  0  # atno 11005 bound_to 11000
  145.2693  141.0103  143.3781 LP  0  0  0  0  0  0  0  0  0  0  0  0  # atno 17320 bound_to 7965
  144.9236  139.4382  143.6529 LP  0  0  0  0  0  0  0  0  0  0  0  0  # atno 17321 bound_to 7965
  140.7408  143.2810  151.3599 LP  0  0  0  0  0  0  0  0  0  0  0  0  # atno 17342 bound_to 10162
  139.6253  144.0826  152.2429 LP  0  0  0  0  0  0  0  0  0  0  0  0  # atno 17343 bound_to 10162
  157.7483  131.0374  150.4453 LP  0  0  0  0  0  0  0  0  0  0  0  0  # atno 17370 bound_to 10713
  156.4679  130.4046  149.6536 LP  0  0  0  0  0  0  0  0  0  0  0  0  # atno 17371 bound_to 10713
  140.6197  134.0006  155.7613 LP  0  0  0  0  0  0  0  0  0  0  0  0  # atno 17394 bound_to 11000
  141.0902  133.9929  157.3250 LP  0  0  0  0  0  0  0  0  0  0  0  0  # atno 17395 bound_to 11000

$$$$
