AV-unprocessed.smi:3217|AV-procd|sdf|12290|dock1
  -GOLD-   2272018133D 1   1.00000     0.00000
 Structure written by MMmdl.
 34 35  0  0  0  0  0  0  0  0  1 V2000
  145.0576  134.6467  153.7976 C   0  0  0  0  0  0  0  0  0  0  0  0
  145.1815  135.5295  152.5473 C   0  0  1  0  0  0  0  0  0  0  0  0
  146.3694  136.3720  152.6806 N   0  0  0  0  0  0  0  0  0  0  0  0
  146.4053  137.6058  153.2046 C   0  0  0  0  0  0  0  0  0  0  0  0
  145.4131  138.1926  153.6352 O   0  0  0  0  0  0  0  0  0  0  0  0
  147.6584  138.0921  153.2020 N   0  0  0  0  0  0  0  0  0  0  0  0
  148.1347  139.3391  153.6916 C   0  0  0  0  0  0  0  0  0  0  0  0
  147.3928  140.5457  153.6776 C   0  0  0  0  0  0  0  0  0  0  0  0
  147.9887  141.7161  154.1860 C   0  0  0  0  0  0  0  0  0  0  0  0
  149.3047  141.6411  154.6814 C   0  0  0  0  0  0  0  0  0  0  0  0
  150.0281  140.5020  154.6889 N   0  0  0  0  0  0  0  0  0  0  0  0
  149.4499  139.3838  154.2011 C   0  0  0  0  0  0  0  0  0  0  0  0
  145.2597  134.6924  151.2544 C   0  0  2  0  0  0  0  0  0  0  0  0
  144.0865  133.7327  151.0375 C   0  0  0  0  0  0  0  0  0  0  0  0
  144.7098  132.6752  150.1564 C   0  0  0  0  0  0  0  0  0  0  0  0
  146.1069  132.5632  150.7563 C   0  0  0  0  0  0  0  0  0  0  0  0
  146.4161  133.8564  151.2694 O   0  0  0  0  0  0  0  0  0  0  0  0
  144.1616  134.0270  153.7553 H   0  0  0  0  0  0  0  0  0  0  0  0
  144.9926  135.2544  154.7009 H   0  0  0  0  0  0  0  0  0  0  0  0
  145.9164  133.9831  153.9037 H   0  0  0  0  0  0  0  0  0  0  0  0
  144.2859  136.1511  152.4945 H   0  0  0  0  0  0  0  0  0  0  0  0
  147.2383  135.9747  152.3551 H   0  0  0  0  0  0  0  0  0  0  0  0
  148.3721  137.4643  152.8625 H   0  0  0  0  0  0  0  0  0  0  0  0
  146.3916  140.6051  153.2817 H   0  0  0  0  0  0  0  0  0  0  0  0
  147.4491  142.6515  154.1929 H   0  0  0  0  0  0  0  0  0  0  0  0
  149.7908  142.5206  155.0771 H   0  0  0  0  0  0  0  0  0  0  0  0
  150.0592  138.4918  154.2230 H   0  0  0  0  0  0  0  0  0  0  0  0
  145.3419  135.3488  150.3864 H   0  0  0  0  0  0  0  0  0  0  0  0
  143.7704  133.2894  151.9832 H   0  0  0  0  0  0  0  0  0  0  0  0
  143.2216  134.2136  150.5797 H   0  0  0  0  0  0  0  0  0  0  0  0
  144.1643  131.7312  150.1652 H   0  0  0  0  0  0  0  0  0  0  0  0
  144.7677  133.0301  149.1265 H   0  0  0  0  0  0  0  0  0  0  0  0
  146.1092  131.8535  151.5845 H   0  0  0  0  0  0  0  0  0  0  0  0
  146.8481  132.2349  150.0275 H   0  0  0  0  0  0  0  0  0  0  0  0
  1  2  1  0  0  0  0
  1 18  1  0  0  0  0
  1 19  1  0  0  0  0
  1 20  1  0  0  0  0
  2  3  1  0  0  0  0
  2 13  1  0  0  0  0
  2 21  1  0  0  0  0
  3  4  1  0  0  0  0
  3 22  1  0  0  0  0
  4  5  2  0  0  0  0
  4  6  1  0  0  0  0
  6  7  1  0  0  0  0
  6 23  1  0  0  0  0
  7 12  1  0  0  0  0
  7  8  2  0  0  0  0
  8  9  1  0  0  0  0
  8 24  1  0  0  0  0
  9 10  2  0  0  0  0
  9 25  1  0  0  0  0
 10 11  1  0  0  0  0
 10 26  1  0  0  0  0
 11 12  2  0  0  0  0
 12 27  1  0  0  0  0
 13 17  1  0  0  0  0
 13 14  1  0  0  0  0
 13 28  1  0  0  0  0
 14 15  1  0  0  0  0
 14 29  1  0  0  0  0
 14 30  1  0  0  0  0
 15 16  1  0  0  0  0
 15 31  1  0  0  0  0
 15 32  1  0  0  0  0
 16 17  1  0  0  0  0
 16 33  1  0  0  0  0
 16 34  1  0  0  0  0
M  END
> <s_m_source_file>
AV-unprocessed.smi

> <i_m_source_file_index>
3217

> <i_lp_mmshare_version>
43012

> <i_f3d_flags>
0

> <s_epik_input>
TzFbQ0gyXVtDSDJdW0NIMl1bQ0BIXTFbQ0BIXShbQ0gzXSlbTkhdQyg9TylbTkhdYzJbY0hdW2NIXVtjSF1uW2NIXTI=

> <s_epik_cmdline>
J2VwaWtfcHl0aG9uJywgJy1waCcsICc3LjAnLCAnLXRuJywgJzgnLCAnLW1hJywgJzIwMCcsICctbWV0YWxfYmluZGluZycsICctaW1hZScsICc8aW5maWxlLm1hZT4nLCAnLW9tYWUnLCAnPG91dGZpbGUubWFlPic=

> <r_epik_Ionization_Penalty>
0.00475451

> <r_epik_Ionization_Penalty_Charging>
0

> <r_epik_Ionization_Penalty_Neutral>
0.00475451

> <r_epik_State_Penalty>
0.00341814

> <r_epik_Charging_Adjusted_Penalty>
0.00341814

> <i_epik_Tot_Q>
0

> <i_epik_Tot_abs_Q>
0

> <r_epik_Metal_State_Penalty>
-0

> <b_epik_Metal_Only>
0

> <s_lp_Force_Field>
OPLS_2005

> <r_lp_Energy>
20.7148

> <b_lp_Chiralities_Consistent>
1

> <s_lp_Variant>
AV-unprocessed.smi:3217-2

> <Gold.Version>
5.8.1

> <Gold.Id.Protein>
6NUR|6NUR_protein|mol2

> <Gold.PLP.Fitness>
38.3562

> <Gold.PLP.PLP>
-27.7923

> <Gold.PLP.part.hbond>
-3.0000

> <Gold.PLP.part.metal>
0.0000

> <Gold.PLP.part.buried>
-1.7718

> <Gold.PLP.part.nonpolar>
-23.3748

> <Gold.PLP.part.repulsive>
0.7394

> <Gold.PLP.ligand.clash>
0.0000

> <Gold.PLP.ligand.torsion>
0.5790

> <Gold.PLP.Chemscore.Hbond>
2.9040

> <Gold.PLP.Chemscore.CHOScore>
1.0000

> <Gold.PLP.Chemscore.Metal>
0.0000

> <Gold.Chemscore.Hbonds>
donor molecule, donor type, donor heavy atom, donor atom, acceptor molecule, acceptor atom, score
      L1  H     3    22       P1  7948  0.98
      L1  H     6    23       P1  7948  1.00
      P1  H  7989  7998       L1    11  0.90
      L1  C    10    26       P1  8028  1.00

> <Gold.PLP.Chemscore.Internal.Correction>
0.0099

> <Gold.Rescore>
     Score         DG    S(hbond)    S(metal)    S(lipo)     H(rot)  DE(clash)    DE(int)     intcor
     16.63     -18.36       2.40        0.00      68.48       1.22       0.29       1.43       ----

> <Gold.Chemscore.Fitness>
16.6342

> <Gold.Chemscore.DG>
-18.3595

> <Gold.Chemscore.ZeroCoef>
-5.4800

> <Gold.Chemscore.Hbond>
2.3952

> <Gold.Chemscore.Metal>
0.0000

> <Gold.Chemscore.Lipo>
68.4786

> <Gold.Chemscore.Internal_Hbond>
0.0000

> <Gold.Chemscore.DEClash>
0.2922

> <Gold.Chemscore.DEInternal>
1.4331

> <Gold.Chemscore.Rot>
1.2236

> <Gold.Chemscore.Internal.Correction>
   9.000000E+99

> <Gold.Chemscore.Hbonds>
donor molecule, donor type, donor heavy atom, donor atom, acceptor molecule, acceptor atom, score
      L1  H     3    22       P1  7948  0.93
      L1  H     6    23       P1  7948  0.97
      P1  H  7989  7998       L1    11  0.23

> <Gold.Chemscore.Hbond.Weighted>
-8.0000

> <Gold.Chemscore.Metal.Weighted>
-0.0000

> <Gold.Chemscore.Lipo.Weighted>
-8.0120

> <Gold.Chemscore.Internal_Hbond.Weighted>
0.0000

> <Gold.Chemscore.DEClash.Weighted>
0.2922

> <Gold.Chemscore.DEInternal.Weighted>
1.4331

> <Gold.Chemscore.Rot.Weighted>
3.1325

> <Gold.Chemscore.Internal.Correction.Weighted>
   9.000000E+99

> <Gold.Protein.RotatedTorsions>
[ 6907 6896 6895 6894 ] final  -26.99 input  -60.11 | X-H torsion
[ 7974 7965 7964 7962 ] final  -97.71 input  175.53 | X-H torsion
[ 8008 7997 7996 7995 ] final  -73.02 input   59.86 | X-H torsion
[ 10167 10162 10161 10158 ] final  177.09 input  -65.29 | X-H torsion
[ 10718 10713 10712 10709 ] final   95.97 input   66.30 | X-H torsion
[ 10763 10752 10751 10750 ] final   86.01 input  -60.55 | X-H torsion
[ 11005 11000 10999 10996 ] final -162.34 input  -57.11 | X-H torsion

> <Gold.Protein.ActiveResidues>
 VAL166  LYS551  ARG553  GLY616  TRP617  ASP618  TYR619  PRO620  LYS621  CYS622 
 ASP623  PHE694  ASN695  SER759  ASP760  ASP761  ALA762  ILE779  LEU786  VAL792 
 PHE793  MET794  SER795  GLU796  ALA797  LYS798  CYS799  TRP800  GLU811  SER814 

> <Gold.Protein.RotatedAtoms>
  151.1532  135.0237  159.8677 H   0  0  0  0  0  0  0  0  0  0  0  0  # atno 6907 bound_to 6896
  152.5452  134.1364  159.8471 H   0  0  0  0  0  0  0  0  0  0  0  0  # atno 6908 bound_to 6896
  151.1452  133.4898  159.2629 H   0  0  0  0  0  0  0  0  0  0  0  0  # atno 6909 bound_to 6896
  145.3301  140.9440  143.2666 H   0  0  0  0  0  0  0  0  0  0  0  0  # atno 7974 bound_to 7965
  154.5213  140.0786  156.8178 H   0  0  0  0  0  0  0  0  0  0  0  0  # atno 8008 bound_to 7997
  155.3569  140.3416  155.4222 H   0  0  0  0  0  0  0  0  0  0  0  0  # atno 8009 bound_to 7997
  156.1684  140.1611  156.8477 H   0  0  0  0  0  0  0  0  0  0  0  0  # atno 8010 bound_to 7997
  139.5240  144.2838  152.0523 H   0  0  0  0  0  0  0  0  0  0  0  0  # atno 10167 bound_to 10162
  157.6932  131.0563  150.4420 H   0  0  0  0  0  0  0  0  0  0  0  0  # atno 10718 bound_to 10713
  153.1529  135.4596  154.9662 H   0  0  0  0  0  0  0  0  0  0  0  0  # atno 10763 bound_to 10752
  154.7839  135.3197  154.7933 H   0  0  0  0  0  0  0  0  0  0  0  0  # atno 10764 bound_to 10752
  153.8435  135.6928  153.4854 H   0  0  0  0  0  0  0  0  0  0  0  0  # atno 10765 bound_to 10752
  140.6103  134.4856  157.5215 H   0  0  0  0  0  0  0  0  0  0  0  0  # atno 11005 bound_to 11000
  144.8871  139.4825  143.6695 LP  0  0  0  0  0  0  0  0  0  0  0  0  # atno 17320 bound_to 7965
  146.3049  139.7546  142.9064 LP  0  0  0  0  0  0  0  0  0  0  0  0  # atno 17321 bound_to 7965
  140.2292  144.4386  150.6307 LP  0  0  0  0  0  0  0  0  0  0  0  0  # atno 17342 bound_to 10162
  140.6366  143.2196  151.6381 LP  0  0  0  0  0  0  0  0  0  0  0  0  # atno 17343 bound_to 10162
  156.4778  130.4067  149.6479 LP  0  0  0  0  0  0  0  0  0  0  0  0  # atno 17370 bound_to 10713
  156.3536  130.7445  151.2407 LP  0  0  0  0  0  0  0  0  0  0  0  0  # atno 17371 bound_to 10713
  139.9195  134.8178  156.1258 LP  0  0  0  0  0  0  0  0  0  0  0  0  # atno 17394 bound_to 11000
  141.0812  133.6753  156.2340 LP  0  0  0  0  0  0  0  0  0  0  0  0  # atno 17395 bound_to 11000

$$$$
