AV-unprocessed.smi:249|AV-procd|sdf|1901|dock8
  -GOLD-   2262020573D 1   1.00000     0.00000
 Structure written by MMmdl.
 64 67  0  0  0  0  0  0  0  0  2 V2000
  145.3213  134.9978  151.4076 C   0  0  0  0  0  0  0  0  0  0  0  0
  146.0985  133.7802  151.9294 C   0  0  0  0  0  0  0  0  0  0  0  0
  147.2859  134.1445  152.7491 N   0  3  1  0  0  0  0  0  0  0  0  0
  146.8998  134.7654  154.0451 C   0  0  0  0  0  0  0  0  0  0  0  0
  148.1187  135.3490  154.7764 C   0  0  0  0  0  0  0  0  0  0  0  0
  149.2016  134.2718  154.9783 C   0  0  2  0  0  0  0  0  0  0  0  0
  150.3603  134.7319  155.7565 N   0  0  0  0  0  0  0  0  0  0  0  0
  150.6563  134.0434  157.0086 C   0  0  0  0  0  0  0  0  0  0  0  0
  150.8205  136.0104  155.7056 C   0  0  0  0  0  0  0  0  0  0  0  0
  151.1712  136.5678  154.5169 N   0  0  0  0  0  0  0  0  0  0  0  0
  151.6015  137.8316  154.4610 C   0  0  0  0  0  0  0  0  0  0  0  0
  151.7528  138.7056  155.4569 N   0  0  0  0  0  0  0  0  0  0  0  0
  151.4005  138.1562  156.6538 C   0  0  0  0  0  0  0  0  0  0  0  0
  150.9276  136.8300  156.8656 C   0  0  0  0  0  0  0  0  0  0  0  0
  150.6773  136.6287  158.2181 N   0  0  0  0  0  0  0  0  0  0  0  0
  150.9785  137.7708  158.7728 C   0  0  0  0  0  0  0  0  0  0  0  0
  151.4143  138.7462  157.9057 N   0  0  0  0  0  0  0  0  0  0  0  0
  151.8103  140.0989  158.2572 C   0  0  0  0  0  0  0  0  0  0  0  0
  150.6805  141.1371  158.0466 C   0  0  2  0  0  0  0  0  0  0  0  0
  150.2028  141.2078  156.5755 C   0  0  0  0  0  0  0  0  0  0  0  0
  149.0507  142.0151  156.4444 O   0  0  0  0  0  0  0  0  0  0  0  0
  151.0709  142.5291  158.6049 C   0  0  2  0  0  0  0  0  0  0  0  0
  151.5851  143.5114  157.5673 C   0  0  0  0  0  0  0  0  0  0  0  0
  152.2995  144.5454  158.4299 C   0  0  0  0  0  0  0  0  0  0  0  0
  152.8208  143.8238  159.5397 O   0  0  0  0  0  0  0  0  0  0  0  0
  152.2491  142.5200  159.5850 C   0  0  0  0  0  0  0  0  0  0  0  0
  149.5650  133.6245  153.6242 C   0  0  0  0  0  0  0  0  0  0  0  0
  148.3207  133.0729  152.8975 C   0  0  1  0  0  0  0  0  0  0  0  0
  147.7868  131.7783  153.5484 C   0  0  0  0  0  0  0  0  0  0  0  0
  144.3909  134.6821  150.9351 H   0  0  0  0  0  0  0  0  0  0  0  0
  145.8862  135.5527  150.6588 H   0  0  0  0  0  0  0  0  0  0  0  0
  145.0643  135.6813  152.2172 H   0  0  0  0  0  0  0  0  0  0  0  0
  145.4179  133.1980  152.5522 H   0  0  0  0  0  0  0  0  0  0  0  0
  146.3835  133.1250  151.1061 H   0  0  0  0  0  0  0  0  0  0  0  0
  146.1834  135.5682  153.8666 H   0  0  0  0  0  0  0  0  0  0  0  0
  146.3921  134.0341  154.6746 H   0  0  0  0  0  0  0  0  0  0  0  0
  148.5055  136.1885  154.2001 H   0  0  0  0  0  0  0  0  0  0  0  0
  147.8038  135.7558  155.7377 H   0  0  0  0  0  0  0  0  0  0  0  0
  148.7556  133.4854  155.5879 H   0  0  0  0  0  0  0  0  0  0  0  0
  151.6321  133.5614  156.9526 H   0  0  0  0  0  0  0  0  0  0  0  0
  149.9179  133.2698  157.2196 H   0  0  0  0  0  0  0  0  0  0  0  0
  150.6613  134.7346  157.8526 H   0  0  0  0  0  0  0  0  0  0  0  0
  151.8592  138.1958  153.4774 H   0  0  0  0  0  0  0  0  0  0  0  0
  150.8873  137.9365  159.8366 H   0  0  0  0  0  0  0  0  0  0  0  0
  152.1291  140.0841  159.2994 H   0  0  0  0  0  0  0  0  0  0  0  0
  152.6891  140.3716  157.6717 H   0  0  0  0  0  0  0  0  0  0  0  0
  149.8244  140.7905  158.6273 H   0  0  0  0  0  0  0  0  0  0  0  0
  150.9842  141.6050  155.9277 H   0  0  0  0  0  0  0  0  0  0  0  0
  149.9758  140.2130  156.1925 H   0  0  0  0  0  0  0  0  0  0  0  0
  149.3212  142.8914  156.2164 H   0  0  0  0  0  0  0  0  0  0  0  0
  150.2098  142.9788  159.1023 H   0  0  0  0  0  0  0  0  0  0  0  0
  152.2978  143.0249  156.8996 H   0  0  0  0  0  0  0  0  0  0  0  0
  150.7939  143.9529  156.9610 H   0  0  0  0  0  0  0  0  0  0  0  0
  153.0867  145.0693  157.8876 H   0  0  0  0  0  0  0  0  0  0  0  0
  151.5903  145.2870  158.7997 H   0  0  0  0  0  0  0  0  0  0  0  0
  151.9449  142.2619  160.5997 H   0  0  0  0  0  0  0  0  0  0  0  0
  153.0101  141.8046  159.2694 H   0  0  0  0  0  0  0  0  0  0  0  0
  150.0438  134.3484  152.9660 H   0  0  0  0  0  0  0  0  0  0  0  0
  150.2942  132.8274  153.7747 H   0  0  0  0  0  0  0  0  0  0  0  0
  148.6618  132.8033  151.8984 H   0  0  0  0  0  0  0  0  0  0  0  0
  148.5859  131.0441  153.6545 H   0  0  0  0  0  0  0  0  0  0  0  0
  147.0123  131.3102  152.9416 H   0  0  0  0  0  0  0  0  0  0  0  0
  147.3731  131.9499  154.5415 H   0  0  0  0  0  0  0  0  0  0  0  0
  147.7434  134.8834  152.2341 H   0  0  0  0  0  0  0  0  0  0  0  0
  1  2  1  0  0  0  0
  1 30  1  0  0  0  0
  1 31  1  0  0  0  0
  1 32  1  0  0  0  0
  2  3  1  0  0  0  0
  2 33  1  0  0  0  0
  2 34  1  0  0  0  0
  3 28  1  0  0  0  0
  3  4  1  0  0  0  0
  3 64  1  0  0  0  0
  4  5  1  0  0  0  0
  4 35  1  0  0  0  0
  4 36  1  0  0  0  0
  5  6  1  0  0  0  0
  5 37  1  0  0  0  0
  5 38  1  0  0  0  0
  6  7  1  0  0  0  0
  6 27  1  0  0  0  0
  6 39  1  0  0  0  0
  7  8  1  0  0  0  0
  7  9  1  0  0  0  0
  8 40  1  0  0  0  0
  8 41  1  0  0  0  0
  8 42  1  0  0  0  0
  9 14  1  0  0  0  0
  9 10  2  0  0  0  0
 10 11  1  0  0  0  0
 11 12  2  0  0  0  0
 11 43  1  0  0  0  0
 12 13  1  0  0  0  0
 13 17  1  0  0  0  0
 13 14  2  0  0  0  0
 14 15  1  0  0  0  0
 15 16  2  0  0  0  0
 16 17  1  0  0  0  0
 16 44  1  0  0  0  0
 17 18  1  0  0  0  0
 18 19  1  0  0  0  0
 18 45  1  0  0  0  0
 18 46  1  0  0  0  0
 19 20  1  0  0  0  0
 19 22  1  0  0  0  0
 19 47  1  0  0  0  0
 20 21  1  0  0  0  0
 20 48  1  0  0  0  0
 20 49  1  0  0  0  0
 21 50  1  0  0  0  0
 22 26  1  0  0  0  0
 22 23  1  0  0  0  0
 22 51  1  0  0  0  0
 23 24  1  0  0  0  0
 23 52  1  0  0  0  0
 23 53  1  0  0  0  0
 24 25  1  0  0  0  0
 24 54  1  0  0  0  0
 24 55  1  0  0  0  0
 25 26  1  0  0  0  0
 26 56  1  0  0  0  0
 26 57  1  0  0  0  0
 27 28  1  0  0  0  0
 27 58  1  0  0  0  0
 27 59  1  0  0  0  0
 28 29  1  0  0  0  0
 28 60  1  0  0  0  0
 29 61  1  0  0  0  0
 29 62  1  0  0  0  0
 29 63  1  0  0  0  0
M  CHG  1   3   1
M  END
> <s_m_source_file>
AV-unprocessed.smi

> <i_m_source_file_index>
249

> <i_lp_mmshare_version>
43012

> <i_f3d_flags>
0

> <s_epik_input>
W0NIM11bQ0gyXU4xW0NIMl1bQ0gyXVtDQEhdKFtDSDJdW0NASF0xW0NIM10pTihbQ0gzXSljKG5bY0hdbjIpYyhjMjMpbltjSF1uM1tDSDJdW0NASF0oW0NIMl1bT0hdKVtDQEBIXTRbQ0gyXVtDSDJdT1tDSDJdNA==

> <s_epik_cmdline>
J2VwaWtfcHl0aG9uJywgJy1waCcsICc3LjAnLCAnLXRuJywgJzgnLCAnLW1hJywgJzIwMCcsICctbWV0YWxfYmluZGluZycsICctaW1hZScsICc8aW5maWxlLm1hZT4nLCAnLW9tYWUnLCAnPG91dGZpbGUubWFlPic=

> <r_lp_tautomer_probability>
1

> <r_epik_Ionization_Penalty>
0.00294688

> <r_epik_Ionization_Penalty_Charging>
0.00169971

> <r_epik_Ionization_Penalty_Neutral>
0.00124717

> <r_epik_State_Penalty>
-0

> <r_epik_Charging_Adjusted_Penalty>
0.00169971

> <i_epik_Tot_Q>
1

> <i_epik_Tot_abs_Q>
1

> <r_epik_Metal_State_Penalty>
-0

> <b_epik_Metal_Only>
0

> <s_lp_Force_Field>
OPLS_2005

> <r_lp_Energy>
54.0004

> <b_lp_Chiralities_Consistent>
1

> <s_lp_Variant>
AV-unprocessed.smi:249-4

> <Gold.Version>
5.8.1

> <Gold.Id.Protein>
6NUR|6NUR_protein|mol2

> <Gold.PLP.Fitness>
55.8325

> <Gold.PLP.PLP>
-47.0285

> <Gold.PLP.part.hbond>
-3.7532

> <Gold.PLP.part.metal>
0.0000

> <Gold.PLP.part.buried>
-5.7373

> <Gold.PLP.part.nonpolar>
-38.9301

> <Gold.PLP.part.repulsive>
0.1834

> <Gold.PLP.ligand.clash>
0.0000

> <Gold.PLP.ligand.torsion>
2.5672

> <Gold.PLP.Chemscore.Hbond>
4.2693

> <Gold.PLP.Chemscore.CHOScore>
0.0000

> <Gold.PLP.Chemscore.Metal>
0.0000

> <Gold.Chemscore.Hbonds>
donor molecule, donor type, donor heavy atom, donor atom, acceptor molecule, acceptor atom, score
      L1  H     3    64       P1  7948  2.00
      L1  H    21    50       P1  8028  1.00
      P1  H  6896  6907       L1    15  0.34
      P1  H 10752 10763       L1    10  0.86

> <Gold.PLP.Chemscore.Internal.Correction>
1.1306

> <Gold.Rescore>
     Score         DG    S(hbond)    S(metal)    S(lipo)     H(rot)  DE(clash)    DE(int)     intcor
     13.87     -18.01       2.17        0.00     103.06       2.65       0.24       3.90       ----

> <Gold.Chemscore.Fitness>
13.8734

> <Gold.Chemscore.DG>
-18.0121

> <Gold.Chemscore.ZeroCoef>
-5.4800

> <Gold.Chemscore.Hbond>
2.1741

> <Gold.Chemscore.Metal>
0.0000

> <Gold.Chemscore.Lipo>
103.0637

> <Gold.Chemscore.Internal_Hbond>
0.0000

> <Gold.Chemscore.DEClash>
0.2420

> <Gold.Chemscore.DEInternal>
3.8967

> <Gold.Chemscore.Rot>
2.6515

> <Gold.Chemscore.Internal.Correction>
   9.000000E+99

> <Gold.Chemscore.Hbonds>
donor molecule, donor type, donor heavy atom, donor atom, acceptor molecule, acceptor atom, score
      L1  H     3    64       P1  7948  0.82
      L1  H    21    50       P1  8028  0.93
      P1  H  6896  6907       L1    15  0.22
      P1  H 10752 10763       L1    10  0.04

> <Gold.Chemscore.Hbond.Weighted>
-7.2616

> <Gold.Chemscore.Metal.Weighted>
-0.0000

> <Gold.Chemscore.Lipo.Weighted>
-12.0585

> <Gold.Chemscore.Internal_Hbond.Weighted>
0.0000

> <Gold.Chemscore.DEClash.Weighted>
0.2420

> <Gold.Chemscore.DEInternal.Weighted>
3.8967

> <Gold.Chemscore.Rot.Weighted>
6.7880

> <Gold.Chemscore.Internal.Correction.Weighted>
   9.000000E+99

> <Gold.Protein.RotatedTorsions>
[ 6907 6896 6895 6894 ] final  -36.16 input  -60.11 | X-H torsion
[ 7974 7965 7964 7962 ] final  -46.92 input  175.53 | X-H torsion
[ 8008 7997 7996 7995 ] final  -64.01 input   59.86 | X-H torsion
[ 10167 10162 10161 10158 ] final  -40.12 input  -65.29 | X-H torsion
[ 10718 10713 10712 10709 ] final  -70.86 input   66.30 | X-H torsion
[ 10763 10752 10751 10750 ] final   39.70 input  -60.55 | X-H torsion
[ 11005 11000 10999 10996 ] final   87.33 input  -57.11 | X-H torsion

> <Gold.Protein.ActiveResidues>
 VAL166  LYS551  ARG553  GLY616  TRP617  ASP618  TYR619  PRO620  LYS621  CYS622 
 ASP623  PHE694  ASN695  SER759  ASP760  ASP761  ALA762  ILE779  LEU786  VAL792 
 PHE793  MET794  SER795  GLU796  ALA797  LYS798  CYS799  TRP800  GLU811  SER814 

> <Gold.Protein.RotatedAtoms>
  151.0306  134.9536  159.8108 H   0  0  0  0  0  0  0  0  0  0  0  0  # atno 6907 bound_to 6896
  152.5345  134.2785  159.9008 H   0  0  0  0  0  0  0  0  0  0  0  0  # atno 6908 bound_to 6896
  151.2794  133.4174  159.2660 H   0  0  0  0  0  0  0  0  0  0  0  0  # atno 6909 bound_to 6896
  145.9670  140.7422  142.9429 H   0  0  0  0  0  0  0  0  0  0  0  0  # atno 7974 bound_to 7965
  154.4587  140.0962  156.6832 H   0  0  0  0  0  0  0  0  0  0  0  0  # atno 8008 bound_to 7997
  155.5059  140.3475  155.4361 H   0  0  0  0  0  0  0  0  0  0  0  0  # atno 8009 bound_to 7997
  156.0828  140.1377  156.9679 H   0  0  0  0  0  0  0  0  0  0  0  0  # atno 8010 bound_to 7997
  140.7044  143.3172  151.2880 H   0  0  0  0  0  0  0  0  0  0  0  0  # atno 10167 bound_to 10162
  156.0388  130.4340  150.2359 H   0  0  0  0  0  0  0  0  0  0  0  0  # atno 10718 bound_to 10713
  152.9959  135.6213  154.2507 H   0  0  0  0  0  0  0  0  0  0  0  0  # atno 10763 bound_to 10752
  154.2246  135.2794  155.2914 H   0  0  0  0  0  0  0  0  0  0  0  0  # atno 10764 bound_to 10752
  154.5500  135.5736  153.6972 H   0  0  0  0  0  0  0  0  0  0  0  0  # atno 10765 bound_to 10752
  139.8922  134.8415  156.2845 H   0  0  0  0  0  0  0  0  0  0  0  0  # atno 11005 bound_to 11000
  144.6828  140.2685  143.7309 LP  0  0  0  0  0  0  0  0  0  0  0  0  # atno 17320 bound_to 7965
  145.7960  139.1945  143.2075 LP  0  0  0  0  0  0  0  0  0  0  0  0  # atno 17321 bound_to 7965
  139.6615  144.0181  152.2695 LP  0  0  0  0  0  0  0  0  0  0  0  0  # atno 17342 bound_to 10162
  139.9750  144.6468  150.7954 LP  0  0  0  0  0  0  0  0  0  0  0  0  # atno 17343 bound_to 10162
  157.0456  131.0048  151.3270 LP  0  0  0  0  0  0  0  0  0  0  0  0  # atno 17370 bound_to 10713
  157.5178  130.7979  149.7775 LP  0  0  0  0  0  0  0  0  0  0  0  0  # atno 17371 bound_to 10713
  141.0016  133.7148  156.0970 LP  0  0  0  0  0  0  0  0  0  0  0  0  # atno 17394 bound_to 11000
  140.7489  134.4067  157.5544 LP  0  0  0  0  0  0  0  0  0  0  0  0  # atno 17395 bound_to 11000

$$$$
