AV-unprocessed.smi:2001|AV-procd|sdf|8107|dock3
  -GOLD-   2272010333D 1   1.00000     0.00000
 Structure written by MMmdl.
 51 52  0  0  0  0  0  0  0  0  2 V2000
  153.9489  140.4970  160.1206 C   0  0  0  0  0  0  0  0  0  0  0  0
  154.0492  139.8069  158.8876 O   0  0  0  0  0  0  0  0  0  0  0  0
  152.8346  139.1776  158.5141 C   0  0  0  0  0  0  0  0  0  0  0  0
  153.1279  137.8068  157.8821 C   0  0  0  0  0  0  0  0  0  0  0  0
  152.3830  137.6126  156.6329 N   0  0  0  0  0  0  0  0  0  0  0  0
  151.5251  136.5249  156.6551 N   0  0  0  0  0  0  0  0  0  0  0  0
  150.7998  136.2470  155.6204 C   0  0  0  0  0  0  0  0  0  0  0  0
  149.8692  135.0839  155.6038 C   0  0  0  0  0  0  0  0  0  0  0  0
  149.4406  134.5762  156.6414 O   0  0  0  0  0  0  0  0  0  0  0  0
  149.5291  134.6344  154.3836 N   0  0  0  0  0  0  0  0  0  0  0  0
  148.6162  133.5270  154.1387 C   0  0  0  0  0  0  0  0  0  0  0  0
  147.1636  134.0280  154.1004 C   0  0  0  0  0  0  0  0  0  0  0  0
  146.6865  134.2846  152.7186 N   0  3  1  0  0  0  0  0  0  0  0  0
  146.4751  133.0327  151.9561 C   0  0  0  0  0  0  0  0  0  0  0  0
  146.0904  133.3464  150.4996 C   0  0  1  0  0  0  0  0  0  0  0  0
  145.7807  132.0739  149.7035 C   0  0  0  0  0  0  0  0  0  0  0  0
  144.9270  134.1698  150.4848 O   0  0  0  0  0  0  0  0  0  0  0  0
  145.0540  135.4012  151.1959 C   0  0  2  0  0  0  0  0  0  0  0  0
  145.9674  136.4041  150.4687 C   0  0  0  0  0  0  0  0  0  0  0  0
  145.4721  135.1352  152.6558 C   0  0  0  0  0  0  0  0  0  0  0  0
  150.8688  137.0651  154.4216 C   0  0  0  0  0  0  0  0  0  0  0  0
  151.7091  138.1229  154.4148 C   0  0  0  0  0  0  0  0  0  0  0  0
  152.5399  138.4608  155.5716 C   0  0  0  0  0  0  0  0  0  0  0  0
  153.3088  139.4214  155.5880 O   0  0  0  0  0  0  0  0  0  0  0  0
  154.9063  140.9603  160.3589 H   0  0  0  0  0  0  0  0  0  0  0  0
  153.6920  139.8168  160.9338 H   0  0  0  0  0  0  0  0  0  0  0  0
  153.1961  141.2848  160.0715 H   0  0  0  0  0  0  0  0  0  0  0  0
  152.2112  139.0423  159.3992 H   0  0  0  0  0  0  0  0  0  0  0  0
  152.2761  139.8061  157.8182 H   0  0  0  0  0  0  0  0  0  0  0  0
  154.2021  137.6809  157.7356 H   0  0  0  0  0  0  0  0  0  0  0  0
  152.8436  137.0237  158.5871 H   0  0  0  0  0  0  0  0  0  0  0  0
  149.9242  135.0988  153.5782 H   0  0  0  0  0  0  0  0  0  0  0  0
  148.8930  133.0530  153.1968 H   0  0  0  0  0  0  0  0  0  0  0  0
  148.7341  132.7797  154.9251 H   0  0  0  0  0  0  0  0  0  0  0  0
  146.5311  133.2648  154.5567 H   0  0  0  0  0  0  0  0  0  0  0  0
  147.0474  134.9287  154.7053 H   0  0  0  0  0  0  0  0  0  0  0  0
  147.3860  132.4329  151.9700 H   0  0  0  0  0  0  0  0  0  0  0  0
  145.6946  132.4406  152.4372 H   0  0  0  0  0  0  0  0  0  0  0  0
  146.9141  133.8619  150.0051 H   0  0  0  0  0  0  0  0  0  0  0  0
  146.6436  131.4079  149.6761 H   0  0  0  0  0  0  0  0  0  0  0  0
  145.5141  132.3134  148.6736 H   0  0  0  0  0  0  0  0  0  0  0  0
  144.9479  131.5246  150.1438 H   0  0  0  0  0  0  0  0  0  0  0  0
  144.0566  135.8418  151.2127 H   0  0  0  0  0  0  0  0  0  0  0  0
  145.9354  137.3789  150.9563 H   0  0  0  0  0  0  0  0  0  0  0  0
  145.6465  136.5434  149.4362 H   0  0  0  0  0  0  0  0  0  0  0  0
  147.0088  136.0838  150.4555 H   0  0  0  0  0  0  0  0  0  0  0  0
  144.6590  134.6331  153.1827 H   0  0  0  0  0  0  0  0  0  0  0  0
  145.6354  136.0846  153.1647 H   0  0  0  0  0  0  0  0  0  0  0  0
  150.2670  136.8399  153.5530 H   0  0  0  0  0  0  0  0  0  0  0  0
  151.7710  138.7397  153.5303 H   0  0  0  0  0  0  0  0  0  0  0  0
  147.4253  134.7846  152.2446 H   0  0  0  0  0  0  0  0  0  0  0  0
  1  2  1  0  0  0  0
  1 25  1  0  0  0  0
  1 26  1  0  0  0  0
  1 27  1  0  0  0  0
  2  3  1  0  0  0  0
  3  4  1  0  0  0  0
  3 28  1  0  0  0  0
  3 29  1  0  0  0  0
  4  5  1  0  0  0  0
  4 30  1  0  0  0  0
  4 31  1  0  0  0  0
  5 23  1  0  0  0  0
  5  6  1  0  0  0  0
  6  7  2  0  0  0  0
  7  8  1  0  0  0  0
  7 21  1  0  0  0  0
  8  9  2  0  0  0  0
  8 10  1  0  0  0  0
 10 11  1  0  0  0  0
 10 32  1  0  0  0  0
 11 12  1  0  0  0  0
 11 33  1  0  0  0  0
 11 34  1  0  0  0  0
 12 13  1  0  0  0  0
 12 35  1  0  0  0  0
 12 36  1  0  0  0  0
 13 20  1  0  0  0  0
 13 14  1  0  0  0  0
 13 51  1  0  0  0  0
 14 15  1  0  0  0  0
 14 37  1  0  0  0  0
 14 38  1  0  0  0  0
 15 16  1  0  0  0  0
 15 17  1  0  0  0  0
 15 39  1  0  0  0  0
 16 40  1  0  0  0  0
 16 41  1  0  0  0  0
 16 42  1  0  0  0  0
 17 18  1  0  0  0  0
 18 19  1  0  0  0  0
 18 20  1  0  0  0  0
 18 43  1  0  0  0  0
 19 44  1  0  0  0  0
 19 45  1  0  0  0  0
 19 46  1  0  0  0  0
 20 47  1  0  0  0  0
 20 48  1  0  0  0  0
 21 22  2  0  0  0  0
 21 49  1  0  0  0  0
 22 23  1  0  0  0  0
 22 50  1  0  0  0  0
 23 24  2  0  0  0  0
M  CHG  1  13   1
M  END
> <s_m_source_file>
AV-unprocessed.smi

> <i_m_source_file_index>
2001

> <i_lp_mmshare_version>
43012

> <i_f3d_flags>
0

> <s_epik_input>
W0NIM11PW0NIMl1bQ0gyXW4xbmMoW2NIXVtjSF1jMT1PKUMoPU8pW05IXVtDSDJdW0NIMl1OMltDSDJdW0NAQEhdKFtDSDNdKU9bQ0BASF0oW0NIM10pW0NIMl0y

> <s_epik_cmdline>
J2VwaWtfcHl0aG9uJywgJy1waCcsICc3LjAnLCAnLXRuJywgJzgnLCAnLW1hJywgJzIwMCcsICctbWV0YWxfYmluZGluZycsICctaW1hZScsICc8aW5maWxlLm1hZT4nLCAnLW9tYWUnLCAnPG91dGZpbGUubWFlPic=

> <r_lp_tautomer_probability>
1

> <r_epik_Ionization_Penalty>
0.724354

> <r_epik_Ionization_Penalty_Charging>
0.724348

> <r_epik_Ionization_Penalty_Neutral>
6.1656e-06

> <r_epik_State_Penalty>
0.749058

> <r_epik_Charging_Adjusted_Penalty>
1.47341

> <i_epik_Tot_Q>
1

> <i_epik_Tot_abs_Q>
1

> <r_epik_Metal_State_Penalty>
0.750779

> <b_epik_Metal_Only>
0

> <s_lp_Force_Field>
OPLS_2005

> <r_lp_Energy>
40.2428

> <b_lp_Chiralities_Consistent>
1

> <s_lp_Variant>
AV-unprocessed.smi:2001-6

> <Gold.Version>
5.8.1

> <Gold.Id.Protein>
6NUR|6NUR_protein|mol2

> <Gold.PLP.Fitness>
46.3451

> <Gold.PLP.PLP>
-37.2609

> <Gold.PLP.part.hbond>
-3.5132

> <Gold.PLP.part.metal>
0.0000

> <Gold.PLP.part.buried>
-1.6741

> <Gold.PLP.part.nonpolar>
-31.3961

> <Gold.PLP.part.repulsive>
0.2215

> <Gold.PLP.ligand.clash>
0.0000

> <Gold.PLP.ligand.torsion>
1.3473

> <Gold.PLP.Chemscore.Hbond>
3.8279

> <Gold.PLP.Chemscore.CHOScore>
0.0000

> <Gold.PLP.Chemscore.Metal>
0.0000

> <Gold.Chemscore.Hbonds>
donor molecule, donor type, donor heavy atom, donor atom, acceptor molecule, acceptor atom, score
      L1  H    10    32       P1  7948  0.09
      L1  H    13    51       P1  7948  1.66
      P1  H  7997  8008       L1     2  0.99
      P1  H  7997  8009       L1    24  0.78

> <Gold.PLP.Chemscore.Internal.Correction>
0.2952

> <Gold.Rescore>
     Score         DG    S(hbond)    S(metal)    S(lipo)     H(rot)  DE(clash)    DE(int)     intcor
     15.38     -18.30       2.30        0.00      89.24       2.07       0.40       2.52       ----

> <Gold.Chemscore.Fitness>
15.3845

> <Gold.Chemscore.DG>
-18.3028

> <Gold.Chemscore.ZeroCoef>
-5.4800

> <Gold.Chemscore.Hbond>
2.3012

> <Gold.Chemscore.Metal>
0.0000

> <Gold.Chemscore.Lipo>
89.2446

> <Gold.Chemscore.Internal_Hbond>
0.0000

> <Gold.Chemscore.DEClash>
0.3986

> <Gold.Chemscore.DEInternal>
2.5198

> <Gold.Chemscore.Rot>
2.0721

> <Gold.Chemscore.Internal.Correction>
   9.000000E+99

> <Gold.Chemscore.Hbonds>
donor molecule, donor type, donor heavy atom, donor atom, acceptor molecule, acceptor atom, score
      L1  H    13    51       P1  7948  0.73
      P1  H  7997  8008       L1     2  0.62
      P1  H  7997  8009       L1    24  0.73

> <Gold.Chemscore.Hbond.Weighted>
-7.6859

> <Gold.Chemscore.Metal.Weighted>
-0.0000

> <Gold.Chemscore.Lipo.Weighted>
-10.4416

> <Gold.Chemscore.Internal_Hbond.Weighted>
0.0000

> <Gold.Chemscore.DEClash.Weighted>
0.3986

> <Gold.Chemscore.DEInternal.Weighted>
2.5198

> <Gold.Chemscore.Rot.Weighted>
5.3047

> <Gold.Chemscore.Internal.Correction.Weighted>
   9.000000E+99

> <Gold.Protein.RotatedTorsions>
[ 6907 6896 6895 6894 ] final  -37.03 input  -60.11 | X-H torsion
[ 7974 7965 7964 7962 ] final -154.04 input  175.53 | X-H torsion
[ 8008 7997 7996 7995 ] final -121.20 input   59.86 | X-H torsion
[ 10167 10162 10161 10158 ] final   83.74 input  -65.29 | X-H torsion
[ 10718 10713 10712 10709 ] final  -69.75 input   66.30 | X-H torsion
[ 10763 10752 10751 10750 ] final  -35.26 input  -60.55 | X-H torsion
[ 11005 11000 10999 10996 ] final   30.95 input  -57.11 | X-H torsion

> <Gold.Protein.ActiveResidues>
 VAL166  LYS551  ARG553  GLY616  TRP617  ASP618  TYR619  PRO620  LYS621  CYS622 
 ASP623  PHE694  ASN695  SER759  ASP760  ASP761  ALA762  ILE779  LEU786  VAL792 
 PHE793  MET794  SER795  GLU796  ALA797  LYS798  CYS799  TRP800  GLU811  SER814 

> <Gold.Protein.RotatedAtoms>
  151.0197  134.9460  159.8052 H   0  0  0  0  0  0  0  0  0  0  0  0  # atno 6907 bound_to 6896
  152.5322  134.2919  159.9056 H   0  0  0  0  0  0  0  0  0  0  0  0  # atno 6908 bound_to 6896
  151.2926  133.4116  159.2668 H   0  0  0  0  0  0  0  0  0  0  0  0  # atno 6909 bound_to 6896
  144.7709  140.4442  143.5908 H   0  0  0  0  0  0  0  0  0  0  0  0  # atno 7974 bound_to 7965
  155.1441  140.0402  157.2805 H   0  0  0  0  0  0  0  0  0  0  0  0  # atno 8008 bound_to 7997
  154.6451  140.2556  155.7251 H   0  0  0  0  0  0  0  0  0  0  0  0  # atno 8009 bound_to 7997
  156.2551  140.2847  156.0861 H   0  0  0  0  0  0  0  0  0  0  0  0  # atno 8010 bound_to 7997
  139.9152  144.6247  150.8496 H   0  0  0  0  0  0  0  0  0  0  0  0  # atno 10167 bound_to 10162
  156.0440  130.4318  150.2193 H   0  0  0  0  0  0  0  0  0  0  0  0  # atno 10718 bound_to 10713
  153.8603  135.6840  153.4783 H   0  0  0  0  0  0  0  0  0  0  0  0  # atno 10763 bound_to 10752
  153.1346  135.4683  154.9400 H   0  0  0  0  0  0  0  0  0  0  0  0  # atno 10764 bound_to 10752
  154.7762  135.3254  154.8037 H   0  0  0  0  0  0  0  0  0  0  0  0  # atno 10765 bound_to 10752
  140.2890  134.2886  155.7781 H   0  0  0  0  0  0  0  0  0  0  0  0  # atno 11005 bound_to 11000
  145.6326  139.1538  143.2960 LP  0  0  0  0  0  0  0  0  0  0  0  0  # atno 17320 bound_to 7965
  146.1855  140.6429  142.9169 LP  0  0  0  0  0  0  0  0  0  0  0  0  # atno 17321 bound_to 7965
  140.7676  143.3336  151.2356 LP  0  0  0  0  0  0  0  0  0  0  0  0  # atno 17342 bound_to 10162
  139.6908  143.9695  152.2858 LP  0  0  0  0  0  0  0  0  0  0  0  0  # atno 17343 bound_to 10162
  157.0285  131.0000  151.3319 LP  0  0  0  0  0  0  0  0  0  0  0  0  # atno 17370 bound_to 10713
  157.5294  130.8049  149.7899 LP  0  0  0  0  0  0  0  0  0  0  0  0  # atno 17371 bound_to 10713
  141.2149  133.7573  156.9596 LP  0  0  0  0  0  0  0  0  0  0  0  0  # atno 17394 bound_to 11000
  140.1213  134.9415  157.2207 LP  0  0  0  0  0  0  0  0  0  0  0  0  # atno 17395 bound_to 11000

$$$$
