AV-unprocessed.smi:798|AV-procd|sdf|3770|dock4
  -GOLD-   22720 1203D 1   1.00000     0.00000
 Structure written by MMmdl.
 34 36  0  0  0  0  0  0  0  0  1 V2000
  145.9553  137.9880  154.4304 O   0  0  0  0  0  0  0  0  0  0  0  0
  146.8005  137.4473  153.7171 C   0  0  0  0  0  0  0  0  0  0  0  0
  148.0141  137.9491  153.4297 N   0  0  0  0  0  0  0  0  0  0  0  0
  148.6041  139.1528  153.8971 C   0  0  0  0  0  0  0  0  0  0  0  0
  149.8590  139.2344  154.3663 N   0  0  0  0  0  0  0  0  0  0  0  0
  150.1862  140.5284  154.7513 N   0  0  0  0  0  0  0  0  0  0  0  0
  149.1669  141.3700  154.5571 C   0  0  0  0  0  0  0  0  0  0  0  0
  147.7079  140.6649  153.8831 S   0  0  0  0  0  0  0  0  0  0  0  0
  146.6189  136.2572  153.1267 N   0  0  0  0  0  0  0  0  0  0  0  0
  145.4095  135.4377  153.2186 C   0  0  1  0  0  0  0  0  0  0  0  0
  144.2637  136.0975  152.4218 C   0  0  2  0  0  0  0  0  0  0  0  0
  142.9269  135.4518  152.8297 C   0  0  0  0  0  0  0  0  0  0  0  0
  143.0181  134.0571  152.1818 C   0  0  0  0  0  0  0  0  0  0  0  0
  144.3972  134.0880  151.4930 C   0  0  1  0  0  0  0  0  0  0  0  0
  144.4656  135.5342  151.0200 C   0  0  0  0  0  0  0  0  0  0  0  0
  145.5105  134.0236  152.5680 C   0  0  1  0  0  0  0  0  0  0  0  0
  146.8916  133.6297  151.9963 C   0  0  0  0  0  0  0  0  0  0  0  0
  146.8046  132.4114  151.2880 O   0  0  0  0  0  0  0  0  0  0  0  0
  148.5919  137.3966  152.8136 H   0  0  0  0  0  0  0  0  0  0  0  0
  149.2753  142.4140  154.8113 H   0  0  0  0  0  0  0  0  0  0  0  0
  147.3693  135.8900  152.5599 H   0  0  0  0  0  0  0  0  0  0  0  0
  145.1235  135.3536  154.2689 H   0  0  0  0  0  0  0  0  0  0  0  0
  144.2494  137.1866  152.4837 H   0  0  0  0  0  0  0  0  0  0  0  0
  142.7993  135.4026  153.9117 H   0  0  0  0  0  0  0  0  0  0  0  0
  142.0844  136.0098  152.4189 H   0  0  0  0  0  0  0  0  0  0  0  0
  142.9342  133.2507  152.9113 H   0  0  0  0  0  0  0  0  0  0  0  0
  142.2216  133.9254  151.4483 H   0  0  0  0  0  0  0  0  0  0  0  0
  144.4944  133.3441  150.7019 H   0  0  0  0  0  0  0  0  0  0  0  0
  143.6654  135.8014  150.3272 H   0  0  0  0  0  0  0  0  0  0  0  0
  145.4246  135.8041  150.5752 H   0  0  0  0  0  0  0  0  0  0  0  0
  145.2477  133.2747  153.3174 H   0  0  0  0  0  0  0  0  0  0  0  0
  147.2874  134.4003  151.3346 H   0  0  0  0  0  0  0  0  0  0  0  0
  147.6122  133.4881  152.8018 H   0  0  0  0  0  0  0  0  0  0  0  0
  147.6761  132.1498  151.0324 H   0  0  0  0  0  0  0  0  0  0  0  0
  1  2  2  0  0  0  0
  2  3  1  0  0  0  0
  2  9  1  0  0  0  0
  3  4  1  0  0  0  0
  3 19  1  0  0  0  0
  4  8  1  0  0  0  0
  4  5  2  0  0  0  0
  5  6  1  0  0  0  0
  6  7  2  0  0  0  0
  7  8  1  0  0  0  0
  7 20  1  0  0  0  0
  9 10  1  0  0  0  0
  9 21  1  0  0  0  0
 10 16  1  0  0  0  0
 10 11  1  0  0  0  0
 10 22  1  0  0  0  0
 11 15  1  0  0  0  0
 11 12  1  0  0  0  0
 11 23  1  0  0  0  0
 12 13  1  0  0  0  0
 12 24  1  0  0  0  0
 12 25  1  0  0  0  0
 13 14  1  0  0  0  0
 13 26  1  0  0  0  0
 13 27  1  0  0  0  0
 14 15  1  0  0  0  0
 14 16  1  0  0  0  0
 14 28  1  0  0  0  0
 15 29  1  0  0  0  0
 15 30  1  0  0  0  0
 16 17  1  0  0  0  0
 16 31  1  0  0  0  0
 17 18  1  0  0  0  0
 17 32  1  0  0  0  0
 17 33  1  0  0  0  0
 18 34  1  0  0  0  0
M  END
> <s_m_source_file>
AV-unprocessed.smi

> <i_m_source_file_index>
798

> <i_lp_mmshare_version>
43012

> <i_f3d_flags>
0

> <s_epik_input>
W0NIMl0xW0NIMl1bQ0BASF0oW0NIMl0yKVtDQEBIXShbQ0gyXVtPSF0pW0NAQEhdKFtDQEhdMTIpW05IXUMoPU8pW05IXWMzbm5bY0hdczM=

> <s_epik_cmdline>
J2VwaWtfcHl0aG9uJywgJy1waCcsICc3LjAnLCAnLXRuJywgJzgnLCAnLW1hJywgJzIwMCcsICctbWV0YWxfYmluZGluZycsICctaW1hZScsICc8aW5maWxlLm1hZT4nLCAnLW9tYWUnLCAnPG91dGZpbGUubWFlPic=

> <r_lp_tautomer_probability>
1

> <r_epik_Ionization_Penalty>
0.000329046

> <r_epik_Ionization_Penalty_Charging>
0

> <r_epik_Ionization_Penalty_Neutral>
0.000329046

> <r_epik_State_Penalty>
-0

> <r_epik_Charging_Adjusted_Penalty>
0

> <i_epik_Tot_Q>
0

> <i_epik_Tot_abs_Q>
0

> <r_epik_Metal_State_Penalty>
0.173433

> <b_epik_Metal_Only>
0

> <s_lp_Force_Field>
OPLS_2005

> <r_lp_Energy>
49.2939

> <b_lp_Chiralities_Consistent>
1

> <s_lp_Variant>
AV-unprocessed.smi:798-2

> <Gold.Version>
5.8.1

> <Gold.Id.Protein>
6NUR|6NUR_protein|mol2

> <Gold.PLP.Fitness>
39.9792

> <Gold.PLP.PLP>
-26.3924

> <Gold.PLP.part.hbond>
-3.8968

> <Gold.PLP.part.metal>
0.0000

> <Gold.PLP.part.buried>
-3.2201

> <Gold.PLP.part.nonpolar>
-20.1927

> <Gold.PLP.part.repulsive>
0.3897

> <Gold.PLP.ligand.clash>
0.0000

> <Gold.PLP.ligand.torsion>
0.4974

> <Gold.PLP.Chemscore.Hbond>
3.8560

> <Gold.PLP.Chemscore.CHOScore>
1.0000

> <Gold.PLP.Chemscore.Metal>
0.0000

> <Gold.Chemscore.Hbonds>
donor molecule, donor type, donor heavy atom, donor atom, acceptor molecule, acceptor atom, score
      L1  H     3    19       P1  7948  1.00
      L1  H     9    21       P1  7948  0.93
      L1  H    18    34       P1 10747  1.00
      P1  H  7989  7998       L1     6  0.93
      L1  C     7    20       P1  8028  1.00

> <Gold.PLP.Chemscore.Internal.Correction>
0.0136

> <Gold.Rescore>
     Score         DG    S(hbond)    S(metal)    S(lipo)     H(rot)  DE(clash)    DE(int)     intcor
     15.67     -16.23       2.93        0.00      50.91       1.94       0.09       0.47       ----

> <Gold.Chemscore.Fitness>
15.6712

> <Gold.Chemscore.DG>
-16.2290

> <Gold.Chemscore.ZeroCoef>
-5.4800

> <Gold.Chemscore.Hbond>
2.9251

> <Gold.Chemscore.Metal>
0.0000

> <Gold.Chemscore.Lipo>
50.9070

> <Gold.Chemscore.Internal_Hbond>
0.0000

> <Gold.Chemscore.DEClash>
0.0863

> <Gold.Chemscore.DEInternal>
0.4716

> <Gold.Chemscore.Rot>
1.9442

> <Gold.Chemscore.Internal.Correction>
   9.000000E+99

> <Gold.Chemscore.Hbonds>
donor molecule, donor type, donor heavy atom, donor atom, acceptor molecule, acceptor atom, score
      L1  H     3    19       P1  7948  0.93
      L1  H     9    21       P1  7948  0.90
      L1  H    18    34       P1 10747  0.94
      P1  H  7989  7998       L1     6  0.17

> <Gold.Chemscore.Hbond.Weighted>
-9.7700

> <Gold.Chemscore.Metal.Weighted>
-0.0000

> <Gold.Chemscore.Lipo.Weighted>
-5.9561

> <Gold.Chemscore.Internal_Hbond.Weighted>
0.0000

> <Gold.Chemscore.DEClash.Weighted>
0.0863

> <Gold.Chemscore.DEInternal.Weighted>
0.4716

> <Gold.Chemscore.Rot.Weighted>
4.9771

> <Gold.Chemscore.Internal.Correction.Weighted>
   9.000000E+99

> <Gold.Protein.RotatedTorsions>
[ 6907 6896 6895 6894 ] final -145.03 input  -60.11 | X-H torsion
[ 7974 7965 7964 7962 ] final  109.70 input  175.53 | X-H torsion
[ 8008 7997 7996 7995 ] final  -29.54 input   59.86 | X-H torsion
[ 10167 10162 10161 10158 ] final  113.31 input  -65.29 | X-H torsion
[ 10718 10713 10712 10709 ] final  -49.11 input   66.30 | X-H torsion
[ 10763 10752 10751 10750 ] final   87.15 input  -60.55 | X-H torsion
[ 11005 11000 10999 10996 ] final   -8.17 input  -57.11 | X-H torsion

> <Gold.Protein.ActiveResidues>
 VAL166  LYS551  ARG553  GLY616  TRP617  ASP618  TYR619  PRO620  LYS621  CYS622 
 ASP623  PHE694  ASN695  SER759  ASP760  ASP761  ALA762  ILE779  LEU786  VAL792 
 PHE793  MET794  SER795  GLU796  ALA797  LYS798  CYS799  TRP800  GLU811  SER814 

> <Gold.Protein.RotatedAtoms>
  151.1222  133.5096  159.2601 H   0  0  0  0  0  0  0  0  0  0  0  0  # atno 6907 bound_to 6896
  151.1849  135.0376  159.8818 H   0  0  0  0  0  0  0  0  0  0  0  0  # atno 6908 bound_to 6896
  152.5456  134.1070  159.8395 H   0  0  0  0  0  0  0  0  0  0  0  0  # atno 6909 bound_to 6896
  145.2644  139.2690  143.4000 H   0  0  0  0  0  0  0  0  0  0  0  0  # atno 7974 bound_to 7965
  154.4286  140.1815  156.1264 H   0  0  0  0  0  0  0  0  0  0  0  0  # atno 8008 bound_to 7997
  156.0102  140.3351  155.6908 H   0  0  0  0  0  0  0  0  0  0  0  0  # atno 8009 bound_to 7997
  155.6121  140.0651  157.2694 H   0  0  0  0  0  0  0  0  0  0  0  0  # atno 8010 bound_to 7997
  139.6471  144.7127  151.2121 H   0  0  0  0  0  0  0  0  0  0  0  0  # atno 10167 bound_to 10162
  156.1924  130.4153  149.9353 H   0  0  0  0  0  0  0  0  0  0  0  0  # atno 10718 bound_to 10713
  153.1640  135.4554  154.9812 H   0  0  0  0  0  0  0  0  0  0  0  0  # atno 10763 bound_to 10752
  154.7918  135.3223  154.7761 H   0  0  0  0  0  0  0  0  0  0  0  0  # atno 10764 bound_to 10752
  153.8246  135.6944  153.4877 H   0  0  0  0  0  0  0  0  0  0  0  0  # atno 10765 bound_to 10752
  140.7206  133.8832  155.8818 H   0  0  0  0  0  0  0  0  0  0  0  0  # atno 11005 bound_to 11000
  146.3265  140.3070  142.8624 LP  0  0  0  0  0  0  0  0  0  0  0  0  # atno 17320 bound_to 7965
  144.9390  140.8058  143.5642 LP  0  0  0  0  0  0  0  0  0  0  0  0  # atno 17321 bound_to 7965
  140.7520  143.6213  150.8511 LP  0  0  0  0  0  0  0  0  0  0  0  0  # atno 17342 bound_to 10162
  139.9857  143.5902  152.2928 LP  0  0  0  0  0  0  0  0  0  0  0  0  # atno 17343 bound_to 10162
  156.7089  130.8962  151.3607 LP  0  0  0  0  0  0  0  0  0  0  0  0  # atno 17370 bound_to 10713
  157.6937  130.9260  150.0584 LP  0  0  0  0  0  0  0  0  0  0  0  0  # atno 17371 bound_to 10713
  141.0007  134.1154  157.4320 LP  0  0  0  0  0  0  0  0  0  0  0  0  # atno 17394 bound_to 11000
  139.8849  135.0067  156.6400 LP  0  0  0  0  0  0  0  0  0  0  0  0  # atno 17395 bound_to 11000

$$$$
