AV-unprocessed.smi:725|AV-procd|sdf|3509|dock10
  -GOLD-   22720 0503D 1   1.00000     0.00000
 Structure written by MMmdl.
 47 48  0  0  0  0  0  0  0  0  1 V2000
  155.8290  138.0920  164.7610 C   0  0  0  0  0  0  0  0  0  0  0  0
  156.1639  137.6059  163.3464 C   0  0  0  0  0  0  0  0  0  0  0  0
  154.9437  137.6597  162.4053 C   0  0  0  0  0  0  0  0  0  0  0  0
  155.0654  136.8607  161.0829 C   0  0  2  0  0  0  0  0  0  0  0  0
  155.3199  135.3587  161.3353 C   0  0  0  0  0  0  0  0  0  0  0  0
  156.1668  137.3891  160.3682 O   0  0  0  0  0  0  0  0  0  0  0  0
  153.8020  137.1244  160.2236 C   0  0  0  0  0  0  0  0  0  0  0  0
  153.5143  138.5443  160.0275 N   0  0  0  0  0  0  0  0  0  0  0  0
  152.7312  139.0618  159.0665 C   0  0  0  0  0  0  0  0  0  0  0  0
  152.1448  138.3816  158.2242 O   0  0  0  0  0  0  0  0  0  0  0  0
  152.5879  140.5610  159.1023 C   0  0  0  0  0  0  0  0  0  0  0  0
  153.1634  141.2848  160.1726 C   0  0  0  0  0  0  0  0  0  0  0  0
  153.0753  142.6876  160.1906 C   0  0  0  0  0  0  0  0  0  0  0  0
  152.4178  143.3253  159.1255 C   0  0  0  0  0  0  0  0  0  0  0  0
  151.8660  142.6556  158.0940 N   0  0  0  0  0  0  0  0  0  0  0  0
  151.9415  141.3012  158.0676 C   0  0  0  0  0  0  0  0  0  0  0  0
  151.3091  140.6575  156.9847 N   0  0  0  0  0  0  0  0  0  0  0  0
  152.1624  140.0001  156.0001 C   0  0  0  0  0  0  0  0  0  0  0  0
  151.3017  139.1556  155.0450 C   0  0  0  0  0  0  0  0  0  0  0  0
  150.3077  139.9800  154.4424 O   0  0  0  0  0  0  0  0  0  0  0  0
  149.4332  140.5583  155.4078 C   0  0  0  0  0  0  0  0  0  0  0  0
  150.2407  141.4400  156.3754 C   0  0  0  0  0  0  0  0  0  0  0  0
  156.7056  138.0409  165.4069 H   0  0  0  0  0  0  0  0  0  0  0  0
  155.0471  137.4811  165.2125 H   0  0  0  0  0  0  0  0  0  0  0  0
  155.4834  139.1260  164.7510 H   0  0  0  0  0  0  0  0  0  0  0  0
  156.9744  138.2158  162.9471 H   0  0  0  0  0  0  0  0  0  0  0  0
  156.5451  136.5876  163.4135 H   0  0  0  0  0  0  0  0  0  0  0  0
  154.0695  137.3062  162.9536 H   0  0  0  0  0  0  0  0  0  0  0  0
  154.7387  138.7046  162.1674 H   0  0  0  0  0  0  0  0  0  0  0  0
  154.4909  134.9087  161.8820 H   0  0  0  0  0  0  0  0  0  0  0  0
  156.2285  135.1898  161.9120 H   0  0  0  0  0  0  0  0  0  0  0  0
  155.4426  134.8027  160.4059 H   0  0  0  0  0  0  0  0  0  0  0  0
  156.7282  137.8445  160.9766 H   0  0  0  0  0  0  0  0  0  0  0  0
  153.9075  136.6317  159.2556 H   0  0  0  0  0  0  0  0  0  0  0  0
  152.9281  136.6667  160.6888 H   0  0  0  0  0  0  0  0  0  0  0  0
  153.9398  139.1845  160.6821 H   0  0  0  0  0  0  0  0  0  0  0  0
  153.6801  140.7760  160.9737 H   0  0  0  0  0  0  0  0  0  0  0  0
  153.5078  143.2606  160.9974 H   0  0  0  0  0  0  0  0  0  0  0  0
  152.3317  144.4015  159.1005 H   0  0  0  0  0  0  0  0  0  0  0  0
  152.7156  140.7491  155.4314 H   0  0  0  0  0  0  0  0  0  0  0  0
  152.8931  139.3671  156.5052 H   0  0  0  0  0  0  0  0  0  0  0  0
  151.9242  138.7196  154.2638 H   0  0  0  0  0  0  0  0  0  0  0  0
  150.8289  138.3279  155.5765 H   0  0  0  0  0  0  0  0  0  0  0  0
  148.6807  141.1559  154.8934 H   0  0  0  0  0  0  0  0  0  0  0  0
  148.9022  139.7735  155.9494 H   0  0  0  0  0  0  0  0  0  0  0  0
  149.5805  141.8554  157.1369 H   0  0  0  0  0  0  0  0  0  0  0  0
  150.6778  142.2827  155.8381 H   0  0  0  0  0  0  0  0  0  0  0  0
  1  2  1  0  0  0  0
  1 23  1  0  0  0  0
  1 24  1  0  0  0  0
  1 25  1  0  0  0  0
  2  3  1  0  0  0  0
  2 26  1  0  0  0  0
  2 27  1  0  0  0  0
  3  4  1  0  0  0  0
  3 28  1  0  0  0  0
  3 29  1  0  0  0  0
  4  5  1  0  0  0  0
  4  6  1  0  0  0  0
  4  7  1  0  0  0  0
  5 30  1  0  0  0  0
  5 31  1  0  0  0  0
  5 32  1  0  0  0  0
  6 33  1  0  0  0  0
  7  8  1  0  0  0  0
  7 34  1  0  0  0  0
  7 35  1  0  0  0  0
  8  9  1  0  0  0  0
  8 36  1  0  0  0  0
  9 10  2  0  0  0  0
  9 11  1  0  0  0  0
 11 16  1  0  0  0  0
 11 12  2  0  0  0  0
 12 13  1  0  0  0  0
 12 37  1  0  0  0  0
 13 14  2  0  0  0  0
 13 38  1  0  0  0  0
 14 15  1  0  0  0  0
 14 39  1  0  0  0  0
 15 16  2  0  0  0  0
 16 17  1  0  0  0  0
 17 22  1  0  0  0  0
 17 18  1  0  0  0  0
 18 19  1  0  0  0  0
 18 40  1  0  0  0  0
 18 41  1  0  0  0  0
 19 20  1  0  0  0  0
 19 42  1  0  0  0  0
 19 43  1  0  0  0  0
 20 21  1  0  0  0  0
 21 22  1  0  0  0  0
 21 44  1  0  0  0  0
 21 45  1  0  0  0  0
 22 46  1  0  0  0  0
 22 47  1  0  0  0  0
M  END
> <s_m_source_file>
AV-unprocessed.smi

> <i_m_source_file_index>
725

> <i_lp_mmshare_version>
43012

> <i_f3d_flags>
0

> <s_epik_input>
W0NIM11bQ0gyXVtDSDJdW0NAQF0oW0NIM10pKFtPSF0pW0NIMl1bTkhdQyg9TyljMVtjSF1bY0hdW2NIXW5jMU4yW0NIMl1bQ0gyXU9bQ0gyXVtDSDJdMg==

> <s_epik_cmdline>
J2VwaWtfcHl0aG9uJywgJy1waCcsICc3LjAnLCAnLXRuJywgJzgnLCAnLW1hJywgJzIwMCcsICctbWV0YWxfYmluZGluZycsICctaW1hZScsICc8aW5maWxlLm1hZT4nLCAnLW9tYWUnLCAnPG91dGZpbGUubWFlPic=

> <r_lp_tautomer_probability>
1

> <r_epik_Ionization_Penalty>
1.23446e-05

> <r_epik_Ionization_Penalty_Charging>
0

> <r_epik_Ionization_Penalty_Neutral>
1.23446e-05

> <r_epik_State_Penalty>
-0

> <r_epik_Charging_Adjusted_Penalty>
0

> <i_epik_Tot_Q>
0

> <i_epik_Tot_abs_Q>
0

> <r_epik_Metal_State_Penalty>
-0

> <b_epik_Metal_Only>
0

> <s_lp_Force_Field>
OPLS_2005

> <r_lp_Energy>
29.6434

> <b_lp_Chiralities_Consistent>
1

> <s_lp_Variant>
AV-unprocessed.smi:725-2

> <Gold.Version>
5.8.1

> <Gold.Id.Protein>
6NUR|6NUR_protein|mol2

> <Gold.PLP.Fitness>
41.3260

> <Gold.PLP.PLP>
-39.3679

> <Gold.PLP.part.hbond>
-1.0000

> <Gold.PLP.part.metal>
0.0000

> <Gold.PLP.part.buried>
-3.9301

> <Gold.PLP.part.nonpolar>
-34.5809

> <Gold.PLP.part.repulsive>
0.2115

> <Gold.PLP.ligand.clash>
0.0000

> <Gold.PLP.ligand.torsion>
0.6752

> <Gold.PLP.Chemscore.Hbond>
1.0000

> <Gold.PLP.Chemscore.CHOScore>
0.0000

> <Gold.PLP.Chemscore.Metal>
0.0000

> <Gold.Chemscore.Hbonds>
donor molecule, donor type, donor heavy atom, donor atom, acceptor molecule, acceptor atom, score
      P1  H  7989  7998       L1    20  0.50

> <Gold.PLP.Chemscore.Internal.Correction>
0.3085

> <Gold.Rescore>
     Score         DG    S(hbond)    S(metal)    S(lipo)     H(rot)  DE(clash)    DE(int)     intcor
     11.13     -14.79       0.73        0.00     106.74       2.19       0.05       3.61       ----

> <Gold.Chemscore.Fitness>
11.1263

> <Gold.Chemscore.DG>
-14.7863

> <Gold.Chemscore.ZeroCoef>
-5.4800

> <Gold.Chemscore.Hbond>
0.7285

> <Gold.Chemscore.Metal>
0.0000

> <Gold.Chemscore.Lipo>
106.7358

> <Gold.Chemscore.Internal_Hbond>
0.0000

> <Gold.Chemscore.DEClash>
0.0471

> <Gold.Chemscore.DEInternal>
3.6129

> <Gold.Chemscore.Rot>
2.1933

> <Gold.Chemscore.Internal.Correction>
   9.000000E+99

> <Gold.Chemscore.Hbonds>
donor molecule, donor type, donor heavy atom, donor atom, acceptor molecule, acceptor atom, score
      P1  H  7989  7998       L1    20  0.02

> <Gold.Chemscore.Hbond.Weighted>
-2.4331

> <Gold.Chemscore.Metal.Weighted>
-0.0000

> <Gold.Chemscore.Lipo.Weighted>
-12.4881

> <Gold.Chemscore.Internal_Hbond.Weighted>
0.0000

> <Gold.Chemscore.DEClash.Weighted>
0.0471

> <Gold.Chemscore.DEInternal.Weighted>
3.6129

> <Gold.Chemscore.Rot.Weighted>
5.6149

> <Gold.Chemscore.Internal.Correction.Weighted>
   9.000000E+99

> <Gold.Protein.RotatedTorsions>
[ 6907 6896 6895 6894 ] final   50.51 input  -60.11 | X-H torsion
[ 7974 7965 7964 7962 ] final  169.41 input  175.53 | X-H torsion
[ 8008 7997 7996 7995 ] final  140.58 input   59.86 | X-H torsion
[ 10167 10162 10161 10158 ] final  -30.07 input  -65.29 | X-H torsion
[ 10718 10713 10712 10709 ] final -119.85 input   66.30 | X-H torsion
[ 10763 10752 10751 10750 ] final  170.99 input  -60.55 | X-H torsion
[ 11005 11000 10999 10996 ] final   78.18 input  -57.11 | X-H torsion

> <Gold.Protein.ActiveResidues>
 VAL166  LYS551  ARG553  GLY616  TRP617  ASP618  TYR619  PRO620  LYS621  CYS622 
 ASP623  PHE694  ASN695  SER759  ASP760  ASP761  ALA762  ILE779  LEU786  VAL792 
 PHE793  MET794  SER795  GLU796  ALA797  LYS798  CYS799  TRP800  GLU811  SER814 

> <Gold.Protein.RotatedAtoms>
  152.3026  134.7593  160.0354 H   0  0  0  0  0  0  0  0  0  0  0  0  # atno 6907 bound_to 6896
  151.8101  133.3375  159.3561 H   0  0  0  0  0  0  0  0  0  0  0  0  # atno 6908 bound_to 6896
  150.7281  134.5602  159.5883 H   0  0  0  0  0  0  0  0  0  0  0  0  # atno 6909 bound_to 6896
  144.7356  139.9051  143.6411 H   0  0  0  0  0  0  0  0  0  0  0  0  # atno 7974 bound_to 7965
  156.2977  140.2338  156.4424 H   0  0  0  0  0  0  0  0  0  0  0  0  # atno 8008 bound_to 7997
  154.8174  140.0439  157.1407 H   0  0  0  0  0  0  0  0  0  0  0  0  # atno 8009 bound_to 7997
  154.9353  140.3022  155.5151 H   0  0  0  0  0  0  0  0  0  0  0  0  # atno 8010 bound_to 7997
  140.7253  143.3878  151.1484 H   0  0  0  0  0  0  0  0  0  0  0  0  # atno 10167 bound_to 10162
  156.1212  130.6325  150.9467 H   0  0  0  0  0  0  0  0  0  0  0  0  # atno 10718 bound_to 10713
  154.4055  135.2755  155.2070 H   0  0  0  0  0  0  0  0  0  0  0  0  # atno 10763 bound_to 10752
  154.4078  135.6029  153.5938 H   0  0  0  0  0  0  0  0  0  0  0  0  # atno 10764 bound_to 10752
  152.9831  135.5942  154.4329 H   0  0  0  0  0  0  0  0  0  0  0  0  # atno 10765 bound_to 10752
  139.9223  134.7742  156.1616 H   0  0  0  0  0  0  0  0  0  0  0  0  # atno 11005 bound_to 11000
  146.1043  139.4041  143.0327 LP  0  0  0  0  0  0  0  0  0  0  0  0  # atno 17320 bound_to 7965
  145.7534  140.9963  143.1238 LP  0  0  0  0  0  0  0  0  0  0  0  0  # atno 17321 bound_to 7965
  139.7478  143.8825  152.3068 LP  0  0  0  0  0  0  0  0  0  0  0  0  # atno 17342 bound_to 10162
  139.8668  144.7089  150.9034 LP  0  0  0  0  0  0  0  0  0  0  0  0  # atno 17343 bound_to 10162
  157.6395  131.0912  150.8279 LP  0  0  0  0  0  0  0  0  0  0  0  0  # atno 17370 bound_to 10713
  156.8376  130.5037  149.5324 LP  0  0  0  0  0  0  0  0  0  0  0  0  # atno 17371 bound_to 10713
  141.0754  133.6778  156.2226 LP  0  0  0  0  0  0  0  0  0  0  0  0  # atno 17394 bound_to 11000
  140.6437  134.5139  157.5572 LP  0  0  0  0  0  0  0  0  0  0  0  0  # atno 17395 bound_to 11000

$$$$
