AV-unprocessed.smi:152|AV-procd|sdf|1249|dock1
  -GOLD-   2262018473D 1   1.00000     0.00000
 Structure written by MMmdl.
 58 61  0  0  0  0  0  0  0  0  2 V2000
  150.9845  144.8703  159.5067 C   0  0  0  0  0  0  0  0  0  0  0  0
  151.9551  144.5301  158.3677 C   0  0  0  0  0  0  0  0  0  0  0  0
  152.4993  143.1556  158.4914 N   0  3  1  0  0  0  0  0  0  0  0  0
  153.0336  142.8243  159.8368 C   0  0  0  0  0  0  0  0  0  0  0  0
  152.3865  141.5036  160.2626 C   0  0  0  0  0  0  0  0  0  0  0  0
  151.9427  140.8766  158.9494 C   0  0  0  0  0  0  0  0  0  0  0  0
  151.5444  142.0900  158.1059 C   0  0  2  0  0  0  0  0  0  0  0  0
  151.5815  141.8113  156.5866 C   0  0  0  0  0  0  0  0  0  0  0  0
  150.5309  140.9017  156.1311 N   0  0  0  0  0  0  0  0  0  0  0  0
  149.2785  140.9146  156.8744 C   0  0  0  0  0  0  0  0  0  0  0  0
  150.8777  139.6524  155.7377 C   0  0  0  0  0  0  0  0  0  0  0  0
  150.9626  139.4330  154.4017 N   0  0  0  0  0  0  0  0  0  0  0  0
  151.3079  138.2282  153.9386 C   0  0  0  0  0  0  0  0  0  0  0  0
  151.6008  137.1232  154.6260 N   0  0  0  0  0  0  0  0  0  0  0  0
  151.4991  137.3322  155.9696 C   0  0  0  0  0  0  0  0  0  0  0  0
  151.1476  138.5556  156.6083 C   0  0  0  0  0  0  0  0  0  0  0  0
  151.1489  138.3812  157.9879 N   0  0  0  0  0  0  0  0  0  0  0  0
  151.4854  137.1317  158.1542 C   0  0  0  0  0  0  0  0  0  0  0  0
  151.7070  136.4253  156.9942 N   0  0  0  0  0  0  0  0  0  0  0  0
  152.0888  135.0255  156.8882 C   0  0  0  0  0  0  0  0  0  0  0  0
  150.9466  134.0916  156.4147 C   0  0  0  0  0  0  0  0  0  0  0  0
  149.9215  134.1295  157.3918 O   0  0  0  0  0  0  0  0  0  0  0  0
  150.3637  134.5963  155.0793 C   0  0  0  0  0  0  0  0  0  0  0  0
  149.3439  133.6115  154.4807 C   0  0  0  0  0  0  0  0  0  0  0  0
  149.9384  132.3277  154.3333 O   0  0  0  0  0  0  0  0  0  0  0  0
  150.3258  131.7558  155.5766 C   0  0  0  0  0  0  0  0  0  0  0  0
  151.4036  132.6256  156.2482 C   0  0  0  0  0  0  0  0  0  0  0  0
  150.6314  145.8978  159.4163 H   0  0  0  0  0  0  0  0  0  0  0  0
  151.4682  144.7710  160.4788 H   0  0  0  0  0  0  0  0  0  0  0  0
  150.1083  144.2218  159.5002 H   0  0  0  0  0  0  0  0  0  0  0  0
  151.4686  144.6533  157.3989 H   0  0  0  0  0  0  0  0  0  0  0  0
  152.7783  145.2445  158.3948 H   0  0  0  0  0  0  0  0  0  0  0  0
  154.1152  142.7126  159.7559 H   0  0  0  0  0  0  0  0  0  0  0  0
  152.8383  143.6036  160.5748 H   0  0  0  0  0  0  0  0  0  0  0  0
  153.0631  140.8644  160.8307 H   0  0  0  0  0  0  0  0  0  0  0  0
  151.5136  141.7042  160.8856 H   0  0  0  0  0  0  0  0  0  0  0  0
  152.7817  140.3510  158.4911 H   0  0  0  0  0  0  0  0  0  0  0  0
  151.1272  140.1634  159.0760 H   0  0  0  0  0  0  0  0  0  0  0  0
  150.5501  142.4092  158.4220 H   0  0  0  0  0  0  0  0  0  0  0  0
  151.5213  142.7398  156.0199 H   0  0  0  0  0  0  0  0  0  0  0  0
  152.5478  141.3758  156.3301 H   0  0  0  0  0  0  0  0  0  0  0  0
  149.3557  140.2969  157.7705 H   0  0  0  0  0  0  0  0  0  0  0  0
  148.4582  140.5343  156.2645 H   0  0  0  0  0  0  0  0  0  0  0  0
  149.0202  141.9281  157.1816 H   0  0  0  0  0  0  0  0  0  0  0  0
  151.3551  138.1353  152.8635 H   0  0  0  0  0  0  0  0  0  0  0  0
  151.5740  136.6849  159.1340 H   0  0  0  0  0  0  0  0  0  0  0  0
  152.9435  134.9524  156.2144 H   0  0  0  0  0  0  0  0  0  0  0  0
  152.4476  134.7047  157.8671 H   0  0  0  0  0  0  0  0  0  0  0  0
  149.5836  135.0107  157.4403 H   0  0  0  0  0  0  0  0  0  0  0  0
  149.9061  135.5782  155.2074 H   0  0  0  0  0  0  0  0  0  0  0  0
  151.1733  134.7291  154.3607 H   0  0  0  0  0  0  0  0  0  0  0  0
  148.4491  133.5430  155.1014 H   0  0  0  0  0  0  0  0  0  0  0  0
  149.0197  133.9617  153.5005 H   0  0  0  0  0  0  0  0  0  0  0  0
  149.4545  131.6404  156.2231 H   0  0  0  0  0  0  0  0  0  0  0  0
  150.7162  130.7543  155.3948 H   0  0  0  0  0  0  0  0  0  0  0  0
  152.3045  132.5979  155.6341 H   0  0  0  0  0  0  0  0  0  0  0  0
  151.6745  132.1902  157.2110 H   0  0  0  0  0  0  0  0  0  0  0  0
  153.2767  143.0814  157.8509 H   0  0  0  0  0  0  0  0  0  0  0  0
  1  2  1  0  0  0  0
  1 28  1  0  0  0  0
  1 29  1  0  0  0  0
  1 30  1  0  0  0  0
  2  3  1  0  0  0  0
  2 31  1  0  0  0  0
  2 32  1  0  0  0  0
  3  7  1  0  0  0  0
  3  4  1  0  0  0  0
  3 58  1  0  0  0  0
  4  5  1  0  0  0  0
  4 33  1  0  0  0  0
  4 34  1  0  0  0  0
  5  6  1  0  0  0  0
  5 35  1  0  0  0  0
  5 36  1  0  0  0  0
  6  7  1  0  0  0  0
  6 37  1  0  0  0  0
  6 38  1  0  0  0  0
  7  8  1  0  0  0  0
  7 39  1  0  0  0  0
  8  9  1  0  0  0  0
  8 40  1  0  0  0  0
  8 41  1  0  0  0  0
  9 10  1  0  0  0  0
  9 11  1  0  0  0  0
 10 42  1  0  0  0  0
 10 43  1  0  0  0  0
 10 44  1  0  0  0  0
 11 16  1  0  0  0  0
 11 12  2  0  0  0  0
 12 13  1  0  0  0  0
 13 14  2  0  0  0  0
 13 45  1  0  0  0  0
 14 15  1  0  0  0  0
 15 19  1  0  0  0  0
 15 16  2  0  0  0  0
 16 17  1  0  0  0  0
 17 18  2  0  0  0  0
 18 19  1  0  0  0  0
 18 46  1  0  0  0  0
 19 20  1  0  0  0  0
 20 21  1  0  0  0  0
 20 47  1  0  0  0  0
 20 48  1  0  0  0  0
 21 27  1  0  0  0  0
 21 22  1  0  0  0  0
 21 23  1  0  0  0  0
 22 49  1  0  0  0  0
 23 24  1  0  0  0  0
 23 50  1  0  0  0  0
 23 51  1  0  0  0  0
 24 25  1  0  0  0  0
 24 52  1  0  0  0  0
 24 53  1  0  0  0  0
 25 26  1  0  0  0  0
 26 27  1  0  0  0  0
 26 54  1  0  0  0  0
 26 55  1  0  0  0  0
 27 56  1  0  0  0  0
 27 57  1  0  0  0  0
M  CHG  1   3   1
M  END
> <s_m_source_file>
AV-unprocessed.smi

> <i_m_source_file_index>
152

> <i_lp_mmshare_version>
43012

> <i_f3d_flags>
0

> <s_epik_input>
W0NIM11bQ0gyXU4xW0NIMl1bQ0gyXVtDSDJdW0NASF0xW0NIMl1OKFtDSDNdKWMobltjSF1uMiljKGMyMyluW2NIXW4zW0NIMl1DNChbT0hdKVtDSDJdW0NIMl1PW0NIMl1bQ0gyXTQ=

> <s_epik_cmdline>
J2VwaWtfcHl0aG9uJywgJy1waCcsICc3LjAnLCAnLXRuJywgJzgnLCAnLW1hJywgJzIwMCcsICctbWV0YWxfYmluZGluZycsICctaW1hZScsICc8aW5maWxlLm1hZT4nLCAnLW9tYWUnLCAnPG91dGZpbGUubWFlPic=

> <r_lp_tautomer_probability>
1

> <r_epik_Ionization_Penalty>
0.00152183

> <r_epik_Ionization_Penalty_Charging>
0.00112577

> <r_epik_Ionization_Penalty_Neutral>
0.000396066

> <r_epik_State_Penalty>
-0

> <r_epik_Charging_Adjusted_Penalty>
0.00112577

> <i_epik_Tot_Q>
1

> <i_epik_Tot_abs_Q>
1

> <r_epik_Metal_State_Penalty>
-0

> <b_epik_Metal_Only>
0

> <s_lp_Force_Field>
OPLS_2005

> <r_lp_Energy>
45.0855

> <b_lp_Chiralities_Consistent>
1

> <s_lp_Variant>
AV-unprocessed.smi:152-4

> <Gold.Version>
5.8.1

> <Gold.Id.Protein>
6NUR|6NUR_protein|mol2

> <Gold.PLP.Fitness>
50.9651

> <Gold.PLP.PLP>
-40.6147

> <Gold.PLP.part.hbond>
-3.0000

> <Gold.PLP.part.metal>
0.0000

> <Gold.PLP.part.buried>
-4.7558

> <Gold.PLP.part.nonpolar>
-32.5183

> <Gold.PLP.part.repulsive>
0.3992

> <Gold.PLP.ligand.clash>
0.0000

> <Gold.PLP.ligand.torsion>
1.1196

> <Gold.PLP.Chemscore.Hbond>
2.8713

> <Gold.PLP.Chemscore.CHOScore>
0.9940

> <Gold.PLP.Chemscore.Metal>
0.0000

> <Gold.Chemscore.Hbonds>
donor molecule, donor type, donor heavy atom, donor atom, acceptor molecule, acceptor atom, score
      P1  H  6896  6908       L1    22  0.76
      P1  H  7989  7998       L1    12  1.00
      P1  H 10752 10764       L1    14  1.00
      L1  C    13    45       P1  7949  0.92

> <Gold.PLP.Chemscore.Internal.Correction>
0.9939

> <Gold.Rescore>
     Score         DG    S(hbond)    S(metal)    S(lipo)     H(rot)  DE(clash)    DE(int)     intcor
     12.92     -17.69       2.17        0.00     102.42       2.73       0.92       3.85       ----

> <Gold.Chemscore.Fitness>
12.9187

> <Gold.Chemscore.DG>
-17.6945

> <Gold.Chemscore.ZeroCoef>
-5.4800

> <Gold.Chemscore.Hbond>
2.1654

> <Gold.Chemscore.Metal>
0.0000

> <Gold.Chemscore.Lipo>
102.4204

> <Gold.Chemscore.Internal_Hbond>
0.0000

> <Gold.Chemscore.DEClash>
0.9211

> <Gold.Chemscore.DEInternal>
3.8547

> <Gold.Chemscore.Rot>
2.7348

> <Gold.Chemscore.Internal.Correction>
   9.000000E+99

> <Gold.Chemscore.Hbonds>
donor molecule, donor type, donor heavy atom, donor atom, acceptor molecule, acceptor atom, score
      P1  H  6896  6908       L1    22  0.24
      P1  H  7989  7998       L1    12  0.79
      P1  H 10752 10764       L1    14  0.71

> <Gold.Chemscore.Hbond.Weighted>
-7.2323

> <Gold.Chemscore.Metal.Weighted>
-0.0000

> <Gold.Chemscore.Lipo.Weighted>
-11.9832

> <Gold.Chemscore.Internal_Hbond.Weighted>
0.0000

> <Gold.Chemscore.DEClash.Weighted>
0.9211

> <Gold.Chemscore.DEInternal.Weighted>
3.8547

> <Gold.Chemscore.Rot.Weighted>
7.0010

> <Gold.Chemscore.Internal.Correction.Weighted>
   9.000000E+99

> <Gold.Protein.RotatedTorsions>
[ 6907 6896 6895 6894 ] final  115.62 input  -60.11 | X-H torsion
[ 7974 7965 7964 7962 ] final -165.32 input  175.53 | X-H torsion
[ 8008 7997 7996 7995 ] final  -63.92 input   59.86 | X-H torsion
[ 10167 10162 10161 10158 ] final  -77.84 input  -65.29 | X-H torsion
[ 10718 10713 10712 10709 ] final -114.01 input   66.30 | X-H torsion
[ 10763 10752 10751 10750 ] final  -82.60 input  -60.55 | X-H torsion
[ 11005 11000 10999 10996 ] final   -9.97 input  -57.11 | X-H torsion

> <Gold.Protein.ActiveResidues>
 VAL166  LYS551  ARG553  GLY616  TRP617  ASP618  TYR619  PRO620  LYS621  CYS622 
 ASP623  PHE694  ASN695  SER759  ASP760  ASP761  ALA762  ILE779  LEU786  VAL792 
 PHE793  MET794  SER795  GLU796  ALA797  LYS798  CYS799  TRP800  GLU811  SER814 

> <Gold.Protein.RotatedAtoms>
  152.4730  133.8072  159.6984 H   0  0  0  0  0  0  0  0  0  0  0  0  # atno 6907 bound_to 6896
  150.8729  133.7470  159.2962 H   0  0  0  0  0  0  0  0  0  0  0  0  # atno 6908 bound_to 6896
  151.4998  135.1064  159.9878 H   0  0  0  0  0  0  0  0  0  0  0  0  # atno 6909 bound_to 6896
  144.7273  140.2832  143.6232 H   0  0  0  0  0  0  0  0  0  0  0  0  # atno 7974 bound_to 7965
  154.4582  140.0964  156.6817 H   0  0  0  0  0  0  0  0  0  0  0  0  # atno 8008 bound_to 7997
  155.5075  140.3475  155.4364 H   0  0  0  0  0  0  0  0  0  0  0  0  # atno 8009 bound_to 7997
  156.0818  140.1375  156.9691 H   0  0  0  0  0  0  0  0  0  0  0  0  # atno 8010 bound_to 7997
  140.4735  143.2420  151.8168 H   0  0  0  0  0  0  0  0  0  0  0  0  # atno 10167 bound_to 10162
  156.0802  130.6003  150.8718 H   0  0  0  0  0  0  0  0  0  0  0  0  # atno 10718 bound_to 10713
  154.5776  135.5586  153.7155 H   0  0  0  0  0  0  0  0  0  0  0  0  # atno 10763 bound_to 10752
  153.0070  135.6312  154.2027 H   0  0  0  0  0  0  0  0  0  0  0  0  # atno 10764 bound_to 10752
  154.1967  135.2880  155.2984 H   0  0  0  0  0  0  0  0  0  0  0  0  # atno 10765 bound_to 10752
  140.7398  133.8679  155.8959 H   0  0  0  0  0  0  0  0  0  0  0  0  # atno 11005 bound_to 11000
  145.7929  139.1934  143.2092 LP  0  0  0  0  0  0  0  0  0  0  0  0  # atno 17320 bound_to 7965
  146.0741  140.7837  142.9674 LP  0  0  0  0  0  0  0  0  0  0  0  0  # atno 17321 bound_to 7965
  139.4822  144.4862  151.9244 LP  0  0  0  0  0  0  0  0  0  0  0  0  # atno 17342 bound_to 10162
  140.3947  144.2570  150.5897 LP  0  0  0  0  0  0  0  0  0  0  0  0  # atno 17343 bound_to 10162
  157.5916  131.0944  150.9109 LP  0  0  0  0  0  0  0  0  0  0  0  0  # atno 17370 bound_to 10713
  156.9284  130.5340  149.5279 LP  0  0  0  0  0  0  0  0  0  0  0  0  # atno 17371 bound_to 10713
  140.9847  134.1359  157.4463 LP  0  0  0  0  0  0  0  0  0  0  0  0  # atno 17394 bound_to 11000
  139.8808  135.0021  156.6110 LP  0  0  0  0  0  0  0  0  0  0  0  0  # atno 17395 bound_to 11000

$$$$
