AV-unprocessed.smi:2671|AV-procd|sdf|10347|dock10
  -GOLD-   2272014373D 1   1.00000     0.00000
 Structure written by MMmdl.
 28 29  0  0  0  0  0  0  0  0  2 V2000
  152.9793  136.0696  159.8950 O   0  0  0  0  0  0  0  0  0  0  0  0
  152.8381  137.1568  159.3389 C   0  0  0  0  0  0  0  0  0  0  0  0
  152.0398  137.2420  158.1171 C   0  0  0  0  0  0  0  0  0  0  0  0
  151.8826  138.4477  157.5153 C   0  0  0  0  0  0  0  0  0  0  0  0
  151.0803  138.5949  156.2332 C   0  0  0  0  0  0  0  0  0  0  0  0
  149.9372  137.9141  156.3184 F   0  0  0  0  0  0  0  0  0  0  0  0
  150.7838  139.8770  156.0221 F   0  0  0  0  0  0  0  0  0  0  0  0
  151.7566  138.1433  155.1754 F   0  0  0  0  0  0  0  0  0  0  0  0
  152.4913  139.5966  158.0544 N   0  0  0  0  0  0  0  0  0  0  0  0
  153.1888  139.4970  159.1242 C   0  0  0  0  0  0  0  0  0  0  0  0
  153.9677  140.9651  159.8204 S   0  0  0  0  0  0  0  0  0  0  0  0
  152.5816  141.8901  160.5472 C   0  0  0  0  0  0  0  0  0  0  0  0
  152.6314  143.3778  160.1741 C   0  0  1  0  0  0  0  0  0  0  0  0
  152.5928  143.6609  158.6682 C   0  0  0  0  0  0  0  0  0  0  0  0
  151.8215  144.9694  158.5511 C   0  0  0  0  0  0  0  0  0  0  0  0
  151.4188  145.2971  159.9884 C   0  0  0  0  0  0  0  0  0  0  0  0
  151.4764  144.0469  160.6560 O   0  0  0  0  0  0  0  0  0  0  0  0
  153.3933  138.3140  159.8021 N   0  5  0  0  0  0  0  0  0  0  0  0
  151.5836  136.3555  157.7014 H   0  0  0  0  0  0  0  0  0  0  0  0
  152.6265  141.7848  161.6316 H   0  0  0  0  0  0  0  0  0  0  0  0
  151.6389  141.4500  160.2204 H   0  0  0  0  0  0  0  0  0  0  0  0
  153.5097  143.8484  160.6199 H   0  0  0  0  0  0  0  0  0  0  0  0
  153.5948  143.7262  158.2429 H   0  0  0  0  0  0  0  0  0  0  0  0
  152.0577  142.8722  158.1376 H   0  0  0  0  0  0  0  0  0  0  0  0
  152.4184  145.7681  158.1100 H   0  0  0  0  0  0  0  0  0  0  0  0
  150.9375  144.8278  157.9281 H   0  0  0  0  0  0  0  0  0  0  0  0
  152.1359  145.9821  160.4439 H   0  0  0  0  0  0  0  0  0  0  0  0
  150.4271  145.7448  160.0576 H   0  0  0  0  0  0  0  0  0  0  0  0
  1  2  2  0  0  0  0
  2 18  1  0  0  0  0
  2  3  1  0  0  0  0
  3 19  1  0  0  0  0
  3  4  2  0  0  0  0
  4  5  1  0  0  0  0
  4  9  1  0  0  0  0
  5  6  1  0  0  0  0
  5  7  1  0  0  0  0
  5  8  1  0  0  0  0
  9 10  2  0  0  0  0
 10 11  1  0  0  0  0
 10 18  1  0  0  0  0
 11 12  1  0  0  0  0
 12 13  1  0  0  0  0
 12 20  1  0  0  0  0
 12 21  1  0  0  0  0
 13 17  1  0  0  0  0
 13 14  1  0  0  0  0
 13 22  1  0  0  0  0
 14 15  1  0  0  0  0
 14 23  1  0  0  0  0
 14 24  1  0  0  0  0
 15 16  1  0  0  0  0
 15 25  1  0  0  0  0
 15 26  1  0  0  0  0
 16 17  1  0  0  0  0
 16 27  1  0  0  0  0
 16 28  1  0  0  0  0
M  CHG  1  18  -1
M  END
> <s_m_source_file>
AV-unprocessed.smi

> <i_m_source_file_index>
2671

> <i_lp_mmshare_version>
43012

> <i_f3d_flags>
0

> <s_epik_input>
W09IXWMxW2NIXWMoQyhGKShGKUYpbmMobjEpU1tDSDJdW0NAQEhdMltDSDJdW0NIMl1bQ0gyXU8y

> <s_epik_cmdline>
J2VwaWtfcHl0aG9uJywgJy1waCcsICc3LjAnLCAnLXRuJywgJzgnLCAnLW1hJywgJzIwMCcsICctbWV0YWxfYmluZGluZycsICctaW1hZScsICc8aW5maWxlLm1hZT4nLCAnLW9tYWUnLCAnPG91dGZpbGUubWFlPic=

> <r_lp_tautomer_probability>
1

> <r_epik_Ionization_Penalty>
0.972901

> <r_epik_Ionization_Penalty_Charging>
0.00136034

> <r_epik_Ionization_Penalty_Neutral>
0.971541

> <r_epik_State_Penalty>
0.242243

> <r_epik_Charging_Adjusted_Penalty>
0.243604

> <i_epik_Tot_Q>
-1

> <i_epik_Tot_abs_Q>
1

> <r_epik_Metal_State_Penalty>
0.0617458

> <b_epik_Metal_Only>
0

> <s_lp_Force_Field>
OPLS_2005

> <r_lp_Energy>
24.5089

> <b_lp_Chiralities_Consistent>
1

> <s_lp_Variant>
AV-unprocessed.smi:2671-2

> <Gold.Version>
5.8.1

> <Gold.Id.Protein>
6NUR|6NUR_protein|mol2

> <Gold.PLP.Fitness>
43.5638

> <Gold.PLP.PLP>
-39.7969

> <Gold.PLP.part.hbond>
-2.0000

> <Gold.PLP.part.metal>
0.0000

> <Gold.PLP.part.buried>
-4.7836

> <Gold.PLP.part.nonpolar>
-34.2032

> <Gold.PLP.part.repulsive>
0.1142

> <Gold.PLP.ligand.clash>
0.0000

> <Gold.PLP.ligand.torsion>
1.1211

> <Gold.PLP.Chemscore.Hbond>
2.0000

> <Gold.PLP.Chemscore.CHOScore>
0.0000

> <Gold.PLP.Chemscore.Metal>
0.0000

> <Gold.Chemscore.Hbonds>
donor molecule, donor type, donor heavy atom, donor atom, acceptor molecule, acceptor atom, score
      P1  H  6896  6908       L1     1  0.62

> <Gold.PLP.Chemscore.Internal.Correction>
0.0091

> <Gold.Rescore>
     Score         DG    S(hbond)    S(metal)    S(lipo)     H(rot)  DE(clash)    DE(int)     intcor
     14.88     -16.70       1.53        0.00      88.50       1.66       0.24       1.58       ----

> <Gold.Chemscore.Fitness>
14.8822

> <Gold.Chemscore.DG>
-16.6964

> <Gold.Chemscore.ZeroCoef>
-5.4800

> <Gold.Chemscore.Hbond>
1.5341

> <Gold.Chemscore.Metal>
0.0000

> <Gold.Chemscore.Lipo>
88.5009

> <Gold.Chemscore.Internal_Hbond>
0.0000

> <Gold.Chemscore.DEClash>
0.2389

> <Gold.Chemscore.DEInternal>
1.5753

> <Gold.Chemscore.Rot>
1.6649

> <Gold.Chemscore.Internal.Correction>
   9.000000E+99

> <Gold.Chemscore.Hbonds>
donor molecule, donor type, donor heavy atom, donor atom, acceptor molecule, acceptor atom, score
      P1  H  6896  6908       L1     1  0.60

> <Gold.Chemscore.Hbond.Weighted>
-5.1238

> <Gold.Chemscore.Metal.Weighted>
-0.0000

> <Gold.Chemscore.Lipo.Weighted>
-10.3546

> <Gold.Chemscore.Internal_Hbond.Weighted>
0.0000

> <Gold.Chemscore.DEClash.Weighted>
0.2389

> <Gold.Chemscore.DEInternal.Weighted>
1.5753

> <Gold.Chemscore.Rot.Weighted>
4.2620

> <Gold.Chemscore.Internal.Correction.Weighted>
   9.000000E+99

> <Gold.Protein.RotatedTorsions>
[ 6907 6896 6895 6894 ] final  -86.22 input  -60.11 | X-H torsion
[ 7974 7965 7964 7962 ] final   23.13 input  175.53 | X-H torsion
[ 8008 7997 7996 7995 ] final  -93.05 input   59.86 | X-H torsion
[ 10167 10162 10161 10158 ] final    2.57 input  -65.29 | X-H torsion
[ 10718 10713 10712 10709 ] final -149.73 input   66.30 | X-H torsion
[ 10763 10752 10751 10750 ] final -102.82 input  -60.55 | X-H torsion
[ 11005 11000 10999 10996 ] final  133.56 input  -57.11 | X-H torsion

> <Gold.Protein.ActiveResidues>
 VAL166  LYS551  ARG553  GLY616  TRP617  ASP618  TYR619  PRO620  LYS621  CYS622 
 ASP623  PHE694  ASN695  SER759  ASP760  ASP761  ALA762  ILE779  LEU786  VAL792 
 PHE793  MET794  SER795  GLU796  ALA797  LYS798  CYS799  TRP800  GLU811  SER814 

> <Gold.Protein.RotatedAtoms>
  150.6867  134.3084  159.4735 H   0  0  0  0  0  0  0  0  0  0  0  0  # atno 6907 bound_to 6896
  152.0972  134.9364  160.0579 H   0  0  0  0  0  0  0  0  0  0  0  0  # atno 6908 bound_to 6896
  152.0657  133.4048  159.4474 H   0  0  0  0  0  0  0  0  0  0  0  0  # atno 6909 bound_to 6896
  146.1998  139.7788  142.8770 H   0  0  0  0  0  0  0  0  0  0  0  0  # atno 7974 bound_to 7965
  154.7307  140.0503  157.0724 H   0  0  0  0  0  0  0  0  0  0  0  0  # atno 8008 bound_to 7997
  155.0305  140.3157  155.4741 H   0  0  0  0  0  0  0  0  0  0  0  0  # atno 8009 bound_to 7997
  156.2840  140.2151  156.5426 H   0  0  0  0  0  0  0  0  0  0  0  0  # atno 8010 bound_to 7997
  140.6628  143.7258  150.7771 H   0  0  0  0  0  0  0  0  0  0  0  0  # atno 10167 bound_to 10162
  156.4369  130.8103  151.2331 H   0  0  0  0  0  0  0  0  0  0  0  0  # atno 10718 bound_to 10713
  154.7762  135.4846  153.9749 H   0  0  0  0  0  0  0  0  0  0  0  0  # atno 10763 bound_to 10752
  153.1432  135.6776  153.9003 H   0  0  0  0  0  0  0  0  0  0  0  0  # atno 10764 bound_to 10752
  153.8671  135.3148  155.3419 H   0  0  0  0  0  0  0  0  0  0  0  0  # atno 10765 bound_to 10752
  139.9859  134.9532  156.9742 H   0  0  0  0  0  0  0  0  0  0  0  0  # atno 11005 bound_to 11000
  145.3522  141.0309  143.3332 LP  0  0  0  0  0  0  0  0  0  0  0  0  # atno 17320 bound_to 7965
  144.8659  139.5109  143.6790 LP  0  0  0  0  0  0  0  0  0  0  0  0  # atno 17321 bound_to 7965
  140.0930  143.4860  152.2468 LP  0  0  0  0  0  0  0  0  0  0  0  0  # atno 17342 bound_to 10162
  139.5868  144.7534  151.3501 LP  0  0  0  0  0  0  0  0  0  0  0  0  # atno 17343 bound_to 10162
  157.7507  131.0180  150.3610 LP  0  0  0  0  0  0  0  0  0  0  0  0  # atno 17370 bound_to 10713
  156.3959  130.3906  149.6995 LP  0  0  0  0  0  0  0  0  0  0  0  0  # atno 17371 bound_to 10713
  140.5003  134.1104  155.7249 LP  0  0  0  0  0  0  0  0  0  0  0  0  # atno 17394 bound_to 11000
  141.1524  133.8944  157.2064 LP  0  0  0  0  0  0  0  0  0  0  0  0  # atno 17395 bound_to 11000

$$$$
