AV-unprocessed.smi:1564|AV-procd|sdf|6295|dock3
  -GOLD-   22720 6493D 1   1.00000     0.00000
 Structure written by MMmdl.
 43 44  0  0  0  0  0  0  0  0  2 V2000
  151.6310  139.9665  155.4647 C   0  0  0  0  0  0  0  0  0  0  0  0
  150.7032  140.8532  154.8488 O   0  0  0  0  0  0  0  0  0  0  0  0
  149.4958  140.3426  154.4184 C   0  0  0  0  0  0  0  0  0  0  0  0
  148.4167  141.2293  154.2337 C   0  0  0  0  0  0  0  0  0  0  0  0
  147.1821  140.7126  153.7984 C   0  0  0  0  0  0  0  0  0  0  0  0
  147.0565  139.3275  153.5693 C   0  0  0  0  0  0  0  0  0  0  0  0
  145.7989  138.8414  153.1190 N   0  0  0  0  0  0  0  0  0  0  0  0
  145.3628  137.5718  153.0525 C   0  0  0  0  0  0  0  0  0  0  0  0
  146.0006  136.5768  153.3945 O   0  0  0  0  0  0  0  0  0  0  0  0
  144.1127  137.5140  152.5730 N   0  0  0  0  0  0  0  0  0  0  0  0
  143.3512  136.2834  152.3870 C   0  0  2  0  0  0  0  0  0  0  0  0
  143.3715  135.3413  153.5912 C   0  0  0  0  0  0  0  0  0  0  0  0
  143.2551  133.9339  152.9826 C   0  0  0  0  0  0  0  0  0  0  0  0
  143.3547  134.0820  151.5077 N   0  3  2  0  0  0  0  0  0  0  0  0
  144.0312  132.9563  150.8034 C   0  0  0  0  0  0  0  0  0  0  0  0
  145.5107  132.8338  151.2146 C   0  0  0  0  0  0  0  0  0  0  0  0
  143.9324  133.1171  149.2745 C   0  0  0  0  0  0  0  0  0  0  0  0
  143.9355  135.4200  151.2745 C   0  0  0  0  0  0  0  0  0  0  0  0
  148.2035  138.5208  153.7713 C   0  0  0  0  0  0  0  0  0  0  0  0
  149.3912  139.0108  154.1863 N   0  0  0  0  0  0  0  0  0  0  0  0
  152.5205  140.5233  155.7589 H   0  0  0  0  0  0  0  0  0  0  0  0
  151.9450  139.1792  154.7778 H   0  0  0  0  0  0  0  0  0  0  0  0
  151.2137  139.5119  156.3644 H   0  0  0  0  0  0  0  0  0  0  0  0
  148.5338  142.2860  154.4227 H   0  0  0  0  0  0  0  0  0  0  0  0
  146.3418  141.3747  153.6483 H   0  0  0  0  0  0  0  0  0  0  0  0
  145.1299  139.5536  152.8657 H   0  0  0  0  0  0  0  0  0  0  0  0
  143.6585  138.3795  152.3200 H   0  0  0  0  0  0  0  0  0  0  0  0
  142.3165  136.5235  152.1336 H   0  0  0  0  0  0  0  0  0  0  0  0
  144.3163  135.4286  154.1302 H   0  0  0  0  0  0  0  0  0  0  0  0
  142.5681  135.5586  154.2961 H   0  0  0  0  0  0  0  0  0  0  0  0
  144.0533  133.3001  153.3727 H   0  0  0  0  0  0  0  0  0  0  0  0
  142.3037  133.4658  153.2376 H   0  0  0  0  0  0  0  0  0  0  0  0
  143.5267  132.0298  151.0825 H   0  0  0  0  0  0  0  0  0  0  0  0
  146.0052  132.0367  150.6587 H   0  0  0  0  0  0  0  0  0  0  0  0
  145.6231  132.5939  152.2721 H   0  0  0  0  0  0  0  0  0  0  0  0
  146.0551  133.7584  151.0195 H   0  0  0  0  0  0  0  0  0  0  0  0
  144.4458  132.3026  148.7627 H   0  0  0  0  0  0  0  0  0  0  0  0
  144.3870  134.0515  148.9440 H   0  0  0  0  0  0  0  0  0  0  0  0
  142.8997  133.1071  148.9262 H   0  0  0  0  0  0  0  0  0  0  0  0
  143.6820  135.8080  150.2873 H   0  0  0  0  0  0  0  0  0  0  0  0
  145.0232  135.3695  151.3563 H   0  0  0  0  0  0  0  0  0  0  0  0
  148.1989  137.4588  153.5847 H   0  0  0  0  0  0  0  0  0  0  0  0
  142.4061  134.1266  151.1632 H   0  0  0  0  0  0  0  0  0  0  0  0
  1  2  1  0  0  0  0
  1 21  1  0  0  0  0
  1 22  1  0  0  0  0
  1 23  1  0  0  0  0
  2  3  1  0  0  0  0
  3 20  1  0  0  0  0
  3  4  2  0  0  0  0
  4  5  1  0  0  0  0
  4 24  1  0  0  0  0
  5  6  2  0  0  0  0
  5 25  1  0  0  0  0
  6  7  1  0  0  0  0
  6 19  1  0  0  0  0
  7  8  1  0  0  0  0
  7 26  1  0  0  0  0
  8  9  2  0  0  0  0
  8 10  1  0  0  0  0
 10 11  1  0  0  0  0
 10 27  1  0  0  0  0
 11 18  1  0  0  0  0
 11 12  1  0  0  0  0
 11 28  1  0  0  0  0
 12 13  1  0  0  0  0
 12 29  1  0  0  0  0
 12 30  1  0  0  0  0
 13 14  1  0  0  0  0
 13 31  1  0  0  0  0
 13 32  1  0  0  0  0
 14 15  1  0  0  0  0
 14 18  1  0  0  0  0
 14 43  1  0  0  0  0
 15 16  1  0  0  0  0
 15 17  1  0  0  0  0
 15 33  1  0  0  0  0
 16 34  1  0  0  0  0
 16 35  1  0  0  0  0
 16 36  1  0  0  0  0
 17 37  1  0  0  0  0
 17 38  1  0  0  0  0
 17 39  1  0  0  0  0
 18 40  1  0  0  0  0
 18 41  1  0  0  0  0
 19 20  2  0  0  0  0
 19 42  1  0  0  0  0
M  CHG  1  14   1
M  END
> <s_m_source_file>
AV-unprocessed.smi

> <i_m_source_file_index>
1564

> <i_lp_mmshare_version>
43012

> <i_f3d_flags>
0

> <s_epik_input>
W0NIM11PYzFbY0hdW2NIXWMoW2NIXW4xKVtOSF1DKD1PKVtOSF1bQ0BASF0yW0NIMl1bQ0gyXU4oW0NIMl0yKVtDSF0oW0NIM10pW0NIM10=

> <s_epik_cmdline>
J2VwaWtfcHl0aG9uJywgJy1waCcsICc3LjAnLCAnLXRuJywgJzgnLCAnLW1hJywgJzIwMCcsICctbWV0YWxfYmluZGluZycsICctaW1hZScsICc8aW5maWxlLm1hZT4nLCAnLW9tYWUnLCAnPG91dGZpbGUubWFlPic=

> <r_lp_tautomer_probability>
1

> <r_epik_Ionization_Penalty>
0.000679474

> <r_epik_Ionization_Penalty_Charging>
0.000606352

> <r_epik_Ionization_Penalty_Neutral>
7.31222e-05

> <r_epik_State_Penalty>
0.000382168

> <r_epik_Charging_Adjusted_Penalty>
0.00098852

> <i_epik_Tot_Q>
1

> <i_epik_Tot_abs_Q>
1

> <r_epik_Metal_State_Penalty>
-0

> <b_epik_Metal_Only>
0

> <s_lp_Force_Field>
OPLS_2005

> <r_lp_Energy>
32.1587

> <b_lp_Chiralities_Consistent>
1

> <s_lp_Variant>
AV-unprocessed.smi:1564-3

> <Gold.Version>
5.8.1

> <Gold.Id.Protein>
6NUR|6NUR_protein|mol2

> <Gold.PLP.Fitness>
50.0404

> <Gold.PLP.PLP>
-34.2869

> <Gold.PLP.part.hbond>
-5.0000

> <Gold.PLP.part.metal>
0.0000

> <Gold.PLP.part.buried>
-1.6513

> <Gold.PLP.part.nonpolar>
-28.5306

> <Gold.PLP.part.repulsive>
0.4322

> <Gold.PLP.ligand.clash>
0.0000

> <Gold.PLP.ligand.torsion>
0.4596

> <Gold.PLP.Chemscore.Hbond>
4.6480

> <Gold.PLP.Chemscore.CHOScore>
0.9026

> <Gold.PLP.Chemscore.Metal>
0.0000

> <Gold.Chemscore.Hbonds>
donor molecule, donor type, donor heavy atom, donor atom, acceptor molecule, acceptor atom, score
      L1  H     7    26       P1 10175  1.00
      L1  H    10    27       P1 10175  0.90
      L1  H    14    43       P1 10186  1.32
      P1  H  7989  7998       L1     2  0.41
      L1  C    19    42       P1  7948  1.00

> <Gold.PLP.Chemscore.Internal.Correction>
0.0210

> <Gold.Rescore>
     Score         DG    S(hbond)    S(metal)    S(lipo)     H(rot)  DE(clash)    DE(int)     intcor
     14.69     -18.91       2.45        0.00      76.35       1.44       1.63       2.59       ----

> <Gold.Chemscore.Fitness>
14.6923

> <Gold.Chemscore.DG>
-18.9075

> <Gold.Chemscore.ZeroCoef>
-5.4800

> <Gold.Chemscore.Hbond>
2.4528

> <Gold.Chemscore.Metal>
0.0000

> <Gold.Chemscore.Lipo>
76.3506

> <Gold.Chemscore.Internal_Hbond>
0.0000

> <Gold.Chemscore.DEClash>
1.6282

> <Gold.Chemscore.DEInternal>
2.5869

> <Gold.Chemscore.Rot>
1.4445

> <Gold.Chemscore.Internal.Correction>
   9.000000E+99

> <Gold.Chemscore.Hbonds>
donor molecule, donor type, donor heavy atom, donor atom, acceptor molecule, acceptor atom, score
      L1  H     7    26       P1 10175  1.00
      L1  H    10    27       P1 10175  0.83
      L1  H    14    43       P1 10186  0.12
      P1  H  7989  7998       L1     2  0.01

> <Gold.Chemscore.Hbond.Weighted>
-8.1923

> <Gold.Chemscore.Metal.Weighted>
-0.0000

> <Gold.Chemscore.Lipo.Weighted>
-8.9330

> <Gold.Chemscore.Internal_Hbond.Weighted>
0.0000

> <Gold.Chemscore.DEClash.Weighted>
1.6282

> <Gold.Chemscore.DEInternal.Weighted>
2.5869

> <Gold.Chemscore.Rot.Weighted>
3.6979

> <Gold.Chemscore.Internal.Correction.Weighted>
   9.000000E+99

> <Gold.Protein.RotatedTorsions>
[ 6907 6896 6895 6894 ] final  146.50 input  -60.11 | X-H torsion
[ 7974 7965 7964 7962 ] final  150.27 input  175.53 | X-H torsion
[ 8008 7997 7996 7995 ] final  -12.76 input   59.86 | X-H torsion
[ 10167 10162 10161 10158 ] final   39.05 input  -65.29 | X-H torsion
[ 10718 10713 10712 10709 ] final -121.52 input   66.30 | X-H torsion
[ 10763 10752 10751 10750 ] final  -95.96 input  -60.55 | X-H torsion
[ 11005 11000 10999 10996 ] final  151.13 input  -57.11 | X-H torsion

> <Gold.Protein.ActiveResidues>
 VAL166  LYS551  ARG553  GLY616  TRP617  ASP618  TYR619  PRO620  LYS621  CYS622 
 ASP623  PHE694  ASN695  SER759  ASP760  ASP761  ALA762  ILE779  LEU786  VAL792 
 PHE793  MET794  SER795  GLU796  ALA797  LYS798  CYS799  TRP800  GLU811  SER814 

> <Gold.Protein.RotatedAtoms>
  152.1671  133.4619  159.4890 H   0  0  0  0  0  0  0  0  0  0  0  0  # atno 6907 bound_to 6896
  150.6914  134.1999  159.4327 H   0  0  0  0  0  0  0  0  0  0  0  0  # atno 6908 bound_to 6896
  151.9904  134.9982  160.0612 H   0  0  0  0  0  0  0  0  0  0  0  0  # atno 6909 bound_to 6896
  144.8376  139.6387  143.6031 H   0  0  0  0  0  0  0  0  0  0  0  0  # atno 7974 bound_to 7965
  154.5350  140.2267  155.8739 H   0  0  0  0  0  0  0  0  0  0  0  0  # atno 8008 bound_to 7997
  156.1802  140.3102  155.9097 H   0  0  0  0  0  0  0  0  0  0  0  0  # atno 8009 bound_to 7997
  155.3374  140.0448  157.3035 H   0  0  0  0  0  0  0  0  0  0  0  0  # atno 8010 bound_to 7997
  140.3877  144.1894  150.6130 H   0  0  0  0  0  0  0  0  0  0  0  0  # atno 10167 bound_to 10162
  156.1344  130.6420  150.9673 H   0  0  0  0  0  0  0  0  0  0  0  0  # atno 10718 bound_to 10713
  154.7196  135.5101  153.8791 H   0  0  0  0  0  0  0  0  0  0  0  0  # atno 10763 bound_to 10752
  153.0851  135.6643  153.9975 H   0  0  0  0  0  0  0  0  0  0  0  0  # atno 10764 bound_to 10752
  153.9800  135.3030  155.3400 H   0  0  0  0  0  0  0  0  0  0  0  0  # atno 10765 bound_to 10752
  140.1192  134.8874  157.2048 H   0  0  0  0  0  0  0  0  0  0  0  0  # atno 11005 bound_to 11000
  146.2673  139.6551  142.9320 LP  0  0  0  0  0  0  0  0  0  0  0  0  # atno 17320 bound_to 7965
  145.4761  141.0437  143.2672 LP  0  0  0  0  0  0  0  0  0  0  0  0  # atno 17321 bound_to 7965
  140.4872  143.2359  151.8871 LP  0  0  0  0  0  0  0  0  0  0  0  0  # atno 17342 bound_to 10162
  139.4791  144.5206  151.8807 LP  0  0  0  0  0  0  0  0  0  0  0  0  # atno 17343 bound_to 10162
  157.6519  131.0895  150.8033 LP  0  0  0  0  0  0  0  0  0  0  0  0  # atno 17370 bound_to 10713
  156.8114  130.4954  149.5355 LP  0  0  0  0  0  0  0  0  0  0  0  0  # atno 17371 bound_to 10713
  140.2987  134.3156  155.7295 LP  0  0  0  0  0  0  0  0  0  0  0  0  # atno 17394 bound_to 11000
  141.2148  133.7579  156.9610 LP  0  0  0  0  0  0  0  0  0  0  0  0  # atno 17395 bound_to 11000

$$$$
