AV-unprocessed.smi:260|AV-procd|sdf|1976|dock2
  -GOLD-   2262021143D 1   1.00000     0.00000
 Structure written by MMmdl.
 53 56  0  0  0  0  0  0  0  0  1 V2000
  152.4262  131.1441  155.5630 C   0  0  0  0  0  0  0  0  0  0  0  0
  151.2195  131.9541  155.4989 N   0  0  0  0  0  0  0  0  0  0  0  0
  150.6836  132.6019  156.5457 C   0  0  0  0  0  0  0  0  0  0  0  0
  151.1835  132.5479  157.6704 O   0  0  0  0  0  0  0  0  0  0  0  0
  149.3943  133.4359  156.3236 C   0  0  2  0  0  0  0  0  0  0  0  0
  148.2663  132.8591  157.2018 C   0  0  0  0  0  0  0  0  0  0  0  0
  148.9642  133.5612  154.8437 C   0  0  0  0  0  0  0  0  0  0  0  0
  149.8038  134.7155  154.2810 C   0  0  0  0  0  0  0  0  0  0  0  0
  150.2120  135.4973  155.4388 N   0  0  0  0  0  0  0  0  0  0  0  0
  150.5088  136.8195  155.3451 C   0  0  0  0  0  0  0  0  0  0  0  0
  150.4822  137.4060  154.1190 N   0  0  0  0  0  0  0  0  0  0  0  0
  150.7627  138.7044  153.9799 C   0  0  0  0  0  0  0  0  0  0  0  0
  151.0895  139.5917  154.9200 N   0  0  0  0  0  0  0  0  0  0  0  0
  151.1118  139.0162  156.1558 C   0  0  0  0  0  0  0  0  0  0  0  0
  150.8333  137.6514  156.4578 C   0  0  0  0  0  0  0  0  0  0  0  0
  150.9397  137.4486  157.8298 N   0  0  0  0  0  0  0  0  0  0  0  0
  151.2717  138.6163  158.3065 C   0  0  0  0  0  0  0  0  0  0  0  0
  151.4143  139.6123  157.3680 N   0  0  0  0  0  0  0  0  0  0  0  0
  151.7648  140.9994  157.6221 C   0  0  0  0  0  0  0  0  0  0  0  0
  150.5622  141.9686  157.5479 C   0  0  2  0  0  0  0  0  0  0  0  0
  150.4932  142.3928  156.2015 O   0  0  0  0  0  0  0  0  0  0  0  0
  150.6812  143.2399  158.4199 C   0  0  2  0  0  0  0  0  0  0  0  0
  151.8567  144.1682  158.1036 C   0  0  0  0  0  0  0  0  0  0  0  0
  152.1151  144.8942  159.4138 C   0  0  0  0  0  0  0  0  0  0  0  0
  151.3902  144.0404  160.4547 C   0  0  0  0  0  0  0  0  0  0  0  0
  150.9948  142.8695  159.7550 O   0  0  0  0  0  0  0  0  0  0  0  0
  149.6679  134.9144  156.6594 C   0  0  0  0  0  0  0  0  0  0  0  0
  152.6478  130.7289  154.5800 H   0  0  0  0  0  0  0  0  0  0  0  0
  152.3026  130.3167  156.2627 H   0  0  0  0  0  0  0  0  0  0  0  0
  153.2796  131.7443  155.8802 H   0  0  0  0  0  0  0  0  0  0  0  0
  150.7649  132.0358  154.6010 H   0  0  0  0  0  0  0  0  0  0  0  0
  147.3524  133.4471  157.1111 H   0  0  0  0  0  0  0  0  0  0  0  0
  148.5389  132.8514  158.2580 H   0  0  0  0  0  0  0  0  0  0  0  0
  148.0250  131.8354  156.9129 H   0  0  0  0  0  0  0  0  0  0  0  0
  149.0607  132.6454  154.2597 H   0  0  0  0  0  0  0  0  0  0  0  0
  147.9114  133.8429  154.7952 H   0  0  0  0  0  0  0  0  0  0  0  0
  150.6938  134.3385  153.7764 H   0  0  0  0  0  0  0  0  0  0  0  0
  149.2259  135.3043  153.5680 H   0  0  0  0  0  0  0  0  0  0  0  0
  150.7197  139.0857  152.9704 H   0  0  0  0  0  0  0  0  0  0  0  0
  151.4263  138.7827  159.3628 H   0  0  0  0  0  0  0  0  0  0  0  0
  152.2572  141.0778  158.5920 H   0  0  0  0  0  0  0  0  0  0  0  0
  152.5112  141.2755  156.8757 H   0  0  0  0  0  0  0  0  0  0  0  0
  149.6392  141.4373  157.7823 H   0  0  0  0  0  0  0  0  0  0  0  0
  150.2767  143.3126  156.1875 H   0  0  0  0  0  0  0  0  0  0  0  0
  149.7503  143.8107  158.4060 H   0  0  0  0  0  0  0  0  0  0  0  0
  152.7386  143.5850  157.8354 H   0  0  0  0  0  0  0  0  0  0  0  0
  151.6416  144.8572  157.2877 H   0  0  0  0  0  0  0  0  0  0  0  0
  153.1838  144.9652  159.6179 H   0  0  0  0  0  0  0  0  0  0  0  0
  151.7069  145.9052  159.3966 H   0  0  0  0  0  0  0  0  0  0  0  0
  152.0222  143.7916  161.3073 H   0  0  0  0  0  0  0  0  0  0  0  0
  150.5030  144.5558  160.8254 H   0  0  0  0  0  0  0  0  0  0  0  0
  148.7440  135.4306  156.9247 H   0  0  0  0  0  0  0  0  0  0  0  0
  150.3636  135.0323  157.4916 H   0  0  0  0  0  0  0  0  0  0  0  0
  1  2  1  0  0  0  0
  1 28  1  0  0  0  0
  1 29  1  0  0  0  0
  1 30  1  0  0  0  0
  2  3  1  0  0  0  0
  2 31  1  0  0  0  0
  3  4  2  0  0  0  0
  3  5  1  0  0  0  0
  5 27  1  0  0  0  0
  5  6  1  0  0  0  0
  5  7  1  0  0  0  0
  6 32  1  0  0  0  0
  6 33  1  0  0  0  0
  6 34  1  0  0  0  0
  7  8  1  0  0  0  0
  7 35  1  0  0  0  0
  7 36  1  0  0  0  0
  8  9  1  0  0  0  0
  8 37  1  0  0  0  0
  8 38  1  0  0  0  0
  9 10  1  0  0  0  0
  9 27  1  0  0  0  0
 10 15  1  0  0  0  0
 10 11  2  0  0  0  0
 11 12  1  0  0  0  0
 12 13  2  0  0  0  0
 12 39  1  0  0  0  0
 13 14  1  0  0  0  0
 14 18  1  0  0  0  0
 14 15  2  0  0  0  0
 15 16  1  0  0  0  0
 16 17  2  0  0  0  0
 17 18  1  0  0  0  0
 17 40  1  0  0  0  0
 18 19  1  0  0  0  0
 19 20  1  0  0  0  0
 19 41  1  0  0  0  0
 19 42  1  0  0  0  0
 20 21  1  0  0  0  0
 20 22  1  0  0  0  0
 20 43  1  0  0  0  0
 21 44  1  0  0  0  0
 22 26  1  0  0  0  0
 22 23  1  0  0  0  0
 22 45  1  0  0  0  0
 23 24  1  0  0  0  0
 23 46  1  0  0  0  0
 23 47  1  0  0  0  0
 24 25  1  0  0  0  0
 24 48  1  0  0  0  0
 24 49  1  0  0  0  0
 25 26  1  0  0  0  0
 25 50  1  0  0  0  0
 25 51  1  0  0  0  0
 27 52  1  0  0  0  0
 27 53  1  0  0  0  0
M  END
> <s_m_source_file>
AV-unprocessed.smi

> <i_m_source_file_index>
260

> <i_lp_mmshare_version>
43012

> <i_f3d_flags>
0

> <s_epik_input>
W0NIM11bTkhdQyg9TylbQ0BAXTEoW0NIM10pW0NIMl1bQ0gyXU4oW0NIMl0xKWMobltjSF1uMiljKGMyMyluW2NIXW4zW0NIMl1bQ0BIXShbT0hdKVtDQEBIXTRbQ0gyXVtDSDJdW0NIMl1PNA==

> <s_epik_cmdline>
J2VwaWtfcHl0aG9uJywgJy1waCcsICc3LjAnLCAnLXRuJywgJzgnLCAnLW1hJywgJzIwMCcsICctbWV0YWxfYmluZGluZycsICctaW1hZScsICc8aW5maWxlLm1hZT4nLCAnLW9tYWUnLCAnPG91dGZpbGUubWFlPic=

> <r_lp_tautomer_probability>
1

> <r_epik_Ionization_Penalty>
0.00115068

> <r_epik_Ionization_Penalty_Charging>
0

> <r_epik_Ionization_Penalty_Neutral>
0.00115068

> <r_epik_State_Penalty>
0.000668876

> <r_epik_Charging_Adjusted_Penalty>
0.000668876

> <i_epik_Tot_Q>
0

> <i_epik_Tot_abs_Q>
0

> <r_epik_Metal_State_Penalty>
-0

> <b_epik_Metal_Only>
0

> <s_lp_Force_Field>
OPLS_2005

> <r_lp_Energy>
52.371

> <b_lp_Chiralities_Consistent>
1

> <s_lp_Variant>
AV-unprocessed.smi:260-2

> <Gold.Version>
5.8.1

> <Gold.Id.Protein>
6NUR|6NUR_protein|mol2

> <Gold.PLP.Fitness>
50.1140

> <Gold.PLP.PLP>
-40.2947

> <Gold.PLP.part.hbond>
-3.0721

> <Gold.PLP.part.metal>
0.0000

> <Gold.PLP.part.buried>
-7.8807

> <Gold.PLP.part.nonpolar>
-31.8054

> <Gold.PLP.part.repulsive>
1.3611

> <Gold.PLP.ligand.clash>
0.0000

> <Gold.PLP.ligand.torsion>
0.8030

> <Gold.PLP.Chemscore.Hbond>
2.6825

> <Gold.PLP.Chemscore.CHOScore>
1.0000

> <Gold.PLP.Chemscore.Metal>
0.0000

> <Gold.Chemscore.Hbonds>
donor molecule, donor type, donor heavy atom, donor atom, acceptor molecule, acceptor atom, score
      L1  H    21    44       P1  8028  0.90
      P1  H  6896  6907       L1     4  0.88
      P1  H  7989  7998       L1    13  0.45
      L1  C    12    39       P1  7957  1.00

> <Gold.PLP.Chemscore.Internal.Correction>
0.3778

> <Gold.Rescore>
     Score         DG    S(hbond)    S(metal)    S(lipo)     H(rot)  DE(clash)    DE(int)     intcor
     14.39     -16.48       2.06        0.00      90.38       2.53       0.69       1.41       ----

> <Gold.Chemscore.Fitness>
14.3883

> <Gold.Chemscore.DG>
-16.4849

> <Gold.Chemscore.ZeroCoef>
-5.4800

> <Gold.Chemscore.Hbond>
2.0649

> <Gold.Chemscore.Metal>
0.0000

> <Gold.Chemscore.Lipo>
90.3789

> <Gold.Chemscore.Internal_Hbond>
0.0000

> <Gold.Chemscore.DEClash>
0.6915

> <Gold.Chemscore.DEInternal>
1.4051

> <Gold.Chemscore.Rot>
2.5259

> <Gold.Chemscore.Internal.Correction>
   9.000000E+99

> <Gold.Chemscore.Hbonds>
donor molecule, donor type, donor heavy atom, donor atom, acceptor molecule, acceptor atom, score
      L1  H    21    44       P1  8028  0.83
      P1  H  6896  6907       L1     4  0.87
      P1  H  7989  7998       L1    13  0.02

> <Gold.Chemscore.Hbond.Weighted>
-6.8969

> <Gold.Chemscore.Metal.Weighted>
-0.0000

> <Gold.Chemscore.Lipo.Weighted>
-10.5743

> <Gold.Chemscore.Internal_Hbond.Weighted>
0.0000

> <Gold.Chemscore.DEClash.Weighted>
0.6915

> <Gold.Chemscore.DEInternal.Weighted>
1.4051

> <Gold.Chemscore.Rot.Weighted>
6.4663

> <Gold.Chemscore.Internal.Correction.Weighted>
   9.000000E+99

> <Gold.Protein.RotatedTorsions>
[ 6907 6896 6895 6894 ] final  176.54 input  -60.11 | X-H torsion
[ 7974 7965 7964 7962 ] final  104.05 input  175.53 | X-H torsion
[ 8008 7997 7996 7995 ] final   79.23 input   59.86 | X-H torsion
[ 10167 10162 10161 10158 ] final   52.80 input  -65.29 | X-H torsion
[ 10718 10713 10712 10709 ] final  173.23 input   66.30 | X-H torsion
[ 10763 10752 10751 10750 ] final  170.32 input  -60.55 | X-H torsion
[ 11005 11000 10999 10996 ] final   89.38 input  -57.11 | X-H torsion

> <Gold.Protein.ActiveResidues>
 VAL166  LYS551  ARG553  GLY616  TRP617  ASP618  TYR619  PRO620  LYS621  CYS622 
 ASP623  PHE694  ASN695  SER759  ASP760  ASP761  ALA762  ILE779  LEU786  VAL792 
 PHE793  MET794  SER795  GLU796  ALA797  LYS798  CYS799  TRP800  GLU811  SER814 

> <Gold.Protein.RotatedAtoms>
  151.7185  133.3314  159.3308 H   0  0  0  0  0  0  0  0  0  0  0  0  # atno 6907 bound_to 6896
  150.7663  134.6469  159.6276 H   0  0  0  0  0  0  0  0  0  0  0  0  # atno 6908 bound_to 6896
  152.3667  134.6797  160.0241 H   0  0  0  0  0  0  0  0  0  0  0  0  # atno 6909 bound_to 6896
  145.3378  139.2470  143.3626 H   0  0  0  0  0  0  0  0  0  0  0  0  # atno 7974 bound_to 7965
  155.8668  140.3451  155.5794 H   0  0  0  0  0  0  0  0  0  0  0  0  # atno 8008 bound_to 7997
  155.7872  140.0866  157.2047 H   0  0  0  0  0  0  0  0  0  0  0  0  # atno 8009 bound_to 7997
  154.4015  140.1490  156.3108 H   0  0  0  0  0  0  0  0  0  0  0  0  # atno 8010 bound_to 7997
  140.2476  144.3515  150.6359 H   0  0  0  0  0  0  0  0  0  0  0  0  # atno 10167 bound_to 10162
  156.9673  131.0079  151.2913 H   0  0  0  0  0  0  0  0  0  0  0  0  # atno 10718 bound_to 10713
  154.3959  135.2754  155.2126 H   0  0  0  0  0  0  0  0  0  0  0  0  # atno 10763 bound_to 10752
  154.4172  135.6008  153.5992 H   0  0  0  0  0  0  0  0  0  0  0  0  # atno 10764 bound_to 10752
  152.9831  135.5964  154.4221 H   0  0  0  0  0  0  0  0  0  0  0  0  # atno 10765 bound_to 10752
  139.8876  134.8548  156.3134 H   0  0  0  0  0  0  0  0  0  0  0  0  # atno 11005 bound_to 11000
  146.3019  140.3969  142.8701 LP  0  0  0  0  0  0  0  0  0  0  0  0  # atno 17320 bound_to 7965
  144.8814  140.7405  143.5984 LP  0  0  0  0  0  0  0  0  0  0  0  0  # atno 17321 bound_to 7965
  140.6066  143.2168  151.6969 LP  0  0  0  0  0  0  0  0  0  0  0  0  # atno 17342 bound_to 10162
  139.5057  144.3709  152.0471 LP  0  0  0  0  0  0  0  0  0  0  0  0  # atno 17343 bound_to 10162
  157.5617  130.8250  149.8274 LP  0  0  0  0  0  0  0  0  0  0  0  0  # atno 17370 bound_to 10713
  156.0297  130.3768  150.1722 LP  0  0  0  0  0  0  0  0  0  0  0  0  # atno 17371 bound_to 10713
  140.9835  133.7252  156.0707 LP  0  0  0  0  0  0  0  0  0  0  0  0  # atno 17394 bound_to 11000
  140.7718  134.3824  157.5506 LP  0  0  0  0  0  0  0  0  0  0  0  0  # atno 17395 bound_to 11000

$$$$
