AV-unprocessed.smi:2965|AV-procd|sdf|11323|dock6
  -GOLD-   2272016233D 1   1.00000     0.00000
 Structure written by MMmdl.
 36 37  0  0  0  0  0  0  0  0  1 V2000
  149.2580  141.1947  156.9616 O   0  0  0  0  0  0  0  0  0  0  0  0
  149.9970  140.9821  155.9993 C   0  0  0  0  0  0  0  0  0  0  0  0
  151.5225  140.9719  156.1695 C   0  0  0  0  0  0  0  0  0  0  0  0
  151.9533  141.3164  157.5348 N   0  0  0  0  0  0  0  0  0  0  0  0
  151.5535  142.5703  158.0369 C   0  0  0  0  0  0  0  0  0  0  0  0
  151.8878  143.0082  159.2658 C   0  0  0  0  0  0  0  0  0  0  0  0
  151.3878  144.3415  159.8003 C   0  0  0  0  0  0  0  0  0  0  0  0
  151.8060  144.5480  161.0493 F   0  0  0  0  0  0  0  0  0  0  0  0
  151.8456  145.3346  159.0394 F   0  0  0  0  0  0  0  0  0  0  0  0
  150.0553  144.3930  159.7905 F   0  0  0  0  0  0  0  0  0  0  0  0
  152.6701  142.1014  160.0832 C   0  0  0  0  0  0  0  0  0  0  0  0
  153.0489  140.8929  159.6232 C   0  0  0  0  0  0  0  0  0  0  0  0
  152.6910  140.4377  158.2779 C   0  0  0  0  0  0  0  0  0  0  0  0
  153.0311  139.3356  157.8464 O   0  0  0  0  0  0  0  0  0  0  0  0
  149.5427  140.7587  154.7570 N   0  0  0  0  0  0  0  0  0  0  0  0
  148.1378  140.6892  154.3688 C   0  0  0  0  0  0  0  0  0  0  0  0
  147.3941  141.9961  154.6936 C   0  0  1  0  0  0  0  0  0  0  0  0
  146.1367  142.2544  153.8633 C   0  0  0  0  0  0  0  0  0  0  0  0
  145.3801  143.2116  154.7548 C   0  0  0  0  0  0  0  0  0  0  0  0
  145.6844  142.6592  156.1454 C   0  0  0  0  0  0  0  0  0  0  0  0
  146.9353  141.9818  156.0420 O   0  0  0  0  0  0  0  0  0  0  0  0
  151.9148  139.9914  155.8922 H   0  0  0  0  0  0  0  0  0  0  0  0
  151.9501  141.6651  155.4438 H   0  0  0  0  0  0  0  0  0  0  0  0
  150.9447  143.1522  157.3602 H   0  0  0  0  0  0  0  0  0  0  0  0
  152.9601  142.3963  161.0807 H   0  0  0  0  0  0  0  0  0  0  0  0
  153.6317  140.2433  160.2598 H   0  0  0  0  0  0  0  0  0  0  0  0
  150.2222  140.6027  154.0265 H   0  0  0  0  0  0  0  0  0  0  0  0
  148.0325  140.4403  153.3115 H   0  0  0  0  0  0  0  0  0  0  0  0
  147.6827  139.8670  154.9215 H   0  0  0  0  0  0  0  0  0  0  0  0
  148.0719  142.8451  154.5890 H   0  0  0  0  0  0  0  0  0  0  0  0
  146.3526  142.6674  152.8774 H   0  0  0  0  0  0  0  0  0  0  0  0
  145.5648  141.3345  153.7330 H   0  0  0  0  0  0  0  0  0  0  0  0
  145.7894  144.2176  154.6516 H   0  0  0  0  0  0  0  0  0  0  0  0
  144.3129  143.2521  154.5354 H   0  0  0  0  0  0  0  0  0  0  0  0
  145.7205  143.4447  156.9009 H   0  0  0  0  0  0  0  0  0  0  0  0
  144.9249  141.9365  156.4453 H   0  0  0  0  0  0  0  0  0  0  0  0
  1  2  2  0  0  0  0
  2  3  1  0  0  0  0
  2 15  1  0  0  0  0
  3  4  1  0  0  0  0
  3 22  1  0  0  0  0
  3 23  1  0  0  0  0
  4 13  1  0  0  0  0
  4  5  1  0  0  0  0
  5  6  2  0  0  0  0
  5 24  1  0  0  0  0
  6  7  1  0  0  0  0
  6 11  1  0  0  0  0
  7  8  1  0  0  0  0
  7  9  1  0  0  0  0
  7 10  1  0  0  0  0
 11 12  2  0  0  0  0
 11 25  1  0  0  0  0
 12 13  1  0  0  0  0
 12 26  1  0  0  0  0
 13 14  2  0  0  0  0
 15 16  1  0  0  0  0
 15 27  1  0  0  0  0
 16 17  1  0  0  0  0
 16 28  1  0  0  0  0
 16 29  1  0  0  0  0
 17 21  1  0  0  0  0
 17 18  1  0  0  0  0
 17 30  1  0  0  0  0
 18 19  1  0  0  0  0
 18 31  1  0  0  0  0
 18 32  1  0  0  0  0
 19 20  1  0  0  0  0
 19 33  1  0  0  0  0
 19 34  1  0  0  0  0
 20 21  1  0  0  0  0
 20 35  1  0  0  0  0
 20 36  1  0  0  0  0
M  END
> <s_m_source_file>
AV-unprocessed.smi

> <i_m_source_file_index>
2965

> <i_lp_mmshare_version>
43012

> <i_f3d_flags>
0

> <s_epik_input>
TzFbQ0gyXVtDSDJdW0NIMl1bQ0BIXTFbQ0gyXVtOSF1DKD1PKVtDSDJdbjJbY0hdYyhDKEYpKEYpRilbY0hdW2NIXWMyPU8=

> <s_epik_cmdline>
J2VwaWtfcHl0aG9uJywgJy1waCcsICc3LjAnLCAnLXRuJywgJzgnLCAnLW1hJywgJzIwMCcsICctbWV0YWxfYmluZGluZycsICctaW1hZScsICc8aW5maWxlLm1hZT4nLCAnLW9tYWUnLCAnPG91dGZpbGUubWFlPic=

> <r_lp_tautomer_probability>
1

> <r_epik_Ionization_Penalty>
4.53327e-08

> <r_epik_Ionization_Penalty_Charging>
1.84737e-08

> <r_epik_Ionization_Penalty_Neutral>
2.6859e-08

> <r_epik_State_Penalty>
-0

> <r_epik_Charging_Adjusted_Penalty>
1.84737e-08

> <i_epik_Tot_Q>
0

> <i_epik_Tot_abs_Q>
0

> <r_epik_Metal_State_Penalty>
-0

> <b_epik_Metal_Only>
0

> <s_lp_Force_Field>
OPLS_2005

> <r_lp_Energy>
29.2256

> <b_lp_Chiralities_Consistent>
1

> <s_lp_Variant>
AV-unprocessed.smi:2965-2

> <Gold.Version>
5.8.1

> <Gold.Id.Protein>
6NUR|6NUR_protein|mol2

> <Gold.PLP.Fitness>
46.4785

> <Gold.PLP.PLP>
-45.5147

> <Gold.PLP.part.hbond>
-0.9929

> <Gold.PLP.part.metal>
0.0000

> <Gold.PLP.part.buried>
-6.6092

> <Gold.PLP.part.nonpolar>
-38.9314

> <Gold.PLP.part.repulsive>
0.3677

> <Gold.PLP.ligand.clash>
0.0000

> <Gold.PLP.ligand.torsion>
0.2995

> <Gold.PLP.Chemscore.Hbond>
0.4956

> <Gold.PLP.Chemscore.CHOScore>
0.0000

> <Gold.PLP.Chemscore.Metal>
0.0000

> <Gold.Chemscore.Hbonds>
donor molecule, donor type, donor heavy atom, donor atom, acceptor molecule, acceptor atom, score
      P1  H  7997  8010       L1    14  0.65

> <Gold.PLP.Chemscore.Internal.Correction>
0.0758

> <Gold.Rescore>
     Score         DG    S(hbond)    S(metal)    S(lipo)     H(rot)  DE(clash)    DE(int)     intcor
      8.83     -13.07       0.65        0.00      87.18       1.87       1.10       3.14       ----

> <Gold.Chemscore.Fitness>
8.8323

> <Gold.Chemscore.DG>
-13.0732

> <Gold.Chemscore.ZeroCoef>
-5.4800

> <Gold.Chemscore.Hbond>
0.6512

> <Gold.Chemscore.Metal>
0.0000

> <Gold.Chemscore.Lipo>
87.1820

> <Gold.Chemscore.Internal_Hbond>
0.0000

> <Gold.Chemscore.DEClash>
1.0974

> <Gold.Chemscore.DEInternal>
3.1435

> <Gold.Chemscore.Rot>
1.8681

> <Gold.Chemscore.Internal.Correction>
   9.000000E+99

> <Gold.Chemscore.Hbonds>
donor molecule, donor type, donor heavy atom, donor atom, acceptor molecule, acceptor atom, score
      P1  H  7997  8010       L1    14  0.06

> <Gold.Chemscore.Hbond.Weighted>
-2.1752

> <Gold.Chemscore.Metal.Weighted>
-0.0000

> <Gold.Chemscore.Lipo.Weighted>
-10.2003

> <Gold.Chemscore.Internal_Hbond.Weighted>
0.0000

> <Gold.Chemscore.DEClash.Weighted>
1.0974

> <Gold.Chemscore.DEInternal.Weighted>
3.1435

> <Gold.Chemscore.Rot.Weighted>
4.7822

> <Gold.Chemscore.Internal.Correction.Weighted>
   9.000000E+99

> <Gold.Protein.RotatedTorsions>
[ 6907 6896 6895 6894 ] final   54.79 input  -60.11 | X-H torsion
[ 7974 7965 7964 7962 ] final  -61.77 input  175.53 | X-H torsion
[ 8008 7997 7996 7995 ] final   34.45 input   59.86 | X-H torsion
[ 10167 10162 10161 10158 ] final   56.86 input  -65.29 | X-H torsion
[ 10718 10713 10712 10709 ] final  -35.30 input   66.30 | X-H torsion
[ 10763 10752 10751 10750 ] final  -10.03 input  -60.55 | X-H torsion
[ 11005 11000 10999 10996 ] final   70.76 input  -57.11 | X-H torsion

> <Gold.Protein.ActiveResidues>
 VAL166  LYS551  ARG553  GLY616  TRP617  ASP618  TYR619  PRO620  LYS621  CYS622 
 ASP623  PHE694  ASN695  SER759  ASP760  ASP761  ALA762  ILE779  LEU786  VAL792 
 PHE793  MET794  SER795  GLU796  ALA797  LYS798  CYS799  TRP800  GLU811  SER814 

> <Gold.Protein.RotatedAtoms>
  152.3474  134.7053  160.0246 H   0  0  0  0  0  0  0  0  0  0  0  0  # atno 6907 bound_to 6896
  151.7418  133.3317  159.3376 H   0  0  0  0  0  0  0  0  0  0  0  0  # atno 6908 bound_to 6896
  150.7518  134.6204  159.6178 H   0  0  0  0  0  0  0  0  0  0  0  0  # atno 6909 bound_to 6896
  145.7994  140.8664  143.0239 H   0  0  0  0  0  0  0  0  0  0  0  0  # atno 7974 bound_to 7965
  155.1551  140.3278  155.4423 H   0  0  0  0  0  0  0  0  0  0  0  0  # atno 8008 bound_to 7997
  156.2561  140.1970  156.6611 H   0  0  0  0  0  0  0  0  0  0  0  0  # atno 8009 bound_to 7997
  154.6445  140.0566  156.9871 H   0  0  0  0  0  0  0  0  0  0  0  0  # atno 8010 bound_to 7997
  140.2042  144.3957  150.6516 H   0  0  0  0  0  0  0  0  0  0  0  0  # atno 10167 bound_to 10162
  156.3402  130.4292  149.7794 H   0  0  0  0  0  0  0  0  0  0  0  0  # atno 10718 bound_to 10713
  153.4633  135.7016  153.6037 H   0  0  0  0  0  0  0  0  0  0  0  0  # atno 10763 bound_to 10752
  153.4323  135.3800  155.2178 H   0  0  0  0  0  0  0  0  0  0  0  0  # atno 10764 bound_to 10752
  154.8727  135.3953  154.4061 H   0  0  0  0  0  0  0  0  0  0  0  0  # atno 10765 bound_to 10752
  139.9580  134.7111  156.0710 H   0  0  0  0  0  0  0  0  0  0  0  0  # atno 11005 bound_to 11000
  144.6771  140.0237  143.7483 LP  0  0  0  0  0  0  0  0  0  0  0  0  # atno 17320 bound_to 7965
  145.9893  139.3002  143.0994 LP  0  0  0  0  0  0  0  0  0  0  0  0  # atno 17321 bound_to 7965
  140.6369  143.2196  151.6375 LP  0  0  0  0  0  0  0  0  0  0  0  0  # atno 17342 bound_to 10162
  139.5205  144.3220  152.0902 LP  0  0  0  0  0  0  0  0  0  0  0  0  # atno 17343 bound_to 10162
  156.5033  130.8139  151.3141 LP  0  0  0  0  0  0  0  0  0  0  0  0  # atno 17370 bound_to 10713
  157.7445  130.9937  150.2683 LP  0  0  0  0  0  0  0  0  0  0  0  0  # atno 17371 bound_to 10713
  141.1254  133.6601  156.3322 LP  0  0  0  0  0  0  0  0  0  0  0  0  # atno 17394 bound_to 11000
  140.5565  134.5976  157.5422 LP  0  0  0  0  0  0  0  0  0  0  0  0  # atno 17395 bound_to 11000

$$$$
