AV-unprocessed.smi:1047|AV-procd|sdf|4588|dock2
  -GOLD-   22720 3 63D 1   1.00000     0.00000
 Structure written by MMmdl.
 57 59  0  0  0  0  0  0  0  0  3 V2000
  147.5910  136.8229  161.8527 C   0  0  0  0  0  0  0  0  0  0  0  0
  147.0011  136.9105  160.4378 C   0  0  0  0  0  0  0  0  0  0  0  0
  147.9236  137.3967  159.4128 N   0  0  0  0  0  0  0  0  0  0  0  0
  149.2854  136.9048  159.6053 C   0  0  0  0  0  0  0  0  0  0  0  0
  150.2338  137.3981  158.4998 C   0  0  0  0  0  0  0  0  0  0  0  0
  149.7216  137.0220  157.2255 O   0  0  0  0  0  0  0  0  0  0  0  0
  148.4142  137.5332  156.9759 C   0  0  1  0  0  0  0  0  0  0  0  0
  147.9781  137.0620  155.5820 C   0  0  0  0  0  0  0  0  0  0  0  0
  149.1062  137.0975  154.6303 N   0  3  0  0  0  0  0  0  0  0  0  0
  149.6059  138.4576  154.3464 C   0  0  0  0  0  0  0  0  0  0  0  0
  151.1447  138.5246  154.4056 C   0  0  2  0  0  0  0  0  0  0  0  0
  151.6767  137.2519  154.0974 O   0  0  0  0  0  0  0  0  0  0  0  0
  151.6991  138.9273  155.7877 C   0  0  0  0  0  0  0  0  0  0  0  0
  151.3231  140.2912  156.1878 N   0  0  0  0  0  0  0  0  0  0  0  0
  150.5015  141.1795  155.5645 C   0  0  0  0  0  0  0  0  0  0  0  0
  150.4760  142.3143  156.3164 N   0  3  0  0  0  0  0  0  0  0  0  0
  151.2974  142.1521  157.4337 C   0  0  0  0  0  0  0  0  0  0  0  0
  151.5919  143.0198  158.4787 C   0  0  0  0  0  0  0  0  0  0  0  0
  152.4734  142.5502  159.4783 C   0  0  0  0  0  0  0  0  0  0  0  0
  152.8138  143.4725  160.6369 C   0  0  0  0  0  0  0  0  0  0  0  0
  153.0302  141.2472  159.4064 C   0  0  0  0  0  0  0  0  0  0  0  0
  153.9766  140.7521  160.4869 C   0  0  0  0  0  0  0  0  0  0  0  0
  152.7186  140.3798  158.3348 C   0  0  0  0  0  0  0  0  0  0  0  0
  151.8474  140.8571  157.3576 C   0  0  0  0  0  0  0  0  0  0  0  0
  147.4677  137.0199  158.0795 C   0  0  0  0  0  0  0  0  0  0  0  0
  146.8156  136.5657  162.5744 H   0  0  0  0  0  0  0  0  0  0  0  0
  148.0244  137.7754  162.1587 H   0  0  0  0  0  0  0  0  0  0  0  0
  148.3647  136.0587  161.9253 H   0  0  0  0  0  0  0  0  0  0  0  0
  146.6040  135.9360  160.1493 H   0  0  0  0  0  0  0  0  0  0  0  0
  146.1427  137.5819  160.4839 H   0  0  0  0  0  0  0  0  0  0  0  0
  149.6741  137.2333  160.5689 H   0  0  0  0  0  0  0  0  0  0  0  0
  149.2864  135.8138  159.6225 H   0  0  0  0  0  0  0  0  0  0  0  0
  150.3512  138.4818  158.5472 H   0  0  0  0  0  0  0  0  0  0  0  0
  151.2245  136.9624  158.6288 H   0  0  0  0  0  0  0  0  0  0  0  0
  148.4392  138.6244  156.9992 H   0  0  0  0  0  0  0  0  0  0  0  0
  147.5726  136.0508  155.6379 H   0  0  0  0  0  0  0  0  0  0  0  0
  147.1840  137.7069  155.2031 H   0  0  0  0  0  0  0  0  0  0  0  0
  149.8635  136.5460  155.0077 H   0  0  0  0  0  0  0  0  0  0  0  0
  149.2579  138.7309  153.3502 H   0  0  0  0  0  0  0  0  0  0  0  0
  149.1640  139.1696  155.0452 H   0  0  0  0  0  0  0  0  0  0  0  0
  151.5086  139.2349  153.6617 H   0  0  0  0  0  0  0  0  0  0  0  0
  151.2766  136.9331  153.3029 H   0  0  0  0  0  0  0  0  0  0  0  0
  151.3876  138.2233  156.5594 H   0  0  0  0  0  0  0  0  0  0  0  0
  152.7896  138.8935  155.7724 H   0  0  0  0  0  0  0  0  0  0  0  0
  149.9677  141.0154  154.6391 H   0  0  0  0  0  0  0  0  0  0  0  0
  151.1650  144.0111  158.5265 H   0  0  0  0  0  0  0  0  0  0  0  0
  152.5480  143.0089  161.5872 H   0  0  0  0  0  0  0  0  0  0  0  0
  152.2745  144.4179  160.5668 H   0  0  0  0  0  0  0  0  0  0  0  0
  153.8807  143.6969  160.6463 H   0  0  0  0  0  0  0  0  0  0  0  0
  154.3541  139.7543  160.2609 H   0  0  0  0  0  0  0  0  0  0  0  0
  153.4661  140.7058  161.4492 H   0  0  0  0  0  0  0  0  0  0  0  0
  154.8351  141.4176  160.5812 H   0  0  0  0  0  0  0  0  0  0  0  0
  153.1429  139.3880  158.2870 H   0  0  0  0  0  0  0  0  0  0  0  0
  147.3861  135.9335  158.0118 H   0  0  0  0  0  0  0  0  0  0  0  0
  146.4667  137.4174  157.9083 H   0  0  0  0  0  0  0  0  0  0  0  0
  148.8021  136.6784  153.7629 H   0  0  0  0  0  0  0  0  0  0  0  0
  149.9401  143.1399  156.0800 H   0  0  0  0  0  0  0  0  0  0  0  0
  1  2  1  0  0  0  0
  1 26  1  0  0  0  0
  1 27  1  0  0  0  0
  1 28  1  0  0  0  0
  2  3  1  0  0  0  0
  2 29  1  0  0  0  0
  2 30  1  0  0  0  0
  3 25  1  0  0  0  0
  3  4  1  0  0  0  0
  4  5  1  0  0  0  0
  4 31  1  0  0  0  0
  4 32  1  0  0  0  0
  5  6  1  0  0  0  0
  5 33  1  0  0  0  0
  5 34  1  0  0  0  0
  6  7  1  0  0  0  0
  7  8  1  0  0  0  0
  7 25  1  0  0  0  0
  7 35  1  0  0  0  0
  8  9  1  0  0  0  0
  8 36  1  0  0  0  0
  8 37  1  0  0  0  0
  9 10  1  0  0  0  0
  9 38  1  0  0  0  0
  9 56  1  0  0  0  0
 10 11  1  0  0  0  0
 10 39  1  0  0  0  0
 10 40  1  0  0  0  0
 11 12  1  0  0  0  0
 11 13  1  0  0  0  0
 11 41  1  0  0  0  0
 12 42  1  0  0  0  0
 13 14  1  0  0  0  0
 13 43  1  0  0  0  0
 13 44  1  0  0  0  0
 14 24  1  0  0  0  0
 14 15  1  0  0  0  0
 15 16  2  0  0  0  0
 15 45  1  0  0  0  0
 16 17  1  0  0  0  0
 16 57  1  0  0  0  0
 17 24  2  0  0  0  0
 17 18  1  0  0  0  0
 18 19  2  0  0  0  0
 18 46  1  0  0  0  0
 19 20  1  0  0  0  0
 19 21  1  0  0  0  0
 20 47  1  0  0  0  0
 20 48  1  0  0  0  0
 20 49  1  0  0  0  0
 21 22  1  0  0  0  0
 21 23  2  0  0  0  0
 22 50  1  0  0  0  0
 22 51  1  0  0  0  0
 22 52  1  0  0  0  0
 23 24  1  0  0  0  0
 23 53  1  0  0  0  0
 25 54  1  0  0  0  0
 25 55  1  0  0  0  0
M  CHG  1   9   1
M  CHG  1  16   1
M  END
> <s_m_source_file>
AV-unprocessed.smi

> <i_m_source_file_index>
1047

> <i_lp_mmshare_version>
43012

> <i_f3d_flags>
0

> <s_epik_input>
W0NIM11bQ0gyXU4xW0NIMl1bQ0gyXU9bQ0BIXShbQ0gyXTEpW0NIMl1bTkhdW0NIMl1bQ0BIXShbT0hdKVtDSDJdbihbY0hdbjIpYyhjMjMpW2NIXWMoW0NIM10pYyhbY0hdMylbQ0gzXQ==

> <s_epik_cmdline>
J2VwaWtfcHl0aG9uJywgJy1waCcsICc3LjAnLCAnLXRuJywgJzgnLCAnLW1hJywgJzIwMCcsICctbWV0YWxfYmluZGluZycsICctaW1hZScsICc8aW5maWxlLm1hZT4nLCAnLW9tYWUnLCAnPG91dGZpbGUubWFlPic=

> <r_epik_Ionization_Penalty>
1.75732

> <r_epik_Ionization_Penalty_Charging>
1.18089

> <r_epik_Ionization_Penalty_Neutral>
0.576429

> <r_epik_State_Penalty>
1.69377

> <r_epik_Charging_Adjusted_Penalty>
2.87466

> <i_epik_Tot_Q>
2

> <i_epik_Tot_abs_Q>
2

> <r_epik_Metal_State_Penalty>
5.70174

> <b_epik_Metal_Only>
0

> <s_lp_Force_Field>
OPLS_2005

> <r_lp_Energy>
42.0789

> <b_lp_Chiralities_Consistent>
1

> <s_lp_Variant>
AV-unprocessed.smi:1047-29

> <Gold.Version>
5.8.1

> <Gold.Id.Protein>
6NUR|6NUR_protein|mol2

> <Gold.PLP.Fitness>
61.0120

> <Gold.PLP.PLP>
-45.8092

> <Gold.PLP.part.hbond>
-3.9953

> <Gold.PLP.part.metal>
0.0000

> <Gold.PLP.part.buried>
-6.0859

> <Gold.PLP.part.nonpolar>
-36.6991

> <Gold.PLP.part.repulsive>
0.0755

> <Gold.PLP.ligand.clash>
0.0000

> <Gold.PLP.ligand.torsion>
1.2268

> <Gold.PLP.Chemscore.Hbond>
5.8426

> <Gold.PLP.Chemscore.CHOScore>
0.0000

> <Gold.PLP.Chemscore.Metal>
0.0000

> <Gold.Chemscore.Hbonds>
donor molecule, donor type, donor heavy atom, donor atom, acceptor molecule, acceptor atom, score
      L1  H     9    56       P1  7948  2.00
      L1  H    12    42       P1  7949  0.96
      L1  H    16    57       P1  8028  2.00
      P1  H 10752 10764       L1    12  0.77

> <Gold.PLP.Chemscore.Internal.Correction>
0.1288

> <Gold.Rescore>
     Score         DG    S(hbond)    S(metal)    S(lipo)     H(rot)  DE(clash)    DE(int)     intcor
     21.18     -22.41       2.96        0.00     119.08       2.69       0.05       1.18       ----

> <Gold.Chemscore.Fitness>
21.1823

> <Gold.Chemscore.DG>
-22.4059

> <Gold.Chemscore.ZeroCoef>
-5.4800

> <Gold.Chemscore.Hbond>
2.9594

> <Gold.Chemscore.Metal>
0.0000

> <Gold.Chemscore.Lipo>
119.0788

> <Gold.Chemscore.Internal_Hbond>
0.0000

> <Gold.Chemscore.DEClash>
0.0455

> <Gold.Chemscore.DEInternal>
1.1781

> <Gold.Chemscore.Rot>
2.6917

> <Gold.Chemscore.Internal.Correction>
   9.000000E+99

> <Gold.Chemscore.Hbonds>
donor molecule, donor type, donor heavy atom, donor atom, acceptor molecule, acceptor atom, score
      L1  H     9    56       P1  7948  0.97
      L1  H    12    42       P1  7949  0.59
      L1  H    16    57       P1  8028  0.99
      P1  H 10752 10764       L1    12  0.10

> <Gold.Chemscore.Hbond.Weighted>
-9.8844

> <Gold.Chemscore.Metal.Weighted>
-0.0000

> <Gold.Chemscore.Lipo.Weighted>
-13.9322

> <Gold.Chemscore.Internal_Hbond.Weighted>
0.0000

> <Gold.Chemscore.DEClash.Weighted>
0.0455

> <Gold.Chemscore.DEInternal.Weighted>
1.1781

> <Gold.Chemscore.Rot.Weighted>
6.8907

> <Gold.Chemscore.Internal.Correction.Weighted>
   9.000000E+99

> <Gold.Protein.RotatedTorsions>
[ 6907 6896 6895 6894 ] final -154.95 input  -60.11 | X-H torsion
[ 7974 7965 7964 7962 ] final   14.10 input  175.53 | X-H torsion
[ 8008 7997 7996 7995 ] final -173.29 input   59.86 | X-H torsion
[ 10167 10162 10161 10158 ] final   16.72 input  -65.29 | X-H torsion
[ 10718 10713 10712 10709 ] final   77.84 input   66.30 | X-H torsion
[ 10763 10752 10751 10750 ] final  -73.45 input  -60.55 | X-H torsion
[ 11005 11000 10999 10996 ] final  176.71 input  -57.11 | X-H torsion

> <Gold.Protein.ActiveResidues>
 VAL166  LYS551  ARG553  GLY616  TRP617  ASP618  TYR619  PRO620  LYS621  CYS622 
 ASP623  PHE694  ASN695  SER759  ASP760  ASP761  ALA762  ILE779  LEU786  VAL792 
 PHE793  MET794  SER795  GLU796  ALA797  LYS798  CYS799  TRP800  GLU811  SER814 

> <Gold.Protein.RotatedAtoms>
  151.2652  133.4282  159.2617 H   0  0  0  0  0  0  0  0  0  0  0  0  # atno 6907 bound_to 6896
  151.0494  134.9663  159.8214 H   0  0  0  0  0  0  0  0  0  0  0  0  # atno 6908 bound_to 6896
  152.5380  134.2607  159.8987 H   0  0  0  0  0  0  0  0  0  0  0  0  # atno 6909 bound_to 6896
  146.2313  139.9091  142.8527 H   0  0  0  0  0  0  0  0  0  0  0  0  # atno 7974 bound_to 7965
  155.9555  140.1134  157.0940 H   0  0  0  0  0  0  0  0  0  0  0  0  # atno 8008 bound_to 7997
  154.4119  140.1192  156.5176 H   0  0  0  0  0  0  0  0  0  0  0  0  # atno 8009 bound_to 7997
  155.6788  140.3473  155.4849 H   0  0  0  0  0  0  0  0  0  0  0  0  # atno 8010 bound_to 7997
  140.5777  143.9040  150.6764 H   0  0  0  0  0  0  0  0  0  0  0  0  # atno 10167 bound_to 10162
  157.6724  130.9840  150.1700 H   0  0  0  0  0  0  0  0  0  0  0  0  # atno 10718 bound_to 10713
  154.4596  135.5897  153.6247 H   0  0  0  0  0  0  0  0  0  0  0  0  # atno 10763 bound_to 10752
  152.9822  135.6040  154.3502 H   0  0  0  0  0  0  0  0  0  0  0  0  # atno 10764 bound_to 10752
  154.3373  135.2842  155.2420 H   0  0  0  0  0  0  0  0  0  0  0  0  # atno 10765 bound_to 10752
  140.3761  134.6987  157.4422 H   0  0  0  0  0  0  0  0  0  0  0  0  # atno 11005 bound_to 11000
  145.2247  140.9949  143.4025 LP  0  0  0  0  0  0  0  0  0  0  0  0  # atno 17320 bound_to 7965
  144.9580  139.4010  143.6369 LP  0  0  0  0  0  0  0  0  0  0  0  0  # atno 17321 bound_to 7965
  140.2532  143.3578  152.1388 LP  0  0  0  0  0  0  0  0  0  0  0  0  # atno 17342 bound_to 10162
  139.5152  144.6959  151.5631 LP  0  0  0  0  0  0  0  0  0  0  0  0  # atno 17343 bound_to 10162
  156.2456  130.3695  149.8288 LP  0  0  0  0  0  0  0  0  0  0  0  0  # atno 17370 bound_to 10713
  156.6076  130.8573  151.3446 LP  0  0  0  0  0  0  0  0  0  0  0  0  # atno 17371 bound_to 10713
  140.0514  134.6125  155.8857 LP  0  0  0  0  0  0  0  0  0  0  0  0  # atno 17394 bound_to 11000
  141.1939  133.6580  156.5568 LP  0  0  0  0  0  0  0  0  0  0  0  0  # atno 17395 bound_to 11000

$$$$
