AV-unprocessed.smi:2764|AV-procd|sdf|10640|dock8
  -GOLD-   2272015 93D 1   1.00000     0.00000
 Structure written by MMmdl.
 47 49  0  0  0  0  0  0  0  0  2 V2000
  148.0388  141.3048  156.0073 O   0  0  0  0  0  0  0  0  0  0  0  0
  148.9189  140.4477  156.0869 C   0  0  0  0  0  0  0  0  0  0  0  0
  150.0791  140.5875  156.7524 N   0  0  0  0  0  0  0  0  0  0  0  0
  150.5200  141.6945  157.5260 C   0  0  0  0  0  0  0  0  0  0  0  0
  151.7988  141.5448  158.1094 C   0  0  0  0  0  0  0  0  0  0  0  0
  152.3256  142.5843  158.9007 C   0  0  0  0  0  0  0  0  0  0  0  0
  151.5571  143.7468  159.0877 C   0  0  0  0  0  0  0  0  0  0  0  0
  152.0209  144.7718  159.8411 F   0  0  0  0  0  0  0  0  0  0  0  0
  150.2938  143.8170  158.4722 C   0  0  0  0  0  0  0  0  0  0  0  0
  149.7879  142.8216  157.7130 N   0  0  0  0  0  0  0  0  0  0  0  0
  148.8362  139.2375  155.5092 N   0  0  0  0  0  0  0  0  0  0  0  0
  147.7279  138.7013  154.7152 C   0  0  2  0  0  0  0  0  0  0  0  0
  147.5983  137.1699  154.8256 C   0  0  0  0  0  0  0  0  0  0  0  0
  146.4026  136.6615  154.0023 C   0  0  0  0  0  0  0  0  0  0  0  0
  146.5085  137.0868  152.5814 N   0  3  1  0  0  0  0  0  0  0  0  0
  145.4567  136.4880  151.7189 C   0  0  0  0  0  0  0  0  0  0  0  0
  145.4088  134.9532  151.8462 C   0  0  2  0  0  0  0  0  0  0  0  0
  146.4973  134.1993  151.1059 C   0  0  0  0  0  0  0  0  0  0  0  0
  145.9040  132.7973  150.9992 C   0  0  0  0  0  0  0  0  0  0  0  0
  144.4909  132.9722  150.9611 O   0  0  0  0  0  0  0  0  0  0  0  0
  144.1614  134.3332  151.2159 C   0  0  0  0  0  0  0  0  0  0  0  0
  146.5875  138.5669  152.4585 C   0  0  0  0  0  0  0  0  0  0  0  0
  147.7925  139.1231  153.2341 C   0  0  0  0  0  0  0  0  0  0  0  0
  150.7147  139.8044  156.7170 H   0  0  0  0  0  0  0  0  0  0  0  0
  152.3746  140.6436  157.9559 H   0  0  0  0  0  0  0  0  0  0  0  0
  153.3005  142.4896  159.3558 H   0  0  0  0  0  0  0  0  0  0  0  0
  149.6724  144.6921  158.5924 H   0  0  0  0  0  0  0  0  0  0  0  0
  149.6217  138.6162  155.6384 H   0  0  0  0  0  0  0  0  0  0  0  0
  146.8266  139.1407  155.1447 H   0  0  0  0  0  0  0  0  0  0  0  0
  148.5050  136.6797  154.4700 H   0  0  0  0  0  0  0  0  0  0  0  0
  147.4778  136.8775  155.8693 H   0  0  0  0  0  0  0  0  0  0  0  0
  146.3723  135.5726  154.0595 H   0  0  0  0  0  0  0  0  0  0  0  0
  145.4666  137.0296  154.4257 H   0  0  0  0  0  0  0  0  0  0  0  0
  144.4797  136.8704  152.0190 H   0  0  0  0  0  0  0  0  0  0  0  0
  145.5836  136.7962  150.6796 H   0  0  0  0  0  0  0  0  0  0  0  0
  145.4355  134.6716  152.9005 H   0  0  0  0  0  0  0  0  0  0  0  0
  146.6424  134.6179  150.1088 H   0  0  0  0  0  0  0  0  0  0  0  0
  147.4563  134.2062  151.6246 H   0  0  0  0  0  0  0  0  0  0  0  0
  146.2632  132.2611  150.1207 H   0  0  0  0  0  0  0  0  0  0  0  0
  146.1559  132.2087  151.8821 H   0  0  0  0  0  0  0  0  0  0  0  0
  143.2836  134.4160  151.8572 H   0  0  0  0  0  0  0  0  0  0  0  0
  143.9297  134.8138  150.2643 H   0  0  0  0  0  0  0  0  0  0  0  0
  146.6727  138.8548  151.4116 H   0  0  0  0  0  0  0  0  0  0  0  0
  145.6644  139.0138  152.8314 H   0  0  0  0  0  0  0  0  0  0  0  0
  147.8131  140.2105  153.1542 H   0  0  0  0  0  0  0  0  0  0  0  0
  148.7087  138.7608  152.7671 H   0  0  0  0  0  0  0  0  0  0  0  0
  147.3879  136.7178  152.2484 H   0  0  0  0  0  0  0  0  0  0  0  0
  1  2  2  0  0  0  0
  2  3  1  0  0  0  0
  2 11  1  0  0  0  0
  3  4  1  0  0  0  0
  3 24  1  0  0  0  0
  4 10  1  0  0  0  0
  4  5  2  0  0  0  0
  5  6  1  0  0  0  0
  5 25  1  0  0  0  0
  6  7  2  0  0  0  0
  6 26  1  0  0  0  0
  7  8  1  0  0  0  0
  7  9  1  0  0  0  0
  9 10  2  0  0  0  0
  9 27  1  0  0  0  0
 11 12  1  0  0  0  0
 11 28  1  0  0  0  0
 12 23  1  0  0  0  0
 12 13  1  0  0  0  0
 12 29  1  0  0  0  0
 13 14  1  0  0  0  0
 13 30  1  0  0  0  0
 13 31  1  0  0  0  0
 14 15  1  0  0  0  0
 14 32  1  0  0  0  0
 14 33  1  0  0  0  0
 15 16  1  0  0  0  0
 15 22  1  0  0  0  0
 15 47  1  0  0  0  0
 16 17  1  0  0  0  0
 16 34  1  0  0  0  0
 16 35  1  0  0  0  0
 17 21  1  0  0  0  0
 17 18  1  0  0  0  0
 17 36  1  0  0  0  0
 18 19  1  0  0  0  0
 18 37  1  0  0  0  0
 18 38  1  0  0  0  0
 19 20  1  0  0  0  0
 19 39  1  0  0  0  0
 19 40  1  0  0  0  0
 20 21  1  0  0  0  0
 21 41  1  0  0  0  0
 21 42  1  0  0  0  0
 22 23  1  0  0  0  0
 22 43  1  0  0  0  0
 22 44  1  0  0  0  0
 23 45  1  0  0  0  0
 23 46  1  0  0  0  0
M  CHG  1  15   1
M  END
> <s_m_source_file>
AV-unprocessed.smi

> <i_m_source_file_index>
2764

> <i_lp_mmshare_version>
43012

> <i_f3d_flags>
0

> <s_epik_input>
bjFbY0hdYyhGKVtjSF1bY0hdYzFbTkhdQyg9TylbTkhdW0NIXTJbQ0gyXVtDSDJdTihbQ0gyXVtDSDJdMilbQ0gyXVtDQEBIXTNbQ0gyXVtDSDJdT1tDSDJdMw==

> <s_epik_cmdline>
J2VwaWtfcHl0aG9uJywgJy1waCcsICc3LjAnLCAnLXRuJywgJzgnLCAnLW1hJywgJzIwMCcsICctbWV0YWxfYmluZGluZycsICctaW1hZScsICc8aW5maWxlLm1hZT4nLCAnLW9tYWUnLCAnPG91dGZpbGUubWFlPic=

> <r_epik_Ionization_Penalty>
0.0075076

> <r_epik_Ionization_Penalty_Charging>
0.00747775

> <r_epik_Ionization_Penalty_Neutral>
2.98483e-05

> <r_epik_State_Penalty>
0.00558817

> <r_epik_Charging_Adjusted_Penalty>
0.0130659

> <i_epik_Tot_Q>
1

> <i_epik_Tot_abs_Q>
1

> <r_epik_Metal_State_Penalty>
-0

> <b_epik_Metal_Only>
0

> <s_lp_Force_Field>
OPLS_2005

> <r_lp_Energy>
38.4399

> <b_lp_Chiralities_Consistent>
1

> <s_lp_Variant>
AV-unprocessed.smi:2764-1

> <Gold.Version>
5.8.1

> <Gold.Id.Protein>
6NUR|6NUR_protein|mol2

> <Gold.PLP.Fitness>
40.5286

> <Gold.PLP.PLP>
-32.4676

> <Gold.PLP.part.hbond>
-1.0000

> <Gold.PLP.part.metal>
0.0000

> <Gold.PLP.part.buried>
-3.4842

> <Gold.PLP.part.nonpolar>
-29.3832

> <Gold.PLP.part.repulsive>
1.7382

> <Gold.PLP.ligand.clash>
0.0000

> <Gold.PLP.ligand.torsion>
0.4792

> <Gold.PLP.Chemscore.Hbond>
2.0000

> <Gold.PLP.Chemscore.CHOScore>
0.9902

> <Gold.PLP.Chemscore.Metal>
0.0000

> <Gold.Chemscore.Hbonds>
donor molecule, donor type, donor heavy atom, donor atom, acceptor molecule, acceptor atom, score
      L1  H    15    47       P1  7948  2.00
      L1  C     9    27       P1  8029  0.99

> <Gold.PLP.Chemscore.Internal.Correction>
0.0486

> <Gold.Rescore>
     Score         DG    S(hbond)    S(metal)    S(lipo)     H(rot)  DE(clash)    DE(int)     intcor
     13.08     -14.87       1.00        0.00      84.29       1.49       0.03       1.76       ----

> <Gold.Chemscore.Fitness>
13.0772

> <Gold.Chemscore.DG>
-14.8698

> <Gold.Chemscore.ZeroCoef>
-5.4800

> <Gold.Chemscore.Hbond>
0.9999

> <Gold.Chemscore.Metal>
0.0000

> <Gold.Chemscore.Lipo>
84.2931

> <Gold.Chemscore.Internal_Hbond>
0.0000

> <Gold.Chemscore.DEClash>
0.0287

> <Gold.Chemscore.DEInternal>
1.7639

> <Gold.Chemscore.Rot>
1.4891

> <Gold.Chemscore.Internal.Correction>
   9.000000E+99

> <Gold.Chemscore.Hbonds>
donor molecule, donor type, donor heavy atom, donor atom, acceptor molecule, acceptor atom, score
      L1  H    15    47       P1  7948  1.00

> <Gold.Chemscore.Hbond.Weighted>
-3.3396

> <Gold.Chemscore.Metal.Weighted>
-0.0000

> <Gold.Chemscore.Lipo.Weighted>
-9.8623

> <Gold.Chemscore.Internal_Hbond.Weighted>
0.0000

> <Gold.Chemscore.DEClash.Weighted>
0.0287

> <Gold.Chemscore.DEInternal.Weighted>
1.7639

> <Gold.Chemscore.Rot.Weighted>
3.8121

> <Gold.Chemscore.Internal.Correction.Weighted>
   9.000000E+99

> <Gold.Protein.RotatedTorsions>
[ 6907 6896 6895 6894 ] final  -36.20 input  -60.11 | X-H torsion
[ 7974 7965 7964 7962 ] final  106.16 input  175.53 | X-H torsion
[ 8008 7997 7996 7995 ] final -147.32 input   59.86 | X-H torsion
[ 10167 10162 10161 10158 ] final   -6.69 input  -65.29 | X-H torsion
[ 10718 10713 10712 10709 ] final -150.73 input   66.30 | X-H torsion
[ 10763 10752 10751 10750 ] final  -55.39 input  -60.55 | X-H torsion
[ 11005 11000 10999 10996 ] final -105.38 input  -57.11 | X-H torsion

> <Gold.Protein.ActiveResidues>
 VAL166  LYS551  ARG553  GLY616  TRP617  ASP618  TYR619  PRO620  LYS621  CYS622 
 ASP623  PHE694  ASN695  SER759  ASP760  ASP761  ALA762  ILE779  LEU786  VAL792 
 PHE793  MET794  SER795  GLU796  ALA797  LYS798  CYS799  TRP800  GLU811  SER814 

> <Gold.Protein.RotatedAtoms>
  151.0302  134.9533  159.8106 H   0  0  0  0  0  0  0  0  0  0  0  0  # atno 6907 bound_to 6896
  152.5344  134.2790  159.9010 H   0  0  0  0  0  0  0  0  0  0  0  0  # atno 6908 bound_to 6896
  151.2800  133.4172  159.2660 H   0  0  0  0  0  0  0  0  0  0  0  0  # atno 6909 bound_to 6896
  145.3103  139.2542  143.3767 H   0  0  0  0  0  0  0  0  0  0  0  0  # atno 7974 bound_to 7965
  155.5737  140.0636  157.2800 H   0  0  0  0  0  0  0  0  0  0  0  0  # atno 8008 bound_to 7997
  154.4353  140.1864  156.0951 H   0  0  0  0  0  0  0  0  0  0  0  0  # atno 8009 bound_to 7997
  156.0357  140.3301  155.7192 H   0  0  0  0  0  0  0  0  0  0  0  0  # atno 8010 bound_to 7997
  140.7005  143.6165  150.8653 H   0  0  0  0  0  0  0  0  0  0  0  0  # atno 10167 bound_to 10162
  156.4499  130.8163  151.2394 H   0  0  0  0  0  0  0  0  0  0  0  0  # atno 10718 bound_to 10713
  154.1900  135.6429  153.5057 H   0  0  0  0  0  0  0  0  0  0  0  0  # atno 10763 bound_to 10752
  153.0037  135.5426  154.6424 H   0  0  0  0  0  0  0  0  0  0  0  0  # atno 10764 bound_to 10752
  154.5811  135.2925  155.0705 H   0  0  0  0  0  0  0  0  0  0  0  0  # atno 10765 bound_to 10752
  141.1056  133.8803  157.1727 H   0  0  0  0  0  0  0  0  0  0  0  0  # atno 11005 bound_to 11000
  146.3120  140.3637  142.8667 LP  0  0  0  0  0  0  0  0  0  0  0  0  # atno 17320 bound_to 7965
  144.9021  140.7656  143.5860 LP  0  0  0  0  0  0  0  0  0  0  0  0  # atno 17321 bound_to 7965
  139.9887  143.5871  152.2918 LP  0  0  0  0  0  0  0  0  0  0  0  0  # atno 17342 bound_to 10162
  139.6518  144.7661  151.2133 LP  0  0  0  0  0  0  0  0  0  0  0  0  # atno 17343 bound_to 10162
  157.7503  131.0141  150.3451 LP  0  0  0  0  0  0  0  0  0  0  0  0  # atno 17370 bound_to 10713
  156.3827  130.3883  149.7089 LP  0  0  0  0  0  0  0  0  0  0  0  0  # atno 17371 bound_to 10713
  139.9925  135.0059  157.0007 LP  0  0  0  0  0  0  0  0  0  0  0  0  # atno 17394 bound_to 11000
  140.4911  134.1192  155.7233 LP  0  0  0  0  0  0  0  0  0  0  0  0  # atno 17395 bound_to 11000

$$$$
