AV-unprocessed.smi:1508|AV-procd|sdf|6087|dock8
  -GOLD-   22720 6213D 1   1.00000     0.00000
 Structure written by MMmdl.
 38 39  0  0  0  0  0  0  0  0  2 V2000
  142.4271  135.2852  153.2455 C   0  0  0  0  0  0  0  0  0  0  0  0
  143.4774  135.9439  152.3384 C   0  0  0  0  0  0  0  0  0  0  0  0
  144.8093  135.1547  152.2145 C   0  0  1  0  0  0  0  0  0  0  0  0
  145.6683  135.2419  153.5082 C   0  0  0  0  0  0  0  0  0  0  0  0
  146.8216  136.1322  153.3789 N   0  0  0  0  0  0  0  0  0  0  0  0
  146.9356  137.3481  153.9322 C   0  0  0  0  0  0  0  0  0  0  0  0
  146.0641  137.8581  154.6345 O   0  0  0  0  0  0  0  0  0  0  0  0
  148.1126  137.9142  153.6208 N   0  0  0  0  0  0  0  0  0  0  0  0
  148.6060  139.1791  154.0284 C   0  0  0  0  0  0  0  0  0  0  0  0
  149.8969  139.2685  154.3683 N   0  0  0  0  0  0  0  0  0  0  0  0
  150.2471  140.5588  154.7466 N   0  0  0  0  0  0  0  0  0  0  0  0
  149.2052  141.3929  154.6766 C   0  0  0  0  0  0  0  0  0  0  0  0
  147.6905  140.6850  154.1440 S   0  0  0  0  0  0  0  0  0  0  0  0
  144.5722  133.7301  151.8274 N   0  3  0  0  0  0  0  0  0  0  0  0
  143.8161  133.5079  150.5752 C   0  0  0  0  0  0  0  0  0  0  0  0
  144.1334  132.0733  150.1703 C   0  0  0  0  0  0  0  0  0  0  0  0
  145.5978  131.9200  150.5623 C   0  0  0  0  0  0  0  0  0  0  0  0
  145.7952  132.8911  151.7343 C   0  0  0  0  0  0  0  0  0  0  0  0
  141.5680  135.9435  153.3754 H   0  0  0  0  0  0  0  0  0  0  0  0
  142.8348  135.0774  154.2351 H   0  0  0  0  0  0  0  0  0  0  0  0
  142.0512  134.3505  152.8322 H   0  0  0  0  0  0  0  0  0  0  0  0
  143.0496  136.1258  151.3524 H   0  0  0  0  0  0  0  0  0  0  0  0
  143.6645  136.9280  152.7660 H   0  0  0  0  0  0  0  0  0  0  0  0
  145.3798  135.6158  151.4064 H   0  0  0  0  0  0  0  0  0  0  0  0
  145.0623  135.6342  154.3243 H   0  0  0  0  0  0  0  0  0  0  0  0
  145.9756  134.2549  153.8534 H   0  0  0  0  0  0  0  0  0  0  0  0
  147.5844  135.8046  152.8043 H   0  0  0  0  0  0  0  0  0  0  0  0
  148.7313  137.3809  153.0281 H   0  0  0  0  0  0  0  0  0  0  0  0
  149.3295  142.4326  154.9409 H   0  0  0  0  0  0  0  0  0  0  0  0
  142.7446  133.6589  150.7108 H   0  0  0  0  0  0  0  0  0  0  0  0
  144.1668  134.1962  149.8040 H   0  0  0  0  0  0  0  0  0  0  0  0
  143.5203  131.3814  150.7492 H   0  0  0  0  0  0  0  0  0  0  0  0
  143.9534  131.8801  149.1124 H   0  0  0  0  0  0  0  0  0  0  0  0
  145.8525  130.8918  150.8220 H   0  0  0  0  0  0  0  0  0  0  0  0
  146.2349  132.2167  149.7277 H   0  0  0  0  0  0  0  0  0  0  0  0
  146.6864  133.4952  151.5579 H   0  0  0  0  0  0  0  0  0  0  0  0
  145.9379  132.3561  152.6736 H   0  0  0  0  0  0  0  0  0  0  0  0
  144.0092  133.3194  152.5585 H   0  0  0  0  0  0  0  0  0  0  0  0
  1  2  1  0  0  0  0
  1 19  1  0  0  0  0
  1 20  1  0  0  0  0
  1 21  1  0  0  0  0
  2  3  1  0  0  0  0
  2 22  1  0  0  0  0
  2 23  1  0  0  0  0
  3  4  1  0  0  0  0
  3 14  1  0  0  0  0
  3 24  1  0  0  0  0
  4  5  1  0  0  0  0
  4 25  1  0  0  0  0
  4 26  1  0  0  0  0
  5  6  1  0  0  0  0
  5 27  1  0  0  0  0
  6  7  2  0  0  0  0
  6  8  1  0  0  0  0
  8  9  1  0  0  0  0
  8 28  1  0  0  0  0
  9 13  1  0  0  0  0
  9 10  2  0  0  0  0
 10 11  1  0  0  0  0
 11 12  2  0  0  0  0
 12 13  1  0  0  0  0
 12 29  1  0  0  0  0
 14 18  1  0  0  0  0
 14 15  1  0  0  0  0
 14 38  1  0  0  0  0
 15 16  1  0  0  0  0
 15 30  1  0  0  0  0
 15 31  1  0  0  0  0
 16 17  1  0  0  0  0
 16 32  1  0  0  0  0
 16 33  1  0  0  0  0
 17 18  1  0  0  0  0
 17 34  1  0  0  0  0
 17 35  1  0  0  0  0
 18 36  1  0  0  0  0
 18 37  1  0  0  0  0
M  CHG  1  14   1
M  END
> <s_m_source_file>
AV-unprocessed.smi

> <i_m_source_file_index>
1508

> <i_lp_mmshare_version>
43012

> <i_f3d_flags>
0

> <s_epik_input>
W0NIMl0xW0NIMl1bQ0gyXVtDSDJdTjFbQ0BIXShbQ0gyXVtDSDNdKVtDSDJdW05IXUMoPU8pW05IXWMybm5bY0hdczI=

> <s_epik_cmdline>
J2VwaWtfcHl0aG9uJywgJy1waCcsICc3LjAnLCAnLXRuJywgJzgnLCAnLW1hJywgJzIwMCcsICctbWV0YWxfYmluZGluZycsICctaW1hZScsICc8aW5maWxlLm1hZT4nLCAnLW9tYWUnLCAnPG91dGZpbGUubWFlPic=

> <r_lp_tautomer_probability>
1

> <r_epik_Ionization_Penalty>
0.00193711

> <r_epik_Ionization_Penalty_Charging>
0.00115997

> <r_epik_Ionization_Penalty_Neutral>
0.000777142

> <r_epik_State_Penalty>
-0

> <r_epik_Charging_Adjusted_Penalty>
0.00115997

> <i_epik_Tot_Q>
1

> <i_epik_Tot_abs_Q>
1

> <r_epik_Metal_State_Penalty>
0.264283

> <b_epik_Metal_Only>
0

> <s_lp_Force_Field>
OPLS_2005

> <r_lp_Energy>
37.6611

> <b_lp_Chiralities_Consistent>
1

> <s_lp_Variant>
AV-unprocessed.smi:1508-2

> <Gold.Version>
5.8.1

> <Gold.Id.Protein>
6NUR|6NUR_protein|mol2

> <Gold.PLP.Fitness>
36.7010

> <Gold.PLP.PLP>
-27.2444

> <Gold.PLP.part.hbond>
-3.0000

> <Gold.PLP.part.metal>
0.0000

> <Gold.PLP.part.buried>
-4.1097

> <Gold.PLP.part.nonpolar>
-21.1563

> <Gold.PLP.part.repulsive>
0.3481

> <Gold.PLP.ligand.clash>
0.0000

> <Gold.PLP.ligand.torsion>
1.1561

> <Gold.PLP.Chemscore.Hbond>
2.9040

> <Gold.PLP.Chemscore.CHOScore>
1.0000

> <Gold.PLP.Chemscore.Metal>
0.0000

> <Gold.Chemscore.Hbonds>
donor molecule, donor type, donor heavy atom, donor atom, acceptor molecule, acceptor atom, score
      L1  H     5    27       P1  7948  0.96
      L1  H     8    28       P1  7948  1.00
      P1  H  7989  7998       L1    11  0.93
      L1  C    12    29       P1  8028  1.00

> <Gold.PLP.Chemscore.Internal.Correction>
0.0569

> <Gold.Rescore>
     Score         DG    S(hbond)    S(metal)    S(lipo)     H(rot)  DE(clash)    DE(int)     intcor
     14.61     -15.73       2.37        0.00      61.46       1.89       0.09       1.03       ----

> <Gold.Chemscore.Fitness>
14.6070

> <Gold.Chemscore.DG>
-15.7312

> <Gold.Chemscore.ZeroCoef>
-5.4800

> <Gold.Chemscore.Hbond>
2.3689

> <Gold.Chemscore.Metal>
0.0000

> <Gold.Chemscore.Lipo>
61.4550

> <Gold.Chemscore.Internal_Hbond>
0.0000

> <Gold.Chemscore.DEClash>
0.0938

> <Gold.Chemscore.DEInternal>
1.0304

> <Gold.Chemscore.Rot>
1.8950

> <Gold.Chemscore.Internal.Correction>
   9.000000E+99

> <Gold.Chemscore.Hbonds>
donor molecule, donor type, donor heavy atom, donor atom, acceptor molecule, acceptor atom, score
      L1  H     5    27       P1  7948  0.92
      L1  H     8    28       P1  7948  0.95
      P1  H  7989  7998       L1    11  0.21

> <Gold.Chemscore.Hbond.Weighted>
-7.9121

> <Gold.Chemscore.Metal.Weighted>
-0.0000

> <Gold.Chemscore.Lipo.Weighted>
-7.1902

> <Gold.Chemscore.Internal_Hbond.Weighted>
0.0000

> <Gold.Chemscore.DEClash.Weighted>
0.0938

> <Gold.Chemscore.DEInternal.Weighted>
1.0304

> <Gold.Chemscore.Rot.Weighted>
4.8511

> <Gold.Chemscore.Internal.Correction.Weighted>
   9.000000E+99

> <Gold.Protein.RotatedTorsions>
[ 6907 6896 6895 6894 ] final  -29.09 input  -60.11 | X-H torsion
[ 7974 7965 7964 7962 ] final  -73.61 input  175.53 | X-H torsion
[ 8008 7997 7996 7995 ] final -144.62 input   59.86 | X-H torsion
[ 10167 10162 10161 10158 ] final   -3.18 input  -65.29 | X-H torsion
[ 10718 10713 10712 10709 ] final -117.97 input   66.30 | X-H torsion
[ 10763 10752 10751 10750 ] final  -81.88 input  -60.55 | X-H torsion
[ 11005 11000 10999 10996 ] final   79.14 input  -57.11 | X-H torsion

> <Gold.Protein.ActiveResidues>
 VAL166  LYS551  ARG553  GLY616  TRP617  ASP618  TYR619  PRO620  LYS621  CYS622 
 ASP623  PHE694  ASN695  SER759  ASP760  ASP761  ALA762  ILE779  LEU786  VAL792 
 PHE793  MET794  SER795  GLU796  ALA797  LYS798  CYS799  TRP800  GLU811  SER814 

> <Gold.Protein.RotatedAtoms>
  151.1240  135.0095  159.8551 H   0  0  0  0  0  0  0  0  0  0  0  0  # atno 6907 bound_to 6896
  152.5449  134.1689  159.8598 H   0  0  0  0  0  0  0  0  0  0  0  0  # atno 6908 bound_to 6896
  151.1749  133.4716  159.2627 H   0  0  0  0  0  0  0  0  0  0  0  0  # atno 6909 bound_to 6896
  145.6499  140.9286  143.0990 H   0  0  0  0  0  0  0  0  0  0  0  0  # atno 7974 bound_to 7965
  155.5299  140.0599  157.2891 H   0  0  0  0  0  0  0  0  0  0  0  0  # atno 8008 bound_to 7997
  154.4488  140.1937  156.0528 H   0  0  0  0  0  0  0  0  0  0  0  0  # atno 8009 bound_to 7997
  156.0659  140.3266  155.7522 H   0  0  0  0  0  0  0  0  0  0  0  0  # atno 8010 bound_to 7997
  140.6880  143.6570  150.8299 H   0  0  0  0  0  0  0  0  0  0  0  0  # atno 10167 bound_to 10162
  156.1072  130.6220  150.9231 H   0  0  0  0  0  0  0  0  0  0  0  0  # atno 10718 bound_to 10713
  154.5689  135.5611  153.7077 H   0  0  0  0  0  0  0  0  0  0  0  0  # atno 10763 bound_to 10752
  153.0042  135.6292  154.2141 H   0  0  0  0  0  0  0  0  0  0  0  0  # atno 10764 bound_to 10752
  154.2080  135.2875  155.2948 H   0  0  0  0  0  0  0  0  0  0  0  0  # atno 10765 bound_to 10752
  139.9184  134.7819  156.1740 H   0  0  0  0  0  0  0  0  0  0  0  0  # atno 11005 bound_to 11000
  144.7126  139.8312  143.7409 LP  0  0  0  0  0  0  0  0  0  0  0  0  # atno 17320 bound_to 7965
  146.1212  139.4231  143.0227 LP  0  0  0  0  0  0  0  0  0  0  0  0  # atno 17321 bound_to 7965
  140.0280  143.5473  152.2772 LP  0  0  0  0  0  0  0  0  0  0  0  0  # atno 17342 bound_to 10162
  139.6255  144.7636  151.2647 LP  0  0  0  0  0  0  0  0  0  0  0  0  # atno 17343 bound_to 10162
  157.6250  131.0926  150.8551 LP  0  0  0  0  0  0  0  0  0  0  0  0  # atno 17370 bound_to 10713
  156.8668  130.5132  149.5299 LP  0  0  0  0  0  0  0  0  0  0  0  0  # atno 17371 bound_to 10713
  141.0683  133.6809  156.2089 LP  0  0  0  0  0  0  0  0  0  0  0  0  # atno 17394 bound_to 11000
  140.6549  134.5029  157.5580 LP  0  0  0  0  0  0  0  0  0  0  0  0  # atno 17395 bound_to 11000

$$$$
