AV-unprocessed.smi:3245|AV-procd|sdf|12404|dock6
  -GOLD-   2272018283D 1   1.00000     0.00000
 Structure written by MMmdl.
 35 36  0  0  0  0  0  0  0  0  1 V2000
  152.9478  139.8403  160.1069 C   0  0  0  0  0  0  0  0  0  0  0  0
  152.9782  141.1802  159.3523 C   0  0  2  0  0  0  0  0  0  0  0  0
  153.0901  142.3997  160.2975 C   0  0  0  0  0  0  0  0  0  0  0  0
  152.2845  143.5258  159.8627 N   0  0  0  0  0  0  0  0  0  0  0  0
  152.7015  144.7093  159.2903 C   0  0  0  0  0  0  0  0  0  0  0  0
  151.5865  145.4624  159.0574 C   0  0  0  0  0  0  0  0  0  0  0  0
  150.5220  144.6456  159.5312 C   0  0  0  0  0  0  0  0  0  0  0  0
  150.9431  143.4876  160.0137 N   0  0  0  0  0  0  0  0  0  0  0  0
  151.7518  141.2707  158.5706 N   0  0  0  0  0  0  0  0  0  0  0  0
  151.5300  140.0796  157.7623 C   0  0  0  0  0  0  0  0  0  0  0  0
  151.1743  140.4780  156.3189 C   0  0  0  0  0  0  0  0  0  0  0  0
  151.2672  139.3387  155.3982 N   0  0  0  0  0  0  0  0  0  0  0  0
  152.3744  138.6093  155.2045 C   0  0  0  0  0  0  0  0  0  0  0  0
  153.4775  138.7656  155.7270 O   0  0  0  0  0  0  0  0  0  0  0  0
  152.0582  137.5122  154.2116 C   0  0  0  0  0  0  0  0  0  0  0  0
  150.6654  137.8148  153.9626 N   0  0  0  0  0  0  0  0  0  0  0  0
  150.2397  138.8733  154.6641 C   0  0  0  0  0  0  0  0  0  0  0  0
  149.0974  139.3289  154.6347 O   0  0  0  0  0  0  0  0  0  0  0  0
  153.8719  139.6735  160.6607 H   0  0  0  0  0  0  0  0  0  0  0  0
  152.8329  139.0029  159.4178 H   0  0  0  0  0  0  0  0  0  0  0  0
  152.1222  139.8025  160.8186 H   0  0  0  0  0  0  0  0  0  0  0  0
  153.8328  141.1597  158.6743 H   0  0  0  0  0  0  0  0  0  0  0  0
  152.7838  142.1435  161.3118 H   0  0  0  0  0  0  0  0  0  0  0  0
  154.1281  142.7294  160.3640 H   0  0  0  0  0  0  0  0  0  0  0  0
  153.7444  144.9128  159.0961 H   0  0  0  0  0  0  0  0  0  0  0  0
  151.5388  146.4472  158.6169 H   0  0  0  0  0  0  0  0  0  0  0  0
  149.4630  144.8582  159.5392 H   0  0  0  0  0  0  0  0  0  0  0  0
  150.9632  141.3952  159.1893 H   0  0  0  0  0  0  0  0  0  0  0  0
  152.4039  139.4289  157.7659 H   0  0  0  0  0  0  0  0  0  0  0  0
  150.7081  139.5104  158.1984 H   0  0  0  0  0  0  0  0  0  0  0  0
  150.1540  140.8639  156.2964 H   0  0  0  0  0  0  0  0  0  0  0  0
  151.8037  141.3049  155.9851 H   0  0  0  0  0  0  0  0  0  0  0  0
  152.6582  137.6018  153.3056 H   0  0  0  0  0  0  0  0  0  0  0  0
  152.1828  136.5226  154.6520 H   0  0  0  0  0  0  0  0  0  0  0  0
  150.0889  137.2762  153.3324 H   0  0  0  0  0  0  0  0  0  0  0  0
  1  2  1  0  0  0  0
  1 19  1  0  0  0  0
  1 20  1  0  0  0  0
  1 21  1  0  0  0  0
  2  3  1  0  0  0  0
  2  9  1  0  0  0  0
  2 22  1  0  0  0  0
  3  4  1  0  0  0  0
  3 23  1  0  0  0  0
  3 24  1  0  0  0  0
  4  8  1  0  0  0  0
  4  5  1  0  0  0  0
  5  6  2  0  0  0  0
  5 25  1  0  0  0  0
  6  7  1  0  0  0  0
  6 26  1  0  0  0  0
  7  8  2  0  0  0  0
  7 27  1  0  0  0  0
  9 10  1  0  0  0  0
  9 28  1  0  0  0  0
 10 11  1  0  0  0  0
 10 29  1  0  0  0  0
 10 30  1  0  0  0  0
 11 12  1  0  0  0  0
 11 31  1  0  0  0  0
 11 32  1  0  0  0  0
 12 17  1  0  0  0  0
 12 13  1  0  0  0  0
 13 14  2  0  0  0  0
 13 15  1  0  0  0  0
 15 16  1  0  0  0  0
 15 33  1  0  0  0  0
 15 34  1  0  0  0  0
 16 17  1  0  0  0  0
 16 35  1  0  0  0  0
 17 18  2  0  0  0  0
M  END
> <s_m_source_file>
AV-unprocessed.smi

> <i_m_source_file_index>
3245

> <i_lp_mmshare_version>
43012

> <i_f3d_flags>
0

> <s_epik_input>
bjFbY0hdW2NIXVtjSF1uMVtDSDJdW0NAQEhdKFtDSDNdKVtOSF1bQ0gyXVtDSDJdTjJDKD1PKVtDSDJdW05IXUMyPU8=

> <s_epik_cmdline>
J2VwaWtfcHl0aG9uJywgJy1waCcsICc3LjAnLCAnLXRuJywgJzgnLCAnLW1hJywgJzIwMCcsICctbWV0YWxfYmluZGluZycsICctaW1hZScsICc8aW5maWxlLm1hZT4nLCAnLW9tYWUnLCAnPG91dGZpbGUubWFlPic=

> <r_lp_tautomer_probability>
1

> <r_epik_Ionization_Penalty>
2.14948

> <r_epik_Ionization_Penalty_Charging>
0

> <r_epik_Ionization_Penalty_Neutral>
2.14948

> <r_epik_State_Penalty>
2.28912

> <r_epik_Charging_Adjusted_Penalty>
2.28912

> <i_epik_Tot_Q>
0

> <i_epik_Tot_abs_Q>
0

> <r_epik_Metal_State_Penalty>
2.36471

> <b_epik_Metal_Only>
0

> <s_lp_Force_Field>
OPLS_2005

> <r_lp_Energy>
24.3933

> <b_lp_Chiralities_Consistent>
1

> <s_lp_Variant>
AV-unprocessed.smi:3245-3

> <Gold.Version>
5.8.1

> <Gold.Id.Protein>
6NUR|6NUR_protein|mol2

> <Gold.PLP.Fitness>
45.2384

> <Gold.PLP.PLP>
-41.3933

> <Gold.PLP.part.hbond>
-3.6174

> <Gold.PLP.part.metal>
0.0000

> <Gold.PLP.part.buried>
-5.0782

> <Gold.PLP.part.nonpolar>
-33.3334

> <Gold.PLP.part.repulsive>
0.2596

> <Gold.PLP.ligand.clash>
0.0000

> <Gold.PLP.ligand.torsion>
1.1251

> <Gold.PLP.Chemscore.Hbond>
2.0000

> <Gold.PLP.Chemscore.CHOScore>
0.0000

> <Gold.PLP.Chemscore.Metal>
0.0000

> <Gold.Chemscore.Hbonds>
donor molecule, donor type, donor heavy atom, donor atom, acceptor molecule, acceptor atom, score
      L1  H    16    35       P1  7948  0.82
      P1  H  7997  8008       L1    14  0.75

> <Gold.PLP.Chemscore.Internal.Correction>
0.0952

> <Gold.Rescore>
     Score         DG    S(hbond)    S(metal)    S(lipo)     H(rot)  DE(clash)    DE(int)     intcor
     13.08     -14.29       1.90        0.00      79.28       2.66       0.12       1.10       ----

> <Gold.Chemscore.Fitness>
13.0764

> <Gold.Chemscore.DG>
-14.2949

> <Gold.Chemscore.ZeroCoef>
-5.4800

> <Gold.Chemscore.Hbond>
1.9016

> <Gold.Chemscore.Metal>
0.0000

> <Gold.Chemscore.Lipo>
79.2770

> <Gold.Chemscore.Internal_Hbond>
0.0000

> <Gold.Chemscore.DEClash>
0.1211

> <Gold.Chemscore.DEInternal>
1.0974

> <Gold.Chemscore.Rot>
2.6609

> <Gold.Chemscore.Internal.Correction>
   9.000000E+99

> <Gold.Chemscore.Hbonds>
donor molecule, donor type, donor heavy atom, donor atom, acceptor molecule, acceptor atom, score
      L1  H    16    35       P1  7948  0.18
      P1  H  7997  8008       L1    14  0.74

> <Gold.Chemscore.Hbond.Weighted>
-6.3514

> <Gold.Chemscore.Metal.Weighted>
-0.0000

> <Gold.Chemscore.Lipo.Weighted>
-9.2754

> <Gold.Chemscore.Internal_Hbond.Weighted>
0.0000

> <Gold.Chemscore.DEClash.Weighted>
0.1211

> <Gold.Chemscore.DEInternal.Weighted>
1.0974

> <Gold.Chemscore.Rot.Weighted>
6.8118

> <Gold.Chemscore.Internal.Correction.Weighted>
   9.000000E+99

> <Gold.Protein.RotatedTorsions>
[ 6907 6896 6895 6894 ] final  136.50 input  -60.11 | X-H torsion
[ 7974 7965 7964 7962 ] final -153.13 input  175.53 | X-H torsion
[ 8008 7997 7996 7995 ] final  -11.83 input   59.86 | X-H torsion
[ 10167 10162 10161 10158 ] final   94.47 input  -65.29 | X-H torsion
[ 10718 10713 10712 10709 ] final   63.32 input   66.30 | X-H torsion
[ 10763 10752 10751 10750 ] final -159.41 input  -60.55 | X-H torsion
[ 11005 11000 10999 10996 ] final   69.09 input  -57.11 | X-H torsion

> <Gold.Protein.ActiveResidues>
 VAL166  LYS551  ARG553  GLY616  TRP617  ASP618  TYR619  PRO620  LYS621  CYS622 
 ASP623  PHE694  ASN695  SER759  ASP760  ASP761  ALA762  ILE779  LEU786  VAL792 
 PHE793  MET794  SER795  GLU796  ALA797  LYS798  CYS799  TRP800  GLU811  SER814 

> <Gold.Protein.RotatedAtoms>
  152.2887  133.5540  159.5543 H   0  0  0  0  0  0  0  0  0  0  0  0  # atno 6907 bound_to 6896
  150.7226  134.0460  159.3791 H   0  0  0  0  0  0  0  0  0  0  0  0  # atno 6908 bound_to 6896
  151.8367  135.0604  160.0494 H   0  0  0  0  0  0  0  0  0  0  0  0  # atno 6909 bound_to 6896
  144.7757  140.4567  143.5875 H   0  0  0  0  0  0  0  0  0  0  0  0  # atno 7974 bound_to 7965
  154.5430  140.2292  155.8610 H   0  0  0  0  0  0  0  0  0  0  0  0  # atno 8008 bound_to 7997
  156.1876  140.3085  155.9231 H   0  0  0  0  0  0  0  0  0  0  0  0  # atno 8009 bound_to 7997
  155.3220  140.0441  157.3030 H   0  0  0  0  0  0  0  0  0  0  0  0  # atno 8010 bound_to 7997
  139.8080  144.6785  150.9677 H   0  0  0  0  0  0  0  0  0  0  0  0  # atno 10167 bound_to 10162
  157.5963  130.9098  149.9700 H   0  0  0  0  0  0  0  0  0  0  0  0  # atno 10718 bound_to 10713
  154.7477  135.3084  154.8615 H   0  0  0  0  0  0  0  0  0  0  0  0  # atno 10763 bound_to 10752
  153.9411  135.6774  153.4748 H   0  0  0  0  0  0  0  0  0  0  0  0  # atno 10764 bound_to 10752
  153.1073  135.4883  154.8901 H   0  0  0  0  0  0  0  0  0  0  0  0  # atno 10765 bound_to 10752
  139.9673  134.6958  156.0518 H   0  0  0  0  0  0  0  0  0  0  0  0  # atno 11005 bound_to 11000
  145.6194  139.1522  143.3031 LP  0  0  0  0  0  0  0  0  0  0  0  0  # atno 17320 bound_to 7965
  146.1934  140.6305  142.9135 LP  0  0  0  0  0  0  0  0  0  0  0  0  # atno 17321 bound_to 7965
  140.7818  143.4214  151.0836 LP  0  0  0  0  0  0  0  0  0  0  0  0  # atno 17342 bound_to 10162
  139.7882  143.8257  152.3148 LP  0  0  0  0  0  0  0  0  0  0  0  0  # atno 17343 bound_to 10162
  156.1026  130.3655  150.0191 LP  0  0  0  0  0  0  0  0  0  0  0  0  # atno 17370 bound_to 10713
  156.8304  130.9390  151.3637 LP  0  0  0  0  0  0  0  0  0  0  0  0  # atno 17371 bound_to 10713
  141.1353  133.6576  156.3577 LP  0  0  0  0  0  0  0  0  0  0  0  0  # atno 17394 bound_to 11000
  140.5368  134.6159  157.5367 LP  0  0  0  0  0  0  0  0  0  0  0  0  # atno 17395 bound_to 11000

$$$$
