AV-unprocessed.smi:3242|AV-procd|sdf|12393|dock3
  -GOLD-   2272018263D 1   1.00000     0.00000
 Structure written by MMmdl.
 40 41  0  0  0  0  0  0  0  0  1 V2000
  146.1832  142.8173  154.1834 C   0  0  0  0  0  0  0  0  0  0  0  0
  147.2629  141.8567  154.2573 N   0  0  0  0  0  0  0  0  0  0  0  0
  148.3669  141.8651  155.0820 C   0  0  0  0  0  0  0  0  0  0  0  0
  149.1013  140.7483  154.7957 C   0  0  0  0  0  0  0  0  0  0  0  0
  150.3865  140.2759  155.4248 C   0  0  0  0  0  0  0  0  0  0  0  0
  150.2920  140.1725  156.9564 C   0  0  0  0  0  0  0  0  0  0  0  0
  150.9522  141.3030  157.6018 N   0  0  0  0  0  0  0  0  0  0  0  0
  151.9329  141.2187  158.5166 C   0  0  0  0  0  0  0  0  0  0  0  0
  152.3540  140.1347  158.9249 O   0  0  0  0  0  0  0  0  0  0  0  0
  152.4659  142.4124  158.8899 N   0  0  0  0  0  0  0  0  0  0  0  0
  152.1274  143.7029  158.2508 C   0  0  0  0  0  0  0  0  0  0  0  0
  152.0994  144.9200  159.1998 C   0  0  0  0  0  0  0  0  0  0  0  0
  151.3619  144.6815  160.5307 C   0  0  0  0  0  0  0  0  0  0  0  0
  152.2626  144.0799  161.6226 C   0  0  0  0  0  0  0  0  0  0  0  0
  152.7262  142.6400  161.3526 C   0  0  0  0  0  0  0  0  0  0  0  0
  153.4332  142.4644  159.9970 C   0  0  0  0  0  0  0  0  0  0  0  0
  148.3523  140.1176  153.7616 C   0  0  0  0  0  0  0  0  0  0  0  0
  147.2531  140.7814  153.4432 N   0  0  0  0  0  0  0  0  0  0  0  0
  146.3644  143.6382  154.8777 H   0  0  0  0  0  0  0  0  0  0  0  0
  145.2414  142.3337  154.4441 H   0  0  0  0  0  0  0  0  0  0  0  0
  146.1131  143.2181  153.1715 H   0  0  0  0  0  0  0  0  0  0  0  0
  148.5342  142.6516  155.8031 H   0  0  0  0  0  0  0  0  0  0  0  0
  150.6669  139.3011  155.0244 H   0  0  0  0  0  0  0  0  0  0  0  0
  151.2074  140.9446  155.1647 H   0  0  0  0  0  0  0  0  0  0  0  0
  149.2482  140.1402  157.2699 H   0  0  0  0  0  0  0  0  0  0  0  0
  150.7473  139.2342  157.2779 H   0  0  0  0  0  0  0  0  0  0  0  0
  150.6733  142.2244  157.2978 H   0  0  0  0  0  0  0  0  0  0  0  0
  152.8268  143.8860  157.4341 H   0  0  0  0  0  0  0  0  0  0  0  0
  151.1361  143.6593  157.7977 H   0  0  0  0  0  0  0  0  0  0  0  0
  153.1115  145.2767  159.3943 H   0  0  0  0  0  0  0  0  0  0  0  0
  151.6096  145.7388  158.6717 H   0  0  0  0  0  0  0  0  0  0  0  0
  150.9973  145.6425  160.8949 H   0  0  0  0  0  0  0  0  0  0  0  0
  150.4752  144.0651  160.3756 H   0  0  0  0  0  0  0  0  0  0  0  0
  153.1347  144.7197  161.7622 H   0  0  0  0  0  0  0  0  0  0  0  0
  151.7275  144.0992  162.5725 H   0  0  0  0  0  0  0  0  0  0  0  0
  153.4138  142.3495  162.1473 H   0  0  0  0  0  0  0  0  0  0  0  0
  151.8802  141.9554  161.4280 H   0  0  0  0  0  0  0  0  0  0  0  0
  154.0272  141.5490  160.0186 H   0  0  0  0  0  0  0  0  0  0  0  0
  154.1650  143.2566  159.8362 H   0  0  0  0  0  0  0  0  0  0  0  0
  148.5715  139.1977  153.2401 H   0  0  0  0  0  0  0  0  0  0  0  0
  1  2  1  0  0  0  0
  1 19  1  0  0  0  0
  1 20  1  0  0  0  0
  1 21  1  0  0  0  0
  2 18  1  0  0  0  0
  2  3  1  0  0  0  0
  3  4  2  0  0  0  0
  3 22  1  0  0  0  0
  4  5  1  0  0  0  0
  4 17  1  0  0  0  0
  5  6  1  0  0  0  0
  5 23  1  0  0  0  0
  5 24  1  0  0  0  0
  6  7  1  0  0  0  0
  6 25  1  0  0  0  0
  6 26  1  0  0  0  0
  7  8  1  0  0  0  0
  7 27  1  0  0  0  0
  8  9  2  0  0  0  0
  8 10  1  0  0  0  0
 10 16  1  0  0  0  0
 10 11  1  0  0  0  0
 11 12  1  0  0  0  0
 11 28  1  0  0  0  0
 11 29  1  0  0  0  0
 12 13  1  0  0  0  0
 12 30  1  0  0  0  0
 12 31  1  0  0  0  0
 13 14  1  0  0  0  0
 13 32  1  0  0  0  0
 13 33  1  0  0  0  0
 14 15  1  0  0  0  0
 14 34  1  0  0  0  0
 14 35  1  0  0  0  0
 15 16  1  0  0  0  0
 15 36  1  0  0  0  0
 15 37  1  0  0  0  0
 16 38  1  0  0  0  0
 16 39  1  0  0  0  0
 17 18  2  0  0  0  0
 17 40  1  0  0  0  0
M  END
> <s_m_source_file>
AV-unprocessed.smi

> <i_m_source_file_index>
3242

> <i_lp_mmshare_version>
43012

> <i_f3d_flags>
0

> <s_epik_input>
W0NIM11uMVtjSF1jKFtjSF1uMSlbQ0gyXVtDSDJdW05IXUMoPU8pTjJbQ0gyXVtDSDJdW0NIMl1bQ0gyXVtDSDJdW0NIMl0y

> <s_epik_cmdline>
J2VwaWtfcHl0aG9uJywgJy1waCcsICc3LjAnLCAnLXRuJywgJzgnLCAnLW1hJywgJzIwMCcsICctbWV0YWxfYmluZGluZycsICctaW1hZScsICc8aW5maWxlLm1hZT4nLCAnLW9tYWUnLCAnPG91dGZpbGUubWFlPic=

> <r_lp_tautomer_probability>
1

> <r_epik_Ionization_Penalty>
0.000572484

> <r_epik_Ionization_Penalty_Charging>
0

> <r_epik_Ionization_Penalty_Neutral>
0.000572484

> <r_epik_State_Penalty>
-0

> <r_epik_Charging_Adjusted_Penalty>
0

> <i_epik_Tot_Q>
0

> <i_epik_Tot_abs_Q>
0

> <r_epik_Metal_State_Penalty>
-0

> <b_epik_Metal_Only>
0

> <s_lp_Force_Field>
OPLS_2005

> <r_lp_Energy>
29.8159

> <b_lp_Chiralities_Consistent>
1

> <s_lp_Variant>
AV-unprocessed.smi:3242-1

> <Gold.Version>
5.8.1

> <Gold.Id.Protein>
6NUR|6NUR_protein|mol2

> <Gold.PLP.Fitness>
49.5607

> <Gold.PLP.PLP>
-46.1142

> <Gold.PLP.part.hbond>
0.0000

> <Gold.PLP.part.metal>
0.0000

> <Gold.PLP.part.buried>
-1.8521

> <Gold.PLP.part.nonpolar>
-45.1834

> <Gold.PLP.part.repulsive>
0.2182

> <Gold.PLP.ligand.clash>
0.0044

> <Gold.PLP.ligand.torsion>
0.3854

> <Gold.PLP.Chemscore.Hbond>
0.0000

> <Gold.PLP.Chemscore.CHOScore>
1.3899

> <Gold.PLP.Chemscore.Metal>
0.0000

> <Gold.Chemscore.Hbonds>
donor molecule, donor type, donor heavy atom, donor atom, acceptor molecule, acceptor atom, score
      L1  C     3    22       P1  8028  1.00
      L1  C    17    40       P1  7957  0.44

> <Gold.PLP.Chemscore.Internal.Correction>
0.0519

> <Gold.Rescore>
     Score         DG    S(hbond)    S(metal)    S(lipo)     H(rot)  DE(clash)    DE(int)     intcor
     14.41     -14.79       0.00        0.00     108.92       1.34       0.04       0.34       ----

> <Gold.Chemscore.Fitness>
14.4079

> <Gold.Chemscore.DG>
-14.7898

> <Gold.Chemscore.ZeroCoef>
-5.4800

> <Gold.Chemscore.Hbond>
0.0000

> <Gold.Chemscore.Metal>
0.0000

> <Gold.Chemscore.Lipo>
108.9233

> <Gold.Chemscore.Internal_Hbond>
0.0000

> <Gold.Chemscore.DEClash>
0.0410

> <Gold.Chemscore.DEInternal>
0.3409

> <Gold.Chemscore.Rot>
1.3415

> <Gold.Chemscore.Internal.Correction>
   9.000000E+99

> <Gold.Chemscore.Hbond.Weighted>
-0.0000

> <Gold.Chemscore.Metal.Weighted>
-0.0000

> <Gold.Chemscore.Lipo.Weighted>
-12.7440

> <Gold.Chemscore.Internal_Hbond.Weighted>
0.0000

> <Gold.Chemscore.DEClash.Weighted>
0.0410

> <Gold.Chemscore.DEInternal.Weighted>
0.3409

> <Gold.Chemscore.Rot.Weighted>
3.4342

> <Gold.Chemscore.Internal.Correction.Weighted>
   9.000000E+99

> <Gold.Protein.RotatedTorsions>
[ 6907 6896 6895 6894 ] final -133.65 input  -60.11 | X-H torsion
[ 7974 7965 7964 7962 ] final   14.91 input  175.53 | X-H torsion
[ 8008 7997 7996 7995 ] final   -9.44 input   59.86 | X-H torsion
[ 10167 10162 10161 10158 ] final   90.00 input  -65.29 | X-H torsion
[ 10718 10713 10712 10709 ] final -133.12 input   66.30 | X-H torsion
[ 10763 10752 10751 10750 ] final  -27.08 input  -60.55 | X-H torsion
[ 11005 11000 10999 10996 ] final -110.79 input  -57.11 | X-H torsion

> <Gold.Protein.ActiveResidues>
 VAL166  LYS551  ARG553  GLY616  TRP617  ASP618  TYR619  PRO620  LYS621  CYS622 
 ASP623  PHE694  ASN695  SER759  ASP760  ASP761  ALA762  ILE779  LEU786  VAL792 
 PHE793  MET794  SER795  GLU796  ALA797  LYS798  CYS799  TRP800  GLU811  SER814 

> <Gold.Protein.RotatedAtoms>
  150.9765  133.6289  159.2729 H   0  0  0  0  0  0  0  0  0  0  0  0  # atno 6907 bound_to 6896
  151.3559  135.0893  159.9428 H   0  0  0  0  0  0  0  0  0  0  0  0  # atno 6908 bound_to 6896
  152.5201  133.9349  159.7653 H   0  0  0  0  0  0  0  0  0  0  0  0  # atno 6909 bound_to 6896
  146.2293  139.8972  142.8545 H   0  0  0  0  0  0  0  0  0  0  0  0  # atno 7974 bound_to 7965
  154.5646  140.2355  155.8283 H   0  0  0  0  0  0  0  0  0  0  0  0  # atno 8008 bound_to 7997
  156.2058  140.3040  155.9582 H   0  0  0  0  0  0  0  0  0  0  0  0  # atno 8009 bound_to 7997
  155.2824  140.0423  157.3007 H   0  0  0  0  0  0  0  0  0  0  0  0  # atno 8010 bound_to 7997
  139.8517  144.6590  150.9162 H   0  0  0  0  0  0  0  0  0  0  0  0  # atno 10167 bound_to 10162
  156.2416  130.7099  151.0962 H   0  0  0  0  0  0  0  0  0  0  0  0  # atno 10718 bound_to 10713
  153.7263  135.6941  153.5000 H   0  0  0  0  0  0  0  0  0  0  0  0  # atno 10763 bound_to 10752
  153.2168  135.4383  155.0442 H   0  0  0  0  0  0  0  0  0  0  0  0  # atno 10764 bound_to 10752
  154.8268  135.3450  154.6794 H   0  0  0  0  0  0  0  0  0  0  0  0  # atno 10765 bound_to 10752
  141.0771  133.9282  157.2366 H   0  0  0  0  0  0  0  0  0  0  0  0  # atno 11005 bound_to 11000
  145.2359  140.9991  143.3964 LP  0  0  0  0  0  0  0  0  0  0  0  0  # atno 17320 bound_to 7965
  144.9492  139.4102  143.6411 LP  0  0  0  0  0  0  0  0  0  0  0  0  # atno 17321 bound_to 7965
  140.7786  143.3822  151.1457 LP  0  0  0  0  0  0  0  0  0  0  0  0  # atno 17342 bound_to 10162
  139.7459  143.8852  152.3063 LP  0  0  0  0  0  0  0  0  0  0  0  0  # atno 17343 bound_to 10162
  157.7177  131.0700  150.6260 LP  0  0  0  0  0  0  0  0  0  0  0  0  # atno 17370 bound_to 10713
  156.6334  130.4438  149.5778 LP  0  0  0  0  0  0  0  0  0  0  0  0  # atno 17371 bound_to 10713
  139.9584  135.0160  156.9192 LP  0  0  0  0  0  0  0  0  0  0  0  0  # atno 17394 bound_to 11000
  140.5549  134.0591  155.7380 LP  0  0  0  0  0  0  0  0  0  0  0  0  # atno 17395 bound_to 11000

$$$$
