AV-unprocessed.smi:3119|AV-procd|sdf|11890|dock5
  -GOLD-   2272017273D 1   1.00000     0.00000
 Structure written by MMmdl.
 31 32  0  0  0  0  0  0  0  0  1 V2000
  150.6799  140.5809  155.1532 O   0  0  0  0  0  0  0  0  0  0  0  0
  149.9266  141.5420  155.3141 C   0  0  0  0  0  0  0  0  0  0  0  0
  150.1698  142.5259  156.1930 N   0  0  0  0  0  0  0  0  0  0  0  0
  151.3372  142.5987  157.0645 C   0  0  0  0  0  0  0  0  0  0  0  0
  151.1993  143.7209  158.1070 C   0  0  0  0  0  0  0  0  0  0  0  0
  151.8337  143.3524  159.4348 C   0  0  0  0  0  0  0  0  0  0  0  0
  152.5677  142.1553  159.5767 C   0  0  0  0  0  0  0  0  0  0  0  0
  153.1306  141.8588  160.8332 C   0  0  0  0  0  0  0  0  0  0  0  0
  152.9384  142.7650  161.8938 C   0  0  0  0  0  0  0  0  0  0  0  0
  152.1878  143.9324  161.6500 C   0  0  0  0  0  0  0  0  0  0  0  0
  151.6430  144.2255  160.4497 N   0  0  0  0  0  0  0  0  0  0  0  0
  148.6344  141.6724  154.4969 C   0  0  0  0  0  0  0  0  0  0  0  0
  147.3481  141.7036  155.3407 C   0  0  0  0  0  0  0  0  0  0  0  0
  146.7142  140.7356  154.3372 C   0  0  0  0  0  0  0  0  0  0  0  0
  148.1263  140.3559  153.8822 C   0  0  0  0  0  0  0  0  0  0  0  0
  149.4995  143.2781  156.2615 H   0  0  0  0  0  0  0  0  0  0  0  0
  151.4967  141.6366  157.5545 H   0  0  0  0  0  0  0  0  0  0  0  0
  152.2142  142.7778  156.4420 H   0  0  0  0  0  0  0  0  0  0  0  0
  151.6578  144.6365  157.7312 H   0  0  0  0  0  0  0  0  0  0  0  0
  150.1469  143.9536  158.2762 H   0  0  0  0  0  0  0  0  0  0  0  0
  152.6965  141.4784  158.7447 H   0  0  0  0  0  0  0  0  0  0  0  0
  153.6989  140.9522  160.9808 H   0  0  0  0  0  0  0  0  0  0  0  0
  153.3560  142.5708  162.8708 H   0  0  0  0  0  0  0  0  0  0  0  0
  152.0200  144.6495  162.4401 H   0  0  0  0  0  0  0  0  0  0  0  0
  148.6616  142.4804  153.7633 H   0  0  0  0  0  0  0  0  0  0  0  0
  147.4527  141.2689  156.3365 H   0  0  0  0  0  0  0  0  0  0  0  0
  146.8619  142.6787  155.3831 H   0  0  0  0  0  0  0  0  0  0  0  0
  146.1471  139.9203  154.7872 H   0  0  0  0  0  0  0  0  0  0  0  0
  146.1439  141.2465  153.5600 H   0  0  0  0  0  0  0  0  0  0  0  0
  148.2399  140.2920  152.7999 H   0  0  0  0  0  0  0  0  0  0  0  0
  148.4978  139.4550  154.3738 H   0  0  0  0  0  0  0  0  0  0  0  0
  1  2  2  0  0  0  0
  2  3  1  0  0  0  0
  2 12  1  0  0  0  0
  3  4  1  0  0  0  0
  3 16  1  0  0  0  0
  4  5  1  0  0  0  0
  4 17  1  0  0  0  0
  4 18  1  0  0  0  0
  5  6  1  0  0  0  0
  5 19  1  0  0  0  0
  5 20  1  0  0  0  0
  6 11  1  0  0  0  0
  6  7  2  0  0  0  0
  7  8  1  0  0  0  0
  7 21  1  0  0  0  0
  8  9  2  0  0  0  0
  8 22  1  0  0  0  0
  9 10  1  0  0  0  0
  9 23  1  0  0  0  0
 10 11  2  0  0  0  0
 10 24  1  0  0  0  0
 12 15  1  0  0  0  0
 12 13  1  0  0  0  0
 12 25  1  0  0  0  0
 13 14  1  0  0  0  0
 13 26  1  0  0  0  0
 13 27  1  0  0  0  0
 14 15  1  0  0  0  0
 14 28  1  0  0  0  0
 14 29  1  0  0  0  0
 15 30  1  0  0  0  0
 15 31  1  0  0  0  0
M  END
> <s_m_source_file>
AV-unprocessed.smi

> <i_m_source_file_index>
3119

> <i_lp_mmshare_version>
43012

> <i_f3d_flags>
0

> <s_epik_input>
W0NIMl0xW0NIMl1bQ0gyXVtDSF0xQyg9TylbTkhdW0NIMl1bQ0gyXWMyW2NIXVtjSF1bY0hdW2NIXW4y

> <s_epik_cmdline>
J2VwaWtfcHl0aG9uJywgJy1waCcsICc3LjAnLCAnLXRuJywgJzgnLCAnLW1hJywgJzIwMCcsICctbWV0YWxfYmluZGluZycsICctaW1hZScsICc8aW5maWxlLm1hZT4nLCAnLW9tYWUnLCAnPG91dGZpbGUubWFlPic=

> <r_epik_Ionization_Penalty>
0.0277532

> <r_epik_Ionization_Penalty_Charging>
0

> <r_epik_Ionization_Penalty_Neutral>
0.0277532

> <r_epik_State_Penalty>
0.022734

> <r_epik_Charging_Adjusted_Penalty>
0.022734

> <i_epik_Tot_Q>
0

> <i_epik_Tot_abs_Q>
0

> <r_epik_Metal_State_Penalty>
0.0217133

> <b_epik_Metal_Only>
0

> <s_lp_Force_Field>
OPLS_2005

> <r_lp_Energy>
9.15138

> <b_lp_Chiralities_Consistent>
1

> <s_lp_Variant>
AV-unprocessed.smi:3119-1

> <Gold.Version>
5.8.1

> <Gold.Id.Protein>
6NUR|6NUR_protein|mol2

> <Gold.PLP.Fitness>
43.0649

> <Gold.PLP.PLP>
-37.9283

> <Gold.PLP.part.hbond>
-2.0000

> <Gold.PLP.part.metal>
0.0000

> <Gold.PLP.part.buried>
-4.2851

> <Gold.PLP.part.nonpolar>
-31.5572

> <Gold.PLP.part.repulsive>
0.2682

> <Gold.PLP.ligand.clash>
0.0000

> <Gold.PLP.ligand.torsion>
0.6000

> <Gold.PLP.Chemscore.Hbond>
1.9760

> <Gold.PLP.Chemscore.CHOScore>
0.0000

> <Gold.PLP.Chemscore.Metal>
0.0000

> <Gold.Chemscore.Hbonds>
donor molecule, donor type, donor heavy atom, donor atom, acceptor molecule, acceptor atom, score
      L1  H     3    16       P1  8028  0.99
      P1  H  7989  7998       L1     1  0.96

> <Gold.PLP.Chemscore.Internal.Correction>
0.4086

> <Gold.Rescore>
     Score         DG    S(hbond)    S(metal)    S(lipo)     H(rot)  DE(clash)    DE(int)     intcor
     18.43     -19.13       1.64        0.00     101.31       1.44       0.15       0.55       ----

> <Gold.Chemscore.Fitness>
18.4269

> <Gold.Chemscore.DG>
-19.1298

> <Gold.Chemscore.ZeroCoef>
-5.4800

> <Gold.Chemscore.Hbond>
1.6402

> <Gold.Chemscore.Metal>
0.0000

> <Gold.Chemscore.Lipo>
101.3128

> <Gold.Chemscore.Internal_Hbond>
0.0000

> <Gold.Chemscore.DEClash>
0.1508

> <Gold.Chemscore.DEInternal>
0.5521

> <Gold.Chemscore.Rot>
1.4383

> <Gold.Chemscore.Internal.Correction>
   9.000000E+99

> <Gold.Chemscore.Hbonds>
donor molecule, donor type, donor heavy atom, donor atom, acceptor molecule, acceptor atom, score
      L1  H     3    16       P1  8028  0.93
      P1  H  7989  7998       L1     1  0.55

> <Gold.Chemscore.Hbond.Weighted>
-5.4782

> <Gold.Chemscore.Metal.Weighted>
-0.0000

> <Gold.Chemscore.Lipo.Weighted>
-11.8536

> <Gold.Chemscore.Internal_Hbond.Weighted>
0.0000

> <Gold.Chemscore.DEClash.Weighted>
0.1508

> <Gold.Chemscore.DEInternal.Weighted>
0.5521

> <Gold.Chemscore.Rot.Weighted>
3.6820

> <Gold.Chemscore.Internal.Correction.Weighted>
   9.000000E+99

> <Gold.Protein.RotatedTorsions>
[ 6907 6896 6895 6894 ] final  -48.08 input  -60.11 | X-H torsion
[ 7974 7965 7964 7962 ] final  171.44 input  175.53 | X-H torsion
[ 8008 7997 7996 7995 ] final -157.87 input   59.86 | X-H torsion
[ 10167 10162 10161 10158 ] final  -15.64 input  -65.29 | X-H torsion
[ 10718 10713 10712 10709 ] final  -90.35 input   66.30 | X-H torsion
[ 10763 10752 10751 10750 ] final -124.13 input  -60.55 | X-H torsion
[ 11005 11000 10999 10996 ] final  129.49 input  -57.11 | X-H torsion

> <Gold.Protein.ActiveResidues>
 VAL166  LYS551  ARG553  GLY616  TRP617  ASP618  TYR619  PRO620  LYS621  CYS622 
 ASP623  PHE694  ASN695  SER759  ASP760  ASP761  ALA762  ILE779  LEU786  VAL792 
 PHE793  MET794  SER795  GLU796  ALA797  LYS798  CYS799  TRP800  GLU811  SER814 

> <Gold.Protein.RotatedAtoms>
  150.8942  134.8349  159.7314 H   0  0  0  0  0  0  0  0  0  0  0  0  # atno 6907 bound_to 6896
  152.4855  134.4601  159.9612 H   0  0  0  0  0  0  0  0  0  0  0  0  # atno 6908 bound_to 6896
  151.4660  133.3542  159.2851 H   0  0  0  0  0  0  0  0  0  0  0  0  # atno 6909 bound_to 6896
  144.7295  139.9350  143.6426 H   0  0  0  0  0  0  0  0  0  0  0  0  # atno 7974 bound_to 7965
  155.7390  140.0812  157.2254 H   0  0  0  0  0  0  0  0  0  0  0  0  # atno 8008 bound_to 7997
  154.4024  140.1581  156.2650 H   0  0  0  0  0  0  0  0  0  0  0  0  # atno 8009 bound_to 7997
  155.9038  140.3408  155.6049 H   0  0  0  0  0  0  0  0  0  0  0  0  # atno 8010 bound_to 7997
  140.7221  143.5197  150.9648 H   0  0  0  0  0  0  0  0  0  0  0  0  # atno 10167 bound_to 10162
  155.9987  130.4906  150.5309 H   0  0  0  0  0  0  0  0  0  0  0  0  # atno 10718 bound_to 10713
  154.8718  135.4074  154.3055 H   0  0  0  0  0  0  0  0  0  0  0  0  # atno 10763 bound_to 10752
  153.3907  135.7015  153.6502 H   0  0  0  0  0  0  0  0  0  0  0  0  # atno 10764 bound_to 10752
  153.5286  135.3672  155.2636 H   0  0  0  0  0  0  0  0  0  0  0  0  # atno 10765 bound_to 10752
  139.9618  134.9600  156.9156 H   0  0  0  0  0  0  0  0  0  0  0  0  # atno 11005 bound_to 11000
  146.0828  139.3816  143.0454 LP  0  0  0  0  0  0  0  0  0  0  0  0  # atno 17320 bound_to 7965
  145.7817  140.9853  143.1095 LP  0  0  0  0  0  0  0  0  0  0  0  0  # atno 17321 bound_to 7965
  139.8914  143.6948  152.3144 LP  0  0  0  0  0  0  0  0  0  0  0  0  # atno 17342 bound_to 10162
  139.7265  144.7591  151.0870 LP  0  0  0  0  0  0  0  0  0  0  0  0  # atno 17343 bound_to 10162
  157.3258  131.0690  151.1898 LP  0  0  0  0  0  0  0  0  0  0  0  0  # atno 17370 bound_to 10713
  157.2795  130.6743  149.6059 LP  0  0  0  0  0  0  0  0  0  0  0  0  # atno 17371 bound_to 10713
  140.5483  134.0652  155.7361 LP  0  0  0  0  0  0  0  0  0  0  0  0  # atno 17394 bound_to 11000
  141.1296  133.9325  157.2563 LP  0  0  0  0  0  0  0  0  0  0  0  0  # atno 17395 bound_to 11000

$$$$
