AV-unprocessed.smi:180|AV-procd|sdf|1452|dock4
  -GOLD-   2262019253D 1   1.00000     0.00000
 Structure written by MMmdl.
 54 57  0  0  0  0  0  0  0  0  1 V2000
  147.1558  141.9369  156.7146 C   0  0  0  0  0  0  0  0  0  0  0  0
  148.4722  141.5613  157.3864 C   0  0  0  0  0  0  0  0  0  0  0  0
  148.4913  140.7034  158.2684 O   0  0  0  0  0  0  0  0  0  0  0  0
  149.5645  142.2153  156.9639 N   0  0  0  0  0  0  0  0  0  0  0  0
  150.9130  142.0151  157.4830 C   0  0  0  0  0  0  0  0  0  0  0  0
  151.0472  142.5213  158.9292 C   0  0  1  0  0  0  0  0  0  0  0  0
  152.2864  141.9304  159.6278 C   0  0  0  0  0  0  0  0  0  0  0  0
  152.4261  142.5034  160.9602 N   0  0  0  0  0  0  0  0  0  0  0  0
  153.3968  141.9370  161.7064 C   0  0  0  0  0  0  0  0  0  0  0  0
  153.9447  140.7902  161.2365 N   0  0  0  0  0  0  0  0  0  0  0  0
  154.9101  140.1791  161.9297 C   0  0  0  0  0  0  0  0  0  0  0  0
  155.4622  140.5405  163.0903 N   0  0  0  0  0  0  0  0  0  0  0  0
  154.9125  141.6959  163.5633 C   0  0  0  0  0  0  0  0  0  0  0  0
  153.8792  142.4524  162.9427 C   0  0  0  0  0  0  0  0  0  0  0  0
  153.5696  143.5609  163.7216 N   0  0  0  0  0  0  0  0  0  0  0  0
  154.3775  143.4671  164.7423 C   0  0  0  0  0  0  0  0  0  0  0  0
  155.2293  142.3852  164.7209 N   0  0  0  0  0  0  0  0  0  0  0  0
  156.2264  142.0413  165.7228 C   0  0  0  0  0  0  0  0  0  0  0  0
  156.7459  143.2437  166.5523 C   0  0  0  0  0  0  0  0  0  0  0  0
  157.1686  144.2013  165.5984 O   0  0  0  0  0  0  0  0  0  0  0  0
  155.6537  143.8861  167.4346 C   0  0  0  0  0  0  0  0  0  0  0  0
  156.2171  145.0159  168.3152 C   0  0  0  0  0  0  0  0  0  0  0  0
  157.2952  144.5268  169.1049 O   0  0  0  0  0  0  0  0  0  0  0  0
  158.3919  144.0691  168.3224 C   0  0  0  0  0  0  0  0  0  0  0  0
  157.9534  142.8829  167.4445 C   0  0  0  0  0  0  0  0  0  0  0  0
  152.4682  143.9592  160.9488 C   0  0  0  0  0  0  0  0  0  0  0  0
  151.2367  144.5081  160.2103 C   0  0  0  0  0  0  0  0  0  0  0  0
  151.1741  143.9429  158.9039 O   0  0  0  0  0  0  0  0  0  0  0  0
  147.2974  142.0998  155.6457 H   0  0  0  0  0  0  0  0  0  0  0  0
  146.7558  142.8512  157.1536 H   0  0  0  0  0  0  0  0  0  0  0  0
  146.4182  141.1440  156.8424 H   0  0  0  0  0  0  0  0  0  0  0  0
  149.4531  142.9095  156.2391 H   0  0  0  0  0  0  0  0  0  0  0  0
  151.1754  140.9572  157.4256 H   0  0  0  0  0  0  0  0  0  0  0  0
  151.6141  142.5418  156.8351 H   0  0  0  0  0  0  0  0  0  0  0  0
  150.1536  142.2469  159.4934 H   0  0  0  0  0  0  0  0  0  0  0  0
  152.1937  140.8460  159.7024 H   0  0  0  0  0  0  0  0  0  0  0  0
  153.1787  142.1388  159.0367 H   0  0  0  0  0  0  0  0  0  0  0  0
  155.2963  139.2709  161.4912 H   0  0  0  0  0  0  0  0  0  0  0  0
  154.3804  144.1941  165.5414 H   0  0  0  0  0  0  0  0  0  0  0  0
  155.7898  141.2914  166.3842 H   0  0  0  0  0  0  0  0  0  0  0  0
  157.0577  141.5479  165.2162 H   0  0  0  0  0  0  0  0  0  0  0  0
  157.1947  145.0487  166.0160 H   0  0  0  0  0  0  0  0  0  0  0  0
  154.8343  144.2602  166.8195 H   0  0  0  0  0  0  0  0  0  0  0  0
  155.2231  143.1348  168.0961 H   0  0  0  0  0  0  0  0  0  0  0  0
  156.5481  145.8616  167.7105 H   0  0  0  0  0  0  0  0  0  0  0  0
  155.4392  145.3912  168.9801 H   0  0  0  0  0  0  0  0  0  0  0  0
  158.7874  144.8854  167.7163 H   0  0  0  0  0  0  0  0  0  0  0  0
  159.1937  143.7589  168.9925 H   0  0  0  0  0  0  0  0  0  0  0  0
  157.6915  142.0591  168.1080 H   0  0  0  0  0  0  0  0  0  0  0  0
  158.7895  142.5343  166.8370 H   0  0  0  0  0  0  0  0  0  0  0  0
  152.4927  144.3397  161.9708 H   0  0  0  0  0  0  0  0  0  0  0  0
  153.3785  144.2997  160.4537 H   0  0  0  0  0  0  0  0  0  0  0  0
  150.3209  144.2840  160.7596 H   0  0  0  0  0  0  0  0  0  0  0  0
  151.3012  145.5928  160.1260 H   0  0  0  0  0  0  0  0  0  0  0  0
  1  2  1  0  0  0  0
  1 29  1  0  0  0  0
  1 30  1  0  0  0  0
  1 31  1  0  0  0  0
  2  3  2  0  0  0  0
  2  4  1  0  0  0  0
  4  5  1  0  0  0  0
  4 32  1  0  0  0  0
  5  6  1  0  0  0  0
  5 33  1  0  0  0  0
  5 34  1  0  0  0  0
  6 28  1  0  0  0  0
  6  7  1  0  0  0  0
  6 35  1  0  0  0  0
  7  8  1  0  0  0  0
  7 36  1  0  0  0  0
  7 37  1  0  0  0  0
  8  9  1  0  0  0  0
  8 26  1  0  0  0  0
  9 14  1  0  0  0  0
  9 10  2  0  0  0  0
 10 11  1  0  0  0  0
 11 12  2  0  0  0  0
 11 38  1  0  0  0  0
 12 13  1  0  0  0  0
 13 17  1  0  0  0  0
 13 14  2  0  0  0  0
 14 15  1  0  0  0  0
 15 16  2  0  0  0  0
 16 17  1  0  0  0  0
 16 39  1  0  0  0  0
 17 18  1  0  0  0  0
 18 19  1  0  0  0  0
 18 40  1  0  0  0  0
 18 41  1  0  0  0  0
 19 25  1  0  0  0  0
 19 20  1  0  0  0  0
 19 21  1  0  0  0  0
 20 42  1  0  0  0  0
 21 22  1  0  0  0  0
 21 43  1  0  0  0  0
 21 44  1  0  0  0  0
 22 23  1  0  0  0  0
 22 45  1  0  0  0  0
 22 46  1  0  0  0  0
 23 24  1  0  0  0  0
 24 25  1  0  0  0  0
 24 47  1  0  0  0  0
 24 48  1  0  0  0  0
 25 49  1  0  0  0  0
 25 50  1  0  0  0  0
 26 27  1  0  0  0  0
 26 51  1  0  0  0  0
 26 52  1  0  0  0  0
 27 28  1  0  0  0  0
 27 53  1  0  0  0  0
 27 54  1  0  0  0  0
M  END
> <s_m_source_file>
AV-unprocessed.smi

> <i_m_source_file_index>
180

> <i_lp_mmshare_version>
43012

> <i_f3d_flags>
0

> <s_epik_input>
W0NIM11DKD1PKVtOSF1bQ0gyXVtDQEBIXTFbQ0gyXU4oW0NIMl1bQ0gyXU8xKWMobltjSF1uMiljKGMyMyluW2NIXW4zW0NIMl1DNChbT0hdKVtDSDJdW0NIMl1PW0NIMl1bQ0gyXTQ=

> <s_epik_cmdline>
J2VwaWtfcHl0aG9uJywgJy1waCcsICc3LjAnLCAnLXRuJywgJzgnLCAnLW1hJywgJzIwMCcsICctbWV0YWxfYmluZGluZycsICctaW1hZScsICc8aW5maWxlLm1hZT4nLCAnLW9tYWUnLCAnPG91dGZpbGUubWFlPic=

> <r_lp_tautomer_probability>
1

> <r_epik_Ionization_Penalty>
7.38871e-05

> <r_epik_Ionization_Penalty_Charging>
0

> <r_epik_Ionization_Penalty_Neutral>
7.38871e-05

> <r_epik_State_Penalty>
-0

> <r_epik_Charging_Adjusted_Penalty>
0

> <i_epik_Tot_Q>
0

> <i_epik_Tot_abs_Q>
0

> <r_epik_Metal_State_Penalty>
-0

> <b_epik_Metal_Only>
0

> <s_lp_Force_Field>
OPLS_2005

> <r_lp_Energy>
30.2573

> <b_lp_Chiralities_Consistent>
1

> <s_lp_Variant>
AV-unprocessed.smi:180-2

> <Gold.Version>
5.8.1

> <Gold.Id.Protein>
6NUR|6NUR_protein|mol2

> <Gold.PLP.Fitness>
47.9307

> <Gold.PLP.PLP>
-46.7598

> <Gold.PLP.part.hbond>
-3.0985

> <Gold.PLP.part.metal>
0.0000

> <Gold.PLP.part.buried>
-4.6357

> <Gold.PLP.part.nonpolar>
-38.7650

> <Gold.PLP.part.repulsive>
0.4472

> <Gold.PLP.ligand.clash>
0.0000

> <Gold.PLP.ligand.torsion>
1.0114

> <Gold.PLP.Chemscore.Hbond>
1.0000

> <Gold.PLP.Chemscore.CHOScore>
0.0000

> <Gold.PLP.Chemscore.Metal>
0.0000

> <Gold.Chemscore.Hbonds>
donor molecule, donor type, donor heavy atom, donor atom, acceptor molecule, acceptor atom, score
      L1  H     4    32       P1  8028  1.00

> <Gold.PLP.Chemscore.Internal.Correction>
0.1937

> <Gold.Rescore>
     Score         DG    S(hbond)    S(metal)    S(lipo)     H(rot)  DE(clash)    DE(int)     intcor
      8.29     -10.53       1.00        0.00      80.10       2.99       0.27       1.96       ----

> <Gold.Chemscore.Fitness>
8.2937

> <Gold.Chemscore.DG>
-10.5257

> <Gold.Chemscore.ZeroCoef>
-5.4800

> <Gold.Chemscore.Hbond>
0.9954

> <Gold.Chemscore.Metal>
0.0000

> <Gold.Chemscore.Lipo>
80.0983

> <Gold.Chemscore.Internal_Hbond>
0.0000

> <Gold.Chemscore.DEClash>
0.2734

> <Gold.Chemscore.DEInternal>
1.9586

> <Gold.Chemscore.Rot>
2.9885

> <Gold.Chemscore.Internal.Correction>
   9.000000E+99

> <Gold.Chemscore.Hbonds>
donor molecule, donor type, donor heavy atom, donor atom, acceptor molecule, acceptor atom, score
      L1  H     4    32       P1  8028  0.92

> <Gold.Chemscore.Hbond.Weighted>
-3.3248

> <Gold.Chemscore.Metal.Weighted>
-0.0000

> <Gold.Chemscore.Lipo.Weighted>
-9.3715

> <Gold.Chemscore.Internal_Hbond.Weighted>
0.0000

> <Gold.Chemscore.DEClash.Weighted>
0.2734

> <Gold.Chemscore.DEInternal.Weighted>
1.9586

> <Gold.Chemscore.Rot.Weighted>
7.6506

> <Gold.Chemscore.Internal.Correction.Weighted>
   9.000000E+99

> <Gold.Protein.RotatedTorsions>
[ 6907 6896 6895 6894 ] final  -75.34 input  -60.11 | X-H torsion
[ 7974 7965 7964 7962 ] final  135.34 input  175.53 | X-H torsion
[ 8008 7997 7996 7995 ] final -148.29 input   59.86 | X-H torsion
[ 10167 10162 10161 10158 ] final  -34.24 input  -65.29 | X-H torsion
[ 10718 10713 10712 10709 ] final  139.47 input   66.30 | X-H torsion
[ 10763 10752 10751 10750 ] final   98.85 input  -60.55 | X-H torsion
[ 11005 11000 10999 10996 ] final  116.63 input  -57.11 | X-H torsion

> <Gold.Protein.ActiveResidues>
 VAL166  LYS551  ARG553  GLY616  TRP617  ASP618  TYR619  PRO620  LYS621  CYS622 
 ASP623  PHE694  ASN695  SER759  ASP760  ASP761  ALA762  ILE779  LEU786  VAL792 
 PHE793  MET794  SER795  GLU796  ALA797  LYS798  CYS799  TRP800  GLU811  SER814 

> <Gold.Protein.RotatedAtoms>
  150.7062  134.4735  159.5436 H   0  0  0  0  0  0  0  0  0  0  0  0  # atno 6907 bound_to 6896
  152.2387  134.8247  160.0472 H   0  0  0  0  0  0  0  0  0  0  0  0  # atno 6908 bound_to 6896
  151.9037  133.3509  159.3876 H   0  0  0  0  0  0  0  0  0  0  0  0  # atno 6909 bound_to 6896
  144.9673  139.4644  143.5450 H   0  0  0  0  0  0  0  0  0  0  0  0  # atno 7974 bound_to 7965
  155.5893  140.0651  157.2763 H   0  0  0  0  0  0  0  0  0  0  0  0  # atno 8008 bound_to 7997
  154.4310  140.1838  156.1104 H   0  0  0  0  0  0  0  0  0  0  0  0  # atno 8009 bound_to 7997
  156.0245  140.3313  155.7077 H   0  0  0  0  0  0  0  0  0  0  0  0  # atno 8010 bound_to 7997
  140.7189  143.3562  151.2055 H   0  0  0  0  0  0  0  0  0  0  0  0  # atno 10167 bound_to 10162
  157.4141  131.1031  151.0423 H   0  0  0  0  0  0  0  0  0  0  0  0  # atno 10718 bound_to 10713
  153.2941  135.4134  155.1194 H   0  0  0  0  0  0  0  0  0  0  0  0  # atno 10763 bound_to 10752
  154.8529  135.3525  154.5941 H   0  0  0  0  0  0  0  0  0  0  0  0  # atno 10764 bound_to 10752
  153.6364  135.7058  153.5315 H   0  0  0  0  0  0  0  0  0  0  0  0  # atno 10765 bound_to 10752
  139.9047  134.9600  156.7227 H   0  0  0  0  0  0  0  0  0  0  0  0  # atno 11005 bound_to 11000
  146.3372  139.8863  142.8816 LP  0  0  0  0  0  0  0  0  0  0  0  0  # atno 17320 bound_to 7965
  145.2610  141.0077  143.3826 LP  0  0  0  0  0  0  0  0  0  0  0  0  # atno 17321 bound_to 7965
  139.7104  143.9387  152.2945 LP  0  0  0  0  0  0  0  0  0  0  0  0  # atno 17342 bound_to 10162
  139.9110  144.6857  150.8563 LP  0  0  0  0  0  0  0  0  0  0  0  0  # atno 17343 bound_to 10162
  157.1377  130.6130  149.5547 LP  0  0  0  0  0  0  0  0  0  0  0  0  # atno 17370 bound_to 10713
  155.9859  130.4892  150.7056 LP  0  0  0  0  0  0  0  0  0  0  0  0  # atno 17371 bound_to 10713
  140.6987  133.9325  155.8011 LP  0  0  0  0  0  0  0  0  0  0  0  0  # atno 17394 bound_to 11000
  141.0387  134.0652  157.3928 LP  0  0  0  0  0  0  0  0  0  0  0  0  # atno 17395 bound_to 11000

$$$$
