AV-unprocessed.smi:767|AV-procd|sdf|3664|dock10
  -GOLD-   22720 1 73D 1   1.00000     0.00000
 Structure written by MMmdl.
 47 49  0  0  0  0  0  0  0  0  1 V2000
  154.7597  137.9942  153.9709 C   0  0  0  0  0  0  0  0  0  0  0  0
  153.3044  138.1147  154.3712 C   0  0  0  0  0  0  0  0  0  0  0  0
  152.8860  139.1178  155.2699 C   0  0  0  0  0  0  0  0  0  0  0  0
  151.5185  139.1992  155.5947 C   0  0  0  0  0  0  0  0  0  0  0  0
  150.6249  138.2744  155.0160 C   0  0  0  0  0  0  0  0  0  0  0  0
  149.1348  138.3400  155.3075 C   0  0  0  0  0  0  0  0  0  0  0  0
  148.5083  136.9801  155.6750 C   0  0  0  0  0  0  0  0  0  0  0  0
  148.0474  136.2439  154.4992 N   0  0  0  0  0  0  0  0  0  0  0  0
  147.0552  135.3415  154.4920 C   0  0  0  0  0  0  0  0  0  0  0  0
  146.3776  135.0507  155.4782 O   0  0  0  0  0  0  0  0  0  0  0  0
  146.9017  134.7730  153.2893 N   0  0  0  0  0  0  0  0  0  0  0  0
  145.9556  133.6968  153.0201 C   0  0  1  0  0  0  0  0  0  0  0  0
  145.7511  133.4386  151.5282 C   0  0  2  0  0  0  0  0  0  0  0  0
  144.6083  133.5915  150.5890 C   0  0  0  0  0  0  0  0  0  0  0  0
  144.7141  132.2068  149.8957 C   0  0  0  0  0  0  0  0  0  0  0  0
  145.6590  131.4395  150.6810 O   0  0  0  0  0  0  0  0  0  0  0  0
  145.5542  132.0005  151.9733 C   0  0  1  0  0  0  0  0  0  0  0  0
  146.6110  132.2648  153.0644 C   0  0  0  0  0  0  0  0  0  0  0  0
  148.0943  132.0891  152.6808 C   0  0  0  0  0  0  0  0  0  0  0  0
  146.4179  131.5057  154.3778 C   0  0  0  0  0  0  0  0  0  0  0  0
  151.1499  137.2982  154.1421 C   0  0  0  0  0  0  0  0  0  0  0  0
  152.4587  137.2165  153.8203 N   0  0  0  0  0  0  0  0  0  0  0  0
  155.2787  138.9444  154.1002 H   0  0  0  0  0  0  0  0  0  0  0  0
  154.8524  137.7003  152.9246 H   0  0  0  0  0  0  0  0  0  0  0  0
  155.2578  137.2442  154.5858 H   0  0  0  0  0  0  0  0  0  0  0  0
  153.5924  139.8175  155.6918 H   0  0  0  0  0  0  0  0  0  0  0  0
  151.1644  139.9660  156.2678 H   0  0  0  0  0  0  0  0  0  0  0  0
  148.9700  139.0498  156.1186 H   0  0  0  0  0  0  0  0  0  0  0  0
  148.6210  138.7509  154.4376 H   0  0  0  0  0  0  0  0  0  0  0  0
  149.2238  136.3838  156.2436 H   0  0  0  0  0  0  0  0  0  0  0  0
  147.6571  137.1375  156.3376 H   0  0  0  0  0  0  0  0  0  0  0  0
  148.5422  136.4122  153.6354 H   0  0  0  0  0  0  0  0  0  0  0  0
  147.4980  135.0686  152.5305 H   0  0  0  0  0  0  0  0  0  0  0  0
  145.0143  133.7781  153.5719 H   0  0  0  0  0  0  0  0  0  0  0  0
  146.6846  133.5982  150.9838 H   0  0  0  0  0  0  0  0  0  0  0  0
  143.6607  133.7150  151.1153 H   0  0  0  0  0  0  0  0  0  0  0  0
  144.7403  134.4197  149.8925 H   0  0  0  0  0  0  0  0  0  0  0  0
  143.7437  131.7092  149.8741 H   0  0  0  0  0  0  0  0  0  0  0  0
  145.0751  132.2903  148.8703 H   0  0  0  0  0  0  0  0  0  0  0  0
  144.5654  131.7997  152.4017 H   0  0  0  0  0  0  0  0  0  0  0  0
  148.3634  131.0342  152.6214 H   0  0  0  0  0  0  0  0  0  0  0  0
  148.7482  132.5470  153.4217 H   0  0  0  0  0  0  0  0  0  0  0  0
  148.3555  132.5263  151.7190 H   0  0  0  0  0  0  0  0  0  0  0  0
  146.6297  130.4423  154.2628 H   0  0  0  0  0  0  0  0  0  0  0  0
  145.3949  131.5932  154.7441 H   0  0  0  0  0  0  0  0  0  0  0  0
  147.0721  131.8899  155.1611 H   0  0  0  0  0  0  0  0  0  0  0  0
  150.4994  136.5739  153.6744 H   0  0  0  0  0  0  0  0  0  0  0  0
  1  2  1  0  0  0  0
  1 23  1  0  0  0  0
  1 24  1  0  0  0  0
  1 25  1  0  0  0  0
  2 22  1  0  0  0  0
  2  3  2  0  0  0  0
  3  4  1  0  0  0  0
  3 26  1  0  0  0  0
  4  5  2  0  0  0  0
  4 27  1  0  0  0  0
  5  6  1  0  0  0  0
  5 21  1  0  0  0  0
  6  7  1  0  0  0  0
  6 28  1  0  0  0  0
  6 29  1  0  0  0  0
  7  8  1  0  0  0  0
  7 30  1  0  0  0  0
  7 31  1  0  0  0  0
  8  9  1  0  0  0  0
  8 32  1  0  0  0  0
  9 10  2  0  0  0  0
  9 11  1  0  0  0  0
 11 12  1  0  0  0  0
 11 33  1  0  0  0  0
 12 18  1  0  0  0  0
 12 13  1  0  0  0  0
 12 34  1  0  0  0  0
 13 17  1  0  0  0  0
 13 14  1  0  0  0  0
 13 35  1  0  0  0  0
 14 15  1  0  0  0  0
 14 36  1  0  0  0  0
 14 37  1  0  0  0  0
 15 16  1  0  0  0  0
 15 38  1  0  0  0  0
 15 39  1  0  0  0  0
 16 17  1  0  0  0  0
 17 18  1  0  0  0  0
 17 40  1  0  0  0  0
 18 19  1  0  0  0  0
 18 20  1  0  0  0  0
 19 41  1  0  0  0  0
 19 42  1  0  0  0  0
 19 43  1  0  0  0  0
 20 44  1  0  0  0  0
 20 45  1  0  0  0  0
 20 46  1  0  0  0  0
 21 22  2  0  0  0  0
 21 47  1  0  0  0  0
M  END
> <s_m_source_file>
AV-unprocessed.smi

> <i_m_source_file_index>
767

> <i_lp_mmshare_version>
43012

> <i_f3d_flags>
0

> <s_epik_input>
W0NIM11jMVtjSF1bY0hdYyhbY0hdbjEpW0NIMl1bQ0gyXVtOSF1DKD1PKVtOSF1bQ0BIXTJDKFtDSDNdKShbQ0gzXSlbQ0BIXShbQ0BASF0yMylPW0NIMl1bQ0gyXTM=

> <s_epik_cmdline>
J2VwaWtfcHl0aG9uJywgJy1waCcsICc3LjAnLCAnLXRuJywgJzgnLCAnLW1hJywgJzIwMCcsICctbWV0YWxfYmluZGluZycsICctaW1hZScsICc8aW5maWxlLm1hZT4nLCAnLW9tYWUnLCAnPG91dGZpbGUubWFlPic=

> <r_epik_Ionization_Penalty>
0.0567523

> <r_epik_Ionization_Penalty_Charging>
0

> <r_epik_Ionization_Penalty_Neutral>
0.0567523

> <r_epik_State_Penalty>
0.0489186

> <r_epik_Charging_Adjusted_Penalty>
0.0489186

> <i_epik_Tot_Q>
0

> <i_epik_Tot_abs_Q>
0

> <r_epik_Metal_State_Penalty>
0.044622

> <b_epik_Metal_Only>
0

> <s_lp_Force_Field>
OPLS_2005

> <r_lp_Energy>
55.1366

> <b_lp_Chiralities_Consistent>
1

> <s_lp_Variant>
AV-unprocessed.smi:767-8

> <Gold.Version>
5.8.1

> <Gold.Id.Protein>
6NUR|6NUR_protein|mol2

> <Gold.PLP.Fitness>
42.5692

> <Gold.PLP.PLP>
-32.3097

> <Gold.PLP.part.hbond>
-3.0000

> <Gold.PLP.part.metal>
0.0000

> <Gold.PLP.part.buried>
-0.5832

> <Gold.PLP.part.nonpolar>
-31.0045

> <Gold.PLP.part.repulsive>
0.4297

> <Gold.PLP.ligand.clash>
0.0000

> <Gold.PLP.ligand.torsion>
0.7207

> <Gold.PLP.Chemscore.Hbond>
2.8320

> <Gold.PLP.Chemscore.CHOScore>
0.9758

> <Gold.PLP.Chemscore.Metal>
0.0000

> <Gold.Chemscore.Hbonds>
donor molecule, donor type, donor heavy atom, donor atom, acceptor molecule, acceptor atom, score
      L1  H     8    32       P1  7948  1.00
      L1  H    11    33       P1  7948  1.00
      P1  H 10752 10765       L1    22  0.83
      L1  C    21    47       P1  7948  0.42
      L1  C    21    47       P1  7949  0.29

> <Gold.PLP.Chemscore.Internal.Correction>
0.2777

> <Gold.Rescore>
     Score         DG    S(hbond)    S(metal)    S(lipo)     H(rot)  DE(clash)    DE(int)     intcor
     20.61     -22.20       2.60        0.00     100.39       1.45       0.87       0.73       ----

> <Gold.Chemscore.Fitness>
20.6059

> <Gold.Chemscore.DG>
-22.2015

> <Gold.Chemscore.ZeroCoef>
-5.4800

> <Gold.Chemscore.Hbond>
2.6009

> <Gold.Chemscore.Metal>
0.0000

> <Gold.Chemscore.Lipo>
100.3904

> <Gold.Chemscore.Internal_Hbond>
0.0000

> <Gold.Chemscore.DEClash>
0.8705

> <Gold.Chemscore.DEInternal>
0.7251

> <Gold.Chemscore.Rot>
1.4497

> <Gold.Chemscore.Internal.Correction>
   9.000000E+99

> <Gold.Chemscore.Hbonds>
donor molecule, donor type, donor heavy atom, donor atom, acceptor molecule, acceptor atom, score
      L1  H     8    32       P1  7948  0.99
      L1  H    11    33       P1  7948  0.94
      P1  H 10752 10765       L1    22  0.44

> <Gold.Chemscore.Hbond.Weighted>
-8.6871

> <Gold.Chemscore.Metal.Weighted>
-0.0000

> <Gold.Chemscore.Lipo.Weighted>
-11.7457

> <Gold.Chemscore.Internal_Hbond.Weighted>
0.0000

> <Gold.Chemscore.DEClash.Weighted>
0.8705

> <Gold.Chemscore.DEInternal.Weighted>
0.7251

> <Gold.Chemscore.Rot.Weighted>
3.7112

> <Gold.Chemscore.Internal.Correction.Weighted>
   9.000000E+99

> <Gold.Protein.RotatedTorsions>
[ 6907 6896 6895 6894 ] final  107.31 input  -60.11 | X-H torsion
[ 7974 7965 7964 7962 ] final  153.10 input  175.53 | X-H torsion
[ 8008 7997 7996 7995 ] final -172.54 input   59.86 | X-H torsion
[ 10167 10162 10161 10158 ] final  -37.65 input  -65.29 | X-H torsion
[ 10718 10713 10712 10709 ] final -165.25 input   66.30 | X-H torsion
[ 10763 10752 10751 10750 ] final  149.88 input  -60.55 | X-H torsion
[ 11005 11000 10999 10996 ] final -175.52 input  -57.11 | X-H torsion

> <Gold.Protein.ActiveResidues>
 VAL166  LYS551  ARG553  GLY616  TRP617  ASP618  TYR619  PRO620  LYS621  CYS622 
 ASP623  PHE694  ASN695  SER759  ASP760  ASP761  ALA762  ILE779  LEU786  VAL792 
 PHE793  MET794  SER795  GLU796  ALA797  LYS798  CYS799  TRP800  GLU811  SER814 

> <Gold.Protein.RotatedAtoms>
  152.5159  133.9253  159.7554 H   0  0  0  0  0  0  0  0  0  0  0  0  # atno 6907 bound_to 6896
  150.9616  133.6431  159.2760 H   0  0  0  0  0  0  0  0  0  0  0  0  # atno 6908 bound_to 6896
  151.3674  135.0921  159.9507 H   0  0  0  0  0  0  0  0  0  0  0  0  # atno 6909 bound_to 6896
  144.8177  139.6756  143.6114 H   0  0  0  0  0  0  0  0  0  0  0  0  # atno 7974 bound_to 7965
  155.9458  140.1117  157.1018 H   0  0  0  0  0  0  0  0  0  0  0  0  # atno 8008 bound_to 7997
  154.4099  140.1210  156.5054 H   0  0  0  0  0  0  0  0  0  0  0  0  # atno 8009 bound_to 7997
  155.6904  140.3472  155.4893 H   0  0  0  0  0  0  0  0  0  0  0  0  # atno 8010 bound_to 7997
  140.7113  143.3328  151.2530 H   0  0  0  0  0  0  0  0  0  0  0  0  # atno 10167 bound_to 10162
  156.6508  130.9006  151.3013 H   0  0  0  0  0  0  0  0  0  0  0  0  # atno 10718 bound_to 10713
  154.0784  135.2861  155.3295 H   0  0  0  0  0  0  0  0  0  0  0  0  # atno 10763 bound_to 10752
  154.6700  135.5303  153.8129 H   0  0  0  0  0  0  0  0  0  0  0  0  # atno 10764 bound_to 10752
  153.0458  135.6555  154.0961 H   0  0  0  0  0  0  0  0  0  0  0  0  # atno 10765 bound_to 10752
  140.4624  134.6242  157.4848 H   0  0  0  0  0  0  0  0  0  0  0  0  # atno 11005 bound_to 11000
  146.2481  139.6142  142.9445 LP  0  0  0  0  0  0  0  0  0  0  0  0  # atno 17320 bound_to 7965
  145.5176  141.0433  143.2453 LP  0  0  0  0  0  0  0  0  0  0  0  0  # atno 17321 bound_to 7965
  139.6815  143.9847  152.2811 LP  0  0  0  0  0  0  0  0  0  0  0  0  # atno 17342 bound_to 10162
  139.9478  144.6640  150.8202 LP  0  0  0  0  0  0  0  0  0  0  0  0  # atno 17343 bound_to 10162
  157.7141  130.9476  150.1194 LP  0  0  0  0  0  0  0  0  0  0  0  0  # atno 17370 bound_to 10713
  156.2086  130.3665  149.8698 LP  0  0  0  0  0  0  0  0  0  0  0  0  # atno 17371 bound_to 10713
  139.9937  134.6945  155.9646 LP  0  0  0  0  0  0  0  0  0  0  0  0  # atno 17394 bound_to 11000
  141.1615  133.6538  156.4335 LP  0  0  0  0  0  0  0  0  0  0  0  0  # atno 17395 bound_to 11000

$$$$
