AV-unprocessed.smi:849|AV-procd|sdf|3945|dock2
  -GOLD-   22720 1413D 1   1.00000     0.00000
 Structure written by MMmdl.
 37 39  0  0  0  0  0  0  0  0  2 V2000
  152.1942  137.0960  153.5427 O   0  0  0  0  0  0  0  0  0  0  0  0
  151.6436  137.5943  154.7413 C   0  0  0  0  0  0  0  0  0  0  0  0
  150.5452  138.5769  154.4953 C   0  0  0  0  0  0  0  0  0  0  0  0
  149.4737  138.3640  153.6812 N   0  3  0  0  0  0  0  0  0  0  0  0
  148.6464  139.4859  153.6819 C   0  0  0  0  0  0  0  0  0  0  0  0
  147.4513  139.7343  153.0137 C   0  0  0  0  0  0  0  0  0  0  0  0
  146.8546  140.9932  153.2312 C   0  0  0  0  0  0  0  0  0  0  0  0
  147.4466  141.9480  154.0826 C   0  0  0  0  0  0  0  0  0  0  0  0
  148.6591  141.6846  154.7528 C   0  0  0  0  0  0  0  0  0  0  0  0
  149.2423  140.4351  154.5376 C   0  0  0  0  0  0  0  0  0  0  0  0
  150.4064  139.8274  155.0291 N   0  0  0  0  0  0  0  0  0  0  0  0
  151.2621  140.5657  155.9783 C   0  0  0  0  0  0  0  0  0  0  0  0
  150.8685  140.3728  157.4616 C   0  0  2  0  0  0  0  0  0  0  0  0
  149.4698  140.5251  157.6114 O   0  0  0  0  0  0  0  0  0  0  0  0
  151.6720  141.2652  158.4081 C   0  0  0  0  0  0  0  0  0  0  0  0
  151.5469  142.6726  158.3310 C   0  0  0  0  0  0  0  0  0  0  0  0
  152.2939  143.5082  159.1821 C   0  0  0  0  0  0  0  0  0  0  0  0
  153.1757  142.9462  160.1223 C   0  0  0  0  0  0  0  0  0  0  0  0
  153.3120  141.5484  160.2058 C   0  0  0  0  0  0  0  0  0  0  0  0
  152.5691  140.7067  159.3538 C   0  0  0  0  0  0  0  0  0  0  0  0
  152.7993  138.9979  159.4821 Cl  0  0  0  0  0  0  0  0  0  0  0  0
  151.4841  136.8146  152.9851 H   0  0  0  0  0  0  0  0  0  0  0  0
  151.2817  136.7604  155.3416 H   0  0  0  0  0  0  0  0  0  0  0  0
  152.4332  138.0799  155.3150 H   0  0  0  0  0  0  0  0  0  0  0  0
  146.9964  139.0046  152.3601 H   0  0  0  0  0  0  0  0  0  0  0  0
  145.9250  141.2312  152.7346 H   0  0  0  0  0  0  0  0  0  0  0  0
  146.9608  142.9023  154.2257 H   0  0  0  0  0  0  0  0  0  0  0  0
  149.0975  142.4257  155.4040 H   0  0  0  0  0  0  0  0  0  0  0  0
  152.2860  140.2258  155.8230 H   0  0  0  0  0  0  0  0  0  0  0  0
  151.2671  141.6220  155.7103 H   0  0  0  0  0  0  0  0  0  0  0  0
  151.0628  139.3345  157.7293 H   0  0  0  0  0  0  0  0  0  0  0  0
  149.1744  139.9259  158.2801 H   0  0  0  0  0  0  0  0  0  0  0  0
  150.8843  143.1249  157.6079 H   0  0  0  0  0  0  0  0  0  0  0  0
  152.1910  144.5811  159.1117 H   0  0  0  0  0  0  0  0  0  0  0  0
  153.7493  143.5860  160.7765 H   0  0  0  0  0  0  0  0  0  0  0  0
  153.9944  141.1203  160.9256 H   0  0  0  0  0  0  0  0  0  0  0  0
  149.3229  137.5073  153.1640 H   0  0  0  0  0  0  0  0  0  0  0  0
  1  2  1  0  0  0  0
  1 22  1  0  0  0  0
  2  3  1  0  0  0  0
  2 23  1  0  0  0  0
  2 24  1  0  0  0  0
  3 11  1  0  0  0  0
  3  4  2  0  0  0  0
  4  5  1  0  0  0  0
  4 37  1  0  0  0  0
  5 10  2  0  0  0  0
  5  6  1  0  0  0  0
  6  7  2  0  0  0  0
  6 25  1  0  0  0  0
  7  8  1  0  0  0  0
  7 26  1  0  0  0  0
  8  9  2  0  0  0  0
  8 27  1  0  0  0  0
  9 10  1  0  0  0  0
  9 28  1  0  0  0  0
 10 11  1  0  0  0  0
 11 12  1  0  0  0  0
 12 13  1  0  0  0  0
 12 29  1  0  0  0  0
 12 30  1  0  0  0  0
 13 14  1  0  0  0  0
 13 15  1  0  0  0  0
 13 31  1  0  0  0  0
 14 32  1  0  0  0  0
 15 20  1  0  0  0  0
 15 16  2  0  0  0  0
 16 17  1  0  0  0  0
 16 33  1  0  0  0  0
 17 18  2  0  0  0  0
 17 34  1  0  0  0  0
 18 19  1  0  0  0  0
 18 35  1  0  0  0  0
 19 20  2  0  0  0  0
 19 36  1  0  0  0  0
 20 21  1  0  0  0  0
M  CHG  1   4   1
M  END
> <s_m_source_file>
AV-unprocessed.smi

> <i_m_source_file_index>
849

> <i_lp_mmshare_version>
43012

> <i_f3d_flags>
0

> <s_epik_input>
W2NIXTFbY0hdW2NIXVtjSF1jKGMxMiluKGMobjIpW0NIMl1bT0hdKVtDSDJdW0NASF0oW09IXSljM1tjSF1bY0hdW2NIXVtjSF1jM0Ns

> <s_epik_cmdline>
J2VwaWtfcHl0aG9uJywgJy1waCcsICc3LjAnLCAnLXRuJywgJzgnLCAnLW1hJywgJzIwMCcsICctbWV0YWxfYmluZGluZycsICctaW1hZScsICc8aW5maWxlLm1hZT4nLCAnLW9tYWUnLCAnPG91dGZpbGUubWFlPic=

> <r_epik_Ionization_Penalty>
1.35643

> <r_epik_Ionization_Penalty_Charging>
1.35557

> <r_epik_Ionization_Penalty_Neutral>
0.000861512

> <r_epik_State_Penalty>
1.43401

> <r_epik_Charging_Adjusted_Penalty>
2.78958

> <i_epik_Tot_Q>
1

> <i_epik_Tot_abs_Q>
1

> <r_epik_Metal_State_Penalty>
5.47166

> <b_epik_Metal_Only>
0

> <s_lp_Force_Field>
OPLS_2005

> <r_lp_Energy>
14.886

> <b_lp_Chiralities_Consistent>
1

> <s_lp_Variant>
AV-unprocessed.smi:849-3

> <Gold.Version>
5.8.1

> <Gold.Id.Protein>
6NUR|6NUR_protein|mol2

> <Gold.PLP.Fitness>
59.3999

> <Gold.PLP.PLP>
-48.7722

> <Gold.PLP.part.hbond>
-4.0000

> <Gold.PLP.part.metal>
0.0000

> <Gold.PLP.part.buried>
2.0242

> <Gold.PLP.part.nonpolar>
-46.4647

> <Gold.PLP.part.repulsive>
0.0596

> <Gold.PLP.ligand.clash>
0.0000

> <Gold.PLP.ligand.torsion>
0.5248

> <Gold.PLP.Chemscore.Hbond>
3.8640

> <Gold.PLP.Chemscore.CHOScore>
0.0000

> <Gold.PLP.Chemscore.Metal>
0.0000

> <Gold.Chemscore.Hbonds>
donor molecule, donor type, donor heavy atom, donor atom, acceptor molecule, acceptor atom, score
      L1  H     1    22       P1  7949  0.83
      L1  H     4    37       P1  7948  2.00
      P1  H 10752 10764       L1     1  1.00

> <Gold.PLP.Chemscore.Internal.Correction>
0.0853

> <Gold.Rescore>
     Score         DG    S(hbond)    S(metal)    S(lipo)     H(rot)  DE(clash)    DE(int)     intcor
     19.72     -20.36       2.09        0.00     126.51       2.70       0.10       0.54       ----

> <Gold.Chemscore.Fitness>
19.7222

> <Gold.Chemscore.DG>
-20.3644

> <Gold.Chemscore.ZeroCoef>
-5.4800

> <Gold.Chemscore.Hbond>
2.0913

> <Gold.Chemscore.Metal>
0.0000

> <Gold.Chemscore.Lipo>
126.5113

> <Gold.Chemscore.Internal_Hbond>
0.0000

> <Gold.Chemscore.DEClash>
0.0982

> <Gold.Chemscore.DEInternal>
0.5439

> <Gold.Chemscore.Rot>
2.6963

> <Gold.Chemscore.Internal.Correction>
   9.000000E+99

> <Gold.Chemscore.Hbonds>
donor molecule, donor type, donor heavy atom, donor atom, acceptor molecule, acceptor atom, score
      L1  H     1    22       P1  7949  0.74
      L1  H     4    37       P1  7948  0.97
      P1  H 10752 10764       L1     1  0.46

> <Gold.Chemscore.Hbond.Weighted>
-6.9850

> <Gold.Chemscore.Metal.Weighted>
-0.0000

> <Gold.Chemscore.Lipo.Weighted>
-14.8018

> <Gold.Chemscore.Internal_Hbond.Weighted>
0.0000

> <Gold.Chemscore.DEClash.Weighted>
0.0982

> <Gold.Chemscore.DEInternal.Weighted>
0.5439

> <Gold.Chemscore.Rot.Weighted>
6.9024

> <Gold.Chemscore.Internal.Correction.Weighted>
   9.000000E+99

> <Gold.Protein.RotatedTorsions>
[ 6907 6896 6895 6894 ] final  -21.43 input  -60.11 | X-H torsion
[ 7974 7965 7964 7962 ] final  -84.40 input  175.53 | X-H torsion
[ 8008 7997 7996 7995 ] final  -95.00 input   59.86 | X-H torsion
[ 10167 10162 10161 10158 ] final  -34.27 input  -65.29 | X-H torsion
[ 10718 10713 10712 10709 ] final -178.21 input   66.30 | X-H torsion
[ 10763 10752 10751 10750 ] final -105.86 input  -60.55 | X-H torsion
[ 11005 11000 10999 10996 ] final  125.81 input  -57.11 | X-H torsion

> <Gold.Protein.ActiveResidues>
 VAL166  LYS551  ARG553  GLY616  TRP617  ASP618  TYR619  PRO620  LYS621  CYS622 
 ASP623  PHE694  ASN695  SER759  ASP760  ASP761  ALA762  ILE779  LEU786  VAL792 
 PHE793  MET794  SER795  GLU796  ALA797  LYS798  CYS799  TRP800  GLU811  SER814 

> <Gold.Protein.RotatedAtoms>
  151.2335  135.0563  159.8996 H   0  0  0  0  0  0  0  0  0  0  0  0  # atno 6907 bound_to 6896
  152.5402  134.0512  159.8121 H   0  0  0  0  0  0  0  0  0  0  0  0  # atno 6908 bound_to 6896
  151.0695  133.5429  159.2659 H   0  0  0  0  0  0  0  0  0  0  0  0  # atno 6909 bound_to 6896
  145.5071  140.9543  143.1728 H   0  0  0  0  0  0  0  0  0  0  0  0  # atno 7974 bound_to 7965
  154.7557  140.0484  157.0931 H   0  0  0  0  0  0  0  0  0  0  0  0  # atno 8008 bound_to 7997
  155.0000  140.3123  155.4851 H   0  0  0  0  0  0  0  0  0  0  0  0  # atno 8009 bound_to 7997
  156.2894  140.2203  156.5110 H   0  0  0  0  0  0  0  0  0  0  0  0  # atno 8010 bound_to 7997
  140.7189  143.3560  151.2058 H   0  0  0  0  0  0  0  0  0  0  0  0  # atno 10167 bound_to 10162
  156.8409  130.9686  151.3100 H   0  0  0  0  0  0  0  0  0  0  0  0  # atno 10718 bound_to 10713
  154.7975  135.4733  154.0195 H   0  0  0  0  0  0  0  0  0  0  0  0  # atno 10763 bound_to 10752
  153.1727  135.6827  153.8593 H   0  0  0  0  0  0  0  0  0  0  0  0  # atno 10764 bound_to 10752
  153.8170  135.3209  155.3384 H   0  0  0  0  0  0  0  0  0  0  0  0  # atno 10765 bound_to 10752
  139.9425  134.9634  156.8614 H   0  0  0  0  0  0  0  0  0  0  0  0  # atno 11005 bound_to 11000
  144.7748  139.6654  143.7179 LP  0  0  0  0  0  0  0  0  0  0  0  0  # atno 17320 bound_to 7965
  146.2190  139.5601  142.9631 LP  0  0  0  0  0  0  0  0  0  0  0  0  # atno 17321 bound_to 7965
  139.7102  143.9390  152.2944 LP  0  0  0  0  0  0  0  0  0  0  0  0  # atno 17342 bound_to 10162
  139.9112  144.6855  150.8560 LP  0  0  0  0  0  0  0  0  0  0  0  0  # atno 17343 bound_to 10162
  157.6356  130.8764  149.9352 LP  0  0  0  0  0  0  0  0  0  0  0  0  # atno 17370 bound_to 10713
  156.0881  130.3666  150.0448 LP  0  0  0  0  0  0  0  0  0  0  0  0  # atno 17371 bound_to 10713
  140.5917  134.0256  155.7502 LP  0  0  0  0  0  0  0  0  0  0  0  0  # atno 17394 bound_to 11000
  141.1064  133.9686  157.2989 LP  0  0  0  0  0  0  0  0  0  0  0  0  # atno 17395 bound_to 11000

$$$$
