AV-unprocessed.smi:651|AV-procd|sdf|3188|dock8
  -GOLD-   22720 0113D 1   1.00000     0.00000
 Structure written by MMmdl.
 39 40  0  0  0  0  0  0  0  0  2 V2000
  152.9930  143.1505  162.8502 C   0  0  0  0  0  0  0  0  0  0  0  0
  152.6350  143.1132  161.3797 C   0  0  0  0  0  0  0  0  0  0  0  0
  152.9812  142.0264  160.5485 C   0  0  0  0  0  0  0  0  0  0  0  0
  152.6074  142.0529  159.1891 C   0  0  0  0  0  0  0  0  0  0  0  0
  151.8918  143.1631  158.6878 C   0  0  0  0  0  0  0  0  0  0  0  0
  151.4539  143.2114  157.2343 C   0  0  0  0  0  0  0  0  0  0  0  0
  150.5276  142.0354  156.9228 C   0  0  0  0  0  0  0  0  0  0  0  0
  150.7960  140.9120  157.3467 O   0  0  0  0  0  0  0  0  0  0  0  0
  149.4511  142.3062  156.1686 N   0  0  0  0  0  0  0  0  0  0  0  0
  148.4731  141.3235  155.7099 C   0  0  2  0  0  0  0  0  0  0  0  0
  149.1111  140.2397  154.8221 C   0  0  0  0  0  0  0  0  0  0  0  0
  148.0611  139.9211  153.7627 C   0  0  0  0  0  0  0  0  0  0  0  0
  147.3897  141.2653  153.4951 C   0  0  0  0  0  0  0  0  0  0  0  0
  147.3745  142.0023  154.8484 C   0  0  1  0  0  0  0  0  0  0  0  0
  145.9934  141.9497  155.5227 C   0  0  0  0  0  0  0  0  0  0  0  0
  144.9752  141.4903  154.7907 N   0  0  0  0  0  0  0  0  0  0  0  0
  145.8469  142.3144  156.6880 O   0  0  0  0  0  0  0  0  0  0  0  0
  151.5775  144.2233  159.5657 C   0  0  0  0  0  0  0  0  0  0  0  0
  151.9539  144.1600  160.8616 N   0  3  0  0  0  0  0  0  0  0  0  0
  153.7751  142.4261  163.0798 H   0  0  0  0  0  0  0  0  0  0  0  0
  152.1190  142.9138  163.4574 H   0  0  0  0  0  0  0  0  0  0  0  0
  153.3534  144.1395  163.1346 H   0  0  0  0  0  0  0  0  0  0  0  0
  153.5229  141.1803  160.9458 H   0  0  0  0  0  0  0  0  0  0  0  0
  152.8612  141.2253  158.5428 H   0  0  0  0  0  0  0  0  0  0  0  0
  150.9387  144.1529  157.0381 H   0  0  0  0  0  0  0  0  0  0  0  0
  152.3217  143.1818  156.5738 H   0  0  0  0  0  0  0  0  0  0  0  0
  149.3082  143.2602  155.8715 H   0  0  0  0  0  0  0  0  0  0  0  0
  148.0305  140.8399  156.5837 H   0  0  0  0  0  0  0  0  0  0  0  0
  150.0039  140.6280  154.3293 H   0  0  0  0  0  0  0  0  0  0  0  0
  149.4086  139.3578  155.3905 H   0  0  0  0  0  0  0  0  0  0  0  0
  148.4914  139.4791  152.8636 H   0  0  0  0  0  0  0  0  0  0  0  0
  147.3320  139.2170  154.1660 H   0  0  0  0  0  0  0  0  0  0  0  0
  147.9873  141.8338  152.7816 H   0  0  0  0  0  0  0  0  0  0  0  0
  146.3998  141.1421  153.0532 H   0  0  0  0  0  0  0  0  0  0  0  0
  147.6218  143.0498  154.6637 H   0  0  0  0  0  0  0  0  0  0  0  0
  144.0481  141.4396  155.1871 H   0  0  0  0  0  0  0  0  0  0  0  0
  145.1376  141.1975  153.8379 H   0  0  0  0  0  0  0  0  0  0  0  0
  151.0315  145.1092  159.2745 H   0  0  0  0  0  0  0  0  0  0  0  0
  151.7105  144.9361  161.4778 H   0  0  0  0  0  0  0  0  0  0  0  0
  1  2  1  0  0  0  0
  1 20  1  0  0  0  0
  1 21  1  0  0  0  0
  1 22  1  0  0  0  0
  2 19  1  0  0  0  0
  2  3  2  0  0  0  0
  3  4  1  0  0  0  0
  3 23  1  0  0  0  0
  4  5  2  0  0  0  0
  4 24  1  0  0  0  0
  5  6  1  0  0  0  0
  5 18  1  0  0  0  0
  6  7  1  0  0  0  0
  6 25  1  0  0  0  0
  6 26  1  0  0  0  0
  7  8  2  0  0  0  0
  7  9  1  0  0  0  0
  9 10  1  0  0  0  0
  9 27  1  0  0  0  0
 10 14  1  0  0  0  0
 10 11  1  0  0  0  0
 10 28  1  0  0  0  0
 11 12  1  0  0  0  0
 11 29  1  0  0  0  0
 11 30  1  0  0  0  0
 12 13  1  0  0  0  0
 12 31  1  0  0  0  0
 12 32  1  0  0  0  0
 13 14  1  0  0  0  0
 13 33  1  0  0  0  0
 13 34  1  0  0  0  0
 14 15  1  0  0  0  0
 14 35  1  0  0  0  0
 15 16  1  0  0  0  0
 15 17  2  0  0  0  0
 16 36  1  0  0  0  0
 16 37  1  0  0  0  0
 18 19  2  0  0  0  0
 18 38  1  0  0  0  0
 19 39  1  0  0  0  0
M  CHG  1  19   1
M  END
> <s_m_source_file>
AV-unprocessed.smi

> <i_m_source_file_index>
651

> <i_lp_mmshare_version>
43012

> <i_f3d_flags>
0

> <s_epik_input>
W0NIM11jMVtjSF1bY0hdYyhbY0hdbjEpW0NIMl1DKD1PKVtOSF1bQ0BASF0yW0NIMl1bQ0gyXVtDSDJdW0NASF0yQyg9TylbTkgyXQ==

> <s_epik_cmdline>
J2VwaWtfcHl0aG9uJywgJy1waCcsICc3LjAnLCAnLXRuJywgJzgnLCAnLW1hJywgJzIwMCcsICctbWV0YWxfYmluZGluZycsICctaW1hZScsICc8aW5maWxlLm1hZT4nLCAnLW9tYWUnLCAnPG91dGZpbGUubWFlPic=

> <r_epik_Ionization_Penalty>
2.14971

> <r_epik_Ionization_Penalty_Charging>
2.14971

> <r_epik_Ionization_Penalty_Neutral>
1.65229e-07

> <r_epik_State_Penalty>
2.28946

> <r_epik_Charging_Adjusted_Penalty>
4.43917

> <i_epik_Tot_Q>
1

> <i_epik_Tot_abs_Q>
1

> <r_epik_Metal_State_Penalty>
2.30508

> <b_epik_Metal_Only>
0

> <s_lp_Force_Field>
OPLS_2005

> <r_lp_Energy>
20.422

> <b_lp_Chiralities_Consistent>
1

> <s_lp_Variant>
AV-unprocessed.smi:651-5

> <Gold.Version>
5.8.1

> <Gold.Id.Protein>
6NUR|6NUR_protein|mol2

> <Gold.PLP.Fitness>
44.7086

> <Gold.PLP.PLP>
-41.2472

> <Gold.PLP.part.hbond>
-2.0000

> <Gold.PLP.part.metal>
0.0000

> <Gold.PLP.part.buried>
-5.1369

> <Gold.PLP.part.nonpolar>
-34.7541

> <Gold.PLP.part.repulsive>
0.2565

> <Gold.PLP.ligand.clash>
0.0237

> <Gold.PLP.ligand.torsion>
0.4201

> <Gold.PLP.Chemscore.Hbond>
1.4399

> <Gold.PLP.Chemscore.CHOScore>
0.0000

> <Gold.PLP.Chemscore.Metal>
0.0000

> <Gold.Chemscore.Hbonds>
donor molecule, donor type, donor heavy atom, donor atom, acceptor molecule, acceptor atom, score
      L1  H     9    27       P1  8028  1.00
      L1  H    16    37       P1 10175  0.42

> <Gold.PLP.Chemscore.Internal.Correction>
0.0054

> <Gold.Rescore>
     Score         DG    S(hbond)    S(metal)    S(lipo)     H(rot)  DE(clash)    DE(int)     intcor
     16.08     -18.17       1.52        0.00     109.52       2.04       0.31       1.78       ----

> <Gold.Chemscore.Fitness>
16.0798

> <Gold.Chemscore.DG>
-18.1676

> <Gold.Chemscore.ZeroCoef>
-5.4800

> <Gold.Chemscore.Hbond>
1.5246

> <Gold.Chemscore.Metal>
0.0000

> <Gold.Chemscore.Lipo>
109.5234

> <Gold.Chemscore.Internal_Hbond>
0.0000

> <Gold.Chemscore.DEClash>
0.3082

> <Gold.Chemscore.DEInternal>
1.7796

> <Gold.Chemscore.Rot>
2.0386

> <Gold.Chemscore.Internal.Correction>
   9.000000E+99

> <Gold.Chemscore.Hbonds>
donor molecule, donor type, donor heavy atom, donor atom, acceptor molecule, acceptor atom, score
      L1  H     9    27       P1  8028  0.93
      L1  H    16    37       P1 10175  0.25

> <Gold.Chemscore.Hbond.Weighted>
-5.0921

> <Gold.Chemscore.Metal.Weighted>
-0.0000

> <Gold.Chemscore.Lipo.Weighted>
-12.8142

> <Gold.Chemscore.Internal_Hbond.Weighted>
0.0000

> <Gold.Chemscore.DEClash.Weighted>
0.3082

> <Gold.Chemscore.DEInternal.Weighted>
1.7796

> <Gold.Chemscore.Rot.Weighted>
5.2188

> <Gold.Chemscore.Internal.Correction.Weighted>
   9.000000E+99

> <Gold.Protein.RotatedTorsions>
[ 6907 6896 6895 6894 ] final -161.30 input  -60.11 | X-H torsion
[ 7974 7965 7964 7962 ] final   35.93 input  175.53 | X-H torsion
[ 8008 7997 7996 7995 ] final -116.07 input   59.86 | X-H torsion
[ 10167 10162 10161 10158 ] final -148.07 input  -65.29 | X-H torsion
[ 10718 10713 10712 10709 ] final  -40.04 input   66.30 | X-H torsion
[ 10763 10752 10751 10750 ] final   61.04 input  -60.55 | X-H torsion
[ 11005 11000 10999 10996 ] final  124.72 input  -57.11 | X-H torsion

> <Gold.Protein.ActiveResidues>
 VAL166  LYS551  ARG553  GLY616  TRP617  ASP618  TYR619  PRO620  LYS621  CYS622 
 ASP623  PHE694  ASN695  SER759  ASP760  ASP761  ALA762  ILE779  LEU786  VAL792 
 PHE793  MET794  SER795  GLU796  ALA797  LYS798  CYS799  TRP800  GLU811  SER814 

> <Gold.Protein.RotatedAtoms>
  151.3624  133.3884  159.2690 H   0  0  0  0  0  0  0  0  0  0  0  0  # atno 6907 bound_to 6896
  150.9715  134.9088  159.7801 H   0  0  0  0  0  0  0  0  0  0  0  0  # atno 6908 bound_to 6896
  152.5186  134.3586  159.9329 H   0  0  0  0  0  0  0  0  0  0  0  0  # atno 6909 bound_to 6896
  146.1248  139.6081  142.9266 H   0  0  0  0  0  0  0  0  0  0  0  0  # atno 7974 bound_to 7965
  155.0620  140.0393  157.2580 H   0  0  0  0  0  0  0  0  0  0  0  0  # atno 8008 bound_to 7997
  154.7052  140.2681  155.6657 H   0  0  0  0  0  0  0  0  0  0  0  0  # atno 8009 bound_to 7997
  156.2773  140.2732  156.1675 H   0  0  0  0  0  0  0  0  0  0  0  0  # atno 8010 bound_to 7997
  139.7565  143.8440  152.2598 H   0  0  0  0  0  0  0  0  0  0  0  0  # atno 10167 bound_to 10162
  156.2857  130.4222  149.8290 H   0  0  0  0  0  0  0  0  0  0  0  0  # atno 10718 bound_to 10713
  152.9938  135.5515  154.5970 H   0  0  0  0  0  0  0  0  0  0  0  0  # atno 10763 bound_to 10752
  154.5319  135.2814  155.1174 H   0  0  0  0  0  0  0  0  0  0  0  0  # atno 10764 bound_to 10752
  154.2486  135.6403  153.5285 H   0  0  0  0  0  0  0  0  0  0  0  0  # atno 10765 bound_to 10752
  139.9372  134.9638  156.8451 H   0  0  0  0  0  0  0  0  0  0  0  0  # atno 11005 bound_to 11000
  145.5389  141.0422  143.2341 LP  0  0  0  0  0  0  0  0  0  0  0  0  # atno 17320 bound_to 7965
  144.7631  139.6908  143.7226 LP  0  0  0  0  0  0  0  0  0  0  0  0  # atno 17321 bound_to 7965
  139.8434  144.7199  150.9303 LP  0  0  0  0  0  0  0  0  0  0  0  0  # atno 17342 bound_to 10162
  140.7803  143.3963  151.1224 LP  0  0  0  0  0  0  0  0  0  0  0  0  # atno 17343 bound_to 10162
  156.5721  130.8429  151.3359 LP  0  0  0  0  0  0  0  0  0  0  0  0  # atno 17370 bound_to 10713
  157.7328  130.9720  150.1945 LP  0  0  0  0  0  0  0  0  0  0  0  0  # atno 17371 bound_to 10713
  140.6045  134.0140  155.7551 LP  0  0  0  0  0  0  0  0  0  0  0  0  # atno 17394 bound_to 11000
  141.0991  133.9797  157.3110 LP  0  0  0  0  0  0  0  0  0  0  0  0  # atno 17395 bound_to 11000

$$$$
