AV-unprocessed.smi:36|AV-procd|sdf|283|dock10
  -GOLD-   2262016 63D 1   1.00000     0.00000
 Structure written by MMmdl.
 64 67  0  0  0  0  0  0  0  0  1 V2000
  145.3756  134.6439  162.0126 C   0  0  0  0  0  0  0  0  0  0  0  0
  146.5017  133.6404  161.7141 C   0  0  0  0  0  0  0  0  0  0  0  0
  147.7421  133.9803  162.5570 C   0  0  0  0  0  0  0  0  0  0  0  0
  146.0303  132.2129  162.0383 C   0  0  0  0  0  0  0  0  0  0  0  0
  146.9615  133.7343  159.8624 Si  0  0  0  0  0  0  0  0  0  0  0  0
  145.4897  133.2298  158.7710 C   0  0  0  0  0  0  0  0  0  0  0  0
  147.5499  135.4756  159.3828 C   0  0  0  0  0  0  0  0  0  0  0  0
  148.2318  132.6505  159.5874 O   0  0  0  0  0  0  0  0  0  0  0  0
  148.6420  132.2284  158.3029 C   0  0  0  0  0  0  0  0  0  0  0  0
  149.5093  133.3244  157.6650 C   0  0  2  0  0  0  0  0  0  0  0  0
  148.7134  134.3598  157.1009 O   0  0  0  0  0  0  0  0  0  0  0  0
  149.4329  135.0240  156.1031 C   0  0  1  0  0  0  0  0  0  0  0  0
  149.7789  136.3900  156.5978 N   0  0  0  0  0  0  0  0  0  0  0  0
  149.7835  136.8751  157.8884 C   0  0  0  0  0  0  0  0  0  0  0  0
  150.1359  138.1269  158.0122 N   0  0  0  0  0  0  0  0  0  0  0  0
  150.3966  138.5341  156.7098 C   0  0  0  0  0  0  0  0  0  0  0  0
  150.8145  139.7581  156.1258 C   0  0  0  0  0  0  0  0  0  0  0  0
  151.0345  140.8426  156.9055 N   0  0  0  0  0  0  0  0  0  0  0  0
  152.1243  141.0718  157.8380 C   0  0  0  0  0  0  0  0  0  0  0  0
  152.9631  140.2065  158.0914 O   0  0  0  0  0  0  0  0  0  0  0  0
  152.1224  142.3986  158.5406 C   0  0  0  0  0  0  0  0  0  0  0  0
  152.7429  142.5309  159.8034 C   0  0  0  0  0  0  0  0  0  0  0  0
  152.7639  143.7767  160.4608 C   0  0  0  0  0  0  0  0  0  0  0  0
  152.1710  144.9020  159.8582 C   0  0  0  0  0  0  0  0  0  0  0  0
  151.5601  144.7819  158.5959 C   0  0  0  0  0  0  0  0  0  0  0  0
  151.5388  143.5370  157.9371 C   0  0  0  0  0  0  0  0  0  0  0  0
  150.9739  139.7844  154.7760 N   0  0  0  0  0  0  0  0  0  0  0  0
  150.7388  138.6882  154.0486 C   0  0  0  0  0  0  0  0  0  0  0  0
  150.3414  137.4824  154.4611 N   0  0  0  0  0  0  0  0  0  0  0  0
  150.1790  137.4503  155.8152 C   0  0  0  0  0  0  0  0  0  0  0  0
  150.7161  134.2232  155.8394 C   0  0  0  0  0  0  0  0  0  0  0  0
  150.4263  132.8963  156.5138 C   0  0  2  0  0  0  0  0  0  0  0  0
  149.7835  132.0102  155.6173 O   0  0  0  0  0  0  0  0  0  0  0  0
  145.0903  134.6176  163.0648 H   0  0  0  0  0  0  0  0  0  0  0  0
  144.4831  134.4260  161.4257 H   0  0  0  0  0  0  0  0  0  0  0  0
  145.6811  135.6645  161.7806 H   0  0  0  0  0  0  0  0  0  0  0  0
  148.0944  134.9924  162.3566 H   0  0  0  0  0  0  0  0  0  0  0  0
  148.5651  133.2974  162.3439 H   0  0  0  0  0  0  0  0  0  0  0  0
  147.5269  133.9141  163.6242 H   0  0  0  0  0  0  0  0  0  0  0  0
  145.7756  132.1094  163.0935 H   0  0  0  0  0  0  0  0  0  0  0  0
  146.8055  131.4794  161.8134 H   0  0  0  0  0  0  0  0  0  0  0  0
  145.1463  131.9441  161.4595 H   0  0  0  0  0  0  0  0  0  0  0  0
  144.6322  133.8831  158.9297 H   0  0  0  0  0  0  0  0  0  0  0  0
  145.1646  132.2112  158.9813 H   0  0  0  0  0  0  0  0  0  0  0  0
  145.7394  133.2796  157.7117 H   0  0  0  0  0  0  0  0  0  0  0  0
  146.7741  136.2217  159.5523 H   0  0  0  0  0  0  0  0  0  0  0  0
  147.8247  135.5272  158.3297 H   0  0  0  0  0  0  0  0  0  0  0  0
  148.4235  135.7775  159.9598 H   0  0  0  0  0  0  0  0  0  0  0  0
  149.1710  131.2761  158.3504 H   0  0  0  0  0  0  0  0  0  0  0  0
  147.7501  132.0626  157.6986 H   0  0  0  0  0  0  0  0  0  0  0  0
  150.1231  133.7814  158.4429 H   0  0  0  0  0  0  0  0  0  0  0  0
  148.8124  135.1808  155.2202 H   0  0  0  0  0  0  0  0  0  0  0  0
  149.5134  136.2724  158.7431 H   0  0  0  0  0  0  0  0  0  0  0  0
  150.3749  141.6000  156.8039 H   0  0  0  0  0  0  0  0  0  0  0  0
  153.2045  141.6771  160.2786 H   0  0  0  0  0  0  0  0  0  0  0  0
  153.2371  143.8682  161.4274 H   0  0  0  0  0  0  0  0  0  0  0  0
  152.1884  145.8573  160.3620 H   0  0  0  0  0  0  0  0  0  0  0  0
  151.1104  145.6463  158.1298 H   0  0  0  0  0  0  0  0  0  0  0  0
  151.0739  143.4709  156.9641 H   0  0  0  0  0  0  0  0  0  0  0  0
  150.8895  138.7927  152.9842 H   0  0  0  0  0  0  0  0  0  0  0  0
  150.9232  134.1474  154.7714 H   0  0  0  0  0  0  0  0  0  0  0  0
  151.5637  134.7103  156.3246 H   0  0  0  0  0  0  0  0  0  0  0  0
  151.3356  132.4177  156.8787 H   0  0  0  0  0  0  0  0  0  0  0  0
  150.4417  131.6046  155.0735 H   0  0  0  0  0  0  0  0  0  0  0  0
  1  2  1  0  0  0  0
  1 34  1  0  0  0  0
  1 35  1  0  0  0  0
  1 36  1  0  0  0  0
  2  3  1  0  0  0  0
  2  4  1  0  0  0  0
  2  5  1  0  0  0  0
  3 37  1  0  0  0  0
  3 38  1  0  0  0  0
  3 39  1  0  0  0  0
  4 40  1  0  0  0  0
  4 41  1  0  0  0  0
  4 42  1  0  0  0  0
  5  6  1  0  0  0  0
  5  7  1  0  0  0  0
  5  8  1  0  0  0  0
  6 43  1  0  0  0  0
  6 44  1  0  0  0  0
  6 45  1  0  0  0  0
  7 46  1  0  0  0  0
  7 47  1  0  0  0  0
  7 48  1  0  0  0  0
  8  9  1  0  0  0  0
  9 10  1  0  0  0  0
  9 49  1  0  0  0  0
  9 50  1  0  0  0  0
 10 32  1  0  0  0  0
 10 11  1  0  0  0  0
 10 51  1  0  0  0  0
 11 12  1  0  0  0  0
 12 13  1  0  0  0  0
 12 31  1  0  0  0  0
 12 52  1  0  0  0  0
 13 30  1  0  0  0  0
 13 14  1  0  0  0  0
 14 15  2  0  0  0  0
 14 53  1  0  0  0  0
 15 16  1  0  0  0  0
 16 30  2  0  0  0  0
 16 17  1  0  0  0  0
 17 18  1  0  0  0  0
 17 27  2  0  0  0  0
 18 19  1  0  0  0  0
 18 54  1  0  0  0  0
 19 20  2  0  0  0  0
 19 21  1  0  0  0  0
 21 26  1  0  0  0  0
 21 22  2  0  0  0  0
 22 23  1  0  0  0  0
 22 55  1  0  0  0  0
 23 24  2  0  0  0  0
 23 56  1  0  0  0  0
 24 25  1  0  0  0  0
 24 57  1  0  0  0  0
 25 26  2  0  0  0  0
 25 58  1  0  0  0  0
 26 59  1  0  0  0  0
 27 28  1  0  0  0  0
 28 29  2  0  0  0  0
 28 60  1  0  0  0  0
 29 30  1  0  0  0  0
 31 32  1  0  0  0  0
 31 61  1  0  0  0  0
 31 62  1  0  0  0  0
 32 33  1  0  0  0  0
 32 63  1  0  0  0  0
 33 64  1  0  0  0  0
M  END
> <s_m_source_file>
AV-unprocessed.smi

> <i_m_source_file_index>
36

> <i_lp_mmshare_version>
43012

> <i_f3d_flags>
0

> <s_epik_input>
W0NIM11DKFtDSDNdKShbQ0gzXSlbU2ldKFtDSDNdKShbQ0gzXSlPW0NIMl1bQ0BASF0xT1tDQEhdKFtDSDJdW0NASF0xW09IXSluKFtjSF1uMiljKGMyMyluW2NIXW5jM1tOSF1DKD1PKWM0W2NIXVtjSF1bY0hdW2NIXVtjSF00

> <s_epik_cmdline>
J2VwaWtfcHl0aG9uJywgJy1waCcsICc3LjAnLCAnLXRuJywgJzgnLCAnLW1hJywgJzIwMCcsICctbWV0YWxfYmluZGluZycsICctaW1hZScsICc8aW5maWxlLm1hZT4nLCAnLW9tYWUnLCAnPG91dGZpbGUubWFlPic=

> <r_lp_tautomer_probability>
1

> <r_epik_Ionization_Penalty>
0.00150433

> <r_epik_Ionization_Penalty_Charging>
0

> <r_epik_Ionization_Penalty_Neutral>
0.00150433

> <r_epik_State_Penalty>
0.00724046

> <r_epik_Charging_Adjusted_Penalty>
0.00724046

> <i_epik_Tot_Q>
0

> <i_epik_Tot_abs_Q>
0

> <r_epik_Metal_State_Penalty>
0.323355

> <b_epik_Metal_Only>
0

> <s_epik_Chemistry_Notes>
This compound contains an acetal/aminal-like group ( X-CH(R)-Y where X, Y are N, S, or O) that may be acid/base labile, releasing an aldehyde.

> <s_lp_Force_Field>
OPLS_2005

> <r_lp_Energy>
37.4738

> <b_lp_Chiralities_Consistent>
1

> <s_lp_Variant>
AV-unprocessed.smi:36-5

> <Gold.Version>
5.8.1

> <Gold.Id.Protein>
6NUR|6NUR_protein|mol2

> <Gold.PLP.Fitness>
51.8864

> <Gold.PLP.PLP>
-46.9224

> <Gold.PLP.part.hbond>
-2.0000

> <Gold.PLP.part.metal>
0.0000

> <Gold.PLP.part.buried>
-8.2356

> <Gold.PLP.part.nonpolar>
-36.5614

> <Gold.PLP.part.repulsive>
0.3586

> <Gold.PLP.ligand.clash>
0.0000

> <Gold.PLP.ligand.torsion>
1.8980

> <Gold.PLP.Chemscore.Hbond>
1.9920

> <Gold.PLP.Chemscore.CHOScore>
0.8998

> <Gold.PLP.Chemscore.Metal>
0.0000

> <Gold.Chemscore.Hbonds>
donor molecule, donor type, donor heavy atom, donor atom, acceptor molecule, acceptor atom, score
      P1  H  7989  7998       L1    27  1.00
      P1  H  7997  8009       L1    20  0.98
      L1  C    28    60       P1  7957  0.89

> <Gold.PLP.Chemscore.Internal.Correction>
0.0847

> <Gold.Rescore>
     Score         DG    S(hbond)    S(metal)    S(lipo)     H(rot)  DE(clash)    DE(int)     intcor
     15.71     -19.06       1.81        0.00     123.43       2.70       0.19       3.16       ----

> <Gold.Chemscore.Fitness>
15.7063

> <Gold.Chemscore.DG>
-19.0610

> <Gold.Chemscore.ZeroCoef>
-5.4800

> <Gold.Chemscore.Hbond>
1.8150

> <Gold.Chemscore.Metal>
0.0000

> <Gold.Chemscore.Lipo>
123.4323

> <Gold.Chemscore.Internal_Hbond>
0.0000

> <Gold.Chemscore.DEClash>
0.1916

> <Gold.Chemscore.DEInternal>
3.1632

> <Gold.Chemscore.Rot>
2.7041

> <Gold.Chemscore.Internal.Correction>
   9.000000E+99

> <Gold.Chemscore.Hbonds>
donor molecule, donor type, donor heavy atom, donor atom, acceptor molecule, acceptor atom, score
      P1  H  7989  7998       L1    27  0.26
      P1  H  7997  8009       L1    20  0.90

> <Gold.Chemscore.Hbond.Weighted>
-6.0619

> <Gold.Chemscore.Metal.Weighted>
-0.0000

> <Gold.Chemscore.Lipo.Weighted>
-14.4416

> <Gold.Chemscore.Internal_Hbond.Weighted>
0.0000

> <Gold.Chemscore.DEClash.Weighted>
0.1916

> <Gold.Chemscore.DEInternal.Weighted>
3.1632

> <Gold.Chemscore.Rot.Weighted>
6.9225

> <Gold.Chemscore.Internal.Correction.Weighted>
   9.000000E+99

> <Gold.Protein.RotatedTorsions>
[ 6907 6896 6895 6894 ] final -144.81 input  -60.11 | X-H torsion
[ 7974 7965 7964 7962 ] final  126.46 input  175.53 | X-H torsion
[ 8008 7997 7996 7995 ] final  158.21 input   59.86 | X-H torsion
[ 10167 10162 10161 10158 ] final  -32.81 input  -65.29 | X-H torsion
[ 10718 10713 10712 10709 ] final  143.79 input   66.30 | X-H torsion
[ 10763 10752 10751 10750 ] final  -71.85 input  -60.55 | X-H torsion
[ 11005 11000 10999 10996 ] final  172.44 input  -57.11 | X-H torsion

> <Gold.Protein.ActiveResidues>
 VAL166  LYS551  ARG553  GLY616  TRP617  ASP618  TYR619  PRO620  LYS621  CYS622 
 ASP623  PHE694  ASN695  SER759  ASP760  ASP761  ALA762  ILE779  LEU786  VAL792 
 PHE793  MET794  SER795  GLU796  ALA797  LYS798  CYS799  TRP800  GLU811  SER814 

> <Gold.Protein.RotatedAtoms>
  151.1192  133.5116  159.2602 H   0  0  0  0  0  0  0  0  0  0  0  0  # atno 6907 bound_to 6896
  151.1881  135.0390  159.8831 H   0  0  0  0  0  0  0  0  0  0  0  0  # atno 6908 bound_to 6896
  152.5455  134.1036  159.8381 H   0  0  0  0  0  0  0  0  0  0  0  0  # atno 6909 bound_to 6896
  145.0614  139.3802  143.5004 H   0  0  0  0  0  0  0  0  0  0  0  0  # atno 7974 bound_to 7965
  156.2317  140.1864  156.7226 H   0  0  0  0  0  0  0  0  0  0  0  0  # atno 8008 bound_to 7997
  154.6034  140.0632  156.9426 H   0  0  0  0  0  0  0  0  0  0  0  0  # atno 8009 bound_to 7997
  155.2137  140.3302  155.4328 H   0  0  0  0  0  0  0  0  0  0  0  0  # atno 8010 bound_to 7997
  140.7215  143.3667  151.1857 H   0  0  0  0  0  0  0  0  0  0  0  0  # atno 10167 bound_to 10162
  157.3648  131.0970  151.0882 H   0  0  0  0  0  0  0  0  0  0  0  0  # atno 10718 bound_to 10713
  154.4375  135.5949  153.6108 H   0  0  0  0  0  0  0  0  0  0  0  0  # atno 10763 bound_to 10752
  152.9803  135.5990  154.3763 H   0  0  0  0  0  0  0  0  0  0  0  0  # atno 10764 bound_to 10752
  154.3609  135.2841  155.2299 H   0  0  0  0  0  0  0  0  0  0  0  0  # atno 10765 bound_to 10752
  140.3297  134.7368  157.4125 H   0  0  0  0  0  0  0  0  0  0  0  0  # atno 11005 bound_to 11000
  146.3524  140.0314  142.8650 LP  0  0  0  0  0  0  0  0  0  0  0  0  # atno 17320 bound_to 7965
  145.1404  140.9568  143.4492 LP  0  0  0  0  0  0  0  0  0  0  0  0  # atno 17321 bound_to 7965
  139.7230  143.9193  152.2992 LP  0  0  0  0  0  0  0  0  0  0  0  0  # atno 17342 bound_to 10162
  139.8956  144.6941  150.8721 LP  0  0  0  0  0  0  0  0  0  0  0  0  # atno 17343 bound_to 10162
  157.2008  130.6394  149.5738 LP  0  0  0  0  0  0  0  0  0  0  0  0  # atno 17370 bound_to 10713
  155.9744  130.4691  150.6384 LP  0  0  0  0  0  0  0  0  0  0  0  0  # atno 17371 bound_to 10713
  140.0871  134.5652  155.8481 LP  0  0  0  0  0  0  0  0  0  0  0  0  # atno 17394 bound_to 11000
  141.2066  133.6657  156.6255 LP  0  0  0  0  0  0  0  0  0  0  0  0  # atno 17395 bound_to 11000

$$$$
