AV-unprocessed.smi:2780|AV-procd|sdf|10716|dock7
  -GOLD-   2272015153D 1   1.00000     0.00000
 Structure written by MMmdl.
 47 49  0  0  0  0  0  0  0  0  2 V2000
  146.3209  130.0465  152.9369 C   0  0  0  0  0  0  0  0  0  0  0  0
  145.8031  131.2248  152.1295 C   0  0  0  0  0  0  0  0  0  0  0  0
  145.0356  131.0399  151.0374 C   0  0  0  0  0  0  0  0  0  0  0  0
  144.4426  132.1573  150.1995 C   0  0  0  0  0  0  0  0  0  0  0  0
  144.9821  133.5441  150.5837 C   0  0  0  0  0  0  0  0  0  0  0  0
  145.1639  133.6772  152.1065 C   0  0  2  0  0  0  0  0  0  0  0  0
  145.4546  135.1300  152.5196 C   0  0  0  0  0  0  0  0  0  0  0  0
  146.1683  132.6166  152.6535 C   0  0  2  0  0  0  0  0  0  0  0  0
  147.6582  132.9225  152.3534 C   0  0  0  0  0  0  0  0  0  0  0  0
  148.2039  133.9765  153.2321 N   0  3  0  0  0  0  0  0  0  0  0  0
  149.4938  133.6313  153.8586 C   0  0  0  0  0  0  0  0  0  0  0  0
  149.4299  132.2471  154.5177 C   0  0  0  0  0  0  0  0  0  0  0  0
  150.4202  132.1092  155.5697 N   0  0  0  0  0  0  0  0  0  0  0  0
  150.6188  132.8981  156.6369 C   0  0  0  0  0  0  0  0  0  0  0  0
  151.5972  132.5076  157.4521 N   0  0  0  0  0  0  0  0  0  0  0  0
  152.0928  131.3562  156.8736 N   0  0  0  0  0  0  0  0  0  0  0  0
  151.3751  131.1748  155.7590 C   0  0  0  0  0  0  0  0  0  0  0  0
  151.5621  130.0138  154.8341 C   0  0  0  0  0  0  0  0  0  0  0  0
  150.3978  129.1287  154.4471 C   0  0  0  0  0  0  0  0  0  0  0  0
  151.4859  128.5887  155.3373 C   0  0  0  0  0  0  0  0  0  0  0  0
  145.9791  130.1168  153.9699 H   0  0  0  0  0  0  0  0  0  0  0  0
  147.4096  130.0119  152.9376 H   0  0  0  0  0  0  0  0  0  0  0  0
  145.9617  129.1001  152.5311 H   0  0  0  0  0  0  0  0  0  0  0  0
  144.7849  130.0367  150.7241 H   0  0  0  0  0  0  0  0  0  0  0  0
  144.6312  131.9601  149.1438 H   0  0  0  0  0  0  0  0  0  0  0  0
  143.3612  132.1307  150.3369 H   0  0  0  0  0  0  0  0  0  0  0  0
  145.9321  133.7202  150.0790 H   0  0  0  0  0  0  0  0  0  0  0  0
  144.2995  134.3093  150.2119 H   0  0  0  0  0  0  0  0  0  0  0  0
  144.1967  133.4390  152.5534 H   0  0  0  0  0  0  0  0  0  0  0  0
  146.3417  135.5232  152.0226 H   0  0  0  0  0  0  0  0  0  0  0  0
  145.5971  135.2147  153.5972 H   0  0  0  0  0  0  0  0  0  0  0  0
  144.6223  135.7812  152.2510 H   0  0  0  0  0  0  0  0  0  0  0  0
  146.0423  132.5772  153.7368 H   0  0  0  0  0  0  0  0  0  0  0  0
  148.2737  132.0369  152.5068 H   0  0  0  0  0  0  0  0  0  0  0  0
  147.7890  133.2060  151.3092 H   0  0  0  0  0  0  0  0  0  0  0  0
  148.3335  134.8117  152.6789 H   0  0  0  0  0  0  0  0  0  0  0  0
  150.2806  133.6525  153.1035 H   0  0  0  0  0  0  0  0  0  0  0  0
  149.7397  134.3901  154.6023 H   0  0  0  0  0  0  0  0  0  0  0  0
  148.4412  132.0656  154.9389 H   0  0  0  0  0  0  0  0  0  0  0  0
  149.6015  131.4661  153.7756 H   0  0  0  0  0  0  0  0  0  0  0  0
  150.0251  133.7799  156.8288 H   0  0  0  0  0  0  0  0  0  0  0  0
  152.2958  130.2479  154.0654 H   0  0  0  0  0  0  0  0  0  0  0  0
  149.4308  129.3300  154.9047 H   0  0  0  0  0  0  0  0  0  0  0  0
  150.3617  128.7675  153.4214 H   0  0  0  0  0  0  0  0  0  0  0  0
  152.1781  127.8678  154.9072 H   0  0  0  0  0  0  0  0  0  0  0  0
  151.2381  128.4303  156.3853 H   0  0  0  0  0  0  0  0  0  0  0  0
  147.5297  134.1720  153.9583 H   0  0  0  0  0  0  0  0  0  0  0  0
  1  2  1  0  0  0  0
  1 21  1  0  0  0  0
  1 22  1  0  0  0  0
  1 23  1  0  0  0  0
  2  8  1  0  0  0  0
  2  3  2  0  0  0  0
  3  4  1  0  0  0  0
  3 24  1  0  0  0  0
  4  5  1  0  0  0  0
  4 25  1  0  0  0  0
  4 26  1  0  0  0  0
  5  6  1  0  0  0  0
  5 27  1  0  0  0  0
  5 28  1  0  0  0  0
  6  7  1  0  0  0  0
  6  8  1  0  0  0  0
  6 29  1  0  0  0  0
  7 30  1  0  0  0  0
  7 31  1  0  0  0  0
  7 32  1  0  0  0  0
  8  9  1  0  0  0  0
  8 33  1  0  0  0  0
  9 10  1  0  0  0  0
  9 34  1  0  0  0  0
  9 35  1  0  0  0  0
 10 11  1  0  0  0  0
 10 36  1  0  0  0  0
 10 47  1  0  0  0  0
 11 12  1  0  0  0  0
 11 37  1  0  0  0  0
 11 38  1  0  0  0  0
 12 13  1  0  0  0  0
 12 39  1  0  0  0  0
 12 40  1  0  0  0  0
 13 17  1  0  0  0  0
 13 14  1  0  0  0  0
 14 15  2  0  0  0  0
 14 41  1  0  0  0  0
 15 16  1  0  0  0  0
 16 17  2  0  0  0  0
 17 18  1  0  0  0  0
 18 20  1  0  0  0  0
 18 19  1  0  0  0  0
 18 42  1  0  0  0  0
 19 20  1  0  0  0  0
 19 43  1  0  0  0  0
 19 44  1  0  0  0  0
 20 45  1  0  0  0  0
 20 46  1  0  0  0  0
M  CHG  1  10   1
M  END
> <s_m_source_file>
AV-unprocessed.smi

> <i_m_source_file_index>
2780

> <i_lp_mmshare_version>
43012

> <i_f3d_flags>
0

> <s_epik_input>
W0NIM11DMT1bQ0hdW0NIMl1bQ0gyXVtDQEBIXShbQ0gzXSlbQ0BIXTFbQ0gyXVtOSF1bQ0gyXVtDSDJdbjJbY0hdbm5jMltDSF0zW0NIMl1bQ0gyXTM=

> <s_epik_cmdline>
J2VwaWtfcHl0aG9uJywgJy1waCcsICc3LjAnLCAnLXRuJywgJzgnLCAnLW1hJywgJzIwMCcsICctbWV0YWxfYmluZGluZycsICctaW1hZScsICc8aW5maWxlLm1hZT4nLCAnLW9tYWUnLCAnPG91dGZpbGUubWFlPic=

> <r_lp_tautomer_probability>
1

> <r_epik_Ionization_Penalty>
0.00176214

> <r_epik_Ionization_Penalty_Charging>
0.00175191

> <r_epik_Ionization_Penalty_Neutral>
1.02377e-05

> <r_epik_State_Penalty>
-0

> <r_epik_Charging_Adjusted_Penalty>
0.00175191

> <i_epik_Tot_Q>
1

> <i_epik_Tot_abs_Q>
1

> <r_epik_Metal_State_Penalty>
-0

> <b_epik_Metal_Only>
0

> <s_lp_Force_Field>
OPLS_2005

> <r_lp_Energy>
23.8201

> <b_lp_Chiralities_Consistent>
1

> <s_lp_Variant>
AV-unprocessed.smi:2780-4

> <Gold.Version>
5.8.1

> <Gold.Id.Protein>
6NUR|6NUR_protein|mol2

> <Gold.PLP.Fitness>
45.8643

> <Gold.PLP.PLP>
-38.1768

> <Gold.PLP.part.hbond>
-2.0000

> <Gold.PLP.part.metal>
0.0000

> <Gold.PLP.part.buried>
-3.7491

> <Gold.PLP.part.nonpolar>
-31.3749

> <Gold.PLP.part.repulsive>
0.0000

> <Gold.PLP.ligand.clash>
0.0000

> <Gold.PLP.ligand.torsion>
0.7709

> <Gold.PLP.Chemscore.Hbond>
3.0000

> <Gold.PLP.Chemscore.CHOScore>
0.0000

> <Gold.PLP.Chemscore.Metal>
0.0000

> <Gold.Chemscore.Hbonds>
donor molecule, donor type, donor heavy atom, donor atom, acceptor molecule, acceptor atom, score
      L1  H    10    36       P1  7948  2.00
      P1  H  6896  6909       L1    15  1.00

> <Gold.PLP.Chemscore.Internal.Correction>
0.2293

> <Gold.Rescore>
     Score         DG    S(hbond)    S(metal)    S(lipo)     H(rot)  DE(clash)    DE(int)     intcor
     15.83     -16.83       1.90        0.00      86.08       1.98       0.04       0.96       ----

> <Gold.Chemscore.Fitness>
15.8316

> <Gold.Chemscore.DG>
-16.8279

> <Gold.Chemscore.ZeroCoef>
-5.4800

> <Gold.Chemscore.Hbond>
1.8996

> <Gold.Chemscore.Metal>
0.0000

> <Gold.Chemscore.Lipo>
86.0844

> <Gold.Chemscore.Internal_Hbond>
0.0000

> <Gold.Chemscore.DEClash>
0.0368

> <Gold.Chemscore.DEInternal>
0.9595

> <Gold.Chemscore.Rot>
1.9799

> <Gold.Chemscore.Internal.Correction>
   9.000000E+99

> <Gold.Chemscore.Hbonds>
donor molecule, donor type, donor heavy atom, donor atom, acceptor molecule, acceptor atom, score
      L1  H    10    36       P1  7948  0.50
      P1  H  6896  6909       L1    15  0.86

> <Gold.Chemscore.Hbond.Weighted>
-6.3446

> <Gold.Chemscore.Metal.Weighted>
-0.0000

> <Gold.Chemscore.Lipo.Weighted>
-10.0719

> <Gold.Chemscore.Internal_Hbond.Weighted>
0.0000

> <Gold.Chemscore.DEClash.Weighted>
0.0368

> <Gold.Chemscore.DEInternal.Weighted>
0.9595

> <Gold.Chemscore.Rot.Weighted>
5.0685

> <Gold.Chemscore.Internal.Correction.Weighted>
   9.000000E+99

> <Gold.Protein.RotatedTorsions>
[ 6907 6896 6895 6894 ] final  -50.44 input  -60.11 | X-H torsion
[ 7974 7965 7964 7962 ] final  167.39 input  175.53 | X-H torsion
[ 8008 7997 7996 7995 ] final -165.57 input   59.86 | X-H torsion
[ 10167 10162 10161 10158 ] final -124.19 input  -65.29 | X-H torsion
[ 10718 10713 10712 10709 ] final  -76.56 input   66.30 | X-H torsion
[ 10763 10752 10751 10750 ] final   58.37 input  -60.55 | X-H torsion
[ 11005 11000 10999 10996 ] final   41.18 input  -57.11 | X-H torsion

> <Gold.Protein.ActiveResidues>
 VAL166  LYS551  ARG553  GLY616  TRP617  ASP618  TYR619  PRO620  LYS621  CYS622 
 ASP623  PHE694  ASN695  SER759  ASP760  ASP761  ALA762  ILE779  LEU786  VAL792 
 PHE793  MET794  SER795  GLU796  ALA797  LYS798  CYS799  TRP800  GLU811  SER814 

> <Gold.Protein.RotatedAtoms>
  150.8707  134.8080  159.7152 H   0  0  0  0  0  0  0  0  0  0  0  0  # atno 6907 bound_to 6896
  152.4712  134.4951  159.9717 H   0  0  0  0  0  0  0  0  0  0  0  0  # atno 6908 bound_to 6896
  151.5040  133.3460  159.2909 H   0  0  0  0  0  0  0  0  0  0  0  0  # atno 6909 bound_to 6896
  144.7426  139.8754  143.6392 H   0  0  0  0  0  0  0  0  0  0  0  0  # atno 7974 bound_to 7965
  155.8516  140.0964  157.1671 H   0  0  0  0  0  0  0  0  0  0  0  0  # atno 8008 bound_to 7997
  154.3986  140.1382  156.3913 H   0  0  0  0  0  0  0  0  0  0  0  0  # atno 8009 bound_to 7997
  155.7955  140.3454  155.5375 H   0  0  0  0  0  0  0  0  0  0  0  0  # atno 8010 bound_to 7997
  139.9954  143.5597  152.2325 H   0  0  0  0  0  0  0  0  0  0  0  0  # atno 10167 bound_to 10162
  156.0171  130.4469  150.3212 H   0  0  0  0  0  0  0  0  0  0  0  0  # atno 10718 bound_to 10713
  152.9869  135.5609  154.5541 H   0  0  0  0  0  0  0  0  0  0  0  0  # atno 10763 bound_to 10752
  154.4972  135.2795  155.1451 H   0  0  0  0  0  0  0  0  0  0  0  0  # atno 10764 bound_to 10752
  154.2897  135.6329  153.5433 H   0  0  0  0  0  0  0  0  0  0  0  0  # atno 10765 bound_to 10752
  140.1859  134.4046  155.8173 H   0  0  0  0  0  0  0  0  0  0  0  0  # atno 11005 bound_to 11000
  146.1250  139.4275  143.0204 LP  0  0  0  0  0  0  0  0  0  0  0  0  # atno 17320 bound_to 7965
  145.7248  141.0063  143.1383 LP  0  0  0  0  0  0  0  0  0  0  0  0  # atno 17321 bound_to 7965
  139.6310  144.7644  151.2537 LP  0  0  0  0  0  0  0  0  0  0  0  0  # atno 17342 bound_to 10162
  140.7439  143.6480  150.8274 LP  0  0  0  0  0  0  0  0  0  0  0  0  # atno 17343 bound_to 10162
  157.1312  131.0272  151.2968 LP  0  0  0  0  0  0  0  0  0  0  0  0  # atno 17370 bound_to 10713
  157.4549  130.7619  149.7183 LP  0  0  0  0  0  0  0  0  0  0  0  0  # atno 17371 bound_to 10713
  141.2225  133.7023  156.8011 LP  0  0  0  0  0  0  0  0  0  0  0  0  # atno 17394 bound_to 11000
  140.2214  134.8754  157.3381 LP  0  0  0  0  0  0  0  0  0  0  0  0  # atno 17395 bound_to 11000

$$$$
