AV-unprocessed.smi:1688|AV-procd|sdf|6770|dock1
  -GOLD-   22720 7533D 1   1.00000     0.00000
 Structure written by MMmdl.
 35 37  0  0  0  0  0  0  0  0  1 V2000
  149.8987  143.4325  158.0258 O   0  0  0  0  0  0  0  0  0  0  0  0
  151.2414  143.1133  157.7066 C   0  0  0  0  0  0  0  0  0  0  0  0
  151.2867  142.7010  156.2128 C   0  0  0  0  0  0  0  0  0  0  0  0
  150.4980  141.5205  155.8925 N   0  0  0  0  0  0  0  0  0  0  0  0
  149.1563  141.4051  155.9384 C   0  0  0  0  0  0  0  0  0  0  0  0
  148.6319  140.2287  155.6077 N   0  0  0  0  0  0  0  0  0  0  0  0
  149.7660  139.4895  155.3198 C   0  0  0  0  0  0  0  0  0  0  0  0
  149.9022  138.1456  154.9037 C   0  0  0  0  0  0  0  0  0  0  0  0
  151.1798  137.5960  154.6703 C   0  0  0  0  0  0  0  0  0  0  0  0
  152.3386  138.3791  154.8497 C   0  0  0  0  0  0  0  0  0  0  0  0
  152.2280  139.7204  155.2638 C   0  0  0  0  0  0  0  0  0  0  0  0
  150.9512  140.2668  155.4930 C   0  0  0  0  0  0  0  0  0  0  0  0
  152.1016  144.3800  157.9287 C   0  0  0  0  0  0  0  0  0  0  0  0
  152.1929  144.7975  159.4074 C   0  0  0  0  0  0  0  0  0  0  0  0
  152.6978  143.6416  160.2812 C   0  0  0  0  0  0  0  0  0  0  0  0
  151.8045  142.4041  160.1198 C   0  0  0  0  0  0  0  0  0  0  0  0
  151.7022  141.9701  158.6463 C   0  0  0  0  0  0  0  0  0  0  0  0
  149.4681  143.7376  157.2421 H   0  0  0  0  0  0  0  0  0  0  0  0
  150.9429  143.5215  155.5814 H   0  0  0  0  0  0  0  0  0  0  0  0
  152.3179  142.5046  155.9154 H   0  0  0  0  0  0  0  0  0  0  0  0
  148.5279  142.2353  156.2265 H   0  0  0  0  0  0  0  0  0  0  0  0
  149.0216  137.5364  154.7645 H   0  0  0  0  0  0  0  0  0  0  0  0
  151.2713  136.5679  154.3522 H   0  0  0  0  0  0  0  0  0  0  0  0
  153.3128  137.9495  154.6674 H   0  0  0  0  0  0  0  0  0  0  0  0
  153.1137  140.3227  155.3998 H   0  0  0  0  0  0  0  0  0  0  0  0
  153.1116  144.1960  157.5597 H   0  0  0  0  0  0  0  0  0  0  0  0
  151.7129  145.2101  157.3374 H   0  0  0  0  0  0  0  0  0  0  0  0
  152.8574  145.6560  159.5090 H   0  0  0  0  0  0  0  0  0  0  0  0
  151.2146  145.1242  159.7613 H   0  0  0  0  0  0  0  0  0  0  0  0
  153.7237  143.3933  160.0059 H   0  0  0  0  0  0  0  0  0  0  0  0
  152.7224  143.9486  161.3271 H   0  0  0  0  0  0  0  0  0  0  0  0
  152.1975  141.5830  160.7200 H   0  0  0  0  0  0  0  0  0  0  0  0
  150.8089  142.6188  160.5101 H   0  0  0  0  0  0  0  0  0  0  0  0
  151.0264  141.1171  158.5748 H   0  0  0  0  0  0  0  0  0  0  0  0
  152.6788  141.6111  158.3195 H   0  0  0  0  0  0  0  0  0  0  0  0
  1  2  1  0  0  0  0
  1 18  1  0  0  0  0
  2 17  1  0  0  0  0
  2  3  1  0  0  0  0
  2 13  1  0  0  0  0
  3  4  1  0  0  0  0
  3 19  1  0  0  0  0
  3 20  1  0  0  0  0
  4 12  1  0  0  0  0
  4  5  1  0  0  0  0
  5  6  2  0  0  0  0
  5 21  1  0  0  0  0
  6  7  1  0  0  0  0
  7 12  2  0  0  0  0
  7  8  1  0  0  0  0
  8  9  2  0  0  0  0
  8 22  1  0  0  0  0
  9 10  1  0  0  0  0
  9 23  1  0  0  0  0
 10 11  2  0  0  0  0
 10 24  1  0  0  0  0
 11 12  1  0  0  0  0
 11 25  1  0  0  0  0
 13 14  1  0  0  0  0
 13 26  1  0  0  0  0
 13 27  1  0  0  0  0
 14 15  1  0  0  0  0
 14 28  1  0  0  0  0
 14 29  1  0  0  0  0
 15 16  1  0  0  0  0
 15 30  1  0  0  0  0
 15 31  1  0  0  0  0
 16 17  1  0  0  0  0
 16 32  1  0  0  0  0
 16 33  1  0  0  0  0
 17 34  1  0  0  0  0
 17 35  1  0  0  0  0
M  END
> <s_m_source_file>
AV-unprocessed.smi

> <i_m_source_file_index>
1688

> <i_lp_mmshare_version>
43012

> <i_f3d_flags>
0

> <s_epik_input>
W0NIMl0xW0NIMl1bQ0gyXVtDSDJdW0NIMl1DMShbT0hdKVtDSDJdbihbY0hdbjIpYyhjMjMpW2NIXVtjSF1bY0hdW2NIXTM=

> <s_epik_cmdline>
J2VwaWtfcHl0aG9uJywgJy1waCcsICc3LjAnLCAnLXRuJywgJzgnLCAnLW1hJywgJzIwMCcsICctbWV0YWxfYmluZGluZycsICctaW1hZScsICc8aW5maWxlLm1hZT4nLCAnLW9tYWUnLCAnPG91dGZpbGUubWFlPic=

> <r_epik_Ionization_Penalty>
0.118875

> <r_epik_Ionization_Penalty_Charging>
0

> <r_epik_Ionization_Penalty_Neutral>
0.118875

> <r_epik_State_Penalty>
0.108446

> <r_epik_Charging_Adjusted_Penalty>
0.108446

> <i_epik_Tot_Q>
0

> <i_epik_Tot_abs_Q>
0

> <r_epik_Metal_State_Penalty>
0.000118993

> <b_epik_Metal_Only>
0

> <s_lp_Force_Field>
OPLS_2005

> <r_lp_Energy>
14.7103

> <b_lp_Chiralities_Consistent>
1

> <s_lp_Variant>
AV-unprocessed.smi:1688-1

> <Gold.Version>
5.8.1

> <Gold.Id.Protein>
6NUR|6NUR_protein|mol2

> <Gold.PLP.Fitness>
42.8337

> <Gold.PLP.PLP>
-37.0638

> <Gold.PLP.part.hbond>
-1.2068

> <Gold.PLP.part.metal>
0.0000

> <Gold.PLP.part.buried>
-1.2163

> <Gold.PLP.part.nonpolar>
-34.7561

> <Gold.PLP.part.repulsive>
0.0463

> <Gold.PLP.ligand.clash>
0.0000

> <Gold.PLP.ligand.torsion>
0.0553

> <Gold.PLP.Chemscore.Hbond>
1.0000

> <Gold.PLP.Chemscore.CHOScore>
0.9587

> <Gold.PLP.Chemscore.Metal>
0.0000

> <Gold.Chemscore.Hbonds>
donor molecule, donor type, donor heavy atom, donor atom, acceptor molecule, acceptor atom, score
      L1  H     1    18       P1  8028  1.00
      L1  C     5    21       P1  8028  0.87

> <Gold.PLP.Chemscore.Internal.Correction>
0.0044

> <Gold.Rescore>
     Score         DG    S(hbond)    S(metal)    S(lipo)     H(rot)  DE(clash)    DE(int)     intcor
     15.95     -17.65       0.70        0.00     119.40       1.62       1.54       0.16       ----

> <Gold.Chemscore.Fitness>
15.9477

> <Gold.Chemscore.DG>
-17.6505

> <Gold.Chemscore.ZeroCoef>
-5.4800

> <Gold.Chemscore.Hbond>
0.7000

> <Gold.Chemscore.Metal>
0.0000

> <Gold.Chemscore.Lipo>
119.4009

> <Gold.Chemscore.Internal_Hbond>
0.0000

> <Gold.Chemscore.DEClash>
1.5412

> <Gold.Chemscore.DEInternal>
0.1616

> <Gold.Chemscore.Rot>
1.6162

> <Gold.Chemscore.Internal.Correction>
   9.000000E+99

> <Gold.Chemscore.Hbonds>
donor molecule, donor type, donor heavy atom, donor atom, acceptor molecule, acceptor atom, score
      L1  H     1    18       P1  8028  0.65

> <Gold.Chemscore.Hbond.Weighted>
-2.3381

> <Gold.Chemscore.Metal.Weighted>
-0.0000

> <Gold.Chemscore.Lipo.Weighted>
-13.9699

> <Gold.Chemscore.Internal_Hbond.Weighted>
0.0000

> <Gold.Chemscore.DEClash.Weighted>
1.5412

> <Gold.Chemscore.DEInternal.Weighted>
0.1616

> <Gold.Chemscore.Rot.Weighted>
4.1374

> <Gold.Chemscore.Internal.Correction.Weighted>
   9.000000E+99

> <Gold.Protein.RotatedTorsions>
[ 6907 6896 6895 6894 ] final   58.32 input  -60.11 | X-H torsion
[ 7974 7965 7964 7962 ] final   10.31 input  175.53 | X-H torsion
[ 8008 7997 7996 7995 ] final    3.00 input   59.86 | X-H torsion
[ 10167 10162 10161 10158 ] final  -19.48 input  -65.29 | X-H torsion
[ 10718 10713 10712 10709 ] final   33.96 input   66.30 | X-H torsion
[ 10763 10752 10751 10750 ] final   87.80 input  -60.55 | X-H torsion
[ 11005 11000 10999 10996 ] final  -77.68 input  -57.11 | X-H torsion

> <Gold.Protein.ActiveResidues>
 VAL166  LYS551  ARG553  GLY616  TRP617  ASP618  TYR619  PRO620  LYS621  CYS622 
 ASP623  PHE694  ASN695  SER759  ASP760  ASP761  ALA762  ILE779  LEU786  VAL792 
 PHE793  MET794  SER795  GLU796  ALA797  LYS798  CYS799  TRP800  GLU811  SER814 

> <Gold.Protein.RotatedAtoms>
  152.3813  134.6586  160.0141 H   0  0  0  0  0  0  0  0  0  0  0  0  # atno 6907 bound_to 6896
  151.6849  133.3306  159.3236 H   0  0  0  0  0  0  0  0  0  0  0  0  # atno 6908 bound_to 6896
  150.7749  134.6685  159.6423 H   0  0  0  0  0  0  0  0  0  0  0  0  # atno 6909 bound_to 6896
  146.2390  139.9653  142.8453 H   0  0  0  0  0  0  0  0  0  0  0  0  # atno 7974 bound_to 7965
  154.6984  140.2668  155.6743 H   0  0  0  0  0  0  0  0  0  0  0  0  # atno 8008 bound_to 7997
  156.2756  140.2777  156.1510 H   0  0  0  0  0  0  0  0  0  0  0  0  # atno 8009 bound_to 7997
  155.0799  140.0372  157.2626 H   0  0  0  0  0  0  0  0  0  0  0  0  # atno 8010 bound_to 7997
  140.7268  143.4814  151.0112 H   0  0  0  0  0  0  0  0  0  0  0  0  # atno 10167 bound_to 10162
  157.3044  130.7367  149.6686 H   0  0  0  0  0  0  0  0  0  0  0  0  # atno 10718 bound_to 10713
  153.1704  135.4530  154.9894 H   0  0  0  0  0  0  0  0  0  0  0  0  # atno 10763 bound_to 10752
  154.7962  135.3238  154.7664 H   0  0  0  0  0  0  0  0  0  0  0  0  # atno 10764 bound_to 10752
  153.8141  135.6952  153.4891 H   0  0  0  0  0  0  0  0  0  0  0  0  # atno 10765 bound_to 10752
  141.1661  133.7032  156.7857 H   0  0  0  0  0  0  0  0  0  0  0  0  # atno 11005 bound_to 11000
  145.1732  140.9731  143.4309 LP  0  0  0  0  0  0  0  0  0  0  0  0  # atno 17320 bound_to 7965
  145.0009  139.3599  143.6168 LP  0  0  0  0  0  0  0  0  0  0  0  0  # atno 17321 bound_to 7965
  139.8513  143.7435  152.3178 LP  0  0  0  0  0  0  0  0  0  0  0  0  # atno 17342 bound_to 10162
  139.7618  144.7504  151.0353 LP  0  0  0  0  0  0  0  0  0  0  0  0  # atno 17343 bound_to 10162
  155.9673  130.4270  150.4725 LP  0  0  0  0  0  0  0  0  0  0  0  0  # atno 17370 bound_to 10713
  157.2712  131.0587  151.2259 LP  0  0  0  0  0  0  0  0  0  0  0  0  # atno 17371 bound_to 10713
  140.2362  134.8648  157.3527 LP  0  0  0  0  0  0  0  0  0  0  0  0  # atno 17394 bound_to 11000
  140.1841  134.4453  155.7754 LP  0  0  0  0  0  0  0  0  0  0  0  0  # atno 17395 bound_to 11000

$$$$
