AV-unprocessed.smi:3311|AV-procd|sdf|12725|dock1
  -GOLD-   2272019 63D 1   1.00000     0.00000
 Structure written by MMmdl.
 43 44  0  0  0  0  0  0  0  0  1 V2000
  148.6840  140.0095  157.2093 C   0  0  0  0  0  0  0  0  0  0  0  0
  149.7386  140.8872  156.4979 C   0  0  2  0  0  0  0  0  0  0  0  0
  149.4895  142.3127  156.7441 N   0  0  0  0  0  0  0  0  0  0  0  0
  149.1903  142.6784  158.1308 C   0  0  0  0  0  0  0  0  0  0  0  0
  150.4323  143.2122  158.8798 C   0  0  0  0  0  0  0  0  0  0  0  0
  149.9912  143.6688  160.1463 O   0  0  0  0  0  0  0  0  0  0  0  0
  151.5273  142.1299  159.0620 C   0  0  0  0  0  0  0  0  0  0  0  0
  152.8261  142.6851  159.6741 C   0  0  0  0  0  0  0  0  0  0  0  0
  153.3658  143.8719  158.8645 C   0  0  0  0  0  0  0  0  0  0  0  0
  152.3063  144.9750  158.7386 C   0  0  0  0  0  0  0  0  0  0  0  0
  151.0062  144.4314  158.1188 C   0  0  0  0  0  0  0  0  0  0  0  0
  149.8080  140.6304  154.9683 C   0  0  1  0  0  0  0  0  0  0  0  0
  150.3225  139.2188  154.6282 C   0  0  0  0  0  0  0  0  0  0  0  0
  148.5229  140.8486  154.3145 N   0  0  0  0  0  0  0  0  0  0  0  0
  147.7655  142.0023  154.2636 C   0  0  0  0  0  0  0  0  0  0  0  0
  146.6417  141.7225  153.5404 C   0  0  0  0  0  0  0  0  0  0  0  0
  146.7998  140.3532  153.1883 C   0  0  0  0  0  0  0  0  0  0  0  0
  147.9240  139.8333  153.6535 N   0  0  0  0  0  0  0  0  0  0  0  0
  148.8636  138.9468  157.0495 H   0  0  0  0  0  0  0  0  0  0  0  0
  147.6792  140.2313  156.8485 H   0  0  0  0  0  0  0  0  0  0  0  0
  148.6914  140.1543  158.2889 H   0  0  0  0  0  0  0  0  0  0  0  0
  150.7126  140.6275  156.9149 H   0  0  0  0  0  0  0  0  0  0  0  0
  150.2861  142.8546  156.4236 H   0  0  0  0  0  0  0  0  0  0  0  0
  148.4162  143.4448  158.1523 H   0  0  0  0  0  0  0  0  0  0  0  0
  148.7870  141.8164  158.6643 H   0  0  0  0  0  0  0  0  0  0  0  0
  150.3065  144.5508  160.2713 H   0  0  0  0  0  0  0  0  0  0  0  0
  151.1623  141.3128  159.6853 H   0  0  0  0  0  0  0  0  0  0  0  0
  151.7578  141.6889  158.0912 H   0  0  0  0  0  0  0  0  0  0  0  0
  152.6457  142.9957  160.7038 H   0  0  0  0  0  0  0  0  0  0  0  0
  153.5782  141.8970  159.7199 H   0  0  0  0  0  0  0  0  0  0  0  0
  154.2638  144.2692  159.3389 H   0  0  0  0  0  0  0  0  0  0  0  0
  153.6634  143.5339  157.8710 H   0  0  0  0  0  0  0  0  0  0  0  0
  152.1002  145.4002  159.7214 H   0  0  0  0  0  0  0  0  0  0  0  0
  152.6936  145.7909  158.1280 H   0  0  0  0  0  0  0  0  0  0  0  0
  151.2107  144.1449  157.0861 H   0  0  0  0  0  0  0  0  0  0  0  0
  150.2640  145.2292  158.0664 H   0  0  0  0  0  0  0  0  0  0  0  0
  150.5136  141.3467  154.5422 H   0  0  0  0  0  0  0  0  0  0  0  0
  151.3353  139.0602  154.9988 H   0  0  0  0  0  0  0  0  0  0  0  0
  150.3464  139.0617  153.5493 H   0  0  0  0  0  0  0  0  0  0  0  0
  149.6866  138.4468  155.0625 H   0  0  0  0  0  0  0  0  0  0  0  0
  148.0879  142.9168  154.7395 H   0  0  0  0  0  0  0  0  0  0  0  0
  145.8303  142.3932  153.2998 H   0  0  0  0  0  0  0  0  0  0  0  0
  146.1356  139.7259  152.6124 H   0  0  0  0  0  0  0  0  0  0  0  0
  1  2  1  0  0  0  0
  1 19  1  0  0  0  0
  1 20  1  0  0  0  0
  1 21  1  0  0  0  0
  2  3  1  0  0  0  0
  2 12  1  0  0  0  0
  2 22  1  0  0  0  0
  3  4  1  0  0  0  0
  3 23  1  0  0  0  0
  4  5  1  0  0  0  0
  4 24  1  0  0  0  0
  4 25  1  0  0  0  0
  5 11  1  0  0  0  0
  5  6  1  0  0  0  0
  5  7  1  0  0  0  0
  6 26  1  0  0  0  0
  7  8  1  0  0  0  0
  7 27  1  0  0  0  0
  7 28  1  0  0  0  0
  8  9  1  0  0  0  0
  8 29  1  0  0  0  0
  8 30  1  0  0  0  0
  9 10  1  0  0  0  0
  9 31  1  0  0  0  0
  9 32  1  0  0  0  0
 10 11  1  0  0  0  0
 10 33  1  0  0  0  0
 10 34  1  0  0  0  0
 11 35  1  0  0  0  0
 11 36  1  0  0  0  0
 12 13  1  0  0  0  0
 12 14  1  0  0  0  0
 12 37  1  0  0  0  0
 13 38  1  0  0  0  0
 13 39  1  0  0  0  0
 13 40  1  0  0  0  0
 14 18  1  0  0  0  0
 14 15  1  0  0  0  0
 15 16  2  0  0  0  0
 15 41  1  0  0  0  0
 16 17  1  0  0  0  0
 16 42  1  0  0  0  0
 17 18  2  0  0  0  0
 17 43  1  0  0  0  0
M  END
> <s_m_source_file>
AV-unprocessed.smi

> <i_m_source_file_index>
3311

> <i_lp_mmshare_version>
43012

> <i_f3d_flags>
0

> <s_epik_input>
bjFbY0hdW2NIXVtjSF1uMVtDQEBIXShbQ0gzXSlbQ0BIXShbQ0gzXSlbTkhdW0NIMl1DMihbT0hdKVtDSDJdW0NIMl1bQ0gyXVtDSDJdW0NIMl0y

> <s_epik_cmdline>
J2VwaWtfcHl0aG9uJywgJy1waCcsICc3LjAnLCAnLXRuJywgJzgnLCAnLW1hJywgJzIwMCcsICctbWV0YWxfYmluZGluZycsICctaW1hZScsICc8aW5maWxlLm1hZT4nLCAnLW9tYWUnLCAnPG91dGZpbGUubWFlPic=

> <r_lp_tautomer_probability>
1

> <r_epik_Ionization_Penalty>
2.222

> <r_epik_Ionization_Penalty_Charging>
0

> <r_epik_Ionization_Penalty_Neutral>
2.222

> <r_epik_State_Penalty>
2.36562

> <r_epik_Charging_Adjusted_Penalty>
2.36562

> <i_epik_Tot_Q>
0

> <i_epik_Tot_abs_Q>
0

> <r_epik_Metal_State_Penalty>
2.36435

> <b_epik_Metal_Only>
0

> <s_lp_Force_Field>
OPLS_2005

> <r_lp_Energy>
27.677

> <b_lp_Chiralities_Consistent>
1

> <s_lp_Variant>
AV-unprocessed.smi:3311-7

> <Gold.Version>
5.8.1

> <Gold.Id.Protein>
6NUR|6NUR_protein|mol2

> <Gold.PLP.Fitness>
42.1768

> <Gold.PLP.PLP>
-37.5383

> <Gold.PLP.part.hbond>
-2.0000

> <Gold.PLP.part.metal>
0.0000

> <Gold.PLP.part.buried>
-3.3935

> <Gold.PLP.part.nonpolar>
-32.9621

> <Gold.PLP.part.repulsive>
1.0259

> <Gold.PLP.ligand.clash>
0.0000

> <Gold.PLP.ligand.torsion>
0.4407

> <Gold.PLP.Chemscore.Hbond>
0.0312

> <Gold.PLP.Chemscore.CHOScore>
1.7717

> <Gold.PLP.Chemscore.Metal>
0.0000

> <Gold.Chemscore.Hbonds>
donor molecule, donor type, donor heavy atom, donor atom, acceptor molecule, acceptor atom, score
      P1  H  6933  6944       L1     6  0.03
      L1  C    15    41       P1  8028  1.00
      L1  C    17    43       P1 10175  0.67

> <Gold.PLP.Chemscore.Internal.Correction>
0.1114

> <Gold.Rescore>
     Score         DG    S(hbond)    S(metal)    S(lipo)     H(rot)  DE(clash)    DE(int)     intcor
     13.09     -13.71       0.07        0.00     113.60       2.07       0.02       0.60       ----

> <Gold.Chemscore.Fitness>
13.0932

> <Gold.Chemscore.DG>
-13.7101

> <Gold.Chemscore.ZeroCoef>
-5.4800

> <Gold.Chemscore.Hbond>
0.0701

> <Gold.Chemscore.Metal>
0.0000

> <Gold.Chemscore.Lipo>
113.6045

> <Gold.Chemscore.Internal_Hbond>
0.0000

> <Gold.Chemscore.DEClash>
0.0207

> <Gold.Chemscore.DEInternal>
0.5961

> <Gold.Chemscore.Rot>
2.0686

> <Gold.Chemscore.Internal.Correction>
   9.000000E+99

> <Gold.Chemscore.Hbonds>
donor molecule, donor type, donor heavy atom, donor atom, acceptor molecule, acceptor atom, score
      P1  H  6933  6944       L1     6  0.03

> <Gold.Chemscore.Hbond.Weighted>
-0.2340

> <Gold.Chemscore.Metal.Weighted>
-0.0000

> <Gold.Chemscore.Lipo.Weighted>
-13.2917

> <Gold.Chemscore.Internal_Hbond.Weighted>
0.0000

> <Gold.Chemscore.DEClash.Weighted>
0.0207

> <Gold.Chemscore.DEInternal.Weighted>
0.5961

> <Gold.Chemscore.Rot.Weighted>
5.2957

> <Gold.Chemscore.Internal.Correction.Weighted>
   9.000000E+99

> <Gold.Protein.RotatedTorsions>
[ 6907 6896 6895 6894 ] final   53.75 input  -60.11 | X-H torsion
[ 7974 7965 7964 7962 ] final  -74.24 input  175.53 | X-H torsion
[ 8008 7997 7996 7995 ] final  -77.54 input   59.86 | X-H torsion
[ 10167 10162 10161 10158 ] final  -72.66 input  -65.29 | X-H torsion
[ 10718 10713 10712 10709 ] final  159.93 input   66.30 | X-H torsion
[ 10763 10752 10751 10750 ] final -125.65 input  -60.55 | X-H torsion
[ 11005 11000 10999 10996 ] final  118.09 input  -57.11 | X-H torsion

> <Gold.Protein.ActiveResidues>
 VAL166  LYS551  ARG553  GLY616  TRP617  ASP618  TYR619  PRO620  LYS621  CYS622 
 ASP623  PHE694  ASN695  SER759  ASP760  ASP761  ALA762  ILE779  LEU786  VAL792 
 PHE793  MET794  SER795  GLU796  ALA797  LYS798  CYS799  TRP800  GLU811  SER814 

> <Gold.Protein.RotatedAtoms>
  152.3368  134.7187  160.0274 H   0  0  0  0  0  0  0  0  0  0  0  0  # atno 6907 bound_to 6896
  151.7585  133.3326  159.3419 H   0  0  0  0  0  0  0  0  0  0  0  0  # atno 6908 bound_to 6896
  150.7456  134.6060  159.6105 H   0  0  0  0  0  0  0  0  0  0  0  0  # atno 6909 bound_to 6896
  145.6416  140.9309  143.1032 H   0  0  0  0  0  0  0  0  0  0  0  0  # atno 7974 bound_to 7965
  154.5605  140.0709  156.8812 H   0  0  0  0  0  0  0  0  0  0  0  0  # atno 8008 bound_to 7997
  155.2820  140.3372  155.4239 H   0  0  0  0  0  0  0  0  0  0  0  0  # atno 8009 bound_to 7997
  156.2038  140.1732  156.7828 H   0  0  0  0  0  0  0  0  0  0  0  0  # atno 8010 bound_to 7997
  140.5174  143.2336  151.7489 H   0  0  0  0  0  0  0  0  0  0  0  0  # atno 10167 bound_to 10162
  157.1573  131.0579  151.2250 H   0  0  0  0  0  0  0  0  0  0  0  0  # atno 10718 bound_to 10713
  154.8738  135.4022  154.3303 H   0  0  0  0  0  0  0  0  0  0  0  0  # atno 10763 bound_to 10752
  153.4117  135.7021  153.6360 H   0  0  0  0  0  0  0  0  0  0  0  0  # atno 10764 bound_to 10752
  153.5059  135.3717  155.2533 H   0  0  0  0  0  0  0  0  0  0  0  0  # atno 10765 bound_to 10752
  139.9097  134.9617  156.7450 H   0  0  0  0  0  0  0  0  0  0  0  0  # atno 11005 bound_to 11000
  144.7155  139.8213  143.7400 LP  0  0  0  0  0  0  0  0  0  0  0  0  # atno 17320 bound_to 7965
  146.1276  139.4305  143.0189 LP  0  0  0  0  0  0  0  0  0  0  0  0  # atno 17321 bound_to 7965
  139.4913  144.4304  151.9879 LP  0  0  0  0  0  0  0  0  0  0  0  0  # atno 17342 bound_to 10162
  140.3399  144.3216  150.5969 LP  0  0  0  0  0  0  0  0  0  0  0  0  # atno 17343 bound_to 10162
  157.4165  130.7414  149.6879 LP  0  0  0  0  0  0  0  0  0  0  0  0  # atno 17370 bound_to 10713
  155.9760  130.4082  150.3811 LP  0  0  0  0  0  0  0  0  0  0  0  0  # atno 17371 bound_to 10713
  140.6819  133.9467  155.7915 LP  0  0  0  0  0  0  0  0  0  0  0  0  # atno 17394 bound_to 11000
  141.0504  134.0493  157.3791 LP  0  0  0  0  0  0  0  0  0  0  0  0  # atno 17395 bound_to 11000

$$$$
