AV-unprocessed.smi:2408|AV-procd|sdf|9520|dock7
  -GOLD-   2272013153D 1   1.00000     0.00000
 Structure written by MMmdl.
 47 49  0  0  0  0  0  0  0  0  1 V2000
  149.0342  139.7892  154.1157 C   0  0  0  0  0  0  0  0  0  0  0  0
  150.3141  139.3165  154.7831 C   0  0  0  0  0  0  0  0  0  0  0  0
  151.0904  140.2919  155.3060 N   0  0  0  0  0  0  0  0  0  0  0  0
  152.2411  139.9358  155.9140 C   0  0  0  0  0  0  0  0  0  0  0  0
  152.6740  138.6011  156.0237 C   0  0  0  0  0  0  0  0  0  0  0  0
  151.8645  137.5865  155.4795 C   0  0  0  0  0  0  0  0  0  0  0  0
  150.6460  137.9411  154.8517 C   0  0  0  0  0  0  0  0  0  0  0  0
  149.7791  136.9845  154.2559 N   0  0  0  0  0  0  0  0  0  0  0  0
  149.4960  135.7466  154.6941 C   0  0  0  0  0  0  0  0  0  0  0  0
  149.9687  135.2291  155.7060 O   0  0  0  0  0  0  0  0  0  0  0  0
  148.5883  135.1488  153.9020 N   0  0  0  0  0  0  0  0  0  0  0  0
  147.9771  133.8164  154.0666 C   0  0  0  0  0  0  0  0  0  0  0  0
  146.6939  133.6254  153.2071 C   0  0  0  0  0  0  0  0  0  0  0  0
  145.7431  132.9835  153.6562 O   0  0  0  0  0  0  0  0  0  0  0  0
  146.6708  134.1587  151.9746 N   0  0  0  0  0  0  0  0  0  0  0  0
  145.5530  134.0813  151.0478 C   0  0  0  0  0  0  0  0  0  0  0  0
  145.2162  132.6680  150.6207 C   0  0  0  0  0  0  0  0  0  0  0  0
  145.9032  132.0387  149.4316 C   0  0  0  0  0  0  0  0  0  0  0  0
  144.4398  132.4027  149.3521 C   0  0  0  0  0  0  0  0  0  0  0  0
  149.0182  132.7524  153.6404 C   0  0  0  0  0  0  0  0  0  0  0  0
  148.8496  131.5745  154.5977 C   0  0  0  0  0  0  0  0  0  0  0  0
  148.5173  132.2345  155.9286 C   0  0  0  0  0  0  0  0  0  0  0  0
  147.7177  133.4939  155.5725 C   0  0  0  0  0  0  0  0  0  0  0  0
  148.1670  139.3249  154.5860 H   0  0  0  0  0  0  0  0  0  0  0  0
  149.0375  139.5236  153.0584 H   0  0  0  0  0  0  0  0  0  0  0  0
  148.9174  140.8712  154.1919 H   0  0  0  0  0  0  0  0  0  0  0  0
  152.8378  140.7392  156.3199 H   0  0  0  0  0  0  0  0  0  0  0  0
  153.6081  138.3614  156.5099 H   0  0  0  0  0  0  0  0  0  0  0  0
  152.1956  136.5607  155.5391 H   0  0  0  0  0  0  0  0  0  0  0  0
  149.2400  137.3146  153.4688 H   0  0  0  0  0  0  0  0  0  0  0  0
  148.2690  135.6738  153.1013 H   0  0  0  0  0  0  0  0  0  0  0  0
  147.4839  134.6724  151.6671 H   0  0  0  0  0  0  0  0  0  0  0  0
  144.6753  134.5433  151.5028 H   0  0  0  0  0  0  0  0  0  0  0  0
  145.7895  134.6595  150.1533 H   0  0  0  0  0  0  0  0  0  0  0  0
  145.0193  131.9960  151.4543 H   0  0  0  0  0  0  0  0  0  0  0  0
  146.6038  132.6509  148.8670 H   0  0  0  0  0  0  0  0  0  0  0  0
  146.1551  130.9821  149.4982 H   0  0  0  0  0  0  0  0  0  0  0  0
  143.7163  131.5904  149.3688 H   0  0  0  0  0  0  0  0  0  0  0  0
  144.1683  133.2564  148.7340 H   0  0  0  0  0  0  0  0  0  0  0  0
  148.9187  132.4397  152.5994 H   0  0  0  0  0  0  0  0  0  0  0  0
  150.0311  133.1447  153.7492 H   0  0  0  0  0  0  0  0  0  0  0  0
  148.0174  130.9471  154.2755 H   0  0  0  0  0  0  0  0  0  0  0  0
  149.7389  130.9460  154.6519 H   0  0  0  0  0  0  0  0  0  0  0  0
  147.9733  131.5690  156.5997 H   0  0  0  0  0  0  0  0  0  0  0  0
  149.4426  132.5221  156.4297 H   0  0  0  0  0  0  0  0  0  0  0  0
  148.0159  134.3038  156.2389 H   0  0  0  0  0  0  0  0  0  0  0  0
  146.6591  133.3238  155.7741 H   0  0  0  0  0  0  0  0  0  0  0  0
  1  2  1  0  0  0  0
  1 24  1  0  0  0  0
  1 25  1  0  0  0  0
  1 26  1  0  0  0  0
  2  7  1  0  0  0  0
  2  3  2  0  0  0  0
  3  4  1  0  0  0  0
  4  5  2  0  0  0  0
  4 27  1  0  0  0  0
  5  6  1  0  0  0  0
  5 28  1  0  0  0  0
  6  7  2  0  0  0  0
  6 29  1  0  0  0  0
  7  8  1  0  0  0  0
  8  9  1  0  0  0  0
  8 30  1  0  0  0  0
  9 10  2  0  0  0  0
  9 11  1  0  0  0  0
 11 12  1  0  0  0  0
 11 31  1  0  0  0  0
 12 23  1  0  0  0  0
 12 13  1  0  0  0  0
 12 20  1  0  0  0  0
 13 14  2  0  0  0  0
 13 15  1  0  0  0  0
 15 16  1  0  0  0  0
 15 32  1  0  0  0  0
 16 17  1  0  0  0  0
 16 33  1  0  0  0  0
 16 34  1  0  0  0  0
 17 19  1  0  0  0  0
 17 18  1  0  0  0  0
 17 35  1  0  0  0  0
 18 19  1  0  0  0  0
 18 36  1  0  0  0  0
 18 37  1  0  0  0  0
 19 38  1  0  0  0  0
 19 39  1  0  0  0  0
 20 21  1  0  0  0  0
 20 40  1  0  0  0  0
 20 41  1  0  0  0  0
 21 22  1  0  0  0  0
 21 42  1  0  0  0  0
 21 43  1  0  0  0  0
 22 23  1  0  0  0  0
 22 44  1  0  0  0  0
 22 45  1  0  0  0  0
 23 46  1  0  0  0  0
 23 47  1  0  0  0  0
M  END
> <s_m_source_file>
AV-unprocessed.smi

> <i_m_source_file_index>
2408

> <i_lp_mmshare_version>
43012

> <i_f3d_flags>
0

> <s_epik_input>
W0NIM11jMW5bY0hdW2NIXVtjSF1jMVtOSF1DKD1PKVtOSF1DMihbQ0gyXVtDSDJdW0NIMl1bQ0gyXTIpQyg9TylbTkhdW0NIMl1bQ0hdM1tDSDJdW0NIMl0z

> <s_epik_cmdline>
J2VwaWtfcHl0aG9uJywgJy1waCcsICc3LjAnLCAnLXRuJywgJzgnLCAnLW1hJywgJzIwMCcsICctbWV0YWxfYmluZGluZycsICctaW1hZScsICc8aW5maWxlLm1hZT4nLCAnLW9tYWUnLCAnPG91dGZpbGUubWFlPic=

> <r_epik_Ionization_Penalty>
0.0173464

> <r_epik_Ionization_Penalty_Charging>
0

> <r_epik_Ionization_Penalty_Neutral>
0.0173464

> <r_epik_State_Penalty>
0.0137159

> <r_epik_Charging_Adjusted_Penalty>
0.0137159

> <i_epik_Tot_Q>
0

> <i_epik_Tot_abs_Q>
0

> <r_epik_Metal_State_Penalty>
0.0133255

> <b_epik_Metal_Only>
0

> <s_lp_Force_Field>
OPLS_2005

> <r_lp_Energy>
32.4155

> <b_lp_Chiralities_Consistent>
1

> <s_lp_Variant>
AV-unprocessed.smi:2408-1

> <Gold.Version>
5.8.1

> <Gold.Id.Protein>
6NUR|6NUR_protein|mol2

> <Gold.PLP.Fitness>
39.5605

> <Gold.PLP.PLP>
-34.9073

> <Gold.PLP.part.hbond>
-3.4345

> <Gold.PLP.part.metal>
0.0000

> <Gold.PLP.part.buried>
0.1157

> <Gold.PLP.part.nonpolar>
-31.7436

> <Gold.PLP.part.repulsive>
0.2768

> <Gold.PLP.ligand.clash>
0.0000

> <Gold.PLP.ligand.torsion>
1.7614

> <Gold.PLP.Chemscore.Hbond>
2.5110

> <Gold.PLP.Chemscore.CHOScore>
0.0000

> <Gold.PLP.Chemscore.Metal>
0.0000

> <Gold.Chemscore.Hbonds>
donor molecule, donor type, donor heavy atom, donor atom, acceptor molecule, acceptor atom, score
      L1  H     8    30       P1  7948  0.45
      L1  H    11    31       P1  7948  0.62
      L1  H    15    32       P1  7948  0.83
      P1  H  7989  7998       L1     3  0.55

> <Gold.PLP.Chemscore.Internal.Correction>
0.6429

> <Gold.Rescore>
     Score         DG    S(hbond)    S(metal)    S(lipo)     H(rot)  DE(clash)    DE(int)     intcor
     14.05     -19.15       1.97        0.00      95.45       1.59       0.89       4.21       ----

> <Gold.Chemscore.Fitness>
14.0477

> <Gold.Chemscore.DG>
-19.1493

> <Gold.Chemscore.ZeroCoef>
-5.4800

> <Gold.Chemscore.Hbond>
1.9709

> <Gold.Chemscore.Metal>
0.0000

> <Gold.Chemscore.Lipo>
95.4484

> <Gold.Chemscore.Internal_Hbond>
0.0000

> <Gold.Chemscore.DEClash>
0.8902

> <Gold.Chemscore.DEInternal>
4.2114

> <Gold.Chemscore.Rot>
1.5941

> <Gold.Chemscore.Internal.Correction>
   9.000000E+99

> <Gold.Chemscore.Hbonds>
donor molecule, donor type, donor heavy atom, donor atom, acceptor molecule, acceptor atom, score
      L1  H     8    30       P1  7948  0.43
      L1  H    11    31       P1  7948  0.59
      L1  H    15    32       P1  7948  0.36
      P1  H  7989  7998       L1     3  0.01

> <Gold.Chemscore.Hbond.Weighted>
-6.5828

> <Gold.Chemscore.Metal.Weighted>
-0.0000

> <Gold.Chemscore.Lipo.Weighted>
-11.1675

> <Gold.Chemscore.Internal_Hbond.Weighted>
0.0000

> <Gold.Chemscore.DEClash.Weighted>
0.8902

> <Gold.Chemscore.DEInternal.Weighted>
4.2114

> <Gold.Chemscore.Rot.Weighted>
4.0809

> <Gold.Chemscore.Internal.Correction.Weighted>
   9.000000E+99

> <Gold.Protein.RotatedTorsions>
[ 6907 6896 6895 6894 ] final   49.39 input  -60.11 | X-H torsion
[ 7974 7965 7964 7962 ] final   -5.26 input  175.53 | X-H torsion
[ 8008 7997 7996 7995 ] final   61.00 input   59.86 | X-H torsion
[ 10167 10162 10161 10158 ] final -149.30 input  -65.29 | X-H torsion
[ 10718 10713 10712 10709 ] final  152.27 input   66.30 | X-H torsion
[ 10763 10752 10751 10750 ] final  178.33 input  -60.55 | X-H torsion
[ 11005 11000 10999 10996 ] final  -93.07 input  -57.11 | X-H torsion

> <Gold.Protein.ActiveResidues>
 VAL166  LYS551  ARG553  GLY616  TRP617  ASP618  TYR619  PRO620  LYS621  CYS622 
 ASP623  PHE694  ASN695  SER759  ASP760  ASP761  ALA762  ILE779  LEU786  VAL792 
 PHE793  MET794  SER795  GLU796  ALA797  LYS798  CYS799  TRP800  GLU811  SER814 

> <Gold.Protein.RotatedAtoms>
  152.2902  134.7730  160.0379 H   0  0  0  0  0  0  0  0  0  0  0  0  # atno 6907 bound_to 6896
  151.8279  133.3399  159.3612 H   0  0  0  0  0  0  0  0  0  0  0  0  # atno 6908 bound_to 6896
  150.7227  134.5440  159.5805 H   0  0  0  0  0  0  0  0  0  0  0  0  # atno 6909 bound_to 6896
  146.2356  140.1995  142.8333 H   0  0  0  0  0  0  0  0  0  0  0  0  # atno 7974 bound_to 7965
  155.5913  140.3493  155.4567 H   0  0  0  0  0  0  0  0  0  0  0  0  # atno 8008 bound_to 7997
  156.0299  140.1272  157.0294 H   0  0  0  0  0  0  0  0  0  0  0  0  # atno 8009 bound_to 7997
  154.4348  140.1045  156.6070 H   0  0  0  0  0  0  0  0  0  0  0  0  # atno 8010 bound_to 7997
  139.7455  143.8597  152.2573 H   0  0  0  0  0  0  0  0  0  0  0  0  # atno 10167 bound_to 10162
  157.2600  131.0796  151.1672 H   0  0  0  0  0  0  0  0  0  0  0  0  # atno 10718 bound_to 10713
  154.5063  135.2786  155.1379 H   0  0  0  0  0  0  0  0  0  0  0  0  # atno 10763 bound_to 10752
  154.2993  135.6251  153.5421 H   0  0  0  0  0  0  0  0  0  0  0  0  # atno 10764 bound_to 10752
  152.9911  135.5693  154.5518 H   0  0  0  0  0  0  0  0  0  0  0  0  # atno 10765 bound_to 10752
  141.1506  133.7863  157.0108 H   0  0  0  0  0  0  0  0  0  0  0  0  # atno 11005 bound_to 11000
  144.9794  140.8444  143.5407 LP  0  0  0  0  0  0  0  0  0  0  0  0  # atno 17320 bound_to 7965
  145.1986  139.2264  143.5205 LP  0  0  0  0  0  0  0  0  0  0  0  0  # atno 17321 bound_to 7965
  139.8560  144.7141  150.9156 LP  0  0  0  0  0  0  0  0  0  0  0  0  # atno 17342 bound_to 10162
  140.7791  143.3858  151.1396 LP  0  0  0  0  0  0  0  0  0  0  0  0  # atno 17343 bound_to 10162
  157.3186  130.6926  149.6256 LP  0  0  0  0  0  0  0  0  0  0  0  0  # atno 17370 bound_to 10713
  155.9664  130.4342  150.5039 LP  0  0  0  0  0  0  0  0  0  0  0  0  # atno 17371 bound_to 10713
  140.0879  134.9610  157.1729 LP  0  0  0  0  0  0  0  0  0  0  0  0  # atno 17394 bound_to 11000
  140.3486  134.2623  155.7201 LP  0  0  0  0  0  0  0  0  0  0  0  0  # atno 17395 bound_to 11000

$$$$
