AV-unprocessed.smi:290|AV-procd|sdf|2230|dock10
  -GOLD-   2262022 93D 1   1.00000     0.00000
 Structure written by MMmdl.
 59 62  0  0  0  0  0  0  0  0  2 V2000
  153.1217  140.8178  159.1272 C   0  0  0  0  0  0  0  0  0  0  0  0
  152.0564  141.8088  159.6209 C   0  0  1  0  0  0  0  0  0  0  0  0
  152.7697  142.7835  160.3838 O   0  0  0  0  0  0  0  0  0  0  0  0
  152.2475  144.0764  160.1335 C   0  0  0  0  0  0  0  0  0  0  0  0
  151.8594  144.0067  158.6648 C   0  0  0  0  0  0  0  0  0  0  0  0
  151.2700  142.6073  158.5390 C   0  0  2  0  0  0  0  0  0  0  0  0
  149.9181  142.6917  158.9577 O   0  0  0  0  0  0  0  0  0  0  0  0
  151.2918  142.0986  157.0696 C   0  0  0  0  0  0  0  0  0  0  0  0
  150.7202  140.7747  156.8411 N   0  0  0  0  0  0  0  0  0  0  0  0
  149.4280  140.3566  157.0790 C   0  0  0  0  0  0  0  0  0  0  0  0
  149.1732  139.1172  156.7602 N   0  0  0  0  0  0  0  0  0  0  0  0
  150.3700  138.6461  156.2362 C   0  0  0  0  0  0  0  0  0  0  0  0
  150.7934  137.3981  155.6944 C   0  0  0  0  0  0  0  0  0  0  0  0
  149.9807  136.3106  155.6199 N   0  0  0  0  0  0  0  0  0  0  0  0
  150.6325  135.0041  155.5540 C   0  0  0  0  0  0  0  0  0  0  0  0
  149.7789  134.1363  154.6232 C   0  0  0  0  0  0  0  0  0  0  0  0
  148.4103  134.8235  154.6747 C   0  0  2  0  0  0  0  0  0  0  0  0
  147.4761  134.4996  153.5583 N   0  3  2  0  0  0  0  0  0  0  0  0
  146.1124  135.0241  153.8070 C   0  0  0  0  0  0  0  0  0  0  0  0
  147.4709  133.0789  153.1130 C   0  0  0  0  0  0  0  0  0  0  0  0
  146.7164  132.8988  151.7860 C   0  0  0  0  0  0  0  0  0  0  0  0
  146.6877  131.5329  151.4278 O   0  0  0  0  0  0  0  0  0  0  0  0
  148.7747  136.3101  154.7917 C   0  0  1  0  0  0  0  0  0  0  0  0
  147.6413  137.1592  155.3946 C   0  0  0  0  0  0  0  0  0  0  0  0
  152.0735  137.3189  155.2434 N   0  0  0  0  0  0  0  0  0  0  0  0
  152.8856  138.3767  155.3191 C   0  0  0  0  0  0  0  0  0  0  0  0
  152.6281  139.5915  155.8050 N   0  0  0  0  0  0  0  0  0  0  0  0
  151.3452  139.6830  156.2592 C   0  0  0  0  0  0  0  0  0  0  0  0
  147.9314  134.5352  155.6131 H   0  0  0  0  0  0  0  0  0  0  0  0
  149.0349  136.7109  153.8130 H   0  0  0  0  0  0  0  0  0  0  0  0
  152.6718  139.9327  158.6823 H   0  0  0  0  0  0  0  0  0  0  0  0
  153.7342  140.4686  159.9587 H   0  0  0  0  0  0  0  0  0  0  0  0
  153.7897  141.2745  158.3967 H   0  0  0  0  0  0  0  0  0  0  0  0
  151.3716  141.2812  160.2875 H   0  0  0  0  0  0  0  0  0  0  0  0
  151.3742  144.2480  160.7646 H   0  0  0  0  0  0  0  0  0  0  0  0
  152.9824  144.8543  160.3412 H   0  0  0  0  0  0  0  0  0  0  0  0
  151.1762  144.8024  158.3641 H   0  0  0  0  0  0  0  0  0  0  0  0
  152.7600  144.0945  158.0552 H   0  0  0  0  0  0  0  0  0  0  0  0
  149.6702  141.8640  159.3404 H   0  0  0  0  0  0  0  0  0  0  0  0
  150.7590  142.8016  156.4278 H   0  0  0  0  0  0  0  0  0  0  0  0
  152.3193  142.0934  156.7050 H   0  0  0  0  0  0  0  0  0  0  0  0
  148.6651  140.9957  157.4968 H   0  0  0  0  0  0  0  0  0  0  0  0
  151.6609  135.0679  155.1944 H   0  0  0  0  0  0  0  0  0  0  0  0
  150.6534  134.5769  156.5571 H   0  0  0  0  0  0  0  0  0  0  0  0
  150.2094  134.1679  153.6224 H   0  0  0  0  0  0  0  0  0  0  0  0
  149.7441  133.0934  154.9388 H   0  0  0  0  0  0  0  0  0  0  0  0
  145.6520  134.5270  154.6618 H   0  0  0  0  0  0  0  0  0  0  0  0
  145.4668  134.8770  152.9418 H   0  0  0  0  0  0  0  0  0  0  0  0
  146.1398  136.0951  154.0105 H   0  0  0  0  0  0  0  0  0  0  0  0
  148.4810  132.6934  152.9831 H   0  0  0  0  0  0  0  0  0  0  0  0
  147.0168  132.4593  153.8879 H   0  0  0  0  0  0  0  0  0  0  0  0
  145.6880  133.2460  151.8911 H   0  0  0  0  0  0  0  0  0  0  0  0
  147.1658  133.4790  150.9806 H   0  0  0  0  0  0  0  0  0  0  0  0
  147.4993  131.3149  150.9941 H   0  0  0  0  0  0  0  0  0  0  0  0
  146.7451  137.1067  154.7760 H   0  0  0  0  0  0  0  0  0  0  0  0
  147.9199  138.2099  155.4719 H   0  0  0  0  0  0  0  0  0  0  0  0
  147.3760  136.8142  156.3944 H   0  0  0  0  0  0  0  0  0  0  0  0
  153.8855  138.2279  154.9388 H   0  0  0  0  0  0  0  0  0  0  0  0
  147.8293  135.0243  152.7700 H   0  0  0  0  0  0  0  0  0  0  0  0
  1  2  1  0  0  0  0
  1 31  1  0  0  0  0
  1 32  1  0  0  0  0
  1 33  1  0  0  0  0
  2  6  1  0  0  0  0
  2  3  1  0  0  0  0
  2 34  1  0  0  0  0
  3  4  1  0  0  0  0
  4  5  1  0  0  0  0
  4 35  1  0  0  0  0
  4 36  1  0  0  0  0
  5  6  1  0  0  0  0
  5 37  1  0  0  0  0
  5 38  1  0  0  0  0
  6  7  1  0  0  0  0
  6  8  1  0  0  0  0
  7 39  1  0  0  0  0
  8  9  1  0  0  0  0
  8 40  1  0  0  0  0
  8 41  1  0  0  0  0
  9 28  1  0  0  0  0
  9 10  1  0  0  0  0
 10 11  2  0  0  0  0
 10 42  1  0  0  0  0
 11 12  1  0  0  0  0
 12 28  2  0  0  0  0
 12 13  1  0  0  0  0
 13 14  1  0  0  0  0
 13 25  2  0  0  0  0
 14 23  1  0  0  0  0
 14 15  1  0  0  0  0
 15 16  1  0  0  0  0
 15 43  1  0  0  0  0
 15 44  1  0  0  0  0
 16 17  1  0  0  0  0
 16 45  1  0  0  0  0
 16 46  1  0  0  0  0
 17 29  1  0  0  0  0
 17 18  1  0  0  0  0
 17 23  1  0  0  0  0
 18 19  1  0  0  0  0
 18 20  1  0  0  0  0
 18 59  1  0  0  0  0
 19 47  1  0  0  0  0
 19 48  1  0  0  0  0
 19 49  1  0  0  0  0
 20 21  1  0  0  0  0
 20 50  1  0  0  0  0
 20 51  1  0  0  0  0
 21 22  1  0  0  0  0
 21 52  1  0  0  0  0
 21 53  1  0  0  0  0
 22 54  1  0  0  0  0
 23 30  1  0  0  0  0
 23 24  1  0  0  0  0
 24 55  1  0  0  0  0
 24 56  1  0  0  0  0
 24 57  1  0  0  0  0
 25 26  1  0  0  0  0
 26 27  2  0  0  0  0
 26 58  1  0  0  0  0
 27 28  1  0  0  0  0
M  CHG  1  18   1
M  END
> <s_m_source_file>
AV-unprocessed.smi

> <i_m_source_file_index>
290

> <i_lp_mmshare_version>
43012

> <i_f3d_flags>
0

> <s_epik_input>
W0NIMl0xW0NIMl1PW0NAQEhdKFtDSDNdKVtDQEBdMShbT0hdKVtDSDJdbihbY0hdbjIpYyhjMjMpbltjSF1uYzNONFtDSDJdW0NIMl1bQ0BIXShbQ0BIXTRbQ0gzXSlOKFtDSDNdKVtDSDJdW0NIMl1bT0hd

> <s_epik_cmdline>
J2VwaWtfcHl0aG9uJywgJy1waCcsICc3LjAnLCAnLXRuJywgJzgnLCAnLW1hJywgJzIwMCcsICctbWV0YWxfYmluZGluZycsICctaW1hZScsICc8aW5maWxlLm1hZT4nLCAnLW9tYWUnLCAnPG91dGZpbGUubWFlPic=

> <r_lp_tautomer_probability>
1

> <r_epik_Ionization_Penalty>
0.0036983

> <r_epik_Ionization_Penalty_Charging>
0.0032725

> <r_epik_Ionization_Penalty_Neutral>
0.000425798

> <r_epik_State_Penalty>
-0

> <r_epik_Charging_Adjusted_Penalty>
0.0032725

> <i_epik_Tot_Q>
1

> <i_epik_Tot_abs_Q>
1

> <r_epik_Metal_State_Penalty>
-0

> <b_epik_Metal_Only>
0

> <s_lp_Force_Field>
OPLS_2005

> <r_lp_Energy>
62.8721

> <b_lp_Chiralities_Consistent>
1

> <s_lp_Variant>
AV-unprocessed.smi:290-16

> <Gold.Version>
5.8.1

> <Gold.Id.Protein>
6NUR|6NUR_protein|mol2

> <Gold.PLP.Fitness>
54.7434

> <Gold.PLP.PLP>
-41.4119

> <Gold.PLP.part.hbond>
-4.6181

> <Gold.PLP.part.metal>
0.0000

> <Gold.PLP.part.buried>
-5.8302

> <Gold.PLP.part.nonpolar>
-31.6289

> <Gold.PLP.part.repulsive>
0.1484

> <Gold.PLP.ligand.clash>
0.0000

> <Gold.PLP.ligand.torsion>
0.6335

> <Gold.PLP.Chemscore.Hbond>
4.6820

> <Gold.PLP.Chemscore.CHOScore>
0.0000

> <Gold.PLP.Chemscore.Metal>
0.0000

> <Gold.Chemscore.Hbonds>
donor molecule, donor type, donor heavy atom, donor atom, acceptor molecule, acceptor atom, score
      L1  H    18    59       P1  7948  2.00
      L1  H    22    54       P1 10747  1.00
      P1  H  7997  8009       L1    27  0.85
      P1  H 10752 10765       L1    25  0.86

> <Gold.PLP.Chemscore.Internal.Correction>
0.5524

> <Gold.Rescore>
     Score         DG    S(hbond)    S(metal)    S(lipo)     H(rot)  DE(clash)    DE(int)     intcor
     15.48     -17.66       3.15        0.00      94.34       3.67       0.13       2.05       ----

> <Gold.Chemscore.Fitness>
15.4807

> <Gold.Chemscore.DG>
-17.6640

> <Gold.Chemscore.ZeroCoef>
-5.4800

> <Gold.Chemscore.Hbond>
3.1530

> <Gold.Chemscore.Metal>
0.0000

> <Gold.Chemscore.Lipo>
94.3362

> <Gold.Chemscore.Internal_Hbond>
0.0000

> <Gold.Chemscore.DEClash>
0.1326

> <Gold.Chemscore.DEInternal>
2.0507

> <Gold.Chemscore.Rot>
3.6658

> <Gold.Chemscore.Internal.Correction>
   9.000000E+99

> <Gold.Chemscore.Hbonds>
donor molecule, donor type, donor heavy atom, donor atom, acceptor molecule, acceptor atom, score
      L1  H    18    59       P1  7948  0.97
      L1  H    22    54       P1 10747  1.00
      P1  H  7997  8009       L1    27  0.14
      P1  H 10752 10765       L1    25  0.72

> <Gold.Chemscore.Hbond.Weighted>
-10.5311

> <Gold.Chemscore.Metal.Weighted>
-0.0000

> <Gold.Chemscore.Lipo.Weighted>
-11.0373

> <Gold.Chemscore.Internal_Hbond.Weighted>
0.0000

> <Gold.Chemscore.DEClash.Weighted>
0.1326

> <Gold.Chemscore.DEInternal.Weighted>
2.0507

> <Gold.Chemscore.Rot.Weighted>
9.3844

> <Gold.Chemscore.Internal.Correction.Weighted>
   9.000000E+99

> <Gold.Protein.RotatedTorsions>
[ 6907 6896 6895 6894 ] final   36.08 input  -60.11 | X-H torsion
[ 7974 7965 7964 7962 ] final -173.00 input  175.53 | X-H torsion
[ 8008 7997 7996 7995 ] final -134.85 input   59.86 | X-H torsion
[ 10167 10162 10161 10158 ] final   62.66 input  -65.29 | X-H torsion
[ 10718 10713 10712 10709 ] final  152.14 input   66.30 | X-H torsion
[ 10763 10752 10751 10750 ] final -175.00 input  -60.55 | X-H torsion
[ 11005 11000 10999 10996 ] final  135.95 input  -57.11 | X-H torsion

> <Gold.Protein.ActiveResidues>
 VAL166  LYS551  ARG553  GLY616  TRP617  ASP618  TYR619  PRO620  LYS621  CYS622 
 ASP623  PHE694  ASN695  SER759  ASP760  ASP761  ALA762  ILE779  LEU786  VAL792 
 PHE793  MET794  SER795  GLU796  ALA797  LYS798  CYS799  TRP800  GLU811  SER814 

> <Gold.Protein.RotatedAtoms>
  152.1248  134.9178  160.0561 H   0  0  0  0  0  0  0  0  0  0  0  0  # atno 6907 bound_to 6896
  152.0305  133.3930  159.4303 H   0  0  0  0  0  0  0  0  0  0  0  0  # atno 6908 bound_to 6896
  150.6852  134.3447  159.4926 H   0  0  0  0  0  0  0  0  0  0  0  0  # atno 6909 bound_to 6896
  144.7141  140.1687  143.6369 H   0  0  0  0  0  0  0  0  0  0  0  0  # atno 7974 bound_to 7965
  155.3689  140.0487  157.3045 H   0  0  0  0  0  0  0  0  0  0  0  0  # atno 8008 bound_to 7997
  154.5140  140.2202  155.9064 H   0  0  0  0  0  0  0  0  0  0  0  0  # atno 8009 bound_to 7997
  156.1615  140.3115  155.8821 H   0  0  0  0  0  0  0  0  0  0  0  0  # atno 8010 bound_to 7997
  140.1414  144.4549  150.6809 H   0  0  0  0  0  0  0  0  0  0  0  0  # atno 10167 bound_to 10162
  157.2616  131.0799  151.1662 H   0  0  0  0  0  0  0  0  0  0  0  0  # atno 10718 bound_to 10713
  154.5896  135.2844  155.0649 H   0  0  0  0  0  0  0  0  0  0  0  0  # atno 10763 bound_to 10752
  154.1954  135.6433  153.5076 H   0  0  0  0  0  0  0  0  0  0  0  0  # atno 10764 bound_to 10752
  153.0116  135.5456  154.6577 H   0  0  0  0  0  0  0  0  0  0  0  0  # atno 10765 bound_to 10752
  140.0013  134.9477  157.0078 H   0  0  0  0  0  0  0  0  0  0  0  0  # atno 11005 bound_to 11000
  145.8963  139.2405  143.1519 LP  0  0  0  0  0  0  0  0  0  0  0  0  # atno 17320 bound_to 7965
  145.9854  140.8648  143.0093 LP  0  0  0  0  0  0  0  0  0  0  0  0  # atno 17321 bound_to 7965
  140.6758  143.2304  151.5511 LP  0  0  0  0  0  0  0  0  0  0  0  0  # atno 17342 bound_to 10162
  139.5470  144.2495  152.1460 LP  0  0  0  0  0  0  0  0  0  0  0  0  # atno 17343 bound_to 10162
  157.3169  130.6918  149.6247 LP  0  0  0  0  0  0  0  0  0  0  0  0  # atno 17370 bound_to 10713
  155.9664  130.4347  150.5059 LP  0  0  0  0  0  0  0  0  0  0  0  0  # atno 17371 bound_to 10713
  140.4722  134.1374  155.7205 LP  0  0  0  0  0  0  0  0  0  0  0  0  # atno 17394 bound_to 11000
  141.1644  133.8731  157.1757 LP  0  0  0  0  0  0  0  0  0  0  0  0  # atno 17395 bound_to 11000

$$$$
