AV-unprocessed.smi:3222|AV-procd|sdf|12305|dock6
  -GOLD-   2272018153D 1   1.00000     0.00000
 Structure written by MMmdl.
 41 42  0  0  0  0  0  0  0  0  2 V2000
  150.3825  141.9776  157.2799 C   0  0  0  0  0  0  0  0  0  0  0  0
  150.8601  140.5373  157.0177 C   0  0  2  0  0  0  0  0  0  0  0  0
  152.2283  140.3848  157.5626 N   0  3  0  0  0  0  0  0  0  0  0  0
  152.3031  140.2674  159.0330 C   0  0  0  0  0  0  0  0  0  0  0  0
  153.6367  140.8190  159.5604 C   0  0  0  0  0  0  0  0  0  0  0  0
  153.4380  141.7075  160.7022 N   0  0  0  0  0  0  0  0  0  0  0  0
  152.4341  142.7575  160.6619 C   0  0  0  0  0  0  0  0  0  0  0  0
  152.6487  143.5658  161.9498 C   0  0  0  0  0  0  0  0  0  0  0  0
  153.5744  142.7169  162.8280 C   0  0  0  0  0  0  0  0  0  0  0  0
  154.0708  141.6394  161.8792 C   0  0  0  0  0  0  0  0  0  0  0  0
  154.9411  140.8265  162.1866 O   0  0  0  0  0  0  0  0  0  0  0  0
  150.8247  140.1496  155.5139 C   0  0  1  0  0  0  0  0  0  0  0  0
  151.4363  138.7637  155.2329 C   0  0  0  0  0  0  0  0  0  0  0  0
  149.4774  140.2179  154.9621 N   0  0  0  0  0  0  0  0  0  0  0  0
  148.6566  141.3209  154.8455 C   0  0  0  0  0  0  0  0  0  0  0  0
  147.4926  140.9045  154.2657 C   0  0  0  0  0  0  0  0  0  0  0  0
  147.6972  139.5121  154.0577 C   0  0  0  0  0  0  0  0  0  0  0  0
  148.8850  139.1042  154.4742 N   0  0  0  0  0  0  0  0  0  0  0  0
  149.3404  142.1195  156.9932 H   0  0  0  0  0  0  0  0  0  0  0  0
  150.9816  142.7013  156.7264 H   0  0  0  0  0  0  0  0  0  0  0  0
  150.4563  142.2261  158.3391 H   0  0  0  0  0  0  0  0  0  0  0  0
  150.1848  139.8759  157.5638 H   0  0  0  0  0  0  0  0  0  0  0  0
  152.6509  139.5680  157.1452 H   0  0  0  0  0  0  0  0  0  0  0  0
  151.4657  140.8125  159.4703 H   0  0  0  0  0  0  0  0  0  0  0  0
  152.1934  139.2220  159.3236 H   0  0  0  0  0  0  0  0  0  0  0  0
  154.2895  139.9956  159.8539 H   0  0  0  0  0  0  0  0  0  0  0  0
  154.1606  141.3612  158.7714 H   0  0  0  0  0  0  0  0  0  0  0  0
  152.5446  143.3787  159.7722 H   0  0  0  0  0  0  0  0  0  0  0  0
  151.4407  142.3069  160.6448 H   0  0  0  0  0  0  0  0  0  0  0  0
  153.1269  144.5190  161.7200 H   0  0  0  0  0  0  0  0  0  0  0  0
  151.7043  143.7856  162.4488 H   0  0  0  0  0  0  0  0  0  0  0  0
  154.4012  143.2982  163.2373 H   0  0  0  0  0  0  0  0  0  0  0  0
  153.0293  142.2539  163.6511 H   0  0  0  0  0  0  0  0  0  0  0  0
  151.4189  140.8838  154.9672 H   0  0  0  0  0  0  0  0  0  0  0  0
  152.4949  138.7329  155.4900 H   0  0  0  0  0  0  0  0  0  0  0  0
  151.3568  138.5096  154.1754 H   0  0  0  0  0  0  0  0  0  0  0  0
  150.9323  137.9806  155.8005 H   0  0  0  0  0  0  0  0  0  0  0  0
  148.9642  142.3005  155.1811 H   0  0  0  0  0  0  0  0  0  0  0  0
  146.6269  141.5038  154.0253 H   0  0  0  0  0  0  0  0  0  0  0  0
  147.0230  138.7911  153.6193 H   0  0  0  0  0  0  0  0  0  0  0  0
  152.7651  141.1964  157.2921 H   0  0  0  0  0  0  0  0  0  0  0  0
  1  2  1  0  0  0  0
  1 19  1  0  0  0  0
  1 20  1  0  0  0  0
  1 21  1  0  0  0  0
  2  3  1  0  0  0  0
  2 12  1  0  0  0  0
  2 22  1  0  0  0  0
  3  4  1  0  0  0  0
  3 23  1  0  0  0  0
  3 41  1  0  0  0  0
  4  5  1  0  0  0  0
  4 24  1  0  0  0  0
  4 25  1  0  0  0  0
  5  6  1  0  0  0  0
  5 26  1  0  0  0  0
  5 27  1  0  0  0  0
  6 10  1  0  0  0  0
  6  7  1  0  0  0  0
  7  8  1  0  0  0  0
  7 28  1  0  0  0  0
  7 29  1  0  0  0  0
  8  9  1  0  0  0  0
  8 30  1  0  0  0  0
  8 31  1  0  0  0  0
  9 10  1  0  0  0  0
  9 32  1  0  0  0  0
  9 33  1  0  0  0  0
 10 11  2  0  0  0  0
 12 13  1  0  0  0  0
 12 14  1  0  0  0  0
 12 34  1  0  0  0  0
 13 35  1  0  0  0  0
 13 36  1  0  0  0  0
 13 37  1  0  0  0  0
 14 18  1  0  0  0  0
 14 15  1  0  0  0  0
 15 16  2  0  0  0  0
 15 38  1  0  0  0  0
 16 17  1  0  0  0  0
 16 39  1  0  0  0  0
 17 18  2  0  0  0  0
 17 40  1  0  0  0  0
M  CHG  1   3   1
M  END
> <s_m_source_file>
AV-unprocessed.smi

> <i_m_source_file_index>
3222

> <i_lp_mmshare_version>
43012

> <i_f3d_flags>
0

> <s_epik_input>
bjFbY0hdW2NIXVtjSF1uMVtDQEBIXShbQ0gzXSlbQ0BIXShbQ0gzXSlbTkhdW0NIMl1bQ0gyXU4yW0NIMl1bQ0gyXVtDSDJdQzI9Tw==

> <s_epik_cmdline>
J2VwaWtfcHl0aG9uJywgJy1waCcsICc3LjAnLCAnLXRuJywgJzgnLCAnLW1hJywgJzIwMCcsICctbWV0YWxfYmluZGluZycsICctaW1hZScsICc8aW5maWxlLm1hZT4nLCAnLW9tYWUnLCAnPG91dGZpbGUubWFlPic=

> <r_lp_tautomer_probability>
1

> <r_epik_Ionization_Penalty>
0.0064019

> <r_epik_Ionization_Penalty_Charging>
0.00639164

> <r_epik_Ionization_Penalty_Neutral>
1.02567e-05

> <r_epik_State_Penalty>
0.00472531

> <r_epik_Charging_Adjusted_Penalty>
0.011117

> <i_epik_Tot_Q>
1

> <i_epik_Tot_abs_Q>
1

> <r_epik_Metal_State_Penalty>
-0

> <b_epik_Metal_Only>
0

> <s_lp_Force_Field>
OPLS_2005

> <r_lp_Energy>
25.0095

> <b_lp_Chiralities_Consistent>
1

> <s_lp_Variant>
AV-unprocessed.smi:3222-3

> <Gold.Version>
5.8.1

> <Gold.Id.Protein>
6NUR|6NUR_protein|mol2

> <Gold.PLP.Fitness>
46.4149

> <Gold.PLP.PLP>
-45.0368

> <Gold.PLP.part.hbond>
-1.0000

> <Gold.PLP.part.metal>
0.0000

> <Gold.PLP.part.buried>
-0.2971

> <Gold.PLP.part.nonpolar>
-41.3817

> <Gold.PLP.part.repulsive>
0.2580

> <Gold.PLP.ligand.clash>
0.0000

> <Gold.PLP.ligand.torsion>
0.8827

> <Gold.PLP.Chemscore.Hbond>
0.0000

> <Gold.PLP.Chemscore.CHOScore>
1.0000

> <Gold.PLP.Chemscore.Metal>
0.0000

> <Gold.Chemscore.Hbonds>
donor molecule, donor type, donor heavy atom, donor atom, acceptor molecule, acceptor atom, score
      L1  C    15    38       P1  8028  1.00

> <Gold.PLP.Chemscore.Internal.Correction>
0.1435

> <Gold.Rescore>
     Score         DG    S(hbond)    S(metal)    S(lipo)     H(rot)  DE(clash)    DE(int)     intcor
     11.09     -12.08       0.00        0.00     100.02       1.99       0.07       0.92       ----

> <Gold.Chemscore.Fitness>
11.0941

> <Gold.Chemscore.DG>
-12.0816

> <Gold.Chemscore.ZeroCoef>
-5.4800

> <Gold.Chemscore.Hbond>
0.0000

> <Gold.Chemscore.Metal>
0.0000

> <Gold.Chemscore.Lipo>
100.0152

> <Gold.Chemscore.Internal_Hbond>
0.0000

> <Gold.Chemscore.DEClash>
0.0700

> <Gold.Chemscore.DEInternal>
0.9176

> <Gold.Chemscore.Rot>
1.9922

> <Gold.Chemscore.Internal.Correction>
   9.000000E+99

> <Gold.Chemscore.Hbond.Weighted>
-0.0000

> <Gold.Chemscore.Metal.Weighted>
-0.0000

> <Gold.Chemscore.Lipo.Weighted>
-11.7018

> <Gold.Chemscore.Internal_Hbond.Weighted>
0.0000

> <Gold.Chemscore.DEClash.Weighted>
0.0700

> <Gold.Chemscore.DEInternal.Weighted>
0.9176

> <Gold.Chemscore.Rot.Weighted>
5.1002

> <Gold.Chemscore.Internal.Correction.Weighted>
   9.000000E+99

> <Gold.Protein.RotatedTorsions>
[ 6907 6896 6895 6894 ] final   52.13 input  -60.11 | X-H torsion
[ 7974 7965 7964 7962 ] final  -26.13 input  175.53 | X-H torsion
[ 8008 7997 7996 7995 ] final  -26.33 input   59.86 | X-H torsion
[ 10167 10162 10161 10158 ] final   34.74 input  -65.29 | X-H torsion
[ 10718 10713 10712 10709 ] final   -4.04 input   66.30 | X-H torsion
[ 10763 10752 10751 10750 ] final   78.90 input  -60.55 | X-H torsion
[ 11005 11000 10999 10996 ] final  130.47 input  -57.11 | X-H torsion

> <Gold.Protein.ActiveResidues>
 VAL166  LYS551  ARG553  GLY616  TRP617  ASP618  TYR619  PRO620  LYS621  CYS622 
 ASP623  PHE694  ASN695  SER759  ASP760  ASP761  ALA762  ILE779  LEU786  VAL792 
 PHE793  MET794  SER795  GLU796  ALA797  LYS798  CYS799  TRP800  GLU811  SER814 

> <Gold.Protein.RotatedAtoms>
  152.3200  134.7392  160.0315 H   0  0  0  0  0  0  0  0  0  0  0  0  # atno 6907 bound_to 6896
  151.7843  133.3347  159.3489 H   0  0  0  0  0  0  0  0  0  0  0  0  # atno 6908 bound_to 6896
  150.7365  134.5832  159.5994 H   0  0  0  0  0  0  0  0  0  0  0  0  # atno 6909 bound_to 6896
  146.1446  140.4978  142.8637 H   0  0  0  0  0  0  0  0  0  0  0  0  # atno 7974 bound_to 7965
  154.4430  140.1902  156.0759 H   0  0  0  0  0  0  0  0  0  0  0  0  # atno 8008 bound_to 7997
  156.0476  140.3312  155.7287 H   0  0  0  0  0  0  0  0  0  0  0  0  # atno 8009 bound_to 7997
  155.5606  140.0603  157.2820 H   0  0  0  0  0  0  0  0  0  0  0  0  # atno 8010 bound_to 7997
  140.4287  144.1356  150.6156 H   0  0  0  0  0  0  0  0  0  0  0  0  # atno 10167 bound_to 10162
  156.7672  130.5288  149.5774 H   0  0  0  0  0  0  0  0  0  0  0  0  # atno 10718 bound_to 10713
  153.0910  135.4860  154.8689 H   0  0  0  0  0  0  0  0  0  0  0  0  # atno 10763 bound_to 10752
  154.7269  135.3051  154.8959 H   0  0  0  0  0  0  0  0  0  0  0  0  # atno 10764 bound_to 10752
  153.9606  135.6813  153.4798 H   0  0  0  0  0  0  0  0  0  0  0  0  # atno 10765 bound_to 10752
  139.9674  134.9587  156.9298 H   0  0  0  0  0  0  0  0  0  0  0  0  # atno 11005 bound_to 11000
  144.7831  140.5882  143.6592 LP  0  0  0  0  0  0  0  0  0  0  0  0  # atno 17320 bound_to 7965
  145.4967  139.1485  143.3679 LP  0  0  0  0  0  0  0  0  0  0  0  0  # atno 17321 bound_to 7965
  140.4452  143.2509  151.9421 LP  0  0  0  0  0  0  0  0  0  0  0  0  # atno 17342 bound_to 10162
  139.4784  144.5616  151.8230 LP  0  0  0  0  0  0  0  0  0  0  0  0  # atno 17343 bound_to 10162
  156.1301  130.6172  151.0321 LP  0  0  0  0  0  0  0  0  0  0  0  0  # atno 17370 bound_to 10713
  157.6708  131.0862  150.7617 LP  0  0  0  0  0  0  0  0  0  0  0  0  # atno 17371 bound_to 10713
  140.5368  134.0760  155.7330 LP  0  0  0  0  0  0  0  0  0  0  0  0  # atno 17394 bound_to 11000
  141.1353  133.9231  157.2446 LP  0  0  0  0  0  0  0  0  0  0  0  0  # atno 17395 bound_to 11000

$$$$
