AV-unprocessed.smi:646|AV-procd|sdf|3165|dock7
  -GOLD-   22720 0 83D 1   1.00000     0.00000
 Structure written by MMmdl.
 44 45  0  0  0  0  0  0  0  0  1 V2000
  151.0711  133.8106  157.5867 C   0  0  0  0  0  0  0  0  0  0  0  0
  151.0387  135.1318  158.1136 O   0  0  0  0  0  0  0  0  0  0  0  0
  150.4863  136.1611  157.2812 C   0  0  1  0  0  0  0  0  0  0  0  0
  151.2191  136.2045  155.9338 C   0  0  0  0  0  0  0  0  0  0  0  0
  148.9476  136.0891  157.2994 C   0  0  0  0  0  0  0  0  0  0  0  0
  148.9487  137.0006  158.5283 C   0  0  1  0  0  0  0  0  0  0  0  0
  148.9120  136.2196  159.7634 N   0  0  0  0  0  0  0  0  0  0  0  0
  147.9661  136.3120  160.7095 C   0  0  0  0  0  0  0  0  0  0  0  0
  146.9999  137.0700  160.6320 O   0  0  0  0  0  0  0  0  0  0  0  0
  148.1469  135.4243  161.9420 C   0  0  0  0  0  0  0  0  0  0  0  0
  147.0749  134.3646  161.9847 C   0  0  0  0  0  0  0  0  0  0  0  0
  145.6654  134.5518  162.0630 C   0  0  0  0  0  0  0  0  0  0  0  0
  144.9009  135.8429  162.1208 C   0  0  0  0  0  0  0  0  0  0  0  0
  145.0138  133.4012  162.0778 N   0  0  0  0  0  0  0  0  0  0  0  0
  145.9934  132.4059  162.0076 O   0  0  0  0  0  0  0  0  0  0  0  0
  147.2106  133.0034  161.9508 C   0  0  0  0  0  0  0  0  0  0  0  0
  148.3928  132.0987  161.8613 C   0  0  0  0  0  0  0  0  0  0  0  0
  150.3697  137.4746  158.1229 C   0  0  0  0  0  0  0  0  0  0  0  0
  151.4120  137.6883  159.2333 C   0  0  0  0  0  0  0  0  0  0  0  0
  150.3607  138.7846  157.3209 C   0  0  0  0  0  0  0  0  0  0  0  0
  151.3766  133.1220  158.3739 H   0  0  0  0  0  0  0  0  0  0  0  0
  151.7977  133.7158  156.7801 H   0  0  0  0  0  0  0  0  0  0  0  0
  150.0978  133.4834  157.2224 H   0  0  0  0  0  0  0  0  0  0  0  0
  150.8959  137.0458  155.3217 H   0  0  0  0  0  0  0  0  0  0  0  0
  151.0311  135.3115  155.3386 H   0  0  0  0  0  0  0  0  0  0  0  0
  152.2968  136.2955  156.0711 H   0  0  0  0  0  0  0  0  0  0  0  0
  148.4974  136.5698  156.4294 H   0  0  0  0  0  0  0  0  0  0  0  0
  148.5110  135.1035  157.4614 H   0  0  0  0  0  0  0  0  0  0  0  0
  148.1883  137.7814  158.4701 H   0  0  0  0  0  0  0  0  0  0  0  0
  149.6732  135.5737  159.9151 H   0  0  0  0  0  0  0  0  0  0  0  0
  149.1440  134.9839  161.9107 H   0  0  0  0  0  0  0  0  0  0  0  0
  148.1207  136.0465  162.8374 H   0  0  0  0  0  0  0  0  0  0  0  0
  145.2310  136.4529  162.9617 H   0  0  0  0  0  0  0  0  0  0  0  0
  143.8290  135.6758  162.2333 H   0  0  0  0  0  0  0  0  0  0  0  0
  145.0524  136.4240  161.2111 H   0  0  0  0  0  0  0  0  0  0  0  0
  149.2923  132.6522  161.5921 H   0  0  0  0  0  0  0  0  0  0  0  0
  148.2348  131.3295  161.1052 H   0  0  0  0  0  0  0  0  0  0  0  0
  148.5730  131.6043  162.8157 H   0  0  0  0  0  0  0  0  0  0  0  0
  151.1432  138.5290  159.8738 H   0  0  0  0  0  0  0  0  0  0  0  0
  152.3990  137.8944  158.8181 H   0  0  0  0  0  0  0  0  0  0  0  0
  151.5196  136.8208  159.8842 H   0  0  0  0  0  0  0  0  0  0  0  0
  150.0936  139.6346  157.9496 H   0  0  0  0  0  0  0  0  0  0  0  0
  149.6385  138.7584  156.5044 H   0  0  0  0  0  0  0  0  0  0  0  0
  151.3366  138.9976  156.8831 H   0  0  0  0  0  0  0  0  0  0  0  0
  1  2  1  0  0  0  0
  1 21  1  0  0  0  0
  1 22  1  0  0  0  0
  1 23  1  0  0  0  0
  2  3  1  0  0  0  0
  3 18  1  0  0  0  0
  3  4  1  0  0  0  0
  3  5  1  0  0  0  0
  4 24  1  0  0  0  0
  4 25  1  0  0  0  0
  4 26  1  0  0  0  0
  5  6  1  0  0  0  0
  5 27  1  0  0  0  0
  5 28  1  0  0  0  0
  6  7  1  0  0  0  0
  6 18  1  0  0  0  0
  6 29  1  0  0  0  0
  7  8  1  0  0  0  0
  7 30  1  0  0  0  0
  8  9  2  0  0  0  0
  8 10  1  0  0  0  0
 10 11  1  0  0  0  0
 10 31  1  0  0  0  0
 10 32  1  0  0  0  0
 11 16  2  0  0  0  0
 11 12  1  0  0  0  0
 12 13  1  0  0  0  0
 12 14  2  0  0  0  0
 13 33  1  0  0  0  0
 13 34  1  0  0  0  0
 13 35  1  0  0  0  0
 14 15  1  0  0  0  0
 15 16  1  0  0  0  0
 16 17  1  0  0  0  0
 17 36  1  0  0  0  0
 17 37  1  0  0  0  0
 17 38  1  0  0  0  0
 18 19  1  0  0  0  0
 18 20  1  0  0  0  0
 19 39  1  0  0  0  0
 19 40  1  0  0  0  0
 19 41  1  0  0  0  0
 20 42  1  0  0  0  0
 20 43  1  0  0  0  0
 20 44  1  0  0  0  0
M  END
> <s_m_source_file>
AV-unprocessed.smi

> <i_m_source_file_index>
646

> <i_lp_mmshare_version>
43012

> <i_f3d_flags>
0

> <s_epik_input>
W0NIM11PW0NAQF0xKFtDSDNdKVtDSDJdW0NASF0oQzEoW0NIM10pW0NIM10pW05IXUMoPU8pW0NIMl1jMmMoW0NIM10pbm9jMltDSDNd

> <s_epik_cmdline>
J2VwaWtfcHl0aG9uJywgJy1waCcsICc3LjAnLCAnLXRuJywgJzgnLCAnLW1hJywgJzIwMCcsICctbWV0YWxfYmluZGluZycsICctaW1hZScsICc8aW5maWxlLm1hZT4nLCAnLW9tYWUnLCAnPG91dGZpbGUubWFlPic=

> <r_lp_tautomer_probability>
1

> <r_epik_Ionization_Penalty>
2.13169e-08

> <r_epik_Ionization_Penalty_Charging>
0

> <r_epik_Ionization_Penalty_Neutral>
2.13169e-08

> <r_epik_State_Penalty>
-0

> <r_epik_Charging_Adjusted_Penalty>
0

> <i_epik_Tot_Q>
0

> <i_epik_Tot_abs_Q>
0

> <r_epik_Metal_State_Penalty>
-0

> <b_epik_Metal_Only>
0

> <s_lp_Force_Field>
OPLS_2005

> <r_lp_Energy>
17.7516

> <b_lp_Chiralities_Consistent>
1

> <s_lp_Variant>
AV-unprocessed.smi:646-1

> <Gold.Version>
5.8.1

> <Gold.Id.Protein>
6NUR|6NUR_protein|mol2

> <Gold.PLP.Fitness>
32.0877

> <Gold.PLP.PLP>
-27.0025

> <Gold.PLP.part.hbond>
-2.0000

> <Gold.PLP.part.metal>
0.0000

> <Gold.PLP.part.buried>
-5.2273

> <Gold.PLP.part.nonpolar>
-19.7595

> <Gold.PLP.part.repulsive>
0.3217

> <Gold.PLP.ligand.clash>
0.0000

> <Gold.PLP.ligand.torsion>
0.3051

> <Gold.PLP.Chemscore.Hbond>
1.7680

> <Gold.PLP.Chemscore.CHOScore>
0.0000

> <Gold.PLP.Chemscore.Metal>
0.0000

> <Gold.Chemscore.Hbonds>
donor molecule, donor type, donor heavy atom, donor atom, acceptor molecule, acceptor atom, score
      P1  H  6896  6907       L1     2  0.09
      P1  H  6934  6947       L1     9  1.00

> <Gold.PLP.Chemscore.Internal.Correction>
0.3913

> <Gold.Rescore>
     Score         DG    S(hbond)    S(metal)    S(lipo)     H(rot)  DE(clash)    DE(int)     intcor
     12.39     -13.84       1.26        0.00      68.23       1.49       0.07       1.39       ----

> <Gold.Chemscore.Fitness>
12.3874

> <Gold.Chemscore.DG>
-13.8437

> <Gold.Chemscore.ZeroCoef>
-5.4800

> <Gold.Chemscore.Hbond>
1.2583

> <Gold.Chemscore.Metal>
0.0000

> <Gold.Chemscore.Lipo>
68.2258

> <Gold.Chemscore.Internal_Hbond>
0.0000

> <Gold.Chemscore.DEClash>
0.0689

> <Gold.Chemscore.DEInternal>
1.3874

> <Gold.Chemscore.Rot>
1.4928

> <Gold.Chemscore.Internal.Correction>
   9.000000E+99

> <Gold.Chemscore.Hbonds>
donor molecule, donor type, donor heavy atom, donor atom, acceptor molecule, acceptor atom, score
      P1  H  6934  6947       L1     9  0.96

> <Gold.Chemscore.Hbond.Weighted>
-4.2029

> <Gold.Chemscore.Metal.Weighted>
-0.0000

> <Gold.Chemscore.Lipo.Weighted>
-7.9824

> <Gold.Chemscore.Internal_Hbond.Weighted>
0.0000

> <Gold.Chemscore.DEClash.Weighted>
0.0689

> <Gold.Chemscore.DEInternal.Weighted>
1.3874

> <Gold.Chemscore.Rot.Weighted>
3.8217

> <Gold.Chemscore.Internal.Correction.Weighted>
   9.000000E+99

> <Gold.Protein.RotatedTorsions>
[ 6907 6896 6895 6894 ] final  -72.80 input  -60.11 | X-H torsion
[ 7974 7965 7964 7962 ] final  -67.38 input  175.53 | X-H torsion
[ 8008 7997 7996 7995 ] final -146.12 input   59.86 | X-H torsion
[ 10167 10162 10161 10158 ] final -120.29 input  -65.29 | X-H torsion
[ 10718 10713 10712 10709 ] final -107.17 input   66.30 | X-H torsion
[ 10763 10752 10751 10750 ] final -128.63 input  -60.55 | X-H torsion
[ 11005 11000 10999 10996 ] final  175.68 input  -57.11 | X-H torsion

> <Gold.Protein.ActiveResidues>
 VAL166  LYS551  ARG553  GLY616  TRP617  ASP618  TYR619  PRO620  LYS621  CYS622 
 ASP623  PHE694  ASN695  SER759  ASP760  ASP761  ALA762  ILE779  LEU786  VAL792 
 PHE793  MET794  SER795  GLU796  ALA797  LYS798  CYS799  TRP800  GLU811  SER814 

> <Gold.Protein.RotatedAtoms>
  150.7155  134.5109  159.5606 H   0  0  0  0  0  0  0  0  0  0  0  0  # atno 6907 bound_to 6896
  152.2686  134.7954  160.0427 H   0  0  0  0  0  0  0  0  0  0  0  0  # atno 6908 bound_to 6896
  151.8642  133.3428  159.3750 H   0  0  0  0  0  0  0  0  0  0  0  0  # atno 6909 bound_to 6896
  145.7299  140.9001  143.0585 H   0  0  0  0  0  0  0  0  0  0  0  0  # atno 7974 bound_to 7965
  155.5542  140.0619  157.2843 H   0  0  0  0  0  0  0  0  0  0  0  0  # atno 8008 bound_to 7997
  154.4411  140.1897  156.0761 H   0  0  0  0  0  0  0  0  0  0  0  0  # atno 8009 bound_to 7997
  156.0494  140.3286  155.7338 H   0  0  0  0  0  0  0  0  0  0  0  0  # atno 8010 bound_to 7997
  140.0374  143.5187  152.2147 H   0  0  0  0  0  0  0  0  0  0  0  0  # atno 10167 bound_to 10162
  156.0424  130.5649  150.7784 H   0  0  0  0  0  0  0  0  0  0  0  0  # atno 10718 bound_to 10713
  154.8756  135.3922  154.3789 H   0  0  0  0  0  0  0  0  0  0  0  0  # atno 10763 bound_to 10752
  153.4539  135.7028  153.6097 H   0  0  0  0  0  0  0  0  0  0  0  0  # atno 10764 bound_to 10752
  153.4625  135.3809  155.2315 H   0  0  0  0  0  0  0  0  0  0  0  0  # atno 10765 bound_to 10752
  140.3648  134.7081  157.4355 H   0  0  0  0  0  0  0  0  0  0  0  0  # atno 11005 bound_to 11000
  144.6895  139.9317  143.7472 LP  0  0  0  0  0  0  0  0  0  0  0  0  # atno 17320 bound_to 7965
  146.0547  139.3545  143.0618 LP  0  0  0  0  0  0  0  0  0  0  0  0  # atno 17321 bound_to 7965
  139.6036  144.7590  151.3114 LP  0  0  0  0  0  0  0  0  0  0  0  0  # atno 17342 bound_to 10162
  140.7275  143.6961  150.7883 LP  0  0  0  0  0  0  0  0  0  0  0  0  # atno 17343 bound_to 10162
  157.5258  131.0934  151.0019 LP  0  0  0  0  0  0  0  0  0  0  0  0  # atno 17370 bound_to 10713
  157.0338  130.5722  149.5346 LP  0  0  0  0  0  0  0  0  0  0  0  0  # atno 17371 bound_to 10713
  140.0598  134.6012  155.8762 LP  0  0  0  0  0  0  0  0  0  0  0  0  # atno 17394 bound_to 11000
  141.1973  133.6595  156.5734 LP  0  0  0  0  0  0  0  0  0  0  0  0  # atno 17395 bound_to 11000

$$$$
