AV-unprocessed.smi:2913|AV-procd|sdf|11182|dock10
  -GOLD-   2272016 73D 1   1.00000     0.00000
 Structure written by MMmdl.
 41 42  0  0  0  0  0  0  0  0  1 V2000
  150.2241  144.8703  158.9184 C   0  0  0  0  0  0  0  0  0  0  0  0
  151.0180  143.5920  159.1318 C   0  0  0  0  0  0  0  0  0  0  0  0
  151.9849  143.5506  160.0755 C   0  0  0  0  0  0  0  0  0  0  0  0
  152.7885  142.3550  160.3347 C   0  0  0  0  0  0  0  0  0  0  0  0
  153.6645  142.3262  161.1994 O   0  0  0  0  0  0  0  0  0  0  0  0
  152.5043  141.2765  159.5542 N   0  0  0  0  0  0  0  0  0  0  0  0
  153.2591  140.0326  159.7282 C   0  0  0  0  0  0  0  0  0  0  0  0
  151.5031  141.3060  158.5689 C   0  0  0  0  0  0  0  0  0  0  0  0
  150.7503  142.4033  158.3319 C   0  0  0  0  0  0  0  0  0  0  0  0
  149.7476  142.4805  157.3504 N   0  0  0  0  0  0  0  0  0  0  0  0
  149.1398  141.4935  156.6659 C   0  0  0  0  0  0  0  0  0  0  0  0
  149.3344  140.2874  156.8137 O   0  0  0  0  0  0  0  0  0  0  0  0
  148.2539  141.9983  155.7947 N   0  0  0  0  0  0  0  0  0  0  0  0
  147.3807  141.2271  154.9112 C   0  0  2  0  0  0  0  0  0  0  0  0
  148.1278  140.9300  153.6029 C   0  0  0  0  0  0  0  0  0  0  0  0
  146.0675  141.9962  154.6661 C   0  0  2  0  0  0  0  0  0  0  0  0
  146.2051  143.2269  153.7656 C   0  0  0  0  0  0  0  0  0  0  0  0
  145.0301  144.0659  154.2101 C   0  0  0  0  0  0  0  0  0  0  0  0
  145.0328  143.8194  155.7149 C   0  0  0  0  0  0  0  0  0  0  0  0
  145.5434  142.5006  155.8935 O   0  0  0  0  0  0  0  0  0  0  0  0
  150.5333  145.6585  159.6058 H   0  0  0  0  0  0  0  0  0  0  0  0
  149.1607  144.6870  159.0756 H   0  0  0  0  0  0  0  0  0  0  0  0
  150.3638  145.2379  157.9015 H   0  0  0  0  0  0  0  0  0  0  0  0
  152.1826  144.4310  160.6696 H   0  0  0  0  0  0  0  0  0  0  0  0
  152.9351  139.2405  159.0524 H   0  0  0  0  0  0  0  0  0  0  0  0
  153.1466  139.6553  160.7455 H   0  0  0  0  0  0  0  0  0  0  0  0
  154.3211  140.2014  159.5443 H   0  0  0  0  0  0  0  0  0  0  0  0
  151.4121  140.3800  158.0247 H   0  0  0  0  0  0  0  0  0  0  0  0
  149.4334  143.4179  157.1473 H   0  0  0  0  0  0  0  0  0  0  0  0
  148.1618  143.0024  155.7477 H   0  0  0  0  0  0  0  0  0  0  0  0
  147.1283  140.2708  155.3725 H   0  0  0  0  0  0  0  0  0  0  0  0
  147.5187  140.3259  152.9299 H   0  0  0  0  0  0  0  0  0  0  0  0
  149.0487  140.3779  153.7940 H   0  0  0  0  0  0  0  0  0  0  0  0
  148.3921  141.8482  153.0775 H   0  0  0  0  0  0  0  0  0  0  0  0
  145.3168  141.3299  154.2376 H   0  0  0  0  0  0  0  0  0  0  0  0
  147.1379  143.7538  153.9728 H   0  0  0  0  0  0  0  0  0  0  0  0
  146.1788  142.9839  152.7030 H   0  0  0  0  0  0  0  0  0  0  0  0
  145.1293  145.1199  153.9490 H   0  0  0  0  0  0  0  0  0  0  0  0
  144.1085  143.6861  153.7668 H   0  0  0  0  0  0  0  0  0  0  0  0
  145.7042  144.5196  156.2132 H   0  0  0  0  0  0  0  0  0  0  0  0
  144.0423  143.9276  156.1567 H   0  0  0  0  0  0  0  0  0  0  0  0
  1  2  1  0  0  0  0
  1 21  1  0  0  0  0
  1 22  1  0  0  0  0
  1 23  1  0  0  0  0
  2  9  1  0  0  0  0
  2  3  2  0  0  0  0
  3  4  1  0  0  0  0
  3 24  1  0  0  0  0
  4  5  2  0  0  0  0
  4  6  1  0  0  0  0
  6  7  1  0  0  0  0
  6  8  1  0  0  0  0
  7 25  1  0  0  0  0
  7 26  1  0  0  0  0
  7 27  1  0  0  0  0
  8  9  2  0  0  0  0
  8 28  1  0  0  0  0
  9 10  1  0  0  0  0
 10 11  1  0  0  0  0
 10 29  1  0  0  0  0
 11 12  2  0  0  0  0
 11 13  1  0  0  0  0
 13 14  1  0  0  0  0
 13 30  1  0  0  0  0
 14 15  1  0  0  0  0
 14 16  1  0  0  0  0
 14 31  1  0  0  0  0
 15 32  1  0  0  0  0
 15 33  1  0  0  0  0
 15 34  1  0  0  0  0
 16 20  1  0  0  0  0
 16 17  1  0  0  0  0
 16 35  1  0  0  0  0
 17 18  1  0  0  0  0
 17 36  1  0  0  0  0
 17 37  1  0  0  0  0
 18 19  1  0  0  0  0
 18 38  1  0  0  0  0
 18 39  1  0  0  0  0
 19 20  1  0  0  0  0
 19 40  1  0  0  0  0
 19 41  1  0  0  0  0
M  END
> <s_m_source_file>
AV-unprocessed.smi

> <i_m_source_file_index>
2913

> <i_lp_mmshare_version>
43012

> <i_f3d_flags>
0

> <s_epik_input>
W0NIM11jMVtjSF1jKD1PKW4oW0NIM10pW2NIXWMxW05IXUMoPU8pW05IXVtDQEhdKFtDSDNdKVtDQEBIXTJbQ0gyXVtDSDJdW0NIMl1PMg==

> <s_epik_cmdline>
J2VwaWtfcHl0aG9uJywgJy1waCcsICc3LjAnLCAnLXRuJywgJzgnLCAnLW1hJywgJzIwMCcsICctbWV0YWxfYmluZGluZycsICctaW1hZScsICc8aW5maWxlLm1hZT4nLCAnLW9tYWUnLCAnPG91dGZpbGUubWFlPic=

> <r_lp_tautomer_probability>
1

> <r_epik_Ionization_Penalty>
2.72039e-05

> <r_epik_Ionization_Penalty_Charging>
8.03976e-06

> <r_epik_Ionization_Penalty_Neutral>
1.91642e-05

> <r_epik_State_Penalty>
-0

> <r_epik_Charging_Adjusted_Penalty>
8.03976e-06

> <i_epik_Tot_Q>
0

> <i_epik_Tot_abs_Q>
0

> <r_epik_Metal_State_Penalty>
-0

> <b_epik_Metal_Only>
0

> <s_lp_Force_Field>
OPLS_2005

> <r_lp_Energy>
32.2239

> <b_lp_Chiralities_Consistent>
1

> <s_lp_Variant>
AV-unprocessed.smi:2913-1

> <Gold.Version>
5.8.1

> <Gold.Id.Protein>
6NUR|6NUR_protein|mol2

> <Gold.PLP.Fitness>
41.6340

> <Gold.PLP.PLP>
-37.0383

> <Gold.PLP.part.hbond>
-2.0127

> <Gold.PLP.part.metal>
0.0000

> <Gold.PLP.part.buried>
-3.2985

> <Gold.PLP.part.nonpolar>
-31.0304

> <Gold.PLP.part.repulsive>
0.2335

> <Gold.PLP.ligand.clash>
0.0000

> <Gold.PLP.ligand.torsion>
0.5629

> <Gold.PLP.Chemscore.Hbond>
1.9040

> <Gold.PLP.Chemscore.CHOScore>
0.0000

> <Gold.PLP.Chemscore.Metal>
0.0000

> <Gold.Chemscore.Hbonds>
donor molecule, donor type, donor heavy atom, donor atom, acceptor molecule, acceptor atom, score
      L1  H    10    29       P1  8028  0.89
      L1  H    13    30       P1  8028  1.00

> <Gold.PLP.Chemscore.Internal.Correction>
0.0095

> <Gold.Rescore>
     Score         DG    S(hbond)    S(metal)    S(lipo)     H(rot)  DE(clash)    DE(int)     intcor
     16.75     -18.40       1.79        0.00      85.93       1.21       0.10       1.55       ----

> <Gold.Chemscore.Fitness>
16.7518

> <Gold.Chemscore.DG>
-18.3977

> <Gold.Chemscore.ZeroCoef>
-5.4800

> <Gold.Chemscore.Hbond>
1.7851

> <Gold.Chemscore.Metal>
0.0000

> <Gold.Chemscore.Lipo>
85.9261

> <Gold.Chemscore.Internal_Hbond>
0.0000

> <Gold.Chemscore.DEClash>
0.1009

> <Gold.Chemscore.DEInternal>
1.5450

> <Gold.Chemscore.Rot>
1.2101

> <Gold.Chemscore.Internal.Correction>
   9.000000E+99

> <Gold.Chemscore.Hbonds>
donor molecule, donor type, donor heavy atom, donor atom, acceptor molecule, acceptor atom, score
      L1  H    10    29       P1  8028  0.72
      L1  H    13    30       P1  8028  0.85

> <Gold.Chemscore.Hbond.Weighted>
-5.9623

> <Gold.Chemscore.Metal.Weighted>
-0.0000

> <Gold.Chemscore.Lipo.Weighted>
-10.0534

> <Gold.Chemscore.Internal_Hbond.Weighted>
0.0000

> <Gold.Chemscore.DEClash.Weighted>
0.1009

> <Gold.Chemscore.DEInternal.Weighted>
1.5450

> <Gold.Chemscore.Rot.Weighted>
3.0979

> <Gold.Chemscore.Internal.Correction.Weighted>
   9.000000E+99

> <Gold.Protein.RotatedTorsions>
[ 6907 6896 6895 6894 ] final -104.25 input  -60.11 | X-H torsion
[ 7974 7965 7964 7962 ] final   35.45 input  175.53 | X-H torsion
[ 8008 7997 7996 7995 ] final   63.55 input   59.86 | X-H torsion
[ 10167 10162 10161 10158 ] final   89.52 input  -65.29 | X-H torsion
[ 10718 10713 10712 10709 ] final  -84.30 input   66.30 | X-H torsion
[ 10763 10752 10751 10750 ] final  -94.32 input  -60.55 | X-H torsion
[ 11005 11000 10999 10996 ] final  -61.94 input  -57.11 | X-H torsion

> <Gold.Protein.ActiveResidues>
 VAL166  LYS551  ARG553  GLY616  TRP617  ASP618  TYR619  PRO620  LYS621  CYS622 
 ASP623  PHE694  ASN695  SER759  ASP760  ASP761  ALA762  ILE779  LEU786  VAL792 
 PHE793  MET794  SER795  GLU796  ALA797  LYS798  CYS799  TRP800  GLU811  SER814 

> <Gold.Protein.RotatedAtoms>
  150.7278  134.0306  159.3731 H   0  0  0  0  0  0  0  0  0  0  0  0  # atno 6907 bound_to 6896
  151.8275  135.0630  160.0442 H   0  0  0  0  0  0  0  0  0  0  0  0  # atno 6908 bound_to 6896
  152.2958  133.5570  159.5623 H   0  0  0  0  0  0  0  0  0  0  0  0  # atno 6909 bound_to 6896
  146.1282  139.6141  142.9244 H   0  0  0  0  0  0  0  0  0  0  0  0  # atno 7974 bound_to 7965
  155.6319  140.3496  155.4686 H   0  0  0  0  0  0  0  0  0  0  0  0  # atno 8008 bound_to 7997
  155.9996  140.1210  157.0584 H   0  0  0  0  0  0  0  0  0  0  0  0  # atno 8009 bound_to 7997
  154.4244  140.1103  156.5664 H   0  0  0  0  0  0  0  0  0  0  0  0  # atno 8010 bound_to 7997
  139.8564  144.6567  150.9109 H   0  0  0  0  0  0  0  0  0  0  0  0  # atno 10167 bound_to 10162
  156.0008  130.4693  150.4389 H   0  0  0  0  0  0  0  0  0  0  0  0  # atno 10718 bound_to 10713
  154.7044  135.5162  153.8573 H   0  0  0  0  0  0  0  0  0  0  0  0  # atno 10763 bound_to 10752
  153.0729  135.6607  154.0217 H   0  0  0  0  0  0  0  0  0  0  0  0  # atno 10764 bound_to 10752
  154.0070  135.3005  155.3376 H   0  0  0  0  0  0  0  0  0  0  0  0  # atno 10765 bound_to 10752
  141.1342  133.6635  156.5452 H   0  0  0  0  0  0  0  0  0  0  0  0  # atno 11005 bound_to 11000
  145.5318  141.0426  143.2378 LP  0  0  0  0  0  0  0  0  0  0  0  0  # atno 17320 bound_to 7965
  144.7664  139.6836  143.7213 LP  0  0  0  0  0  0  0  0  0  0  0  0  # atno 17321 bound_to 7965
  140.7781  143.3782  151.1524 LP  0  0  0  0  0  0  0  0  0  0  0  0  # atno 17342 bound_to 10162
  139.7416  143.8916  152.3051 LP  0  0  0  0  0  0  0  0  0  0  0  0  # atno 17343 bound_to 10162
  157.2431  131.0530  151.2424 LP  0  0  0  0  0  0  0  0  0  0  0  0  # atno 17370 bound_to 10713
  157.3601  130.7127  149.6496 LP  0  0  0  0  0  0  0  0  0  0  0  0  # atno 17371 bound_to 10713
  140.4107  134.7274  157.4834 LP  0  0  0  0  0  0  0  0  0  0  0  0  # atno 17394 bound_to 11000
  140.0429  134.6241  155.8958 LP  0  0  0  0  0  0  0  0  0  0  0  0  # atno 17395 bound_to 11000

$$$$
