AV-unprocessed.smi:1952|AV-procd|sdf|7886|dock1
  -GOLD-   2272010 33D 1   1.00000     0.00000
 Structure written by MMmdl.
 40 41  0  0  0  0  0  0  0  0  2 V2000
  151.5246  141.2153  157.2647 C   0  0  0  0  0  0  0  0  0  0  0  0
  150.9718  140.3387  156.1937 C   0  0  0  0  0  0  0  0  0  0  0  0
  150.7678  138.9900  156.1072 C   0  0  0  0  0  0  0  0  0  0  0  0
  150.2167  138.8327  154.8077 C   0  0  0  0  0  0  0  0  0  0  0  0
  149.8545  137.5514  154.3187 N   0  0  0  0  0  0  0  0  0  0  0  0
  149.9380  136.3771  154.9663 C   0  0  0  0  0  0  0  0  0  0  0  0
  150.3324  136.2319  156.1237 O   0  0  0  0  0  0  0  0  0  0  0  0
  149.5422  135.3590  154.1870 N   0  0  0  0  0  0  0  0  0  0  0  0
  149.4639  133.9517  154.5828 C   0  0  1  0  0  0  0  0  0  0  0  0
  148.6380  133.8450  155.8721 C   0  0  0  0  0  0  0  0  0  0  0  0
  148.8603  133.0760  153.4596 C   0  0  0  0  0  0  0  0  0  0  0  0
  147.7252  133.7250  152.7557 N   0  3  0  0  0  0  0  0  0  0  0  0
  147.2263  132.9480  151.5950 C   0  0  0  0  0  0  0  0  0  0  0  0
  146.1110  133.7252  150.8768 C   0  0  0  0  0  0  0  0  0  0  0  0
  145.0616  134.0060  151.7954 O   0  0  0  0  0  0  0  0  0  0  0  0
  145.5038  134.8156  152.8781 C   0  0  0  0  0  0  0  0  0  0  0  0
  146.6060  134.0794  153.6595 C   0  0  0  0  0  0  0  0  0  0  0  0
  150.0898  139.9816  154.1615 N   0  0  0  0  0  0  0  0  0  0  0  0
  150.5746  140.9524  155.0459 O   0  0  0  0  0  0  0  0  0  0  0  0
  151.6025  140.6758  158.2088 H   0  0  0  0  0  0  0  0  0  0  0  0
  150.8849  142.0835  157.4245 H   0  0  0  0  0  0  0  0  0  0  0  0
  152.5190  141.5720  156.9957 H   0  0  0  0  0  0  0  0  0  0  0  0
  150.9825  138.2405  156.8544 H   0  0  0  0  0  0  0  0  0  0  0  0
  149.4956  137.5284  153.3755 H   0  0  0  0  0  0  0  0  0  0  0  0
  149.2373  135.5774  153.2494 H   0  0  0  0  0  0  0  0  0  0  0  0
  150.4665  133.5941  154.8217 H   0  0  0  0  0  0  0  0  0  0  0  0
  148.5914  132.8140  156.2241 H   0  0  0  0  0  0  0  0  0  0  0  0
  147.6148  134.1906  155.7202 H   0  0  0  0  0  0  0  0  0  0  0  0
  149.0765  134.4438  156.6712 H   0  0  0  0  0  0  0  0  0  0  0  0
  149.6258  132.7984  152.7334 H   0  0  0  0  0  0  0  0  0  0  0  0
  148.5168  132.1418  153.9070 H   0  0  0  0  0  0  0  0  0  0  0  0
  148.0356  132.7467  150.8940 H   0  0  0  0  0  0  0  0  0  0  0  0
  146.8492  131.9815  151.9334 H   0  0  0  0  0  0  0  0  0  0  0  0
  146.4953  134.6520  150.4476 H   0  0  0  0  0  0  0  0  0  0  0  0
  145.7111  133.1340  150.0527 H   0  0  0  0  0  0  0  0  0  0  0  0
  145.8657  135.7752  152.5052 H   0  0  0  0  0  0  0  0  0  0  0  0
  144.6563  135.0265  153.5307 H   0  0  0  0  0  0  0  0  0  0  0  0
  146.2034  133.1743  154.1170 H   0  0  0  0  0  0  0  0  0  0  0  0
  146.9677  134.7160  154.4678 H   0  0  0  0  0  0  0  0  0  0  0  0
  148.0793  134.5983  152.3907 H   0  0  0  0  0  0  0  0  0  0  0  0
  1  2  1  0  0  0  0
  1 20  1  0  0  0  0
  1 21  1  0  0  0  0
  1 22  1  0  0  0  0
  2 19  1  0  0  0  0
  2  3  2  0  0  0  0
  3  4  1  0  0  0  0
  3 23  1  0  0  0  0
  4  5  1  0  0  0  0
  4 18  2  0  0  0  0
  5  6  1  0  0  0  0
  5 24  1  0  0  0  0
  6  7  2  0  0  0  0
  6  8  1  0  0  0  0
  8  9  1  0  0  0  0
  8 25  1  0  0  0  0
  9 10  1  0  0  0  0
  9 11  1  0  0  0  0
  9 26  1  0  0  0  0
 10 27  1  0  0  0  0
 10 28  1  0  0  0  0
 10 29  1  0  0  0  0
 11 12  1  0  0  0  0
 11 30  1  0  0  0  0
 11 31  1  0  0  0  0
 12 17  1  0  0  0  0
 12 13  1  0  0  0  0
 12 40  1  0  0  0  0
 13 14  1  0  0  0  0
 13 32  1  0  0  0  0
 13 33  1  0  0  0  0
 14 15  1  0  0  0  0
 14 34  1  0  0  0  0
 14 35  1  0  0  0  0
 15 16  1  0  0  0  0
 16 17  1  0  0  0  0
 16 36  1  0  0  0  0
 16 37  1  0  0  0  0
 17 38  1  0  0  0  0
 17 39  1  0  0  0  0
 18 19  1  0  0  0  0
M  CHG  1  12   1
M  END
> <s_m_source_file>
AV-unprocessed.smi

> <i_m_source_file_index>
1952

> <i_lp_mmshare_version>
43012

> <i_f3d_flags>
0

> <s_epik_input>
W0NIM11jMVtjSF1jKG5vMSlbTkhdQyg9TylbTkhdW0NASF0oW0NIM10pW0NIMl1OMltDSDJdW0NIMl1PW0NIMl1bQ0gyXTI=

> <s_epik_cmdline>
J2VwaWtfcHl0aG9uJywgJy1waCcsICc3LjAnLCAnLXRuJywgJzgnLCAnLW1hJywgJzIwMCcsICctbWV0YWxfYmluZGluZycsICctaW1hZScsICc8aW5maWxlLm1hZT4nLCAnLW9tYWUnLCAnPG91dGZpbGUubWFlPic=

> <r_epik_Ionization_Penalty>
0.707079

> <r_epik_Ionization_Penalty_Charging>
0.707039

> <r_epik_Ionization_Penalty_Neutral>
4.01892e-05

> <r_epik_State_Penalty>
0.730276

> <r_epik_Charging_Adjusted_Penalty>
1.43732

> <i_epik_Tot_Q>
1

> <i_epik_Tot_abs_Q>
1

> <r_epik_Metal_State_Penalty>
0.744847

> <b_epik_Metal_Only>
0

> <s_lp_Force_Field>
OPLS_2005

> <r_lp_Energy>
19.2195

> <b_lp_Chiralities_Consistent>
1

> <s_lp_Variant>
AV-unprocessed.smi:1952-4

> <Gold.Version>
5.8.1

> <Gold.Id.Protein>
6NUR|6NUR_protein|mol2

> <Gold.PLP.Fitness>
36.4627

> <Gold.PLP.PLP>
-25.1630

> <Gold.PLP.part.hbond>
-5.1964

> <Gold.PLP.part.metal>
0.0000

> <Gold.PLP.part.buried>
-1.1155

> <Gold.PLP.part.nonpolar>
-19.0372

> <Gold.PLP.part.repulsive>
1.0473

> <Gold.PLP.ligand.clash>
0.0000

> <Gold.PLP.ligand.torsion>
0.2453

> <Gold.PLP.Chemscore.Hbond>
3.9120

> <Gold.PLP.Chemscore.CHOScore>
0.0000

> <Gold.PLP.Chemscore.Metal>
0.0000

> <Gold.Chemscore.Hbonds>
donor molecule, donor type, donor heavy atom, donor atom, acceptor molecule, acceptor atom, score
      L1  H     5    24       P1  7948  0.84
      L1  H     8    25       P1  7948  0.99
      L1  H    12    40       P1  7948  2.00

> <Gold.PLP.Chemscore.Internal.Correction>
0.0544

> <Gold.Rescore>
     Score         DG    S(hbond)    S(metal)    S(lipo)     H(rot)  DE(clash)    DE(int)     intcor
     11.10     -14.63       2.38        0.00      45.52       1.61       0.12       3.42       ----

> <Gold.Chemscore.Fitness>
11.0961

> <Gold.Chemscore.DG>
-14.6319

> <Gold.Chemscore.ZeroCoef>
-5.4800

> <Gold.Chemscore.Hbond>
2.3780

> <Gold.Chemscore.Metal>
0.0000

> <Gold.Chemscore.Lipo>
45.5159

> <Gold.Chemscore.Internal_Hbond>
0.0000

> <Gold.Chemscore.DEClash>
0.1171

> <Gold.Chemscore.DEInternal>
3.4187

> <Gold.Chemscore.Rot>
1.6078

> <Gold.Chemscore.Internal.Correction>
   9.000000E+99

> <Gold.Chemscore.Hbonds>
donor molecule, donor type, donor heavy atom, donor atom, acceptor molecule, acceptor atom, score
      L1  H     5    24       P1  7948  0.71
      L1  H     8    25       P1  7948  0.32
      L1  H    12    40       P1  7948  0.40

> <Gold.Chemscore.Hbond.Weighted>
-7.9424

> <Gold.Chemscore.Metal.Weighted>
-0.0000

> <Gold.Chemscore.Lipo.Weighted>
-5.3254

> <Gold.Chemscore.Internal_Hbond.Weighted>
0.0000

> <Gold.Chemscore.DEClash.Weighted>
0.1171

> <Gold.Chemscore.DEInternal.Weighted>
3.4187

> <Gold.Chemscore.Rot.Weighted>
4.1158

> <Gold.Chemscore.Internal.Correction.Weighted>
   9.000000E+99

> <Gold.Protein.RotatedTorsions>
[ 6907 6896 6895 6894 ] final  -16.56 input  -60.11 | X-H torsion
[ 7974 7965 7964 7962 ] final -164.09 input  175.53 | X-H torsion
[ 8008 7997 7996 7995 ] final -119.29 input   59.86 | X-H torsion
[ 10167 10162 10161 10158 ] final -103.54 input  -65.29 | X-H torsion
[ 10718 10713 10712 10709 ] final  149.00 input   66.30 | X-H torsion
[ 10763 10752 10751 10750 ] final  123.22 input  -60.55 | X-H torsion
[ 11005 11000 10999 10996 ] final   26.38 input  -57.11 | X-H torsion

> <Gold.Protein.ActiveResidues>
 VAL166  LYS551  ARG553  GLY616  TRP617  ASP618  TYR619  PRO620  LYS621  CYS622 
 ASP623  PHE694  ASN695  SER759  ASP760  ASP761  ALA762  ILE779  LEU786  VAL792 
 PHE793  MET794  SER795  GLU796  ALA797  LYS798  CYS799  TRP800  GLU811  SER814 

> <Gold.Protein.RotatedAtoms>
  151.3067  135.0783  159.9257 H   0  0  0  0  0  0  0  0  0  0  0  0  # atno 6907 bound_to 6896
  152.5286  133.9778  159.7802 H   0  0  0  0  0  0  0  0  0  0  0  0  # atno 6908 bound_to 6896
  151.0074  133.5946  159.2717 H   0  0  0  0  0  0  0  0  0  0  0  0  # atno 6909 bound_to 6896
  144.7307  140.3012  143.6204 H   0  0  0  0  0  0  0  0  0  0  0  0  # atno 7974 bound_to 7965
  155.1134  140.0397  157.2730 H   0  0  0  0  0  0  0  0  0  0  0  0  # atno 8008 bound_to 7997
  154.6668  140.2603  155.7024 H   0  0  0  0  0  0  0  0  0  0  0  0  # atno 8009 bound_to 7997
  156.2642  140.2806  156.1162 H   0  0  0  0  0  0  0  0  0  0  0  0  # atno 8010 bound_to 7997
  140.2189  143.3691  152.0987 H   0  0  0  0  0  0  0  0  0  0  0  0  # atno 10167 bound_to 10162
  157.3016  131.0872  151.1386 H   0  0  0  0  0  0  0  0  0  0  0  0  # atno 10718 bound_to 10713
  153.6422  135.3377  155.3075 H   0  0  0  0  0  0  0  0  0  0  0  0  # atno 10763 bound_to 10752
  154.8557  135.4321  154.1993 H   0  0  0  0  0  0  0  0  0  0  0  0  # atno 10764 bound_to 10752
  153.2915  135.7017  153.7363 H   0  0  0  0  0  0  0  0  0  0  0  0  # atno 10765 bound_to 10752
  140.3377  134.2368  155.7694 H   0  0  0  0  0  0  0  0  0  0  0  0  # atno 11005 bound_to 11000
  145.7758  139.1873  143.2186 LP  0  0  0  0  0  0  0  0  0  0  0  0  # atno 17320 bound_to 7965
  146.0874  140.7695  142.9612 LP  0  0  0  0  0  0  0  0  0  0  0  0  # atno 17321 bound_to 7965
  139.5151  144.6959  151.5633 LP  0  0  0  0  0  0  0  0  0  0  0  0  # atno 17342 bound_to 10162
  140.6269  143.9150  150.6572 LP  0  0  0  0  0  0  0  0  0  0  0  0  # atno 17343 bound_to 10162
  157.2743  130.6719  149.6034 LP  0  0  0  0  0  0  0  0  0  0  0  0  # atno 17370 bound_to 10713
  155.9672  130.4469  150.5561 LP  0  0  0  0  0  0  0  0  0  0  0  0  # atno 17371 bound_to 10713
  141.2047  133.7880  157.0273 LP  0  0  0  0  0  0  0  0  0  0  0  0  # atno 17394 bound_to 11000
  140.0807  134.9649  157.1620 LP  0  0  0  0  0  0  0  0  0  0  0  0  # atno 17395 bound_to 11000

$$$$
