AV-unprocessed.smi:1066|AV-procd|sdf|4668|dock4
  -GOLD-   22720 3183D 1   1.00000     0.00000
 Structure written by MMmdl.
 38 40  0  0  0  0  0  0  0  0  2 V2000
  149.4618  133.2319  153.7783 C   0  0  0  0  0  0  0  0  0  0  0  0
  149.5698  133.7296  155.1911 C   0  0  0  0  0  0  0  0  0  0  0  0
  150.2118  132.9996  156.0937 N   0  0  0  0  0  0  0  0  0  0  0  0
  150.1445  133.7110  157.2970 O   0  0  0  0  0  0  0  0  0  0  0  0
  149.4569  134.8485  157.0463 C   0  0  0  0  0  0  0  0  0  0  0  0
  149.1304  136.0142  158.2676 Cl  0  0  0  0  0  0  0  0  0  0  0  0
  149.0573  134.9397  155.7439 C   0  0  0  0  0  0  0  0  0  0  0  0
  148.2736  136.0259  155.0519 C   0  0  0  0  0  0  0  0  0  0  0  0
  146.9582  135.4543  154.5233 C   0  0  0  0  0  0  0  0  0  0  0  0
  146.1058  135.0389  155.3074 O   0  0  0  0  0  0  0  0  0  0  0  0
  146.8033  135.4439  153.1907 N   0  0  0  0  0  0  0  0  0  0  0  0
  145.6129  134.9737  152.4937 C   0  0  2  0  0  0  0  0  0  0  0  0
  144.3104  135.6149  152.9606 C   0  0  0  0  0  0  0  0  0  0  0  0
  143.2541  134.6038  152.4975 C   0  0  0  0  0  0  0  0  0  0  0  0
  143.9228  133.2792  152.4394 N   0  3  1  0  0  0  0  0  0  0  0  0
  143.6999  132.5611  151.1654 C   0  0  0  0  0  0  0  0  0  0  0  0
  144.7116  131.4720  150.8999 C   0  0  0  0  0  0  0  0  0  0  0  0
  144.7936  132.7830  150.1482 C   0  0  0  0  0  0  0  0  0  0  0  0
  145.3528  133.4912  152.7528 C   0  0  0  0  0  0  0  0  0  0  0  0
  148.4910  133.4794  153.3484 H   0  0  0  0  0  0  0  0  0  0  0  0
  149.5786  132.1491  153.7227 H   0  0  0  0  0  0  0  0  0  0  0  0
  150.2284  133.6823  153.1480 H   0  0  0  0  0  0  0  0  0  0  0  0
  148.0579  136.8568  155.7245 H   0  0  0  0  0  0  0  0  0  0  0  0
  148.8374  136.4509  154.2205 H   0  0  0  0  0  0  0  0  0  0  0  0
  147.5578  135.8042  152.6238 H   0  0  0  0  0  0  0  0  0  0  0  0
  145.7287  135.1267  151.4184 H   0  0  0  0  0  0  0  0  0  0  0  0
  144.2963  135.6963  154.0488 H   0  0  0  0  0  0  0  0  0  0  0  0
  144.1527  136.6110  152.5456 H   0  0  0  0  0  0  0  0  0  0  0  0
  142.3944  134.5776  153.1675 H   0  0  0  0  0  0  0  0  0  0  0  0
  142.8889  134.8863  151.5087 H   0  0  0  0  0  0  0  0  0  0  0  0
  142.6651  132.4472  150.8468 H   0  0  0  0  0  0  0  0  0  0  0  0
  145.4714  131.2777  151.6548 H   0  0  0  0  0  0  0  0  0  0  0  0
  144.3746  130.5991  150.3445 H   0  0  0  0  0  0  0  0  0  0  0  0
  144.5127  132.7719  149.0970 H   0  0  0  0  0  0  0  0  0  0  0  0
  145.6053  133.4612  150.4054 H   0  0  0  0  0  0  0  0  0  0  0  0
  146.0155  132.8441  152.1757 H   0  0  0  0  0  0  0  0  0  0  0  0
  145.5027  133.2574  153.8080 H   0  0  0  0  0  0  0  0  0  0  0  0
  143.5389  132.7041  153.1756 H   0  0  0  0  0  0  0  0  0  0  0  0
  1  2  1  0  0  0  0
  1 20  1  0  0  0  0
  1 21  1  0  0  0  0
  1 22  1  0  0  0  0
  2  7  1  0  0  0  0
  2  3  2  0  0  0  0
  3  4  1  0  0  0  0
  4  5  1  0  0  0  0
  5  6  1  0  0  0  0
  5  7  2  0  0  0  0
  7  8  1  0  0  0  0
  8  9  1  0  0  0  0
  8 23  1  0  0  0  0
  8 24  1  0  0  0  0
  9 10  2  0  0  0  0
  9 11  1  0  0  0  0
 11 12  1  0  0  0  0
 11 25  1  0  0  0  0
 12 19  1  0  0  0  0
 12 13  1  0  0  0  0
 12 26  1  0  0  0  0
 13 14  1  0  0  0  0
 13 27  1  0  0  0  0
 13 28  1  0  0  0  0
 14 15  1  0  0  0  0
 14 29  1  0  0  0  0
 14 30  1  0  0  0  0
 15 16  1  0  0  0  0
 15 19  1  0  0  0  0
 15 38  1  0  0  0  0
 16 18  1  0  0  0  0
 16 17  1  0  0  0  0
 16 31  1  0  0  0  0
 17 18  1  0  0  0  0
 17 32  1  0  0  0  0
 17 33  1  0  0  0  0
 18 34  1  0  0  0  0
 18 35  1  0  0  0  0
 19 36  1  0  0  0  0
 19 37  1  0  0  0  0
M  CHG  1  15   1
M  END
> <s_m_source_file>
AV-unprocessed.smi

> <i_m_source_file_index>
1066

> <i_lp_mmshare_version>
43012

> <i_f3d_flags>
0

> <s_epik_input>
W0NIM11jMW5vYyhDbCljMVtDSDJdQyg9TylbTkhdW0NAQEhdMltDSDJdW0NIMl1OKFtDSDJdMilbQ0hdM1tDSDJdW0NIMl0z

> <s_epik_cmdline>
J2VwaWtfcHl0aG9uJywgJy1waCcsICc3LjAnLCAnLXRuJywgJzgnLCAnLW1hJywgJzIwMCcsICctbWV0YWxfYmluZGluZycsICctaW1hZScsICc8aW5maWxlLm1hZT4nLCAnLW9tYWUnLCAnPG91dGZpbGUubWFlPic=

> <r_epik_Ionization_Penalty>
0.00108138

> <r_epik_Ionization_Penalty_Charging>
0.00108128

> <r_epik_Ionization_Penalty_Neutral>
9.66632e-08

> <r_epik_State_Penalty>
0.000708577

> <r_epik_Charging_Adjusted_Penalty>
0.00178986

> <i_epik_Tot_Q>
1

> <i_epik_Tot_abs_Q>
1

> <r_epik_Metal_State_Penalty>
-0

> <b_epik_Metal_Only>
0

> <s_lp_Force_Field>
OPLS_2005

> <r_lp_Energy>
31.6954

> <b_lp_Chiralities_Consistent>
1

> <s_lp_Variant>
AV-unprocessed.smi:1066-1

> <Gold.Version>
5.8.1

> <Gold.Id.Protein>
6NUR|6NUR_protein|mol2

> <Gold.PLP.Fitness>
38.4287

> <Gold.PLP.PLP>
-26.5536

> <Gold.PLP.part.hbond>
-2.9725

> <Gold.PLP.part.metal>
0.0000

> <Gold.PLP.part.buried>
-5.4576

> <Gold.PLP.part.nonpolar>
-18.7526

> <Gold.PLP.part.repulsive>
0.0246

> <Gold.PLP.ligand.clash>
0.0000

> <Gold.PLP.ligand.torsion>
0.6867

> <Gold.PLP.Chemscore.Hbond>
3.9920

> <Gold.PLP.Chemscore.CHOScore>
0.0000

> <Gold.PLP.Chemscore.Metal>
0.0000

> <Gold.Chemscore.Hbonds>
donor molecule, donor type, donor heavy atom, donor atom, acceptor molecule, acceptor atom, score
      L1  H    11    25       P1  7948  1.00
      L1  H    15    38       P1 10957  1.95
      P1  H  6896  6907       L1     4  0.90

> <Gold.PLP.Chemscore.Internal.Correction>
1.2725

> <Gold.Rescore>
     Score         DG    S(hbond)    S(metal)    S(lipo)     H(rot)  DE(clash)    DE(int)     intcor
     16.34     -18.13       2.87        0.00      60.56       1.57       0.02       1.77       ----

> <Gold.Chemscore.Fitness>
16.3410

> <Gold.Chemscore.DG>
-18.1306

> <Gold.Chemscore.ZeroCoef>
-5.4800

> <Gold.Chemscore.Hbond>
2.8706

> <Gold.Chemscore.Metal>
0.0000

> <Gold.Chemscore.Lipo>
60.5555

> <Gold.Chemscore.Internal_Hbond>
0.0000

> <Gold.Chemscore.DEClash>
0.0215

> <Gold.Chemscore.DEInternal>
1.7682

> <Gold.Chemscore.Rot>
1.5711

> <Gold.Chemscore.Internal.Correction>
   9.000000E+99

> <Gold.Chemscore.Hbonds>
donor molecule, donor type, donor heavy atom, donor atom, acceptor molecule, acceptor atom, score
      L1  H    11    25       P1  7948  1.00
      L1  H    15    38       P1 10957  0.32
      P1  H  6896  6907       L1     4  0.50

> <Gold.Chemscore.Hbond.Weighted>
-9.5877

> <Gold.Chemscore.Metal.Weighted>
-0.0000

> <Gold.Chemscore.Lipo.Weighted>
-7.0850

> <Gold.Chemscore.Internal_Hbond.Weighted>
0.0000

> <Gold.Chemscore.DEClash.Weighted>
0.0215

> <Gold.Chemscore.DEInternal.Weighted>
1.7682

> <Gold.Chemscore.Rot.Weighted>
4.0221

> <Gold.Chemscore.Internal.Correction.Weighted>
   9.000000E+99

> <Gold.Protein.RotatedTorsions>
[ 6907 6896 6895 6894 ] final -119.37 input  -60.11 | X-H torsion
[ 7974 7965 7964 7962 ] final    6.71 input  175.53 | X-H torsion
[ 8008 7997 7996 7995 ] final -105.70 input   59.86 | X-H torsion
[ 10167 10162 10161 10158 ] final   67.38 input  -65.29 | X-H torsion
[ 10718 10713 10712 10709 ] final  173.27 input   66.30 | X-H torsion
[ 10763 10752 10751 10750 ] final  -14.11 input  -60.55 | X-H torsion
[ 11005 11000 10999 10996 ] final   69.88 input  -57.11 | X-H torsion

> <Gold.Protein.ActiveResidues>
 VAL166  LYS551  ARG553  GLY616  TRP617  ASP618  TYR619  PRO620  LYS621  CYS622 
 ASP623  PHE694  ASN695  SER759  ASP760  ASP761  ALA762  ILE779  LEU786  VAL792 
 PHE793  MET794  SER795  GLU796  ALA797  LYS798  CYS799  TRP800  GLU811  SER814 

> <Gold.Protein.RotatedAtoms>
  150.8299  133.8108  159.3102 H   0  0  0  0  0  0  0  0  0  0  0  0  # atno 6907 bound_to 6896
  151.5841  135.1055  160.0033 H   0  0  0  0  0  0  0  0  0  0  0  0  # atno 6908 bound_to 6896
  152.4380  133.7354  159.6667 H   0  0  0  0  0  0  0  0  0  0  0  0  # atno 6909 bound_to 6896
  146.2433  140.0193  142.8399 H   0  0  0  0  0  0  0  0  0  0  0  0  # atno 7974 bound_to 7965
  154.9037  140.0412  157.1907 H   0  0  0  0  0  0  0  0  0  0  0  0  # atno 8008 bound_to 7997
  154.8418  140.2915  155.5633 H   0  0  0  0  0  0  0  0  0  0  0  0  # atno 8009 bound_to 7997
  156.2992  140.2481  156.3362 H   0  0  0  0  0  0  0  0  0  0  0  0  # atno 8010 bound_to 7997
  140.0902  144.4994  150.7104 H   0  0  0  0  0  0  0  0  0  0  0  0  # atno 10167 bound_to 10162
  156.9668  131.0077  151.2914 H   0  0  0  0  0  0  0  0  0  0  0  0  # atno 10718 bound_to 10713
  153.5233  135.7015  153.5720 H   0  0  0  0  0  0  0  0  0  0  0  0  # atno 10763 bound_to 10752
  153.3760  135.3932  155.1822 H   0  0  0  0  0  0  0  0  0  0  0  0  # atno 10764 bound_to 10752
  154.8692  135.3823  154.4724 H   0  0  0  0  0  0  0  0  0  0  0  0  # atno 10765 bound_to 10752
  139.9628  134.7031  156.0608 H   0  0  0  0  0  0  0  0  0  0  0  0  # atno 11005 bound_to 11000
  145.1256  140.9488  143.4575 LP  0  0  0  0  0  0  0  0  0  0  0  0  # atno 17320 bound_to 7965
  145.0438  139.3238  143.5963 LP  0  0  0  0  0  0  0  0  0  0  0  0  # atno 17321 bound_to 7965
  140.7032  143.2449  151.4802 LP  0  0  0  0  0  0  0  0  0  0  0  0  # atno 17342 bound_to 10162
  139.5729  144.1886  152.1862 LP  0  0  0  0  0  0  0  0  0  0  0  0  # atno 17343 bound_to 10162
  157.5620  130.8252  149.8278 LP  0  0  0  0  0  0  0  0  0  0  0  0  # atno 17370 bound_to 10713
  156.0299  130.3768  150.1717 LP  0  0  0  0  0  0  0  0  0  0  0  0  # atno 17371 bound_to 10713
  141.1307  133.6587  156.3456 LP  0  0  0  0  0  0  0  0  0  0  0  0  # atno 17394 bound_to 11000
  140.5461  134.6073  157.5394 LP  0  0  0  0  0  0  0  0  0  0  0  0  # atno 17395 bound_to 11000

$$$$
