AV-unprocessed.smi:1527|AV-procd|sdf|6149|dock9
  -GOLD-   22720 6293D 1   1.00000     0.00000
 Structure written by MMmdl.
 31 31  0  0  0  0  0  0  0  0  1 V2000
  150.9547  144.9952  159.7954 C   0  0  0  0  0  0  0  0  0  0  0  0
  152.2540  144.2200  160.0601 C   0  0  0  0  0  0  0  0  0  0  0  0
  152.1554  142.7203  159.7243 C   0  0  2  0  0  0  0  0  0  0  0  0
  153.4520  141.9712  160.0666 C   0  0  0  0  0  0  0  0  0  0  0  0
  151.8396  142.5418  158.3090 N   0  0  0  0  0  0  0  0  0  0  0  0
  150.8275  141.8092  157.8198 C   0  0  0  0  0  0  0  0  0  0  0  0
  150.0559  141.1602  158.5272 O   0  0  0  0  0  0  0  0  0  0  0  0
  150.6816  141.7961  156.2917 C   0  0  0  0  0  0  0  0  0  0  0  0
  150.7896  140.4466  155.7199 N   0  0  0  0  0  0  0  0  0  0  0  0
  149.7651  140.1158  154.8460 N   0  0  0  0  0  0  0  0  0  0  0  0
  149.7568  138.9611  154.2708 C   0  0  0  0  0  0  0  0  0  0  0  0
  148.7258  138.6768  153.4095 O   0  0  0  0  0  0  0  0  0  0  0  0
  150.7997  137.9911  154.5225 C   0  0  0  0  0  0  0  0  0  0  0  0
  151.7917  138.3212  155.3782 C   0  0  0  0  0  0  0  0  0  0  0  0
  151.8332  139.6231  156.0464 C   0  0  0  0  0  0  0  0  0  0  0  0
  152.7241  139.9506  156.8304 O   0  0  0  0  0  0  0  0  0  0  0  0
  149.0360  137.9618  152.8752 H   0  0  0  0  0  0  0  0  0  0  0  0
  151.0611  146.0398  160.0883 H   0  0  0  0  0  0  0  0  0  0  0  0
  150.1238  144.5743  160.3622 H   0  0  0  0  0  0  0  0  0  0  0  0
  150.6825  144.9764  158.7398 H   0  0  0  0  0  0  0  0  0  0  0  0
  153.0672  144.6745  159.4927 H   0  0  0  0  0  0  0  0  0  0  0  0
  152.5184  144.3343  161.1120 H   0  0  0  0  0  0  0  0  0  0  0  0
  151.3535  142.2998  160.3341 H   0  0  0  0  0  0  0  0  0  0  0  0
  153.6972  142.0754  161.1239 H   0  0  0  0  0  0  0  0  0  0  0  0
  154.2959  142.3519  159.4902 H   0  0  0  0  0  0  0  0  0  0  0  0
  153.3578  140.9053  159.8560 H   0  0  0  0  0  0  0  0  0  0  0  0
  152.4250  143.0342  157.6497 H   0  0  0  0  0  0  0  0  0  0  0  0
  149.7292  142.2455  156.0030 H   0  0  0  0  0  0  0  0  0  0  0  0
  151.4512  142.4480  155.8750 H   0  0  0  0  0  0  0  0  0  0  0  0
  150.7771  137.0284  154.0334 H   0  0  0  0  0  0  0  0  0  0  0  0
  152.5770  137.6066  155.5758 H   0  0  0  0  0  0  0  0  0  0  0  0
  1  2  1  0  0  0  0
  1 18  1  0  0  0  0
  1 19  1  0  0  0  0
  1 20  1  0  0  0  0
  2  3  1  0  0  0  0
  2 21  1  0  0  0  0
  2 22  1  0  0  0  0
  3  4  1  0  0  0  0
  3  5  1  0  0  0  0
  3 23  1  0  0  0  0
  4 24  1  0  0  0  0
  4 25  1  0  0  0  0
  4 26  1  0  0  0  0
  5  6  1  0  0  0  0
  5 27  1  0  0  0  0
  6  7  2  0  0  0  0
  6  8  1  0  0  0  0
  8 28  1  0  0  0  0
  8 29  1  0  0  0  0
  8  9  1  0  0  0  0
  9 10  1  0  0  0  0
  9 15  1  0  0  0  0
 10 11  2  0  0  0  0
 11 12  1  0  0  0  0
 11 13  1  0  0  0  0
 12 17  1  0  0  0  0
 13 30  1  0  0  0  0
 13 14  2  0  0  0  0
 14 31  1  0  0  0  0
 14 15  1  0  0  0  0
 15 16  2  0  0  0  0
M  END
> <s_m_source_file>
AV-unprocessed.smi

> <i_m_source_file_index>
1527

> <i_lp_mmshare_version>
43012

> <i_f3d_flags>
0

> <s_epik_input>
W0NIM11bQ0gyXVtDQEhdKFtDSDNdKVtOSF1DKD1PKVtDSDJdbjFbbkhdYyg9TylbY0hdW2NIXWMxPU8=

> <s_epik_cmdline>
J2VwaWtfcHl0aG9uJywgJy1waCcsICc3LjAnLCAnLXRuJywgJzgnLCAnLW1hJywgJzIwMCcsICctbWV0YWxfYmluZGluZycsICctaW1hZScsICc8aW5maWxlLm1hZT4nLCAnLW9tYWUnLCAnPG91dGZpbGUubWFlPic=

> <r_lp_tautomer_probability>
0.9996

> <r_epik_Ionization_Penalty>
2.12171

> <r_epik_Ionization_Penalty_Charging>
3.79077e-08

> <r_epik_Ionization_Penalty_Neutral>
2.12171

> <r_epik_State_Penalty>
1.69857

> <r_epik_Charging_Adjusted_Penalty>
1.69857

> <i_epik_Tot_Q>
0

> <i_epik_Tot_abs_Q>
0

> <r_epik_Metal_State_Penalty>
1.69857

> <b_epik_Metal_Only>
0

> <s_lp_Force_Field>
OPLS_2005

> <r_lp_Energy>
14.661

> <b_lp_Chiralities_Consistent>
1

> <s_lp_Variant>
AV-unprocessed.smi:1527-3

> <Gold.Version>
5.8.1

> <Gold.Id.Protein>
6NUR|6NUR_protein|mol2

> <Gold.PLP.Fitness>
43.9129

> <Gold.PLP.PLP>
-38.2345

> <Gold.PLP.part.hbond>
-3.6867

> <Gold.PLP.part.metal>
0.0000

> <Gold.PLP.part.buried>
-2.9986

> <Gold.PLP.part.nonpolar>
-30.7955

> <Gold.PLP.part.repulsive>
0.1629

> <Gold.PLP.ligand.clash>
0.0000

> <Gold.PLP.ligand.torsion>
0.1677

> <Gold.PLP.Chemscore.Hbond>
2.0000

> <Gold.PLP.Chemscore.CHOScore>
0.0000

> <Gold.PLP.Chemscore.Metal>
0.0000

> <Gold.Chemscore.Hbonds>
donor molecule, donor type, donor heavy atom, donor atom, acceptor molecule, acceptor atom, score
      L1  H    12    17       P1  7948  1.00
      P1  H  7997  8010       L1    16  1.00

> <Gold.PLP.Chemscore.Internal.Correction>
0.0138

> <Gold.Rescore>
     Score         DG    S(hbond)    S(metal)    S(lipo)     H(rot)  DE(clash)    DE(int)     intcor
     12.13     -13.48       1.99        0.00      68.03       2.58       0.03       1.33       ----

> <Gold.Chemscore.Fitness>
12.1275

> <Gold.Chemscore.DG>
-13.4849

> <Gold.Chemscore.ZeroCoef>
-5.4800

> <Gold.Chemscore.Hbond>
1.9917

> <Gold.Chemscore.Metal>
0.0000

> <Gold.Chemscore.Lipo>
68.0251

> <Gold.Chemscore.Internal_Hbond>
0.0000

> <Gold.Chemscore.DEClash>
0.0258

> <Gold.Chemscore.DEInternal>
1.3316

> <Gold.Chemscore.Rot>
2.5806

> <Gold.Chemscore.Internal.Correction>
   9.000000E+99

> <Gold.Chemscore.Hbonds>
donor molecule, donor type, donor heavy atom, donor atom, acceptor molecule, acceptor atom, score
      L1  H    12    17       P1  7948  0.97
      P1  H  7997  8010       L1    16  0.96

> <Gold.Chemscore.Hbond.Weighted>
-6.6522

> <Gold.Chemscore.Metal.Weighted>
-0.0000

> <Gold.Chemscore.Lipo.Weighted>
-7.9589

> <Gold.Chemscore.Internal_Hbond.Weighted>
0.0000

> <Gold.Chemscore.DEClash.Weighted>
0.0258

> <Gold.Chemscore.DEInternal.Weighted>
1.3316

> <Gold.Chemscore.Rot.Weighted>
6.6063

> <Gold.Chemscore.Internal.Correction.Weighted>
   9.000000E+99

> <Gold.Protein.RotatedTorsions>
[ 6907 6896 6895 6894 ] final -112.36 input  -60.11 | X-H torsion
[ 7974 7965 7964 7962 ] final  -92.22 input  175.53 | X-H torsion
[ 8008 7997 7996 7995 ] final   78.44 input   59.86 | X-H torsion
[ 10167 10162 10161 10158 ] final -105.93 input  -65.29 | X-H torsion
[ 10718 10713 10712 10709 ] final -177.48 input   66.30 | X-H torsion
[ 10763 10752 10751 10750 ] final  147.99 input  -60.55 | X-H torsion
[ 11005 11000 10999 10996 ] final -161.07 input  -57.11 | X-H torsion

> <Gold.Protein.ActiveResidues>
 VAL166  LYS551  ARG553  GLY616  TRP617  ASP618  TYR619  PRO620  LYS621  CYS622 
 ASP623  PHE694  ASN695  SER759  ASP760  ASP761  ALA762  ILE779  LEU786  VAL792 
 PHE793  MET794  SER795  GLU796  ALA797  LYS798  CYS799  TRP800  GLU811  SER814 

> <Gold.Protein.RotatedAtoms>
  150.7753  133.9101  159.3366 H   0  0  0  0  0  0  0  0  0  0  0  0  # atno 6907 bound_to 6896
  151.6977  135.0933  160.0254 H   0  0  0  0  0  0  0  0  0  0  0  0  # atno 6908 bound_to 6896
  152.3787  133.6477  159.6179 H   0  0  0  0  0  0  0  0  0  0  0  0  # atno 6909 bound_to 6896
  145.4027  140.9538  143.2278 H   0  0  0  0  0  0  0  0  0  0  0  0  # atno 7974 bound_to 7965
  155.8557  140.3456  155.5723 H   0  0  0  0  0  0  0  0  0  0  0  0  # atno 8008 bound_to 7997
  155.7989  140.0882  157.1988 H   0  0  0  0  0  0  0  0  0  0  0  0  # atno 8009 bound_to 7997
  154.4009  140.1469  156.3238 H   0  0  0  0  0  0  0  0  0  0  0  0  # atno 8010 bound_to 7997
  140.1932  143.3875  152.1189 H   0  0  0  0  0  0  0  0  0  0  0  0  # atno 10167 bound_to 10162
  156.8301  130.9650  151.3107 H   0  0  0  0  0  0  0  0  0  0  0  0  # atno 10718 bound_to 10713
  154.0473  135.2884  155.3346 H   0  0  0  0  0  0  0  0  0  0  0  0  # atno 10763 bound_to 10752
  154.6891  135.5233  153.8371 H   0  0  0  0  0  0  0  0  0  0  0  0  # atno 10764 bound_to 10752
  153.0575  135.6601  154.0673 H   0  0  0  0  0  0  0  0  0  0  0  0  # atno 10765 bound_to 10752
  140.6244  134.4716  157.5226 H   0  0  0  0  0  0  0  0  0  0  0  0  # atno 11005 bound_to 11000
  144.8363  139.5545  143.6921 LP  0  0  0  0  0  0  0  0  0  0  0  0  # atno 17320 bound_to 7965
  146.2744  139.6715  142.9273 LP  0  0  0  0  0  0  0  0  0  0  0  0  # atno 17321 bound_to 7965
  139.5247  144.7087  151.5274 LP  0  0  0  0  0  0  0  0  0  0  0  0  # atno 17342 bound_to 10162
  140.6441  143.8829  150.6720 LP  0  0  0  0  0  0  0  0  0  0  0  0  # atno 17343 bound_to 10162
  157.6411  130.8806  149.9450 LP  0  0  0  0  0  0  0  0  0  0  0  0  # atno 17370 bound_to 10713
  156.0939  130.3661  150.0343 LP  0  0  0  0  0  0  0  0  0  0  0  0  # atno 17371 bound_to 10713
  139.9140  134.8284  156.1428 LP  0  0  0  0  0  0  0  0  0  0  0  0  # atno 17394 bound_to 11000
  141.0719  133.6793  156.2158 LP  0  0  0  0  0  0  0  0  0  0  0  0  # atno 17395 bound_to 11000

$$$$
