AV-unprocessed.smi:193|AV-procd|sdf|1519|dock6
  -GOLD-   2262019353D 1   1.00000     0.00000
 Structure written by MMmdl.
 61 65  0  0  0  0  0  0  0  0  1 V2000
  149.1778  141.4770  154.5472 C   0  0  0  0  0  0  0  0  0  0  0  0
  149.2837  141.3811  156.0763 C   0  0  1  0  0  0  0  0  0  0  0  0
  148.4127  140.2325  156.6315 C   0  0  0  0  0  0  0  0  0  0  0  0
  149.1063  138.9538  156.7790 N   0  0  0  0  0  0  0  0  0  0  0  0
  148.3299  137.8986  156.4233 C   0  0  0  0  0  0  0  0  0  0  0  0
  148.3849  136.7378  157.1311 N   0  0  0  0  0  0  0  0  0  0  0  0
  147.6009  135.7079  156.7997 C   0  0  0  0  0  0  0  0  0  0  0  0
  146.7037  135.6251  155.8155 N   0  0  0  0  0  0  0  0  0  0  0  0
  146.6441  136.7854  155.1015 C   0  0  0  0  0  0  0  0  0  0  0  0
  147.4108  137.9612  155.3395 C   0  0  0  0  0  0  0  0  0  0  0  0
  147.0722  138.9416  154.4159 N   0  0  0  0  0  0  0  0  0  0  0  0
  146.1567  138.3798  153.6754 C   0  0  0  0  0  0  0  0  0  0  0  0
  145.8460  137.0810  154.0098 N   0  0  0  0  0  0  0  0  0  0  0  0
  144.8716  136.2230  153.3522 C   0  0  0  0  0  0  0  0  0  0  0  0
  145.4826  135.2545  152.3079 C   0  0  0  0  0  0  0  0  0  0  0  0
  146.1824  136.0323  151.3525 O   0  0  0  0  0  0  0  0  0  0  0  0
  146.4870  134.3000  152.9848 C   0  0  0  0  0  0  0  0  0  0  0  0
  146.9944  133.2119  152.0217 C   0  0  0  0  0  0  0  0  0  0  0  0
  145.8938  132.4985  151.4713 O   0  0  0  0  0  0  0  0  0  0  0  0
  145.0399  133.3241  150.6888 C   0  0  0  0  0  0  0  0  0  0  0  0
  144.4133  134.4219  151.5670 C   0  0  0  0  0  0  0  0  0  0  0  0
  149.8730  138.8127  158.0184 C   0  0  0  0  0  0  0  0  0  0  0  0
  151.1883  139.6042  158.0198 C   0  0  0  0  0  0  0  0  0  0  0  0
  150.9884  141.0501  157.9090 N   0  0  0  0  0  0  0  0  0  0  0  0
  152.2204  141.6926  158.3424 C   0  0  1  0  0  0  0  0  0  0  0  0
  152.1585  143.1692  158.6624 C   0  0  0  0  0  0  0  0  0  0  0  0
  152.2971  142.1620  159.7794 C   0  0  2  0  0  0  0  0  0  0  0  0
  153.5896  142.0533  160.5582 C   0  0  0  0  0  0  0  0  0  0  0  0
  150.7673  141.3989  156.5044 C   0  0  0  0  0  0  0  0  0  0  0  0
  149.6398  140.6161  154.0646 H   0  0  0  0  0  0  0  0  0  0  0  0
  149.6796  142.3706  154.1752 H   0  0  0  0  0  0  0  0  0  0  0  0
  148.1383  141.5263  154.2217 H   0  0  0  0  0  0  0  0  0  0  0  0
  148.8354  142.2965  156.4654 H   0  0  0  0  0  0  0  0  0  0  0  0
  148.0518  140.5237  157.6189 H   0  0  0  0  0  0  0  0  0  0  0  0
  147.5107  140.1311  156.0258 H   0  0  0  0  0  0  0  0  0  0  0  0
  147.7052  134.8245  157.4121 H   0  0  0  0  0  0  0  0  0  0  0  0
  145.6848  138.8985  152.8536 H   0  0  0  0  0  0  0  0  0  0  0  0
  144.3318  135.6653  154.1189 H   0  0  0  0  0  0  0  0  0  0  0  0
  144.1333  136.8669  152.8723 H   0  0  0  0  0  0  0  0  0  0  0  0
  147.0659  136.1643  151.6602 H   0  0  0  0  0  0  0  0  0  0  0  0
  147.3288  134.8585  153.3963 H   0  0  0  0  0  0  0  0  0  0  0  0
  146.0043  133.8099  153.8313 H   0  0  0  0  0  0  0  0  0  0  0  0
  147.6005  133.6426  151.2232 H   0  0  0  0  0  0  0  0  0  0  0  0
  147.6332  132.5098  152.5575 H   0  0  0  0  0  0  0  0  0  0  0  0
  145.5969  133.7570  149.8566 H   0  0  0  0  0  0  0  0  0  0  0  0
  144.2563  132.7040  150.2534 H   0  0  0  0  0  0  0  0  0  0  0  0
  143.7574  133.9483  152.2988 H   0  0  0  0  0  0  0  0  0  0  0  0
  143.7775  135.0607  150.9526 H   0  0  0  0  0  0  0  0  0  0  0  0
  149.2571  139.1113  158.8679 H   0  0  0  0  0  0  0  0  0  0  0  0
  150.1267  137.7637  158.1776 H   0  0  0  0  0  0  0  0  0  0  0  0
  151.6765  139.3950  158.9728 H   0  0  0  0  0  0  0  0  0  0  0  0
  151.8690  139.2347  157.2513 H   0  0  0  0  0  0  0  0  0  0  0  0
  153.1611  141.3518  157.9119 H   0  0  0  0  0  0  0  0  0  0  0  0
  153.0290  143.7715  158.4107 H   0  0  0  0  0  0  0  0  0  0  0  0
  151.1998  143.6742  158.5614 H   0  0  0  0  0  0  0  0  0  0  0  0
  151.4085  142.0023  160.3876 H   0  0  0  0  0  0  0  0  0  0  0  0
  154.4486  142.2285  159.9097 H   0  0  0  0  0  0  0  0  0  0  0  0
  153.6799  141.0584  160.9944 H   0  0  0  0  0  0  0  0  0  0  0  0
  153.6043  142.7891  161.3621 H   0  0  0  0  0  0  0  0  0  0  0  0
  151.3647  140.7587  155.8533 H   0  0  0  0  0  0  0  0  0  0  0  0
  151.1319  142.4112  156.3219 H   0  0  0  0  0  0  0  0  0  0  0  0
  1  2  1  0  0  0  0
  1 30  1  0  0  0  0
  1 31  1  0  0  0  0
  1 32  1  0  0  0  0
  2 29  1  0  0  0  0
  2  3  1  0  0  0  0
  2 33  1  0  0  0  0
  3  4  1  0  0  0  0
  3 34  1  0  0  0  0
  3 35  1  0  0  0  0
  4  5  1  0  0  0  0
  4 22  1  0  0  0  0
  5 10  1  0  0  0  0
  5  6  2  0  0  0  0
  6  7  1  0  0  0  0
  7  8  2  0  0  0  0
  7 36  1  0  0  0  0
  8  9  1  0  0  0  0
  9 13  1  0  0  0  0
  9 10  2  0  0  0  0
 10 11  1  0  0  0  0
 11 12  2  0  0  0  0
 12 13  1  0  0  0  0
 12 37  1  0  0  0  0
 13 14  1  0  0  0  0
 14 15  1  0  0  0  0
 14 38  1  0  0  0  0
 14 39  1  0  0  0  0
 15 21  1  0  0  0  0
 15 16  1  0  0  0  0
 15 17  1  0  0  0  0
 16 40  1  0  0  0  0
 17 18  1  0  0  0  0
 17 41  1  0  0  0  0
 17 42  1  0  0  0  0
 18 19  1  0  0  0  0
 18 43  1  0  0  0  0
 18 44  1  0  0  0  0
 19 20  1  0  0  0  0
 20 21  1  0  0  0  0
 20 45  1  0  0  0  0
 20 46  1  0  0  0  0
 21 47  1  0  0  0  0
 21 48  1  0  0  0  0
 22 23  1  0  0  0  0
 22 49  1  0  0  0  0
 22 50  1  0  0  0  0
 23 24  1  0  0  0  0
 23 51  1  0  0  0  0
 23 52  1  0  0  0  0
 24 25  1  0  0  0  0
 24 29  1  0  0  0  0
 25 27  1  0  0  0  0
 25 26  1  0  0  0  0
 25 53  1  0  0  0  0
 26 27  1  0  0  0  0
 26 54  1  0  0  0  0
 26 55  1  0  0  0  0
 27 28  1  0  0  0  0
 27 56  1  0  0  0  0
 28 57  1  0  0  0  0
 28 58  1  0  0  0  0
 28 59  1  0  0  0  0
 29 60  1  0  0  0  0
 29 61  1  0  0  0  0
M  END
> <s_m_source_file>
AV-unprocessed.smi

> <i_m_source_file_index>
193

> <i_lp_mmshare_version>
43012

> <i_f3d_flags>
0

> <s_epik_input>
W0NIM11bQ0BASF0xW0NIMl1bQ0BIXTFOKFtDSDJdMilbQ0gyXVtDSDJdTihbQ0gyXVtDQEhdMltDSDNdKWMobltjSF1uMyljKGMzNCluW2NIXW40W0NIMl1DNShbT0hdKVtDSDJdW0NIMl1PW0NIMl1bQ0gyXTU=

> <s_epik_cmdline>
J2VwaWtfcHl0aG9uJywgJy1waCcsICc3LjAnLCAnLXRuJywgJzgnLCAnLW1hJywgJzIwMCcsICctbWV0YWxfYmluZGluZycsICctaW1hZScsICc8aW5maWxlLm1hZT4nLCAnLW9tYWUnLCAnPG91dGZpbGUubWFlPic=

> <r_lp_tautomer_probability>
1

> <r_epik_Ionization_Penalty>
1.45227

> <r_epik_Ionization_Penalty_Charging>
0

> <r_epik_Ionization_Penalty_Neutral>
1.45227

> <r_epik_State_Penalty>
2.02377

> <r_epik_Charging_Adjusted_Penalty>
2.02377

> <i_epik_Tot_Q>
0

> <i_epik_Tot_abs_Q>
0

> <r_epik_Metal_State_Penalty>
2.01937

> <b_epik_Metal_Only>
0

> <s_lp_Force_Field>
OPLS_2005

> <r_lp_Energy>
55.8214

> <b_lp_Chiralities_Consistent>
1

> <s_lp_Variant>
AV-unprocessed.smi:193-24

> <Gold.Version>
5.8.1

> <Gold.Id.Protein>
6NUR|6NUR_protein|mol2

> <Gold.PLP.Fitness>
40.6393

> <Gold.PLP.PLP>
-35.8377

> <Gold.PLP.part.hbond>
-1.0000

> <Gold.PLP.part.metal>
0.0000

> <Gold.PLP.part.buried>
-5.1560

> <Gold.PLP.part.nonpolar>
-29.3109

> <Gold.PLP.part.repulsive>
0.2896

> <Gold.PLP.ligand.clash>
0.0000

> <Gold.PLP.ligand.torsion>
1.3069

> <Gold.PLP.Chemscore.Hbond>
1.0000

> <Gold.PLP.Chemscore.CHOScore>
1.0000

> <Gold.PLP.Chemscore.Metal>
0.0000

> <Gold.Chemscore.Hbonds>
donor molecule, donor type, donor heavy atom, donor atom, acceptor molecule, acceptor atom, score
      L1  H    16    40       P1  7948  1.00
      L1  C    12    37       P1 10175  0.90

> <Gold.PLP.Chemscore.Internal.Correction>
1.4154

> <Gold.Rescore>
     Score         DG    S(hbond)    S(metal)    S(lipo)     H(rot)  DE(clash)    DE(int)     intcor
     12.49     -15.00       1.00        0.00     100.20       2.17       0.08       2.43       ----

> <Gold.Chemscore.Fitness>
12.4933

> <Gold.Chemscore.DG>
-14.9978

> <Gold.Chemscore.ZeroCoef>
-5.4800

> <Gold.Chemscore.Hbond>
0.9999

> <Gold.Chemscore.Metal>
0.0000

> <Gold.Chemscore.Lipo>
100.2048

> <Gold.Chemscore.Internal_Hbond>
0.0000

> <Gold.Chemscore.DEClash>
0.0760

> <Gold.Chemscore.DEInternal>
2.4285

> <Gold.Chemscore.Rot>
2.1664

> <Gold.Chemscore.Internal.Correction>
   9.000000E+99

> <Gold.Chemscore.Hbonds>
donor molecule, donor type, donor heavy atom, donor atom, acceptor molecule, acceptor atom, score
      L1  H    16    40       P1  7948  1.00

> <Gold.Chemscore.Hbond.Weighted>
-3.3398

> <Gold.Chemscore.Metal.Weighted>
-0.0000

> <Gold.Chemscore.Lipo.Weighted>
-11.7240

> <Gold.Chemscore.Internal_Hbond.Weighted>
0.0000

> <Gold.Chemscore.DEClash.Weighted>
0.0760

> <Gold.Chemscore.DEInternal.Weighted>
2.4285

> <Gold.Chemscore.Rot.Weighted>
5.5459

> <Gold.Chemscore.Internal.Correction.Weighted>
   9.000000E+99

> <Gold.Protein.RotatedTorsions>
[ 6907 6896 6895 6894 ] final  151.60 input  -60.11 | X-H torsion
[ 7974 7965 7964 7962 ] final  128.91 input  175.53 | X-H torsion
[ 8008 7997 7996 7995 ] final   51.65 input   59.86 | X-H torsion
[ 10167 10162 10161 10158 ] final  -35.57 input  -65.29 | X-H torsion
[ 10718 10713 10712 10709 ] final -109.20 input   66.30 | X-H torsion
[ 10763 10752 10751 10750 ] final  -28.07 input  -60.55 | X-H torsion
[ 11005 11000 10999 10996 ] final  157.43 input  -57.11 | X-H torsion

> <Gold.Protein.ActiveResidues>
 VAL166  LYS551  ARG553  GLY616  TRP617  ASP618  TYR619  PRO620  LYS621  CYS622 
 ASP623  PHE694  ASN695  SER759  ASP760  ASP761  ALA762  ILE779  LEU786  VAL792 
 PHE793  MET794  SER795  GLU796  ALA797  LYS798  CYS799  TRP800  GLU811  SER814 

> <Gold.Protein.RotatedAtoms>
  152.0984  133.4237  159.4575 H   0  0  0  0  0  0  0  0  0  0  0  0  # atno 6907 bound_to 6896
  150.6863  134.2789  159.4628 H   0  0  0  0  0  0  0  0  0  0  0  0  # atno 6908 bound_to 6896
  152.0647  134.9571  160.0625 H   0  0  0  0  0  0  0  0  0  0  0  0  # atno 6909 bound_to 6896
  145.0344  139.4018  143.5133 H   0  0  0  0  0  0  0  0  0  0  0  0  # atno 7974 bound_to 7965
  155.4387  140.3453  155.4287 H   0  0  0  0  0  0  0  0  0  0  0  0  # atno 8008 bound_to 7997
  156.1292  140.1509  156.9121 H   0  0  0  0  0  0  0  0  0  0  0  0  # atno 8009 bound_to 7997
  154.4881  140.0849  156.7513 H   0  0  0  0  0  0  0  0  0  0  0  0  # atno 8010 bound_to 7997
  140.7162  143.3468  151.2239 H   0  0  0  0  0  0  0  0  0  0  0  0  # atno 10167 bound_to 10162
  156.0524  130.5751  150.8066 H   0  0  0  0  0  0  0  0  0  0  0  0  # atno 10718 bound_to 10713
  153.7423  135.6931  153.4964 H   0  0  0  0  0  0  0  0  0  0  0  0  # atno 10763 bound_to 10752
  153.2060  135.4419  155.0323 H   0  0  0  0  0  0  0  0  0  0  0  0  # atno 10764 bound_to 10752
  154.8216  135.3425  154.6948 H   0  0  0  0  0  0  0  0  0  0  0  0  # atno 10765 bound_to 10752
  140.1769  134.8503  157.2757 H   0  0  0  0  0  0  0  0  0  0  0  0  # atno 11005 bound_to 11000
  146.3502  139.9911  142.8685 LP  0  0  0  0  0  0  0  0  0  0  0  0  # atno 17320 bound_to 7965
  145.1729  140.9729  143.4311 LP  0  0  0  0  0  0  0  0  0  0  0  0  # atno 17321 bound_to 7965
  139.6989  143.9566  152.2896 LP  0  0  0  0  0  0  0  0  0  0  0  0  # atno 17342 bound_to 10162
  139.9252  144.6775  150.8420 LP  0  0  0  0  0  0  0  0  0  0  0  0  # atno 17343 bound_to 10162
  157.5464  131.0942  150.9757 LP  0  0  0  0  0  0  0  0  0  0  0  0  # atno 17370 bound_to 10713
  157.0027  130.5606  149.5313 LP  0  0  0  0  0  0  0  0  0  0  0  0  # atno 17371 bound_to 10713
  140.2312  134.3907  155.7521 LP  0  0  0  0  0  0  0  0  0  0  0  0  # atno 17394 bound_to 11000
  141.2221  133.7216  156.8644 LP  0  0  0  0  0  0  0  0  0  0  0  0  # atno 17395 bound_to 11000

$$$$
