AV-unprocessed.smi:694|AV-procd|sdf|3383|dock6
  -GOLD-   22720 0363D 1   1.00000     0.00000
 Structure written by MMmdl.
 42 43  0  0  0  0  0  0  0  0  1 V2000
  152.4208  144.3742  159.7616 C   0  0  0  0  0  0  0  0  0  0  0  0
  152.6723  142.9483  159.5771 N   0  0  0  0  0  0  0  0  0  0  0  0
  153.5673  142.2453  160.4877 C   0  0  0  0  0  0  0  0  0  0  0  0
  152.0854  142.2653  158.4872 C   0  0  0  0  0  0  0  0  0  0  0  0
  152.3874  140.9078  158.2154 C   0  0  0  0  0  0  0  0  0  0  0  0
  151.7725  140.2729  157.1197 C   0  0  0  0  0  0  0  0  0  0  0  0
  150.8642  140.9957  156.3234 C   0  0  0  0  0  0  0  0  0  0  0  0
  150.2705  140.3332  155.2156 N   0  0  0  0  0  0  0  0  0  0  0  0
  149.0679  140.5542  154.6581 C   0  0  0  0  0  0  0  0  0  0  0  0
  148.2487  141.3890  155.0416 O   0  0  0  0  0  0  0  0  0  0  0  0
  148.8517  139.7217  153.6297 N   0  0  0  0  0  0  0  0  0  0  0  0
  147.6335  139.6656  152.8269 C   0  0  0  0  0  0  0  0  0  0  0  0
  146.9019  138.3184  152.9902 C   0  0  1  0  0  0  0  0  0  0  0  0
  145.9842  138.2346  154.2194 C   0  0  0  0  0  0  0  0  0  0  0  0
  144.9087  137.1906  153.8830 C   0  0  0  0  0  0  0  0  0  0  0  0
  145.0633  136.8756  152.3894 C   0  0  0  0  0  0  0  0  0  0  0  0
  145.9567  137.9861  151.8319 C   0  0  2  0  0  0  0  0  0  0  0  0
  146.6525  137.5596  150.6791 O   0  0  0  0  0  0  0  0  0  0  0  0
  150.6333  142.3500  156.6602 C   0  0  0  0  0  0  0  0  0  0  0  0
  151.2224  142.9624  157.7084 N   0  0  0  0  0  0  0  0  0  0  0  0
  152.8251  144.9438  158.9242 H   0  0  0  0  0  0  0  0  0  0  0  0
  152.8849  144.7459  160.6752 H   0  0  0  0  0  0  0  0  0  0  0  0
  151.3504  144.5710  159.8303 H   0  0  0  0  0  0  0  0  0  0  0  0
  153.0373  141.4423  161.0008 H   0  0  0  0  0  0  0  0  0  0  0  0
  153.9688  142.9169  161.2465 H   0  0  0  0  0  0  0  0  0  0  0  0
  154.4102  141.8175  159.9441 H   0  0  0  0  0  0  0  0  0  0  0  0
  153.0755  140.3410  158.8237 H   0  0  0  0  0  0  0  0  0  0  0  0
  151.9947  139.2387  156.8999 H   0  0  0  0  0  0  0  0  0  0  0  0
  150.7972  139.5574  154.8422 H   0  0  0  0  0  0  0  0  0  0  0  0
  149.5810  139.0666  153.3892 H   0  0  0  0  0  0  0  0  0  0  0  0
  146.9673  140.4965  153.0656 H   0  0  0  0  0  0  0  0  0  0  0  0
  147.9212  139.8000  151.7840 H   0  0  0  0  0  0  0  0  0  0  0  0
  147.6423  137.5199  153.0693 H   0  0  0  0  0  0  0  0  0  0  0  0
  146.5356  137.9814  155.1254 H   0  0  0  0  0  0  0  0  0  0  0  0
  145.5020  139.1978  154.3915 H   0  0  0  0  0  0  0  0  0  0  0  0
  145.0325  136.2866  154.4804 H   0  0  0  0  0  0  0  0  0  0  0  0
  143.9165  137.5892  154.0977 H   0  0  0  0  0  0  0  0  0  0  0  0
  145.5573  135.9086  152.2811 H   0  0  0  0  0  0  0  0  0  0  0  0
  144.1048  136.8134  151.8732 H   0  0  0  0  0  0  0  0  0  0  0  0
  145.3476  138.8572  151.5858 H   0  0  0  0  0  0  0  0  0  0  0  0
  147.5578  137.4186  150.9104 H   0  0  0  0  0  0  0  0  0  0  0  0
  149.9815  142.9824  156.0780 H   0  0  0  0  0  0  0  0  0  0  0  0
  1  2  1  0  0  0  0
  1 21  1  0  0  0  0
  1 22  1  0  0  0  0
  1 23  1  0  0  0  0
  2  3  1  0  0  0  0
  2  4  1  0  0  0  0
  3 24  1  0  0  0  0
  3 25  1  0  0  0  0
  3 26  1  0  0  0  0
  4 20  1  0  0  0  0
  4  5  2  0  0  0  0
  5  6  1  0  0  0  0
  5 27  1  0  0  0  0
  6  7  2  0  0  0  0
  6 28  1  0  0  0  0
  7  8  1  0  0  0  0
  7 19  1  0  0  0  0
  8  9  1  0  0  0  0
  8 29  1  0  0  0  0
  9 10  2  0  0  0  0
  9 11  1  0  0  0  0
 11 12  1  0  0  0  0
 11 30  1  0  0  0  0
 12 13  1  0  0  0  0
 12 31  1  0  0  0  0
 12 32  1  0  0  0  0
 13 17  1  0  0  0  0
 13 14  1  0  0  0  0
 13 33  1  0  0  0  0
 14 15  1  0  0  0  0
 14 34  1  0  0  0  0
 14 35  1  0  0  0  0
 15 16  1  0  0  0  0
 15 36  1  0  0  0  0
 15 37  1  0  0  0  0
 16 17  1  0  0  0  0
 16 38  1  0  0  0  0
 16 39  1  0  0  0  0
 17 18  1  0  0  0  0
 17 40  1  0  0  0  0
 18 41  1  0  0  0  0
 19 20  2  0  0  0  0
 19 42  1  0  0  0  0
M  END
> <s_m_source_file>
AV-unprocessed.smi

> <i_m_source_file_index>
694

> <i_lp_mmshare_version>
43012

> <i_f3d_flags>
0

> <s_epik_input>
W0NIM11OKFtDSDNdKWMxW2NIXVtjSF1jKFtjSF1uMSlbTkhdQyg9TylbTkhdW0NIMl1bQ0BASF0yW0NIMl1bQ0gyXVtDSDJdW0NASF0yW09IXQ==

> <s_epik_cmdline>
J2VwaWtfcHl0aG9uJywgJy1waCcsICc3LjAnLCAnLXRuJywgJzgnLCAnLW1hJywgJzIwMCcsICctbWV0YWxfYmluZGluZycsICctaW1hZScsICc8aW5maWxlLm1hZT4nLCAnLW9tYWUnLCAnPG91dGZpbGUubWFlPic=

> <r_lp_tautomer_probability>
1

> <r_epik_Ionization_Penalty>
0.60335

> <r_epik_Ionization_Penalty_Charging>
0

> <r_epik_Ionization_Penalty_Neutral>
0.60335

> <r_epik_State_Penalty>
0.616805

> <r_epik_Charging_Adjusted_Penalty>
0.616805

> <i_epik_Tot_Q>
0

> <i_epik_Tot_abs_Q>
0

> <r_epik_Metal_State_Penalty>
0.301709

> <b_epik_Metal_Only>
0

> <s_lp_Force_Field>
OPLS_2005

> <r_lp_Energy>
25.3577

> <b_lp_Chiralities_Consistent>
1

> <s_lp_Variant>
AV-unprocessed.smi:694-8

> <Gold.Version>
5.8.1

> <Gold.Id.Protein>
6NUR|6NUR_protein|mol2

> <Gold.PLP.Fitness>
40.7014

> <Gold.PLP.PLP>
-35.5732

> <Gold.PLP.part.hbond>
-3.9389

> <Gold.PLP.part.metal>
0.0000

> <Gold.PLP.part.buried>
0.0713

> <Gold.PLP.part.nonpolar>
-32.5870

> <Gold.PLP.part.repulsive>
0.4414

> <Gold.PLP.ligand.clash>
0.0000

> <Gold.PLP.ligand.torsion>
0.4397

> <Gold.PLP.Chemscore.Hbond>
1.0000

> <Gold.PLP.Chemscore.CHOScore>
1.0000

> <Gold.PLP.Chemscore.Metal>
0.0000

> <Gold.Chemscore.Hbonds>
donor molecule, donor type, donor heavy atom, donor atom, acceptor molecule, acceptor atom, score
      L1  H    18    41       P1  7948  0.98
      L1  C    19    42       P1  8028  1.00

> <Gold.PLP.Chemscore.Internal.Correction>
0.0077

> <Gold.Rescore>
     Score         DG    S(hbond)    S(metal)    S(lipo)     H(rot)  DE(clash)    DE(int)     intcor
     12.63     -13.31       1.00        0.00      76.10       1.73       0.14       0.54       ----

> <Gold.Chemscore.Fitness>
12.6260

> <Gold.Chemscore.DG>
-13.3058

> <Gold.Chemscore.ZeroCoef>
-5.4800

> <Gold.Chemscore.Hbond>
1.0000

> <Gold.Chemscore.Metal>
0.0000

> <Gold.Chemscore.Lipo>
76.1036

> <Gold.Chemscore.Internal_Hbond>
0.0000

> <Gold.Chemscore.DEClash>
0.1445

> <Gold.Chemscore.DEInternal>
0.5352

> <Gold.Chemscore.Rot>
1.7259

> <Gold.Chemscore.Internal.Correction>
   9.000000E+99

> <Gold.Chemscore.Hbonds>
donor molecule, donor type, donor heavy atom, donor atom, acceptor molecule, acceptor atom, score
      L1  H    18    41       P1  7948  0.88

> <Gold.Chemscore.Hbond.Weighted>
-3.3400

> <Gold.Chemscore.Metal.Weighted>
-0.0000

> <Gold.Chemscore.Lipo.Weighted>
-8.9041

> <Gold.Chemscore.Internal_Hbond.Weighted>
0.0000

> <Gold.Chemscore.DEClash.Weighted>
0.1445

> <Gold.Chemscore.DEInternal.Weighted>
0.5352

> <Gold.Chemscore.Rot.Weighted>
4.4184

> <Gold.Chemscore.Internal.Correction.Weighted>
   9.000000E+99

> <Gold.Protein.RotatedTorsions>
[ 6907 6896 6895 6894 ] final  -98.01 input  -60.11 | X-H torsion
[ 7974 7965 7964 7962 ] final  -19.70 input  175.53 | X-H torsion
[ 8008 7997 7996 7995 ] final  -71.86 input   59.86 | X-H torsion
[ 10167 10162 10161 10158 ] final   21.98 input  -65.29 | X-H torsion
[ 10718 10713 10712 10709 ] final   18.08 input   66.30 | X-H torsion
[ 10763 10752 10751 10750 ] final   17.52 input  -60.55 | X-H torsion
[ 11005 11000 10999 10996 ] final  -59.68 input  -57.11 | X-H torsion

> <Gold.Protein.ActiveResidues>
 VAL166  LYS551  ARG553  GLY616  TRP617  ASP618  TYR619  PRO620  LYS621  CYS622 
 ASP623  PHE694  ASN695  SER759  ASP760  ASP761  ALA762  ILE779  LEU786  VAL792 
 PHE793  MET794  SER795  GLU796  ALA797  LYS798  CYS799  TRP800  GLU811  SER814 

> <Gold.Protein.RotatedAtoms>
  150.7033  134.1261  159.4052 H   0  0  0  0  0  0  0  0  0  0  0  0  # atno 6907 bound_to 6896
  151.9247  135.0280  160.0534 H   0  0  0  0  0  0  0  0  0  0  0  0  # atno 6908 bound_to 6896
  152.2226  133.4960  159.5208 H   0  0  0  0  0  0  0  0  0  0  0  0  # atno 6909 bound_to 6896
  146.1828  140.4098  142.8488 H   0  0  0  0  0  0  0  0  0  0  0  0  # atno 7974 bound_to 7965
  154.5120  140.0808  156.8009 H   0  0  0  0  0  0  0  0  0  0  0  0  # atno 8008 bound_to 7997
  155.3763  140.3425  155.4227 H   0  0  0  0  0  0  0  0  0  0  0  0  # atno 8009 bound_to 7997
  156.1584  140.1580  156.8640 H   0  0  0  0  0  0  0  0  0  0  0  0  # atno 8010 bound_to 7997
  140.5384  143.9720  150.6505 H   0  0  0  0  0  0  0  0  0  0  0  0  # atno 10167 bound_to 10162
  157.0913  130.6429  149.5849 H   0  0  0  0  0  0  0  0  0  0  0  0  # atno 10718 bound_to 10713
  153.1332  135.6744  153.9145 H   0  0  0  0  0  0  0  0  0  0  0  0  # atno 10763 bound_to 10752
  153.8625  135.3079  155.3439 H   0  0  0  0  0  0  0  0  0  0  0  0  # atno 10764 bound_to 10752
  154.7725  135.4932  153.9759 H   0  0  0  0  0  0  0  0  0  0  0  0  # atno 10765 bound_to 10752
  141.1258  133.6617  156.5108 H   0  0  0  0  0  0  0  0  0  0  0  0  # atno 11005 bound_to 11000
  144.8344  140.6758  143.6270 LP  0  0  0  0  0  0  0  0  0  0  0  0  # atno 17320 bound_to 7965
  145.4028  139.1594  143.4168 LP  0  0  0  0  0  0  0  0  0  0  0  0  # atno 17321 bound_to 7965
  140.3114  143.3196  152.0875 LP  0  0  0  0  0  0  0  0  0  0  0  0  # atno 17342 bound_to 10162
  139.4979  144.6634  151.6413 LP  0  0  0  0  0  0  0  0  0  0  0  0  # atno 17343 bound_to 10162
  155.9897  130.4946  150.7227 LP  0  0  0  0  0  0  0  0  0  0  0  0  # atno 17370 bound_to 10713
  157.4719  131.0894  151.0633 LP  0  0  0  0  0  0  0  0  0  0  0  0  # atno 17371 bound_to 10713
  140.4370  134.7050  157.4972 LP  0  0  0  0  0  0  0  0  0  0  0  0  # atno 17394 bound_to 11000
  140.0255  134.6484  155.9179 LP  0  0  0  0  0  0  0  0  0  0  0  0  # atno 17395 bound_to 11000

$$$$
