AV-unprocessed.smi:2958|AV-procd|sdf|11307|dock10
  -GOLD-   2272016203D 1   1.00000     0.00000
 Structure written by MMmdl.
 39 41  0  0  0  0  0  0  0  0  1 V2000
  150.7954  144.4547  159.7680 C   0  0  0  0  0  0  0  0  0  0  0  0
  151.8107  143.3322  159.8337 C   0  0  0  0  0  0  0  0  0  0  0  0
  152.7643  143.2945  160.8706 C   0  0  0  0  0  0  0  0  0  0  0  0
  153.7037  142.2486  160.9229 C   0  0  0  0  0  0  0  0  0  0  0  0
  153.6912  141.2405  159.9404 C   0  0  0  0  0  0  0  0  0  0  0  0
  152.7430  141.2613  158.8972 C   0  0  0  0  0  0  0  0  0  0  0  0
  152.8012  140.2338  157.9804 O   0  0  0  0  0  0  0  0  0  0  0  0
  151.5949  139.8272  157.3508 C   0  0  0  0  0  0  0  0  0  0  0  0
  151.5496  140.4345  155.9441 C   0  0  0  0  0  0  0  0  0  0  0  0
  150.5287  139.8032  155.1234 N   0  0  0  0  0  0  0  0  0  0  0  0
  150.5038  138.5352  154.6415 C   0  0  0  0  0  0  0  0  0  0  0  0
  151.6038  137.5555  154.9135 C   0  0  0  0  0  0  0  0  0  0  0  0
  152.2722  137.1476  153.7392 O   0  0  0  0  0  0  0  0  0  0  0  0
  149.4359  138.2136  153.9103 N   0  0  0  0  0  0  0  0  0  0  0  0
  148.6961  139.3803  153.9240 C   0  0  0  0  0  0  0  0  0  0  0  0
  147.4509  139.6853  153.3293 C   0  0  0  0  0  0  0  0  0  0  0  0
  146.8782  140.9645  153.4877 C   0  0  0  0  0  0  0  0  0  0  0  0
  147.5407  141.9550  154.2416 C   0  0  0  0  0  0  0  0  0  0  0  0
  148.7835  141.6728  154.8407 C   0  0  0  0  0  0  0  0  0  0  0  0
  149.3512  140.3948  154.6783 C   0  0  0  0  0  0  0  0  0  0  0  0
  151.8003  142.3200  158.8515 C   0  0  0  0  0  0  0  0  0  0  0  0
  150.9337  145.1655  160.5833 H   0  0  0  0  0  0  0  0  0  0  0  0
  149.7837  144.0537  159.8343 H   0  0  0  0  0  0  0  0  0  0  0  0
  150.8902  144.9955  158.8260 H   0  0  0  0  0  0  0  0  0  0  0  0
  152.7798  144.0649  161.6277 H   0  0  0  0  0  0  0  0  0  0  0  0
  154.4351  142.2189  161.7172 H   0  0  0  0  0  0  0  0  0  0  0  0
  154.4162  140.4413  159.9888 H   0  0  0  0  0  0  0  0  0  0  0  0
  151.5527  138.7388  157.2851 H   0  0  0  0  0  0  0  0  0  0  0  0
  150.7340  140.1687  157.9280 H   0  0  0  0  0  0  0  0  0  0  0  0
  151.3380  141.5027  156.0025 H   0  0  0  0  0  0  0  0  0  0  0  0
  152.5193  140.3415  155.4550 H   0  0  0  0  0  0  0  0  0  0  0  0
  152.3229  137.9892  155.6084 H   0  0  0  0  0  0  0  0  0  0  0  0
  151.1880  136.6742  155.4028 H   0  0  0  0  0  0  0  0  0  0  0  0
  151.6283  136.8449  153.1176 H   0  0  0  0  0  0  0  0  0  0  0  0
  146.9349  138.9335  152.7507 H   0  0  0  0  0  0  0  0  0  0  0  0
  145.9257  141.1863  153.0293 H   0  0  0  0  0  0  0  0  0  0  0  0
  147.0944  142.9317  154.3588 H   0  0  0  0  0  0  0  0  0  0  0  0
  149.2937  142.4292  155.4185 H   0  0  0  0  0  0  0  0  0  0  0  0
  151.0577  142.3775  158.0700 H   0  0  0  0  0  0  0  0  0  0  0  0
  1  2  1  0  0  0  0
  1 22  1  0  0  0  0
  1 23  1  0  0  0  0
  1 24  1  0  0  0  0
  2 21  1  0  0  0  0
  2  3  2  0  0  0  0
  3  4  1  0  0  0  0
  3 25  1  0  0  0  0
  4  5  2  0  0  0  0
  4 26  1  0  0  0  0
  5  6  1  0  0  0  0
  5 27  1  0  0  0  0
  6  7  1  0  0  0  0
  6 21  2  0  0  0  0
  7  8  1  0  0  0  0
  8  9  1  0  0  0  0
  8 28  1  0  0  0  0
  8 29  1  0  0  0  0
  9 10  1  0  0  0  0
  9 30  1  0  0  0  0
  9 31  1  0  0  0  0
 10 20  1  0  0  0  0
 10 11  1  0  0  0  0
 11 12  1  0  0  0  0
 11 14  2  0  0  0  0
 12 13  1  0  0  0  0
 12 32  1  0  0  0  0
 12 33  1  0  0  0  0
 13 34  1  0  0  0  0
 14 15  1  0  0  0  0
 15 20  2  0  0  0  0
 15 16  1  0  0  0  0
 16 17  2  0  0  0  0
 16 35  1  0  0  0  0
 17 18  1  0  0  0  0
 17 36  1  0  0  0  0
 18 19  2  0  0  0  0
 18 37  1  0  0  0  0
 19 20  1  0  0  0  0
 19 38  1  0  0  0  0
 21 39  1  0  0  0  0
M  END
> <s_m_source_file>
AV-unprocessed.smi

> <i_m_source_file_index>
2958

> <i_lp_mmshare_version>
43012

> <i_f3d_flags>
0

> <s_epik_input>
W0NIM11jMVtjSF1bY0hdW2NIXWMoW2NIXTEpT1tDSDJdW0NIMl1uKGMobjIpW0NIMl1bT0hdKWMoYzIzKVtjSF1bY0hdW2NIXVtjSF0z

> <s_epik_cmdline>
J2VwaWtfcHl0aG9uJywgJy1waCcsICc3LjAnLCAnLXRuJywgJzgnLCAnLW1hJywgJzIwMCcsICctbWV0YWxfYmluZGluZycsICctaW1hZScsICc8aW5maWxlLm1hZT4nLCAnLW9tYWUnLCAnPG91dGZpbGUubWFlPic=

> <r_lp_tautomer_probability>
1

> <r_epik_Ionization_Penalty>
0.0482759

> <r_epik_Ionization_Penalty_Charging>
0

> <r_epik_Ionization_Penalty_Neutral>
0.0482759

> <r_epik_State_Penalty>
0.0410957

> <r_epik_Charging_Adjusted_Penalty>
0.0410957

> <i_epik_Tot_Q>
0

> <i_epik_Tot_abs_Q>
0

> <r_epik_Metal_State_Penalty>
4.25529e-05

> <b_epik_Metal_Only>
0

> <s_lp_Force_Field>
OPLS_2005

> <r_lp_Energy>
16.0806

> <b_lp_Chiralities_Consistent>
1

> <s_lp_Variant>
AV-unprocessed.smi:2958-1

> <Gold.Version>
5.8.1

> <Gold.Id.Protein>
6NUR|6NUR_protein|mol2

> <Gold.PLP.Fitness>
54.9189

> <Gold.PLP.PLP>
-47.5607

> <Gold.PLP.part.hbond>
-2.9245

> <Gold.PLP.part.metal>
0.0000

> <Gold.PLP.part.buried>
-1.3344

> <Gold.PLP.part.nonpolar>
-44.5246

> <Gold.PLP.part.repulsive>
1.9553

> <Gold.PLP.ligand.clash>
0.0000

> <Gold.PLP.ligand.torsion>
0.7995

> <Gold.PLP.Chemscore.Hbond>
2.9840

> <Gold.PLP.Chemscore.CHOScore>
0.0000

> <Gold.PLP.Chemscore.Metal>
0.0000

> <Gold.Chemscore.Hbonds>
donor molecule, donor type, donor heavy atom, donor atom, acceptor molecule, acceptor atom, score
      L1  H    13    34       P1  7949  1.00
      P1  H  7997  8010       L1     7  0.96
      P1  H 10752 10765       L1    13  0.95

> <Gold.PLP.Chemscore.Internal.Correction>
0.0052

> <Gold.Rescore>
     Score         DG    S(hbond)    S(metal)    S(lipo)     H(rot)  DE(clash)    DE(int)     intcor
     20.00     -22.19       1.95        0.00     134.37       2.15       1.41       0.78       ----

> <Gold.Chemscore.Fitness>
19.9987

> <Gold.Chemscore.DG>
-22.1948

> <Gold.Chemscore.ZeroCoef>
-5.4800

> <Gold.Chemscore.Hbond>
1.9452

> <Gold.Chemscore.Metal>
0.0000

> <Gold.Chemscore.Lipo>
134.3734

> <Gold.Chemscore.Internal_Hbond>
0.0000

> <Gold.Chemscore.DEClash>
1.4145

> <Gold.Chemscore.DEInternal>
0.7815

> <Gold.Chemscore.Rot>
2.1499

> <Gold.Chemscore.Internal.Correction>
   9.000000E+99

> <Gold.Chemscore.Hbonds>
donor molecule, donor type, donor heavy atom, donor atom, acceptor molecule, acceptor atom, score
      L1  H    13    34       P1  7949  0.92
      P1  H  7997  8010       L1     7  0.78
      P1  H 10752 10765       L1    13  0.16

> <Gold.Chemscore.Hbond.Weighted>
-6.4969

> <Gold.Chemscore.Metal.Weighted>
-0.0000

> <Gold.Chemscore.Lipo.Weighted>
-15.7217

> <Gold.Chemscore.Internal_Hbond.Weighted>
0.0000

> <Gold.Chemscore.DEClash.Weighted>
1.4145

> <Gold.Chemscore.DEInternal.Weighted>
0.7815

> <Gold.Chemscore.Rot.Weighted>
5.5038

> <Gold.Chemscore.Internal.Correction.Weighted>
   9.000000E+99

> <Gold.Protein.RotatedTorsions>
[ 6907 6896 6895 6894 ] final  173.90 input  -60.11 | X-H torsion
[ 7974 7965 7964 7962 ] final -142.18 input  175.53 | X-H torsion
[ 8008 7997 7996 7995 ] final   47.38 input   59.86 | X-H torsion
[ 10167 10162 10161 10158 ] final -126.37 input  -65.29 | X-H torsion
[ 10718 10713 10712 10709 ] final -174.53 input   66.30 | X-H torsion
[ 10763 10752 10751 10750 ] final  143.35 input  -60.55 | X-H torsion
[ 11005 11000 10999 10996 ] final   84.01 input  -57.11 | X-H torsion

> <Gold.Protein.ActiveResidues>
 VAL166  LYS551  ARG553  GLY616  TRP617  ASP618  TYR619  PRO620  LYS621  CYS622 
 ASP623  PHE694  ASN695  SER759  ASP760  ASP761  ALA762  ILE779  LEU786  VAL792 
 PHE793  MET794  SER795  GLU796  ALA797  LYS798  CYS799  TRP800  GLU811  SER814 

> <Gold.Protein.RotatedAtoms>
  151.7608  133.3333  159.3417 H   0  0  0  0  0  0  0  0  0  0  0  0  # atno 6907 bound_to 6896
  150.7498  134.6107  159.6094 H   0  0  0  0  0  0  0  0  0  0  0  0  # atno 6908 bound_to 6896
  152.3406  134.7141  160.0316 H   0  0  0  0  0  0  0  0  0  0  0  0  # atno 6909 bound_to 6896
  144.8462  140.5989  143.5420 H   0  0  0  0  0  0  0  0  0  0  0  0  # atno 7974 bound_to 7965
  155.3681  140.3422  155.4242 H   0  0  0  0  0  0  0  0  0  0  0  0  # atno 8008 bound_to 7997
  156.1677  140.1621  156.8536 H   0  0  0  0  0  0  0  0  0  0  0  0  # atno 8009 bound_to 7997
  154.5202  140.0769  156.8139 H   0  0  0  0  0  0  0  0  0  0  0  0  # atno 8010 bound_to 7997
  139.9722  143.5833  152.2408 H   0  0  0  0  0  0  0  0  0  0  0  0  # atno 10167 bound_to 10162
  156.7864  130.9502  151.3120 H   0  0  0  0  0  0  0  0  0  0  0  0  # atno 10718 bound_to 10713
  153.9709  135.2951  155.3427 H   0  0  0  0  0  0  0  0  0  0  0  0  # atno 10763 bound_to 10752
  154.7323  135.5062  153.8987 H   0  0  0  0  0  0  0  0  0  0  0  0  # atno 10764 bound_to 10752
  153.0900  135.6705  153.9984 H   0  0  0  0  0  0  0  0  0  0  0  0  # atno 10765 bound_to 10752
  139.9013  134.8186  156.2387 H   0  0  0  0  0  0  0  0  0  0  0  0  # atno 11005 bound_to 11000
  145.4591  139.1515  143.3876 LP  0  0  0  0  0  0  0  0  0  0  0  0  # atno 17320 bound_to 7965
  146.2746  140.4721  142.8800 LP  0  0  0  0  0  0  0  0  0  0  0  0  # atno 17321 bound_to 7965
  139.6472  144.7659  151.2219 LP  0  0  0  0  0  0  0  0  0  0  0  0  # atno 17342 bound_to 10162
  140.7518  143.6219  150.8505 LP  0  0  0  0  0  0  0  0  0  0  0  0  # atno 17343 bound_to 10162
  157.6622  130.8976  149.9854 LP  0  0  0  0  0  0  0  0  0  0  0  0  # atno 17370 bound_to 10713
  156.1186  130.3647  149.9925 LP  0  0  0  0  0  0  0  0  0  0  0  0  # atno 17371 bound_to 10713
  141.0299  133.6994  156.1412 LP  0  0  0  0  0  0  0  0  0  0  0  0  # atno 17394 bound_to 11000
  140.7112  134.4460  157.5581 LP  0  0  0  0  0  0  0  0  0  0  0  0  # atno 17395 bound_to 11000

$$$$
