AV-unprocessed.smi:1696|AV-procd|sdf|6801|dock4
  -GOLD-   22720 7573D 1   1.00000     0.00000
 Structure written by MMmdl.
 38 39  0  0  0  0  0  0  0  0  3 V2000
  146.6094  139.4849  154.0083 C   0  0  0  0  0  0  0  0  0  0  0  0
  147.2705  140.5726  153.1467 C   0  0  0  0  0  0  0  0  0  0  0  0
  148.0192  141.6730  153.9472 C   0  0  2  0  0  0  0  0  0  0  0  0
  148.9713  141.0771  155.0200 C   0  0  0  0  0  0  0  0  0  0  0  0
  149.7757  142.0946  155.6886 N   0  0  0  0  0  0  0  0  0  0  0  0
  150.5786  141.8861  156.7414 C   0  0  0  0  0  0  0  0  0  0  0  0
  150.6918  140.7519  157.2122 O   0  0  0  0  0  0  0  0  0  0  0  0
  151.1929  143.0047  157.1861 N   0  5  0  0  0  0  0  0  0  0  0  0
  151.8160  143.0003  158.3757 C   0  0  0  0  0  0  0  0  0  0  0  0
  152.2960  141.8885  158.9442 N   0  0  0  0  0  0  0  0  0  0  0  0
  152.9098  142.1161  160.1773 C   0  0  0  0  0  0  0  0  0  0  0  0
  152.9050  143.4335  160.5520 C   0  0  0  0  0  0  0  0  0  0  0  0
  152.1238  144.4334  159.3605 S   0  0  0  0  0  0  0  0  0  0  0  0
  147.0820  142.6647  154.5510 N   0  3  0  0  0  0  0  0  0  0  0  0
  146.1189  143.2834  153.6045 C   0  0  0  0  0  0  0  0  0  0  0  0
  144.8002  143.4905  154.3633 C   0  0  0  0  0  0  0  0  0  0  0  0
  145.1269  143.1650  155.8164 C   0  0  0  0  0  0  0  0  0  0  0  0
  146.2850  142.1813  155.6995 C   0  0  0  0  0  0  0  0  0  0  0  0
  146.0726  138.7736  153.3801 H   0  0  0  0  0  0  0  0  0  0  0  0
  145.8923  139.9084  154.7113 H   0  0  0  0  0  0  0  0  0  0  0  0
  147.3474  138.9201  154.5778 H   0  0  0  0  0  0  0  0  0  0  0  0
  147.9616  140.0917  152.4541 H   0  0  0  0  0  0  0  0  0  0  0  0
  146.5158  141.0237  152.5028 H   0  0  0  0  0  0  0  0  0  0  0  0
  148.6283  142.2243  153.2291 H   0  0  0  0  0  0  0  0  0  0  0  0
  148.4207  140.5262  155.7831 H   0  0  0  0  0  0  0  0  0  0  0  0
  149.6494  140.3547  154.5662 H   0  0  0  0  0  0  0  0  0  0  0  0
  149.7160  143.0367  155.3307 H   0  0  0  0  0  0  0  0  0  0  0  0
  153.3257  141.2804  160.7201 H   0  0  0  0  0  0  0  0  0  0  0  0
  153.3111  143.8749  161.4495 H   0  0  0  0  0  0  0  0  0  0  0  0
  146.5233  144.2287  153.2412 H   0  0  0  0  0  0  0  0  0  0  0  0
  145.9414  142.6427  152.7392 H   0  0  0  0  0  0  0  0  0  0  0  0
  144.4034  144.4994  154.2452 H   0  0  0  0  0  0  0  0  0  0  0  0
  144.0483  142.7939  153.9895 H   0  0  0  0  0  0  0  0  0  0  0  0
  145.4588  144.0667  156.3330 H   0  0  0  0  0  0  0  0  0  0  0  0
  144.2762  142.7564  156.3628 H   0  0  0  0  0  0  0  0  0  0  0  0
  145.9004  141.1822  155.4869 H   0  0  0  0  0  0  0  0  0  0  0  0
  146.8712  142.1348  156.6175 H   0  0  0  0  0  0  0  0  0  0  0  0
  147.6468  143.4219  154.9081 H   0  0  0  0  0  0  0  0  0  0  0  0
  1  2  1  0  0  0  0
  1 19  1  0  0  0  0
  1 20  1  0  0  0  0
  1 21  1  0  0  0  0
  2  3  1  0  0  0  0
  2 22  1  0  0  0  0
  2 23  1  0  0  0  0
  3  4  1  0  0  0  0
  3 14  1  0  0  0  0
  3 24  1  0  0  0  0
  4  5  1  0  0  0  0
  4 25  1  0  0  0  0
  4 26  1  0  0  0  0
  5  6  1  0  0  0  0
  5 27  1  0  0  0  0
  6  7  2  0  0  0  0
  6  8  1  0  0  0  0
  8  9  1  0  0  0  0
  9 13  1  0  0  0  0
  9 10  2  0  0  0  0
 10 11  1  0  0  0  0
 11 12  2  0  0  0  0
 11 28  1  0  0  0  0
 12 13  1  0  0  0  0
 12 29  1  0  0  0  0
 14 18  1  0  0  0  0
 14 15  1  0  0  0  0
 14 38  1  0  0  0  0
 15 16  1  0  0  0  0
 15 30  1  0  0  0  0
 15 31  1  0  0  0  0
 16 17  1  0  0  0  0
 16 32  1  0  0  0  0
 16 33  1  0  0  0  0
 17 18  1  0  0  0  0
 17 34  1  0  0  0  0
 17 35  1  0  0  0  0
 18 36  1  0  0  0  0
 18 37  1  0  0  0  0
M  CHG  1   8  -1
M  CHG  1  14   1
M  END
> <s_m_source_file>
AV-unprocessed.smi

> <i_m_source_file_index>
1696

> <i_lp_mmshare_version>
43012

> <i_f3d_flags>
0

> <s_epik_input>
W0NIMl0xW0NIMl1bQ0gyXVtDSDJdTjFbQ0BIXShbQ0gyXVtDSDNdKVtDSDJdW05IXUMoPU8pW05IXWMybltjSF1bY0hdczI=

> <s_epik_cmdline>
J2VwaWtfcHl0aG9uJywgJy1waCcsICc3LjAnLCAnLXRuJywgJzgnLCAnLW1hJywgJzIwMCcsICctbWV0YWxfYmluZGluZycsICctaW1hZScsICc8aW5maWxlLm1hZT4nLCAnLW9tYWUnLCAnPG91dGZpbGUubWFlPic=

> <r_lp_tautomer_probability>
1

> <r_epik_Ionization_Penalty>
7.71903

> <r_epik_Ionization_Penalty_Charging>
6.3282

> <r_epik_Ionization_Penalty_Neutral>
1.39083

> <r_epik_State_Penalty>
6.32705

> <r_epik_Charging_Adjusted_Penalty>
12.6552

> <i_epik_Tot_Q>
0

> <i_epik_Tot_abs_Q>
2

> <r_epik_Metal_State_Penalty>
2.26116

> <b_epik_Metal_Only>
1

> <s_lp_Force_Field>
OPLS_2005

> <r_lp_Energy>
21.91

> <b_lp_Chiralities_Consistent>
1

> <s_lp_Variant>
AV-unprocessed.smi:1696-3

> <Gold.Version>
5.8.1

> <Gold.Id.Protein>
6NUR|6NUR_protein|mol2

> <Gold.PLP.Fitness>
46.7767

> <Gold.PLP.PLP>
-38.3279

> <Gold.PLP.part.hbond>
-2.0000

> <Gold.PLP.part.metal>
0.0000

> <Gold.PLP.part.buried>
-5.9344

> <Gold.PLP.part.nonpolar>
-30.7463

> <Gold.PLP.part.repulsive>
0.3865

> <Gold.PLP.ligand.clash>
0.0000

> <Gold.PLP.ligand.torsion>
0.3586

> <Gold.PLP.Chemscore.Hbond>
3.0000

> <Gold.PLP.Chemscore.CHOScore>
0.0000

> <Gold.PLP.Chemscore.Metal>
0.0000

> <Gold.Chemscore.Hbonds>
donor molecule, donor type, donor heavy atom, donor atom, acceptor molecule, acceptor atom, score
      L1  H     5    27       P1  8028  0.86
      L1  H    14    38       P1  8028  2.00

> <Gold.PLP.Chemscore.Internal.Correction>
0.1660

> <Gold.Rescore>
     Score         DG    S(hbond)    S(metal)    S(lipo)     H(rot)  DE(clash)    DE(int)     intcor
     13.84     -15.88       1.67        0.00      79.05       1.73       0.06       1.98       ----

> <Gold.Chemscore.Fitness>
13.8396

> <Gold.Chemscore.DG>
-15.8751

> <Gold.Chemscore.ZeroCoef>
-5.4800

> <Gold.Chemscore.Hbond>
1.6670

> <Gold.Chemscore.Metal>
0.0000

> <Gold.Chemscore.Lipo>
79.0474

> <Gold.Chemscore.Internal_Hbond>
0.0000

> <Gold.Chemscore.DEClash>
0.0556

> <Gold.Chemscore.DEInternal>
1.9798

> <Gold.Chemscore.Rot>
1.7270

> <Gold.Chemscore.Internal.Correction>
   9.000000E+99

> <Gold.Chemscore.Hbonds>
donor molecule, donor type, donor heavy atom, donor atom, acceptor molecule, acceptor atom, score
      L1  H     5    27       P1  8028  0.85
      L1  H    14    38       P1  8028  0.35

> <Gold.Chemscore.Hbond.Weighted>
-5.5677

> <Gold.Chemscore.Metal.Weighted>
-0.0000

> <Gold.Chemscore.Lipo.Weighted>
-9.2485

> <Gold.Chemscore.Internal_Hbond.Weighted>
0.0000

> <Gold.Chemscore.DEClash.Weighted>
0.0556

> <Gold.Chemscore.DEInternal.Weighted>
1.9798

> <Gold.Chemscore.Rot.Weighted>
4.4212

> <Gold.Chemscore.Internal.Correction.Weighted>
   9.000000E+99

> <Gold.Protein.RotatedTorsions>
[ 6907 6896 6895 6894 ] final   79.57 input  -60.11 | X-H torsion
[ 7974 7965 7964 7962 ] final    2.46 input  175.53 | X-H torsion
[ 8008 7997 7996 7995 ] final -130.36 input   59.86 | X-H torsion
[ 10167 10162 10161 10158 ] final  143.33 input  -65.29 | X-H torsion
[ 10718 10713 10712 10709 ] final  -40.24 input   66.30 | X-H torsion
[ 10763 10752 10751 10750 ] final -109.74 input  -60.55 | X-H torsion
[ 11005 11000 10999 10996 ] final  117.12 input  -57.11 | X-H torsion

> <Gold.Protein.ActiveResidues>
 VAL166  LYS551  ARG553  GLY616  TRP617  ASP618  TYR619  PRO620  LYS621  CYS622 
 ASP623  PHE694  ASN695  SER759  ASP760  ASP761  ALA762  ILE779  LEU786  VAL792 
 PHE793  MET794  SER795  GLU796  ALA797  LYS798  CYS799  TRP800  GLU811  SER814 

> <Gold.Protein.RotatedAtoms>
  152.5203  134.3491  159.9244 H   0  0  0  0  0  0  0  0  0  0  0  0  # atno 6907 bound_to 6896
  151.3441  133.3944  159.2681 H   0  0  0  0  0  0  0  0  0  0  0  0  # atno 6908 bound_to 6896
  150.9779  134.9158  159.7885 H   0  0  0  0  0  0  0  0  0  0  0  0  # atno 6909 bound_to 6896
  146.2444  140.0833  142.8356 H   0  0  0  0  0  0  0  0  0  0  0  0  # atno 7974 bound_to 7965
  155.2944  140.0450  157.3025 H   0  0  0  0  0  0  0  0  0  0  0  0  # atno 8008 bound_to 7997
  154.5522  140.2321  155.8434 H   0  0  0  0  0  0  0  0  0  0  0  0  # atno 8009 bound_to 7997
  156.1977  140.3034  155.9468 H   0  0  0  0  0  0  0  0  0  0  0  0  # atno 8010 bound_to 7997
  139.4972  144.6048  151.6403 H   0  0  0  0  0  0  0  0  0  0  0  0  # atno 10167 bound_to 10162
  156.2835  130.4220  149.8312 H   0  0  0  0  0  0  0  0  0  0  0  0  # atno 10718 bound_to 10713
  154.8210  135.4590  154.0778 H   0  0  0  0  0  0  0  0  0  0  0  0  # atno 10763 bound_to 10752
  153.2132  135.6884  153.8095 H   0  0  0  0  0  0  0  0  0  0  0  0  # atno 10764 bound_to 10752
  153.7539  135.3294  155.3302 H   0  0  0  0  0  0  0  0  0  0  0  0  # atno 10765 bound_to 10752
  139.9064  134.9606  156.7302 H   0  0  0  0  0  0  0  0  0  0  0  0  # atno 11005 bound_to 11000
  145.0714  140.9158  143.4880 LP  0  0  0  0  0  0  0  0  0  0  0  0  # atno 17320 bound_to 7965
  145.0968  139.2851  143.5707 LP  0  0  0  0  0  0  0  0  0  0  0  0  # atno 17321 bound_to 7965
  140.5706  144.0114  150.6215 LP  0  0  0  0  0  0  0  0  0  0  0  0  # atno 17342 bound_to 10162
  140.3231  143.3125  152.0764 LP  0  0  0  0  0  0  0  0  0  0  0  0  # atno 17343 bound_to 10162
  156.5750  130.8441  151.3367 LP  0  0  0  0  0  0  0  0  0  0  0  0  # atno 17370 bound_to 10713
  157.7322  130.9711  150.1915 LP  0  0  0  0  0  0  0  0  0  0  0  0  # atno 17371 bound_to 10713
  140.6931  133.9373  155.7978 LP  0  0  0  0  0  0  0  0  0  0  0  0  # atno 17394 bound_to 11000
  141.0427  134.0598  157.3882 LP  0  0  0  0  0  0  0  0  0  0  0  0  # atno 17395 bound_to 11000

$$$$
