AV-unprocessed.smi:3141|AV-procd|sdf|11963|dock8
  -GOLD-   2272017363D 1   1.00000     0.00000
 Structure written by MMmdl.
 36 38  0  0  0  0  0  0  0  0  2 V2000
  150.2330  142.6076  159.1956 O   0  0  0  0  0  0  0  0  0  0  0  0
  150.0130  143.1563  158.1155 C   0  0  0  0  0  0  0  0  0  0  0  0
  150.8550  144.0083  157.5170 N   0  0  0  0  0  0  0  0  0  0  0  0
  152.1284  144.4044  158.0251 C   0  0  0  0  0  0  0  0  0  0  0  0
  152.8584  143.4341  158.9280 C   0  0  0  0  0  0  0  0  0  0  0  0
  152.2379  144.6739  159.5100 C   0  0  0  0  0  0  0  0  0  0  0  0
  148.9075  142.9545  157.3838 N   0  0  0  0  0  0  0  0  0  0  0  0
  147.7884  142.0847  157.7540 C   0  0  1  0  0  0  0  0  0  0  0  0
  146.6187  142.9406  158.2834 C   0  0  0  0  0  0  0  0  0  0  0  0
  145.4839  142.8422  157.2510 C   0  0  0  0  0  0  0  0  0  0  0  0
  146.1160  142.2449  155.9943 C   0  0  0  0  0  0  0  0  0  0  0  0
  147.1945  141.3136  156.5537 C   0  0  1  0  0  0  0  0  0  0  0  0
  148.1720  140.8138  155.5690 N   0  0  0  0  0  0  0  0  0  0  0  0
  149.2134  139.9368  155.7575 C   0  0  0  0  0  0  0  0  0  0  0  0
  149.7972  139.7502  154.5312 C   0  0  0  0  0  0  0  0  0  0  0  0
  149.0860  140.5104  153.6436 N   0  3  0  0  0  0  0  0  0  0  0  0
  148.0979  141.1521  154.2745 C   0  0  0  0  0  0  0  0  0  0  0  0
  150.5789  144.4054  156.6308 H   0  0  0  0  0  0  0  0  0  0  0  0
  152.7545  145.0200  157.3809 H   0  0  0  0  0  0  0  0  0  0  0  0
  152.3787  142.4822  159.1478 H   0  0  0  0  0  0  0  0  0  0  0  0
  153.9436  143.4020  158.8554 H   0  0  0  0  0  0  0  0  0  0  0  0
  152.9089  145.4697  159.8269 H   0  0  0  0  0  0  0  0  0  0  0  0
  151.3442  144.5490  160.1185 H   0  0  0  0  0  0  0  0  0  0  0  0
  148.8234  143.4508  156.5085 H   0  0  0  0  0  0  0  0  0  0  0  0
  148.1115  141.3842  158.5265 H   0  0  0  0  0  0  0  0  0  0  0  0
  146.2767  142.5748  159.2524 H   0  0  0  0  0  0  0  0  0  0  0  0
  146.9145  143.9812  158.4290 H   0  0  0  0  0  0  0  0  0  0  0  0
  144.7102  142.1698  157.6241 H   0  0  0  0  0  0  0  0  0  0  0  0
  145.0130  143.8065  157.0577 H   0  0  0  0  0  0  0  0  0  0  0  0
  145.3912  141.7245  155.3678 H   0  0  0  0  0  0  0  0  0  0  0  0
  146.5577  143.0484  155.4046 H   0  0  0  0  0  0  0  0  0  0  0  0
  146.6799  140.4347  156.9476 H   0  0  0  0  0  0  0  0  0  0  0  0
  149.4584  139.5127  156.7197 H   0  0  0  0  0  0  0  0  0  0  0  0
  150.6389  139.1434  154.2305 H   0  0  0  0  0  0  0  0  0  0  0  0
  147.3733  141.8068  153.8240 H   0  0  0  0  0  0  0  0  0  0  0  0
  149.2720  140.5726  152.6504 H   0  0  0  0  0  0  0  0  0  0  0  0
  1  2  2  0  0  0  0
  2  3  1  0  0  0  0
  2  7  1  0  0  0  0
  3  4  1  0  0  0  0
  3 18  1  0  0  0  0
  4  6  1  0  0  0  0
  4  5  1  0  0  0  0
  4 19  1  0  0  0  0
  5  6  1  0  0  0  0
  5 20  1  0  0  0  0
  5 21  1  0  0  0  0
  6 22  1  0  0  0  0
  6 23  1  0  0  0  0
  7  8  1  0  0  0  0
  7 24  1  0  0  0  0
  8 12  1  0  0  0  0
  8  9  1  0  0  0  0
  8 25  1  0  0  0  0
  9 10  1  0  0  0  0
  9 26  1  0  0  0  0
  9 27  1  0  0  0  0
 10 11  1  0  0  0  0
 10 28  1  0  0  0  0
 10 29  1  0  0  0  0
 11 12  1  0  0  0  0
 11 30  1  0  0  0  0
 11 31  1  0  0  0  0
 12 13  1  0  0  0  0
 12 32  1  0  0  0  0
 13 17  1  0  0  0  0
 13 14  1  0  0  0  0
 14 15  2  0  0  0  0
 14 33  1  0  0  0  0
 15 16  1  0  0  0  0
 15 34  1  0  0  0  0
 16 17  2  0  0  0  0
 16 36  1  0  0  0  0
 17 35  1  0  0  0  0
M  CHG  1  16   1
M  END
> <s_m_source_file>
AV-unprocessed.smi

> <i_m_source_file_index>
3141

> <i_lp_mmshare_version>
43012

> <i_f3d_flags>
0

> <s_epik_input>
W0NIMl0xW0NIMl1bQ0hdMVtOSF1DKD1PKVtOSF1bQ0BASF0yW0NIMl1bQ0gyXVtDSDJdW0NASF0ybjNbY0hdW2NIXW5bY0hdMw==

> <s_epik_cmdline>
J2VwaWtfcHl0aG9uJywgJy1waCcsICc3LjAnLCAnLXRuJywgJzgnLCAnLW1hJywgJzIwMCcsICctbWV0YWxfYmluZGluZycsICctaW1hZScsICc8aW5maWxlLm1hZT4nLCAnLW9tYWUnLCAnPG91dGZpbGUubWFlPic=

> <r_lp_tautomer_probability>
1

> <r_epik_Ionization_Penalty>
0.205063

> <r_epik_Ionization_Penalty_Charging>
0

> <r_epik_Ionization_Penalty_Neutral>
0.205063

> <r_epik_State_Penalty>
0.194948

> <r_epik_Charging_Adjusted_Penalty>
0.194948

> <i_epik_Tot_Q>
1

> <i_epik_Tot_abs_Q>
1

> <r_epik_Metal_State_Penalty>
0.500882

> <b_epik_Metal_Only>
0

> <s_lp_Force_Field>
OPLS_2005

> <r_lp_Energy>
36.92

> <b_lp_Chiralities_Consistent>
1

> <s_lp_Variant>
AV-unprocessed.smi:3141-2

> <Gold.Version>
5.8.1

> <Gold.Id.Protein>
6NUR|6NUR_protein|mol2

> <Gold.PLP.Fitness>
39.2968

> <Gold.PLP.PLP>
-32.0695

> <Gold.PLP.part.hbond>
-4.2301

> <Gold.PLP.part.metal>
0.0000

> <Gold.PLP.part.buried>
-3.0530

> <Gold.PLP.part.nonpolar>
-24.9769

> <Gold.PLP.part.repulsive>
0.5745

> <Gold.PLP.ligand.clash>
0.0000

> <Gold.PLP.ligand.torsion>
0.6036

> <Gold.PLP.Chemscore.Hbond>
2.7920

> <Gold.PLP.Chemscore.CHOScore>
0.0000

> <Gold.PLP.Chemscore.Metal>
0.0000

> <Gold.Chemscore.Hbonds>
donor molecule, donor type, donor heavy atom, donor atom, acceptor molecule, acceptor atom, score
      L1  H     3    18       P1  8028  0.75
      L1  H     7    24       P1  8028  0.98
      L1  H    16    36       P1  7957  1.00

> <Gold.PLP.Chemscore.Internal.Correction>
0.0586

> <Gold.Rescore>
     Score         DG    S(hbond)    S(metal)    S(lipo)     H(rot)  DE(clash)    DE(int)     intcor
     13.60     -17.03       2.57        0.00      60.45       1.61       0.04       3.39       ----

> <Gold.Chemscore.Fitness>
13.6003

> <Gold.Chemscore.DG>
-17.0259

> <Gold.Chemscore.ZeroCoef>
-5.4800

> <Gold.Chemscore.Hbond>
2.5725

> <Gold.Chemscore.Metal>
0.0000

> <Gold.Chemscore.Lipo>
60.4465

> <Gold.Chemscore.Internal_Hbond>
0.0000

> <Gold.Chemscore.DEClash>
0.0400

> <Gold.Chemscore.DEInternal>
3.3857

> <Gold.Chemscore.Rot>
1.6088

> <Gold.Chemscore.Internal.Correction>
   9.000000E+99

> <Gold.Chemscore.Hbonds>
donor molecule, donor type, donor heavy atom, donor atom, acceptor molecule, acceptor atom, score
      L1  H     3    18       P1  8028  0.72
      L1  H     7    24       P1  8028  0.77
      L1  H    16    36       P1  7957  0.98

> <Gold.Chemscore.Hbond.Weighted>
-8.5923

> <Gold.Chemscore.Metal.Weighted>
-0.0000

> <Gold.Chemscore.Lipo.Weighted>
-7.0722

> <Gold.Chemscore.Internal_Hbond.Weighted>
0.0000

> <Gold.Chemscore.DEClash.Weighted>
0.0400

> <Gold.Chemscore.DEInternal.Weighted>
3.3857

> <Gold.Chemscore.Rot.Weighted>
4.1186

> <Gold.Chemscore.Internal.Correction.Weighted>
   9.000000E+99

> <Gold.Protein.RotatedTorsions>
[ 6907 6896 6895 6894 ] final   10.32 input  -60.11 | X-H torsion
[ 7974 7965 7964 7962 ] final   66.67 input  175.53 | X-H torsion
[ 8008 7997 7996 7995 ] final -165.49 input   59.86 | X-H torsion
[ 10167 10162 10161 10158 ] final -134.33 input  -65.29 | X-H torsion
[ 10718 10713 10712 10709 ] final  107.96 input   66.30 | X-H torsion
[ 10763 10752 10751 10750 ] final  116.59 input  -60.55 | X-H torsion
[ 11005 11000 10999 10996 ] final   95.10 input  -57.11 | X-H torsion

> <Gold.Protein.ActiveResidues>
 VAL166  LYS551  ARG553  GLY616  TRP617  ASP618  TYR619  PRO620  LYS621  CYS622 
 ASP623  PHE694  ASN695  SER759  ASP760  ASP761  ALA762  ILE779  LEU786  VAL792 
 PHE793  MET794  SER795  GLU796  ALA797  LYS798  CYS799  TRP800  GLU811  SER814 

> <Gold.Protein.RotatedAtoms>
  151.7364  135.0864  160.0308 H   0  0  0  0  0  0  0  0  0  0  0  0  # atno 6907 bound_to 6896
  152.3508  133.6173  159.5951 H   0  0  0  0  0  0  0  0  0  0  0  0  # atno 6908 bound_to 6896
  150.7538  133.9494  159.3522 H   0  0  0  0  0  0  0  0  0  0  0  0  # atno 6909 bound_to 6896
  145.8238  139.3100  143.1027 H   0  0  0  0  0  0  0  0  0  0  0  0  # atno 7974 bound_to 7965
  155.8506  140.0962  157.1677 H   0  0  0  0  0  0  0  0  0  0  0  0  # atno 8008 bound_to 7997
  154.3985  140.1384  156.3901 H   0  0  0  0  0  0  0  0  0  0  0  0  # atno 8009 bound_to 7997
  155.7966  140.3454  155.5381 H   0  0  0  0  0  0  0  0  0  0  0  0  # atno 8010 bound_to 7997
  139.8891  143.6744  152.2615 H   0  0  0  0  0  0  0  0  0  0  0  0  # atno 10167 bound_to 10162
  157.6606  131.0884  150.6235 H   0  0  0  0  0  0  0  0  0  0  0  0  # atno 10718 bound_to 10713
  153.5395  135.3562  155.2712 H   0  0  0  0  0  0  0  0  0  0  0  0  # atno 10763 bound_to 10752
  154.8719  135.4087  154.3060 H   0  0  0  0  0  0  0  0  0  0  0  0  # atno 10764 bound_to 10752
  153.3764  135.7066  153.6666 H   0  0  0  0  0  0  0  0  0  0  0  0  # atno 10765 bound_to 10752
  139.8792  134.8881  156.3961 H   0  0  0  0  0  0  0  0  0  0  0  0  # atno 11005 bound_to 11000
  145.9646  140.8809  143.0193 LP  0  0  0  0  0  0  0  0  0  0  0  0  # atno 17320 bound_to 7965
  144.6745  140.1860  143.7401 LP  0  0  0  0  0  0  0  0  0  0  0  0  # atno 17321 bound_to 7965
  139.7126  144.7617  151.1087 LP  0  0  0  0  0  0  0  0  0  0  0  0  # atno 17342 bound_to 10162
  140.7730  143.5311  150.9422 LP  0  0  0  0  0  0  0  0  0  0  0  0  # atno 17343 bound_to 10162
  156.6538  130.4492  149.5710 LP  0  0  0  0  0  0  0  0  0  0  0  0  # atno 17370 bound_to 10713
  156.2118  130.6683  151.1277 LP  0  0  0  0  0  0  0  0  0  0  0  0  # atno 17371 bound_to 10713
  140.9299  133.7586  156.0012 LP  0  0  0  0  0  0  0  0  0  0  0  0  # atno 17394 bound_to 11000
  140.8342  134.3142  157.5337 LP  0  0  0  0  0  0  0  0  0  0  0  0  # atno 17395 bound_to 11000

$$$$
