AV-unprocessed.smi:3350|AV-procd|sdf|12945|dock4
  -GOLD-   2272019383D 1   1.00000     0.00000
 Structure written by MMmdl.
 41 42  0  0  0  0  0  0  0  0  1 V2000
  144.5189  135.7160  153.3939 C   0  0  0  0  0  0  0  0  0  0  0  0
  144.5829  136.6539  152.1809 C   0  0  2  0  0  0  0  0  0  0  0  0
  145.6429  136.1817  151.1618 C   0  0  0  0  0  0  0  0  0  0  0  0
  145.5546  134.7615  150.8706 N   0  0  0  0  0  0  0  0  0  0  0  0
  144.4754  134.0506  150.3894 C   0  0  0  0  0  0  0  0  0  0  0  0
  144.8606  132.7447  150.2895 C   0  0  0  0  0  0  0  0  0  0  0  0
  146.2131  132.7573  150.7309 C   0  0  0  0  0  0  0  0  0  0  0  0
  146.6275  133.9666  151.0724 N   0  0  0  0  0  0  0  0  0  0  0  0
  144.8741  138.0100  152.6456 N   0  0  0  0  0  0  0  0  0  0  0  0
  145.8859  138.3578  153.4540 C   0  0  0  0  0  0  0  0  0  0  0  0
  146.7190  137.5680  153.8981 O   0  0  0  0  0  0  0  0  0  0  0  0
  145.8645  139.6682  153.7373 N   0  0  0  0  0  0  0  0  0  0  0  0
  146.8009  140.3668  154.6166 C   0  0  1  0  0  0  0  0  0  0  0  0
  148.1966  140.3357  153.9765 C   0  0  0  0  0  0  0  0  0  0  0  0
  146.3232  141.8104  154.8825 C   0  0  1  0  0  0  0  0  0  0  0  0
  146.1308  142.6726  153.6317 C   0  0  0  0  0  0  0  0  0  0  0  0
  145.1148  143.6852  154.1044 C   0  0  0  0  0  0  0  0  0  0  0  0
  144.2096  142.8218  154.9752 C   0  0  0  0  0  0  0  0  0  0  0  0
  145.0466  141.8053  155.5201 O   0  0  0  0  0  0  0  0  0  0  0  0
  144.2725  134.6982  153.0891 H   0  0  0  0  0  0  0  0  0  0  0  0
  143.7550  136.0399  154.1014 H   0  0  0  0  0  0  0  0  0  0  0  0
  145.4721  135.6832  153.9228 H   0  0  0  0  0  0  0  0  0  0  0  0
  143.6007  136.6287  151.7052 H   0  0  0  0  0  0  0  0  0  0  0  0
  145.5494  136.7369  150.2275 H   0  0  0  0  0  0  0  0  0  0  0  0
  146.6452  136.3834  151.5426 H   0  0  0  0  0  0  0  0  0  0  0  0
  143.5310  134.5264  150.1699 H   0  0  0  0  0  0  0  0  0  0  0  0
  144.2662  131.9077  149.9545 H   0  0  0  0  0  0  0  0  0  0  0  0
  146.9020  131.9295  150.8120 H   0  0  0  0  0  0  0  0  0  0  0  0
  144.2461  138.7374  152.3369 H   0  0  0  0  0  0  0  0  0  0  0  0
  145.1354  140.2285  153.3209 H   0  0  0  0  0  0  0  0  0  0  0  0
  146.8677  139.8445  155.5728 H   0  0  0  0  0  0  0  0  0  0  0  0
  148.9361  140.8133  154.6196 H   0  0  0  0  0  0  0  0  0  0  0  0
  148.2067  140.8544  153.0173 H   0  0  0  0  0  0  0  0  0  0  0  0
  148.5267  139.3106  153.8052 H   0  0  0  0  0  0  0  0  0  0  0  0
  147.0203  142.3173  155.5518 H   0  0  0  0  0  0  0  0  0  0  0  0
  147.0574  143.1297  153.2848 H   0  0  0  0  0  0  0  0  0  0  0  0
  145.7121  142.0831  152.8148 H   0  0  0  0  0  0  0  0  0  0  0  0
  145.6018  144.4525  154.7078 H   0  0  0  0  0  0  0  0  0  0  0  0
  144.5829  144.1744  153.2880 H   0  0  0  0  0  0  0  0  0  0  0  0
  143.7150  143.3948  155.7596 H   0  0  0  0  0  0  0  0  0  0  0  0
  143.4405  142.3447  154.3670 H   0  0  0  0  0  0  0  0  0  0  0  0
  1  2  1  0  0  0  0
  1 20  1  0  0  0  0
  1 21  1  0  0  0  0
  1 22  1  0  0  0  0
  2  3  1  0  0  0  0
  2  9  1  0  0  0  0
  2 23  1  0  0  0  0
  3  4  1  0  0  0  0
  3 24  1  0  0  0  0
  3 25  1  0  0  0  0
  4  8  1  0  0  0  0
  4  5  1  0  0  0  0
  5  6  2  0  0  0  0
  5 26  1  0  0  0  0
  6  7  1  0  0  0  0
  6 27  1  0  0  0  0
  7  8  2  0  0  0  0
  7 28  1  0  0  0  0
  9 10  1  0  0  0  0
  9 29  1  0  0  0  0
 10 11  2  0  0  0  0
 10 12  1  0  0  0  0
 12 13  1  0  0  0  0
 12 30  1  0  0  0  0
 13 14  1  0  0  0  0
 13 15  1  0  0  0  0
 13 31  1  0  0  0  0
 14 32  1  0  0  0  0
 14 33  1  0  0  0  0
 14 34  1  0  0  0  0
 15 19  1  0  0  0  0
 15 16  1  0  0  0  0
 15 35  1  0  0  0  0
 16 17  1  0  0  0  0
 16 36  1  0  0  0  0
 16 37  1  0  0  0  0
 17 18  1  0  0  0  0
 17 38  1  0  0  0  0
 17 39  1  0  0  0  0
 18 19  1  0  0  0  0
 18 40  1  0  0  0  0
 18 41  1  0  0  0  0
M  END
> <s_m_source_file>
AV-unprocessed.smi

> <i_m_source_file_index>
3350

> <i_lp_mmshare_version>
43012

> <i_f3d_flags>
0

> <s_epik_input>
bjFbY0hdW2NIXVtjSF1uMVtDSDJdW0NAQEhdKFtDSDNdKVtOSF1DKD1PKVtOSF1bQ0BIXShbQ0gzXSlbQ0BASF0yW0NIMl1bQ0gyXVtDSDJdTzI=

> <s_epik_cmdline>
J2VwaWtfcHl0aG9uJywgJy1waCcsICc3LjAnLCAnLXRuJywgJzgnLCAnLW1hJywgJzIwMCcsICctbWV0YWxfYmluZGluZycsICctaW1hZScsICc8aW5maWxlLm1hZT4nLCAnLW9tYWUnLCAnPG91dGZpbGUubWFlPic=

> <r_lp_tautomer_probability>
1

> <r_epik_Ionization_Penalty>
6.42349e-05

> <r_epik_Ionization_Penalty_Charging>
0

> <r_epik_Ionization_Penalty_Neutral>
6.42349e-05

> <r_epik_State_Penalty>
-0

> <r_epik_Charging_Adjusted_Penalty>
0

> <i_epik_Tot_Q>
0

> <i_epik_Tot_abs_Q>
0

> <r_epik_Metal_State_Penalty>
-0

> <b_epik_Metal_Only>
0

> <s_lp_Force_Field>
OPLS_2005

> <r_lp_Energy>
14.6241

> <b_lp_Chiralities_Consistent>
1

> <s_lp_Variant>
AV-unprocessed.smi:3350-7

> <Gold.Version>
5.8.1

> <Gold.Id.Protein>
6NUR|6NUR_protein|mol2

> <Gold.PLP.Fitness>
43.7323

> <Gold.PLP.PLP>
-32.1719

> <Gold.PLP.part.hbond>
-2.8176

> <Gold.PLP.part.metal>
0.0000

> <Gold.PLP.part.buried>
-4.4628

> <Gold.PLP.part.nonpolar>
-25.4346

> <Gold.PLP.part.repulsive>
0.4467

> <Gold.PLP.ligand.clash>
0.0000

> <Gold.PLP.ligand.torsion>
0.2344

> <Gold.PLP.Chemscore.Hbond>
2.0000

> <Gold.PLP.Chemscore.CHOScore>
2.0000

> <Gold.PLP.Chemscore.Metal>
0.0000

> <Gold.Chemscore.Hbonds>
donor molecule, donor type, donor heavy atom, donor atom, acceptor molecule, acceptor atom, score
      L1  H     9    29       P1 10175  1.00
      L1  H    12    30       P1 10175  1.00
      L1  C     5    26       P1 10186  0.84
      L1  C     7    28       P1 10747  1.00

> <Gold.PLP.Chemscore.Internal.Correction>
0.0291

> <Gold.Rescore>
     Score         DG    S(hbond)    S(metal)    S(lipo)     H(rot)  DE(clash)    DE(int)     intcor
     13.20     -14.85       1.96        0.00      63.87       1.82       0.05       1.59       ----

> <Gold.Chemscore.Fitness>
13.1995

> <Gold.Chemscore.DG>
-14.8453

> <Gold.Chemscore.ZeroCoef>
-5.4800

> <Gold.Chemscore.Hbond>
1.9614

> <Gold.Chemscore.Metal>
0.0000

> <Gold.Chemscore.Lipo>
63.8697

> <Gold.Chemscore.Internal_Hbond>
0.0000

> <Gold.Chemscore.DEClash>
0.0547

> <Gold.Chemscore.DEInternal>
1.5911

> <Gold.Chemscore.Rot>
1.8197

> <Gold.Chemscore.Internal.Correction>
   9.000000E+99

> <Gold.Chemscore.Hbonds>
donor molecule, donor type, donor heavy atom, donor atom, acceptor molecule, acceptor atom, score
      L1  H     9    29       P1 10175  0.94
      L1  H    12    30       P1 10175  0.98

> <Gold.Chemscore.Hbond.Weighted>
-6.5509

> <Gold.Chemscore.Metal.Weighted>
-0.0000

> <Gold.Chemscore.Lipo.Weighted>
-7.4727

> <Gold.Chemscore.Internal_Hbond.Weighted>
0.0000

> <Gold.Chemscore.DEClash.Weighted>
0.0547

> <Gold.Chemscore.DEInternal.Weighted>
1.5911

> <Gold.Chemscore.Rot.Weighted>
4.6583

> <Gold.Chemscore.Internal.Correction.Weighted>
   9.000000E+99

> <Gold.Protein.RotatedTorsions>
[ 6907 6896 6895 6894 ] final   33.77 input  -60.11 | X-H torsion
[ 7974 7965 7964 7962 ] final  148.68 input  175.53 | X-H torsion
[ 8008 7997 7996 7995 ] final  148.06 input   59.86 | X-H torsion
[ 10167 10162 10161 10158 ] final -161.01 input  -65.29 | X-H torsion
[ 10718 10713 10712 10709 ] final -107.09 input   66.30 | X-H torsion
[ 10763 10752 10751 10750 ] final -106.96 input  -60.55 | X-H torsion
[ 11005 11000 10999 10996 ] final  139.23 input  -57.11 | X-H torsion

> <Gold.Protein.ActiveResidues>
 VAL166  LYS551  ARG553  GLY616  TRP617  ASP618  TYR619  PRO620  LYS621  CYS622 
 ASP623  PHE694  ASN695  SER759  ASP760  ASP761  ALA762  ILE779  LEU786  VAL792 
 PHE793  MET794  SER795  GLU796  ALA797  LYS798  CYS799  TRP800  GLU811  SER814 

> <Gold.Protein.RotatedAtoms>
  152.0931  134.9393  160.0571 H   0  0  0  0  0  0  0  0  0  0  0  0  # atno 6907 bound_to 6896
  152.0637  133.4069  159.4437 H   0  0  0  0  0  0  0  0  0  0  0  0  # atno 6908 bound_to 6896
  150.6837  134.3091  159.4782 H   0  0  0  0  0  0  0  0  0  0  0  0  # atno 6909 bound_to 6896
  144.8495  139.6184  143.5980 H   0  0  0  0  0  0  0  0  0  0  0  0  # atno 7974 bound_to 7965
  156.2804  140.2139  156.5638 H   0  0  0  0  0  0  0  0  0  0  0  0  # atno 8008 bound_to 7997
  154.7191  140.0505  157.0645 H   0  0  0  0  0  0  0  0  0  0  0  0  # atno 8009 bound_to 7997
  155.0503  140.3155  155.4697 H   0  0  0  0  0  0  0  0  0  0  0  0  # atno 8010 bound_to 7997
  139.6497  144.0107  152.2152 H   0  0  0  0  0  0  0  0  0  0  0  0  # atno 10167 bound_to 10162
  156.0420  130.5645  150.7773 H   0  0  0  0  0  0  0  0  0  0  0  0  # atno 10718 bound_to 10713
  154.8045  135.4693  154.0358 H   0  0  0  0  0  0  0  0  0  0  0  0  # atno 10763 bound_to 10752
  153.1837  135.6844  153.8450 H   0  0  0  0  0  0  0  0  0  0  0  0  # atno 10764 bound_to 10752
  153.7991  135.3232  155.3365 H   0  0  0  0  0  0  0  0  0  0  0  0  # atno 10765 bound_to 10752
  140.0240  134.9383  157.0530 H   0  0  0  0  0  0  0  0  0  0  0  0  # atno 11005 bound_to 11000
  146.2773  139.6785  142.9254 LP  0  0  0  0  0  0  0  0  0  0  0  0  # atno 17320 bound_to 7965
  145.4528  141.0429  143.2795 LP  0  0  0  0  0  0  0  0  0  0  0  0  # atno 17321 bound_to 7965
  139.9818  144.6423  150.7893 LP  0  0  0  0  0  0  0  0  0  0  0  0  # atno 17342 bound_to 10162
  140.7531  143.3003  151.3097 LP  0  0  0  0  0  0  0  0  0  0  0  0  # atno 17343 bound_to 10162
  157.5250  131.0933  151.0029 LP  0  0  0  0  0  0  0  0  0  0  0  0  # atno 17370 bound_to 10713
  157.0350  130.5726  149.5348 LP  0  0  0  0  0  0  0  0  0  0  0  0  # atno 17371 bound_to 10713
  140.4339  134.1752  155.7169 LP  0  0  0  0  0  0  0  0  0  0  0  0  # atno 17394 bound_to 11000
  141.1791  133.8452  157.1320 LP  0  0  0  0  0  0  0  0  0  0  0  0  # atno 17395 bound_to 11000

$$$$
