AV-unprocessed.smi:1401|AV-procd|sdf|5688|dock10
  -GOLD-   22720 5313D 1   1.00000     0.00000
 Structure written by MMmdl.
 48 50  0  0  0  0  0  0  0  0  1 V2000
  150.0640  140.7125  158.1956 C   0  0  0  0  0  0  0  0  0  0  0  0
  150.0617  139.2087  158.1414 C   0  0  0  0  0  0  0  0  0  0  0  0
  148.9471  138.6200  158.4259 N   0  0  0  0  0  0  0  0  0  0  0  0
  148.8301  137.2433  158.3926 N   0  0  0  0  0  0  0  0  0  0  0  0
  147.4702  136.7551  158.6794 C   0  0  0  0  0  0  0  0  0  0  0  0
  147.2055  136.4441  160.1634 C   0  0  0  0  0  0  0  0  0  0  0  0
  147.6173  137.2216  161.0235 O   0  0  0  0  0  0  0  0  0  0  0  0
  146.5105  135.3321  160.4568 N   0  0  0  0  0  0  0  0  0  0  0  0
  146.0762  134.9036  161.7817 C   0  0  2  0  0  0  0  0  0  0  0  0
  147.1588  134.0263  162.4334 C   0  0  0  0  0  0  0  0  0  0  0  0
  144.7255  134.1626  161.6403 C   0  0  2  0  0  0  0  0  0  0  0  0
  143.8567  134.6112  160.4416 C   0  0  0  0  0  0  0  0  0  0  0  0
  142.4723  134.8274  161.0804 C   0  0  2  0  0  0  0  0  0  0  0  0
  142.4984  136.1273  161.9046 C   0  0  0  0  0  0  0  0  0  0  0  0
  143.3504  135.7355  163.1257 C   0  0  0  0  0  0  0  0  0  0  0  0
  143.7318  134.2715  162.8232 C   0  0  1  0  0  0  0  0  0  0  0  0
  142.4488  133.7635  162.1722 C   0  0  0  0  0  0  0  0  0  0  0  0
  149.8424  136.3861  158.0733 C   0  0  0  0  0  0  0  0  0  0  0  0
  149.6893  135.1647  158.0351 O   0  0  0  0  0  0  0  0  0  0  0  0
  151.1059  137.0597  157.7645 C   0  0  0  0  0  0  0  0  0  0  0  0
  152.1928  136.1990  157.4250 C   0  0  0  0  0  0  0  0  0  0  0  0
  153.0607  135.4849  157.1477 N   0  0  0  0  0  0  0  0  0  0  0  0
  151.2312  138.4102  157.7896 C   0  0  0  0  0  0  0  0  0  0  0  0
  152.5173  139.1582  157.4666 C   0  0  0  0  0  0  0  0  0  0  0  0
  150.7640  141.0714  158.9502 H   0  0  0  0  0  0  0  0  0  0  0  0
  149.0795  141.1124  158.4428 H   0  0  0  0  0  0  0  0  0  0  0  0
  150.3559  141.1340  157.2336 H   0  0  0  0  0  0  0  0  0  0  0  0
  146.7192  137.4674  158.3340 H   0  0  0  0  0  0  0  0  0  0  0  0
  147.2842  135.8450  158.1064 H   0  0  0  0  0  0  0  0  0  0  0  0
  146.2191  134.7520  159.6836 H   0  0  0  0  0  0  0  0  0  0  0  0
  145.9346  135.7975  162.3895 H   0  0  0  0  0  0  0  0  0  0  0  0
  146.8709  133.7270  163.4412 H   0  0  0  0  0  0  0  0  0  0  0  0
  148.1061  134.5599  162.5151 H   0  0  0  0  0  0  0  0  0  0  0  0
  147.3371  133.1198  161.8542 H   0  0  0  0  0  0  0  0  0  0  0  0
  144.9497  133.1024  161.5058 H   0  0  0  0  0  0  0  0  0  0  0  0
  144.2236  135.5199  159.9625 H   0  0  0  0  0  0  0  0  0  0  0  0
  143.8230  133.8298  159.6812 H   0  0  0  0  0  0  0  0  0  0  0  0
  141.6487  134.7783  160.3674 H   0  0  0  0  0  0  0  0  0  0  0  0
  142.9268  136.9622  161.3487 H   0  0  0  0  0  0  0  0  0  0  0  0
  141.4925  136.4130  162.2148 H   0  0  0  0  0  0  0  0  0  0  0  0
  144.2092  136.3891  163.2714 H   0  0  0  0  0  0  0  0  0  0  0  0
  142.7494  135.7893  164.0344 H   0  0  0  0  0  0  0  0  0  0  0  0
  144.0393  133.7098  163.7058 H   0  0  0  0  0  0  0  0  0  0  0  0
  141.5753  133.8306  162.8235 H   0  0  0  0  0  0  0  0  0  0  0  0
  142.5286  132.7456  161.7866 H   0  0  0  0  0  0  0  0  0  0  0  0
  153.3487  138.4832  157.2665 H   0  0  0  0  0  0  0  0  0  0  0  0
  152.8107  139.7968  158.3002 H   0  0  0  0  0  0  0  0  0  0  0  0
  152.3823  139.7845  156.5843 H   0  0  0  0  0  0  0  0  0  0  0  0
  1  2  1  0  0  0  0
  1 25  1  0  0  0  0
  1 26  1  0  0  0  0
  1 27  1  0  0  0  0
  2 23  1  0  0  0  0
  2  3  2  0  0  0  0
  3  4  1  0  0  0  0
  4  5  1  0  0  0  0
  4 18  1  0  0  0  0
  5  6  1  0  0  0  0
  5 28  1  0  0  0  0
  5 29  1  0  0  0  0
  6  7  2  0  0  0  0
  6  8  1  0  0  0  0
  8  9  1  0  0  0  0
  8 30  1  0  0  0  0
  9 10  1  0  0  0  0
  9 11  1  0  0  0  0
  9 31  1  0  0  0  0
 10 32  1  0  0  0  0
 10 33  1  0  0  0  0
 10 34  1  0  0  0  0
 11 16  1  0  0  0  0
 11 12  1  0  0  0  0
 11 35  1  0  0  0  0
 12 13  1  0  0  0  0
 12 36  1  0  0  0  0
 12 37  1  0  0  0  0
 13 17  1  0  0  0  0
 13 14  1  0  0  0  0
 13 38  1  0  0  0  0
 14 15  1  0  0  0  0
 14 39  1  0  0  0  0
 14 40  1  0  0  0  0
 15 16  1  0  0  0  0
 15 41  1  0  0  0  0
 15 42  1  0  0  0  0
 16 17  1  0  0  0  0
 16 43  1  0  0  0  0
 17 44  1  0  0  0  0
 17 45  1  0  0  0  0
 18 19  2  0  0  0  0
 18 20  1  0  0  0  0
 20 21  1  0  0  0  0
 20 23  2  0  0  0  0
 21 22  3  0  0  0  0
 23 24  1  0  0  0  0
 24 46  1  0  0  0  0
 24 47  1  0  0  0  0
 24 48  1  0  0  0  0
M  END
> <s_m_source_file>
AV-unprocessed.smi

> <i_m_source_file_index>
1401

> <i_lp_mmshare_version>
43012

> <i_f3d_flags>
0

> <s_epik_input>
TiNDYyhjMVtDSDNdKWMoPU8pbihuYzFbQ0gzXSlbQ0gyXUMoPU8pW05IXVtDQEhdKFtDSDNdKVtDQEhdKFtDSDJdW0NASF0yMylbQ0BIXShbQ0gyXTMpW0NIMl1bQ0gyXTI=

> <s_epik_cmdline>
J2VwaWtfcHl0aG9uJywgJy1waCcsICc3LjAnLCAnLXRuJywgJzgnLCAnLW1hJywgJzIwMCcsICctbWV0YWxfYmluZGluZycsICctaW1hZScsICc8aW5maWxlLm1hZT4nLCAnLW9tYWUnLCAnPG91dGZpbGUubWFlPic=

> <r_lp_tautomer_probability>
1

> <r_epik_Ionization_Penalty>
2.16501e-08

> <r_epik_Ionization_Penalty_Charging>
2.29436e-11

> <r_epik_Ionization_Penalty_Neutral>
2.16271e-08

> <r_epik_State_Penalty>
-0

> <r_epik_Charging_Adjusted_Penalty>
2.29436e-11

> <i_epik_Tot_Q>
0

> <i_epik_Tot_abs_Q>
0

> <r_epik_Metal_State_Penalty>
-0

> <b_epik_Metal_Only>
0

> <s_lp_Force_Field>
OPLS_2005

> <r_lp_Energy>
65.8104

> <b_lp_Chiralities_Consistent>
1

> <s_lp_Variant>
AV-unprocessed.smi:1401-1

> <Gold.Version>
5.8.1

> <Gold.Id.Protein>
6NUR|6NUR_protein|mol2

> <Gold.PLP.Fitness>
38.4118

> <Gold.PLP.PLP>
-30.4333

> <Gold.PLP.part.hbond>
-4.6061

> <Gold.PLP.part.metal>
0.0000

> <Gold.PLP.part.buried>
-4.4984

> <Gold.PLP.part.nonpolar>
-21.1992

> <Gold.PLP.part.repulsive>
0.0073

> <Gold.PLP.ligand.clash>
0.0000

> <Gold.PLP.ligand.torsion>
1.7539

> <Gold.PLP.Chemscore.Hbond>
3.8240

> <Gold.PLP.Chemscore.CHOScore>
0.0000

> <Gold.PLP.Chemscore.Metal>
0.0000

> <Gold.Chemscore.Hbonds>
donor molecule, donor type, donor heavy atom, donor atom, acceptor molecule, acceptor atom, score
      P1  H  6896  6909       L1    19  1.00
      P1  H  6931  6943       L1     7  0.86
      P1  H  6934  6947       L1     7  0.93
      P1  H 10752 10764       L1    22  1.00

> <Gold.PLP.Chemscore.Internal.Correction>
0.0143

> <Gold.Rescore>
     Score         DG    S(hbond)    S(metal)    S(lipo)     H(rot)  DE(clash)    DE(int)     intcor
     20.49     -22.00       3.59        0.00      74.23       1.63       0.03       1.48       ----

> <Gold.Chemscore.Fitness>
20.4906

> <Gold.Chemscore.DG>
-21.9972

> <Gold.Chemscore.ZeroCoef>
-5.4800

> <Gold.Chemscore.Hbond>
3.5929

> <Gold.Chemscore.Metal>
0.0000

> <Gold.Chemscore.Lipo>
74.2274

> <Gold.Chemscore.Internal_Hbond>
0.0000

> <Gold.Chemscore.DEClash>
0.0272

> <Gold.Chemscore.DEInternal>
1.4794

> <Gold.Chemscore.Rot>
1.6281

> <Gold.Chemscore.Internal.Correction>
   9.000000E+99

> <Gold.Chemscore.Hbonds>
donor molecule, donor type, donor heavy atom, donor atom, acceptor molecule, acceptor atom, score
      P1  H  6896  6909       L1    19  0.72
      P1  H  6931  6943       L1     7  0.84
      P1  H  6934  6947       L1     7  0.88
      P1  H 10752 10764       L1    22  0.80

> <Gold.Chemscore.Hbond.Weighted>
-12.0004

> <Gold.Chemscore.Metal.Weighted>
-0.0000

> <Gold.Chemscore.Lipo.Weighted>
-8.6846

> <Gold.Chemscore.Internal_Hbond.Weighted>
0.0000

> <Gold.Chemscore.DEClash.Weighted>
0.0272

> <Gold.Chemscore.DEInternal.Weighted>
1.4794

> <Gold.Chemscore.Rot.Weighted>
4.1678

> <Gold.Chemscore.Internal.Correction.Weighted>
   9.000000E+99

> <Gold.Protein.RotatedTorsions>
[ 6907 6896 6895 6894 ] final   34.22 input  -60.11 | X-H torsion
[ 7974 7965 7964 7962 ] final   92.27 input  175.53 | X-H torsion
[ 8008 7997 7996 7995 ] final -175.19 input   59.86 | X-H torsion
[ 10167 10162 10161 10158 ] final  164.54 input  -65.29 | X-H torsion
[ 10718 10713 10712 10709 ] final  136.89 input   66.30 | X-H torsion
[ 10763 10752 10751 10750 ] final  -14.55 input  -60.55 | X-H torsion
[ 11005 11000 10999 10996 ] final  157.28 input  -57.11 | X-H torsion

> <Gold.Protein.ActiveResidues>
 VAL166  LYS551  ARG553  GLY616  TRP617  ASP618  TYR619  PRO620  LYS621  CYS622 
 ASP623  PHE694  ASN695  SER759  ASP760  ASP761  ALA762  ILE779  LEU786  VAL792 
 PHE793  MET794  SER795  GLU796  ALA797  LYS798  CYS799  TRP800  GLU811  SER814 

> <Gold.Protein.RotatedAtoms>
  152.0994  134.9352  160.0569 H   0  0  0  0  0  0  0  0  0  0  0  0  # atno 6907 bound_to 6896
  152.0572  133.4041  159.4410 H   0  0  0  0  0  0  0  0  0  0  0  0  # atno 6908 bound_to 6896
  150.6839  134.3161  159.4810 H   0  0  0  0  0  0  0  0  0  0  0  0  # atno 6909 bound_to 6896
  145.4946  139.2276  143.2811 H   0  0  0  0  0  0  0  0  0  0  0  0  # atno 7974 bound_to 7965
  155.9795  140.1179  157.0739 H   0  0  0  0  0  0  0  0  0  0  0  0  # atno 8008 bound_to 7997
  154.4179  140.1147  156.5484 H   0  0  0  0  0  0  0  0  0  0  0  0  # atno 8009 bound_to 7997
  155.6490  140.3473  155.4743 H   0  0  0  0  0  0  0  0  0  0  0  0  # atno 8010 bound_to 7997
  139.4890  144.4224  151.9170 H   0  0  0  0  0  0  0  0  0  0  0  0  # atno 10167 bound_to 10162
  157.4419  131.1058  151.0133 H   0  0  0  0  0  0  0  0  0  0  0  0  # atno 10718 bound_to 10713
  153.5299  135.7015  153.5688 H   0  0  0  0  0  0  0  0  0  0  0  0  # atno 10763 bound_to 10752
  153.3700  135.3947  155.1782 H   0  0  0  0  0  0  0  0  0  0  0  0  # atno 10764 bound_to 10752
  154.8686  135.3809  154.4795 H   0  0  0  0  0  0  0  0  0  0  0  0  # atno 10765 bound_to 10752
  140.1755  134.8513  157.2741 H   0  0  0  0  0  0  0  0  0  0  0  0  # atno 11005 bound_to 11000
  146.2263  140.5742  142.8995 LP  0  0  0  0  0  0  0  0  0  0  0  0  # atno 17320 bound_to 7965
  144.7814  140.5849  143.6603 LP  0  0  0  0  0  0  0  0  0  0  0  0  # atno 17321 bound_to 7965
  140.3669  144.2904  150.5925 LP  0  0  0  0  0  0  0  0  0  0  0  0  # atno 17342 bound_to 10162
  140.5354  143.2234  151.8172 LP  0  0  0  0  0  0  0  0  0  0  0  0  # atno 17343 bound_to 10162
  157.0993  130.5975  149.5456 LP  0  0  0  0  0  0  0  0  0  0  0  0  # atno 17370 bound_to 10713
  155.9952  130.5018  150.7450 LP  0  0  0  0  0  0  0  0  0  0  0  0  # atno 17371 bound_to 10713
  140.2328  134.3889  155.7514 LP  0  0  0  0  0  0  0  0  0  0  0  0  # atno 17394 bound_to 11000
  141.2220  133.7224  156.8667 LP  0  0  0  0  0  0  0  0  0  0  0  0  # atno 17395 bound_to 11000

$$$$
