AV-unprocessed.smi:1893|AV-procd|sdf|7673|dock6
  -GOLD-   22720 9413D 1   1.00000     0.00000
 Structure written by MMmdl.
 43 44  0  0  0  0  0  0  0  0  2 V2000
  144.7712  135.1321  152.6150 C   0  0  0  0  0  0  0  0  0  0  0  0
  146.0815  135.6731  152.0025 C   0  0  2  0  0  0  0  0  0  0  0  0
  145.8634  136.2983  150.6086 C   0  0  0  0  0  0  0  0  0  0  0  0
  145.6094  135.2333  149.5315 C   0  0  0  0  0  0  0  0  0  0  0  0
  146.7416  134.1989  149.5377 C   0  0  0  0  0  0  0  0  0  0  0  0
  146.9366  133.5947  150.9379 C   0  0  0  0  0  0  0  0  0  0  0  0
  147.1770  134.6586  151.9515 N   0  3  2  0  0  0  0  0  0  0  0  0
  147.5628  134.1312  153.2852 C   0  0  0  0  0  0  0  0  0  0  0  0
  147.6245  135.2362  154.3569 C   0  0  0  0  0  0  0  0  0  0  0  0
  148.7472  136.1354  154.1215 N   0  0  0  0  0  0  0  0  0  0  0  0
  149.2178  137.0240  155.0110 C   0  0  0  0  0  0  0  0  0  0  0  0
  148.7582  137.1415  156.1477 O   0  0  0  0  0  0  0  0  0  0  0  0
  150.3664  137.9243  154.5314 C   0  0  2  0  0  0  0  0  0  0  0  0
  151.6506  137.7417  155.3662 C   0  0  0  0  0  0  0  0  0  0  0  0
  149.9221  139.3123  154.4889 N   0  0  0  0  0  0  0  0  0  0  0  0
  148.8863  139.8607  153.8497 C   0  0  0  0  0  0  0  0  0  0  0  0
  148.7359  141.1576  154.0789 N   0  0  0  0  0  0  0  0  0  0  0  0
  149.7807  141.3601  154.9354 C   0  0  0  0  0  0  0  0  0  0  0  0
  150.5129  140.2853  155.2270 N   0  0  0  0  0  0  0  0  0  0  0  0
  144.0126  135.9145  152.6498 H   0  0  0  0  0  0  0  0  0  0  0  0
  144.9149  134.7862  153.6387 H   0  0  0  0  0  0  0  0  0  0  0  0
  144.3545  134.3044  152.0423 H   0  0  0  0  0  0  0  0  0  0  0  0
  146.4251  136.4784  152.6534 H   0  0  0  0  0  0  0  0  0  0  0  0
  145.0359  137.0083  150.6362 H   0  0  0  0  0  0  0  0  0  0  0  0
  146.7468  136.8763  150.3333 H   0  0  0  0  0  0  0  0  0  0  0  0
  144.6535  134.7393  149.7078 H   0  0  0  0  0  0  0  0  0  0  0  0
  145.5369  135.7034  148.5502 H   0  0  0  0  0  0  0  0  0  0  0  0
  146.5281  133.4087  148.8170 H   0  0  0  0  0  0  0  0  0  0  0  0
  147.6692  134.6717  149.2121 H   0  0  0  0  0  0  0  0  0  0  0  0
  146.0688  132.9968  151.2183 H   0  0  0  0  0  0  0  0  0  0  0  0
  147.7819  132.9084  150.9049 H   0  0  0  0  0  0  0  0  0  0  0  0
  146.8276  133.3922  153.6082 H   0  0  0  0  0  0  0  0  0  0  0  0
  148.5157  133.6054  153.2092 H   0  0  0  0  0  0  0  0  0  0  0  0
  146.7014  135.8153  154.3921 H   0  0  0  0  0  0  0  0  0  0  0  0
  147.7488  134.7902  155.3440 H   0  0  0  0  0  0  0  0  0  0  0  0
  149.1845  136.0959  153.2120 H   0  0  0  0  0  0  0  0  0  0  0  0
  150.6062  137.6351  153.5067 H   0  0  0  0  0  0  0  0  0  0  0  0
  151.9929  136.7067  155.3377 H   0  0  0  0  0  0  0  0  0  0  0  0
  151.5040  138.0112  156.4130 H   0  0  0  0  0  0  0  0  0  0  0  0
  152.4578  138.3623  154.9763 H   0  0  0  0  0  0  0  0  0  0  0  0
  148.2233  139.2972  153.2092 H   0  0  0  0  0  0  0  0  0  0  0  0
  150.0023  142.3261  155.3648 H   0  0  0  0  0  0  0  0  0  0  0  0
  147.9844  135.1694  151.6241 H   0  0  0  0  0  0  0  0  0  0  0  0
  1  2  1  0  0  0  0
  1 20  1  0  0  0  0
  1 21  1  0  0  0  0
  1 22  1  0  0  0  0
  2  7  1  0  0  0  0
  2  3  1  0  0  0  0
  2 23  1  0  0  0  0
  3  4  1  0  0  0  0
  3 24  1  0  0  0  0
  3 25  1  0  0  0  0
  4  5  1  0  0  0  0
  4 26  1  0  0  0  0
  4 27  1  0  0  0  0
  5  6  1  0  0  0  0
  5 28  1  0  0  0  0
  5 29  1  0  0  0  0
  6  7  1  0  0  0  0
  6 30  1  0  0  0  0
  6 31  1  0  0  0  0
  7  8  1  0  0  0  0
  7 43  1  0  0  0  0
  8  9  1  0  0  0  0
  8 32  1  0  0  0  0
  8 33  1  0  0  0  0
  9 10  1  0  0  0  0
  9 34  1  0  0  0  0
  9 35  1  0  0  0  0
 10 11  1  0  0  0  0
 10 36  1  0  0  0  0
 11 12  2  0  0  0  0
 11 13  1  0  0  0  0
 13 14  1  0  0  0  0
 13 15  1  0  0  0  0
 13 37  1  0  0  0  0
 14 38  1  0  0  0  0
 14 39  1  0  0  0  0
 14 40  1  0  0  0  0
 15 19  1  0  0  0  0
 15 16  1  0  0  0  0
 16 17  2  0  0  0  0
 16 41  1  0  0  0  0
 17 18  1  0  0  0  0
 18 19  2  0  0  0  0
 18 42  1  0  0  0  0
M  CHG  1   7   1
M  END
> <s_m_source_file>
AV-unprocessed.smi

> <i_m_source_file_index>
1893

> <i_lp_mmshare_version>
43012

> <i_f3d_flags>
0

> <s_epik_input>
W0NIM11bQ0BASF0xW0NIMl1bQ0gyXVtDSDJdW0NIMl1OMVtDSDJdW0NIMl1bTkhdQyg9TylbQ0BIXShbQ0gzXSluMltjSF1uW2NIXW4y

> <s_epik_cmdline>
J2VwaWtfcHl0aG9uJywgJy1waCcsICc3LjAnLCAnLXRuJywgJzgnLCAnLW1hJywgJzIwMCcsICctbWV0YWxfYmluZGluZycsICctaW1hZScsICc8aW5maWxlLm1hZT4nLCAnLW9tYWUnLCAnPG91dGZpbGUubWFlPic=

> <r_lp_tautomer_probability>
1

> <r_epik_Ionization_Penalty>
0.00266409

> <r_epik_Ionization_Penalty_Charging>
0.00265606

> <r_epik_Ionization_Penalty_Neutral>
8.02794e-06

> <r_epik_State_Penalty>
0.00184955

> <r_epik_Charging_Adjusted_Penalty>
0.00450561

> <i_epik_Tot_Q>
1

> <i_epik_Tot_abs_Q>
1

> <r_epik_Metal_State_Penalty>
-0

> <b_epik_Metal_Only>
0

> <s_lp_Force_Field>
OPLS_2005

> <r_lp_Energy>
25.3191

> <b_lp_Chiralities_Consistent>
1

> <s_lp_Variant>
AV-unprocessed.smi:1893-3

> <Gold.Version>
5.8.1

> <Gold.Id.Protein>
6NUR|6NUR_protein|mol2

> <Gold.PLP.Fitness>
46.7711

> <Gold.PLP.PLP>
-32.1359

> <Gold.PLP.part.hbond>
-3.0000

> <Gold.PLP.part.metal>
0.0000

> <Gold.PLP.part.buried>
-3.0692

> <Gold.PLP.part.nonpolar>
-26.3119

> <Gold.PLP.part.repulsive>
0.2430

> <Gold.PLP.ligand.clash>
0.0000

> <Gold.PLP.ligand.torsion>
0.2570

> <Gold.PLP.Chemscore.Hbond>
4.0000

> <Gold.PLP.Chemscore.CHOScore>
1.0000

> <Gold.PLP.Chemscore.Metal>
0.0000

> <Gold.Chemscore.Hbonds>
donor molecule, donor type, donor heavy atom, donor atom, acceptor molecule, acceptor atom, score
      L1  H     7    43       P1  7948  1.33
      L1  H    10    36       P1  7948  0.50
      P1  H  7989  7998       L1    19  0.05
      P1  H  8011  8017       L1    17  0.04
      L1  C    16    41       P1  7957  0.18
      L1  C    18    42       P1  8028  0.69

> <Gold.PLP.Chemscore.Internal.Correction>
0.1491

> <Gold.Rescore>
     Score         DG    S(hbond)    S(metal)    S(lipo)     H(rot)  DE(clash)    DE(int)     intcor
      8.93     -10.74       1.91        0.00      45.84       2.54       1.47       0.34       ----

> <Gold.Chemscore.Fitness>
8.9304

> <Gold.Chemscore.DG>
-10.7363

> <Gold.Chemscore.ZeroCoef>
-5.4800

> <Gold.Chemscore.Hbond>
1.9130

> <Gold.Chemscore.Metal>
0.0000

> <Gold.Chemscore.Lipo>
45.8414

> <Gold.Chemscore.Internal_Hbond>
0.0000

> <Gold.Chemscore.DEClash>
1.4700

> <Gold.Chemscore.DEInternal>
0.3359

> <Gold.Chemscore.Rot>
2.5377

> <Gold.Chemscore.Internal.Correction>
   9.000000E+99

> <Gold.Chemscore.Hbonds>
donor molecule, donor type, donor heavy atom, donor atom, acceptor molecule, acceptor atom, score
      L1  H     7    43       P1  7948  0.22
      L1  H    10    36       P1  7948  0.40

> <Gold.Chemscore.Hbond.Weighted>
-6.3895

> <Gold.Chemscore.Metal.Weighted>
-0.0000

> <Gold.Chemscore.Lipo.Weighted>
-5.3634

> <Gold.Chemscore.Internal_Hbond.Weighted>
0.0000

> <Gold.Chemscore.DEClash.Weighted>
1.4700

> <Gold.Chemscore.DEInternal.Weighted>
0.3359

> <Gold.Chemscore.Rot.Weighted>
6.4966

> <Gold.Chemscore.Internal.Correction.Weighted>
   9.000000E+99

> <Gold.Protein.RotatedTorsions>
[ 6907 6896 6895 6894 ] final  -94.82 input  -60.11 | X-H torsion
[ 7974 7965 7964 7962 ] final -106.60 input  175.53 | X-H torsion
[ 8008 7997 7996 7995 ] final   41.86 input   59.86 | X-H torsion
[ 10167 10162 10161 10158 ] final  -10.67 input  -65.29 | X-H torsion
[ 10718 10713 10712 10709 ] final -118.56 input   66.30 | X-H torsion
[ 10763 10752 10751 10750 ] final  122.72 input  -60.55 | X-H torsion
[ 11005 11000 10999 10996 ] final   71.84 input  -57.11 | X-H torsion

> <Gold.Protein.ActiveResidues>
 VAL166  LYS551  ARG553  GLY616  TRP617  ASP618  TYR619  PRO620  LYS621  CYS622 
 ASP623  PHE694  ASN695  SER759  ASP760  ASP761  ALA762  ILE779  LEU786  VAL792 
 PHE793  MET794  SER795  GLU796  ALA797  LYS798  CYS799  TRP800  GLU811  SER814 

> <Gold.Protein.RotatedAtoms>
  150.6950  134.1753  159.4227 H   0  0  0  0  0  0  0  0  0  0  0  0  # atno 6907 bound_to 6896
  151.9729  135.0065  160.0563 H   0  0  0  0  0  0  0  0  0  0  0  0  # atno 6908 bound_to 6896
  152.1825  133.4682  159.5002 H   0  0  0  0  0  0  0  0  0  0  0  0  # atno 6909 bound_to 6896
  145.2159  140.9115  143.3288 H   0  0  0  0  0  0  0  0  0  0  0  0  # atno 7974 bound_to 7965
  155.2765  140.3369  155.4261 H   0  0  0  0  0  0  0  0  0  0  0  0  # atno 8008 bound_to 7997
  156.2109  140.1769  156.7738 H   0  0  0  0  0  0  0  0  0  0  0  0  # atno 8009 bound_to 7997
  154.5685  140.0674  156.8913 H   0  0  0  0  0  0  0  0  0  0  0  0  # atno 8010 bound_to 7997
  140.7119  143.5723  150.9079 H   0  0  0  0  0  0  0  0  0  0  0  0  # atno 10167 bound_to 10162
  156.1115  130.6252  150.9306 H   0  0  0  0  0  0  0  0  0  0  0  0  # atno 10718 bound_to 10713
  153.6341  135.3391  155.3051 H   0  0  0  0  0  0  0  0  0  0  0  0  # atno 10763 bound_to 10752
  154.8574  135.4303  154.2074 H   0  0  0  0  0  0  0  0  0  0  0  0  # atno 10764 bound_to 10752
  153.2977  135.7022  153.7306 H   0  0  0  0  0  0  0  0  0  0  0  0  # atno 10765 bound_to 10752
  139.9522  134.7207  156.0836 H   0  0  0  0  0  0  0  0  0  0  0  0  # atno 11005 bound_to 11000
  144.9812  139.3782  143.6261 LP  0  0  0  0  0  0  0  0  0  0  0  0  # atno 17320 bound_to 7965
  146.3387  139.8953  142.8803 LP  0  0  0  0  0  0  0  0  0  0  0  0  # atno 17321 bound_to 7965
  139.9449  143.6339  152.3044 LP  0  0  0  0  0  0  0  0  0  0  0  0  # atno 17342 bound_to 10162
  139.6837  144.7653  151.1563 LP  0  0  0  0  0  0  0  0  0  0  0  0  # atno 17343 bound_to 10162
  157.6296  131.0922  150.8466 LP  0  0  0  0  0  0  0  0  0  0  0  0  # atno 17370 bound_to 10713
  156.8577  130.5102  149.5306 LP  0  0  0  0  0  0  0  0  0  0  0  0  # atno 17371 bound_to 10713
  141.1187  133.6619  156.3159 LP  0  0  0  0  0  0  0  0  0  0  0  0  # atno 17394 bound_to 11000
  140.5693  134.5856  157.5453 LP  0  0  0  0  0  0  0  0  0  0  0  0  # atno 17395 bound_to 11000

$$$$
