AV-unprocessed.smi:794|AV-procd|sdf|3760|dock3
  -GOLD-   22720 1193D 1   1.00000     0.00000
 Structure written by MMmdl.
 41 43  0  0  0  0  0  0  0  0  1 V2000
  148.7564  136.4616  159.2983 C   0  0  0  0  0  0  0  0  0  0  0  0
  149.2396  136.4034  157.8814 C   0  0  0  0  0  0  0  0  0  0  0  0
  148.3702  135.9785  156.8723 N   0  0  0  0  0  0  0  0  0  0  0  0
  148.9515  135.9807  155.6684 C   0  0  0  0  0  0  0  0  0  0  0  0
  148.3026  135.6005  154.4644 N   0  0  0  0  0  0  0  0  0  0  0  0
  147.2064  134.8359  154.3181 C   0  0  0  0  0  0  0  0  0  0  0  0
  146.5840  134.3002  155.2354 O   0  0  0  0  0  0  0  0  0  0  0  0
  146.8569  134.7309  153.0277 N   0  0  0  0  0  0  0  0  0  0  0  0
  145.7152  133.9682  152.5200 C   0  0  2  0  0  0  0  0  0  0  0  0
  146.1912  132.6194  151.9380 C   0  0  1  0  0  0  0  0  0  0  0  0
  144.9788  131.6841  151.7788 C   0  0  0  0  0  0  0  0  0  0  0  0
  144.2244  132.3141  150.5926 C   0  0  0  0  0  0  0  0  0  0  0  0
  145.1067  133.5251  150.2283 C   0  0  2  0  0  0  0  0  0  0  0  0
  146.5018  132.9720  150.4885 C   0  0  0  0  0  0  0  0  0  0  0  0
  144.9606  134.6157  151.3182 C   0  0  2  0  0  0  0  0  0  0  0  0
  145.4612  136.0056  150.8627 C   0  0  0  0  0  0  0  0  0  0  0  0
  145.0055  136.2907  149.5569 O   0  0  0  0  0  0  0  0  0  0  0  0
  150.6243  136.5111  155.6957 S   0  0  0  0  0  0  0  0  0  0  0  0
  150.4942  136.7341  157.4229 C   0  0  0  0  0  0  0  0  0  0  0  0
  151.6566  137.2238  158.2208 C   0  0  0  0  0  0  0  0  0  0  0  0
  149.4067  135.8879  159.9590 H   0  0  0  0  0  0  0  0  0  0  0  0
  147.7486  136.0575  159.3991 H   0  0  0  0  0  0  0  0  0  0  0  0
  148.7368  137.4885  159.6636 H   0  0  0  0  0  0  0  0  0  0  0  0
  148.7113  135.9673  153.6177 H   0  0  0  0  0  0  0  0  0  0  0  0
  147.4253  135.2039  152.3405 H   0  0  0  0  0  0  0  0  0  0  0  0
  145.0242  133.7835  153.3449 H   0  0  0  0  0  0  0  0  0  0  0  0
  147.0148  132.1627  152.4883 H   0  0  0  0  0  0  0  0  0  0  0  0
  145.2992  130.6708  151.5334 H   0  0  0  0  0  0  0  0  0  0  0  0
  144.3692  131.6321  152.6816 H   0  0  0  0  0  0  0  0  0  0  0  0
  144.1672  131.6115  149.7600 H   0  0  0  0  0  0  0  0  0  0  0  0
  143.2059  132.6043  150.8527 H   0  0  0  0  0  0  0  0  0  0  0  0
  144.9393  133.8827  149.2120 H   0  0  0  0  0  0  0  0  0  0  0  0
  147.2945  133.7136  150.3814 H   0  0  0  0  0  0  0  0  0  0  0  0
  146.7436  132.1029  149.8743 H   0  0  0  0  0  0  0  0  0  0  0  0
  143.9078  134.7249  151.5842 H   0  0  0  0  0  0  0  0  0  0  0  0
  145.0766  136.7851  151.5205 H   0  0  0  0  0  0  0  0  0  0  0  0
  146.5493  136.0681  150.8836 H   0  0  0  0  0  0  0  0  0  0  0  0
  144.5455  137.1162  149.5726 H   0  0  0  0  0  0  0  0  0  0  0  0
  151.3431  137.9823  158.9385 H   0  0  0  0  0  0  0  0  0  0  0  0
  152.4179  137.6672  157.5784 H   0  0  0  0  0  0  0  0  0  0  0  0
  152.1169  136.4050  158.7737 H   0  0  0  0  0  0  0  0  0  0  0  0
  1  2  1  0  0  0  0
  1 21  1  0  0  0  0
  1 22  1  0  0  0  0
  1 23  1  0  0  0  0
  2 19  2  0  0  0  0
  2  3  1  0  0  0  0
  3  4  2  0  0  0  0
  4  5  1  0  0  0  0
  4 18  1  0  0  0  0
  5  6  1  0  0  0  0
  5 24  1  0  0  0  0
  6  7  2  0  0  0  0
  6  8  1  0  0  0  0
  8  9  1  0  0  0  0
  8 25  1  0  0  0  0
  9 15  1  0  0  0  0
  9 10  1  0  0  0  0
  9 26  1  0  0  0  0
 10 14  1  0  0  0  0
 10 11  1  0  0  0  0
 10 27  1  0  0  0  0
 11 12  1  0  0  0  0
 11 28  1  0  0  0  0
 11 29  1  0  0  0  0
 12 13  1  0  0  0  0
 12 30  1  0  0  0  0
 12 31  1  0  0  0  0
 13 14  1  0  0  0  0
 13 15  1  0  0  0  0
 13 32  1  0  0  0  0
 14 33  1  0  0  0  0
 14 34  1  0  0  0  0
 15 16  1  0  0  0  0
 15 35  1  0  0  0  0
 16 17  1  0  0  0  0
 16 36  1  0  0  0  0
 16 37  1  0  0  0  0
 17 38  1  0  0  0  0
 18 19  1  0  0  0  0
 19 20  1  0  0  0  0
 20 39  1  0  0  0  0
 20 40  1  0  0  0  0
 20 41  1  0  0  0  0
M  END
> <s_m_source_file>
AV-unprocessed.smi

> <i_m_source_file_index>
794

> <i_lp_mmshare_version>
43012

> <i_f3d_flags>
0

> <s_epik_input>
W0NIM11jMW5jKHNjMVtDSDNdKVtOSF1DKD1PKVtOSF1bQ0BIXShbQ0BASF0yMylbQ0BIXShbQ0gyXVtPSF0pW0NAQEhdKFtDSDJdMylbQ0gyXVtDSDJdMg==

> <s_epik_cmdline>
J2VwaWtfcHl0aG9uJywgJy1waCcsICc3LjAnLCAnLXRuJywgJzgnLCAnLW1hJywgJzIwMCcsICctbWV0YWxfYmluZGluZycsICctaW1hZScsICc8aW5maWxlLm1hZT4nLCAnLW9tYWUnLCAnPG91dGZpbGUubWFlPic=

> <r_lp_tautomer_probability>
0.999

> <r_epik_Ionization_Penalty>
0.000713029

> <r_epik_Ionization_Penalty_Charging>
0

> <r_epik_Ionization_Penalty_Neutral>
0.000713029

> <r_epik_State_Penalty>
0.000177984

> <r_epik_Charging_Adjusted_Penalty>
0.000177984

> <i_epik_Tot_Q>
0

> <i_epik_Tot_abs_Q>
0

> <r_epik_Metal_State_Penalty>
-0

> <b_epik_Metal_Only>
0

> <s_lp_Force_Field>
OPLS_2005

> <r_lp_Energy>
48.2777

> <b_lp_Chiralities_Consistent>
1

> <s_lp_Variant>
AV-unprocessed.smi:794-5

> <Gold.Version>
5.8.1

> <Gold.Id.Protein>
6NUR|6NUR_protein|mol2

> <Gold.PLP.Fitness>
38.1645

> <Gold.PLP.PLP>
-30.2032

> <Gold.PLP.part.hbond>
-4.0000

> <Gold.PLP.part.metal>
0.0000

> <Gold.PLP.part.buried>
-3.9471

> <Gold.PLP.part.nonpolar>
-21.9242

> <Gold.PLP.part.repulsive>
0.0359

> <Gold.PLP.ligand.clash>
0.0000

> <Gold.PLP.ligand.torsion>
0.5266

> <Gold.PLP.Chemscore.Hbond>
3.0000

> <Gold.PLP.Chemscore.CHOScore>
0.0000

> <Gold.PLP.Chemscore.Metal>
0.0000

> <Gold.Chemscore.Hbonds>
donor molecule, donor type, donor heavy atom, donor atom, acceptor molecule, acceptor atom, score
      L1  H     5    24       P1  7948  1.00
      L1  H     8    25       P1  7948  1.00
      L1  H    17    38       P1 10171  1.00

> <Gold.PLP.Chemscore.Internal.Correction>
0.0145

> <Gold.Rescore>
     Score         DG    S(hbond)    S(metal)    S(lipo)     H(rot)  DE(clash)    DE(int)     intcor
     17.40     -19.10       2.92        0.00      71.94       1.78       0.09       1.61       ----

> <Gold.Chemscore.Fitness>
17.3989

> <Gold.Chemscore.DG>
-19.1011

> <Gold.Chemscore.ZeroCoef>
-5.4800

> <Gold.Chemscore.Hbond>
2.9223

> <Gold.Chemscore.Metal>
0.0000

> <Gold.Chemscore.Lipo>
71.9378

> <Gold.Chemscore.Internal_Hbond>
0.0000

> <Gold.Chemscore.DEClash>
0.0943

> <Gold.Chemscore.DEInternal>
1.6080

> <Gold.Chemscore.Rot>
1.7798

> <Gold.Chemscore.Internal.Correction>
   9.000000E+99

> <Gold.Chemscore.Hbonds>
donor molecule, donor type, donor heavy atom, donor atom, acceptor molecule, acceptor atom, score
      L1  H     5    24       P1  7948  0.99
      L1  H     8    25       P1  7948  0.96
      L1  H    17    38       P1 10171  0.99

> <Gold.Chemscore.Hbond.Weighted>
-9.7606

> <Gold.Chemscore.Metal.Weighted>
-0.0000

> <Gold.Chemscore.Lipo.Weighted>
-8.4167

> <Gold.Chemscore.Internal_Hbond.Weighted>
0.0000

> <Gold.Chemscore.DEClash.Weighted>
0.0943

> <Gold.Chemscore.DEInternal.Weighted>
1.6080

> <Gold.Chemscore.Rot.Weighted>
4.5562

> <Gold.Chemscore.Internal.Correction.Weighted>
   9.000000E+99

> <Gold.Protein.RotatedTorsions>
[ 6907 6896 6895 6894 ] final -106.71 input  -60.11 | X-H torsion
[ 7974 7965 7964 7962 ] final   63.15 input  175.53 | X-H torsion
[ 8008 7997 7996 7995 ] final  -29.08 input   59.86 | X-H torsion
[ 10167 10162 10161 10158 ] final  -13.75 input  -65.29 | X-H torsion
[ 10718 10713 10712 10709 ] final -153.33 input   66.30 | X-H torsion
[ 10763 10752 10751 10750 ] final   25.79 input  -60.55 | X-H torsion
[ 11005 11000 10999 10996 ] final   52.01 input  -57.11 | X-H torsion

> <Gold.Protein.ActiveResidues>
 VAL166  LYS551  ARG553  GLY616  TRP617  ASP618  TYR619  PRO620  LYS621  CYS622 
 ASP623  PHE694  ASN695  SER759  ASP760  ASP761  ALA762  ILE779  LEU786  VAL792 
 PHE793  MET794  SER795  GLU796  ALA797  LYS798  CYS799  TRP800  GLU811  SER814 

> <Gold.Protein.RotatedAtoms>
  150.7404  133.9935  159.3614 H   0  0  0  0  0  0  0  0  0  0  0  0  # atno 6907 bound_to 6896
  151.7884  135.0740  160.0393 H   0  0  0  0  0  0  0  0  0  0  0  0  # atno 6908 bound_to 6896
  152.3225  133.5832  159.5790 H   0  0  0  0  0  0  0  0  0  0  0  0  # atno 6909 bound_to 6896
  145.8652  139.3341  143.0795 H   0  0  0  0  0  0  0  0  0  0  0  0  # atno 7974 bound_to 7965
  154.4305  140.1828  156.1191 H   0  0  0  0  0  0  0  0  0  0  0  0  # atno 8008 bound_to 7997
  156.0158  140.3346  155.6962 H   0  0  0  0  0  0  0  0  0  0  0  0  # atno 8009 bound_to 7997
  155.6047  140.0644  157.2714 H   0  0  0  0  0  0  0  0  0  0  0  0  # atno 8010 bound_to 7997
  140.7188  143.5393  150.9428 H   0  0  0  0  0  0  0  0  0  0  0  0  # atno 10167 bound_to 10162
  156.4844  130.8318  151.2543 H   0  0  0  0  0  0  0  0  0  0  0  0  # atno 10718 bound_to 10713
  153.0667  135.6575  154.0338 H   0  0  0  0  0  0  0  0  0  0  0  0  # atno 10763 bound_to 10752
  153.9993  135.2938  155.3405 H   0  0  0  0  0  0  0  0  0  0  0  0  # atno 10764 bound_to 10752
  154.7028  135.5237  153.8620 H   0  0  0  0  0  0  0  0  0  0  0  0  # atno 10765 bound_to 10752
  140.0885  134.5242  155.8875 H   0  0  0  0  0  0  0  0  0  0  0  0  # atno 11005 bound_to 11000
  145.9202  140.9121  143.0409 LP  0  0  0  0  0  0  0  0  0  0  0  0  # atno 17320 bound_to 7965
  144.6726  140.1278  143.7445 LP  0  0  0  0  0  0  0  0  0  0  0  0  # atno 17321 bound_to 7965
  139.9115  143.6714  152.3114 LP  0  0  0  0  0  0  0  0  0  0  0  0  # atno 17342 bound_to 10162
  139.7099  144.7622  151.1130 LP  0  0  0  0  0  0  0  0  0  0  0  0  # atno 17343 bound_to 10162
  157.7480  131.0034  150.3038 LP  0  0  0  0  0  0  0  0  0  0  0  0  # atno 17370 bound_to 10713
  156.3489  130.3827  149.7345 LP  0  0  0  0  0  0  0  0  0  0  0  0  # atno 17371 bound_to 10713
  141.2070  133.6660  156.6279 LP  0  0  0  0  0  0  0  0  0  0  0  0  # atno 17394 bound_to 11000
  140.3386  134.7868  157.4381 LP  0  0  0  0  0  0  0  0  0  0  0  0  # atno 17395 bound_to 11000

$$$$
