AV-unprocessed.smi:1176|AV-procd|sdf|4952|dock7
  -GOLD-   22720 3543D 1   1.00000     0.00000
 Structure written by MMmdl.
 50 51  0  0  0  0  0  0  0  0  2 V2000
  144.7438  133.1553  150.6198 C   0  0  0  0  0  0  0  0  0  0  0  0
  145.7484  134.1807  151.1663 C   0  0  0  0  0  0  0  0  0  0  0  0
  146.3659  133.6777  152.4819 C   0  0  0  0  0  0  0  0  0  0  0  0
  145.0756  135.5602  151.3364 C   0  0  0  0  0  0  0  0  0  0  0  0
  146.0008  136.6032  151.8511 N   0  3  2  0  0  0  0  0  0  0  0  0
  145.9267  136.7373  153.3293 C   0  0  0  0  0  0  0  0  0  0  0  0
  146.9837  137.7224  153.8561 C   0  0  0  0  0  0  0  0  0  0  0  0
  146.8428  139.0989  153.1821 C   0  0  1  0  0  0  0  0  0  0  0  0
  147.8987  140.0080  153.6171 N   0  0  0  0  0  0  0  0  0  0  0  0
  147.7036  141.1428  154.3059 C   0  0  0  0  0  0  0  0  0  0  0  0
  146.5918  141.5240  154.6745 O   0  0  0  0  0  0  0  0  0  0  0  0
  148.9632  141.9526  154.6427 C   0  0  0  0  0  0  0  0  0  0  0  0
  149.8175  141.2961  155.6406 N   0  0  0  0  0  0  0  0  0  0  0  0
  149.9165  141.8271  156.9139 C   0  0  0  0  0  0  0  0  0  0  0  0
  150.6956  141.2987  157.8828 C   0  0  0  0  0  0  0  0  0  0  0  0
  151.4935  140.1043  157.6334 C   0  0  0  0  0  0  0  0  0  0  0  0
  152.2350  139.6030  158.4794 O   0  0  0  0  0  0  0  0  0  0  0  0
  151.3597  139.5704  156.3294 N   0  0  0  0  0  0  0  0  0  0  0  0
  152.1356  138.3957  155.9894 C   0  0  0  0  0  0  0  0  0  0  0  0
  150.5577  140.1391  155.3141 C   0  0  0  0  0  0  0  0  0  0  0  0
  150.5029  139.6606  154.1785 O   0  0  0  0  0  0  0  0  0  0  0  0
  146.8959  138.9262  151.6564 C   0  0  0  0  0  0  0  0  0  0  0  0
  145.8381  137.9187  151.1758 C   0  0  0  0  0  0  0  0  0  0  0  0
  143.9096  133.0104  151.3071 H   0  0  0  0  0  0  0  0  0  0  0  0
  145.2169  132.1856  150.4622 H   0  0  0  0  0  0  0  0  0  0  0  0
  144.3333  133.4773  149.6623 H   0  0  0  0  0  0  0  0  0  0  0  0
  146.5475  134.2573  150.4295 H   0  0  0  0  0  0  0  0  0  0  0  0
  145.6106  133.5765  153.2619 H   0  0  0  0  0  0  0  0  0  0  0  0
  147.1353  134.3574  152.8488 H   0  0  0  0  0  0  0  0  0  0  0  0
  146.8342  132.7021  152.3467 H   0  0  0  0  0  0  0  0  0  0  0  0
  144.6453  135.8991  150.3926 H   0  0  0  0  0  0  0  0  0  0  0  0
  144.2366  135.4446  152.0246 H   0  0  0  0  0  0  0  0  0  0  0  0
  144.9272  137.0678  153.6165 H   0  0  0  0  0  0  0  0  0  0  0  0
  146.0856  135.7644  153.7962 H   0  0  0  0  0  0  0  0  0  0  0  0
  146.8846  137.8182  154.9380 H   0  0  0  0  0  0  0  0  0  0  0  0
  147.9804  137.3184  153.6722 H   0  0  0  0  0  0  0  0  0  0  0  0
  145.8739  139.5288  153.4446 H   0  0  0  0  0  0  0  0  0  0  0  0
  148.8454  139.7679  153.3601 H   0  0  0  0  0  0  0  0  0  0  0  0
  149.5226  142.1113  153.7198 H   0  0  0  0  0  0  0  0  0  0  0  0
  148.6812  142.9482  154.9907 H   0  0  0  0  0  0  0  0  0  0  0  0
  149.3486  142.7159  157.1474 H   0  0  0  0  0  0  0  0  0  0  0  0
  150.7326  141.7683  158.8548 H   0  0  0  0  0  0  0  0  0  0  0  0
  151.5597  137.7725  155.3035 H   0  0  0  0  0  0  0  0  0  0  0  0
  152.3368  137.8090  156.8864 H   0  0  0  0  0  0  0  0  0  0  0  0
  153.0593  138.7491  155.5293 H   0  0  0  0  0  0  0  0  0  0  0  0
  146.7379  139.8872  151.1651 H   0  0  0  0  0  0  0  0  0  0  0  0
  147.8867  138.5828  151.3539 H   0  0  0  0  0  0  0  0  0  0  0  0
  145.9276  137.8066  150.0962 H   0  0  0  0  0  0  0  0  0  0  0  0
  144.8370  138.3077  151.3696 H   0  0  0  0  0  0  0  0  0  0  0  0
  146.9354  136.2788  151.6469 H   0  0  0  0  0  0  0  0  0  0  0  0
  1  2  1  0  0  0  0
  1 24  1  0  0  0  0
  1 25  1  0  0  0  0
  1 26  1  0  0  0  0
  2  3  1  0  0  0  0
  2  4  1  0  0  0  0
  2 27  1  0  0  0  0
  3 28  1  0  0  0  0
  3 29  1  0  0  0  0
  3 30  1  0  0  0  0
  4  5  1  0  0  0  0
  4 31  1  0  0  0  0
  4 32  1  0  0  0  0
  5 23  1  0  0  0  0
  5  6  1  0  0  0  0
  5 50  1  0  0  0  0
  6  7  1  0  0  0  0
  6 33  1  0  0  0  0
  6 34  1  0  0  0  0
  7  8  1  0  0  0  0
  7 35  1  0  0  0  0
  7 36  1  0  0  0  0
  8  9  1  0  0  0  0
  8 22  1  0  0  0  0
  8 37  1  0  0  0  0
  9 10  1  0  0  0  0
  9 38  1  0  0  0  0
 10 11  2  0  0  0  0
 10 12  1  0  0  0  0
 12 13  1  0  0  0  0
 12 39  1  0  0  0  0
 12 40  1  0  0  0  0
 13 20  1  0  0  0  0
 13 14  1  0  0  0  0
 14 15  2  0  0  0  0
 14 41  1  0  0  0  0
 15 16  1  0  0  0  0
 15 42  1  0  0  0  0
 16 17  2  0  0  0  0
 16 18  1  0  0  0  0
 18 19  1  0  0  0  0
 18 20  1  0  0  0  0
 19 43  1  0  0  0  0
 19 44  1  0  0  0  0
 19 45  1  0  0  0  0
 20 21  2  0  0  0  0
 22 23  1  0  0  0  0
 22 46  1  0  0  0  0
 22 47  1  0  0  0  0
 23 48  1  0  0  0  0
 23 49  1  0  0  0  0
M  CHG  1   5   1
M  END
> <s_m_source_file>
AV-unprocessed.smi

> <i_m_source_file_index>
1176

> <i_lp_mmshare_version>
43012

> <i_f3d_flags>
0

> <s_epik_input>
W0NIM11bQ0hdKFtDSDNdKVtDSDJdTjFbQ0gyXVtDSDJdW0NIXShbQ0gyXVtDSDJdMSlbTkhdQyg9TylbQ0gyXW4yW2NIXVtjSF1jKD1PKW4oW0NIM10pYzI9Tw==

> <s_epik_cmdline>
J2VwaWtfcHl0aG9uJywgJy1waCcsICc3LjAnLCAnLXRuJywgJzgnLCAnLW1hJywgJzIwMCcsICctbWV0YWxfYmluZGluZycsICctaW1hZScsICc8aW5maWxlLm1hZT4nLCAnLW9tYWUnLCAnPG91dGZpbGUubWFlPic=

> <r_lp_tautomer_probability>
1

> <r_epik_Ionization_Penalty>
0.00401429

> <r_epik_Ionization_Penalty_Charging>
0.00401425

> <r_epik_Ionization_Penalty_Neutral>
4.29561e-08

> <r_epik_State_Penalty>
0.00287487

> <r_epik_Charging_Adjusted_Penalty>
0.00688912

> <i_epik_Tot_Q>
1

> <i_epik_Tot_abs_Q>
1

> <r_epik_Metal_State_Penalty>
-0

> <b_epik_Metal_Only>
0

> <s_lp_Force_Field>
OPLS_2005

> <r_lp_Energy>
26.9025

> <b_lp_Chiralities_Consistent>
1

> <s_lp_Variant>
AV-unprocessed.smi:1176-1

> <Gold.Version>
5.8.1

> <Gold.Id.Protein>
6NUR|6NUR_protein|mol2

> <Gold.PLP.Fitness>
46.6718

> <Gold.PLP.PLP>
-36.2902

> <Gold.PLP.part.hbond>
-3.0000

> <Gold.PLP.part.metal>
0.0000

> <Gold.PLP.part.buried>
7.0753

> <Gold.PLP.part.nonpolar>
-40.7732

> <Gold.PLP.part.repulsive>
0.4255

> <Gold.PLP.ligand.clash>
0.0000

> <Gold.PLP.ligand.torsion>
0.7399

> <Gold.PLP.Chemscore.Hbond>
2.9560

> <Gold.PLP.Chemscore.CHOScore>
0.9841

> <Gold.PLP.Chemscore.Metal>
0.0000

> <Gold.Chemscore.Hbonds>
donor molecule, donor type, donor heavy atom, donor atom, acceptor molecule, acceptor atom, score
      L1  H     5    50       P1  7948  2.00
      L1  H     9    38       P1  7957  0.09
      P1  H  7989  7998       L1    21  0.70
      L1  C    14    41       P1  8028  0.97

> <Gold.PLP.Chemscore.Internal.Correction>
0.0411

> <Gold.Rescore>
     Score         DG    S(hbond)    S(metal)    S(lipo)     H(rot)  DE(clash)    DE(int)     intcor
     10.63     -16.15       1.97        0.00      76.82       1.92       3.32       2.20       ----

> <Gold.Chemscore.Fitness>
10.6262

> <Gold.Chemscore.DG>
-16.1481

> <Gold.Chemscore.ZeroCoef>
-5.4800

> <Gold.Chemscore.Hbond>
1.9743

> <Gold.Chemscore.Metal>
0.0000

> <Gold.Chemscore.Lipo>
76.8242

> <Gold.Chemscore.Internal_Hbond>
0.0000

> <Gold.Chemscore.DEClash>
3.3188

> <Gold.Chemscore.DEInternal>
2.2031

> <Gold.Chemscore.Rot>
1.9198

> <Gold.Chemscore.Internal.Correction>
   9.000000E+99

> <Gold.Chemscore.Hbonds>
donor molecule, donor type, donor heavy atom, donor atom, acceptor molecule, acceptor atom, score
      L1  H     5    50       P1  7948  0.95
      L1  H     9    38       P1  7957  0.10
      P1  H  7989  7998       L1    21  0.07

> <Gold.Chemscore.Hbond.Weighted>
-6.5943

> <Gold.Chemscore.Metal.Weighted>
-0.0000

> <Gold.Chemscore.Lipo.Weighted>
-8.9884

> <Gold.Chemscore.Internal_Hbond.Weighted>
0.0000

> <Gold.Chemscore.DEClash.Weighted>
3.3188

> <Gold.Chemscore.DEInternal.Weighted>
2.2031

> <Gold.Chemscore.Rot.Weighted>
4.9147

> <Gold.Chemscore.Internal.Correction.Weighted>
   9.000000E+99

> <Gold.Protein.RotatedTorsions>
[ 6907 6896 6895 6894 ] final -135.16 input  -60.11 | X-H torsion
[ 7974 7965 7964 7962 ] final   79.58 input  175.53 | X-H torsion
[ 8008 7997 7996 7995 ] final   50.58 input   59.86 | X-H torsion
[ 10167 10162 10161 10158 ] final -159.66 input  -65.29 | X-H torsion
[ 10718 10713 10712 10709 ] final   -2.97 input   66.30 | X-H torsion
[ 10763 10752 10751 10750 ] final    6.90 input  -60.55 | X-H torsion
[ 11005 11000 10999 10996 ] final  -64.54 input  -57.11 | X-H torsion

> <Gold.Protein.ActiveResidues>
 VAL166  LYS551  ARG553  GLY616  TRP617  ASP618  TYR619  PRO620  LYS621  CYS622 
 ASP623  PHE694  ASN695  SER759  ASP760  ASP761  ALA762  ILE779  LEU786  VAL792 
 PHE793  MET794  SER795  GLU796  ALA797  LYS798  CYS799  TRP800  GLU811  SER814 

> <Gold.Protein.RotatedAtoms>
  150.9945  133.6116  159.2703 H   0  0  0  0  0  0  0  0  0  0  0  0  # atno 6907 bound_to 6896
  151.3325  135.0844  159.9353 H   0  0  0  0  0  0  0  0  0  0  0  0  # atno 6908 bound_to 6896
  152.5256  133.9572  159.7754 H   0  0  0  0  0  0  0  0  0  0  0  0  # atno 6909 bound_to 6896
  145.6623  139.2474  143.1915 H   0  0  0  0  0  0  0  0  0  0  0  0  # atno 7974 bound_to 7965
  155.4211  140.3446  155.4271 H   0  0  0  0  0  0  0  0  0  0  0  0  # atno 8008 bound_to 7997
  156.1392  140.1537  156.8978 H   0  0  0  0  0  0  0  0  0  0  0  0  # atno 8009 bound_to 7997
  154.4957  140.0828  156.7671 H   0  0  0  0  0  0  0  0  0  0  0  0  # atno 8010 bound_to 7997
  139.6598  143.9933  152.2218 H   0  0  0  0  0  0  0  0  0  0  0  0  # atno 10167 bound_to 10162
  156.7829  130.5336  149.5748 H   0  0  0  0  0  0  0  0  0  0  0  0  # atno 10718 bound_to 10713
  153.2424  135.6905  153.7768 H   0  0  0  0  0  0  0  0  0  0  0  0  # atno 10763 bound_to 10752
  153.6893  135.3315  155.3199 H   0  0  0  0  0  0  0  0  0  0  0  0  # atno 10764 bound_to 10752
  154.8361  135.4541  154.1351 H   0  0  0  0  0  0  0  0  0  0  0  0  # atno 10765 bound_to 10752
  141.1428  133.6667  156.5848 H   0  0  0  0  0  0  0  0  0  0  0  0  # atno 11005 bound_to 11000
  146.1115  140.7423  142.9501 LP  0  0  0  0  0  0  0  0  0  0  0  0  # atno 17320 bound_to 7965
  144.7085  140.3946  143.7099 LP  0  0  0  0  0  0  0  0  0  0  0  0  # atno 17321 bound_to 7965
  139.9669  144.6520  150.8026 LP  0  0  0  0  0  0  0  0  0  0  0  0  # atno 17342 bound_to 10162
  140.7575  143.3088  151.2897 LP  0  0  0  0  0  0  0  0  0  0  0  0  # atno 17343 bound_to 10162
  156.1207  130.6107  151.0188 LP  0  0  0  0  0  0  0  0  0  0  0  0  # atno 17370 bound_to 10713
  157.6638  131.0876  150.7777 LP  0  0  0  0  0  0  0  0  0  0  0  0  # atno 17371 bound_to 10713
  140.3809  134.7524  157.4660 LP  0  0  0  0  0  0  0  0  0  0  0  0  # atno 17394 bound_to 11000
  140.0638  134.5958  155.8718 LP  0  0  0  0  0  0  0  0  0  0  0  0  # atno 17395 bound_to 11000

$$$$
