AV-unprocessed.smi:837|AV-procd|sdf|3902|dock10
  -GOLD-   22720 1363D 1   1.00000     0.00000
 Structure written by MMmdl.
 48 50  0  0  0  0  0  0  0  0  2 V2000
  152.5510  141.0568  159.4819 C   0  0  0  0  0  0  0  0  0  0  0  0
  152.4774  142.5467  159.0797 C   0  0  2  0  0  0  0  0  0  0  0  0
  152.2062  143.4149  160.3289 C   0  0  0  0  0  0  0  0  0  0  0  0
  152.1971  144.9138  159.9965 C   0  0  0  0  0  0  0  0  0  0  0  0
  151.1738  145.2336  158.8999 C   0  0  0  0  0  0  0  0  0  0  0  0
  151.4348  144.3900  157.6402 C   0  0  0  0  0  0  0  0  0  0  0  0
  151.4780  142.8627  157.9162 C   0  0  1  0  0  0  0  0  0  0  0  0
  151.8917  142.1869  156.6985 N   0  5  0  0  0  0  0  0  0  0  0  0
  150.9000  141.3624  156.2892 C   0  0  0  0  0  0  0  0  0  0  0  0
  150.9145  140.6283  155.3015 O   0  0  0  0  0  0  0  0  0  0  0  0
  149.8431  141.4277  157.1204 N   0  0  0  0  0  0  0  0  0  0  0  0
  148.6132  140.6361  156.9805 C   0  0  0  0  0  0  0  0  0  0  0  0
  147.3401  141.4218  157.3268 C   0  0  0  0  0  0  0  0  0  0  0  0
  146.6529  141.1225  158.3049 O   0  0  0  0  0  0  0  0  0  0  0  0
  147.0468  142.4466  156.5121 N   0  0  0  0  0  0  0  0  0  0  0  0
  145.8935  143.3270  156.6544 C   0  0  0  0  0  0  0  0  0  0  0  0
  145.0492  143.3675  155.3704 C   0  0  0  0  0  0  0  0  0  0  0  0
  144.2939  144.6744  155.2266 C   0  0  0  0  0  0  0  0  0  0  0  0
  144.0787  145.5107  156.3414 C   0  0  0  0  0  0  0  0  0  0  0  0
  143.3759  146.7173  156.1581 C   0  0  0  0  0  0  0  0  0  0  0  0
  142.9180  147.0368  154.8640 C   0  0  0  0  0  0  0  0  0  0  0  0
  143.1187  146.2436  153.7894 N   0  0  0  0  0  0  0  0  0  0  0  0
  143.7928  145.0882  153.9739 C   0  0  0  0  0  0  0  0  0  0  0  0
  150.0791  142.2837  158.1207 C   0  0  0  0  0  0  0  0  0  0  0  0
  149.3251  142.5615  159.0543 O   0  0  0  0  0  0  0  0  0  0  0  0
  151.6091  140.7014  159.9007 H   0  0  0  0  0  0  0  0  0  0  0  0
  153.3220  140.8966  160.2357 H   0  0  0  0  0  0  0  0  0  0  0  0
  152.7977  140.4211  158.6313 H   0  0  0  0  0  0  0  0  0  0  0  0
  153.4738  142.8163  158.7245 H   0  0  0  0  0  0  0  0  0  0  0  0
  151.2564  143.1357  160.7852 H   0  0  0  0  0  0  0  0  0  0  0  0
  152.9694  143.2226  161.0834 H   0  0  0  0  0  0  0  0  0  0  0  0
  151.9734  145.4923  160.8933 H   0  0  0  0  0  0  0  0  0  0  0  0
  153.1914  145.2212  159.6697 H   0  0  0  0  0  0  0  0  0  0  0  0
  150.1649  145.0580  159.2728 H   0  0  0  0  0  0  0  0  0  0  0  0
  151.2231  146.2933  158.6484 H   0  0  0  0  0  0  0  0  0  0  0  0
  150.6750  144.6216  156.8917 H   0  0  0  0  0  0  0  0  0  0  0  0
  152.3840  144.7062  157.2043 H   0  0  0  0  0  0  0  0  0  0  0  0
  148.5196  140.2621  155.9598 H   0  0  0  0  0  0  0  0  0  0  0  0
  148.6738  139.7497  157.6144 H   0  0  0  0  0  0  0  0  0  0  0  0
  147.6669  142.6264  155.7356 H   0  0  0  0  0  0  0  0  0  0  0  0
  145.2853  143.0112  157.5037 H   0  0  0  0  0  0  0  0  0  0  0  0
  146.2604  144.3264  156.8894 H   0  0  0  0  0  0  0  0  0  0  0  0
  145.6876  143.2276  154.4970 H   0  0  0  0  0  0  0  0  0  0  0  0
  144.3328  142.5449  155.3616 H   0  0  0  0  0  0  0  0  0  0  0  0
  144.4459  145.2344  157.3192 H   0  0  0  0  0  0  0  0  0  0  0  0
  143.1925  147.3824  156.9892 H   0  0  0  0  0  0  0  0  0  0  0  0
  142.3759  147.9540  154.6875 H   0  0  0  0  0  0  0  0  0  0  0  0
  143.9392  144.4778  153.0948 H   0  0  0  0  0  0  0  0  0  0  0  0
  1  2  1  0  0  0  0
  1 26  1  0  0  0  0
  1 27  1  0  0  0  0
  1 28  1  0  0  0  0
  2  7  1  0  0  0  0
  2  3  1  0  0  0  0
  2 29  1  0  0  0  0
  3  4  1  0  0  0  0
  3 30  1  0  0  0  0
  3 31  1  0  0  0  0
  4  5  1  0  0  0  0
  4 32  1  0  0  0  0
  4 33  1  0  0  0  0
  5  6  1  0  0  0  0
  5 34  1  0  0  0  0
  5 35  1  0  0  0  0
  6  7  1  0  0  0  0
  6 36  1  0  0  0  0
  6 37  1  0  0  0  0
  7 24  1  0  0  0  0
  7  8  1  0  0  0  0
  8  9  1  0  0  0  0
  9 10  2  0  0  0  0
  9 11  1  0  0  0  0
 11 12  1  0  0  0  0
 11 24  1  0  0  0  0
 12 13  1  0  0  0  0
 12 38  1  0  0  0  0
 12 39  1  0  0  0  0
 13 14  2  0  0  0  0
 13 15  1  0  0  0  0
 15 16  1  0  0  0  0
 15 40  1  0  0  0  0
 16 17  1  0  0  0  0
 16 41  1  0  0  0  0
 16 42  1  0  0  0  0
 17 18  1  0  0  0  0
 17 43  1  0  0  0  0
 17 44  1  0  0  0  0
 18 23  1  0  0  0  0
 18 19  2  0  0  0  0
 19 20  1  0  0  0  0
 19 45  1  0  0  0  0
 20 21  2  0  0  0  0
 20 46  1  0  0  0  0
 21 22  1  0  0  0  0
 21 47  1  0  0  0  0
 22 23  2  0  0  0  0
 23 48  1  0  0  0  0
 24 25  2  0  0  0  0
M  CHG  1   8  -1
M  END
> <s_m_source_file>
AV-unprocessed.smi

> <i_m_source_file_index>
837

> <i_lp_mmshare_version>
43012

> <i_f3d_flags>
0

> <s_epik_input>
W0NIMl0xW0NIMl1bQ0gyXVtDSDJdW0NAQEhdKFtDSDNdKVtDQEBdMTJbTkhdQyg9TylOKEMyPU8pW0NIMl1DKD1PKVtOSF1bQ0gyXVtDSDJdYzNbY0hdW2NIXVtjSF1uW2NIXTM=

> <s_epik_cmdline>
J2VwaWtfcHl0aG9uJywgJy1waCcsICc3LjAnLCAnLXRuJywgJzgnLCAnLW1hJywgJzIwMCcsICctbWV0YWxfYmluZGluZycsICctaW1hZScsICc8aW5maWxlLm1hZT4nLCAnLW9tYWUnLCAnPG91dGZpbGUubWFlPic=

> <r_lp_tautomer_probability>
1

> <r_epik_Ionization_Penalty>
6.03002

> <r_epik_Ionization_Penalty_Charging>
6.01728

> <r_epik_Ionization_Penalty_Neutral>
0.0127382

> <r_epik_State_Penalty>
6.02713

> <r_epik_Charging_Adjusted_Penalty>
12.0444

> <i_epik_Tot_Q>
-1

> <i_epik_Tot_abs_Q>
1

> <r_epik_Metal_State_Penalty>
1.99078

> <b_epik_Metal_Only>
1

> <s_lp_Force_Field>
OPLS_2005

> <r_lp_Energy>
14.9732

> <b_lp_Chiralities_Consistent>
1

> <s_lp_Variant>
AV-unprocessed.smi:837-11

> <Gold.Version>
5.8.1

> <Gold.Id.Protein>
6NUR|6NUR_protein|mol2

> <Gold.PLP.Fitness>
49.3146

> <Gold.PLP.PLP>
-44.9076

> <Gold.PLP.part.hbond>
-5.3804

> <Gold.PLP.part.metal>
0.0000

> <Gold.PLP.part.buried>
-1.0508

> <Gold.PLP.part.nonpolar>
-38.5130

> <Gold.PLP.part.repulsive>
0.2674

> <Gold.PLP.ligand.clash>
0.0000

> <Gold.PLP.ligand.torsion>
0.7553

> <Gold.PLP.Chemscore.Hbond>
0.9671

> <Gold.PLP.Chemscore.CHOScore>
1.0000

> <Gold.PLP.Chemscore.Metal>
0.0000

> <Gold.Chemscore.Hbonds>
donor molecule, donor type, donor heavy atom, donor atom, acceptor molecule, acceptor atom, score
      L1  H    15    40       P1  8028  0.03
      P1  H  6934  6946       L1    14  0.02
      P1  H  7989  7998       L1    10  0.91
      L1  C    23    48       P1 10174  1.00

> <Gold.PLP.Chemscore.Internal.Correction>
0.0162

> <Gold.Rescore>
     Score         DG    S(hbond)    S(metal)    S(lipo)     H(rot)  DE(clash)    DE(int)     intcor
     14.73     -18.55       1.15        0.00     118.44       1.81       1.83       1.99       ----

> <Gold.Chemscore.Fitness>
14.7259

> <Gold.Chemscore.DG>
-18.5456

> <Gold.Chemscore.ZeroCoef>
-5.4800

> <Gold.Chemscore.Hbond>
1.1493

> <Gold.Chemscore.Metal>
0.0000

> <Gold.Chemscore.Lipo>
118.4434

> <Gold.Chemscore.Internal_Hbond>
0.0000

> <Gold.Chemscore.DEClash>
1.8286

> <Gold.Chemscore.DEInternal>
1.9911

> <Gold.Chemscore.Rot>
1.8090

> <Gold.Chemscore.Internal.Correction>
   9.000000E+99

> <Gold.Chemscore.Hbonds>
donor molecule, donor type, donor heavy atom, donor atom, acceptor molecule, acceptor atom, score
      L1  H    15    40       P1  8028  0.03
      P1  H  6934  6946       L1    14  0.04
      P1  H  7989  7998       L1    10  0.87

> <Gold.Chemscore.Hbond.Weighted>
-3.8388

> <Gold.Chemscore.Metal.Weighted>
-0.0000

> <Gold.Chemscore.Lipo.Weighted>
-13.8579

> <Gold.Chemscore.Internal_Hbond.Weighted>
0.0000

> <Gold.Chemscore.DEClash.Weighted>
1.8286

> <Gold.Chemscore.DEInternal.Weighted>
1.9911

> <Gold.Chemscore.Rot.Weighted>
4.6310

> <Gold.Chemscore.Internal.Correction.Weighted>
   9.000000E+99

> <Gold.Protein.RotatedTorsions>
[ 6907 6896 6895 6894 ] final -138.63 input  -60.11 | X-H torsion
[ 7974 7965 7964 7962 ] final -114.76 input  175.53 | X-H torsion
[ 8008 7997 7996 7995 ] final  -49.70 input   59.86 | X-H torsion
[ 10167 10162 10161 10158 ] final   37.63 input  -65.29 | X-H torsion
[ 10718 10713 10712 10709 ] final  162.60 input   66.30 | X-H torsion
[ 10763 10752 10751 10750 ] final    1.34 input  -60.55 | X-H torsion
[ 11005 11000 10999 10996 ] final  178.98 input  -57.11 | X-H torsion

> <Gold.Protein.ActiveResidues>
 VAL166  LYS551  ARG553  GLY616  TRP617  ASP618  TYR619  PRO620  LYS621  CYS622 
 ASP623  PHE694  ASN695  SER759  ASP760  ASP761  ALA762  ILE779  LEU786  VAL792 
 PHE793  MET794  SER795  GLU796  ALA797  LYS798  CYS799  TRP800  GLU811  SER814 

> <Gold.Protein.RotatedAtoms>
  151.0375  133.5736  159.2654 H   0  0  0  0  0  0  0  0  0  0  0  0  # atno 6907 bound_to 6896
  151.2794  135.0708  159.9174 H   0  0  0  0  0  0  0  0  0  0  0  0  # atno 6908 bound_to 6896
  152.5357  134.0092  159.7984 H   0  0  0  0  0  0  0  0  0  0  0  0  # atno 6909 bound_to 6896
  145.1164  140.8643  143.3839 H   0  0  0  0  0  0  0  0  0  0  0  0  # atno 7974 bound_to 7965
  154.4048  140.1290  156.4545 H   0  0  0  0  0  0  0  0  0  0  0  0  # atno 8008 bound_to 7997
  155.7333  140.3491  155.5050 H   0  0  0  0  0  0  0  0  0  0  0  0  # atno 8009 bound_to 7997
  155.9107  140.1035  157.1272 H   0  0  0  0  0  0  0  0  0  0  0  0  # atno 8010 bound_to 7997
  140.4014  144.1718  150.6134 H   0  0  0  0  0  0  0  0  0  0  0  0  # atno 10167 bound_to 10162
  157.1203  131.0490  151.2418 H   0  0  0  0  0  0  0  0  0  0  0  0  # atno 10718 bound_to 10713
  153.3093  135.6961  153.7131 H   0  0  0  0  0  0  0  0  0  0  0  0  # atno 10763 bound_to 10752
  153.6014  135.3461  155.2947 H   0  0  0  0  0  0  0  0  0  0  0  0  # atno 10764 bound_to 10752
  154.8571  135.4341  154.2226 H   0  0  0  0  0  0  0  0  0  0  0  0  # atno 10765 bound_to 10752
  140.4011  134.6776  157.4562 H   0  0  0  0  0  0  0  0  0  0  0  0  # atno 11005 bound_to 11000
  145.0789  139.2975  143.5794 LP  0  0  0  0  0  0  0  0  0  0  0  0  # atno 17320 bound_to 7965
  146.3523  140.0289  142.8652 LP  0  0  0  0  0  0  0  0  0  0  0  0  # atno 17321 bound_to 7965
  140.4735  143.2404  151.9055 LP  0  0  0  0  0  0  0  0  0  0  0  0  # atno 17342 bound_to 10162
  139.4784  144.5344  151.8619 LP  0  0  0  0  0  0  0  0  0  0  0  0  # atno 17343 bound_to 10162
  157.4482  130.7583  149.7128 LP  0  0  0  0  0  0  0  0  0  0  0  0  # atno 17370 bound_to 10713
  155.9830  130.4004  150.3386 LP  0  0  0  0  0  0  0  0  0  0  0  0  # atno 17371 bound_to 10713
  140.0335  134.6371  155.9074 LP  0  0  0  0  0  0  0  0  0  0  0  0  # atno 17394 bound_to 11000
  141.1856  133.6555  156.5205 LP  0  0  0  0  0  0  0  0  0  0  0  0  # atno 17395 bound_to 11000

$$$$
