AV-unprocessed.smi:837|AV-procd|sdf|3905|dock2
  -GOLD-   22720 1363D 1   1.00000     0.00000
 Structure written by MMmdl.
 49 51  0  0  0  0  0  0  0  0  3 V2000
  151.3858  139.5960  155.2628 C   0  0  0  0  0  0  0  0  0  0  0  0
  151.6166  140.5587  156.4485 C   0  0  1  0  0  0  0  0  0  0  0  0
  150.7483  141.8247  156.2747 C   0  0  0  0  0  0  0  0  0  0  0  0
  151.0003  142.8510  157.3883 C   0  0  0  0  0  0  0  0  0  0  0  0
  150.7623  142.2370  158.7732 C   0  0  0  0  0  0  0  0  0  0  0  0
  151.6243  140.9790  158.9744 C   0  0  0  0  0  0  0  0  0  0  0  0
  151.4341  139.9117  157.8626 C   0  0  2  0  0  0  0  0  0  0  0  0
  152.4132  138.8573  158.0651 N   0  5  0  0  0  0  0  0  0  0  0  0
  151.7677  137.6954  158.3152 C   0  0  0  0  0  0  0  0  0  0  0  0
  152.2865  136.6046  158.5526 O   0  0  0  0  0  0  0  0  0  0  0  0
  150.4327  137.8682  158.2933 N   0  0  0  0  0  0  0  0  0  0  0  0
  149.4493  136.8168  158.5796 C   0  0  0  0  0  0  0  0  0  0  0  0
  149.6290  135.6325  157.6264 C   0  0  0  0  0  0  0  0  0  0  0  0
  149.6481  134.4815  158.0618 O   0  0  0  0  0  0  0  0  0  0  0  0
  149.7761  135.9373  156.3289 N   0  0  0  0  0  0  0  0  0  0  0  0
  150.0580  134.9859  155.2584 C   0  0  0  0  0  0  0  0  0  0  0  0
  149.1467  133.7379  155.2876 C   0  0  0  0  0  0  0  0  0  0  0  0
  148.3264  133.5259  154.0231 C   0  0  0  0  0  0  0  0  0  0  0  0
  147.1880  134.3226  153.7652 C   0  0  0  0  0  0  0  0  0  0  0  0
  146.4360  134.0990  152.5938 C   0  0  0  0  0  0  0  0  0  0  0  0
  146.8297  133.0742  151.7107 C   0  0  0  0  0  0  0  0  0  0  0  0
  147.9233  132.3317  151.9886 N   0  3  0  0  0  0  0  0  0  0  0  0
  148.6772  132.5222  153.0937 C   0  0  0  0  0  0  0  0  0  0  0  0
  150.1246  139.1444  158.0383 C   0  0  0  0  0  0  0  0  0  0  0  0
  148.9981  139.6361  157.9633 O   0  0  0  0  0  0  0  0  0  0  0  0
  150.3530  139.2500  155.2143 H   0  0  0  0  0  0  0  0  0  0  0  0
  152.0294  138.7183  155.3252 H   0  0  0  0  0  0  0  0  0  0  0  0
  151.6077  140.0880  154.3158 H   0  0  0  0  0  0  0  0  0  0  0  0
  152.6564  140.8834  156.3795 H   0  0  0  0  0  0  0  0  0  0  0  0
  150.9609  142.2874  155.3104 H   0  0  0  0  0  0  0  0  0  0  0  0
  149.6912  141.5592  156.2537 H   0  0  0  0  0  0  0  0  0  0  0  0
  152.0253  143.2177  157.3223 H   0  0  0  0  0  0  0  0  0  0  0  0
  150.3519  143.7166  157.2497 H   0  0  0  0  0  0  0  0  0  0  0  0
  150.9965  142.9696  159.5458 H   0  0  0  0  0  0  0  0  0  0  0  0
  149.7061  141.9971  158.8947 H   0  0  0  0  0  0  0  0  0  0  0  0
  152.6725  141.2806  159.0131 H   0  0  0  0  0  0  0  0  0  0  0  0
  151.4016  140.5529  159.9538 H   0  0  0  0  0  0  0  0  0  0  0  0
  149.5532  136.4629  159.6066 H   0  0  0  0  0  0  0  0  0  0  0  0
  148.4354  137.2144  158.5053 H   0  0  0  0  0  0  0  0  0  0  0  0
  149.7414  136.9135  156.0722 H   0  0  0  0  0  0  0  0  0  0  0  0
  150.0026  135.4799  154.2875 H   0  0  0  0  0  0  0  0  0  0  0  0
  151.0948  134.6733  155.3844 H   0  0  0  0  0  0  0  0  0  0  0  0
  149.7606  132.8531  155.4594 H   0  0  0  0  0  0  0  0  0  0  0  0
  148.4686  133.7985  156.1393 H   0  0  0  0  0  0  0  0  0  0  0  0
  146.8842  135.0922  154.4599 H   0  0  0  0  0  0  0  0  0  0  0  0
  145.5563  134.6904  152.3860 H   0  0  0  0  0  0  0  0  0  0  0  0
  146.3016  132.8223  150.8028 H   0  0  0  0  0  0  0  0  0  0  0  0
  149.5232  131.8603  153.2068 H   0  0  0  0  0  0  0  0  0  0  0  0
  148.1864  131.5908  151.3387 H   0  0  0  0  0  0  0  0  0  0  0  0
  1  2  1  0  0  0  0
  1 26  1  0  0  0  0
  1 27  1  0  0  0  0
  1 28  1  0  0  0  0
  2  7  1  0  0  0  0
  2  3  1  0  0  0  0
  2 29  1  0  0  0  0
  3  4  1  0  0  0  0
  3 30  1  0  0  0  0
  3 31  1  0  0  0  0
  4  5  1  0  0  0  0
  4 32  1  0  0  0  0
  4 33  1  0  0  0  0
  5  6  1  0  0  0  0
  5 34  1  0  0  0  0
  5 35  1  0  0  0  0
  6  7  1  0  0  0  0
  6 36  1  0  0  0  0
  6 37  1  0  0  0  0
  7 24  1  0  0  0  0
  7  8  1  0  0  0  0
  8  9  1  0  0  0  0
  9 10  2  0  0  0  0
  9 11  1  0  0  0  0
 11 12  1  0  0  0  0
 11 24  1  0  0  0  0
 12 13  1  0  0  0  0
 12 38  1  0  0  0  0
 12 39  1  0  0  0  0
 13 14  2  0  0  0  0
 13 15  1  0  0  0  0
 15 16  1  0  0  0  0
 15 40  1  0  0  0  0
 16 17  1  0  0  0  0
 16 41  1  0  0  0  0
 16 42  1  0  0  0  0
 17 18  1  0  0  0  0
 17 43  1  0  0  0  0
 17 44  1  0  0  0  0
 18 23  1  0  0  0  0
 18 19  2  0  0  0  0
 19 20  1  0  0  0  0
 19 45  1  0  0  0  0
 20 21  2  0  0  0  0
 20 46  1  0  0  0  0
 21 22  1  0  0  0  0
 21 47  1  0  0  0  0
 22 23  2  0  0  0  0
 22 49  1  0  0  0  0
 23 48  1  0  0  0  0
 24 25  2  0  0  0  0
M  CHG  1   8  -1
M  CHG  1  22   1
M  END
> <s_m_source_file>
AV-unprocessed.smi

> <i_m_source_file_index>
837

> <i_lp_mmshare_version>
43012

> <i_f3d_flags>
0

> <s_epik_input>
W0NIMl0xW0NIMl1bQ0gyXVtDSDJdW0NAQEhdKFtDSDNdKVtDQEBdMTJbTkhdQyg9TylOKEMyPU8pW0NIMl1DKD1PKVtOSF1bQ0gyXVtDSDJdYzNbY0hdW2NIXVtjSF1uW2NIXTM=

> <s_epik_cmdline>
J2VwaWtfcHl0aG9uJywgJy1waCcsICc3LjAnLCAnLXRuJywgJzgnLCAnLW1hJywgJzIwMCcsICctbWV0YWxfYmluZGluZycsICctaW1hZScsICc8aW5maWxlLm1hZT4nLCAnLW9tYWUnLCAnPG91dGZpbGUubWFlPic=

> <r_lp_tautomer_probability>
1

> <r_epik_Ionization_Penalty>
8.27169

> <r_epik_Ionization_Penalty_Charging>
8.27169

> <r_epik_Ionization_Penalty_Neutral>
1.56557e-07

> <r_epik_State_Penalty>
8.42098

> <r_epik_Charging_Adjusted_Penalty>
16.6927

> <i_epik_Tot_Q>
0

> <i_epik_Tot_abs_Q>
2

> <r_epik_Metal_State_Penalty>
4.38565

> <b_epik_Metal_Only>
1

> <s_lp_Force_Field>
OPLS_2005

> <r_lp_Energy>
12.2851

> <b_lp_Chiralities_Consistent>
1

> <s_lp_Variant>
AV-unprocessed.smi:837-14

> <Gold.Version>
5.8.1

> <Gold.Id.Protein>
6NUR|6NUR_protein|mol2

> <Gold.PLP.Fitness>
46.0262

> <Gold.PLP.PLP>
-39.4079

> <Gold.PLP.part.hbond>
-3.0000

> <Gold.PLP.part.metal>
0.0000

> <Gold.PLP.part.buried>
-5.2684

> <Gold.PLP.part.nonpolar>
-30.9773

> <Gold.PLP.part.repulsive>
0.0648

> <Gold.PLP.ligand.clash>
0.0000

> <Gold.PLP.ligand.torsion>
0.8039

> <Gold.PLP.Chemscore.Hbond>
2.7200

> <Gold.PLP.Chemscore.CHOScore>
0.0000

> <Gold.PLP.Chemscore.Metal>
0.0000

> <Gold.Chemscore.Hbonds>
donor molecule, donor type, donor heavy atom, donor atom, acceptor molecule, acceptor atom, score
      L1  H    22    49       P1 10747  0.96
      P1  H  6896  6907       L1    10  0.51
      P1  H  6896  6909       L1    14  1.00

> <Gold.PLP.Chemscore.Internal.Correction>
0.0662

> <Gold.Rescore>
     Score         DG    S(hbond)    S(metal)    S(lipo)     H(rot)  DE(clash)    DE(int)     intcor
     17.00     -20.20       2.80        0.00      87.79       1.92       0.06       3.13       ----

> <Gold.Chemscore.Fitness>
17.0042

> <Gold.Chemscore.DG>
-20.1995

> <Gold.Chemscore.ZeroCoef>
-5.4800

> <Gold.Chemscore.Hbond>
2.8016

> <Gold.Chemscore.Metal>
0.0000

> <Gold.Chemscore.Lipo>
87.7851

> <Gold.Chemscore.Internal_Hbond>
0.0000

> <Gold.Chemscore.DEClash>
0.0620

> <Gold.Chemscore.DEInternal>
3.1333

> <Gold.Chemscore.Rot>
1.9175

> <Gold.Chemscore.Internal.Correction>
   9.000000E+99

> <Gold.Chemscore.Hbonds>
donor molecule, donor type, donor heavy atom, donor atom, acceptor molecule, acceptor atom, score
      L1  H    22    49       P1 10747  0.89
      P1  H  6896  6907       L1    10  0.51
      P1  H  6896  6909       L1    14  0.96

> <Gold.Chemscore.Hbond.Weighted>
-9.3574

> <Gold.Chemscore.Metal.Weighted>
-0.0000

> <Gold.Chemscore.Lipo.Weighted>
-10.2709

> <Gold.Chemscore.Internal_Hbond.Weighted>
0.0000

> <Gold.Chemscore.DEClash.Weighted>
0.0620

> <Gold.Chemscore.DEInternal.Weighted>
3.1333

> <Gold.Chemscore.Rot.Weighted>
4.9087

> <Gold.Chemscore.Internal.Correction.Weighted>
   9.000000E+99

> <Gold.Protein.RotatedTorsions>
[ 6907 6896 6895 6894 ] final   11.49 input  -60.11 | X-H torsion
[ 7974 7965 7964 7962 ] final  100.79 input  175.53 | X-H torsion
[ 8008 7997 7996 7995 ] final   75.51 input   59.86 | X-H torsion
[ 10167 10162 10161 10158 ] final   -3.57 input  -65.29 | X-H torsion
[ 10718 10713 10712 10709 ] final   66.20 input   66.30 | X-H torsion
[ 10763 10752 10751 10750 ] final  -52.02 input  -60.55 | X-H torsion
[ 11005 11000 10999 10996 ] final -169.96 input  -57.11 | X-H torsion

> <Gold.Protein.ActiveResidues>
 VAL166  LYS551  ARG553  GLY616  TRP617  ASP618  TYR619  PRO620  LYS621  CYS622 
 ASP623  PHE694  ASN695  SER759  ASP760  ASP761  ALA762  ILE779  LEU786  VAL792 
 PHE793  MET794  SER795  GLU796  ALA797  LYS798  CYS799  TRP800  GLU811  SER814 

> <Gold.Protein.RotatedAtoms>
  151.7551  135.0823  160.0336 H   0  0  0  0  0  0  0  0  0  0  0  0  # atno 6907 bound_to 6896
  152.3391  133.6041  159.5872 H   0  0  0  0  0  0  0  0  0  0  0  0  # atno 6908 bound_to 6896
  150.7468  133.9667  159.3574 H   0  0  0  0  0  0  0  0  0  0  0  0  # atno 6909 bound_to 6896
  145.3809  139.2380  143.3404 H   0  0  0  0  0  0  0  0  0  0  0  0  # atno 7974 bound_to 7965
  155.8140  140.3472  155.5474 H   0  0  0  0  0  0  0  0  0  0  0  0  # atno 8008 bound_to 7997
  155.8412  140.0942  157.1753 H   0  0  0  0  0  0  0  0  0  0  0  0  # atno 8009 bound_to 7997
  154.4005  140.1394  156.3718 H   0  0  0  0  0  0  0  0  0  0  0  0  # atno 8010 bound_to 7997
  140.6895  143.6525  150.8338 H   0  0  0  0  0  0  0  0  0  0  0  0  # atno 10167 bound_to 10162
  157.6154  130.9255  150.0077 H   0  0  0  0  0  0  0  0  0  0  0  0  # atno 10718 bound_to 10713
  154.1360  135.6512  153.4932 H   0  0  0  0  0  0  0  0  0  0  0  0  # atno 10763 bound_to 10752
  153.0180  135.5304  154.6953 H   0  0  0  0  0  0  0  0  0  0  0  0  # atno 10764 bound_to 10752
  154.6201  135.2963  155.0306 H   0  0  0  0  0  0  0  0  0  0  0  0  # atno 10765 bound_to 10752
  140.5248  134.5674  157.5058 H   0  0  0  0  0  0  0  0  0  0  0  0  # atno 11005 bound_to 11000
  146.2842  140.4477  142.8764 LP  0  0  0  0  0  0  0  0  0  0  0  0  # atno 17320 bound_to 7965
  144.8508  140.6998  143.6169 LP  0  0  0  0  0  0  0  0  0  0  0  0  # atno 17321 bound_to 7965
  140.0236  143.5517  152.2790 LP  0  0  0  0  0  0  0  0  0  0  0  0  # atno 17342 bound_to 10162
  139.6284  144.7640  151.2589 LP  0  0  0  0  0  0  0  0  0  0  0  0  # atno 17343 bound_to 10162
  156.1274  130.3644  149.9788 LP  0  0  0  0  0  0  0  0  0  0  0  0  # atno 17370 bound_to 10713
  156.7856  130.9237  151.3646 LP  0  0  0  0  0  0  0  0  0  0  0  0  # atno 17371 bound_to 10713
  139.9586  134.7492  156.0287 LP  0  0  0  0  0  0  0  0  0  0  0  0  # atno 17394 bound_to 11000
  141.1314  133.6585  156.3475 LP  0  0  0  0  0  0  0  0  0  0  0  0  # atno 17395 bound_to 11000

$$$$
