AV-unprocessed.smi:2061|AV-procd|sdf|8381|dock9
  -GOLD-   2272011 63D 1   1.00000     0.00000
 Structure written by MMmdl.
 45 46  0  0  0  0  0  0  0  0  3 V2000
  146.3696  133.3087  161.9573 C   0  0  0  0  0  0  0  0  0  0  0  0
  146.8765  134.6459  161.5370 C   0  0  0  0  0  0  0  0  0  0  0  0
  147.0342  135.2360  160.3151 C   0  0  0  0  0  0  0  0  0  0  0  0
  147.5758  136.5105  160.6371 C   0  0  0  0  0  0  0  0  0  0  0  0
  147.8984  137.4751  159.7616 N   0  5  0  0  0  0  0  0  0  0  0  0
  149.0657  137.4155  159.0817 C   0  0  0  0  0  0  0  0  0  0  0  0
  149.8263  136.4469  159.0137 O   0  0  0  0  0  0  0  0  0  0  0  0
  149.3691  138.5485  158.4327 N   0  0  0  0  0  0  0  0  0  0  0  0
  150.5497  138.7630  157.6015 C   0  0  0  0  0  0  0  0  0  0  0  0
  150.6553  140.2139  157.0614 C   0  0  1  0  0  0  0  0  0  0  0  0
  149.3224  140.6334  156.3945 C   0  0  0  0  0  0  0  0  0  0  0  0
  151.0966  141.1390  158.1555 N   0  3  1  0  0  0  0  0  0  0  0  0
  152.2976  140.6372  158.8760 C   0  0  0  0  0  0  0  0  0  0  0  0
  152.6478  141.5471  160.0671 C   0  0  1  0  0  0  0  0  0  0  0  0
  153.9131  141.0844  160.7982 C   0  0  0  0  0  0  0  0  0  0  0  0
  152.8730  142.8653  159.5854 O   0  0  0  0  0  0  0  0  0  0  0  0
  151.7172  143.4188  158.9706 C   0  0  1  0  0  0  0  0  0  0  0  0
  152.0383  144.8637  158.5724 C   0  0  0  0  0  0  0  0  0  0  0  0
  151.3174  142.5565  157.7570 C   0  0  0  0  0  0  0  0  0  0  0  0
  147.7160  136.6855  161.9402 N   0  0  0  0  0  0  0  0  0  0  0  0
  147.2768  135.4914  162.5244 O   0  0  0  0  0  0  0  0  0  0  0  0
  145.4296  133.0775  161.4564 H   0  0  0  0  0  0  0  0  0  0  0  0
  146.1960  133.2739  163.0330 H   0  0  0  0  0  0  0  0  0  0  0  0
  147.0883  132.5287  161.7054 H   0  0  0  0  0  0  0  0  0  0  0  0
  146.8040  134.8214  159.3453 H   0  0  0  0  0  0  0  0  0  0  0  0
  148.7223  139.3188  158.5189 H   0  0  0  0  0  0  0  0  0  0  0  0
  151.4270  138.5312  158.2056 H   0  0  0  0  0  0  0  0  0  0  0  0
  150.5353  138.0257  156.7997 H   0  0  0  0  0  0  0  0  0  0  0  0
  151.4169  140.2463  156.2807 H   0  0  0  0  0  0  0  0  0  0  0  0
  149.0177  139.9268  155.6225 H   0  0  0  0  0  0  0  0  0  0  0  0
  149.4018  141.5980  155.8931 H   0  0  0  0  0  0  0  0  0  0  0  0
  148.5121  140.6892  157.1218 H   0  0  0  0  0  0  0  0  0  0  0  0
  152.1390  139.6254  159.2447 H   0  0  0  0  0  0  0  0  0  0  0  0
  153.1405  140.5894  158.1841 H   0  0  0  0  0  0  0  0  0  0  0  0
  151.8209  141.5571  160.7796 H   0  0  0  0  0  0  0  0  0  0  0  0
  153.7911  140.0761  161.1945 H   0  0  0  0  0  0  0  0  0  0  0  0
  154.1419  141.7442  161.6357 H   0  0  0  0  0  0  0  0  0  0  0  0
  154.7763  141.0804  160.1320 H   0  0  0  0  0  0  0  0  0  0  0  0
  150.8996  143.4344  159.6936 H   0  0  0  0  0  0  0  0  0  0  0  0
  151.1772  145.3453  158.1088 H   0  0  0  0  0  0  0  0  0  0  0  0
  152.8659  144.9036  157.8633 H   0  0  0  0  0  0  0  0  0  0  0  0
  152.3195  145.4546  159.4444 H   0  0  0  0  0  0  0  0  0  0  0  0
  152.0894  142.6018  156.9869 H   0  0  0  0  0  0  0  0  0  0  0  0
  150.4083  142.9857  157.3367 H   0  0  0  0  0  0  0  0  0  0  0  0
  150.3397  141.1579  158.8240 H   0  0  0  0  0  0  0  0  0  0  0  0
  1  2  1  0  0  0  0
  1 22  1  0  0  0  0
  1 23  1  0  0  0  0
  1 24  1  0  0  0  0
  2 21  1  0  0  0  0
  2  3  2  0  0  0  0
  3  4  1  0  0  0  0
  3 25  1  0  0  0  0
  4  5  1  0  0  0  0
  4 20  2  0  0  0  0
  5  6  1  0  0  0  0
  6  7  2  0  0  0  0
  6  8  1  0  0  0  0
  8  9  1  0  0  0  0
  8 26  1  0  0  0  0
  9 10  1  0  0  0  0
  9 27  1  0  0  0  0
  9 28  1  0  0  0  0
 10 11  1  0  0  0  0
 10 12  1  0  0  0  0
 10 29  1  0  0  0  0
 11 30  1  0  0  0  0
 11 31  1  0  0  0  0
 11 32  1  0  0  0  0
 12 19  1  0  0  0  0
 12 13  1  0  0  0  0
 12 45  1  0  0  0  0
 13 14  1  0  0  0  0
 13 33  1  0  0  0  0
 13 34  1  0  0  0  0
 14 15  1  0  0  0  0
 14 16  1  0  0  0  0
 14 35  1  0  0  0  0
 15 36  1  0  0  0  0
 15 37  1  0  0  0  0
 15 38  1  0  0  0  0
 16 17  1  0  0  0  0
 17 18  1  0  0  0  0
 17 19  1  0  0  0  0
 17 39  1  0  0  0  0
 18 40  1  0  0  0  0
 18 41  1  0  0  0  0
 18 42  1  0  0  0  0
 19 43  1  0  0  0  0
 19 44  1  0  0  0  0
 20 21  1  0  0  0  0
M  CHG  1   5  -1
M  CHG  1  12   1
M  END
> <s_m_source_file>
AV-unprocessed.smi

> <i_m_source_file_index>
2061

> <i_lp_mmshare_version>
43012

> <i_f3d_flags>
0

> <s_epik_input>
W0NIM11jMVtjSF1jKG5vMSlbTkhdQyg9TylbTkhdW0NIMl1bQ0BIXShbQ0gzXSlOMltDSDJdW0NAQEhdKFtDSDNdKU9bQ0BASF0oW0NIM10pW0NIMl0y

> <s_epik_cmdline>
J2VwaWtfcHl0aG9uJywgJy1waCcsICc3LjAnLCAnLXRuJywgJzgnLCAnLW1hJywgJzIwMCcsICctbWV0YWxfYmluZGluZycsICctaW1hZScsICc8aW5maWxlLm1hZT4nLCAnLW9tYWUnLCAnPG91dGZpbGUubWFlPic=

> <r_epik_Ionization_Penalty>
6.73511

> <r_epik_Ionization_Penalty_Charging>
6.73502

> <r_epik_Ionization_Penalty_Neutral>
9.50841e-05

> <r_epik_State_Penalty>
6.93549

> <r_epik_Charging_Adjusted_Penalty>
13.6705

> <i_epik_Tot_Q>
0

> <i_epik_Tot_abs_Q>
2

> <r_epik_Metal_State_Penalty>
2.87211

> <b_epik_Metal_Only>
1

> <s_lp_Force_Field>
OPLS_2005

> <r_lp_Energy>
8.02842

> <b_lp_Chiralities_Consistent>
1

> <s_lp_Variant>
AV-unprocessed.smi:2061-22

> <Gold.Version>
5.8.1

> <Gold.Id.Protein>
6NUR|6NUR_protein|mol2

> <Gold.PLP.Fitness>
47.0081

> <Gold.PLP.PLP>
-39.6329

> <Gold.PLP.part.hbond>
-4.0000

> <Gold.PLP.part.metal>
0.0000

> <Gold.PLP.part.buried>
-7.4261

> <Gold.PLP.part.nonpolar>
-29.9410

> <Gold.PLP.part.repulsive>
0.3050

> <Gold.PLP.ligand.clash>
0.0000

> <Gold.PLP.ligand.torsion>
0.8785

> <Gold.PLP.Chemscore.Hbond>
3.0160

> <Gold.PLP.Chemscore.CHOScore>
0.0000

> <Gold.PLP.Chemscore.Metal>
0.0000

> <Gold.Chemscore.Hbonds>
donor molecule, donor type, donor heavy atom, donor atom, acceptor molecule, acceptor atom, score
      P1  H  6896  6908       L1     7  1.00
      P1  H  6931  6943       L1    20  0.93
      P1  H  6934  6947       L1     5  0.99

> <Gold.PLP.Chemscore.Internal.Correction>
0.0842

> <Gold.Rescore>
     Score         DG    S(hbond)    S(metal)    S(lipo)     H(rot)  DE(clash)    DE(int)     intcor
     16.12     -17.01       1.45        0.00      91.04       1.56       0.04       0.86       ----

> <Gold.Chemscore.Fitness>
16.1158

> <Gold.Chemscore.DG>
-17.0085

> <Gold.Chemscore.ZeroCoef>
-5.4800

> <Gold.Chemscore.Hbond>
1.4542

> <Gold.Chemscore.Metal>
0.0000

> <Gold.Chemscore.Lipo>
91.0449

> <Gold.Chemscore.Internal_Hbond>
0.0000

> <Gold.Chemscore.DEClash>
0.0366

> <Gold.Chemscore.DEInternal>
0.8561

> <Gold.Chemscore.Rot>
1.5550

> <Gold.Chemscore.Internal.Correction>
   9.000000E+99

> <Gold.Chemscore.Hbonds>
donor molecule, donor type, donor heavy atom, donor atom, acceptor molecule, acceptor atom, score
      P1  H  6896  6908       L1     7  0.95
      P1  H  6931  6943       L1    20  0.20
      P1  H  6934  6947       L1     5  0.07

> <Gold.Chemscore.Hbond.Weighted>
-4.8571

> <Gold.Chemscore.Metal.Weighted>
-0.0000

> <Gold.Chemscore.Lipo.Weighted>
-10.6523

> <Gold.Chemscore.Internal_Hbond.Weighted>
0.0000

> <Gold.Chemscore.DEClash.Weighted>
0.0366

> <Gold.Chemscore.DEInternal.Weighted>
0.8561

> <Gold.Chemscore.Rot.Weighted>
3.9809

> <Gold.Chemscore.Internal.Correction.Weighted>
   9.000000E+99

> <Gold.Protein.RotatedTorsions>
[ 6907 6896 6895 6894 ] final -176.15 input  -60.11 | X-H torsion
[ 7974 7965 7964 7962 ] final   96.75 input  175.53 | X-H torsion
[ 8008 7997 7996 7995 ] final  -12.42 input   59.86 | X-H torsion
[ 10167 10162 10161 10158 ] final  176.41 input  -65.29 | X-H torsion
[ 10718 10713 10712 10709 ] final  151.58 input   66.30 | X-H torsion
[ 10763 10752 10751 10750 ] final  -15.55 input  -60.55 | X-H torsion
[ 11005 11000 10999 10996 ] final   71.05 input  -57.11 | X-H torsion

> <Gold.Protein.ActiveResidues>
 VAL166  LYS551  ARG553  GLY616  TRP617  ASP618  TYR619  PRO620  LYS621  CYS622 
 ASP623  PHE694  ASN695  SER759  ASP760  ASP761  ALA762  ILE779  LEU786  VAL792 
 PHE793  MET794  SER795  GLU796  ALA797  LYS798  CYS799  TRP800  GLU811  SER814 

> <Gold.Protein.RotatedAtoms>
  151.6001  133.3357  159.3045 H   0  0  0  0  0  0  0  0  0  0  0  0  # atno 6907 bound_to 6896
  150.8212  134.7424  159.6785 H   0  0  0  0  0  0  0  0  0  0  0  0  # atno 6908 bound_to 6896
  152.4306  134.5791  159.9994 H   0  0  0  0  0  0  0  0  0  0  0  0  # atno 6909 bound_to 6896
  145.4346  139.2307  143.3125 H   0  0  0  0  0  0  0  0  0  0  0  0  # atno 7974 bound_to 7965
  154.5379  140.2276  155.8691 H   0  0  0  0  0  0  0  0  0  0  0  0  # atno 8008 bound_to 7997
  156.1829  140.3096  155.9146 H   0  0  0  0  0  0  0  0  0  0  0  0  # atno 8009 bound_to 7997
  155.3317  140.0446  157.3033 H   0  0  0  0  0  0  0  0  0  0  0  0  # atno 8010 bound_to 7997
  139.5213  144.2918  152.0457 H   0  0  0  0  0  0  0  0  0  0  0  0  # atno 10167 bound_to 10162
  157.2689  131.0813  151.1613 H   0  0  0  0  0  0  0  0  0  0  0  0  # atno 10718 bound_to 10713
  153.5451  135.7012  153.5618 H   0  0  0  0  0  0  0  0  0  0  0  0  # atno 10763 bound_to 10752
  153.3566  135.3981  155.1687 H   0  0  0  0  0  0  0  0  0  0  0  0  # atno 10764 bound_to 10752
  154.8668  135.3778  154.4958 H   0  0  0  0  0  0  0  0  0  0  0  0  # atno 10765 bound_to 10752
  139.9564  134.7137  156.0744 H   0  0  0  0  0  0  0  0  0  0  0  0  # atno 11005 bound_to 11000
  146.2589  140.5088  142.8862 LP  0  0  0  0  0  0  0  0  0  0  0  0  # atno 17320 bound_to 7965
  144.8160  140.6469  143.6384 LP  0  0  0  0  0  0  0  0  0  0  0  0  # atno 17321 bound_to 7965
  140.2369  144.4310  150.6276 LP  0  0  0  0  0  0  0  0  0  0  0  0  # atno 17342 bound_to 10162
  140.6317  143.2188  151.6481 LP  0  0  0  0  0  0  0  0  0  0  0  0  # atno 17343 bound_to 10162
  157.3093  130.6882  149.6207 LP  0  0  0  0  0  0  0  0  0  0  0  0  # atno 17370 bound_to 10713
  155.9663  130.4368  150.5150 LP  0  0  0  0  0  0  0  0  0  0  0  0  # atno 17371 bound_to 10713
  141.1236  133.6605  156.3278 LP  0  0  0  0  0  0  0  0  0  0  0  0  # atno 17394 bound_to 11000
  140.5600  134.5944  157.5431 LP  0  0  0  0  0  0  0  0  0  0  0  0  # atno 17395 bound_to 11000

$$$$
