AV-unprocessed.smi:3163|AV-procd|sdf|12072|dock1
  -GOLD-   2272017503D 1   1.00000     0.00000
 Structure written by MMmdl.
 36 37  0  0  0  0  0  0  0  0  2 V2000
  144.3636  132.4778  151.6304 C   0  0  0  0  0  0  0  0  0  0  0  0
  144.0802  133.4633  152.6946 N   0  3  2  0  0  0  0  0  0  0  0  0
  143.1054  134.5065  152.3098 C   0  0  0  0  0  0  0  0  0  0  0  0
  143.4973  135.7426  153.1149 C   0  0  0  0  0  0  0  0  0  0  0  0
  145.0204  135.6504  153.1419 C   0  0  1  0  0  0  0  0  0  0  0  0
  145.6806  136.4953  154.2491 C   0  0  0  0  0  0  0  0  0  0  0  0
  147.0693  136.8230  153.9420 N   0  0  0  0  0  0  0  0  0  0  0  0
  147.8787  137.5524  154.7235 C   0  0  0  0  0  0  0  0  0  0  0  0
  147.5232  138.0321  155.7994 O   0  0  0  0  0  0  0  0  0  0  0  0
  149.1018  137.6703  154.1772 N   0  0  0  0  0  0  0  0  0  0  0  0
  150.2437  138.3643  154.6650 C   0  0  0  0  0  0  0  0  0  0  0  0
  151.5083  137.7981  154.4016 C   0  0  0  0  0  0  0  0  0  0  0  0
  152.6619  138.4647  154.8601 C   0  0  0  0  0  0  0  0  0  0  0  0
  152.6242  139.6309  155.5377 N   0  0  0  0  0  0  0  0  0  0  0  0
  151.4145  140.1779  155.7801 C   0  0  0  0  0  0  0  0  0  0  0  0
  150.2001  139.5938  155.3672 C   0  0  0  0  0  0  0  0  0  0  0  0
  145.2809  134.1393  153.2407 C   0  0  0  0  0  0  0  0  0  0  0  0
  144.8275  132.9553  150.7661 H   0  0  0  0  0  0  0  0  0  0  0  0
  143.4421  131.9952  151.3034 H   0  0  0  0  0  0  0  0  0  0  0  0
  145.0371  131.7033  151.9982 H   0  0  0  0  0  0  0  0  0  0  0  0
  143.1955  134.7256  151.2442 H   0  0  0  0  0  0  0  0  0  0  0  0
  142.0804  134.1877  152.5014 H   0  0  0  0  0  0  0  0  0  0  0  0
  143.1356  136.6693  152.6682 H   0  0  0  0  0  0  0  0  0  0  0  0
  143.0922  135.6721  154.1257 H   0  0  0  0  0  0  0  0  0  0  0  0
  145.3827  135.9905  152.1700 H   0  0  0  0  0  0  0  0  0  0  0  0
  145.1132  137.4131  154.4128 H   0  0  0  0  0  0  0  0  0  0  0  0
  145.6654  135.9524  155.1945 H   0  0  0  0  0  0  0  0  0  0  0  0
  147.4437  136.4566  153.0787 H   0  0  0  0  0  0  0  0  0  0  0  0
  149.2470  137.1664  153.3148 H   0  0  0  0  0  0  0  0  0  0  0  0
  151.5985  136.8668  153.8613 H   0  0  0  0  0  0  0  0  0  0  0  0
  153.6416  138.0495  154.6753 H   0  0  0  0  0  0  0  0  0  0  0  0
  151.4135  141.1155  156.3162 H   0  0  0  0  0  0  0  0  0  0  0  0
  149.2772  140.1047  155.5902 H   0  0  0  0  0  0  0  0  0  0  0  0
  145.3948  133.8300  154.2804 H   0  0  0  0  0  0  0  0  0  0  0  0
  146.1962  133.8621  152.7150 H   0  0  0  0  0  0  0  0  0  0  0  0
  143.6698  132.9578  153.4669 H   0  0  0  0  0  0  0  0  0  0  0  0
  1  2  1  0  0  0  0
  1 18  1  0  0  0  0
  1 19  1  0  0  0  0
  1 20  1  0  0  0  0
  2 17  1  0  0  0  0
  2  3  1  0  0  0  0
  2 36  1  0  0  0  0
  3  4  1  0  0  0  0
  3 21  1  0  0  0  0
  3 22  1  0  0  0  0
  4  5  1  0  0  0  0
  4 23  1  0  0  0  0
  4 24  1  0  0  0  0
  5  6  1  0  0  0  0
  5 17  1  0  0  0  0
  5 25  1  0  0  0  0
  6  7  1  0  0  0  0
  6 26  1  0  0  0  0
  6 27  1  0  0  0  0
  7  8  1  0  0  0  0
  7 28  1  0  0  0  0
  8  9  2  0  0  0  0
  8 10  1  0  0  0  0
 10 11  1  0  0  0  0
 10 29  1  0  0  0  0
 11 16  1  0  0  0  0
 11 12  2  0  0  0  0
 12 13  1  0  0  0  0
 12 30  1  0  0  0  0
 13 14  2  0  0  0  0
 13 31  1  0  0  0  0
 14 15  1  0  0  0  0
 15 16  2  0  0  0  0
 15 32  1  0  0  0  0
 16 33  1  0  0  0  0
 17 34  1  0  0  0  0
 17 35  1  0  0  0  0
M  CHG  1   2   1
M  END
> <s_m_source_file>
AV-unprocessed.smi

> <i_m_source_file_index>
3163

> <i_lp_mmshare_version>
43012

> <i_f3d_flags>
0

> <s_epik_input>
W0NIM11OMVtDSDJdW0NIMl1bQ0BIXShbQ0gyXTEpW0NIMl1bTkhdQyg9TylbTkhdYzJbY0hdW2NIXW5bY0hdW2NIXTI=

> <s_epik_cmdline>
J2VwaWtfcHl0aG9uJywgJy1waCcsICc3LjAnLCAnLXRuJywgJzgnLCAnLW1hJywgJzIwMCcsICctbWV0YWxfYmluZGluZycsICctaW1hZScsICc8aW5maWxlLm1hZT4nLCAnLW9tYWUnLCAnPG91dGZpbGUubWFlPic=

> <r_epik_Ionization_Penalty>
0.103936

> <r_epik_Ionization_Penalty_Charging>
0.0012301

> <r_epik_Ionization_Penalty_Neutral>
0.102706

> <r_epik_State_Penalty>
0.0926275

> <r_epik_Charging_Adjusted_Penalty>
0.0938576

> <i_epik_Tot_Q>
1

> <i_epik_Tot_abs_Q>
1

> <r_epik_Metal_State_Penalty>
0.0788376

> <b_epik_Metal_Only>
0

> <s_lp_Force_Field>
OPLS_2005

> <r_lp_Energy>
31.7685

> <b_lp_Chiralities_Consistent>
1

> <s_lp_Variant>
AV-unprocessed.smi:3163-2

> <Gold.Version>
5.8.1

> <Gold.Id.Protein>
6NUR|6NUR_protein|mol2

> <Gold.PLP.Fitness>
40.8643

> <Gold.PLP.PLP>
-26.8976

> <Gold.PLP.part.hbond>
-4.4862

> <Gold.PLP.part.metal>
0.0000

> <Gold.PLP.part.buried>
-3.7165

> <Gold.PLP.part.nonpolar>
-19.8672

> <Gold.PLP.part.repulsive>
0.0245

> <Gold.PLP.ligand.clash>
0.0000

> <Gold.PLP.ligand.torsion>
0.5055

> <Gold.PLP.Chemscore.Hbond>
4.9920

> <Gold.PLP.Chemscore.CHOScore>
0.0000

> <Gold.PLP.Chemscore.Metal>
0.0000

> <Gold.Chemscore.Hbonds>
donor molecule, donor type, donor heavy atom, donor atom, acceptor molecule, acceptor atom, score
      L1  H     2    36       P1 10957  1.98
      L1  H     7    28       P1  7948  0.99
      L1  H    10    29       P1  7948  1.00
      P1  H  7997  8009       L1    14  0.96

> <Gold.PLP.Chemscore.Internal.Correction>
0.0017

> <Gold.Rescore>
     Score         DG    S(hbond)    S(metal)    S(lipo)     H(rot)  DE(clash)    DE(int)     intcor
     21.43     -21.98       3.81        0.00      59.81       1.26       0.03       0.52       ----

> <Gold.Chemscore.Fitness>
21.4311

> <Gold.Chemscore.DG>
-21.9777

> <Gold.Chemscore.ZeroCoef>
-5.4800

> <Gold.Chemscore.Hbond>
3.8067

> <Gold.Chemscore.Metal>
0.0000

> <Gold.Chemscore.Lipo>
59.8144

> <Gold.Chemscore.Internal_Hbond>
0.0000

> <Gold.Chemscore.DEClash>
0.0282

> <Gold.Chemscore.DEInternal>
0.5184

> <Gold.Chemscore.Rot>
1.2559

> <Gold.Chemscore.Internal.Correction>
   9.000000E+99

> <Gold.Chemscore.Hbonds>
donor molecule, donor type, donor heavy atom, donor atom, acceptor molecule, acceptor atom, score
      L1  H     2    36       P1 10957  0.76
      L1  H     7    28       P1  7948  0.93
      L1  H    10    29       P1  7948  0.98
      P1  H  7997  8009       L1    14  0.53

> <Gold.Chemscore.Hbond.Weighted>
-12.7145

> <Gold.Chemscore.Metal.Weighted>
-0.0000

> <Gold.Chemscore.Lipo.Weighted>
-6.9983

> <Gold.Chemscore.Internal_Hbond.Weighted>
0.0000

> <Gold.Chemscore.DEClash.Weighted>
0.0282

> <Gold.Chemscore.DEInternal.Weighted>
0.5184

> <Gold.Chemscore.Rot.Weighted>
3.2151

> <Gold.Chemscore.Internal.Correction.Weighted>
   9.000000E+99

> <Gold.Protein.RotatedTorsions>
[ 6907 6896 6895 6894 ] final  -68.44 input  -60.11 | X-H torsion
[ 7974 7965 7964 7962 ] final   48.73 input  175.53 | X-H torsion
[ 8008 7997 7996 7995 ] final -126.06 input   59.86 | X-H torsion
[ 10167 10162 10161 10158 ] final  -25.71 input  -65.29 | X-H torsion
[ 10718 10713 10712 10709 ] final -173.02 input   66.30 | X-H torsion
[ 10763 10752 10751 10750 ] final -171.48 input  -60.55 | X-H torsion
[ 11005 11000 10999 10996 ] final -127.60 input  -57.11 | X-H torsion

> <Gold.Protein.ActiveResidues>
 VAL166  LYS551  ARG553  GLY616  TRP617  ASP618  TYR619  PRO620  LYS621  CYS622 
 ASP623  PHE694  ASN695  SER759  ASP760  ASP761  ALA762  ILE779  LEU786  VAL792 
 PHE793  MET794  SER795  GLU796  ALA797  LYS798  CYS799  TRP800  GLU811  SER814 

> <Gold.Protein.RotatedAtoms>
  150.7356  134.5739  159.5904 H   0  0  0  0  0  0  0  0  0  0  0  0  # atno 6907 bound_to 6896
  152.3171  134.7423  160.0332 H   0  0  0  0  0  0  0  0  0  0  0  0  # atno 6908 bound_to 6896
  151.7952  133.3328  159.3547 H   0  0  0  0  0  0  0  0  0  0  0  0  # atno 6909 bound_to 6896
  146.0176  139.4614  142.9917 H   0  0  0  0  0  0  0  0  0  0  0  0  # atno 7974 bound_to 7965
  155.2235  140.0423  157.2952 H   0  0  0  0  0  0  0  0  0  0  0  0  # atno 8008 bound_to 7997
  154.5934  140.2433  155.7860 H   0  0  0  0  0  0  0  0  0  0  0  0  # atno 8009 bound_to 7997
  156.2274  140.2950  156.0110 H   0  0  0  0  0  0  0  0  0  0  0  0  # atno 8010 bound_to 7997
  140.7285  143.4241  151.0904 H   0  0  0  0  0  0  0  0  0  0  0  0  # atno 10167 bound_to 10162
  156.7642  130.9425  151.3118 H   0  0  0  0  0  0  0  0  0  0  0  0  # atno 10718 bound_to 10713
  154.6300  135.2885  155.0228 H   0  0  0  0  0  0  0  0  0  0  0  0  # atno 10763 bound_to 10752
  154.1392  135.6521  153.4942 H   0  0  0  0  0  0  0  0  0  0  0  0  # atno 10764 bound_to 10752
  153.0275  135.5329  154.7123 H   0  0  0  0  0  0  0  0  0  0  0  0  # atno 10765 bound_to 10752
  140.9586  134.0967  157.3991 H   0  0  0  0  0  0  0  0  0  0  0  0  # atno 11005 bound_to 11000
  145.7244  141.0064  143.1385 LP  0  0  0  0  0  0  0  0  0  0  0  0  # atno 17320 bound_to 7965
  144.6977  139.8909  143.7453 LP  0  0  0  0  0  0  0  0  0  0  0  0  # atno 17321 bound_to 7965
  139.7890  143.8245  152.3149 LP  0  0  0  0  0  0  0  0  0  0  0  0  # atno 17342 bound_to 10162
  139.8223  144.7290  150.9557 LP  0  0  0  0  0  0  0  0  0  0  0  0  # atno 17343 bound_to 10162
  157.6720  130.9060  150.0063 LP  0  0  0  0  0  0  0  0  0  0  0  0  # atno 17370 bound_to 10713
  156.1319  130.3643  149.9718 LP  0  0  0  0  0  0  0  0  0  0  0  0  # atno 17371 bound_to 10713
  139.8870  135.0086  156.6536 LP  0  0  0  0  0  0  0  0  0  0  0  0  # atno 17394 bound_to 11000
  140.7500  133.8905  155.8340 LP  0  0  0  0  0  0  0  0  0  0  0  0  # atno 17395 bound_to 11000

$$$$
