AV-unprocessed.smi:671|AV-procd|sdf|3275|dock2
  -GOLD-   22720 0233D 1   1.00000     0.00000
 Structure written by MMmdl.
 49 50  0  0  0  0  0  0  0  0  1 V2000
  151.9837  139.3280  156.7789 C   0  0  0  0  0  0  0  0  0  0  0  0
  152.2603  140.3792  157.8158 C   0  0  0  0  0  0  0  0  0  0  0  0
  153.2188  140.1665  158.7014 N   0  0  0  0  0  0  0  0  0  0  0  0
  153.2208  141.2677  159.4783 N   0  0  0  0  0  0  0  0  0  0  0  0
  154.1700  141.3663  160.5702 C   0  0  0  0  0  0  0  0  0  0  0  0
  152.2597  142.1782  159.0844 C   0  0  0  0  0  0  0  0  0  0  0  0
  152.0685  143.4822  159.7897 C   0  0  0  0  0  0  0  0  0  0  0  0
  151.6138  141.6369  158.0043 C   0  0  0  0  0  0  0  0  0  0  0  0
  150.4842  142.2151  157.1892 C   0  0  0  0  0  0  0  0  0  0  0  0
  149.0998  141.7655  157.6951 C   0  0  2  0  0  0  0  0  0  0  0  0
  148.4130  140.7651  156.7473 C   0  0  0  0  0  0  0  0  0  0  0  0
  148.2524  142.9473  157.8744 N   0  0  0  0  0  0  0  0  0  0  0  0
  147.3165  143.1692  158.8153 C   0  0  0  0  0  0  0  0  0  0  0  0
  147.0635  142.3376  159.6848 O   0  0  0  0  0  0  0  0  0  0  0  0
  146.7001  144.3590  158.7192 N   0  0  0  0  0  0  0  0  0  0  0  0
  145.6072  144.8395  159.5640 C   0  0  1  0  0  0  0  0  0  0  0  0
  144.5024  143.7674  159.6664 C   0  0  0  0  0  0  0  0  0  0  0  0
  144.3534  143.4325  161.1545 C   0  0  0  0  0  0  0  0  0  0  0  0
  145.6790  143.8466  161.7865 C   0  0  0  0  0  0  0  0  0  0  0  0
  146.0726  145.1068  161.0148 C   0  0  1  0  0  0  0  0  0  0  0  0
  147.5442  145.5167  161.2054 C   0  0  0  0  0  0  0  0  0  0  0  0
  151.3142  139.6958  156.0018 H   0  0  0  0  0  0  0  0  0  0  0  0
  151.5173  138.4509  157.2278 H   0  0  0  0  0  0  0  0  0  0  0  0
  152.9039  139.0042  156.2920 H   0  0  0  0  0  0  0  0  0  0  0  0
  154.7691  142.2697  160.4554 H   0  0  0  0  0  0  0  0  0  0  0  0
  154.8357  140.5023  160.5829 H   0  0  0  0  0  0  0  0  0  0  0  0
  153.6335  141.4118  161.5181 H   0  0  0  0  0  0  0  0  0  0  0  0
  151.2531  144.0570  159.3521 H   0  0  0  0  0  0  0  0  0  0  0  0
  152.9717  144.0895  159.7297 H   0  0  0  0  0  0  0  0  0  0  0  0
  151.8370  143.3224  160.8430 H   0  0  0  0  0  0  0  0  0  0  0  0
  150.5332  143.3044  157.2154 H   0  0  0  0  0  0  0  0  0  0  0  0
  150.5885  141.9536  156.1358 H   0  0  0  0  0  0  0  0  0  0  0  0
  149.2515  141.2809  158.6610 H   0  0  0  0  0  0  0  0  0  0  0  0
  148.9953  139.8495  156.6438 H   0  0  0  0  0  0  0  0  0  0  0  0
  148.2815  141.1903  155.7518 H   0  0  0  0  0  0  0  0  0  0  0  0
  147.4286  140.4781  157.1179 H   0  0  0  0  0  0  0  0  0  0  0  0
  148.4220  143.7054  157.2291 H   0  0  0  0  0  0  0  0  0  0  0  0
  146.9915  144.9743  157.9738 H   0  0  0  0  0  0  0  0  0  0  0  0
  145.1864  145.7590  159.1538 H   0  0  0  0  0  0  0  0  0  0  0  0
  143.5594  144.1192  159.2467 H   0  0  0  0  0  0  0  0  0  0  0  0
  144.7777  142.8666  159.1149 H   0  0  0  0  0  0  0  0  0  0  0  0
  143.5453  144.0264  161.5836 H   0  0  0  0  0  0  0  0  0  0  0  0
  144.1180  142.3819  161.3261 H   0  0  0  0  0  0  0  0  0  0  0  0
  145.5941  144.0210  162.8595 H   0  0  0  0  0  0  0  0  0  0  0  0
  146.4216  143.0625  161.6317 H   0  0  0  0  0  0  0  0  0  0  0  0
  145.4565  145.9211  161.4000 H   0  0  0  0  0  0  0  0  0  0  0  0
  148.2302  144.7225  160.9095 H   0  0  0  0  0  0  0  0  0  0  0  0
  147.7477  145.7500  162.2506 H   0  0  0  0  0  0  0  0  0  0  0  0
  147.7817  146.4032  160.6170 H   0  0  0  0  0  0  0  0  0  0  0  0
  1  2  1  0  0  0  0
  1 22  1  0  0  0  0
  1 23  1  0  0  0  0
  1 24  1  0  0  0  0
  2  8  1  0  0  0  0
  2  3  2  0  0  0  0
  3  4  1  0  0  0  0
  4  5  1  0  0  0  0
  4  6  1  0  0  0  0
  5 25  1  0  0  0  0
  5 26  1  0  0  0  0
  5 27  1  0  0  0  0
  6  7  1  0  0  0  0
  6  8  2  0  0  0  0
  7 28  1  0  0  0  0
  7 29  1  0  0  0  0
  7 30  1  0  0  0  0
  8  9  1  0  0  0  0
  9 10  1  0  0  0  0
  9 31  1  0  0  0  0
  9 32  1  0  0  0  0
 10 11  1  0  0  0  0
 10 12  1  0  0  0  0
 10 33  1  0  0  0  0
 11 34  1  0  0  0  0
 11 35  1  0  0  0  0
 11 36  1  0  0  0  0
 12 13  1  0  0  0  0
 12 37  1  0  0  0  0
 13 14  2  0  0  0  0
 13 15  1  0  0  0  0
 15 16  1  0  0  0  0
 15 38  1  0  0  0  0
 16 20  1  0  0  0  0
 16 17  1  0  0  0  0
 16 39  1  0  0  0  0
 17 18  1  0  0  0  0
 17 40  1  0  0  0  0
 17 41  1  0  0  0  0
 18 19  1  0  0  0  0
 18 42  1  0  0  0  0
 18 43  1  0  0  0  0
 19 20  1  0  0  0  0
 19 44  1  0  0  0  0
 19 45  1  0  0  0  0
 20 21  1  0  0  0  0
 20 46  1  0  0  0  0
 21 47  1  0  0  0  0
 21 48  1  0  0  0  0
 21 49  1  0  0  0  0
M  END
> <s_m_source_file>
AV-unprocessed.smi

> <i_m_source_file_index>
671

> <i_lp_mmshare_version>
43012

> <i_f3d_flags>
0

> <s_epik_input>
W0NIM11jMW5uKFtDSDNdKWMoW0NIM10pYzFbQ0gyXVtDQEhdKFtDSDNdKVtOSF1DKD1PKVtOSF1bQ0BASF0yW0NIMl1bQ0gyXVtDSDJdW0NASF0yW0NIM10=

> <s_epik_cmdline>
J2VwaWtfcHl0aG9uJywgJy1waCcsICc3LjAnLCAnLXRuJywgJzgnLCAnLW1hJywgJzIwMCcsICctbWV0YWxfYmluZGluZycsICctaW1hZScsICc8aW5maWxlLm1hZT4nLCAnLW9tYWUnLCAnPG91dGZpbGUubWFlPic=

> <r_lp_tautomer_probability>
1

> <r_epik_Ionization_Penalty>
0.0126855

> <r_epik_Ionization_Penalty_Charging>
0

> <r_epik_Ionization_Penalty_Neutral>
0.0126855

> <r_epik_State_Penalty>
0.00977547

> <r_epik_Charging_Adjusted_Penalty>
0.00977547

> <i_epik_Tot_Q>
0

> <i_epik_Tot_abs_Q>
0

> <r_epik_Metal_State_Penalty>
0.00957132

> <b_epik_Metal_Only>
0

> <s_lp_Force_Field>
OPLS_2005

> <r_lp_Energy>
23.5654

> <b_lp_Chiralities_Consistent>
1

> <s_lp_Variant>
AV-unprocessed.smi:671-3

> <Gold.Version>
5.8.1

> <Gold.Id.Protein>
6NUR|6NUR_protein|mol2

> <Gold.PLP.Fitness>
46.6669

> <Gold.PLP.PLP>
-38.8163

> <Gold.PLP.part.hbond>
-5.4852

> <Gold.PLP.part.metal>
0.0000

> <Gold.PLP.part.buried>
-3.6762

> <Gold.PLP.part.nonpolar>
-30.9440

> <Gold.PLP.part.repulsive>
0.1257

> <Gold.PLP.ligand.clash>
0.0000

> <Gold.PLP.ligand.torsion>
1.5107

> <Gold.PLP.Chemscore.Hbond>
3.6107

> <Gold.PLP.Chemscore.CHOScore>
0.0000

> <Gold.PLP.Chemscore.Metal>
0.0000

> <Gold.Chemscore.Hbonds>
donor molecule, donor type, donor heavy atom, donor atom, acceptor molecule, acceptor atom, score
      L1  H    12    37       P1  8028  0.45
      L1  H    15    38       P1  8029  0.84
      P1  H  6933  6944       L1    14  0.25
      P1  H  6934  6946       L1    14  0.80
      P1  H  7997  8009       L1     3  0.42

> <Gold.PLP.Chemscore.Internal.Correction>
0.0399

> <Gold.Rescore>
     Score         DG    S(hbond)    S(metal)    S(lipo)     H(rot)  DE(clash)    DE(int)     intcor
     17.65     -20.90       2.54        0.00      90.93       1.45       0.31       2.93       ----

> <Gold.Chemscore.Fitness>
17.6497

> <Gold.Chemscore.DG>
-20.8970

> <Gold.Chemscore.ZeroCoef>
-5.4800

> <Gold.Chemscore.Hbond>
2.5418

> <Gold.Chemscore.Metal>
0.0000

> <Gold.Chemscore.Lipo>
90.9343

> <Gold.Chemscore.Internal_Hbond>
0.0000

> <Gold.Chemscore.DEClash>
0.3148

> <Gold.Chemscore.DEInternal>
2.9325

> <Gold.Chemscore.Rot>
1.4499

> <Gold.Chemscore.Internal.Correction>
   9.000000E+99

> <Gold.Chemscore.Hbonds>
donor molecule, donor type, donor heavy atom, donor atom, acceptor molecule, acceptor atom, score
      L1  H    12    37       P1  8028  0.02
      L1  H    15    38       P1  8029  0.67
      P1  H  6933  6944       L1    14  0.22
      P1  H  6934  6946       L1    14  0.80
      P1  H  7997  8009       L1     3  0.04

> <Gold.Chemscore.Hbond.Weighted>
-8.4895

> <Gold.Chemscore.Metal.Weighted>
-0.0000

> <Gold.Chemscore.Lipo.Weighted>
-10.6393

> <Gold.Chemscore.Internal_Hbond.Weighted>
0.0000

> <Gold.Chemscore.DEClash.Weighted>
0.3148

> <Gold.Chemscore.DEInternal.Weighted>
2.9325

> <Gold.Chemscore.Rot.Weighted>
3.7118

> <Gold.Chemscore.Internal.Correction.Weighted>
   9.000000E+99

> <Gold.Protein.RotatedTorsions>
[ 6907 6896 6895 6894 ] final  154.73 input  -60.11 | X-H torsion
[ 7974 7965 7964 7962 ] final  -97.46 input  175.53 | X-H torsion
[ 8008 7997 7996 7995 ] final  139.27 input   59.86 | X-H torsion
[ 10167 10162 10161 10158 ] final  124.31 input  -65.29 | X-H torsion
[ 10718 10713 10712 10709 ] final   50.26 input   66.30 | X-H torsion
[ 10763 10752 10751 10750 ] final   45.26 input  -60.55 | X-H torsion
[ 11005 11000 10999 10996 ] final  -84.95 input  -57.11 | X-H torsion

> <Gold.Protein.ActiveResidues>
 VAL166  LYS551  ARG553  GLY616  TRP617  ASP618  TYR619  PRO620  LYS621  CYS622 
 ASP623  PHE694  ASN695  SER759  ASP760  ASP761  ALA762  ILE779  LEU786  VAL792 
 PHE793  MET794  SER795  GLU796  ALA797  LYS798  CYS799  TRP800  GLU811  SER814 

> <Gold.Protein.RotatedAtoms>
  152.0543  133.4033  159.4390 H   0  0  0  0  0  0  0  0  0  0  0  0  # atno 6907 bound_to 6896
  150.6869  134.3273  159.4821 H   0  0  0  0  0  0  0  0  0  0  0  0  # atno 6908 bound_to 6896
  152.1086  134.9290  160.0618 H   0  0  0  0  0  0  0  0  0  0  0  0  # atno 6909 bound_to 6896
  145.3334  140.9446  143.2649 H   0  0  0  0  0  0  0  0  0  0  0  0  # atno 7974 bound_to 7965
  156.2991  140.2372  156.4210 H   0  0  0  0  0  0  0  0  0  0  0  0  # atno 8008 bound_to 7997
  154.8355  140.0431  157.1526 H   0  0  0  0  0  0  0  0  0  0  0  0  # atno 8009 bound_to 7997
  154.9160  140.2997  155.5244 H   0  0  0  0  0  0  0  0  0  0  0  0  # atno 8010 bound_to 7997
  139.5749  144.6958  151.3680 H   0  0  0  0  0  0  0  0  0  0  0  0  # atno 10167 bound_to 10162
  157.4867  130.8349  149.8155 H   0  0  0  0  0  0  0  0  0  0  0  0  # atno 10718 bound_to 10713
  152.9827  135.6045  154.3408 H   0  0  0  0  0  0  0  0  0  0  0  0  # atno 10763 bound_to 10752
  154.3105  135.2771  155.2570 H   0  0  0  0  0  0  0  0  0  0  0  0  # atno 10764 bound_to 10752
  154.4781  135.5924  153.6426 H   0  0  0  0  0  0  0  0  0  0  0  0  # atno 10765 bound_to 10752
  141.1646  133.7373  156.8943 H   0  0  0  0  0  0  0  0  0  0  0  0  # atno 11005 bound_to 11000
  144.8846  139.4856  143.6706 LP  0  0  0  0  0  0  0  0  0  0  0  0  # atno 17320 bound_to 7965
  146.3036  139.7507  142.9072 LP  0  0  0  0  0  0  0  0  0  0  0  0  # atno 17321 bound_to 7965
  140.7032  143.7580  150.7437 LP  0  0  0  0  0  0  0  0  0  0  0  0  # atno 17342 bound_to 10162
  140.1096  143.4711  152.2377 LP  0  0  0  0  0  0  0  0  0  0  0  0  # atno 17343 bound_to 10162
  156.0150  130.3817  150.2139 LP  0  0  0  0  0  0  0  0  0  0  0  0  # atno 17370 bound_to 10713
  157.0326  131.0012  151.3307 LP  0  0  0  0  0  0  0  0  0  0  0  0  # atno 17371 bound_to 10713
  140.1627  134.9154  157.2735 LP  0  0  0  0  0  0  0  0  0  0  0  0  # atno 17394 bound_to 11000
  140.2593  134.3590  155.7412 LP  0  0  0  0  0  0  0  0  0  0  0  0  # atno 17395 bound_to 11000

$$$$
