AV-unprocessed.smi:2114|AV-procd|sdf|8620|dock7
  -GOLD-   2272011363D 1   1.00000     0.00000
 Structure written by MMmdl.
 47 48  0  0  0  0  0  0  0  0  1 V2000
  149.6731  137.8450  158.9011 C   0  0  0  0  0  0  0  0  0  0  0  0
  150.6998  138.8203  158.8552 O   0  0  0  0  0  0  0  0  0  0  0  0
  150.2475  140.0621  158.3398 C   0  0  0  0  0  0  0  0  0  0  0  0
  151.4482  140.9973  158.1295 C   0  0  1  0  0  0  0  0  0  0  0  0
  151.0249  142.3117  157.4536 C   0  0  0  0  0  0  0  0  0  0  0  0
  152.0839  141.2736  159.4150 N   0  0  0  0  0  0  0  0  0  0  0  0
  153.2699  140.7870  159.8163 C   0  0  0  0  0  0  0  0  0  0  0  0
  153.9573  140.0243  159.1369 O   0  0  0  0  0  0  0  0  0  0  0  0
  153.7011  141.1840  161.1986 C   0  0  0  0  0  0  0  0  0  0  0  0
  153.2063  142.3476  161.8273 C   0  0  0  0  0  0  0  0  0  0  0  0
  153.6724  142.6838  163.1126 C   0  0  0  0  0  0  0  0  0  0  0  0
  154.6304  141.8526  163.7392 C   0  0  0  0  0  0  0  0  0  0  0  0
  155.1147  142.1756  165.0246 N   0  0  0  0  0  0  0  0  0  0  0  0
  156.3962  141.5773  165.3871 C   0  0  0  0  0  0  0  0  0  0  0  0
  156.6591  141.7104  166.9003 C   0  0  2  0  0  0  0  0  0  0  0  0
  155.8293  140.7339  167.7531 C   0  0  0  0  0  0  0  0  0  0  0  0
  156.4899  143.0682  167.3141 O   0  0  0  0  0  0  0  0  0  0  0  0
  155.2157  143.6325  167.0065 C   0  0  1  0  0  0  0  0  0  0  0  0
  155.2018  145.0791  167.5114 C   0  0  0  0  0  0  0  0  0  0  0  0
  154.9690  143.5520  165.4897 C   0  0  0  0  0  0  0  0  0  0  0  0
  155.1148  140.7435  163.1287 N   0  0  0  0  0  0  0  0  0  0  0  0
  154.6640  140.4244  161.8970 C   0  0  0  0  0  0  0  0  0  0  0  0
  150.0687  136.9155  159.3099 H   0  0  0  0  0  0  0  0  0  0  0  0
  149.2839  137.6351  157.9039 H   0  0  0  0  0  0  0  0  0  0  0  0
  148.8489  138.1692  159.5380 H   0  0  0  0  0  0  0  0  0  0  0  0
  149.7386  139.8946  157.3891 H   0  0  0  0  0  0  0  0  0  0  0  0
  149.5250  140.5154  159.0210 H   0  0  0  0  0  0  0  0  0  0  0  0
  152.1608  140.4882  157.4779 H   0  0  0  0  0  0  0  0  0  0  0  0
  150.5568  142.1221  156.4873 H   0  0  0  0  0  0  0  0  0  0  0  0
  151.8822  142.9620  157.2778 H   0  0  0  0  0  0  0  0  0  0  0  0
  150.3101  142.8612  158.0670 H   0  0  0  0  0  0  0  0  0  0  0  0
  151.5761  141.8687  160.0531 H   0  0  0  0  0  0  0  0  0  0  0  0
  152.4855  142.9865  161.3380 H   0  0  0  0  0  0  0  0  0  0  0  0
  153.3077  143.5800  163.5922 H   0  0  0  0  0  0  0  0  0  0  0  0
  156.4551  140.5283  165.0997 H   0  0  0  0  0  0  0  0  0  0  0  0
  157.1804  142.0958  164.8339 H   0  0  0  0  0  0  0  0  0  0  0  0
  157.7076  141.4689  167.0768 H   0  0  0  0  0  0  0  0  0  0  0  0
  156.0843  139.7014  167.5142 H   0  0  0  0  0  0  0  0  0  0  0  0
  154.7579  140.8472  167.5883 H   0  0  0  0  0  0  0  0  0  0  0  0
  156.0231  140.8838  168.8153 H   0  0  0  0  0  0  0  0  0  0  0  0
  154.4342  143.0846  167.5336 H   0  0  0  0  0  0  0  0  0  0  0  0
  154.2419  145.5555  167.3107 H   0  0  0  0  0  0  0  0  0  0  0  0
  155.9785  145.6731  167.0287 H   0  0  0  0  0  0  0  0  0  0  0  0
  155.3733  145.1175  168.5874 H   0  0  0  0  0  0  0  0  0  0  0  0
  155.6778  144.1877  164.9566 H   0  0  0  0  0  0  0  0  0  0  0  0
  153.9670  143.9219  165.2678 H   0  0  0  0  0  0  0  0  0  0  0  0
  155.0890  139.5313  161.4621 H   0  0  0  0  0  0  0  0  0  0  0  0
  1  2  1  0  0  0  0
  1 23  1  0  0  0  0
  1 24  1  0  0  0  0
  1 25  1  0  0  0  0
  2  3  1  0  0  0  0
  3  4  1  0  0  0  0
  3 26  1  0  0  0  0
  3 27  1  0  0  0  0
  4  5  1  0  0  0  0
  4  6  1  0  0  0  0
  4 28  1  0  0  0  0
  5 29  1  0  0  0  0
  5 30  1  0  0  0  0
  5 31  1  0  0  0  0
  6  7  1  0  0  0  0
  6 32  1  0  0  0  0
  7  8  2  0  0  0  0
  7  9  1  0  0  0  0
  9 22  1  0  0  0  0
  9 10  2  0  0  0  0
 10 11  1  0  0  0  0
 10 33  1  0  0  0  0
 11 12  2  0  0  0  0
 11 34  1  0  0  0  0
 12 13  1  0  0  0  0
 12 21  1  0  0  0  0
 13 20  1  0  0  0  0
 13 14  1  0  0  0  0
 14 15  1  0  0  0  0
 14 35  1  0  0  0  0
 14 36  1  0  0  0  0
 15 16  1  0  0  0  0
 15 17  1  0  0  0  0
 15 37  1  0  0  0  0
 16 38  1  0  0  0  0
 16 39  1  0  0  0  0
 16 40  1  0  0  0  0
 17 18  1  0  0  0  0
 18 19  1  0  0  0  0
 18 20  1  0  0  0  0
 18 41  1  0  0  0  0
 19 42  1  0  0  0  0
 19 43  1  0  0  0  0
 19 44  1  0  0  0  0
 20 45  1  0  0  0  0
 20 46  1  0  0  0  0
 21 22  2  0  0  0  0
 22 47  1  0  0  0  0
M  END
> <s_m_source_file>
AV-unprocessed.smi

> <i_m_source_file_index>
2114

> <i_lp_mmshare_version>
43012

> <i_f3d_flags>
0

> <s_epik_input>
W0NIM11PW0NIMl1bQ0BIXShbQ0gzXSlbTkhdQyg9TyljMVtjSF1bY0hdYyhuW2NIXTEpTjJbQ0gyXVtDQEBIXShbQ0gzXSlPW0NAQEhdKFtDSDNdKVtDSDJdMg==

> <s_epik_cmdline>
J2VwaWtfcHl0aG9uJywgJy1waCcsICc3LjAnLCAnLXRuJywgJzgnLCAnLW1hJywgJzIwMCcsICctbWV0YWxfYmluZGluZycsICctaW1hZScsICc8aW5maWxlLm1hZT4nLCAnLW9tYWUnLCAnPG91dGZpbGUubWFlPic=

> <r_lp_tautomer_probability>
1

> <r_epik_Ionization_Penalty>
1.92915e-05

> <r_epik_Ionization_Penalty_Charging>
0

> <r_epik_Ionization_Penalty_Neutral>
1.92915e-05

> <r_epik_State_Penalty>
-0

> <r_epik_Charging_Adjusted_Penalty>
0

> <i_epik_Tot_Q>
0

> <i_epik_Tot_abs_Q>
0

> <r_epik_Metal_State_Penalty>
-0

> <b_epik_Metal_Only>
0

> <s_lp_Force_Field>
OPLS_2005

> <r_lp_Energy>
21.8338

> <b_lp_Chiralities_Consistent>
1

> <s_lp_Variant>
AV-unprocessed.smi:2114-4

> <Gold.Version>
5.8.1

> <Gold.Id.Protein>
6NUR|6NUR_protein|mol2

> <Gold.PLP.Fitness>
43.6473

> <Gold.PLP.PLP>
-42.3557

> <Gold.PLP.part.hbond>
-2.0000

> <Gold.PLP.part.metal>
0.0000

> <Gold.PLP.part.buried>
-3.0456

> <Gold.PLP.part.nonpolar>
-35.5236

> <Gold.PLP.part.repulsive>
0.1332

> <Gold.PLP.ligand.clash>
0.0000

> <Gold.PLP.ligand.torsion>
0.9037

> <Gold.PLP.Chemscore.Hbond>
0.9120

> <Gold.PLP.Chemscore.CHOScore>
0.0000

> <Gold.PLP.Chemscore.Metal>
0.0000

> <Gold.Chemscore.Hbonds>
donor molecule, donor type, donor heavy atom, donor atom, acceptor molecule, acceptor atom, score
      P1  H  7997  8008       L1     8  0.78

> <Gold.PLP.Chemscore.Internal.Correction>
0.3629

> <Gold.Rescore>
     Score         DG    S(hbond)    S(metal)    S(lipo)     H(rot)  DE(clash)    DE(int)     intcor
     14.80     -15.93       0.98        0.00      94.62       1.52       0.12       1.00       ----

> <Gold.Chemscore.Fitness>
14.8008

> <Gold.Chemscore.DG>
-15.9263

> <Gold.Chemscore.ZeroCoef>
-5.4800

> <Gold.Chemscore.Hbond>
0.9803

> <Gold.Chemscore.Metal>
0.0000

> <Gold.Chemscore.Lipo>
94.6175

> <Gold.Chemscore.Internal_Hbond>
0.0000

> <Gold.Chemscore.DEClash>
0.1224

> <Gold.Chemscore.DEInternal>
1.0031

> <Gold.Chemscore.Rot>
1.5226

> <Gold.Chemscore.Internal.Correction>
   9.000000E+99

> <Gold.Chemscore.Hbonds>
donor molecule, donor type, donor heavy atom, donor atom, acceptor molecule, acceptor atom, score
      P1  H  7997  8008       L1     8  0.73

> <Gold.Chemscore.Hbond.Weighted>
-3.2741

> <Gold.Chemscore.Metal.Weighted>
-0.0000

> <Gold.Chemscore.Lipo.Weighted>
-11.0702

> <Gold.Chemscore.Internal_Hbond.Weighted>
0.0000

> <Gold.Chemscore.DEClash.Weighted>
0.1224

> <Gold.Chemscore.DEInternal.Weighted>
1.0031

> <Gold.Chemscore.Rot.Weighted>
3.8980

> <Gold.Chemscore.Internal.Correction.Weighted>
   9.000000E+99

> <Gold.Protein.RotatedTorsions>
[ 6907 6896 6895 6894 ] final  -29.54 input  -60.11 | X-H torsion
[ 7974 7965 7964 7962 ] final -117.73 input  175.53 | X-H torsion
[ 8008 7997 7996 7995 ] final -116.58 input   59.86 | X-H torsion
[ 10167 10162 10161 10158 ] final  142.45 input  -65.29 | X-H torsion
[ 10718 10713 10712 10709 ] final  -79.82 input   66.30 | X-H torsion
[ 10763 10752 10751 10750 ] final  162.55 input  -60.55 | X-H torsion
[ 11005 11000 10999 10996 ] final  172.59 input  -57.11 | X-H torsion

> <Gold.Protein.ActiveResidues>
 VAL166  LYS551  ARG553  GLY616  TRP617  ASP618  TYR619  PRO620  LYS621  CYS622 
 ASP623  PHE694  ASN695  SER759  ASP760  ASP761  ALA762  ILE779  LEU786  VAL792 
 PHE793  MET794  SER795  GLU796  ALA797  LYS798  CYS799  TRP800  GLU811  SER814 

> <Gold.Protein.RotatedAtoms>
  151.1178  135.0062  159.8524 H   0  0  0  0  0  0  0  0  0  0  0  0  # atno 6907 bound_to 6896
  152.5446  134.1759  159.8625 H   0  0  0  0  0  0  0  0  0  0  0  0  # atno 6908 bound_to 6896
  151.1814  133.4678  159.2627 H   0  0  0  0  0  0  0  0  0  0  0  0  # atno 6909 bound_to 6896
  145.0819  140.8431  143.4034 H   0  0  0  0  0  0  0  0  0  0  0  0  # atno 7974 bound_to 7965
  155.0701  140.0393  157.2605 H   0  0  0  0  0  0  0  0  0  0  0  0  # atno 8008 bound_to 7997
  154.6990  140.2669  155.6714 H   0  0  0  0  0  0  0  0  0  0  0  0  # atno 8009 bound_to 7997
  156.2754  140.2744  156.1594 H   0  0  0  0  0  0  0  0  0  0  0  0  # atno 8010 bound_to 7997
  139.4994  144.6106  151.6281 H   0  0  0  0  0  0  0  0  0  0  0  0  # atno 10167 bound_to 10162
  156.0084  130.4556  150.3707 H   0  0  0  0  0  0  0  0  0  0  0  0  # atno 10718 bound_to 10713
  154.2801  135.2763  155.2701 H   0  0  0  0  0  0  0  0  0  0  0  0  # atno 10763 bound_to 10752
  154.5226  135.5752  153.6696 H   0  0  0  0  0  0  0  0  0  0  0  0  # atno 10764 bound_to 10752
  152.9930  135.6208  154.2959 H   0  0  0  0  0  0  0  0  0  0  0  0  # atno 10765 bound_to 10752
  140.3313  134.7355  157.4136 H   0  0  0  0  0  0  0  0  0  0  0  0  # atno 11005 bound_to 11000
  145.1168  139.2720  143.5609 LP  0  0  0  0  0  0  0  0  0  0  0  0  # atno 17320 bound_to 7965
  146.3531  140.0780  142.8619 LP  0  0  0  0  0  0  0  0  0  0  0  0  # atno 17321 bound_to 7965
  140.5779  143.9996  150.6252 LP  0  0  0  0  0  0  0  0  0  0  0  0  # atno 17342 bound_to 10162
  140.3136  143.3182  152.0855 LP  0  0  0  0  0  0  0  0  0  0  0  0  # atno 17343 bound_to 10162
  157.1792  131.0388  151.2757 LP  0  0  0  0  0  0  0  0  0  0  0  0  # atno 17370 bound_to 10713
  157.4161  130.7412  149.6877 LP  0  0  0  0  0  0  0  0  0  0  0  0  # atno 17371 bound_to 10713
  140.0858  134.5668  155.8494 LP  0  0  0  0  0  0  0  0  0  0  0  0  # atno 17394 bound_to 11000
  141.2062  133.6654  156.6230 LP  0  0  0  0  0  0  0  0  0  0  0  0  # atno 17395 bound_to 11000

$$$$
