AV-unprocessed.smi:15|AV-procd|sdf|85|dock7
  -GOLD-   2262015223D 1   1.00000     0.00000
 Structure written by MMmdl.
 53 56  0  0  0  0  0  0  0  0  1 V2000
  142.2827  135.2163  153.7755 C   0  0  0  0  0  0  0  0  0  0  0  0
  142.9879  135.8881  152.5864 C   0  0  0  0  0  0  0  0  0  0  0  0
  144.4440  135.7462  152.6192 N   0  0  0  0  0  0  0  0  0  0  0  0
  145.1550  135.8796  151.3505 C   0  0  0  0  0  0  0  0  0  0  0  0
  145.2928  134.5373  150.6150 C   0  0  2  0  0  0  0  0  0  0  0  0
  143.9679  133.8108  150.3839 C   0  0  0  0  0  0  0  0  0  0  0  0
  144.3695  132.3456  150.3100 C   0  0  0  0  0  0  0  0  0  0  0  0
  145.8009  132.3209  150.8540 C   0  0  0  0  0  0  0  0  0  0  0  0
  146.0083  133.6099  151.4143 O   0  0  0  0  0  0  0  0  0  0  0  0
  145.0646  136.4121  153.6173 C   0  0  0  0  0  0  0  0  0  0  0  0
  144.8807  135.9506  154.8784 N   0  0  0  0  0  0  0  0  0  0  0  0
  145.4678  136.5704  155.9066 C   0  0  0  0  0  0  0  0  0  0  0  0
  146.2647  137.6415  155.8920 N   0  0  0  0  0  0  0  0  0  0  0  0
  146.4598  138.0989  154.6215 C   0  0  0  0  0  0  0  0  0  0  0  0
  145.9019  137.5478  153.4341 C   0  0  0  0  0  0  0  0  0  0  0  0
  146.3248  138.2749  152.3282 N   0  0  0  0  0  0  0  0  0  0  0  0
  147.0852  139.2074  152.8343 C   0  0  0  0  0  0  0  0  0  0  0  0
  147.2260  139.1730  154.2037 N   0  0  0  0  0  0  0  0  0  0  0  0
  148.0104  140.0857  155.0224 C   0  0  0  0  0  0  0  0  0  0  0  0
  149.5128  140.1231  154.6380 C   0  0  2  0  0  0  0  0  0  0  0  0
  149.6304  140.8411  153.4205 O   0  0  0  0  0  0  0  0  0  0  0  0
  150.1280  138.7430  154.4288 C   0  0  0  0  0  0  0  0  0  0  0  0
  151.5976  138.9758  154.7435 C   0  0  0  0  0  0  0  0  0  0  0  0
  151.5401  139.8535  155.8543 O   0  0  0  0  0  0  0  0  0  0  0  0
  150.4752  140.7834  155.6653 C   0  0  2  0  0  0  0  0  0  0  0  0
  149.8928  141.0979  157.0523 C   0  0  0  0  0  0  0  0  0  0  0  0
  141.2003  135.2912  153.6715 H   0  0  0  0  0  0  0  0  0  0  0  0
  142.5518  135.6822  154.7239 H   0  0  0  0  0  0  0  0  0  0  0  0
  142.5377  134.1579  153.8353 H   0  0  0  0  0  0  0  0  0  0  0  0
  142.6115  135.4437  151.6657 H   0  0  0  0  0  0  0  0  0  0  0  0
  142.7192  136.9436  152.5429 H   0  0  0  0  0  0  0  0  0  0  0  0
  144.6151  136.5869  150.7197 H   0  0  0  0  0  0  0  0  0  0  0  0
  146.1479  136.3057  151.5077 H   0  0  0  0  0  0  0  0  0  0  0  0
  145.8272  134.6582  149.6714 H   0  0  0  0  0  0  0  0  0  0  0  0
  143.3008  133.9636  151.2335 H   0  0  0  0  0  0  0  0  0  0  0  0
  143.4525  134.1569  149.4873 H   0  0  0  0  0  0  0  0  0  0  0  0
  143.6998  131.7304  150.9119 H   0  0  0  0  0  0  0  0  0  0  0  0
  144.3399  131.9716  149.2860 H   0  0  0  0  0  0  0  0  0  0  0  0
  145.9532  131.5393  151.5985 H   0  0  0  0  0  0  0  0  0  0  0  0
  146.5152  132.1636  150.0444 H   0  0  0  0  0  0  0  0  0  0  0  0
  145.2705  136.1479  156.8809 H   0  0  0  0  0  0  0  0  0  0  0  0
  147.5731  139.9486  152.2178 H   0  0  0  0  0  0  0  0  0  0  0  0
  147.5709  141.0805  154.9377 H   0  0  0  0  0  0  0  0  0  0  0  0
  147.8881  139.7823  156.0623 H   0  0  0  0  0  0  0  0  0  0  0  0
  149.4994  140.2384  152.7045 H   0  0  0  0  0  0  0  0  0  0  0  0
  149.7228  138.0378  155.1554 H   0  0  0  0  0  0  0  0  0  0  0  0
  149.9598  138.3291  153.4333 H   0  0  0  0  0  0  0  0  0  0  0  0
  152.1300  138.0555  154.9844 H   0  0  0  0  0  0  0  0  0  0  0  0
  152.1067  139.4649  153.9116 H   0  0  0  0  0  0  0  0  0  0  0  0
  150.9011  141.7012  155.2555 H   0  0  0  0  0  0  0  0  0  0  0  0
  149.0754  141.8163  156.9892 H   0  0  0  0  0  0  0  0  0  0  0  0
  150.6559  141.5298  157.7001 H   0  0  0  0  0  0  0  0  0  0  0  0
  149.5209  140.1981  157.5428 H   0  0  0  0  0  0  0  0  0  0  0  0
  1  2  1  0  0  0  0
  1 27  1  0  0  0  0
  1 28  1  0  0  0  0
  1 29  1  0  0  0  0
  2  3  1  0  0  0  0
  2 30  1  0  0  0  0
  2 31  1  0  0  0  0
  3  4  1  0  0  0  0
  3 10  1  0  0  0  0
  4  5  1  0  0  0  0
  4 32  1  0  0  0  0
  4 33  1  0  0  0  0
  5  9  1  0  0  0  0
  5  6  1  0  0  0  0
  5 34  1  0  0  0  0
  6  7  1  0  0  0  0
  6 35  1  0  0  0  0
  6 36  1  0  0  0  0
  7  8  1  0  0  0  0
  7 37  1  0  0  0  0
  7 38  1  0  0  0  0
  8  9  1  0  0  0  0
  8 39  1  0  0  0  0
  8 40  1  0  0  0  0
 10 15  1  0  0  0  0
 10 11  2  0  0  0  0
 11 12  1  0  0  0  0
 12 13  2  0  0  0  0
 12 41  1  0  0  0  0
 13 14  1  0  0  0  0
 14 18  1  0  0  0  0
 14 15  2  0  0  0  0
 15 16  1  0  0  0  0
 16 17  2  0  0  0  0
 17 18  1  0  0  0  0
 17 42  1  0  0  0  0
 18 19  1  0  0  0  0
 19 20  1  0  0  0  0
 19 43  1  0  0  0  0
 19 44  1  0  0  0  0
 20 25  1  0  0  0  0
 20 21  1  0  0  0  0
 20 22  1  0  0  0  0
 21 45  1  0  0  0  0
 22 23  1  0  0  0  0
 22 46  1  0  0  0  0
 22 47  1  0  0  0  0
 23 24  1  0  0  0  0
 23 48  1  0  0  0  0
 23 49  1  0  0  0  0
 24 25  1  0  0  0  0
 25 26  1  0  0  0  0
 25 50  1  0  0  0  0
 26 51  1  0  0  0  0
 26 52  1  0  0  0  0
 26 53  1  0  0  0  0
M  END
> <s_m_source_file>
AV-unprocessed.smi

> <i_m_source_file_index>
15

> <i_lp_mmshare_version>
43012

> <i_f3d_flags>
0

> <s_epik_input>
TzFbQ0gyXVtDSDJdW0NIMl1bQ0BIXTFbQ0gyXU4oW0NIMl1bQ0gzXSljKG5bY0hdbjIpYyhjMjMpbltjSF1uM1tDSDJdW0NAQF00KFtPSF0pW0NIMl1bQ0gyXU9bQ0BIXTRbQ0gzXQ==

> <s_epik_cmdline>
J2VwaWtfcHl0aG9uJywgJy1waCcsICc3LjAnLCAnLXRuJywgJzgnLCAnLW1hJywgJzIwMCcsICctbWV0YWxfYmluZGluZycsICctaW1hZScsICc8aW5maWxlLm1hZT4nLCAnLW9tYWUnLCAnPG91dGZpbGUubWFlPic=

> <r_lp_tautomer_probability>
1

> <r_epik_Ionization_Penalty>
0.00360814

> <r_epik_Ionization_Penalty_Charging>
0

> <r_epik_Ionization_Penalty_Neutral>
0.00360814

> <r_epik_State_Penalty>
0.00237482

> <r_epik_Charging_Adjusted_Penalty>
0.00237482

> <i_epik_Tot_Q>
0

> <i_epik_Tot_abs_Q>
0

> <r_epik_Metal_State_Penalty>
-0

> <b_epik_Metal_Only>
0

> <s_lp_Force_Field>
OPLS_2005

> <r_lp_Energy>
47.4065

> <b_lp_Chiralities_Consistent>
1

> <s_lp_Variant>
AV-unprocessed.smi:15-7

> <Gold.Version>
5.8.1

> <Gold.Id.Protein>
6NUR|6NUR_protein|mol2

> <Gold.PLP.Fitness>
46.8588

> <Gold.PLP.PLP>
-39.5600

> <Gold.PLP.part.hbond>
-2.3651

> <Gold.PLP.part.metal>
0.0000

> <Gold.PLP.part.buried>
-6.9131

> <Gold.PLP.part.nonpolar>
-30.7710

> <Gold.PLP.part.repulsive>
0.5420

> <Gold.PLP.ligand.clash>
0.0000

> <Gold.PLP.ligand.torsion>
1.2492

> <Gold.PLP.Chemscore.Hbond>
2.0592

> <Gold.PLP.Chemscore.CHOScore>
1.0000

> <Gold.PLP.Chemscore.Metal>
0.0000

> <Gold.Chemscore.Hbonds>
donor molecule, donor type, donor heavy atom, donor atom, acceptor molecule, acceptor atom, score
      L1  H    21    45       P1  7957  0.90
      P1  H  7989  7998       L1    21  0.23
      P1  H  8011  8017       L1    21  0.80
      L1  C    17    42       P1  7957  1.00

> <Gold.PLP.Chemscore.Internal.Correction>
0.6196

> <Gold.Rescore>
     Score         DG    S(hbond)    S(metal)    S(lipo)     H(rot)  DE(clash)    DE(int)     intcor
     10.61     -11.90       0.97        0.00      86.43       2.71       0.04       1.25       ----

> <Gold.Chemscore.Fitness>
10.6134

> <Gold.Chemscore.DG>
-11.9038

> <Gold.Chemscore.ZeroCoef>
-5.4800

> <Gold.Chemscore.Hbond>
0.9708

> <Gold.Chemscore.Metal>
0.0000

> <Gold.Chemscore.Lipo>
86.4285

> <Gold.Chemscore.Internal_Hbond>
0.0000

> <Gold.Chemscore.DEClash>
0.0418

> <Gold.Chemscore.DEInternal>
1.2485

> <Gold.Chemscore.Rot>
2.7074

> <Gold.Chemscore.Internal.Correction>
   9.000000E+99

> <Gold.Chemscore.Hbonds>
donor molecule, donor type, donor heavy atom, donor atom, acceptor molecule, acceptor atom, score
      L1  H    21    45       P1  7957  0.85
      P1  H  7989  7998       L1    21  0.01
      P1  H  8011  8017       L1    21  0.12

> <Gold.Chemscore.Hbond.Weighted>
-3.2424

> <Gold.Chemscore.Metal.Weighted>
-0.0000

> <Gold.Chemscore.Lipo.Weighted>
-10.1121

> <Gold.Chemscore.Internal_Hbond.Weighted>
0.0000

> <Gold.Chemscore.DEClash.Weighted>
0.0418

> <Gold.Chemscore.DEInternal.Weighted>
1.2485

> <Gold.Chemscore.Rot.Weighted>
6.9308

> <Gold.Chemscore.Internal.Correction.Weighted>
   9.000000E+99

> <Gold.Protein.RotatedTorsions>
[ 6907 6896 6895 6894 ] final   77.78 input  -60.11 | X-H torsion
[ 7974 7965 7964 7962 ] final -157.64 input  175.53 | X-H torsion
[ 8008 7997 7996 7995 ] final -108.16 input   59.86 | X-H torsion
[ 10167 10162 10161 10158 ] final -155.85 input  -65.29 | X-H torsion
[ 10718 10713 10712 10709 ] final   -1.78 input   66.30 | X-H torsion
[ 10763 10752 10751 10750 ] final   48.03 input  -60.55 | X-H torsion
[ 11005 11000 10999 10996 ] final  -22.42 input  -57.11 | X-H torsion

> <Gold.Protein.ActiveResidues>
 VAL166  LYS551  ARG553  GLY616  TRP617  ASP618  TYR619  PRO620  LYS621  CYS622 
 ASP623  PHE694  ASN695  SER759  ASP760  ASP761  ALA762  ILE779  LEU786  VAL792 
 PHE793  MET794  SER795  GLU796  ALA797  LYS798  CYS799  TRP800  GLU811  SER814 

> <Gold.Protein.RotatedAtoms>
  152.5132  134.3764  159.9335 H   0  0  0  0  0  0  0  0  0  0  0  0  # atno 6907 bound_to 6896
  151.3720  133.3845  159.2708 H   0  0  0  0  0  0  0  0  0  0  0  0  # atno 6908 bound_to 6896
  150.9570  134.8983  159.7766 H   0  0  0  0  0  0  0  0  0  0  0  0  # atno 6909 bound_to 6896
  144.7539  140.3940  143.6027 H   0  0  0  0  0  0  0  0  0  0  0  0  # atno 7974 bound_to 7965
  154.9401  140.0403  157.2092 H   0  0  0  0  0  0  0  0  0  0  0  0  # atno 8008 bound_to 7997
  154.8077  140.2862  155.5854 H   0  0  0  0  0  0  0  0  0  0  0  0  # atno 8009 bound_to 7997
  156.2968  140.2543  156.2958 H   0  0  0  0  0  0  0  0  0  0  0  0  # atno 8010 bound_to 7997
  139.6897  143.9441  152.2379 H   0  0  0  0  0  0  0  0  0  0  0  0  # atno 10167 bound_to 10162
  156.8006  130.5391  149.5722 H   0  0  0  0  0  0  0  0  0  0  0  0  # atno 10718 bound_to 10713
  152.9795  135.5957  154.3860 H   0  0  0  0  0  0  0  0  0  0  0  0  # atno 10763 bound_to 10752
  154.3520  135.2767  155.2369 H   0  0  0  0  0  0  0  0  0  0  0  0  # atno 10764 bound_to 10752
  154.4404  135.6014  153.6180 H   0  0  0  0  0  0  0  0  0  0  0  0  # atno 10765 bound_to 10752
  140.8655  133.7758  156.0124 H   0  0  0  0  0  0  0  0  0  0  0  0  # atno 11005 bound_to 11000
  145.6846  139.1626  143.2681 LP  0  0  0  0  0  0  0  0  0  0  0  0  # atno 17320 bound_to 7965
  146.1525  140.6904  142.9315 LP  0  0  0  0  0  0  0  0  0  0  0  0  # atno 17321 bound_to 7965
  139.9253  144.6774  150.8418 LP  0  0  0  0  0  0  0  0  0  0  0  0  # atno 17342 bound_to 10162
  140.7679  143.3346  151.2337 LP  0  0  0  0  0  0  0  0  0  0  0  0  # atno 17343 bound_to 10162
  156.1104  130.6036  151.0037 LP  0  0  0  0  0  0  0  0  0  0  0  0  # atno 17370 bound_to 10713
  157.6556  131.0890  150.7955 LP  0  0  0  0  0  0  0  0  0  0  0  0  # atno 17371 bound_to 10713
  140.8634  134.2813  157.5224 LP  0  0  0  0  0  0  0  0  0  0  0  0  # atno 17394 bound_to 11000
  139.8709  134.9530  156.4131 LP  0  0  0  0  0  0  0  0  0  0  0  0  # atno 17395 bound_to 11000

$$$$
