AV-unprocessed.smi:102|AV-procd|sdf|952|dock9
  -GOLD-   2262017483D 1   1.00000     0.00000
 Structure written by MMmdl.
 44 45  0  0  0  0  0  0  0  0  1 V2000
  145.9535  136.8582  162.5563 C   0  0  0  0  0  0  0  0  0  0  0  0
  147.2270  136.6435  161.7485 C   0  0  0  0  0  0  0  0  0  0  0  0
  148.3339  136.6617  162.2861 O   0  0  0  0  0  0  0  0  0  0  0  0
  146.9805  136.4434  160.4412 O   0  0  0  0  0  0  0  0  0  0  0  0
  147.8961  135.7192  159.6299 C   0  0  0  0  0  0  0  0  0  0  0  0
  149.0457  136.6277  159.1613 C   0  0  1  0  0  0  0  0  0  0  0  0
  150.0130  135.8963  158.4197 O   0  0  0  0  0  0  0  0  0  0  0  0
  150.7716  136.7762  157.6418 C   0  0  2  0  0  0  0  0  0  0  0  0
  152.1673  136.9110  158.2218 N   0  0  0  0  0  0  0  0  0  0  0  0
  152.3987  137.2913  159.5386 C   0  0  0  0  0  0  0  0  0  0  0  0
  153.6423  137.4257  160.0575 C   0  0  0  0  0  0  0  0  0  0  0  0
  153.7888  137.7982  161.3403 F   0  0  0  0  0  0  0  0  0  0  0  0
  154.8242  137.1706  159.2392 C   0  0  0  0  0  0  0  0  0  0  0  0
  155.9893  137.2669  159.6198 O   0  0  0  0  0  0  0  0  0  0  0  0
  154.5438  136.7902  157.9240 N   0  0  0  0  0  0  0  0  0  0  0  0
  153.2682  136.6487  157.3763 C   0  0  0  0  0  0  0  0  0  0  0  0
  153.1352  136.3178  156.1988 O   0  0  0  0  0  0  0  0  0  0  0  0
  150.0097  138.1232  157.5840 C   0  0  2  0  0  0  0  0  0  0  0  0
  150.6630  139.1476  158.3300 O   0  0  0  0  0  0  0  0  0  0  0  0
  151.7826  139.7233  157.8639 C   0  0  0  0  0  0  0  0  0  0  0  0
  152.3568  140.7401  158.8409 C   0  0  0  0  0  0  0  0  0  0  0  0
  152.3247  139.4908  156.7837 O   0  0  0  0  0  0  0  0  0  0  0  0
  148.6746  137.7884  158.2373 C   0  0  1  0  0  0  0  0  0  0  0  0
  147.7314  137.3903  157.2486 O   0  0  0  0  0  0  0  0  0  0  0  0
  147.3023  138.2695  156.3256 C   0  0  0  0  0  0  0  0  0  0  0  0
  146.3051  137.6505  155.3558 C   0  0  0  0  0  0  0  0  0  0  0  0
  147.6427  139.4486  156.2336 O   0  0  0  0  0  0  0  0  0  0  0  0
  155.3307  136.6048  157.3189 H   0  0  0  0  0  0  0  0  0  0  0  0
  145.7201  135.9645  163.1348 H   0  0  0  0  0  0  0  0  0  0  0  0
  145.1091  137.0776  161.9023 H   0  0  0  0  0  0  0  0  0  0  0  0
  146.0800  137.6932  163.2456 H   0  0  0  0  0  0  0  0  0  0  0  0
  148.3102  134.9296  160.2571 H   0  0  0  0  0  0  0  0  0  0  0  0
  147.4088  135.2155  158.7940 H   0  0  0  0  0  0  0  0  0  0  0  0
  149.5531  137.0318  160.0385 H   0  0  0  0  0  0  0  0  0  0  0  0
  150.9031  136.3153  156.6612 H   0  0  0  0  0  0  0  0  0  0  0  0
  151.5693  137.4941  160.1983 H   0  0  0  0  0  0  0  0  0  0  0  0
  149.8966  138.4145  156.5385 H   0  0  0  0  0  0  0  0  0  0  0  0
  152.6423  140.2490  159.7716 H   0  0  0  0  0  0  0  0  0  0  0  0
  151.6175  141.5089  159.0664 H   0  0  0  0  0  0  0  0  0  0  0  0
  153.2392  141.2215  158.4190 H   0  0  0  0  0  0  0  0  0  0  0  0
  148.2756  138.6229  158.8165 H   0  0  0  0  0  0  0  0  0  0  0  0
  145.4372  137.2731  155.8968 H   0  0  0  0  0  0  0  0  0  0  0  0
  146.7653  136.8232  154.8153 H   0  0  0  0  0  0  0  0  0  0  0  0
  145.9652  138.3908  154.6313 H   0  0  0  0  0  0  0  0  0  0  0  0
  1  2  1  0  0  0  0
  1 29  1  0  0  0  0
  1 30  1  0  0  0  0
  1 31  1  0  0  0  0
  2  3  2  0  0  0  0
  2  4  1  0  0  0  0
  4  5  1  0  0  0  0
  5  6  1  0  0  0  0
  5 32  1  0  0  0  0
  5 33  1  0  0  0  0
  6 23  1  0  0  0  0
  6  7  1  0  0  0  0
  6 34  1  0  0  0  0
  7  8  1  0  0  0  0
  8  9  1  0  0  0  0
  8 18  1  0  0  0  0
  8 35  1  0  0  0  0
  9 16  1  0  0  0  0
  9 10  1  0  0  0  0
 10 11  2  0  0  0  0
 10 36  1  0  0  0  0
 11 12  1  0  0  0  0
 11 13  1  0  0  0  0
 13 14  2  0  0  0  0
 13 15  1  0  0  0  0
 15 28  1  0  0  0  0
 15 16  1  0  0  0  0
 16 17  2  0  0  0  0
 18 19  1  0  0  0  0
 18 23  1  0  0  0  0
 18 37  1  0  0  0  0
 19 20  1  0  0  0  0
 20 21  1  0  0  0  0
 20 22  2  0  0  0  0
 21 38  1  0  0  0  0
 21 39  1  0  0  0  0
 21 40  1  0  0  0  0
 23 24  1  0  0  0  0
 23 41  1  0  0  0  0
 24 25  1  0  0  0  0
 25 26  1  0  0  0  0
 25 27  2  0  0  0  0
 26 42  1  0  0  0  0
 26 43  1  0  0  0  0
 26 44  1  0  0  0  0
M  END
> <s_m_source_file>
AV-unprocessed.smi

> <i_m_source_file_index>
102

> <i_lp_mmshare_version>
43012

> <i_f3d_flags>
0

> <s_epik_input>
W0NIM11DKD1PKU9bQ0gyXVtDQEBIXTFPW0NASF0oW0NAQEhdKE9DKD1PKVtDSDNdKVtDQEhdMU9DKD1PKVtDSDNdKW4yW2NIXWMoRiljKD1PKVtuSF1jMj1P

> <s_epik_cmdline>
J2VwaWtfcHl0aG9uJywgJy1waCcsICc3LjAnLCAnLXRuJywgJzgnLCAnLW1hJywgJzIwMCcsICctbWV0YWxfYmluZGluZycsICctaW1hZScsICc8aW5maWxlLm1hZT4nLCAnLW9tYWUnLCAnPG91dGZpbGUubWFlPic=

> <r_lp_tautomer_probability>
0.999537

> <r_epik_Ionization_Penalty>
0.058267

> <r_epik_Ionization_Penalty_Charging>
0.058267

> <r_epik_Ionization_Penalty_Neutral>
6.57791e-16

> <r_epik_State_Penalty>
0.0503774

> <r_epik_Charging_Adjusted_Penalty>
0.108644

> <i_epik_Tot_Q>
0

> <i_epik_Tot_abs_Q>
0

> <r_epik_Metal_State_Penalty>
2.6644

> <b_epik_Metal_Only>
0

> <s_epik_Chemistry_Notes>
This compound has an ester and may undergo hydrolysis at high or low pH. This compound contains an acetal/aminal-like group ( X-CH(R)-Y where X, Y are N, S, or O) that may be acid/base labile, releasing an aldehyde.

> <s_lp_Force_Field>
OPLS_2005

> <r_lp_Energy>
12.8015

> <b_lp_Chiralities_Consistent>
1

> <s_lp_Variant>
AV-unprocessed.smi:102-8

> <Gold.Version>
5.8.1

> <Gold.Id.Protein>
6NUR|6NUR_protein|mol2

> <Gold.PLP.Fitness>
39.3983

> <Gold.PLP.PLP>
-28.8891

> <Gold.PLP.part.hbond>
-4.0000

> <Gold.PLP.part.metal>
0.0000

> <Gold.PLP.part.buried>
-5.6198

> <Gold.PLP.part.nonpolar>
-20.1929

> <Gold.PLP.part.repulsive>
0.0842

> <Gold.PLP.ligand.clash>
0.0000

> <Gold.PLP.ligand.torsion>
0.6035

> <Gold.PLP.Chemscore.Hbond>
3.8640

> <Gold.PLP.Chemscore.CHOScore>
0.0000

> <Gold.PLP.Chemscore.Metal>
0.0000

> <Gold.Chemscore.Hbonds>
donor molecule, donor type, donor heavy atom, donor atom, acceptor molecule, acceptor atom, score
      P1  H  6896  6909       L1     7  1.00
      P1  H  6931  6943       L1     3  1.00
      P1  H  7997  8008       L1    22  0.22
      P1  H 10752 10764       L1    17  0.47

> <Gold.PLP.Chemscore.Internal.Correction>
0.1243

> <Gold.Rescore>
     Score         DG    S(hbond)    S(metal)    S(lipo)     H(rot)  DE(clash)    DE(int)     intcor
      9.09     -12.45       3.77        0.00      40.62       4.05       0.06       3.30       ----

> <Gold.Chemscore.Fitness>
9.0860

> <Gold.Chemscore.DG>
-12.4482

> <Gold.Chemscore.ZeroCoef>
-5.4800

> <Gold.Chemscore.Hbond>
3.7692

> <Gold.Chemscore.Metal>
0.0000

> <Gold.Chemscore.Lipo>
40.6175

> <Gold.Chemscore.Internal_Hbond>
0.0000

> <Gold.Chemscore.DEClash>
0.0575

> <Gold.Chemscore.DEInternal>
3.3046

> <Gold.Chemscore.Rot>
4.0520

> <Gold.Chemscore.Internal.Correction>
   9.000000E+99

> <Gold.Chemscore.Hbonds>
donor molecule, donor type, donor heavy atom, donor atom, acceptor molecule, acceptor atom, score
      P1  H  6896  6909       L1     7  0.42
      P1  H  6931  6943       L1     3  0.60
      P1  H  7997  8008       L1    22  0.14
      P1  H 10752 10764       L1    17  0.47

> <Gold.Chemscore.Hbond.Weighted>
-12.5891

> <Gold.Chemscore.Metal.Weighted>
-0.0000

> <Gold.Chemscore.Lipo.Weighted>
-4.7522

> <Gold.Chemscore.Internal_Hbond.Weighted>
0.0000

> <Gold.Chemscore.DEClash.Weighted>
0.0575

> <Gold.Chemscore.DEInternal.Weighted>
3.3046

> <Gold.Chemscore.Rot.Weighted>
10.3732

> <Gold.Chemscore.Internal.Correction.Weighted>
   9.000000E+99

> <Gold.Protein.RotatedTorsions>
[ 6907 6896 6895 6894 ] final   66.87 input  -60.11 | X-H torsion
[ 7974 7965 7964 7962 ] final  -64.86 input  175.53 | X-H torsion
[ 8008 7997 7996 7995 ] final  -84.63 input   59.86 | X-H torsion
[ 10167 10162 10161 10158 ] final -169.10 input  -65.29 | X-H torsion
[ 10718 10713 10712 10709 ] final   72.12 input   66.30 | X-H torsion
[ 10763 10752 10751 10750 ] final    1.15 input  -60.55 | X-H torsion
[ 11005 11000 10999 10996 ] final    2.34 input  -57.11 | X-H torsion

> <Gold.Protein.ActiveResidues>
 VAL166  LYS551  ARG553  GLY616  TRP617  ASP618  TYR619  PRO620  LYS621  CYS622 
 ASP623  PHE694  ASN695  SER759  ASP760  ASP761  ALA762  ILE779  LEU786  VAL792 
 PHE793  MET794  SER795  GLU796  ALA797  LYS798  CYS799  TRP800  GLU811  SER814 

> <Gold.Protein.RotatedAtoms>
  152.4512  134.5389  159.9832 H   0  0  0  0  0  0  0  0  0  0  0  0  # atno 6907 bound_to 6896
  151.5461  133.3419  159.2952 H   0  0  0  0  0  0  0  0  0  0  0  0  # atno 6908 bound_to 6896
  150.8442  134.7776  159.7020 H   0  0  0  0  0  0  0  0  0  0  0  0  # atno 6909 bound_to 6896
  145.7615  140.8859  143.0427 H   0  0  0  0  0  0  0  0  0  0  0  0  # atno 7974 bound_to 7965
  154.6319  140.0602  156.9743 H   0  0  0  0  0  0  0  0  0  0  0  0  # atno 8008 bound_to 7997
  155.1652  140.3286  155.4385 H   0  0  0  0  0  0  0  0  0  0  0  0  # atno 8009 bound_to 7997
  156.2487  140.1924  156.6757 H   0  0  0  0  0  0  0  0  0  0  0  0  # atno 8010 bound_to 7997
  139.5943  144.1145  152.1671 H   0  0  0  0  0  0  0  0  0  0  0  0  # atno 10167 bound_to 10162
  157.6485  130.9562  150.0884 H   0  0  0  0  0  0  0  0  0  0  0  0  # atno 10718 bound_to 10713
  153.3116  135.6963  153.7110 H   0  0  0  0  0  0  0  0  0  0  0  0  # atno 10763 bound_to 10752
  153.5985  135.3466  155.2937 H   0  0  0  0  0  0  0  0  0  0  0  0  # atno 10764 bound_to 10752
  154.8576  135.4335  154.2256 H   0  0  0  0  0  0  0  0  0  0  0  0  # atno 10765 bound_to 10752
  140.6054  133.9797  155.8151 H   0  0  0  0  0  0  0  0  0  0  0  0  # atno 11005 bound_to 11000
  144.6829  139.9729  143.7482 LP  0  0  0  0  0  0  0  0  0  0  0  0  # atno 17320 bound_to 7965
  146.0259  139.3292  143.0784 LP  0  0  0  0  0  0  0  0  0  0  0  0  # atno 17321 bound_to 7965
  140.0726  144.5766  150.7180 LP  0  0  0  0  0  0  0  0  0  0  0  0  # atno 17342 bound_to 10162
  140.7199  143.2579  151.4312 LP  0  0  0  0  0  0  0  0  0  0  0  0  # atno 17343 bound_to 10162
  156.1840  130.3651  149.8997 LP  0  0  0  0  0  0  0  0  0  0  0  0  # atno 17370 bound_to 10713
  156.6942  130.8908  151.3592 LP  0  0  0  0  0  0  0  0  0  0  0  0  # atno 17371 bound_to 10713
  141.0844  134.0013  157.3336 LP  0  0  0  0  0  0  0  0  0  0  0  0  # atno 17394 bound_to 11000
  139.9215  135.0200  156.8080 LP  0  0  0  0  0  0  0  0  0  0  0  0  # atno 17395 bound_to 11000

$$$$
