AV-unprocessed.smi:1394|AV-procd|sdf|5668|dock9
  -GOLD-   22720 5293D 1   1.00000     0.00000
 Structure written by MMmdl.
 41 42  0  0  0  0  0  0  0  0  1 V2000
  151.2152  140.2591  158.0698 C   0  0  0  0  0  0  0  0  0  0  0  0
  151.2848  141.7468  158.4592 C   0  0  1  0  0  0  0  0  0  0  0  0
  152.4172  141.9853  159.4789 C   0  0  0  0  0  0  0  0  0  0  0  0
  152.5099  143.4603  159.8980 C   0  0  0  0  0  0  0  0  0  0  0  0
  152.6916  144.3692  158.6750 C   0  0  0  0  0  0  0  0  0  0  0  0
  151.5607  144.1550  157.6591 C   0  0  0  0  0  0  0  0  0  0  0  0
  151.4519  142.6758  157.2302 C   0  0  2  0  0  0  0  0  0  0  0  0
  150.3299  142.5088  156.3088 N   0  0  0  0  0  0  0  0  0  0  0  0
  150.1930  141.5127  155.4205 C   0  0  0  0  0  0  0  0  0  0  0  0
  151.0125  140.6020  155.2943 O   0  0  0  0  0  0  0  0  0  0  0  0
  148.9230  141.5483  154.5593 C   0  0  0  0  0  0  0  0  0  0  0  0
  148.0781  140.3535  154.7278 N   0  0  0  0  0  0  0  0  0  0  0  0
  147.7066  139.6642  153.5596 C   0  0  0  0  0  0  0  0  0  0  0  0
  146.9387  138.5672  153.6019 C   0  0  0  0  0  0  0  0  0  0  0  0
  146.4929  138.0955  154.8902 C   0  0  0  0  0  0  0  0  0  0  0  0
  146.8323  138.7387  156.0316 C   0  0  0  0  0  0  0  0  0  0  0  0
  146.3730  138.2514  157.4039 C   0  0  0  0  0  0  0  0  0  0  0  0
  145.6809  139.2030  158.0316 F   0  0  0  0  0  0  0  0  0  0  0  0
  145.5928  137.1736  157.3112 F   0  0  0  0  0  0  0  0  0  0  0  0
  147.4219  137.9302  158.1624 F   0  0  0  0  0  0  0  0  0  0  0  0
  147.6760  139.9500  155.9730 C   0  0  0  0  0  0  0  0  0  0  0  0
  148.0071  140.5724  156.9838 O   0  0  0  0  0  0  0  0  0  0  0  0
  152.1205  139.9448  157.5498 H   0  0  0  0  0  0  0  0  0  0  0  0
  150.3674  140.0513  157.4167 H   0  0  0  0  0  0  0  0  0  0  0  0
  151.1041  139.6286  158.9521 H   0  0  0  0  0  0  0  0  0  0  0  0
  150.3432  142.0003  158.9489 H   0  0  0  0  0  0  0  0  0  0  0  0
  152.2596  141.3670  160.3634 H   0  0  0  0  0  0  0  0  0  0  0  0
  153.3698  141.6710  159.0504 H   0  0  0  0  0  0  0  0  0  0  0  0
  151.6057  143.7465  160.4369 H   0  0  0  0  0  0  0  0  0  0  0  0
  153.3408  143.5985  160.5904 H   0  0  0  0  0  0  0  0  0  0  0  0
  152.7183  145.4135  158.9876 H   0  0  0  0  0  0  0  0  0  0  0  0
  153.6529  144.1625  158.2028 H   0  0  0  0  0  0  0  0  0  0  0  0
  150.6165  144.4828  158.0966 H   0  0  0  0  0  0  0  0  0  0  0  0
  151.7325  144.7894  156.7887 H   0  0  0  0  0  0  0  0  0  0  0  0
  152.3739  142.3936  156.7174 H   0  0  0  0  0  0  0  0  0  0  0  0
  149.6046  143.2105  156.3466 H   0  0  0  0  0  0  0  0  0  0  0  0
  148.3685  142.4524  154.8139 H   0  0  0  0  0  0  0  0  0  0  0  0
  149.1938  141.6674  153.5084 H   0  0  0  0  0  0  0  0  0  0  0  0
  148.0771  140.0854  152.6363 H   0  0  0  0  0  0  0  0  0  0  0  0
  146.6593  138.0510  152.6952 H   0  0  0  0  0  0  0  0  0  0  0  0
  145.8769  137.2095  154.9265 H   0  0  0  0  0  0  0  0  0  0  0  0
  1  2  1  0  0  0  0
  1 23  1  0  0  0  0
  1 24  1  0  0  0  0
  1 25  1  0  0  0  0
  2  7  1  0  0  0  0
  2  3  1  0  0  0  0
  2 26  1  0  0  0  0
  3  4  1  0  0  0  0
  3 27  1  0  0  0  0
  3 28  1  0  0  0  0
  4  5  1  0  0  0  0
  4 29  1  0  0  0  0
  4 30  1  0  0  0  0
  5  6  1  0  0  0  0
  5 31  1  0  0  0  0
  5 32  1  0  0  0  0
  6  7  1  0  0  0  0
  6 33  1  0  0  0  0
  6 34  1  0  0  0  0
  7  8  1  0  0  0  0
  7 35  1  0  0  0  0
  8  9  1  0  0  0  0
  8 36  1  0  0  0  0
  9 10  2  0  0  0  0
  9 11  1  0  0  0  0
 11 12  1  0  0  0  0
 11 37  1  0  0  0  0
 11 38  1  0  0  0  0
 12 21  1  0  0  0  0
 12 13  1  0  0  0  0
 13 14  2  0  0  0  0
 13 39  1  0  0  0  0
 14 15  1  0  0  0  0
 14 40  1  0  0  0  0
 15 16  2  0  0  0  0
 15 41  1  0  0  0  0
 16 17  1  0  0  0  0
 16 21  1  0  0  0  0
 17 18  1  0  0  0  0
 17 19  1  0  0  0  0
 17 20  1  0  0  0  0
 21 22  2  0  0  0  0
M  END
> <s_m_source_file>
AV-unprocessed.smi

> <i_m_source_file_index>
1394

> <i_lp_mmshare_version>
43012

> <i_f3d_flags>
0

> <s_epik_input>
W0NIM11bQ0BASF0xW0NIMl1bQ0gyXVtDSDJdW0NIMl1bQ0BIXTFbTkhdQyg9TylbQ0gyXW4yW2NIXVtjSF1bY0hdYyhDKEYpKEYpRiljMj1P

> <s_epik_cmdline>
J2VwaWtfcHl0aG9uJywgJy1waCcsICc3LjAnLCAnLXRuJywgJzgnLCAnLW1hJywgJzIwMCcsICctbWV0YWxfYmluZGluZycsICctaW1hZScsICc8aW5maWxlLm1hZT4nLCAnLW9tYWUnLCAnPG91dGZpbGUubWFlPic=

> <r_lp_tautomer_probability>
1

> <r_epik_Ionization_Penalty>
2.11487e-08

> <r_epik_Ionization_Penalty_Charging>
2.10183e-09

> <r_epik_Ionization_Penalty_Neutral>
1.90469e-08

> <r_epik_State_Penalty>
-0

> <r_epik_Charging_Adjusted_Penalty>
2.10183e-09

> <i_epik_Tot_Q>
0

> <i_epik_Tot_abs_Q>
0

> <r_epik_Metal_State_Penalty>
-0

> <b_epik_Metal_Only>
0

> <s_lp_Force_Field>
OPLS_2005

> <r_lp_Energy>
20.4612

> <b_lp_Chiralities_Consistent>
1

> <s_lp_Variant>
AV-unprocessed.smi:1394-4

> <Gold.Version>
5.8.1

> <Gold.Id.Protein>
6NUR|6NUR_protein|mol2

> <Gold.PLP.Fitness>
42.2413

> <Gold.PLP.PLP>
-34.2262

> <Gold.PLP.part.hbond>
-2.0000

> <Gold.PLP.part.metal>
0.0000

> <Gold.PLP.part.buried>
-2.9810

> <Gold.PLP.part.nonpolar>
-28.8122

> <Gold.PLP.part.repulsive>
0.1690

> <Gold.PLP.ligand.clash>
0.2722

> <Gold.PLP.ligand.torsion>
0.3598

> <Gold.PLP.Chemscore.Hbond>
1.9040

> <Gold.PLP.Chemscore.CHOScore>
1.0000

> <Gold.PLP.Chemscore.Metal>
0.0000

> <Gold.Chemscore.Hbonds>
donor molecule, donor type, donor heavy atom, donor atom, acceptor molecule, acceptor atom, score
      L1  H     8    36       P1  8028  0.98
      P1  H  7989  7998       L1    10  0.91
      L1  C    13    39       P1  7957  1.00

> <Gold.PLP.Chemscore.Internal.Correction>
0.2948

> <Gold.Rescore>
     Score         DG    S(hbond)    S(metal)    S(lipo)     H(rot)  DE(clash)    DE(int)     intcor
     12.96     -17.36       1.42        0.00      94.40       1.52       0.51       3.89       ----

> <Gold.Chemscore.Fitness>
12.9571

> <Gold.Chemscore.DG>
-17.3573

> <Gold.Chemscore.ZeroCoef>
-5.4800

> <Gold.Chemscore.Hbond>
1.4174

> <Gold.Chemscore.Metal>
0.0000

> <Gold.Chemscore.Lipo>
94.4015

> <Gold.Chemscore.Internal_Hbond>
0.0000

> <Gold.Chemscore.DEClash>
0.5120

> <Gold.Chemscore.DEInternal>
3.8883

> <Gold.Chemscore.Rot>
1.5242

> <Gold.Chemscore.Internal.Correction>
   9.000000E+99

> <Gold.Chemscore.Hbonds>
donor molecule, donor type, donor heavy atom, donor atom, acceptor molecule, acceptor atom, score
      L1  H     8    36       P1  8028  0.92
      P1  H  7989  7998       L1    10  0.30

> <Gold.Chemscore.Hbond.Weighted>
-4.7342

> <Gold.Chemscore.Metal.Weighted>
-0.0000

> <Gold.Chemscore.Lipo.Weighted>
-11.0450

> <Gold.Chemscore.Internal_Hbond.Weighted>
0.0000

> <Gold.Chemscore.DEClash.Weighted>
0.5120

> <Gold.Chemscore.DEInternal.Weighted>
3.8883

> <Gold.Chemscore.Rot.Weighted>
3.9019

> <Gold.Chemscore.Internal.Correction.Weighted>
   9.000000E+99

> <Gold.Protein.RotatedTorsions>
[ 6907 6896 6895 6894 ] final  -80.72 input  -60.11 | X-H torsion
[ 7974 7965 7964 7962 ] final  173.31 input  175.53 | X-H torsion
[ 8008 7997 7996 7995 ] final   51.78 input   59.86 | X-H torsion
[ 10167 10162 10161 10158 ] final    6.70 input  -65.29 | X-H torsion
[ 10718 10713 10712 10709 ] final  151.82 input   66.30 | X-H torsion
[ 10763 10752 10751 10750 ] final -139.59 input  -60.55 | X-H torsion
[ 11005 11000 10999 10996 ] final   96.44 input  -57.11 | X-H torsion

> <Gold.Protein.ActiveResidues>
 VAL166  LYS551  ARG553  GLY616  TRP617  ASP618  TYR619  PRO620  LYS621  CYS622 
 ASP623  PHE694  ASN695  SER759  ASP760  ASP761  ALA762  ILE779  LEU786  VAL792 
 PHE793  MET794  SER795  GLU796  ALA797  LYS798  CYS799  TRP800  GLU811  SER814 

> <Gold.Protein.RotatedAtoms>
  150.6924  134.3927  159.5083 H   0  0  0  0  0  0  0  0  0  0  0  0  # atno 6907 bound_to 6896
  152.1712  134.8829  160.0543 H   0  0  0  0  0  0  0  0  0  0  0  0  # atno 6908 bound_to 6896
  151.9855  133.3737  159.4161 H   0  0  0  0  0  0  0  0  0  0  0  0  # atno 6909 bound_to 6896
  144.7246  139.9629  143.6435 H   0  0  0  0  0  0  0  0  0  0  0  0  # atno 7974 bound_to 7965
  155.4410  140.3454  155.4290 H   0  0  0  0  0  0  0  0  0  0  0  0  # atno 8008 bound_to 7997
  156.1279  140.1505  156.9140 H   0  0  0  0  0  0  0  0  0  0  0  0  # atno 8009 bound_to 7997
  154.4872  140.0852  156.7493 H   0  0  0  0  0  0  0  0  0  0  0  0  # atno 8010 bound_to 7997
  140.6413  143.7767  150.7433 H   0  0  0  0  0  0  0  0  0  0  0  0  # atno 10167 bound_to 10162
  157.2658  131.0807  151.1634 H   0  0  0  0  0  0  0  0  0  0  0  0  # atno 10718 bound_to 10713
  154.8604  135.3578  154.5571 H   0  0  0  0  0  0  0  0  0  0  0  0  # atno 10763 bound_to 10752
  153.6188  135.7007  153.5323 H   0  0  0  0  0  0  0  0  0  0  0  0  # atno 10764 bound_to 10752
  153.3147  135.4168  155.1326 H   0  0  0  0  0  0  0  0  0  0  0  0  # atno 10765 bound_to 10752
  139.8781  134.8951  156.4159 H   0  0  0  0  0  0  0  0  0  0  0  0  # atno 11005 bound_to 11000
  146.0623  139.3616  143.0574 LP  0  0  0  0  0  0  0  0  0  0  0  0  # atno 17320 bound_to 7965
  145.8076  140.9741  143.0965 LP  0  0  0  0  0  0  0  0  0  0  0  0  # atno 17321 bound_to 7965
  140.1399  143.4450  152.2200 LP  0  0  0  0  0  0  0  0  0  0  0  0  # atno 17342 bound_to 10162
  139.5622  144.7413  151.4121 LP  0  0  0  0  0  0  0  0  0  0  0  0  # atno 17343 bound_to 10162
  157.3126  130.6897  149.6224 LP  0  0  0  0  0  0  0  0  0  0  0  0  # atno 17370 bound_to 10713
  155.9663  130.4359  150.5111 LP  0  0  0  0  0  0  0  0  0  0  0  0  # atno 17371 bound_to 10713
  140.9168  133.7673  155.9857 LP  0  0  0  0  0  0  0  0  0  0  0  0  # atno 17394 bound_to 11000
  140.8485  134.2982  157.5285 LP  0  0  0  0  0  0  0  0  0  0  0  0  # atno 17395 bound_to 11000

$$$$
