AV-unprocessed.smi:2527|AV-procd|sdf|9945|dock4
  -GOLD-   2272013583D 1   1.00000     0.00000
 Structure written by MMmdl.
 35 37  0  0  0  0  0  0  0  0  2 V2000
  147.4990  141.2630  153.6811 C   0  0  0  0  0  0  0  0  0  0  0  0
  148.8768  141.4593  153.9430 O   0  0  0  0  0  0  0  0  0  0  0  0
  149.2343  141.1138  155.2717 C   0  0  0  0  0  0  0  0  0  0  0  0
  150.4211  141.9748  155.7263 C   0  0  0  0  0  0  0  0  0  0  0  0
  151.2447  141.2924  156.7139 N   0  0  0  0  0  0  0  0  0  0  0  0
  151.7818  140.0492  156.6351 C   0  0  0  0  0  0  0  0  0  0  0  0
  151.5317  139.0297  155.2101 S   0  0  0  0  0  0  0  0  0  0  0  0
  150.3388  137.8300  155.8730 C   0  0  0  0  0  0  0  0  0  0  0  0
  150.5344  137.5164  157.3396 C   0  0  0  0  0  0  0  0  0  0  0  0
  149.4714  137.6806  158.1794 N   0  0  0  0  0  0  0  0  0  0  0  0
  149.8930  137.3373  159.3922 C   0  0  0  0  0  0  0  0  0  0  0  0
  149.1631  137.3756  160.3805 O   0  0  0  0  0  0  0  0  0  0  0  0
  151.1943  136.9655  159.3130 N   0  5  0  0  0  0  0  0  0  0  0  0
  151.5860  137.0952  157.9406 N   0  0  0  0  0  0  0  0  0  0  0  0
  152.5048  139.6724  157.6919 N   0  0  0  0  0  0  0  0  0  0  0  0
  152.4313  140.7689  158.5264 C   0  0  0  0  0  0  0  0  0  0  0  0
  152.9950  140.9907  159.8030 C   0  0  0  0  0  0  0  0  0  0  0  0
  152.7844  142.2135  160.4736 C   0  0  0  0  0  0  0  0  0  0  0  0
  153.4815  142.4688  162.0309 Cl  0  0  0  0  0  0  0  0  0  0  0  0
  152.0080  143.2288  159.8773 C   0  0  0  0  0  0  0  0  0  0  0  0
  151.4362  143.0268  158.6065 C   0  0  0  0  0  0  0  0  0  0  0  0
  151.6495  141.8040  157.9426 C   0  0  0  0  0  0  0  0  0  0  0  0
  148.5506  138.0003  157.9189 H   0  0  0  0  0  0  0  0  0  0  0  0
  147.2789  141.5448  152.6513 H   0  0  0  0  0  0  0  0  0  0  0  0
  146.8812  141.8771  154.3376 H   0  0  0  0  0  0  0  0  0  0  0  0
  147.2180  140.2172  153.8115 H   0  0  0  0  0  0  0  0  0  0  0  0
  148.3864  141.2734  155.9394 H   0  0  0  0  0  0  0  0  0  0  0  0
  149.4968  140.0560  155.3252 H   0  0  0  0  0  0  0  0  0  0  0  0
  151.0447  142.2302  154.8692 H   0  0  0  0  0  0  0  0  0  0  0  0
  150.0718  142.9216  156.1384 H   0  0  0  0  0  0  0  0  0  0  0  0
  149.3304  138.2149  155.7162 H   0  0  0  0  0  0  0  0  0  0  0  0
  150.4169  136.8999  155.3091 H   0  0  0  0  0  0  0  0  0  0  0  0
  153.5918  140.2183  160.2653 H   0  0  0  0  0  0  0  0  0  0  0  0
  151.8518  144.1641  160.3945 H   0  0  0  0  0  0  0  0  0  0  0  0
  150.8447  143.8042  158.1462 H   0  0  0  0  0  0  0  0  0  0  0  0
  1  2  1  0  0  0  0
  1 24  1  0  0  0  0
  1 25  1  0  0  0  0
  1 26  1  0  0  0  0
  2  3  1  0  0  0  0
  3  4  1  0  0  0  0
  3 27  1  0  0  0  0
  3 28  1  0  0  0  0
  4  5  1  0  0  0  0
  4 29  1  0  0  0  0
  4 30  1  0  0  0  0
  5 22  1  0  0  0  0
  5  6  1  0  0  0  0
  6  7  1  0  0  0  0
  6 15  2  0  0  0  0
  7  8  1  0  0  0  0
  8 31  1  0  0  0  0
  8 32  1  0  0  0  0
  8  9  1  0  0  0  0
  9 14  2  0  0  0  0
  9 10  1  0  0  0  0
 10 11  1  0  0  0  0
 10 23  1  0  0  0  0
 11 13  1  0  0  0  0
 11 12  2  0  0  0  0
 13 14  1  0  0  0  0
 15 16  1  0  0  0  0
 16 22  2  0  0  0  0
 16 17  1  0  0  0  0
 17 18  2  0  0  0  0
 17 33  1  0  0  0  0
 18 19  1  0  0  0  0
 18 20  1  0  0  0  0
 20 21  2  0  0  0  0
 20 34  1  0  0  0  0
 21 22  1  0  0  0  0
 21 35  1  0  0  0  0
M  CHG  1  13  -1
M  END
> <s_m_source_file>
AV-unprocessed.smi

> <i_m_source_file_index>
2527

> <i_lp_mmshare_version>
43012

> <i_f3d_flags>
0

> <s_epik_input>
W2NIXTFjKENsKVtjSF1bY0hdYyhjMTIpbihbQ0gyXVtDSDJdT1tDSDNdKWMobjIpU1tDSDJdYzNuYyg9TylbbkhdW25IXTM=

> <s_epik_cmdline>
J2VwaWtfcHl0aG9uJywgJy1waCcsICc3LjAnLCAnLXRuJywgJzgnLCAnLW1hJywgJzIwMCcsICctbWV0YWxfYmluZGluZycsICctaW1hZScsICc8aW5maWxlLm1hZT4nLCAnLW9tYWUnLCAnPG91dGZpbGUubWFlPic=

> <r_lp_tautomer_probability>
0.999897

> <r_epik_Ionization_Penalty>
2.94119

> <r_epik_Ionization_Penalty_Charging>
1.40065e-06

> <r_epik_Ionization_Penalty_Neutral>
2.94119

> <r_epik_State_Penalty>
4.57578

> <r_epik_Charging_Adjusted_Penalty>
4.57578

> <i_epik_Tot_Q>
-1

> <i_epik_Tot_abs_Q>
1

> <r_epik_Metal_State_Penalty>
2.1052

> <b_epik_Metal_Only>
1

> <s_lp_Force_Field>
OPLS_2005

> <r_lp_Energy>
14.3955

> <b_lp_Chiralities_Consistent>
1

> <s_lp_Variant>
AV-unprocessed.smi:2527-4

> <Gold.Version>
5.8.1

> <Gold.Id.Protein>
6NUR|6NUR_protein|mol2

> <Gold.PLP.Fitness>
53.0839

> <Gold.PLP.PLP>
-41.9966

> <Gold.PLP.part.hbond>
-4.3606

> <Gold.PLP.part.metal>
0.0000

> <Gold.PLP.part.buried>
-5.7056

> <Gold.PLP.part.nonpolar>
-31.3467

> <Gold.PLP.part.repulsive>
0.7167

> <Gold.PLP.ligand.clash>
0.0000

> <Gold.PLP.ligand.torsion>
0.7863

> <Gold.PLP.Chemscore.Hbond>
4.1875

> <Gold.PLP.Chemscore.CHOScore>
0.0000

> <Gold.PLP.Chemscore.Metal>
0.0000

> <Gold.Chemscore.Hbonds>
donor molecule, donor type, donor heavy atom, donor atom, acceptor molecule, acceptor atom, score
      P1  H  6896  6907       L1    13  2.00
      P1  H  6931  6943       L1    12  0.45
      P1  H  7997  8009       L1    15  0.54
      P1  H  8011  8017       L1     2  0.61

> <Gold.PLP.Chemscore.Internal.Correction>
0.0974

> <Gold.Rescore>
     Score         DG    S(hbond)    S(metal)    S(lipo)     H(rot)  DE(clash)    DE(int)     intcor
     13.06     -16.31       1.86        0.00     101.04       2.81       0.17       3.08       ----

> <Gold.Chemscore.Fitness>
13.0618

> <Gold.Chemscore.DG>
-16.3077

> <Gold.Chemscore.ZeroCoef>
-5.4800

> <Gold.Chemscore.Hbond>
1.8555

> <Gold.Chemscore.Metal>
0.0000

> <Gold.Chemscore.Lipo>
101.0418

> <Gold.Chemscore.Internal_Hbond>
0.0000

> <Gold.Chemscore.DEClash>
0.1691

> <Gold.Chemscore.DEInternal>
3.0768

> <Gold.Chemscore.Rot>
2.8092

> <Gold.Chemscore.Internal.Correction>
   9.000000E+99

> <Gold.Chemscore.Hbonds>
donor molecule, donor type, donor heavy atom, donor atom, acceptor molecule, acceptor atom, score
      P1  H  6896  6907       L1    13  0.66
      P1  H  6931  6943       L1    12  0.44
      P1  H  7997  8009       L1    15  0.02
      P1  H  8011  8017       L1     2  0.45

> <Gold.Chemscore.Hbond.Weighted>
-6.1974

> <Gold.Chemscore.Metal.Weighted>
-0.0000

> <Gold.Chemscore.Lipo.Weighted>
-11.8219

> <Gold.Chemscore.Internal_Hbond.Weighted>
0.0000

> <Gold.Chemscore.DEClash.Weighted>
0.1691

> <Gold.Chemscore.DEInternal.Weighted>
3.0768

> <Gold.Chemscore.Rot.Weighted>
7.1916

> <Gold.Chemscore.Internal.Correction.Weighted>
   9.000000E+99

> <Gold.Protein.RotatedTorsions>
[ 6907 6896 6895 6894 ] final   -2.40 input  -60.11 | X-H torsion
[ 7974 7965 7964 7962 ] final  169.33 input  175.53 | X-H torsion
[ 8008 7997 7996 7995 ] final  165.99 input   59.86 | X-H torsion
[ 10167 10162 10161 10158 ] final  -77.72 input  -65.29 | X-H torsion
[ 10718 10713 10712 10709 ] final  177.76 input   66.30 | X-H torsion
[ 10763 10752 10751 10750 ] final -106.88 input  -60.55 | X-H torsion
[ 11005 11000 10999 10996 ] final  -50.07 input  -57.11 | X-H torsion

> <Gold.Protein.ActiveResidues>
 VAL166  LYS551  ARG553  GLY616  TRP617  ASP618  TYR619  PRO620  LYS621  CYS622 
 ASP623  PHE694  ASN695  SER759  ASP760  ASP761  ALA762  ILE779  LEU786  VAL792 
 PHE793  MET794  SER795  GLU796  ALA797  LYS798  CYS799  TRP800  GLU811  SER814 

> <Gold.Protein.RotatedAtoms>
  151.5305  135.1068  159.9901 H   0  0  0  0  0  0  0  0  0  0  0  0  # atno 6907 bound_to 6896
  152.4580  133.7760  159.6835 H   0  0  0  0  0  0  0  0  0  0  0  0  # atno 6908 bound_to 6896
  150.8532  133.7690  159.3043 H   0  0  0  0  0  0  0  0  0  0  0  0  # atno 6909 bound_to 6896
  144.7358  139.9039  143.6411 H   0  0  0  0  0  0  0  0  0  0  0  0  # atno 7974 bound_to 7965
  156.1755  140.1655  156.8370 H   0  0  0  0  0  0  0  0  0  0  0  0  # atno 8008 bound_to 7997
  154.5302  140.0758  156.8365 H   0  0  0  0  0  0  0  0  0  0  0  0  # atno 8009 bound_to 7997
  155.3423  140.3385  155.4241 H   0  0  0  0  0  0  0  0  0  0  0  0  # atno 8010 bound_to 7997
  140.4746  143.2418  151.8153 H   0  0  0  0  0  0  0  0  0  0  0  0  # atno 10167 bound_to 10162
  156.9006  130.9877  151.3036 H   0  0  0  0  0  0  0  0  0  0  0  0  # atno 10718 bound_to 10713
  154.8040  135.4695  154.0346 H   0  0  0  0  0  0  0  0  0  0  0  0  # atno 10763 bound_to 10752
  153.1829  135.6843  153.8460 H   0  0  0  0  0  0  0  0  0  0  0  0  # atno 10764 bound_to 10752
  153.8005  135.3230  155.3367 H   0  0  0  0  0  0  0  0  0  0  0  0  # atno 10765 bound_to 10752
  141.0795  133.6657  156.3677 H   0  0  0  0  0  0  0  0  0  0  0  0  # atno 11005 bound_to 11000
  146.1051  139.4050  143.0322 LP  0  0  0  0  0  0  0  0  0  0  0  0  # atno 17320 bound_to 7965
  145.7523  140.9968  143.1244 LP  0  0  0  0  0  0  0  0  0  0  0  0  # atno 17321 bound_to 7965
  139.4823  144.4850  151.9259 LP  0  0  0  0  0  0  0  0  0  0  0  0  # atno 17342 bound_to 10162
  140.3935  144.2585  150.5898 LP  0  0  0  0  0  0  0  0  0  0  0  0  # atno 17343 bound_to 10162
  157.6028  130.8525  149.8829 LP  0  0  0  0  0  0  0  0  0  0  0  0  # atno 17370 bound_to 10713
  156.0584  130.3704  150.1039 LP  0  0  0  0  0  0  0  0  0  0  0  0  # atno 17371 bound_to 10713
  140.5499  134.6037  157.5405 LP  0  0  0  0  0  0  0  0  0  0  0  0  # atno 17394 bound_to 11000
  139.9608  134.7455  156.0241 LP  0  0  0  0  0  0  0  0  0  0  0  0  # atno 17395 bound_to 11000

$$$$
