AV-unprocessed.smi:1793|AV-procd|sdf|7227|dock5
  -GOLD-   22720 8473D 1   1.00000     0.00000
 Structure written by MMmdl.
 46 48  0  0  0  0  0  0  0  0  1 V2000
  145.2826  133.9470  153.3140 C   0  0  0  0  0  0  0  0  0  0  0  0
  145.2535  135.0425  152.2365 C   0  0  1  0  0  0  0  0  0  0  0  0
  146.3394  135.9951  152.4565 N   0  0  0  0  0  0  0  0  0  0  0  0
  146.1999  137.2534  152.8943 C   0  0  0  0  0  0  0  0  0  0  0  0
  145.1160  137.7648  153.1757 O   0  0  0  0  0  0  0  0  0  0  0  0
  147.3926  137.8609  152.9978 N   0  0  0  0  0  0  0  0  0  0  0  0
  147.6651  139.1659  153.4939 C   0  0  0  0  0  0  0  0  0  0  0  0
  146.7576  140.2335  153.2901 C   0  0  0  0  0  0  0  0  0  0  0  0
  147.0991  141.5223  153.7341 C   0  0  0  0  0  0  0  0  0  0  0  0
  148.3468  141.7021  154.3539 C   0  0  0  0  0  0  0  0  0  0  0  0
  149.2273  140.6989  154.5429 N   0  0  0  0  0  0  0  0  0  0  0  0
  148.9065  139.4465  154.1336 C   0  0  0  0  0  0  0  0  0  0  0  0
  149.8610  138.4311  154.3751 N   0  0  0  0  0  0  0  0  0  0  0  0
  151.2266  138.7727  154.7599 C   0  0  0  0  0  0  0  0  0  0  0  0
  151.8185  137.4788  155.3118 C   0  0  0  0  0  0  0  0  0  0  0  0
  150.6168  136.8400  156.0004 C   0  0  0  0  0  0  0  0  0  0  0  0
  149.4360  137.2443  155.1123 C   0  0  0  0  0  0  0  0  0  0  0  0
  145.3376  134.4607  150.8114 C   0  0  1  0  0  0  0  0  0  0  0  0
  146.4949  133.4695  150.5901 C   0  0  0  0  0  0  0  0  0  0  0  0
  145.8110  132.1925  150.1361 C   0  0  0  0  0  0  0  0  0  0  0  0
  144.4821  132.6991  149.5949 C   0  0  0  0  0  0  0  0  0  0  0  0
  144.1493  133.7351  150.5030 O   0  0  0  0  0  0  0  0  0  0  0  0
  144.4704  133.2344  153.1696 H   0  0  0  0  0  0  0  0  0  0  0  0
  145.1711  134.3733  154.3116 H   0  0  0  0  0  0  0  0  0  0  0  0
  146.2206  133.3915  153.2928 H   0  0  0  0  0  0  0  0  0  0  0  0
  144.2972  135.5623  152.3174 H   0  0  0  0  0  0  0  0  0  0  0  0
  147.2718  135.6642  152.2555 H   0  0  0  0  0  0  0  0  0  0  0  0
  148.2033  137.2855  152.8226 H   0  0  0  0  0  0  0  0  0  0  0  0
  145.8173  140.0871  152.7804 H   0  0  0  0  0  0  0  0  0  0  0  0
  146.4259  142.3545  153.5911 H   0  0  0  0  0  0  0  0  0  0  0  0
  148.6492  142.6784  154.7028 H   0  0  0  0  0  0  0  0  0  0  0  0
  151.7966  139.1497  153.9104 H   0  0  0  0  0  0  0  0  0  0  0  0
  151.2300  139.5336  155.5413 H   0  0  0  0  0  0  0  0  0  0  0  0
  152.1602  136.8441  154.4932 H   0  0  0  0  0  0  0  0  0  0  0  0
  152.6588  137.6488  155.9855 H   0  0  0  0  0  0  0  0  0  0  0  0
  150.7125  135.7598  156.1125 H   0  0  0  0  0  0  0  0  0  0  0  0
  150.4926  137.2719  156.9944 H   0  0  0  0  0  0  0  0  0  0  0  0
  148.5362  137.4240  155.7023 H   0  0  0  0  0  0  0  0  0  0  0  0
  149.2201  136.4481  154.3996 H   0  0  0  0  0  0  0  0  0  0  0  0
  145.4324  135.2730  150.0891 H   0  0  0  0  0  0  0  0  0  0  0  0
  147.1585  133.8436  149.8097 H   0  0  0  0  0  0  0  0  0  0  0  0
  147.1011  133.3043  151.4816 H   0  0  0  0  0  0  0  0  0  0  0  0
  146.3885  131.6360  149.3974 H   0  0  0  0  0  0  0  0  0  0  0  0
  145.6356  131.5415  150.9935 H   0  0  0  0  0  0  0  0  0  0  0  0
  144.5989  133.1123  148.5918 H   0  0  0  0  0  0  0  0  0  0  0  0
  143.7147  131.9255  149.5660 H   0  0  0  0  0  0  0  0  0  0  0  0
  1  2  1  0  0  0  0
  1 23  1  0  0  0  0
  1 24  1  0  0  0  0
  1 25  1  0  0  0  0
  2  3  1  0  0  0  0
  2 18  1  0  0  0  0
  2 26  1  0  0  0  0
  3  4  1  0  0  0  0
  3 27  1  0  0  0  0
  4  5  2  0  0  0  0
  4  6  1  0  0  0  0
  6  7  1  0  0  0  0
  6 28  1  0  0  0  0
  7 12  1  0  0  0  0
  7  8  2  0  0  0  0
  8  9  1  0  0  0  0
  8 29  1  0  0  0  0
  9 10  2  0  0  0  0
  9 30  1  0  0  0  0
 10 11  1  0  0  0  0
 10 31  1  0  0  0  0
 11 12  2  0  0  0  0
 12 13  1  0  0  0  0
 13 17  1  0  0  0  0
 13 14  1  0  0  0  0
 14 15  1  0  0  0  0
 14 32  1  0  0  0  0
 14 33  1  0  0  0  0
 15 16  1  0  0  0  0
 15 34  1  0  0  0  0
 15 35  1  0  0  0  0
 16 17  1  0  0  0  0
 16 36  1  0  0  0  0
 16 37  1  0  0  0  0
 17 38  1  0  0  0  0
 17 39  1  0  0  0  0
 18 22  1  0  0  0  0
 18 19  1  0  0  0  0
 18 40  1  0  0  0  0
 19 20  1  0  0  0  0
 19 41  1  0  0  0  0
 19 42  1  0  0  0  0
 20 21  1  0  0  0  0
 20 43  1  0  0  0  0
 20 44  1  0  0  0  0
 21 22  1  0  0  0  0
 21 45  1  0  0  0  0
 21 46  1  0  0  0  0
M  END
> <s_m_source_file>
AV-unprocessed.smi

> <i_m_source_file_index>
1793

> <i_lp_mmshare_version>
43012

> <i_f3d_flags>
0

> <s_epik_input>
TzFbQ0gyXVtDSDJdW0NIMl1bQ0BIXTFbQ0BIXShbQ0gzXSlbTkhdQyg9TylbTkhdYzJbY0hdW2NIXVtjSF1uYzJOM1tDSDJdW0NIMl1bQ0gyXVtDSDJdMw==

> <s_epik_cmdline>
J2VwaWtfcHl0aG9uJywgJy1waCcsICc3LjAnLCAnLXRuJywgJzgnLCAnLW1hJywgJzIwMCcsICctbWV0YWxfYmluZGluZycsICctaW1hZScsICc8aW5maWxlLm1hZT4nLCAnLW9tYWUnLCAnPG91dGZpbGUubWFlPic=

> <r_lp_tautomer_probability>
1

> <r_epik_Ionization_Penalty>
0.0992086

> <r_epik_Ionization_Penalty_Charging>
0

> <r_epik_Ionization_Penalty_Neutral>
0.0992086

> <r_epik_State_Penalty>
0.0887141

> <r_epik_Charging_Adjusted_Penalty>
0.0887141

> <i_epik_Tot_Q>
0

> <i_epik_Tot_abs_Q>
0

> <r_epik_Metal_State_Penalty>
0.075945

> <b_epik_Metal_Only>
0

> <s_lp_Force_Field>
OPLS_2005

> <r_lp_Energy>
46.9131

> <b_lp_Chiralities_Consistent>
1

> <s_lp_Variant>
AV-unprocessed.smi:1793-4

> <Gold.Version>
5.8.1

> <Gold.Id.Protein>
6NUR|6NUR_protein|mol2

> <Gold.PLP.Fitness>
42.2018

> <Gold.PLP.PLP>
-34.3418

> <Gold.PLP.part.hbond>
-1.9653

> <Gold.PLP.part.metal>
0.0000

> <Gold.PLP.part.buried>
-2.3379

> <Gold.PLP.part.nonpolar>
-29.6976

> <Gold.PLP.part.repulsive>
0.7714

> <Gold.PLP.ligand.clash>
0.0000

> <Gold.PLP.ligand.torsion>
0.5923

> <Gold.PLP.Chemscore.Hbond>
1.8960

> <Gold.PLP.Chemscore.CHOScore>
1.0000

> <Gold.PLP.Chemscore.Metal>
0.0000

> <Gold.Chemscore.Hbonds>
donor molecule, donor type, donor heavy atom, donor atom, acceptor molecule, acceptor atom, score
      L1  H     3    27       P1  7948  0.86
      L1  H     6    28       P1  7948  0.96
      L1  C    10    31       P1  8028  1.00

> <Gold.PLP.Chemscore.Internal.Correction>
0.3565

> <Gold.Rescore>
     Score         DG    S(hbond)    S(metal)    S(lipo)     H(rot)  DE(clash)    DE(int)     intcor
     16.86     -18.99       1.94        0.00      89.68       1.36       0.33       1.80       ----

> <Gold.Chemscore.Fitness>
16.8616

> <Gold.Chemscore.DG>
-18.9915

> <Gold.Chemscore.ZeroCoef>
-5.4800

> <Gold.Chemscore.Hbond>
1.9449

> <Gold.Chemscore.Metal>
0.0000

> <Gold.Chemscore.Lipo>
89.6804

> <Gold.Chemscore.Internal_Hbond>
0.0000

> <Gold.Chemscore.DEClash>
0.3332

> <Gold.Chemscore.DEInternal>
1.7967

> <Gold.Chemscore.Rot>
1.3582

> <Gold.Chemscore.Internal.Correction>
   9.000000E+99

> <Gold.Chemscore.Hbonds>
donor molecule, donor type, donor heavy atom, donor atom, acceptor molecule, acceptor atom, score
      L1  H     3    27       P1  7948  0.87
      L1  H     6    28       P1  7948  0.91

> <Gold.Chemscore.Hbond.Weighted>
-6.4960

> <Gold.Chemscore.Metal.Weighted>
-0.0000

> <Gold.Chemscore.Lipo.Weighted>
-10.4926

> <Gold.Chemscore.Internal_Hbond.Weighted>
0.0000

> <Gold.Chemscore.DEClash.Weighted>
0.3332

> <Gold.Chemscore.DEInternal.Weighted>
1.7967

> <Gold.Chemscore.Rot.Weighted>
3.4771

> <Gold.Chemscore.Internal.Correction.Weighted>
   9.000000E+99

> <Gold.Protein.RotatedTorsions>
[ 6907 6896 6895 6894 ] final  127.80 input  -60.11 | X-H torsion
[ 7974 7965 7964 7962 ] final   21.27 input  175.53 | X-H torsion
[ 8008 7997 7996 7995 ] final   52.60 input   59.86 | X-H torsion
[ 10167 10162 10161 10158 ] final   97.52 input  -65.29 | X-H torsion
[ 10718 10713 10712 10709 ] final -131.23 input   66.30 | X-H torsion
[ 10763 10752 10751 10750 ] final  -40.20 input  -60.55 | X-H torsion
[ 11005 11000 10999 10996 ] final  -48.28 input  -57.11 | X-H torsion

> <Gold.Protein.ActiveResidues>
 VAL166  LYS551  ARG553  GLY616  TRP617  ASP618  TYR619  PRO620  LYS621  CYS622 
 ASP623  PHE694  ASN695  SER759  ASP760  ASP761  ALA762  ILE779  LEU786  VAL792 
 PHE793  MET794  SER795  GLU796  ALA797  LYS798  CYS799  TRP800  GLU811  SER814 

> <Gold.Protein.RotatedAtoms>
  152.3779  133.6505  159.6137 H   0  0  0  0  0  0  0  0  0  0  0  0  # atno 6907 bound_to 6896
  150.7718  133.9163  159.3393 H   0  0  0  0  0  0  0  0  0  0  0  0  # atno 6908 bound_to 6896
  151.6974  135.0937  160.0296 H   0  0  0  0  0  0  0  0  0  0  0  0  # atno 6909 bound_to 6896
  146.2078  139.8050  142.8712 H   0  0  0  0  0  0  0  0  0  0  0  0  # atno 7974 bound_to 7965
  155.4545  140.3459  155.4305 H   0  0  0  0  0  0  0  0  0  0  0  0  # atno 8008 bound_to 7997
  156.1199  140.1484  156.9249 H   0  0  0  0  0  0  0  0  0  0  0  0  # atno 8009 bound_to 7997
  154.4816  140.0868  156.7369 H   0  0  0  0  0  0  0  0  0  0  0  0  # atno 8010 bound_to 7997
  139.7794  144.6894  151.0044 H   0  0  0  0  0  0  0  0  0  0  0  0  # atno 10167 bound_to 10162
  156.2223  130.6986  151.0769 H   0  0  0  0  0  0  0  0  0  0  0  0  # atno 10718 bound_to 10713
  153.9420  135.6760  153.4744 H   0  0  0  0  0  0  0  0  0  0  0  0  # atno 10763 bound_to 10752
  153.0927  135.4866  154.8717 H   0  0  0  0  0  0  0  0  0  0  0  0  # atno 10764 bound_to 10752
  154.7372  135.3152  154.8749 H   0  0  0  0  0  0  0  0  0  0  0  0  # atno 10765 bound_to 10752
  141.0691  133.6684  156.3419 H   0  0  0  0  0  0  0  0  0  0  0  0  # atno 11005 bound_to 11000
  145.3256  141.0254  143.3475 LP  0  0  0  0  0  0  0  0  0  0  0  0  # atno 17320 bound_to 7965
  144.8835  139.4871  143.6711 LP  0  0  0  0  0  0  0  0  0  0  0  0  # atno 17321 bound_to 7965
  140.7818  143.4500  151.0426 LP  0  0  0  0  0  0  0  0  0  0  0  0  # atno 17342 bound_to 10162
  139.8181  143.7857  152.3175 LP  0  0  0  0  0  0  0  0  0  0  0  0  # atno 17343 bound_to 10162
  157.7093  131.0741  150.6556 LP  0  0  0  0  0  0  0  0  0  0  0  0  # atno 17370 bound_to 10713
  156.6620  130.4515  149.5685 LP  0  0  0  0  0  0  0  0  0  0  0  0  # atno 17371 bound_to 10713
  140.5710  134.5840  157.5457 LP  0  0  0  0  0  0  0  0  0  0  0  0  # atno 17394 bound_to 11000
  139.9506  134.7624  156.0458 LP  0  0  0  0  0  0  0  0  0  0  0  0  # atno 17395 bound_to 11000

$$$$
