AV-unprocessed.smi:2268|AV-procd|sdf|9151|dock10
  -GOLD-   2272012353D 1   1.00000     0.00000
 Structure written by MMmdl.
 37 38  0  0  0  0  0  0  0  0  1 V2000
  150.3982  144.9439  159.8982 C   0  0  0  0  0  0  0  0  0  0  0  0
  151.4538  143.9082  160.2464 C   0  0  0  0  0  0  0  0  0  0  0  0
  151.9511  143.8700  161.5671 C   0  0  0  0  0  0  0  0  0  0  0  0
  152.9182  142.9193  161.9413 C   0  0  0  0  0  0  0  0  0  0  0  0
  153.3860  142.8915  163.2116 F   0  0  0  0  0  0  0  0  0  0  0  0
  153.3942  141.9951  160.9951 C   0  0  0  0  0  0  0  0  0  0  0  0
  152.9058  142.0269  159.6760 C   0  0  0  0  0  0  0  0  0  0  0  0
  151.9409  142.9840  159.2835 C   0  0  0  0  0  0  0  0  0  0  0  0
  151.4293  142.9802  157.8430 C   0  0  1  0  0  0  0  0  0  0  0  0
  151.5885  144.2465  157.2328 O   0  0  0  0  0  0  0  0  0  0  0  0
  152.1779  141.9218  157.0009 C   0  0  0  0  0  0  0  0  0  0  0  0
  151.2685  141.1269  156.1566 N   0  0  0  0  0  0  0  0  0  0  0  0
  150.0170  141.7010  155.8766 C   0  0  0  0  0  0  0  0  0  0  0  0
  149.1413  141.0985  155.1412 N   0  0  0  0  0  0  0  0  0  0  0  0
  149.4303  139.8417  154.6025 C   0  0  0  0  0  0  0  0  0  0  0  0
  148.3328  139.2232  153.7547 C   0  0  0  0  0  0  0  0  0  0  0  0
  150.6234  139.2299  154.8360 C   0  0  0  0  0  0  0  0  0  0  0  0
  150.9925  137.8613  154.2772 C   0  0  0  0  0  0  0  0  0  0  0  0
  151.6303  139.9038  155.6722 C   0  0  0  0  0  0  0  0  0  0  0  0
  152.7287  139.4051  155.9239 O   0  0  0  0  0  0  0  0  0  0  0  0
  150.0610  145.4815  160.7850 H   0  0  0  0  0  0  0  0  0  0  0  0
  149.5259  144.4689  159.4498 H   0  0  0  0  0  0  0  0  0  0  0  0
  150.7979  145.6763  159.1965 H   0  0  0  0  0  0  0  0  0  0  0  0
  151.5890  144.5711  162.3050 H   0  0  0  0  0  0  0  0  0  0  0  0
  154.1326  141.2603  161.2803 H   0  0  0  0  0  0  0  0  0  0  0  0
  153.2772  141.3044  158.9640 H   0  0  0  0  0  0  0  0  0  0  0  0
  150.3598  142.7755  157.8356 H   0  0  0  0  0  0  0  0  0  0  0  0
  152.0949  144.7966  157.8108 H   0  0  0  0  0  0  0  0  0  0  0  0
  152.9751  142.3891  156.4195 H   0  0  0  0  0  0  0  0  0  0  0  0
  152.7045  141.2408  157.6729 H   0  0  0  0  0  0  0  0  0  0  0  0
  149.8423  142.6834  156.3185 H   0  0  0  0  0  0  0  0  0  0  0  0
  148.6895  139.0435  152.7403 H   0  0  0  0  0  0  0  0  0  0  0  0
  147.4626  139.8779  153.6912 H   0  0  0  0  0  0  0  0  0  0  0  0
  148.0074  138.2754  154.1841 H   0  0  0  0  0  0  0  0  0  0  0  0
  151.2005  137.1669  155.0919 H   0  0  0  0  0  0  0  0  0  0  0  0
  151.8880  137.9360  153.6596 H   0  0  0  0  0  0  0  0  0  0  0  0
  150.2077  137.4207  153.6647 H   0  0  0  0  0  0  0  0  0  0  0  0
  1  2  1  0  0  0  0
  1 21  1  0  0  0  0
  1 22  1  0  0  0  0
  1 23  1  0  0  0  0
  2  8  1  0  0  0  0
  2  3  2  0  0  0  0
  3  4  1  0  0  0  0
  3 24  1  0  0  0  0
  4  5  1  0  0  0  0
  4  6  2  0  0  0  0
  6  7  1  0  0  0  0
  6 25  1  0  0  0  0
  7  8  2  0  0  0  0
  7 26  1  0  0  0  0
  8  9  1  0  0  0  0
  9 10  1  0  0  0  0
  9 11  1  0  0  0  0
  9 27  1  0  0  0  0
 10 28  1  0  0  0  0
 11 12  1  0  0  0  0
 11 29  1  0  0  0  0
 11 30  1  0  0  0  0
 12 19  1  0  0  0  0
 12 13  1  0  0  0  0
 13 14  2  0  0  0  0
 13 31  1  0  0  0  0
 14 15  1  0  0  0  0
 15 16  1  0  0  0  0
 15 17  2  0  0  0  0
 16 32  1  0  0  0  0
 16 33  1  0  0  0  0
 16 34  1  0  0  0  0
 17 18  1  0  0  0  0
 17 19  1  0  0  0  0
 18 35  1  0  0  0  0
 18 36  1  0  0  0  0
 18 37  1  0  0  0  0
 19 20  2  0  0  0  0
M  END
> <s_m_source_file>
AV-unprocessed.smi

> <i_m_source_file_index>
2268

> <i_lp_mmshare_version>
43012

> <i_f3d_flags>
0

> <s_epik_input>
W0NIM11jMVtjSF1jKEYpW2NIXVtjSF1jMVtDQEhdKFtPSF0pW0NIMl1uMltjSF1uYyhbQ0gzXSljKFtDSDNdKWMyPU8=

> <s_epik_cmdline>
J2VwaWtfcHl0aG9uJywgJy1waCcsICc3LjAnLCAnLXRuJywgJzgnLCAnLW1hJywgJzIwMCcsICctbWV0YWxfYmluZGluZycsICctaW1hZScsICc8aW5maWxlLm1hZT4nLCAnLW9tYWUnLCAnPG91dGZpbGUubWFlPic=

> <r_lp_tautomer_probability>
1

> <r_epik_Ionization_Penalty>
5.07449e-05

> <r_epik_Ionization_Penalty_Charging>
7.56727e-08

> <r_epik_Ionization_Penalty_Neutral>
5.06692e-05

> <r_epik_State_Penalty>
-0

> <r_epik_Charging_Adjusted_Penalty>
7.56727e-08

> <i_epik_Tot_Q>
0

> <i_epik_Tot_abs_Q>
0

> <r_epik_Metal_State_Penalty>
-0

> <b_epik_Metal_Only>
0

> <s_lp_Force_Field>
OPLS_2005

> <r_lp_Energy>
20.6014

> <b_lp_Chiralities_Consistent>
1

> <s_lp_Variant>
AV-unprocessed.smi:2268-2

> <Gold.Version>
5.8.1

> <Gold.Id.Protein>
6NUR|6NUR_protein|mol2

> <Gold.PLP.Fitness>
51.5532

> <Gold.PLP.PLP>
-47.8730

> <Gold.PLP.part.hbond>
-1.6699

> <Gold.PLP.part.metal>
0.0000

> <Gold.PLP.part.buried>
-6.0696

> <Gold.PLP.part.nonpolar>
-39.6825

> <Gold.PLP.part.repulsive>
0.1131

> <Gold.PLP.ligand.clash>
0.4283

> <Gold.PLP.ligand.torsion>
0.9487

> <Gold.PLP.Chemscore.Hbond>
1.0000

> <Gold.PLP.Chemscore.CHOScore>
1.0000

> <Gold.PLP.Chemscore.Metal>
0.0000

> <Gold.Chemscore.Hbonds>
donor molecule, donor type, donor heavy atom, donor atom, acceptor molecule, acceptor atom, score
      P1  H  7997  8010       L1    20  1.00
      L1  C    13    31       P1  8028  1.00

> <Gold.PLP.Chemscore.Internal.Correction>
0.0058

> <Gold.Rescore>
     Score         DG    S(hbond)    S(metal)    S(lipo)     H(rot)  DE(clash)    DE(int)     intcor
     14.52     -18.33       1.00        0.00     124.61       1.98       1.93       1.88       ----

> <Gold.Chemscore.Fitness>
14.5150

> <Gold.Chemscore.DG>
-18.3251

> <Gold.Chemscore.ZeroCoef>
-5.4800

> <Gold.Chemscore.Hbond>
1.0000

> <Gold.Chemscore.Metal>
0.0000

> <Gold.Chemscore.Lipo>
124.6148

> <Gold.Chemscore.Internal_Hbond>
0.0000

> <Gold.Chemscore.DEClash>
1.9296

> <Gold.Chemscore.DEInternal>
1.8806

> <Gold.Chemscore.Rot>
1.9823

> <Gold.Chemscore.Internal.Correction>
   9.000000E+99

> <Gold.Chemscore.Hbonds>
donor molecule, donor type, donor heavy atom, donor atom, acceptor molecule, acceptor atom, score
      P1  H  7997  8010       L1    20  1.00

> <Gold.Chemscore.Hbond.Weighted>
-3.3400

> <Gold.Chemscore.Metal.Weighted>
-0.0000

> <Gold.Chemscore.Lipo.Weighted>
-14.5799

> <Gold.Chemscore.Internal_Hbond.Weighted>
0.0000

> <Gold.Chemscore.DEClash.Weighted>
1.9296

> <Gold.Chemscore.DEInternal.Weighted>
1.8806

> <Gold.Chemscore.Rot.Weighted>
5.0748

> <Gold.Chemscore.Internal.Correction.Weighted>
   9.000000E+99

> <Gold.Protein.RotatedTorsions>
[ 6907 6896 6895 6894 ] final  -34.31 input  -60.11 | X-H torsion
[ 7974 7965 7964 7962 ] final   38.63 input  175.53 | X-H torsion
[ 8008 7997 7996 7995 ] final   73.39 input   59.86 | X-H torsion
[ 10167 10162 10161 10158 ] final  106.55 input  -65.29 | X-H torsion
[ 10718 10713 10712 10709 ] final  -88.10 input   66.30 | X-H torsion
[ 10763 10752 10751 10750 ] final   -9.25 input  -60.55 | X-H torsion
[ 11005 11000 10999 10996 ] final  -86.52 input  -57.11 | X-H torsion

> <Gold.Protein.ActiveResidues>
 VAL166  LYS551  ARG553  GLY616  TRP617  ASP618  TYR619  PRO620  LYS621  CYS622 
 ASP623  PHE694  ASN695  SER759  ASP760  ASP761  ALA762  ILE779  LEU786  VAL792 
 PHE793  MET794  SER795  GLU796  ALA797  LYS798  CYS799  TRP800  GLU811  SER814 

> <Gold.Protein.RotatedAtoms>
  151.0543  134.9694  159.8227 H   0  0  0  0  0  0  0  0  0  0  0  0  # atno 6907 bound_to 6896
  152.5386  134.2497  159.8904 H   0  0  0  0  0  0  0  0  0  0  0  0  # atno 6908 bound_to 6896
  151.2514  133.4305  159.2645 H   0  0  0  0  0  0  0  0  0  0  0  0  # atno 6909 bound_to 6896
  146.1047  139.5748  142.9391 H   0  0  0  0  0  0  0  0  0  0  0  0  # atno 7974 bound_to 7965
  155.7830  140.3481  155.5307 H   0  0  0  0  0  0  0  0  0  0  0  0  # atno 8008 bound_to 7997
  155.8710  140.0986  157.1571 H   0  0  0  0  0  0  0  0  0  0  0  0  # atno 8009 bound_to 7997
  154.4017  140.1340  156.4065 H   0  0  0  0  0  0  0  0  0  0  0  0  # atno 8010 bound_to 7997
  139.7000  144.7095  151.1202 H   0  0  0  0  0  0  0  0  0  0  0  0  # atno 10167 bound_to 10162
  155.9984  130.4823  150.4967 H   0  0  0  0  0  0  0  0  0  0  0  0  # atno 10718 bound_to 10713
  153.4521  135.7015  153.6103 H   0  0  0  0  0  0  0  0  0  0  0  0  # atno 10763 bound_to 10752
  153.4433  135.3775  155.2241 H   0  0  0  0  0  0  0  0  0  0  0  0  # atno 10764 bound_to 10752
  154.8728  135.3979  154.3934 H   0  0  0  0  0  0  0  0  0  0  0  0  # atno 10765 bound_to 10752
  141.1629  133.7459  156.9173 H   0  0  0  0  0  0  0  0  0  0  0  0  # atno 11005 bound_to 11000
  145.5785  141.0385  143.2135 LP  0  0  0  0  0  0  0  0  0  0  0  0  # atno 17320 bound_to 7965
  144.7461  139.7317  143.7292 LP  0  0  0  0  0  0  0  0  0  0  0  0  # atno 17321 bound_to 7965
  140.7707  143.5438  150.9282 LP  0  0  0  0  0  0  0  0  0  0  0  0  # atno 17342 bound_to 10162
  139.9119  143.6710  152.3113 LP  0  0  0  0  0  0  0  0  0  0  0  0  # atno 17343 bound_to 10162
  157.2956  131.0635  151.2104 LP  0  0  0  0  0  0  0  0  0  0  0  0  # atno 17370 bound_to 10713
  157.3101  130.6885  149.6211 LP  0  0  0  0  0  0  0  0  0  0  0  0  # atno 17371 bound_to 10713
  140.1476  134.9252  157.2550 LP  0  0  0  0  0  0  0  0  0  0  0  0  # atno 17394 bound_to 11000
  140.2761  134.3403  155.7357 LP  0  0  0  0  0  0  0  0  0  0  0  0  # atno 17395 bound_to 11000

$$$$
