AV-unprocessed.smi:1560|AV-procd|sdf|6278|dock6
  -GOLD-   22720 6473D 1   1.00000     0.00000
 Structure written by MMmdl.
 48 49  0  0  0  0  0  0  0  0  2 V2000
  147.0458  139.3253  153.8754 C   0  0  0  0  0  0  0  0  0  0  0  0
  146.4154  137.9221  153.8265 C   0  0  0  0  0  0  0  0  0  0  0  0
  146.9465  136.9087  154.8865 C   0  0  2  0  0  0  0  0  0  0  0  0
  146.1242  135.6016  154.7327 C   0  0  0  0  0  0  0  0  0  0  0  0
  146.7105  137.4892  156.3126 C   0  0  0  0  0  0  0  0  0  0  0  0
  147.4836  136.7997  157.3414 N   0  0  0  0  0  0  0  0  0  0  0  0
  148.0910  137.4074  158.3703 C   0  0  0  0  0  0  0  0  0  0  0  0
  148.0508  138.6259  158.5472 O   0  0  0  0  0  0  0  0  0  0  0  0
  148.8346  136.4882  159.3506 C   0  0  0  0  0  0  0  0  0  0  0  0
  147.9347  135.6630  160.1697 N   0  0  0  0  0  0  0  0  0  0  0  0
  147.2423  136.2268  161.2320 C   0  0  0  0  0  0  0  0  0  0  0  0
  146.4048  135.5258  162.0325 C   0  0  0  0  0  0  0  0  0  0  0  0
  146.1865  134.1012  161.8061 C   0  0  0  0  0  0  0  0  0  0  0  0
  145.4468  133.3819  162.4739 O   0  0  0  0  0  0  0  0  0  0  0  0
  146.9032  133.5699  160.7305 N   0  0  0  0  0  0  0  0  0  0  0  0
  147.7702  134.2861  159.9035 C   0  0  0  0  0  0  0  0  0  0  0  0
  148.3590  133.7179  158.9845 O   0  0  0  0  0  0  0  0  0  0  0  0
  148.4128  136.6360  154.6561 N   0  3  0  0  0  0  0  0  0  0  0  0
  149.3485  137.7227  155.0637 C   0  0  0  0  0  0  0  0  0  0  0  0
  150.7754  137.4117  154.5847 C   0  0  0  0  0  0  0  0  0  0  0  0
  151.1961  136.1686  155.1281 O   0  0  0  0  0  0  0  0  0  0  0  0
  150.3710  135.0981  154.6913 C   0  0  0  0  0  0  0  0  0  0  0  0
  148.9230  135.3282  155.1576 C   0  0  0  0  0  0  0  0  0  0  0  0
  146.7862  132.5858  160.5371 H   0  0  0  0  0  0  0  0  0  0  0  0
  146.6181  139.9606  153.0998 H   0  0  0  0  0  0  0  0  0  0  0  0
  148.1220  139.2925  153.7080 H   0  0  0  0  0  0  0  0  0  0  0  0
  146.8679  139.8186  154.8309 H   0  0  0  0  0  0  0  0  0  0  0  0
  145.3325  138.0192  153.9000 H   0  0  0  0  0  0  0  0  0  0  0  0
  146.5811  137.5242  152.8246 H   0  0  0  0  0  0  0  0  0  0  0  0
  145.0545  135.8018  154.6625 H   0  0  0  0  0  0  0  0  0  0  0  0
  146.2535  134.9347  155.5854 H   0  0  0  0  0  0  0  0  0  0  0  0
  146.4058  135.0485  153.8363 H   0  0  0  0  0  0  0  0  0  0  0  0
  146.9763  138.5460  156.3510 H   0  0  0  0  0  0  0  0  0  0  0  0
  145.6565  137.4203  156.5834 H   0  0  0  0  0  0  0  0  0  0  0  0
  147.5629  135.7957  157.2655 H   0  0  0  0  0  0  0  0  0  0  0  0
  149.5072  135.8508  158.7746 H   0  0  0  0  0  0  0  0  0  0  0  0
  149.4859  137.0874  159.9905 H   0  0  0  0  0  0  0  0  0  0  0  0
  147.3767  137.2790  161.4399 H   0  0  0  0  0  0  0  0  0  0  0  0
  145.8945  136.0220  162.8455 H   0  0  0  0  0  0  0  0  0  0  0  0
  149.0548  138.6837  154.6466 H   0  0  0  0  0  0  0  0  0  0  0  0
  149.3555  137.8314  156.1484 H   0  0  0  0  0  0  0  0  0  0  0  0
  150.8256  137.3869  153.4948 H   0  0  0  0  0  0  0  0  0  0  0  0
  151.4613  138.1910  154.9174 H   0  0  0  0  0  0  0  0  0  0  0  0
  150.4198  135.0049  153.6050 H   0  0  0  0  0  0  0  0  0  0  0  0
  150.7547  134.1661  155.1069 H   0  0  0  0  0  0  0  0  0  0  0  0
  148.8821  135.3002  156.2466 H   0  0  0  0  0  0  0  0  0  0  0  0
  148.3261  134.4954  154.7909 H   0  0  0  0  0  0  0  0  0  0  0  0
  148.4997  136.5786  153.6515 H   0  0  0  0  0  0  0  0  0  0  0  0
  1  2  1  0  0  0  0
  1 25  1  0  0  0  0
  1 26  1  0  0  0  0
  1 27  1  0  0  0  0
  2  3  1  0  0  0  0
  2 28  1  0  0  0  0
  2 29  1  0  0  0  0
  3  4  1  0  0  0  0
  3  5  1  0  0  0  0
  3 18  1  0  0  0  0
  4 30  1  0  0  0  0
  4 31  1  0  0  0  0
  4 32  1  0  0  0  0
  5  6  1  0  0  0  0
  5 33  1  0  0  0  0
  5 34  1  0  0  0  0
  6  7  1  0  0  0  0
  6 35  1  0  0  0  0
  7  8  2  0  0  0  0
  7  9  1  0  0  0  0
  9 10  1  0  0  0  0
  9 36  1  0  0  0  0
  9 37  1  0  0  0  0
 10 16  1  0  0  0  0
 10 11  1  0  0  0  0
 11 12  2  0  0  0  0
 11 38  1  0  0  0  0
 12 13  1  0  0  0  0
 12 39  1  0  0  0  0
 13 14  2  0  0  0  0
 13 15  1  0  0  0  0
 15 24  1  0  0  0  0
 15 16  1  0  0  0  0
 16 17  2  0  0  0  0
 18 23  1  0  0  0  0
 18 19  1  0  0  0  0
 18 48  1  0  0  0  0
 19 20  1  0  0  0  0
 19 40  1  0  0  0  0
 19 41  1  0  0  0  0
 20 21  1  0  0  0  0
 20 42  1  0  0  0  0
 20 43  1  0  0  0  0
 21 22  1  0  0  0  0
 22 23  1  0  0  0  0
 22 44  1  0  0  0  0
 22 45  1  0  0  0  0
 23 46  1  0  0  0  0
 23 47  1  0  0  0  0
M  CHG  1  18   1
M  END
> <s_m_source_file>
AV-unprocessed.smi

> <i_m_source_file_index>
1560

> <i_lp_mmshare_version>
43012

> <i_f3d_flags>
0

> <s_epik_input>
W0NIMl0xW0NIMl1PW0NIMl1bQ0gyXU4xW0NAQF0oW0NIM10pKFtDSDJdW0NIM10pW0NIMl1bTkhdQyg9TylbQ0gyXW4yW2NIXVtjSF1jKD1PKVtuSF1jMj1P

> <s_epik_cmdline>
J2VwaWtfcHl0aG9uJywgJy1waCcsICc3LjAnLCAnLXRuJywgJzgnLCAnLW1hJywgJzIwMCcsICctbWV0YWxfYmluZGluZycsICctaW1hZScsICc8aW5maWxlLm1hZT4nLCAnLW9tYWUnLCAnPG91dGZpbGUubWFlPic=

> <r_lp_tautomer_probability>
0.999537

> <r_epik_Ionization_Penalty>
0.523885

> <r_epik_Ionization_Penalty_Charging>
0.523885

> <r_epik_Ionization_Penalty_Neutral>
8.70177e-08

> <r_epik_State_Penalty>
0.572334

> <r_epik_Charging_Adjusted_Penalty>
1.09622

> <i_epik_Tot_Q>
1

> <i_epik_Tot_abs_Q>
1

> <r_epik_Metal_State_Penalty>
0.938906

> <b_epik_Metal_Only>
0

> <s_lp_Force_Field>
OPLS_2005

> <r_lp_Energy>
29.9369

> <b_lp_Chiralities_Consistent>
1

> <s_lp_Variant>
AV-unprocessed.smi:1560-4

> <Gold.Version>
5.8.1

> <Gold.Id.Protein>
6NUR|6NUR_protein|mol2

> <Gold.PLP.Fitness>
39.7338

> <Gold.PLP.PLP>
-29.9043

> <Gold.PLP.part.hbond>
-4.7020

> <Gold.PLP.part.metal>
0.0000

> <Gold.PLP.part.buried>
-4.8320

> <Gold.PLP.part.nonpolar>
-21.3279

> <Gold.PLP.part.repulsive>
0.2202

> <Gold.PLP.ligand.clash>
0.0000

> <Gold.PLP.ligand.torsion>
1.1953

> <Gold.PLP.Chemscore.Hbond>
3.9913

> <Gold.PLP.Chemscore.CHOScore>
0.0000

> <Gold.PLP.Chemscore.Metal>
0.0000

> <Gold.Chemscore.Hbonds>
donor molecule, donor type, donor heavy atom, donor atom, acceptor molecule, acceptor atom, score
      L1  H    18    48       P1  7948  2.00
      P1  H  6896  6909       L1    17  0.21
      P1  H 10752 10765       L1    21  1.00

> <Gold.PLP.Chemscore.Internal.Correction>
0.2464

> <Gold.Rescore>
     Score         DG    S(hbond)    S(metal)    S(lipo)     H(rot)  DE(clash)    DE(int)     intcor
     11.45     -13.42       2.66        0.00      47.98       2.56       0.03       1.95       ----

> <Gold.Chemscore.Fitness>
11.4455

> <Gold.Chemscore.DG>
-13.4224

> <Gold.Chemscore.ZeroCoef>
-5.4800

> <Gold.Chemscore.Hbond>
2.6619

> <Gold.Chemscore.Metal>
0.0000

> <Gold.Chemscore.Lipo>
47.9838

> <Gold.Chemscore.Internal_Hbond>
0.0000

> <Gold.Chemscore.DEClash>
0.0251

> <Gold.Chemscore.DEInternal>
1.9518

> <Gold.Chemscore.Rot>
2.5634

> <Gold.Chemscore.Internal.Correction>
   9.000000E+99

> <Gold.Chemscore.Hbonds>
donor molecule, donor type, donor heavy atom, donor atom, acceptor molecule, acceptor atom, score
      L1  H    18    48       P1  7948  1.00
      P1  H  6896  6909       L1    17  0.11
      P1  H 10752 10765       L1    21  0.32

> <Gold.Chemscore.Hbond.Weighted>
-8.8907

> <Gold.Chemscore.Metal.Weighted>
-0.0000

> <Gold.Chemscore.Lipo.Weighted>
-5.6141

> <Gold.Chemscore.Internal_Hbond.Weighted>
0.0000

> <Gold.Chemscore.DEClash.Weighted>
0.0251

> <Gold.Chemscore.DEInternal.Weighted>
1.9518

> <Gold.Chemscore.Rot.Weighted>
6.5624

> <Gold.Chemscore.Internal.Correction.Weighted>
   9.000000E+99

> <Gold.Protein.RotatedTorsions>
[ 6907 6896 6895 6894 ] final   19.69 input  -60.11 | X-H torsion
[ 7974 7965 7964 7962 ] final   45.97 input  175.53 | X-H torsion
[ 8008 7997 7996 7995 ] final  136.37 input   59.86 | X-H torsion
[ 10167 10162 10161 10158 ] final  -71.92 input  -65.29 | X-H torsion
[ 10718 10713 10712 10709 ] final  155.44 input   66.30 | X-H torsion
[ 10763 10752 10751 10750 ] final -178.31 input  -60.55 | X-H torsion
[ 11005 11000 10999 10996 ] final  -51.53 input  -57.11 | X-H torsion

> <Gold.Protein.ActiveResidues>
 VAL166  LYS551  ARG553  GLY616  TRP617  ASP618  TYR619  PRO620  LYS621  CYS622 
 ASP623  PHE694  ASN695  SER759  ASP760  ASP761  ALA762  ILE779  LEU786  VAL792 
 PHE793  MET794  SER795  GLU796  ALA797  LYS798  CYS799  TRP800  GLU811  SER814 

> <Gold.Protein.RotatedAtoms>
  151.8848  135.0439  160.0492 H   0  0  0  0  0  0  0  0  0  0  0  0  # atno 6907 bound_to 6896
  152.2483  133.5189  159.5319 H   0  0  0  0  0  0  0  0  0  0  0  0  # atno 6908 bound_to 6896
  150.7075  134.0911  159.3974 H   0  0  0  0  0  0  0  0  0  0  0  0  # atno 6909 bound_to 6896
  146.0432  139.4906  142.9765 H   0  0  0  0  0  0  0  0  0  0  0  0  # atno 7974 bound_to 7965
  156.3004  140.2447  156.3734 H   0  0  0  0  0  0  0  0  0  0  0  0  # atno 8008 bound_to 7997
  154.8768  140.0414  157.1777 H   0  0  0  0  0  0  0  0  0  0  0  0  # atno 8009 bound_to 7997
  154.8738  140.2939  155.5469 H   0  0  0  0  0  0  0  0  0  0  0  0  # atno 8010 bound_to 7997
  140.5234  143.2329  151.7390 H   0  0  0  0  0  0  0  0  0  0  0  0  # atno 10167 bound_to 10162
  157.2182  131.0713  151.1928 H   0  0  0  0  0  0  0  0  0  0  0  0  # atno 10718 bound_to 10713
  154.5493  135.2811  155.1024 H   0  0  0  0  0  0  0  0  0  0  0  0  # atno 10763 bound_to 10752
  154.2476  135.6345  153.5232 H   0  0  0  0  0  0  0  0  0  0  0  0  # atno 10764 bound_to 10752
  152.9998  135.5575  154.6054 H   0  0  0  0  0  0  0  0  0  0  0  0  # atno 10765 bound_to 10752
  141.0876  133.6639  156.3891 H   0  0  0  0  0  0  0  0  0  0  0  0  # atno 11005 bound_to 11000
  145.6850  141.0180  143.1586 LP  0  0  0  0  0  0  0  0  0  0  0  0  # atno 17320 bound_to 7965
  144.7085  139.8465  143.7422 LP  0  0  0  0  0  0  0  0  0  0  0  0  # atno 17321 bound_to 7965
  139.4930  144.4221  151.9966 LP  0  0  0  0  0  0  0  0  0  0  0  0  # atno 17342 bound_to 10162
  140.3319  144.3306  150.5985 LP  0  0  0  0  0  0  0  0  0  0  0  0  # atno 17343 bound_to 10162
  157.3602  130.7127  149.6497 LP  0  0  0  0  0  0  0  0  0  0  0  0  # atno 17370 bound_to 10713
  155.9684  130.4227  150.4530 LP  0  0  0  0  0  0  0  0  0  0  0  0  # atno 17371 bound_to 10713
  140.5327  134.6197  157.5355 LP  0  0  0  0  0  0  0  0  0  0  0  0  # atno 17394 bound_to 11000
  139.9696  134.7315  156.0068 LP  0  0  0  0  0  0  0  0  0  0  0  0  # atno 17395 bound_to 11000

$$$$
