AV-unprocessed.smi:1120|AV-procd|sdf|4825|dock1
  -GOLD-   22720 3383D 1   1.00000     0.00000
 Structure written by MMmdl.
 48 49  0  0  0  0  0  0  0  0  3 V2000
  152.8586  143.8834  159.4724 C   0  0  0  0  0  0  0  0  0  0  0  0
  151.7686  142.8059  159.3865 C   0  0  2  0  0  0  0  0  0  0  0  0
  152.3668  141.4014  159.1440 C   0  0  0  0  0  0  0  0  0  0  0  0
  151.2864  140.2971  159.0017 C   0  0  0  0  0  0  0  0  0  0  0  0
  150.2176  140.5880  157.9192 C   0  0  2  0  0  0  0  0  0  0  0  0
  150.8110  140.4687  156.5943 N   0  5  0  0  0  0  0  0  0  0  0  0
  150.0684  139.6056  155.4387 S   0  0  0  0  0  0  0  0  0  0  0  0
  150.9786  139.2659  154.3334 O   0  0  0  0  0  0  0  0  0  0  0  0
  149.2344  138.5169  155.9758 O   0  0  0  0  0  0  0  0  0  0  0  0
  148.9058  140.8734  154.7584 C   0  0  0  0  0  0  0  0  0  0  0  0
  147.6508  140.2098  154.1893 C   0  0  0  0  0  0  0  0  0  0  0  0
  146.5899  140.2670  154.8115 O   0  0  0  0  0  0  0  0  0  0  0  0
  147.7797  139.5925  153.0036 N   0  0  0  0  0  0  0  0  0  0  0  0
  146.7318  138.8412  152.3179 C   0  0  0  0  0  0  0  0  0  0  0  0
  145.9789  137.8717  153.2503 C   0  0  0  0  0  0  0  0  0  0  0  0
  145.4052  136.6587  152.5396 C   0  0  0  0  0  0  0  0  0  0  0  0
  144.0293  136.3436  152.5770 C   0  0  0  0  0  0  0  0  0  0  0  0
  143.5700  135.1861  151.9147 C   0  0  0  0  0  0  0  0  0  0  0  0
  144.4935  134.3714  151.2274 C   0  0  0  0  0  0  0  0  0  0  0  0
  145.8553  134.7355  151.2197 C   0  0  0  0  0  0  0  0  0  0  0  0
  146.2563  135.8523  151.8651 N   0  3  0  0  0  0  0  0  0  0  0  0
  149.6532  142.0155  158.1386 C   0  0  0  0  0  0  0  0  0  0  0  0
  150.7397  143.1136  158.2746 C   0  0  0  0  0  0  0  0  0  0  0  0
  153.4238  143.9505  158.5423 H   0  0  0  0  0  0  0  0  0  0  0  0
  153.5633  143.6642  160.2749 H   0  0  0  0  0  0  0  0  0  0  0  0
  152.4260  144.8643  159.6712 H   0  0  0  0  0  0  0  0  0  0  0  0
  151.2405  142.7887  160.3409 H   0  0  0  0  0  0  0  0  0  0  0  0
  152.9987  141.4217  158.2536 H   0  0  0  0  0  0  0  0  0  0  0  0
  153.0311  141.1433  159.9693 H   0  0  0  0  0  0  0  0  0  0  0  0
  151.7640  139.3358  158.8082 H   0  0  0  0  0  0  0  0  0  0  0  0
  150.7821  140.1863  159.9623 H   0  0  0  0  0  0  0  0  0  0  0  0
  149.4072  139.8695  158.0466 H   0  0  0  0  0  0  0  0  0  0  0  0
  148.6528  141.5783  155.5502 H   0  0  0  0  0  0  0  0  0  0  0  0
  149.4269  141.4243  153.9756 H   0  0  0  0  0  0  0  0  0  0  0  0
  148.6928  139.5938  152.5716 H   0  0  0  0  0  0  0  0  0  0  0  0
  146.0269  139.5615  151.9025 H   0  0  0  0  0  0  0  0  0  0  0  0
  147.1473  138.3018  151.4650 H   0  0  0  0  0  0  0  0  0  0  0  0
  146.6459  137.5366  154.0457 H   0  0  0  0  0  0  0  0  0  0  0  0
  145.1637  138.4016  153.7445 H   0  0  0  0  0  0  0  0  0  0  0  0
  143.3353  136.9724  153.1154 H   0  0  0  0  0  0  0  0  0  0  0  0
  142.5223  134.9246  151.9372 H   0  0  0  0  0  0  0  0  0  0  0  0
  144.1627  133.4784  150.7174 H   0  0  0  0  0  0  0  0  0  0  0  0
  146.6310  134.1693  150.7253 H   0  0  0  0  0  0  0  0  0  0  0  0
  148.9602  142.2807  157.3402 H   0  0  0  0  0  0  0  0  0  0  0  0
  149.0565  142.0113  159.0513 H   0  0  0  0  0  0  0  0  0  0  0  0
  150.2550  144.0677  158.4832 H   0  0  0  0  0  0  0  0  0  0  0  0
  151.2560  143.2483  157.3214 H   0  0  0  0  0  0  0  0  0  0  0  0
  147.2483  136.0904  151.8558 H   0  0  0  0  0  0  0  0  0  0  0  0
  1  2  1  0  0  0  0
  1 24  1  0  0  0  0
  1 25  1  0  0  0  0
  1 26  1  0  0  0  0
  2 23  1  0  0  0  0
  2  3  1  0  0  0  0
  2 27  1  0  0  0  0
  3  4  1  0  0  0  0
  3 28  1  0  0  0  0
  3 29  1  0  0  0  0
  4  5  1  0  0  0  0
  4 30  1  0  0  0  0
  4 31  1  0  0  0  0
  5  6  1  0  0  0  0
  5 22  1  0  0  0  0
  5 32  1  0  0  0  0
  6  7  1  0  0  0  0
  7  8  2  0  0  0  0
  7  9  2  0  0  0  0
  7 10  1  0  0  0  0
 10 11  1  0  0  0  0
 10 33  1  0  0  0  0
 10 34  1  0  0  0  0
 11 12  2  0  0  0  0
 11 13  1  0  0  0  0
 13 14  1  0  0  0  0
 13 35  1  0  0  0  0
 14 15  1  0  0  0  0
 14 36  1  0  0  0  0
 14 37  1  0  0  0  0
 15 16  1  0  0  0  0
 15 38  1  0  0  0  0
 15 39  1  0  0  0  0
 16 21  1  0  0  0  0
 16 17  2  0  0  0  0
 17 18  1  0  0  0  0
 17 40  1  0  0  0  0
 18 19  2  0  0  0  0
 18 41  1  0  0  0  0
 19 20  1  0  0  0  0
 19 42  1  0  0  0  0
 20 21  2  0  0  0  0
 20 43  1  0  0  0  0
 21 48  1  0  0  0  0
 22 23  1  0  0  0  0
 22 44  1  0  0  0  0
 22 45  1  0  0  0  0
 23 46  1  0  0  0  0
 23 47  1  0  0  0  0
M  CHG  1   6  -1
M  CHG  1  21   1
M  END
> <s_m_source_file>
AV-unprocessed.smi

> <i_m_source_file_index>
1120

> <i_lp_mmshare_version>
43012

> <i_f3d_flags>
0

> <s_epik_input>
W0NIM11bQ0BASF0xW0NIMl1bQ0gyXVtDQEhdKFtDSDJdW0NIMl0xKVtOSF1TKD1PKSg9TylbQ0gyXUMoPU8pW05IXVtDSDJdW0NIMl1jMltjSF1bY0hdW2NIXVtjSF1uMg==

> <s_epik_cmdline>
J2VwaWtfcHl0aG9uJywgJy1waCcsICc3LjAnLCAnLXRuJywgJzgnLCAnLW1hJywgJzIwMCcsICctbWV0YWxfYmluZGluZycsICctaW1hZScsICc8aW5maWxlLm1hZT4nLCAnLW9tYWUnLCAnPG91dGZpbGUubWFlPic=

> <r_epik_Ionization_Penalty>
7.48373

> <r_epik_Ionization_Penalty_Charging>
7.48373

> <r_epik_Ionization_Penalty_Neutral>
1.58512e-08

> <r_epik_State_Penalty>
7.71683

> <r_epik_Charging_Adjusted_Penalty>
15.2006

> <i_epik_Tot_Q>
0

> <i_epik_Tot_abs_Q>
2

> <r_epik_Metal_State_Penalty>
3.7254

> <b_epik_Metal_Only>
1

> <s_lp_Force_Field>
OPLS_2005

> <r_lp_Energy>
13.616

> <b_lp_Chiralities_Consistent>
1

> <s_lp_Variant>
AV-unprocessed.smi:1120-8

> <Gold.Version>
5.8.1

> <Gold.Id.Protein>
6NUR|6NUR_protein|mol2

> <Gold.PLP.Fitness>
49.5586

> <Gold.PLP.PLP>
-39.8294

> <Gold.PLP.part.hbond>
-2.6778

> <Gold.PLP.part.metal>
0.0000

> <Gold.PLP.part.buried>
-5.5916

> <Gold.PLP.part.nonpolar>
-32.2608

> <Gold.PLP.part.repulsive>
0.4675

> <Gold.PLP.ligand.clash>
0.0000

> <Gold.PLP.ligand.torsion>
1.6210

> <Gold.PLP.Chemscore.Hbond>
3.9357

> <Gold.PLP.Chemscore.CHOScore>
0.0000

> <Gold.PLP.Chemscore.Metal>
0.0000

> <Gold.Chemscore.Hbonds>
donor molecule, donor type, donor heavy atom, donor atom, acceptor molecule, acceptor atom, score
      L1  H    13    35       P1  7957  0.90
      L1  H    21    48       P1  7948  2.00
      P1  H  7989  7998       L1     8  1.00

> <Gold.PLP.Chemscore.Internal.Correction>
1.1641

> <Gold.Rescore>
     Score         DG    S(hbond)    S(metal)    S(lipo)     H(rot)  DE(clash)    DE(int)     intcor
     18.45     -21.50       2.93        0.00      96.66       1.98       0.11       2.95       ----

> <Gold.Chemscore.Fitness>
18.4476

> <Gold.Chemscore.DG>
-21.5048

> <Gold.Chemscore.ZeroCoef>
-5.4800

> <Gold.Chemscore.Hbond>
2.9317

> <Gold.Chemscore.Metal>
0.0000

> <Gold.Chemscore.Lipo>
96.6648

> <Gold.Chemscore.Internal_Hbond>
0.0000

> <Gold.Chemscore.DEClash>
0.1113

> <Gold.Chemscore.DEInternal>
2.9458

> <Gold.Chemscore.Rot>
1.9832

> <Gold.Chemscore.Internal.Correction>
   9.000000E+99

> <Gold.Chemscore.Hbonds>
donor molecule, donor type, donor heavy atom, donor atom, acceptor molecule, acceptor atom, score
      L1  H    13    35       P1  7957  0.88
      L1  H    21    48       P1  7948  1.00
      P1  H  7989  7998       L1     8  0.78

> <Gold.Chemscore.Hbond.Weighted>
-9.7919

> <Gold.Chemscore.Metal.Weighted>
-0.0000

> <Gold.Chemscore.Lipo.Weighted>
-11.3098

> <Gold.Chemscore.Internal_Hbond.Weighted>
0.0000

> <Gold.Chemscore.DEClash.Weighted>
0.1113

> <Gold.Chemscore.DEInternal.Weighted>
2.9458

> <Gold.Chemscore.Rot.Weighted>
5.0769

> <Gold.Chemscore.Internal.Correction.Weighted>
   9.000000E+99

> <Gold.Protein.RotatedTorsions>
[ 6907 6896 6895 6894 ] final  108.06 input  -60.11 | X-H torsion
[ 7974 7965 7964 7962 ] final  172.79 input  175.53 | X-H torsion
[ 8008 7997 7996 7995 ] final  146.13 input   59.86 | X-H torsion
[ 10167 10162 10161 10158 ] final  -87.99 input  -65.29 | X-H torsion
[ 10718 10713 10712 10709 ] final  -10.16 input   66.30 | X-H torsion
[ 10763 10752 10751 10750 ] final  -50.43 input  -60.55 | X-H torsion
[ 11005 11000 10999 10996 ] final   30.32 input  -57.11 | X-H torsion

> <Gold.Protein.ActiveResidues>
 VAL166  LYS551  ARG553  GLY616  TRP617  ASP618  TYR619  PRO620  LYS621  CYS622 
 ASP623  PHE694  ASN695  SER759  ASP760  ASP761  ALA762  ILE779  LEU786  VAL792 
 PHE793  MET794  SER795  GLU796  ALA797  LYS798  CYS799  TRP800  GLU811  SER814 

> <Gold.Protein.RotatedAtoms>
  152.5128  133.9143  159.7502 H   0  0  0  0  0  0  0  0  0  0  0  0  # atno 6907 bound_to 6896
  150.9529  133.6521  159.2775 H   0  0  0  0  0  0  0  0  0  0  0  0  # atno 6908 bound_to 6896
  151.3793  135.0942  159.9543 H   0  0  0  0  0  0  0  0  0  0  0  0  # atno 6909 bound_to 6896
  144.7259  139.9550  143.6433 H   0  0  0  0  0  0  0  0  0  0  0  0  # atno 7974 bound_to 7965
  156.2864  140.2191  156.5326 H   0  0  0  0  0  0  0  0  0  0  0  0  # atno 8008 bound_to 7997
  154.7436  140.0486  157.0854 H   0  0  0  0  0  0  0  0  0  0  0  0  # atno 8009 bound_to 7997
  155.0199  140.3123  155.4800 H   0  0  0  0  0  0  0  0  0  0  0  0  # atno 8010 bound_to 7997
  140.3791  143.2757  151.9406 H   0  0  0  0  0  0  0  0  0  0  0  0  # atno 10167 bound_to 10162
  156.6776  130.5027  149.5981 H   0  0  0  0  0  0  0  0  0  0  0  0  # atno 10718 bound_to 10713
  154.1102  135.6550  153.4883 H   0  0  0  0  0  0  0  0  0  0  0  0  # atno 10763 bound_to 10752
  153.0259  135.5246  154.7200 H   0  0  0  0  0  0  0  0  0  0  0  0  # atno 10764 bound_to 10752
  154.6377  135.2984  155.0110 H   0  0  0  0  0  0  0  0  0  0  0  0  # atno 10765 bound_to 10752
  140.2956  134.2815  155.7765 H   0  0  0  0  0  0  0  0  0  0  0  0  # atno 11005 bound_to 11000
  146.0682  139.3671  143.0539 LP  0  0  0  0  0  0  0  0  0  0  0  0  # atno 17320 bound_to 7965
  145.8004  140.9774  143.1002 LP  0  0  0  0  0  0  0  0  0  0  0  0  # atno 17321 bound_to 7965
  139.4797  144.5836  151.7891 LP  0  0  0  0  0  0  0  0  0  0  0  0  # atno 17342 bound_to 10162
  140.4956  144.1245  150.5959 LP  0  0  0  0  0  0  0  0  0  0  0  0  # atno 17343 bound_to 10162
  156.1892  130.6548  151.1041 LP  0  0  0  0  0  0  0  0  0  0  0  0  # atno 17370 bound_to 10713
  157.7055  131.0758  150.6681 LP  0  0  0  0  0  0  0  0  0  0  0  0  # atno 17371 bound_to 10713
  141.2138  133.7613  156.9690 LP  0  0  0  0  0  0  0  0  0  0  0  0  # atno 17394 bound_to 11000
  140.1156  134.9449  157.2129 LP  0  0  0  0  0  0  0  0  0  0  0  0  # atno 17395 bound_to 11000

$$$$
