AV-unprocessed.smi:1487|AV-procd|sdf|6015|dock6
  -GOLD-   22720 6113D 1   1.00000     0.00000
 Structure written by MMmdl.
 49 51  0  0  0  0  0  0  0  0  3 V2000
  152.3115  144.1506  160.6863 C   0  0  0  0  0  0  0  0  0  0  0  0
  152.1287  143.1801  159.5316 C   0  0  0  0  0  0  0  0  0  0  0  0
  151.1892  143.4982  158.5252 C   0  0  0  0  0  0  0  0  0  0  0  0
  151.0464  142.5918  157.4812 C   0  0  0  0  0  0  0  0  0  0  0  0
  150.2202  142.6185  156.3561 N   0  3  0  0  0  0  0  0  0  0  0  0
  150.4319  141.4996  155.6097 C   0  0  0  0  0  0  0  0  0  0  0  0
  151.3852  140.7595  156.2391 N   0  0  0  0  0  0  0  0  0  0  0  0
  151.9620  139.4620  155.8586 C   0  0  0  0  0  0  0  0  0  0  0  0
  150.9109  138.4554  155.3484 C   0  0  2  0  0  0  0  0  0  0  0  0
  151.5892  137.2423  155.0915 O   0  0  0  0  0  0  0  0  0  0  0  0
  150.1863  138.9170  154.0631 C   0  0  0  0  0  0  0  0  0  0  0  0
  148.8473  138.2971  153.8849 N   0  3  1  0  0  0  0  0  0  0  0  0
  148.1640  137.9777  155.1681 C   0  0  0  0  0  0  0  0  0  0  0  0
  146.8429  137.2287  154.9229 C   0  0  0  0  0  0  0  0  0  0  0  0
  145.9166  138.0330  154.0025 C   0  0  0  0  0  0  0  0  0  0  0  0
  146.6512  138.3760  152.6987 C   0  0  1  0  0  0  0  0  0  0  0  0
  145.8318  139.2011  151.8992 O   0  0  0  0  0  0  0  0  0  0  0  0
  147.9762  139.1036  152.9904 C   0  0  0  0  0  0  0  0  0  0  0  0
  151.7955  141.4004  157.4156 C   0  0  0  0  0  0  0  0  0  0  0  0
  152.7239  141.0716  158.4014 C   0  0  0  0  0  0  0  0  0  0  0  0
  152.8864  141.9822  159.4698 C   0  0  0  0  0  0  0  0  0  0  0  0
  153.8953  141.6512  160.5566 C   0  0  0  0  0  0  0  0  0  0  0  0
  151.6715  145.0266  160.5772 H   0  0  0  0  0  0  0  0  0  0  0  0
  153.3440  144.4975  160.7361 H   0  0  0  0  0  0  0  0  0  0  0  0
  152.0609  143.6708  161.6328 H   0  0  0  0  0  0  0  0  0  0  0  0
  150.6074  144.4075  158.5666 H   0  0  0  0  0  0  0  0  0  0  0  0
  149.9300  141.2438  154.6874 H   0  0  0  0  0  0  0  0  0  0  0  0
  152.7510  139.6177  155.1228 H   0  0  0  0  0  0  0  0  0  0  0  0
  152.4539  139.0632  156.7470 H   0  0  0  0  0  0  0  0  0  0  0  0
  150.1957  138.2792  156.1511 H   0  0  0  0  0  0  0  0  0  0  0  0
  151.0071  136.5191  155.2686 H   0  0  0  0  0  0  0  0  0  0  0  0
  150.0708  140.0013  154.0496 H   0  0  0  0  0  0  0  0  0  0  0  0
  150.8181  138.6668  153.2093 H   0  0  0  0  0  0  0  0  0  0  0  0
  148.8017  137.3594  155.7978 H   0  0  0  0  0  0  0  0  0  0  0  0
  147.9744  138.8995  155.7202 H   0  0  0  0  0  0  0  0  0  0  0  0
  147.0502  136.2556  154.4756 H   0  0  0  0  0  0  0  0  0  0  0  0
  146.3437  137.0325  155.8723 H   0  0  0  0  0  0  0  0  0  0  0  0
  145.0099  137.4641  153.7921 H   0  0  0  0  0  0  0  0  0  0  0  0
  145.6031  138.9473  154.5091 H   0  0  0  0  0  0  0  0  0  0  0  0
  146.8543  137.4600  152.1419 H   0  0  0  0  0  0  0  0  0  0  0  0
  145.0407  139.3976  152.3780 H   0  0  0  0  0  0  0  0  0  0  0  0
  147.7848  140.0742  153.4521 H   0  0  0  0  0  0  0  0  0  0  0  0
  148.4939  139.2963  152.0495 H   0  0  0  0  0  0  0  0  0  0  0  0
  153.3025  140.1609  158.3605 H   0  0  0  0  0  0  0  0  0  0  0  0
  154.3856  140.6954  160.3692 H   0  0  0  0  0  0  0  0  0  0  0  0
  153.4057  141.5887  161.5287 H   0  0  0  0  0  0  0  0  0  0  0  0
  154.6690  142.4178  160.6065 H   0  0  0  0  0  0  0  0  0  0  0  0
  149.0014  137.4218  153.4055 H   0  0  0  0  0  0  0  0  0  0  0  0
  149.5552  143.3430  156.1161 H   0  0  0  0  0  0  0  0  0  0  0  0
  1  2  1  0  0  0  0
  1 23  1  0  0  0  0
  1 24  1  0  0  0  0
  1 25  1  0  0  0  0
  2 21  1  0  0  0  0
  2  3  2  0  0  0  0
  3  4  1  0  0  0  0
  3 26  1  0  0  0  0
  4 19  2  0  0  0  0
  4  5  1  0  0  0  0
  5  6  2  0  0  0  0
  5 49  1  0  0  0  0
  6  7  1  0  0  0  0
  6 27  1  0  0  0  0
  7  8  1  0  0  0  0
  7 19  1  0  0  0  0
  8  9  1  0  0  0  0
  8 28  1  0  0  0  0
  8 29  1  0  0  0  0
  9 10  1  0  0  0  0
  9 11  1  0  0  0  0
  9 30  1  0  0  0  0
 10 31  1  0  0  0  0
 11 12  1  0  0  0  0
 11 32  1  0  0  0  0
 11 33  1  0  0  0  0
 12 18  1  0  0  0  0
 12 13  1  0  0  0  0
 12 48  1  0  0  0  0
 13 14  1  0  0  0  0
 13 34  1  0  0  0  0
 13 35  1  0  0  0  0
 14 15  1  0  0  0  0
 14 36  1  0  0  0  0
 14 37  1  0  0  0  0
 15 16  1  0  0  0  0
 15 38  1  0  0  0  0
 15 39  1  0  0  0  0
 16 17  1  0  0  0  0
 16 18  1  0  0  0  0
 16 40  1  0  0  0  0
 17 41  1  0  0  0  0
 18 42  1  0  0  0  0
 18 43  1  0  0  0  0
 19 20  1  0  0  0  0
 20 21  2  0  0  0  0
 20 44  1  0  0  0  0
 21 22  1  0  0  0  0
 22 45  1  0  0  0  0
 22 46  1  0  0  0  0
 22 47  1  0  0  0  0
M  CHG  1   5   1
M  CHG  1  12   1
M  END
> <s_m_source_file>
AV-unprocessed.smi

> <i_m_source_file_index>
1487

> <i_lp_mmshare_version>
43012

> <i_f3d_flags>
0

> <s_epik_input>
W0NIM11jKFtjSF0xKWMoW0NIM10pW2NIXWMoYzEyKW4oW2NIXW4yKVtDSDJdW0NASF0oW09IXSlbQ0gyXU4zW0NIMl1bQ0gyXVtDSDJdW0NAQEhdKFtPSF0pW0NIMl0z

> <s_epik_cmdline>
J2VwaWtfcHl0aG9uJywgJy1waCcsICc3LjAnLCAnLXRuJywgJzgnLCAnLW1hJywgJzIwMCcsICctbWV0YWxfYmluZGluZycsICctaW1hZScsICc8aW5maWxlLm1hZT4nLCAnLW9tYWUnLCAnPG91dGZpbGUubWFlPic=

> <r_epik_Ionization_Penalty>
1.1857

> <r_epik_Ionization_Penalty_Charging>
1.1857

> <r_epik_Ionization_Penalty_Neutral>
1.75578e-06

> <r_epik_State_Penalty>
1.26953

> <r_epik_Charging_Adjusted_Penalty>
2.45524

> <i_epik_Tot_Q>
2

> <i_epik_Tot_abs_Q>
2

> <r_epik_Metal_State_Penalty>
5.28243

> <b_epik_Metal_Only>
0

> <s_lp_Force_Field>
OPLS_2005

> <r_lp_Energy>
33.096

> <b_lp_Chiralities_Consistent>
1

> <s_lp_Variant>
AV-unprocessed.smi:1487-9

> <Gold.Version>
5.8.1

> <Gold.Id.Protein>
6NUR|6NUR_protein|mol2

> <Gold.PLP.Fitness>
56.1878

> <Gold.PLP.PLP>
-42.1622

> <Gold.PLP.part.hbond>
-4.5651

> <Gold.PLP.part.metal>
0.0000

> <Gold.PLP.part.buried>
-0.5898

> <Gold.PLP.part.nonpolar>
-37.0928

> <Gold.PLP.part.repulsive>
0.1099

> <Gold.PLP.ligand.clash>
0.0000

> <Gold.PLP.ligand.torsion>
0.7984

> <Gold.PLP.Chemscore.Hbond>
5.1950

> <Gold.PLP.Chemscore.CHOScore>
0.0000

> <Gold.PLP.Chemscore.Metal>
0.0000

> <Gold.Chemscore.Hbonds>
donor molecule, donor type, donor heavy atom, donor atom, acceptor molecule, acceptor atom, score
      L1  H     5    49       P1  8028  2.00
      L1  H    12    48       P1  7948  2.00
      L1  H    17    41       P1 10175  0.88
      P1  H 10752 10764       L1    10  0.06

> <Gold.PLP.Chemscore.Internal.Correction>
0.0374

> <Gold.Rescore>
     Score         DG    S(hbond)    S(metal)    S(lipo)     H(rot)  DE(clash)    DE(int)     intcor
     19.29     -21.66       2.96        0.00     113.68       2.74       1.51       0.86       ----

> <Gold.Chemscore.Fitness>
19.2885

> <Gold.Chemscore.DG>
-21.6619

> <Gold.Chemscore.ZeroCoef>
-5.4800

> <Gold.Chemscore.Hbond>
2.9615

> <Gold.Chemscore.Metal>
0.0000

> <Gold.Chemscore.Lipo>
113.6831

> <Gold.Chemscore.Internal_Hbond>
0.0000

> <Gold.Chemscore.DEClash>
1.5117

> <Gold.Chemscore.DEInternal>
0.8617

> <Gold.Chemscore.Rot>
2.7384

> <Gold.Chemscore.Internal.Correction>
   9.000000E+99

> <Gold.Chemscore.Hbonds>
donor molecule, donor type, donor heavy atom, donor atom, acceptor molecule, acceptor atom, score
      L1  H     5    49       P1  8028  0.98
      L1  H    12    48       P1  7948  0.97
      L1  H    17    41       P1 10175  0.87

> <Gold.Chemscore.Hbond.Weighted>
-9.8913

> <Gold.Chemscore.Metal.Weighted>
-0.0000

> <Gold.Chemscore.Lipo.Weighted>
-13.3009

> <Gold.Chemscore.Internal_Hbond.Weighted>
0.0000

> <Gold.Chemscore.DEClash.Weighted>
1.5117

> <Gold.Chemscore.DEInternal.Weighted>
0.8617

> <Gold.Chemscore.Rot.Weighted>
7.0103

> <Gold.Chemscore.Internal.Correction.Weighted>
   9.000000E+99

> <Gold.Protein.RotatedTorsions>
[ 6907 6896 6895 6894 ] final -175.15 input  -60.11 | X-H torsion
[ 7974 7965 7964 7962 ] final  148.92 input  175.53 | X-H torsion
[ 8008 7997 7996 7995 ] final  -65.45 input   59.86 | X-H torsion
[ 10167 10162 10161 10158 ] final  116.68 input  -65.29 | X-H torsion
[ 10718 10713 10712 10709 ] final -168.60 input   66.30 | X-H torsion
[ 10763 10752 10751 10750 ] final  -65.11 input  -60.55 | X-H torsion
[ 11005 11000 10999 10996 ] final  178.24 input  -57.11 | X-H torsion

> <Gold.Protein.ActiveResidues>
 VAL166  LYS551  ARG553  GLY616  TRP617  ASP618  TYR619  PRO620  LYS621  CYS622 
 ASP623  PHE694  ASN695  SER759  ASP760  ASP761  ALA762  ILE779  LEU786  VAL792 
 PHE793  MET794  SER795  GLU796  ALA797  LYS798  CYS799  TRP800  GLU811  SER814 

> <Gold.Protein.RotatedAtoms>
  151.5839  133.3374  159.3013 H   0  0  0  0  0  0  0  0  0  0  0  0  # atno 6907 bound_to 6896
  150.8298  134.7549  159.6855 H   0  0  0  0  0  0  0  0  0  0  0  0  # atno 6908 bound_to 6896
  152.4383  134.5648  159.9956 H   0  0  0  0  0  0  0  0  0  0  0  0  # atno 6909 bound_to 6896
  144.8477  139.6215  143.5988 H   0  0  0  0  0  0  0  0  0  0  0  0  # atno 7974 bound_to 7965
  154.4673  140.0933  156.7053 H   0  0  0  0  0  0  0  0  0  0  0  0  # atno 8008 bound_to 7997
  155.4823  140.3468  155.4323 H   0  0  0  0  0  0  0  0  0  0  0  0  # atno 8009 bound_to 7997
  156.0978  140.1414  156.9496 H   0  0  0  0  0  0  0  0  0  0  0  0  # atno 8010 bound_to 7997
  139.6230  144.7104  151.2593 H   0  0  0  0  0  0  0  0  0  0  0  0  # atno 10167 bound_to 10162
  156.6993  130.9190  151.3078 H   0  0  0  0  0  0  0  0  0  0  0  0  # atno 10718 bound_to 10713
  154.3401  135.6158  153.5592 H   0  0  0  0  0  0  0  0  0  0  0  0  # atno 10763 bound_to 10752
  152.9805  135.5767  154.4862 H   0  0  0  0  0  0  0  0  0  0  0  0  # atno 10764 bound_to 10752
  154.4565  135.2854  155.1721 H   0  0  0  0  0  0  0  0  0  0  0  0  # atno 10765 bound_to 10752
  140.3929  134.6846  157.4518 H   0  0  0  0  0  0  0  0  0  0  0  0  # atno 11005 bound_to 11000
  146.2758  139.6750  142.9264 LP  0  0  0  0  0  0  0  0  0  0  0  0  # atno 17320 bound_to 7965
  145.4563  141.0431  143.2776 LP  0  0  0  0  0  0  0  0  0  0  0  0  # atno 17321 bound_to 7965
  140.7394  143.6620  150.8156 LP  0  0  0  0  0  0  0  0  0  0  0  0  # atno 17342 bound_to 10162
  140.0233  143.5519  152.2791 LP  0  0  0  0  0  0  0  0  0  0  0  0  # atno 17343 bound_to 10162
  157.6979  130.9301  150.0698 LP  0  0  0  0  0  0  0  0  0  0  0  0  # atno 17370 bound_to 10713
  156.1740  130.3647  149.9126 LP  0  0  0  0  0  0  0  0  0  0  0  0  # atno 17371 bound_to 10713
  140.0393  134.6291  155.9002 LP  0  0  0  0  0  0  0  0  0  0  0  0  # atno 17394 bound_to 11000
  141.1884  133.6562  156.5324 LP  0  0  0  0  0  0  0  0  0  0  0  0  # atno 17395 bound_to 11000

$$$$
