AV-unprocessed.smi:2661|AV-procd|sdf|10317|dock3
  -GOLD-   2272014333D 1   1.00000     0.00000
 Structure written by MMmdl.
 44 46  0  0  0  0  0  0  0  0  1 V2000
  142.8028  135.9097  153.2457 C   0  0  0  0  0  0  0  0  0  0  0  0
  143.9270  136.4434  152.4892 N   0  0  0  0  0  0  0  0  0  0  0  0
  144.2855  135.9012  151.1904 C   0  0  0  0  0  0  0  0  0  0  0  0
  145.6572  136.5152  150.8778 C   0  0  0  0  0  0  0  0  0  0  0  0
  145.7899  137.7248  151.8231 C   0  0  2  0  0  0  0  0  0  0  0  0
  147.1203  137.8428  152.4167 N   0  0  0  0  0  0  0  0  0  0  0  0
  147.4933  138.7628  153.3177 C   0  0  0  0  0  0  0  0  0  0  0  0
  146.7286  139.6105  153.7776 O   0  0  0  0  0  0  0  0  0  0  0  0
  148.7864  138.6150  153.6534 N   0  0  0  0  0  0  0  0  0  0  0  0
  149.5659  139.3863  154.5582 C   0  0  0  0  0  0  0  0  0  0  0  0
  150.9451  139.1882  154.8004 C   0  0  0  0  0  0  0  0  0  0  0  0
  151.5992  140.0124  155.7360 C   0  0  0  0  0  0  0  0  0  0  0  0
  150.8626  141.0100  156.4174 C   0  0  0  0  0  0  0  0  0  0  0  0
  151.4990  141.8476  157.3597 N   0  0  0  0  0  0  0  0  0  0  0  0
  151.3793  141.4395  158.7574 C   0  0  0  0  0  0  0  0  0  0  0  0
  152.3591  142.2376  159.6350 C   0  0  0  0  0  0  0  0  0  0  0  0
  152.1499  143.6332  159.4471 O   0  0  0  0  0  0  0  0  0  0  0  0
  152.3843  144.0258  158.0989 C   0  0  0  0  0  0  0  0  0  0  0  0
  151.4025  143.2940  157.1681 C   0  0  0  0  0  0  0  0  0  0  0  0
  149.5393  141.1923  156.1862 N   0  0  0  0  0  0  0  0  0  0  0  0
  148.9160  140.3998  155.2897 C   0  0  0  0  0  0  0  0  0  0  0  0
  144.7398  137.4283  152.8852 C   0  0  0  0  0  0  0  0  0  0  0  0
  144.6656  138.0417  153.9498 O   0  0  0  0  0  0  0  0  0  0  0  0
  143.1472  135.4725  154.1836 H   0  0  0  0  0  0  0  0  0  0  0  0
  142.2810  135.1361  152.6815 H   0  0  0  0  0  0  0  0  0  0  0  0
  142.0873  136.6997  153.4769 H   0  0  0  0  0  0  0  0  0  0  0  0
  144.3227  134.8113  151.2042 H   0  0  0  0  0  0  0  0  0  0  0  0
  143.5412  136.2109  150.4555 H   0  0  0  0  0  0  0  0  0  0  0  0
  146.4326  135.7752  151.0840 H   0  0  0  0  0  0  0  0  0  0  0  0
  145.7493  136.7993  149.8291 H   0  0  0  0  0  0  0  0  0  0  0  0
  145.5175  138.6506  151.3138 H   0  0  0  0  0  0  0  0  0  0  0  0
  147.8105  137.1746  152.1059 H   0  0  0  0  0  0  0  0  0  0  0  0
  149.2608  137.8231  153.2447 H   0  0  0  0  0  0  0  0  0  0  0  0
  151.5137  138.4204  154.2999 H   0  0  0  0  0  0  0  0  0  0  0  0
  152.6563  139.8763  155.9091 H   0  0  0  0  0  0  0  0  0  0  0  0
  150.3549  141.6161  159.0880 H   0  0  0  0  0  0  0  0  0  0  0  0
  151.5749  140.3762  158.8881 H   0  0  0  0  0  0  0  0  0  0  0  0
  152.2034  141.9946  160.6862 H   0  0  0  0  0  0  0  0  0  0  0  0
  153.3925  141.9784  159.3983 H   0  0  0  0  0  0  0  0  0  0  0  0
  152.2490  145.1040  158.0138 H   0  0  0  0  0  0  0  0  0  0  0  0
  153.4176  143.8115  157.8209 H   0  0  0  0  0  0  0  0  0  0  0  0
  151.6262  143.5544  156.1328 H   0  0  0  0  0  0  0  0  0  0  0  0
  150.3815  143.6181  157.3737 H   0  0  0  0  0  0  0  0  0  0  0  0
  147.8613  140.5865  155.1496 H   0  0  0  0  0  0  0  0  0  0  0  0
  1  2  1  0  0  0  0
  1 24  1  0  0  0  0
  1 25  1  0  0  0  0
  1 26  1  0  0  0  0
  2 22  1  0  0  0  0
  2  3  1  0  0  0  0
  3  4  1  0  0  0  0
  3 27  1  0  0  0  0
  3 28  1  0  0  0  0
  4  5  1  0  0  0  0
  4 29  1  0  0  0  0
  4 30  1  0  0  0  0
  5  6  1  0  0  0  0
  5 22  1  0  0  0  0
  5 31  1  0  0  0  0
  6  7  1  0  0  0  0
  6 32  1  0  0  0  0
  7  8  2  0  0  0  0
  7  9  1  0  0  0  0
  9 10  1  0  0  0  0
  9 33  1  0  0  0  0
 10 21  1  0  0  0  0
 10 11  2  0  0  0  0
 11 12  1  0  0  0  0
 11 34  1  0  0  0  0
 12 13  2  0  0  0  0
 12 35  1  0  0  0  0
 13 14  1  0  0  0  0
 13 20  1  0  0  0  0
 14 19  1  0  0  0  0
 14 15  1  0  0  0  0
 15 16  1  0  0  0  0
 15 36  1  0  0  0  0
 15 37  1  0  0  0  0
 16 17  1  0  0  0  0
 16 38  1  0  0  0  0
 16 39  1  0  0  0  0
 17 18  1  0  0  0  0
 18 19  1  0  0  0  0
 18 40  1  0  0  0  0
 18 41  1  0  0  0  0
 19 42  1  0  0  0  0
 19 43  1  0  0  0  0
 20 21  2  0  0  0  0
 21 44  1  0  0  0  0
 22 23  2  0  0  0  0
M  END
> <s_m_source_file>
AV-unprocessed.smi

> <i_m_source_file_index>
2661

> <i_lp_mmshare_version>
43012

> <i_f3d_flags>
0

> <s_epik_input>
W0NIM11OMVtDSDJdW0NIMl1bQ0BIXShDMT1PKVtOSF1DKD1PKVtOSF1jMltjSF1bY0hdYyhuW2NIXTIpTjNbQ0gyXVtDSDJdT1tDSDJdW0NIMl0z

> <s_epik_cmdline>
J2VwaWtfcHl0aG9uJywgJy1waCcsICc3LjAnLCAnLXRuJywgJzgnLCAnLW1hJywgJzIwMCcsICctbWV0YWxfYmluZGluZycsICctaW1hZScsICc8aW5maWxlLm1hZT4nLCAnLW9tYWUnLCAnPG91dGZpbGUubWFlPic=

> <r_lp_tautomer_probability>
1

> <r_epik_Ionization_Penalty>
0.00172037

> <r_epik_Ionization_Penalty_Charging>
0

> <r_epik_Ionization_Penalty_Neutral>
0.00172037

> <r_epik_State_Penalty>
0.00114015

> <r_epik_Charging_Adjusted_Penalty>
0.00114015

> <i_epik_Tot_Q>
0

> <i_epik_Tot_abs_Q>
0

> <r_epik_Metal_State_Penalty>
-0

> <b_epik_Metal_Only>
0

> <s_lp_Force_Field>
OPLS_2005

> <r_lp_Energy>
33.1579

> <b_lp_Chiralities_Consistent>
1

> <s_lp_Variant>
AV-unprocessed.smi:2661-2

> <Gold.Version>
5.8.1

> <Gold.Id.Protein>
6NUR|6NUR_protein|mol2

> <Gold.PLP.Fitness>
43.4070

> <Gold.PLP.PLP>
-38.8403

> <Gold.PLP.part.hbond>
-2.9337

> <Gold.PLP.part.metal>
0.0000

> <Gold.PLP.part.buried>
-0.4454

> <Gold.PLP.part.nonpolar>
-36.2891

> <Gold.PLP.part.repulsive>
0.4696

> <Gold.PLP.ligand.clash>
0.0000

> <Gold.PLP.ligand.torsion>
0.3680

> <Gold.PLP.Chemscore.Hbond>
1.6467

> <Gold.PLP.Chemscore.CHOScore>
0.0000

> <Gold.PLP.Chemscore.Metal>
0.0000

> <Gold.Chemscore.Hbonds>
donor molecule, donor type, donor heavy atom, donor atom, acceptor molecule, acceptor atom, score
      L1  H     6    32       P1  7948  0.88
      L1  H     9    33       P1  7948  0.70

> <Gold.PLP.Chemscore.Internal.Correction>
0.3627

> <Gold.Rescore>
     Score         DG    S(hbond)    S(metal)    S(lipo)     H(rot)  DE(clash)    DE(int)     intcor
     14.43     -18.80       1.86        0.00      88.27       1.26       0.14       4.23       ----

> <Gold.Chemscore.Fitness>
14.4263

> <Gold.Chemscore.DG>
-18.7960

> <Gold.Chemscore.ZeroCoef>
-5.4800

> <Gold.Chemscore.Hbond>
1.8631

> <Gold.Chemscore.Metal>
0.0000

> <Gold.Chemscore.Lipo>
88.2747

> <Gold.Chemscore.Internal_Hbond>
0.0000

> <Gold.Chemscore.DEClash>
0.1361

> <Gold.Chemscore.DEInternal>
4.2336

> <Gold.Chemscore.Rot>
1.2636

> <Gold.Chemscore.Internal.Correction>
   9.000000E+99

> <Gold.Chemscore.Hbonds>
donor molecule, donor type, donor heavy atom, donor atom, acceptor molecule, acceptor atom, score
      L1  H     6    32       P1  7948  0.86
      L1  H     9    33       P1  7948  0.66

> <Gold.Chemscore.Hbond.Weighted>
-6.2227

> <Gold.Chemscore.Metal.Weighted>
-0.0000

> <Gold.Chemscore.Lipo.Weighted>
-10.3281

> <Gold.Chemscore.Internal_Hbond.Weighted>
0.0000

> <Gold.Chemscore.DEClash.Weighted>
0.1361

> <Gold.Chemscore.DEInternal.Weighted>
4.2336

> <Gold.Chemscore.Rot.Weighted>
3.2348

> <Gold.Chemscore.Internal.Correction.Weighted>
   9.000000E+99

> <Gold.Protein.RotatedTorsions>
[ 6907 6896 6895 6894 ] final   54.75 input  -60.11 | X-H torsion
[ 7974 7965 7964 7962 ] final -154.32 input  175.53 | X-H torsion
[ 8008 7997 7996 7995 ] final  -54.56 input   59.86 | X-H torsion
[ 10167 10162 10161 10158 ] final  117.90 input  -65.29 | X-H torsion
[ 10718 10713 10712 10709 ] final   29.47 input   66.30 | X-H torsion
[ 10763 10752 10751 10750 ] final -158.51 input  -60.55 | X-H torsion
[ 11005 11000 10999 10996 ] final  115.96 input  -57.11 | X-H torsion

> <Gold.Protein.ActiveResidues>
 VAL166  LYS551  ARG553  GLY616  TRP617  ASP618  TYR619  PRO620  LYS621  CYS622 
 ASP623  PHE694  ASN695  SER759  ASP760  ASP761  ALA762  ILE779  LEU786  VAL792 
 PHE793  MET794  SER795  GLU796  ALA797  LYS798  CYS799  TRP800  GLU811  SER814 

> <Gold.Protein.RotatedAtoms>
  152.3470  134.7057  160.0247 H   0  0  0  0  0  0  0  0  0  0  0  0  # atno 6907 bound_to 6896
  151.7423  133.3317  159.3377 H   0  0  0  0  0  0  0  0  0  0  0  0  # atno 6908 bound_to 6896
  150.7516  134.6200  159.6175 H   0  0  0  0  0  0  0  0  0  0  0  0  # atno 6909 bound_to 6896
  144.7695  140.4404  143.5917 H   0  0  0  0  0  0  0  0  0  0  0  0  # atno 7974 bound_to 7965
  154.4166  140.1173  156.5335 H   0  0  0  0  0  0  0  0  0  0  0  0  # atno 8008 bound_to 7997
  155.6581  140.3496  155.4753 H   0  0  0  0  0  0  0  0  0  0  0  0  # atno 8009 bound_to 7997
  155.9736  140.1146  157.0780 H   0  0  0  0  0  0  0  0  0  0  0  0  # atno 8010 bound_to 7997
  139.6148  144.7089  151.2765 H   0  0  0  0  0  0  0  0  0  0  0  0  # atno 10167 bound_to 10162
  157.2470  130.7096  149.6386 H   0  0  0  0  0  0  0  0  0  0  0  0  # atno 10718 bound_to 10713
  154.7550  135.3102  154.8486 H   0  0  0  0  0  0  0  0  0  0  0  0  # atno 10763 bound_to 10752
  153.9262  135.6790  153.4750 H   0  0  0  0  0  0  0  0  0  0  0  0  # atno 10764 bound_to 10752
  153.1148  135.4850  154.9025 H   0  0  0  0  0  0  0  0  0  0  0  0  # atno 10765 bound_to 10752
  139.9026  134.9591  156.7125 H   0  0  0  0  0  0  0  0  0  0  0  0  # atno 11005 bound_to 11000
  145.6367  139.1544  143.2939 LP  0  0  0  0  0  0  0  0  0  0  0  0  # atno 17320 bound_to 7965
  146.1830  140.6466  142.9180 LP  0  0  0  0  0  0  0  0  0  0  0  0  # atno 17321 bound_to 7965
  140.7343  143.6769  150.8034 LP  0  0  0  0  0  0  0  0  0  0  0  0  # atno 17342 bound_to 10162
  140.0370  143.5385  152.2735 LP  0  0  0  0  0  0  0  0  0  0  0  0  # atno 17343 bound_to 10162
  155.9667  130.4440  150.5443 LP  0  0  0  0  0  0  0  0  0  0  0  0  # atno 17370 bound_to 10713
  157.3319  131.0701  151.1854 LP  0  0  0  0  0  0  0  0  0  0  0  0  # atno 17371 bound_to 10713
  140.7064  133.9261  155.8057 LP  0  0  0  0  0  0  0  0  0  0  0  0  # atno 17394 bound_to 11000
  141.0333  134.0725  157.3989 LP  0  0  0  0  0  0  0  0  0  0  0  0  # atno 17395 bound_to 11000

$$$$
