AV-unprocessed.smi:112|AV-procd|sdf|1087|dock9
  -GOLD-   2262018183D 1   1.00000     0.00000
 Structure written by MMmdl.
 54 57  0  0  0  0  0  0  0  0  3 V2000
  149.7056  134.1365  156.2632 C   0  0  0  0  0  0  0  0  0  0  0  0
  149.5641  135.5489  155.7186 C   0  0  0  0  0  0  0  0  0  0  0  0
  148.3758  136.0443  155.3041 C   0  0  0  0  0  0  0  0  0  0  0  0
  148.2126  137.3239  154.8087 N   0  0  0  0  0  0  0  0  0  0  0  0
  146.8519  137.8009  154.3640 C   0  0  2  0  0  0  0  0  0  0  0  0
  145.7641  136.8047  154.7389 C   0  0  0  0  0  0  0  0  0  0  0  0
  144.7241  137.0891  153.6721 C   0  0  1  0  0  0  0  0  0  0  0  0
  143.8210  138.0815  154.1209 O   0  0  0  0  0  0  0  0  0  0  0  0
  145.5400  137.6134  152.4712 C   0  0  2  0  0  0  0  0  0  0  0  0
  145.6899  136.5652  151.3560 C   0  0  0  0  0  0  0  0  0  0  0  0
  146.1451  137.1829  150.1713 O   0  0  0  0  0  0  0  0  0  0  0  0
  146.8466  137.8942  152.9769 O   0  0  0  0  0  0  0  0  0  0  0  0
  149.3206  138.1909  154.7285 C   0  0  0  0  0  0  0  0  0  0  0  0
  149.1938  139.3484  154.3234 O   0  0  0  0  0  0  0  0  0  0  0  0
  150.5800  137.6999  155.1421 N   0  0  0  0  0  0  0  0  0  0  0  0
  151.7502  138.6052  155.0767 C   0  0  0  0  0  0  0  0  0  0  0  0
  151.5565  139.9277  155.8512 C   0  0  0  0  0  0  0  0  0  0  0  0
  150.9353  140.8456  155.3141 O   0  0  0  0  0  0  0  0  0  0  0  0
  152.0864  140.0168  157.0968 N   0  0  0  0  0  0  0  0  0  0  0  0
  152.8417  138.9269  157.7386 C   0  0  0  0  0  0  0  0  0  0  0  0
  153.2646  139.4517  159.1282 C   0  0  0  0  0  0  0  0  0  0  0  0
  152.6870  140.8356  159.1585 C   0  0  0  0  0  0  0  0  0  0  0  0
  152.7770  141.7596  160.2135 C   0  0  0  0  0  0  0  0  0  0  0  0
  152.1644  143.0288  160.0659 C   0  0  0  0  0  0  0  0  0  0  0  0
  152.2376  144.0248  161.1533 N   0  3  0  0  0  0  0  0  0  0  0  0
  152.5770  143.6443  162.2690 O   0  0  0  0  0  0  0  0  0  0  0  0
  151.9557  145.1901  160.8933 O   0  5  0  0  0  0  0  0  0  0  0  0
  151.4792  143.3283  158.8585 C   0  0  0  0  0  0  0  0  0  0  0  0
  151.3987  142.3877  157.8083 C   0  0  0  0  0  0  0  0  0  0  0  0
  152.0166  141.1296  157.9767 C   0  0  0  0  0  0  0  0  0  0  0  0
  150.7618  136.3900  155.6516 C   0  0  0  0  0  0  0  0  0  0  0  0
  151.8744  136.0086  156.0204 O   0  0  0  0  0  0  0  0  0  0  0  0
  148.7550  133.6022  156.2564 H   0  0  0  0  0  0  0  0  0  0  0  0
  150.0680  134.1589  157.2916 H   0  0  0  0  0  0  0  0  0  0  0  0
  150.4133  133.5647  155.6621 H   0  0  0  0  0  0  0  0  0  0  0  0
  147.5049  135.4077  155.3697 H   0  0  0  0  0  0  0  0  0  0  0  0
  146.6812  138.7976  154.7727 H   0  0  0  0  0  0  0  0  0  0  0  0
  146.1432  135.7879  154.6286 H   0  0  0  0  0  0  0  0  0  0  0  0
  145.4227  136.9488  155.7648 H   0  0  0  0  0  0  0  0  0  0  0  0
  144.1476  136.1948  153.4326 H   0  0  0  0  0  0  0  0  0  0  0  0
  144.0257  138.2938  155.0188 H   0  0  0  0  0  0  0  0  0  0  0  0
  145.0899  138.5240  152.0708 H   0  0  0  0  0  0  0  0  0  0  0  0
  146.3663  135.7621  151.6503 H   0  0  0  0  0  0  0  0  0  0  0  0
  144.7249  136.1102  151.1312 H   0  0  0  0  0  0  0  0  0  0  0  0
  145.5698  137.9060  149.9724 H   0  0  0  0  0  0  0  0  0  0  0  0
  152.6406  138.1001  155.4537 H   0  0  0  0  0  0  0  0  0  0  0  0
  151.9941  138.8351  154.0386 H   0  0  0  0  0  0  0  0  0  0  0  0
  152.2208  138.0361  157.8433 H   0  0  0  0  0  0  0  0  0  0  0  0
  153.7216  138.6649  157.1494 H   0  0  0  0  0  0  0  0  0  0  0  0
  152.8501  138.8465  159.9350 H   0  0  0  0  0  0  0  0  0  0  0  0
  154.3490  139.4889  159.2353 H   0  0  0  0  0  0  0  0  0  0  0  0
  153.3071  141.4921  161.1157 H   0  0  0  0  0  0  0  0  0  0  0  0
  151.0045  144.2891  158.7246 H   0  0  0  0  0  0  0  0  0  0  0  0
  150.8673  142.6553  156.9089 H   0  0  0  0  0  0  0  0  0  0  0  0
  1  2  1  0  0  0  0
  1 33  1  0  0  0  0
  1 34  1  0  0  0  0
  1 35  1  0  0  0  0
  2 31  1  0  0  0  0
  2  3  2  0  0  0  0
  3  4  1  0  0  0  0
  3 36  1  0  0  0  0
  4  5  1  0  0  0  0
  4 13  1  0  0  0  0
  5 12  1  0  0  0  0
  5  6  1  0  0  0  0
  5 37  1  0  0  0  0
  6  7  1  0  0  0  0
  6 38  1  0  0  0  0
  6 39  1  0  0  0  0
  7  8  1  0  0  0  0
  7  9  1  0  0  0  0
  7 40  1  0  0  0  0
  8 41  1  0  0  0  0
  9 10  1  0  0  0  0
  9 12  1  0  0  0  0
  9 42  1  0  0  0  0
 10 11  1  0  0  0  0
 10 43  1  0  0  0  0
 10 44  1  0  0  0  0
 11 45  1  0  0  0  0
 13 14  2  0  0  0  0
 13 15  1  0  0  0  0
 15 16  1  0  0  0  0
 15 31  1  0  0  0  0
 16 17  1  0  0  0  0
 16 46  1  0  0  0  0
 16 47  1  0  0  0  0
 17 18  2  0  0  0  0
 17 19  1  0  0  0  0
 19 30  1  0  0  0  0
 19 20  1  0  0  0  0
 20 21  1  0  0  0  0
 20 48  1  0  0  0  0
 20 49  1  0  0  0  0
 21 22  1  0  0  0  0
 21 50  1  0  0  0  0
 21 51  1  0  0  0  0
 22 30  2  0  0  0  0
 22 23  1  0  0  0  0
 23 24  2  0  0  0  0
 23 52  1  0  0  0  0
 24 25  1  0  0  0  0
 24 28  1  0  0  0  0
 25 26  2  0  0  0  0
 25 27  1  0  0  0  0
 28 29  2  0  0  0  0
 28 53  1  0  0  0  0
 29 30  1  0  0  0  0
 29 54  1  0  0  0  0
 31 32  2  0  0  0  0
M  CHG  1  25   1
M  CHG  1  27  -1
M  END
> <s_m_source_file>
AV-unprocessed.smi

> <i_m_source_file_index>
112

> <i_lp_mmshare_version>
43012

> <i_f3d_flags>
0

> <s_epik_input>
W09IXVtDSDJdW0NAQEhdKE8xKVtDQEhdKFtPSF0pW0NIMl1bQ0BIXTFuKFtjSF1jMltDSDNdKWMoPU8pbihjMj1PKVtDSDJdQyg9TylOKFtDSDJdW0NIMl0zKWMoYzM0KVtjSF1bY0hdYyhbY0hdNClbTitdKD1PKVtPLV0=

> <s_epik_cmdline>
J2VwaWtfcHl0aG9uJywgJy1waCcsICc3LjAnLCAnLXRuJywgJzgnLCAnLW1hJywgJzIwMCcsICctbWV0YWxfYmluZGluZycsICctaW1hZScsICc8aW5maWxlLm1hZT4nLCAnLW9tYWUnLCAnPG91dGZpbGUubWFlPic=

> <r_lp_tautomer_probability>
1

> <r_epik_Ionization_Penalty>
2.5696e-07

> <r_epik_Ionization_Penalty_Charging>
1.04886e-08

> <r_epik_Ionization_Penalty_Neutral>
2.46472e-07

> <r_epik_State_Penalty>
-0

> <r_epik_Charging_Adjusted_Penalty>
1.04886e-08

> <i_epik_Tot_Q>
0

> <i_epik_Tot_abs_Q>
2

> <r_epik_Metal_State_Penalty>
-0

> <b_epik_Metal_Only>
0

> <s_epik_Chemistry_Notes>
This compound contains an acetal/aminal-like group ( X-CH(R)-Y where X, Y are N, S, or O) that may be acid/base labile, releasing an aldehyde.

> <s_lp_Force_Field>
OPLS_2005

> <r_lp_Energy>
58.3709

> <b_lp_Chiralities_Consistent>
1

> <s_lp_Variant>
AV-unprocessed.smi:112-5

> <Gold.Version>
5.8.1

> <Gold.Id.Protein>
6NUR|6NUR_protein|mol2

> <Gold.PLP.Fitness>
53.9088

> <Gold.PLP.PLP>
-45.4123

> <Gold.PLP.part.hbond>
-5.0000

> <Gold.PLP.part.metal>
0.0000

> <Gold.PLP.part.buried>
-3.3595

> <Gold.PLP.part.nonpolar>
-38.4784

> <Gold.PLP.part.repulsive>
2.8490

> <Gold.PLP.ligand.clash>
0.0000

> <Gold.PLP.ligand.torsion>
0.7538

> <Gold.PLP.Chemscore.Hbond>
3.3249

> <Gold.PLP.Chemscore.CHOScore>
0.0000

> <Gold.PLP.Chemscore.Metal>
0.0000

> <Gold.Chemscore.Hbonds>
donor molecule, donor type, donor heavy atom, donor atom, acceptor molecule, acceptor atom, score
      L1  H    11    45       P1 10171  1.00
      P1  H  7954  7966       L1    11  0.51
      P1  H  7989  7998       L1    18  0.78
      P1  H 10752 10763       L1    32  1.00

> <Gold.PLP.Chemscore.Internal.Correction>
0.0293

> <Gold.Rescore>
     Score         DG    S(hbond)    S(metal)    S(lipo)     H(rot)  DE(clash)    DE(int)     intcor
      9.94     -17.12       2.55        0.00      98.60       3.29       1.87       5.32       ----

> <Gold.Chemscore.Fitness>
9.9356

> <Gold.Chemscore.DG>
-17.1231

> <Gold.Chemscore.ZeroCoef>
-5.4800

> <Gold.Chemscore.Hbond>
2.5547

> <Gold.Chemscore.Metal>
0.0000

> <Gold.Chemscore.Lipo>
98.6050

> <Gold.Chemscore.Internal_Hbond>
0.0000

> <Gold.Chemscore.DEClash>
1.8674

> <Gold.Chemscore.DEInternal>
5.3201

> <Gold.Chemscore.Rot>
3.2916

> <Gold.Chemscore.Internal.Correction>
   9.000000E+99

> <Gold.Chemscore.Hbonds>
donor molecule, donor type, donor heavy atom, donor atom, acceptor molecule, acceptor atom, score
      L1  H    11    45       P1 10171  0.95
      P1  H  7954  7966       L1    11  0.34
      P1  H  7989  7998       L1    18  0.35
      P1  H 10752 10763       L1    32  0.97

> <Gold.Chemscore.Hbond.Weighted>
-8.5328

> <Gold.Chemscore.Metal.Weighted>
-0.0000

> <Gold.Chemscore.Lipo.Weighted>
-11.5368

> <Gold.Chemscore.Internal_Hbond.Weighted>
0.0000

> <Gold.Chemscore.DEClash.Weighted>
1.8674

> <Gold.Chemscore.DEInternal.Weighted>
5.3201

> <Gold.Chemscore.Rot.Weighted>
8.4265

> <Gold.Chemscore.Internal.Correction.Weighted>
   9.000000E+99

> <Gold.Protein.RotatedTorsions>
[ 6907 6896 6895 6894 ] final  -13.58 input  -60.11 | X-H torsion
[ 7974 7965 7964 7962 ] final  -80.00 input  175.53 | X-H torsion
[ 8008 7997 7996 7995 ] final -160.56 input   59.86 | X-H torsion
[ 10167 10162 10161 10158 ] final   67.20 input  -65.29 | X-H torsion
[ 10718 10713 10712 10709 ] final  -96.23 input   66.30 | X-H torsion
[ 10763 10752 10751 10750 ] final   74.55 input  -60.55 | X-H torsion
[ 11005 11000 10999 10996 ] final -164.91 input  -57.11 | X-H torsion

> <Gold.Protein.ActiveResidues>
 VAL166  LYS551  ARG553  GLY616  TRP617  ASP618  TYR619  PRO620  LYS621  CYS622 
 ASP623  PHE694  ASN695  SER759  ASP760  ASP761  ALA762  ILE779  LEU786  VAL792 
 PHE793  MET794  SER795  GLU796  ALA797  LYS798  CYS799  TRP800  GLU811  SER814 

> <Gold.Protein.RotatedAtoms>
  151.3527  135.0888  159.9408 H   0  0  0  0  0  0  0  0  0  0  0  0  # atno 6907 bound_to 6896
  152.5183  133.9336  159.7603 H   0  0  0  0  0  0  0  0  0  0  0  0  # atno 6908 bound_to 6896
  150.9715  133.6285  159.2766 H   0  0  0  0  0  0  0  0  0  0  0  0  # atno 6909 bound_to 6896
  145.5657  140.9474  143.1423 H   0  0  0  0  0  0  0  0  0  0  0  0  # atno 7974 bound_to 7965
  155.7793  140.0863  157.2067 H   0  0  0  0  0  0  0  0  0  0  0  0  # atno 8008 bound_to 7997
  154.3991  140.1510  156.3091 H   0  0  0  0  0  0  0  0  0  0  0  0  # atno 8009 bound_to 7997
  155.8669  140.3427  155.5797 H   0  0  0  0  0  0  0  0  0  0  0  0  # atno 8010 bound_to 7997
  140.0922  144.4978  150.7091 H   0  0  0  0  0  0  0  0  0  0  0  0  # atno 10167 bound_to 10162
  156.0058  130.5143  150.6195 H   0  0  0  0  0  0  0  0  0  0  0  0  # atno 10718 bound_to 10713
  153.0594  135.5021  154.8058 H   0  0  0  0  0  0  0  0  0  0  0  0  # atno 10763 bound_to 10752
  154.6859  135.2976  154.9550 H   0  0  0  0  0  0  0  0  0  0  0  0  # atno 10764 bound_to 10752
  154.0321  135.6728  153.4834 H   0  0  0  0  0  0  0  0  0  0  0  0  # atno 10765 bound_to 10752
  140.5816  134.5136  157.5179 H   0  0  0  0  0  0  0  0  0  0  0  0  # atno 11005 bound_to 11000
  144.7461  139.7316  143.7291 LP  0  0  0  0  0  0  0  0  0  0  0  0  # atno 17320 bound_to 7965
  146.1819  139.5016  142.9861 LP  0  0  0  0  0  0  0  0  0  0  0  0  # atno 17321 bound_to 7965
  140.7023  143.2443  151.4829 LP  0  0  0  0  0  0  0  0  0  0  0  0  # atno 17342 bound_to 10162
  139.5718  144.1910  152.1847 LP  0  0  0  0  0  0  0  0  0  0  0  0  # atno 17343 bound_to 10162
  157.4013  131.0810  151.1306 LP  0  0  0  0  0  0  0  0  0  0  0  0  # atno 17370 bound_to 10713
  157.1966  130.6376  149.5723 LP  0  0  0  0  0  0  0  0  0  0  0  0  # atno 17371 bound_to 10713
  139.9315  134.7955  156.0919 LP  0  0  0  0  0  0  0  0  0  0  0  0  # atno 17394 bound_to 11000
  141.0993  133.6683  156.2716 LP  0  0  0  0  0  0  0  0  0  0  0  0  # atno 17395 bound_to 11000

$$$$
