AV-unprocessed.smi:749|AV-procd|sdf|3586|dock2
  -GOLD-   22720 0583D 1   1.00000     0.00000
 Structure written by MMmdl.
 42 43  0  0  0  0  0  0  0  0  2 V2000
  153.4992  142.1102  160.6727 C   0  0  0  0  0  0  0  0  0  0  0  0
  152.6418  141.9216  159.5012 N   0  0  0  0  0  0  0  0  0  0  0  0
  152.6153  140.5502  158.9695 C   0  0  0  0  0  0  0  0  0  0  0  0
  152.0254  140.4354  157.5536 C   0  0  1  0  0  0  0  0  0  0  0  0
  151.7612  139.0337  157.2431 N   0  0  0  0  0  0  0  0  0  0  0  0
  152.1243  138.3790  156.1226 C   0  0  0  0  0  0  0  0  0  0  0  0
  152.7384  138.9899  155.2485 O   0  0  0  0  0  0  0  0  0  0  0  0
  151.7881  137.0657  156.0172 N   0  5  0  0  0  0  0  0  0  0  0  0
  150.7966  136.5090  156.7347 C   0  0  0  0  0  0  0  0  0  0  0  0
  149.8059  135.6198  156.2373 C   0  0  0  0  0  0  0  0  0  0  0  0
  149.0467  135.3395  157.3403 C   0  0  0  0  0  0  0  0  0  0  0  0
  147.8435  134.4700  157.5743 C   0  0  0  0  0  0  0  0  0  0  0  0
  148.1592  132.9976  157.2430 C   0  0  0  0  0  0  0  0  0  0  0  0
  146.6778  134.9312  156.6794 C   0  0  0  0  0  0  0  0  0  0  0  0
  147.4133  134.5539  159.0508 C   0  0  0  0  0  0  0  0  0  0  0  0
  149.5325  136.0152  158.4189 O   0  0  0  0  0  0  0  0  0  0  0  0
  150.6457  136.7646  158.0227 N   0  0  0  0  0  0  0  0  0  0  0  0
  150.7406  141.2648  157.4639 C   0  0  0  0  0  0  0  0  0  0  0  0
  151.0321  142.7380  157.7735 C   0  0  0  0  0  0  0  0  0  0  0  0
  151.8946  142.9482  159.0277 C   0  0  0  0  0  0  0  0  0  0  0  0
  151.9009  144.0652  159.5462 O   0  0  0  0  0  0  0  0  0  0  0  0
  154.2998  142.8162  160.4493 H   0  0  0  0  0  0  0  0  0  0  0  0
  153.9612  141.1777  160.9996 H   0  0  0  0  0  0  0  0  0  0  0  0
  152.9255  142.4991  161.5152 H   0  0  0  0  0  0  0  0  0  0  0  0
  153.6232  140.1324  158.9694 H   0  0  0  0  0  0  0  0  0  0  0  0
  152.0287  139.9455  159.6632 H   0  0  0  0  0  0  0  0  0  0  0  0
  152.7556  140.8316  156.8450 H   0  0  0  0  0  0  0  0  0  0  0  0
  151.2540  138.5064  157.9387 H   0  0  0  0  0  0  0  0  0  0  0  0
  149.6804  135.2442  155.2328 H   0  0  0  0  0  0  0  0  0  0  0  0
  147.2926  132.3568  157.4097 H   0  0  0  0  0  0  0  0  0  0  0  0
  148.9715  132.6152  157.8626 H   0  0  0  0  0  0  0  0  0  0  0  0
  148.4568  132.8793  156.2002 H   0  0  0  0  0  0  0  0  0  0  0  0
  146.9462  134.8805  155.6237 H   0  0  0  0  0  0  0  0  0  0  0  0
  146.3913  135.9610  156.8958 H   0  0  0  0  0  0  0  0  0  0  0  0
  145.7935  134.3097  156.8241 H   0  0  0  0  0  0  0  0  0  0  0  0
  146.5472  133.9220  159.2505 H   0  0  0  0  0  0  0  0  0  0  0  0
  147.1443  135.5730  159.3315 H   0  0  0  0  0  0  0  0  0  0  0  0
  148.2161  134.2322  159.7154 H   0  0  0  0  0  0  0  0  0  0  0  0
  150.3033  141.1827  156.4681 H   0  0  0  0  0  0  0  0  0  0  0  0
  149.9956  140.8795  158.1618 H   0  0  0  0  0  0  0  0  0  0  0  0
  151.5609  143.1867  156.9318 H   0  0  0  0  0  0  0  0  0  0  0  0
  150.0956  143.2865  157.8803 H   0  0  0  0  0  0  0  0  0  0  0  0
  1  2  1  0  0  0  0
  1 22  1  0  0  0  0
  1 23  1  0  0  0  0
  1 24  1  0  0  0  0
  2 20  1  0  0  0  0
  2  3  1  0  0  0  0
  3  4  1  0  0  0  0
  3 25  1  0  0  0  0
  3 26  1  0  0  0  0
  4  5  1  0  0  0  0
  4 18  1  0  0  0  0
  4 27  1  0  0  0  0
  5  6  1  0  0  0  0
  5 28  1  0  0  0  0
  6  7  2  0  0  0  0
  6  8  1  0  0  0  0
  8  9  1  0  0  0  0
  9 17  2  0  0  0  0
  9 10  1  0  0  0  0
 10 11  2  0  0  0  0
 10 29  1  0  0  0  0
 11 12  1  0  0  0  0
 11 16  1  0  0  0  0
 12 13  1  0  0  0  0
 12 14  1  0  0  0  0
 12 15  1  0  0  0  0
 13 30  1  0  0  0  0
 13 31  1  0  0  0  0
 13 32  1  0  0  0  0
 14 33  1  0  0  0  0
 14 34  1  0  0  0  0
 14 35  1  0  0  0  0
 15 36  1  0  0  0  0
 15 37  1  0  0  0  0
 15 38  1  0  0  0  0
 16 17  1  0  0  0  0
 18 19  1  0  0  0  0
 18 39  1  0  0  0  0
 18 40  1  0  0  0  0
 19 20  1  0  0  0  0
 19 41  1  0  0  0  0
 19 42  1  0  0  0  0
 20 21  2  0  0  0  0
M  CHG  1   8  -1
M  END
> <s_m_source_file>
AV-unprocessed.smi

> <i_m_source_file_index>
749

> <i_lp_mmshare_version>
43012

> <i_f3d_flags>
0

> <s_epik_input>
Tz1DMVtDSDJdW0NIMl1bQ0BASF0oW0NIMl1OMVtDSDNdKVtOSF1DKD1PKVtOSF1jMltjSF1jKG9uMilDKFtDSDNdKShbQ0gzXSlbQ0gzXQ==

> <s_epik_cmdline>
J2VwaWtfcHl0aG9uJywgJy1waCcsICc3LjAnLCAnLXRuJywgJzgnLCAnLW1hJywgJzIwMCcsICctbWV0YWxfYmluZGluZycsICctaW1hZScsICc8aW5maWxlLm1hZT4nLCAnLW9tYWUnLCAnPG91dGZpbGUubWFlPic=

> <r_lp_tautomer_probability>
1

> <r_epik_Ionization_Penalty>
6.47858

> <r_epik_Ionization_Penalty_Charging>
6.47844

> <r_epik_Ionization_Penalty_Neutral>
0.000138814

> <r_epik_State_Penalty>
6.47843

> <r_epik_Charging_Adjusted_Penalty>
12.9569

> <i_epik_Tot_Q>
-1

> <i_epik_Tot_abs_Q>
1

> <r_epik_Metal_State_Penalty>
2.40644

> <b_epik_Metal_Only>
1

> <s_lp_Force_Field>
OPLS_2005

> <r_lp_Energy>
10.0232

> <b_lp_Chiralities_Consistent>
1

> <s_lp_Variant>
AV-unprocessed.smi:749-3

> <Gold.Version>
5.8.1

> <Gold.Id.Protein>
6NUR|6NUR_protein|mol2

> <Gold.PLP.Fitness>
39.5572

> <Gold.PLP.PLP>
-28.6801

> <Gold.PLP.part.hbond>
-3.4625

> <Gold.PLP.part.metal>
0.0000

> <Gold.PLP.part.buried>
-5.1946

> <Gold.PLP.part.nonpolar>
-20.5426

> <Gold.PLP.part.repulsive>
0.1034

> <Gold.PLP.ligand.clash>
0.0000

> <Gold.PLP.ligand.torsion>
0.5841

> <Gold.PLP.Chemscore.Hbond>
4.0000

> <Gold.PLP.Chemscore.CHOScore>
0.0000

> <Gold.PLP.Chemscore.Metal>
0.0000

> <Gold.Chemscore.Hbonds>
donor molecule, donor type, donor heavy atom, donor atom, acceptor molecule, acceptor atom, score
      P1  H  6896  6909       L1    16  0.48
      P1  H  7997  8008       L1     7  0.54
      P1  H 10752 10765       L1     8  0.75

> <Gold.PLP.Chemscore.Internal.Correction>
0.0452

> <Gold.Rescore>
     Score         DG    S(hbond)    S(metal)    S(lipo)     H(rot)  DE(clash)    DE(int)     intcor
     13.36     -15.62       2.09        0.00      53.74       1.22       0.19       2.08       ----

> <Gold.Chemscore.Fitness>
13.3592

> <Gold.Chemscore.DG>
-15.6215

> <Gold.Chemscore.ZeroCoef>
-5.4800

> <Gold.Chemscore.Hbond>
2.0890

> <Gold.Chemscore.Metal>
0.0000

> <Gold.Chemscore.Lipo>
53.7364

> <Gold.Chemscore.Internal_Hbond>
0.0000

> <Gold.Chemscore.DEClash>
0.1865

> <Gold.Chemscore.DEInternal>
2.0758

> <Gold.Chemscore.Rot>
1.2198

> <Gold.Chemscore.Internal.Correction>
   9.000000E+99

> <Gold.Chemscore.Hbonds>
donor molecule, donor type, donor heavy atom, donor atom, acceptor molecule, acceptor atom, score
      P1  H  6896  6909       L1    16  0.03
      P1  H  7997  8008       L1     7  0.52
      P1  H 10752 10765       L1     8  0.31

> <Gold.Chemscore.Hbond.Weighted>
-6.9771

> <Gold.Chemscore.Metal.Weighted>
-0.0000

> <Gold.Chemscore.Lipo.Weighted>
-6.2872

> <Gold.Chemscore.Internal_Hbond.Weighted>
0.0000

> <Gold.Chemscore.DEClash.Weighted>
0.1865

> <Gold.Chemscore.DEInternal.Weighted>
2.0758

> <Gold.Chemscore.Rot.Weighted>
3.1228

> <Gold.Chemscore.Internal.Correction.Weighted>
   9.000000E+99

> <Gold.Protein.RotatedTorsions>
[ 6907 6896 6895 6894 ] final   53.70 input  -60.11 | X-H torsion
[ 7974 7965 7964 7962 ] final  179.84 input  175.53 | X-H torsion
[ 8008 7997 7996 7995 ] final   -9.30 input   59.86 | X-H torsion
[ 10167 10162 10161 10158 ] final   51.13 input  -65.29 | X-H torsion
[ 10718 10713 10712 10709 ] final  132.49 input   66.30 | X-H torsion
[ 10763 10752 10751 10750 ] final -153.45 input  -60.55 | X-H torsion
[ 11005 11000 10999 10996 ] final  -92.14 input  -57.11 | X-H torsion

> <Gold.Protein.ActiveResidues>
 VAL166  LYS551  ARG553  GLY616  TRP617  ASP618  TYR619  PRO620  LYS621  CYS622 
 ASP623  PHE694  ASN695  SER759  ASP760  ASP761  ALA762  ILE779  LEU786  VAL792 
 PHE793  MET794  SER795  GLU796  ALA797  LYS798  CYS799  TRP800  GLU811  SER814 

> <Gold.Protein.RotatedAtoms>
  152.3364  134.7193  160.0275 H   0  0  0  0  0  0  0  0  0  0  0  0  # atno 6907 bound_to 6896
  151.7592  133.3327  159.3421 H   0  0  0  0  0  0  0  0  0  0  0  0  # atno 6908 bound_to 6896
  150.7453  134.6053  159.6102 H   0  0  0  0  0  0  0  0  0  0  0  0  # atno 6909 bound_to 6896
  144.7142  140.0609  143.6432 H   0  0  0  0  0  0  0  0  0  0  0  0  # atno 7974 bound_to 7965
  154.5660  140.2358  155.8263 H   0  0  0  0  0  0  0  0  0  0  0  0  # atno 8008 bound_to 7997
  156.2068  140.3037  155.9604 H   0  0  0  0  0  0  0  0  0  0  0  0  # atno 8009 bound_to 7997
  155.2800  140.0422  157.3005 H   0  0  0  0  0  0  0  0  0  0  0  0  # atno 8010 bound_to 7997
  140.2651  144.3329  150.6306 H   0  0  0  0  0  0  0  0  0  0  0  0  # atno 10167 bound_to 10162
  157.4866  131.1088  150.9612 H   0  0  0  0  0  0  0  0  0  0  0  0  # atno 10718 bound_to 10713
  154.7926  135.3212  154.7741 H   0  0  0  0  0  0  0  0  0  0  0  0  # atno 10763 bound_to 10752
  153.8426  135.6869  153.4805 H   0  0  0  0  0  0  0  0  0  0  0  0  # atno 10764 bound_to 10752
  153.1603  135.4663  154.9704 H   0  0  0  0  0  0  0  0  0  0  0  0  # atno 10765 bound_to 10752
  141.1529  133.7801  156.9978 H   0  0  0  0  0  0  0  0  0  0  0  0  # atno 11005 bound_to 11000
  145.9865  139.2981  143.1011 LP  0  0  0  0  0  0  0  0  0  0  0  0  # atno 17320 bound_to 7965
  145.8952  140.9278  143.0531 LP  0  0  0  0  0  0  0  0  0  0  0  0  # atno 17321 bound_to 7965
  140.5934  143.2167  151.7209 LP  0  0  0  0  0  0  0  0  0  0  0  0  # atno 17342 bound_to 10162
  139.5005  144.3904  152.0286 LP  0  0  0  0  0  0  0  0  0  0  0  0  # atno 17343 bound_to 10162
  157.0328  130.5718  149.5345 LP  0  0  0  0  0  0  0  0  0  0  0  0  # atno 17370 bound_to 10713
  156.0150  130.5244  150.8106 LP  0  0  0  0  0  0  0  0  0  0  0  0  # atno 17371 bound_to 10713
  140.0960  134.9564  157.1850 LP  0  0  0  0  0  0  0  0  0  0  0  0  # atno 17394 bound_to 11000
  140.3382  134.2734  155.7216 LP  0  0  0  0  0  0  0  0  0  0  0  0  # atno 17395 bound_to 11000

$$$$
