AV-unprocessed.smi:997|AV-procd|sdf|4348|dock1
  -GOLD-   22720 2243D 1   1.00000     0.00000
 Structure written by MMmdl.
 33 35  0  0  0  0  0  0  0  0  2 V2000
  150.5437  137.0518  157.2343 C   0  0  0  0  0  0  0  0  0  0  0  0
  150.7404  138.5366  157.1699 C   0  0  0  0  0  0  0  0  0  0  0  0
  150.1487  139.2187  156.2157 N   0  0  0  0  0  0  0  0  0  0  0  0
  150.4602  140.5218  156.4147 N   0  0  0  0  0  0  0  0  0  0  0  0
  149.9358  141.5154  155.4958 C   0  0  0  0  0  0  0  0  0  0  0  0
  148.9343  140.8951  154.5128 C   0  0  0  0  0  0  0  0  0  0  0  0
  149.2384  141.3040  153.1969 O   0  0  0  0  0  0  0  0  0  0  0  0
  151.2772  140.7127  157.5137 C   0  0  0  0  0  0  0  0  0  0  0  0
  151.7581  141.8989  157.9833 N   0  0  0  0  0  0  0  0  0  0  0  0
  152.5249  141.7986  159.0881 C   0  0  0  0  0  0  0  0  0  0  0  0
  153.0533  143.1004  159.6057 C   0  0  0  0  0  0  0  0  0  0  0  0
  152.1278  144.1563  160.1692 C   0  0  0  0  0  0  0  0  0  0  0  0
  152.8191  144.3881  158.8489 C   0  0  0  0  0  0  0  0  0  0  0  0
  152.8422  140.5756  159.7135 C   0  0  0  0  0  0  0  0  0  0  0  0
  152.3436  139.3573  159.1919 C   0  0  0  0  0  0  0  0  0  0  0  0
  152.7281  138.0687  159.8699 C   0  0  0  0  0  0  0  0  0  0  0  0
  153.6002  138.0746  160.7636 O   0  0  0  0  0  0  0  0  0  0  0  0
  152.1348  137.0188  159.5355 O   0  5  0  0  0  0  0  0  0  0  0  0
  151.5030  139.4084  158.0392 C   0  0  0  0  0  0  0  0  0  0  0  0
  150.2502  136.7346  158.2350 H   0  0  0  0  0  0  0  0  0  0  0  0
  151.4550  136.5205  156.9604 H   0  0  0  0  0  0  0  0  0  0  0  0
  149.7605  136.7179  156.5527 H   0  0  0  0  0  0  0  0  0  0  0  0
  149.4647  142.3165  156.0677 H   0  0  0  0  0  0  0  0  0  0  0  0
  150.7714  141.9639  154.9571 H   0  0  0  0  0  0  0  0  0  0  0  0
  148.9698  139.8063  154.5633 H   0  0  0  0  0  0  0  0  0  0  0  0
  147.9161  141.2014  154.7549 H   0  0  0  0  0  0  0  0  0  0  0  0
  149.2266  140.5435  152.6360 H   0  0  0  0  0  0  0  0  0  0  0  0
  154.0188  142.9653  160.0895 H   0  0  0  0  0  0  0  0  0  0  0  0
  151.0558  143.9703  160.1417 H   0  0  0  0  0  0  0  0  0  0  0  0
  152.4802  144.7400  161.0169 H   0  0  0  0  0  0  0  0  0  0  0  0
  153.6215  145.1227  158.8361 H   0  0  0  0  0  0  0  0  0  0  0  0
  152.2067  144.3465  157.9503 H   0  0  0  0  0  0  0  0  0  0  0  0
  153.4812  140.5776  160.5849 H   0  0  0  0  0  0  0  0  0  0  0  0
  1  2  1  0  0  0  0
  1 20  1  0  0  0  0
  1 21  1  0  0  0  0
  1 22  1  0  0  0  0
  2 19  1  0  0  0  0
  2  3  2  0  0  0  0
  3  4  1  0  0  0  0
  4  5  1  0  0  0  0
  4  8  1  0  0  0  0
  5  6  1  0  0  0  0
  5 23  1  0  0  0  0
  5 24  1  0  0  0  0
  6  7  1  0  0  0  0
  6 25  1  0  0  0  0
  6 26  1  0  0  0  0
  7 27  1  0  0  0  0
  8 19  1  0  0  0  0
  8  9  2  0  0  0  0
  9 10  1  0  0  0  0
 10 11  1  0  0  0  0
 10 14  2  0  0  0  0
 11 13  1  0  0  0  0
 11 12  1  0  0  0  0
 11 28  1  0  0  0  0
 12 13  1  0  0  0  0
 12 29  1  0  0  0  0
 12 30  1  0  0  0  0
 13 31  1  0  0  0  0
 13 32  1  0  0  0  0
 14 15  1  0  0  0  0
 14 33  1  0  0  0  0
 15 16  1  0  0  0  0
 15 19  2  0  0  0  0
 16 17  2  0  0  0  0
 16 18  1  0  0  0  0
M  CHG  1  18  -1
M  END
> <s_m_source_file>
AV-unprocessed.smi

> <i_m_source_file_index>
997

> <i_lp_mmshare_version>
43012

> <i_f3d_flags>
0

> <s_epik_input>
W09IXVtDSDJdW0NIMl1uMW5jKFtDSDNdKWMoYzEyKWMoQyg9TylbT0hdKVtjSF1jKG4yKVtDSF0zW0NIMl1bQ0gyXTM=

> <s_epik_cmdline>
J2VwaWtfcHl0aG9uJywgJy1waCcsICc3LjAnLCAnLXRuJywgJzgnLCAnLW1hJywgJzIwMCcsICctbWV0YWxfYmluZGluZycsICctaW1hZScsICc8aW5maWxlLm1hZT4nLCAnLW9tYWUnLCAnPG91dGZpbGUubWFlPic=

> <r_epik_Ionization_Penalty>
0.00209497

> <r_epik_Ionization_Penalty_Charging>
0.0019185

> <r_epik_Ionization_Penalty_Neutral>
0.000176473

> <r_epik_State_Penalty>
0.00130684

> <r_epik_Charging_Adjusted_Penalty>
0.00322534

> <i_epik_Tot_Q>
-1

> <i_epik_Tot_abs_Q>
1

> <r_epik_Metal_State_Penalty>
-0

> <b_epik_Metal_Only>
0

> <s_lp_Force_Field>
OPLS_2005

> <r_lp_Energy>
10.3232

> <b_lp_Chiralities_Consistent>
1

> <s_lp_Variant>
AV-unprocessed.smi:997-1

> <Gold.Version>
5.8.1

> <Gold.Id.Protein>
6NUR|6NUR_protein|mol2

> <Gold.PLP.Fitness>
47.0651

> <Gold.PLP.PLP>
-36.3644

> <Gold.PLP.part.hbond>
-3.5998

> <Gold.PLP.part.metal>
0.0000

> <Gold.PLP.part.buried>
-4.9862

> <Gold.PLP.part.nonpolar>
-27.8426

> <Gold.PLP.part.repulsive>
0.0147

> <Gold.PLP.ligand.clash>
0.0000

> <Gold.PLP.ligand.torsion>
0.4938

> <Gold.PLP.Chemscore.Hbond>
3.8496

> <Gold.PLP.Chemscore.CHOScore>
0.0000

> <Gold.PLP.Chemscore.Metal>
0.0000

> <Gold.Chemscore.Hbonds>
donor molecule, donor type, donor heavy atom, donor atom, acceptor molecule, acceptor atom, score
      L1  H     7    27       P1  7957  0.83
      P1  H  6896  6907       L1    18  2.00
      P1  H  8011  8017       L1     7  0.96

> <Gold.PLP.Chemscore.Internal.Correction>
0.1393

> <Gold.Rescore>
     Score         DG    S(hbond)    S(metal)    S(lipo)     H(rot)  DE(clash)    DE(int)     intcor
     16.89     -18.80       2.44        0.00      88.71       2.04       0.00       1.90       ----

> <Gold.Chemscore.Fitness>
16.8934

> <Gold.Chemscore.DG>
-18.7955

> <Gold.Chemscore.ZeroCoef>
-5.4800

> <Gold.Chemscore.Hbond>
2.4404

> <Gold.Chemscore.Metal>
0.0000

> <Gold.Chemscore.Lipo>
88.7149

> <Gold.Chemscore.Internal_Hbond>
0.0000

> <Gold.Chemscore.DEClash>
0.0000

> <Gold.Chemscore.DEInternal>
1.9022

> <Gold.Chemscore.Rot>
2.0372

> <Gold.Chemscore.Internal.Correction>
   9.000000E+99

> <Gold.Chemscore.Hbonds>
donor molecule, donor type, donor heavy atom, donor atom, acceptor molecule, acceptor atom, score
      L1  H     7    27       P1  7957  0.82
      P1  H  6896  6907       L1    18  0.98
      P1  H  8011  8017       L1     7  0.44

> <Gold.Chemscore.Hbond.Weighted>
-8.1511

> <Gold.Chemscore.Metal.Weighted>
-0.0000

> <Gold.Chemscore.Lipo.Weighted>
-10.3796

> <Gold.Chemscore.Internal_Hbond.Weighted>
0.0000

> <Gold.Chemscore.DEClash.Weighted>
0.0000

> <Gold.Chemscore.DEInternal.Weighted>
1.9022

> <Gold.Chemscore.Rot.Weighted>
5.2152

> <Gold.Chemscore.Internal.Correction.Weighted>
   9.000000E+99

> <Gold.Protein.RotatedTorsions>
[ 6907 6896 6895 6894 ] final   10.64 input  -60.11 | X-H torsion
[ 7974 7965 7964 7962 ] final -106.12 input  175.53 | X-H torsion
[ 8008 7997 7996 7995 ] final -109.15 input   59.86 | X-H torsion
[ 10167 10162 10161 10158 ] final  176.30 input  -65.29 | X-H torsion
[ 10718 10713 10712 10709 ] final  -95.29 input   66.30 | X-H torsion
[ 10763 10752 10751 10750 ] final  -10.50 input  -60.55 | X-H torsion
[ 11005 11000 10999 10996 ] final -134.56 input  -57.11 | X-H torsion

> <Gold.Protein.ActiveResidues>
 VAL166  LYS551  ARG553  GLY616  TRP617  ASP618  TYR619  PRO620  LYS621  CYS622 
 ASP623  PHE694  ASN695  SER759  ASP760  ASP761  ALA762  ILE779  LEU786  VAL792 
 PHE793  MET794  SER795  GLU796  ALA797  LYS798  CYS799  TRP800  GLU811  SER814 

> <Gold.Protein.RotatedAtoms>
  151.7415  135.0853  160.0316 H   0  0  0  0  0  0  0  0  0  0  0  0  # atno 6907 bound_to 6896
  152.3476  133.6137  159.5930 H   0  0  0  0  0  0  0  0  0  0  0  0  # atno 6908 bound_to 6896
  150.7519  133.9540  159.3536 H   0  0  0  0  0  0  0  0  0  0  0  0  # atno 6909 bound_to 6896
  145.2219  140.9137  143.3254 H   0  0  0  0  0  0  0  0  0  0  0  0  # atno 7974 bound_to 7965
  154.9551  140.0400  157.2163 H   0  0  0  0  0  0  0  0  0  0  0  0  # atno 8008 bound_to 7997
  154.7942  140.2840  155.5947 H   0  0  0  0  0  0  0  0  0  0  0  0  # atno 8009 bound_to 7997
  156.2953  140.2567  156.2796 H   0  0  0  0  0  0  0  0  0  0  0  0  # atno 8010 bound_to 7997
  139.5209  144.2931  152.0446 H   0  0  0  0  0  0  0  0  0  0  0  0  # atno 10167 bound_to 10162
  156.0041  130.5103  150.6055 H   0  0  0  0  0  0  0  0  0  0  0  0  # atno 10718 bound_to 10713
  153.4701  135.7016  153.5999 H   0  0  0  0  0  0  0  0  0  0  0  0  # atno 10763 bound_to 10752
  153.4256  135.3815  155.2139 H   0  0  0  0  0  0  0  0  0  0  0  0  # atno 10764 bound_to 10752
  154.8725  135.3938  154.4137 H   0  0  0  0  0  0  0  0  0  0  0  0  # atno 10765 bound_to 10752
  140.8979  134.1728  157.4481 H   0  0  0  0  0  0  0  0  0  0  0  0  # atno 11005 bound_to 11000
  144.9757  139.3834  143.6287 LP  0  0  0  0  0  0  0  0  0  0  0  0  # atno 17320 bound_to 7965
  146.3374  139.8876  142.8814 LP  0  0  0  0  0  0  0  0  0  0  0  0  # atno 17321 bound_to 7965
  140.2382  144.4297  150.6271 LP  0  0  0  0  0  0  0  0  0  0  0  0  # atno 17342 bound_to 10162
  140.6309  143.2187  151.6497 LP  0  0  0  0  0  0  0  0  0  0  0  0  # atno 17343 bound_to 10162
  157.3896  131.0793  151.1405 LP  0  0  0  0  0  0  0  0  0  0  0  0  # atno 17370 bound_to 10713
  157.2101  130.6434  149.5771 LP  0  0  0  0  0  0  0  0  0  0  0  0  # atno 17371 bound_to 10713
  139.8738  134.9886  156.5419 LP  0  0  0  0  0  0  0  0  0  0  0  0  # atno 17394 bound_to 11000
  140.8266  133.8311  155.8945 LP  0  0  0  0  0  0  0  0  0  0  0  0  # atno 17395 bound_to 11000

$$$$
