AV-unprocessed.smi:1587|AV-procd|sdf|6388|dock10
  -GOLD-   22720 7 23D 1   1.00000     0.00000
 Structure written by MMmdl.
 37 38  0  0  0  0  0  0  0  0  2 V2000
  146.6834  139.5180  153.9131 O   0  0  0  0  0  0  0  0  0  0  0  0
  147.4521  138.7163  153.3813 C   0  0  0  0  0  0  0  0  0  0  0  0
  147.0441  137.7586  152.5359 N   0  0  0  0  0  0  0  0  0  0  0  0
  145.6592  137.5423  152.1329 C   0  0  0  0  0  0  0  0  0  0  0  0
  145.5381  136.3799  151.1284 C   0  0  0  0  0  0  0  0  0  0  0  0
  146.1816  135.1367  151.6209 N   0  3  0  0  0  0  0  0  0  0  0  0
  145.8923  134.8816  153.0525 C   0  0  0  0  0  0  0  0  0  0  0  0
  146.6143  133.6109  153.5312 C   0  0  0  0  0  0  0  0  0  0  0  0
  146.2228  132.5079  152.7241 O   0  0  0  0  0  0  0  0  0  0  0  0
  146.5740  132.6973  151.3593 C   0  0  0  0  0  0  0  0  0  0  0  0
  145.8548  133.9394  150.8064 C   0  0  0  0  0  0  0  0  0  0  0  0
  148.7841  138.6755  153.5622 N   0  0  0  0  0  0  0  0  0  0  0  0
  149.5832  139.5133  154.3853 C   0  0  0  0  0  0  0  0  0  0  0  0
  150.8564  138.9942  154.7120 C   0  0  0  0  0  0  0  0  0  0  0  0
  151.7241  139.7482  155.5260 C   0  0  0  0  0  0  0  0  0  0  0  0
  151.2954  141.0035  155.9927 C   0  0  0  0  0  0  0  0  0  0  0  0
  150.0129  141.4466  155.6208 C   0  0  0  0  0  0  0  0  0  0  0  0
  149.1797  140.7257  154.8412 N   0  0  0  0  0  0  0  0  0  0  0  0
  147.7387  137.1414  152.1406 H   0  0  0  0  0  0  0  0  0  0  0  0
  145.0529  137.3678  153.0222 H   0  0  0  0  0  0  0  0  0  0  0  0
  145.2897  138.4634  151.6814 H   0  0  0  0  0  0  0  0  0  0  0  0
  144.4772  136.1901  150.9582 H   0  0  0  0  0  0  0  0  0  0  0  0
  145.9607  136.6489  150.1591 H   0  0  0  0  0  0  0  0  0  0  0  0
  146.2142  135.7326  153.6543 H   0  0  0  0  0  0  0  0  0  0  0  0
  144.8156  134.7759  153.1958 H   0  0  0  0  0  0  0  0  0  0  0  0
  147.6973  133.7394  153.4939 H   0  0  0  0  0  0  0  0  0  0  0  0
  146.3543  133.3995  154.5685 H   0  0  0  0  0  0  0  0  0  0  0  0
  147.6562  132.7961  151.2593 H   0  0  0  0  0  0  0  0  0  0  0  0
  146.2819  131.8119  150.7941 H   0  0  0  0  0  0  0  0  0  0  0  0
  144.7759  133.7757  150.8123 H   0  0  0  0  0  0  0  0  0  0  0  0
  146.1483  134.0903  149.7682 H   0  0  0  0  0  0  0  0  0  0  0  0
  149.2860  137.9624  153.0541 H   0  0  0  0  0  0  0  0  0  0  0  0
  151.1706  138.0280  154.3449 H   0  0  0  0  0  0  0  0  0  0  0  0
  152.7010  139.3690  155.7870 H   0  0  0  0  0  0  0  0  0  0  0  0
  151.9323  141.6107  156.6187 H   0  0  0  0  0  0  0  0  0  0  0  0
  149.6454  142.4046  155.9581 H   0  0  0  0  0  0  0  0  0  0  0  0
  147.1794  135.2794  151.5543 H   0  0  0  0  0  0  0  0  0  0  0  0
  1  2  2  0  0  0  0
  2  3  1  0  0  0  0
  2 12  1  0  0  0  0
  3  4  1  0  0  0  0
  3 19  1  0  0  0  0
  4  5  1  0  0  0  0
  4 20  1  0  0  0  0
  4 21  1  0  0  0  0
  5  6  1  0  0  0  0
  5 22  1  0  0  0  0
  5 23  1  0  0  0  0
  6 11  1  0  0  0  0
  6  7  1  0  0  0  0
  6 37  1  0  0  0  0
  7  8  1  0  0  0  0
  7 24  1  0  0  0  0
  7 25  1  0  0  0  0
  8  9  1  0  0  0  0
  8 26  1  0  0  0  0
  8 27  1  0  0  0  0
  9 10  1  0  0  0  0
 10 11  1  0  0  0  0
 10 28  1  0  0  0  0
 10 29  1  0  0  0  0
 11 30  1  0  0  0  0
 11 31  1  0  0  0  0
 12 13  1  0  0  0  0
 12 32  1  0  0  0  0
 13 18  1  0  0  0  0
 13 14  2  0  0  0  0
 14 15  1  0  0  0  0
 14 33  1  0  0  0  0
 15 16  2  0  0  0  0
 15 34  1  0  0  0  0
 16 17  1  0  0  0  0
 16 35  1  0  0  0  0
 17 18  2  0  0  0  0
 17 36  1  0  0  0  0
M  CHG  1   6   1
M  END
> <s_m_source_file>
AV-unprocessed.smi

> <i_m_source_file_index>
1587

> <i_lp_mmshare_version>
43012

> <i_f3d_flags>
0

> <s_epik_input>
bjFbY0hdW2NIXVtjSF1bY0hdYzFbTkhdQyg9TylbTkhdW0NIMl1bQ0gyXU4yW0NIMl1bQ0gyXU9bQ0gyXVtDSDJdMg==

> <s_epik_cmdline>
J2VwaWtfcHl0aG9uJywgJy1waCcsICc3LjAnLCAnLXRuJywgJzgnLCAnLW1hJywgJzIwMCcsICctbWV0YWxfYmluZGluZycsICctaW1hZScsICc8aW5maWxlLm1hZT4nLCAnLW9tYWUnLCAnPG91dGZpbGUubWFlPic=

> <r_epik_Ionization_Penalty>
0.602565

> <r_epik_Ionization_Penalty_Charging>
0.602531

> <r_epik_Ionization_Penalty_Neutral>
3.41998e-05

> <r_epik_State_Penalty>
0.617039

> <r_epik_Charging_Adjusted_Penalty>
1.21957

> <i_epik_Tot_Q>
1

> <i_epik_Tot_abs_Q>
1

> <r_epik_Metal_State_Penalty>
0.617041

> <b_epik_Metal_Only>
0

> <s_lp_Force_Field>
OPLS_2005

> <r_lp_Energy>
15.9912

> <b_lp_Chiralities_Consistent>
1

> <s_lp_Variant>
AV-unprocessed.smi:1587-2

> <Gold.Version>
5.8.1

> <Gold.Id.Protein>
6NUR|6NUR_protein|mol2

> <Gold.PLP.Fitness>
44.2962

> <Gold.PLP.PLP>
-30.2830

> <Gold.PLP.part.hbond>
-3.9814

> <Gold.PLP.part.metal>
0.0000

> <Gold.PLP.part.buried>
-1.3680

> <Gold.PLP.part.nonpolar>
-25.9035

> <Gold.PLP.part.repulsive>
0.5552

> <Gold.PLP.ligand.clash>
0.0000

> <Gold.PLP.ligand.torsion>
0.1996

> <Gold.PLP.Chemscore.Hbond>
3.8003

> <Gold.PLP.Chemscore.CHOScore>
1.0000

> <Gold.PLP.Chemscore.Metal>
0.0000

> <Gold.Chemscore.Hbonds>
donor molecule, donor type, donor heavy atom, donor atom, acceptor molecule, acceptor atom, score
      L1  H     3    19       P1  7948  0.99
      L1  H     6    37       P1  7948  2.00
      L1  H    12    32       P1  7948  0.72
      L1  C    17    36       P1  8028  1.00

> <Gold.PLP.Chemscore.Internal.Correction>
0.0114

> <Gold.Rescore>
     Score         DG    S(hbond)    S(metal)    S(lipo)     H(rot)  DE(clash)    DE(int)     intcor
     15.73     -17.35       2.60        0.00      62.05       1.60       0.26       1.36       ----

> <Gold.Chemscore.Fitness>
15.7268

> <Gold.Chemscore.DG>
-17.3491

> <Gold.Chemscore.ZeroCoef>
-5.4800

> <Gold.Chemscore.Hbond>
2.6049

> <Gold.Chemscore.Metal>
0.0000

> <Gold.Chemscore.Lipo>
62.0502

> <Gold.Chemscore.Internal_Hbond>
0.0000

> <Gold.Chemscore.DEClash>
0.2578

> <Gold.Chemscore.DEInternal>
1.3646

> <Gold.Chemscore.Rot>
1.5981

> <Gold.Chemscore.Internal.Correction>
   9.000000E+99

> <Gold.Chemscore.Hbonds>
donor molecule, donor type, donor heavy atom, donor atom, acceptor molecule, acceptor atom, score
      L1  H     3    19       P1  7948  0.92
      L1  H     6    37       P1  7948  0.91
      L1  H    12    32       P1  7948  0.66

> <Gold.Chemscore.Hbond.Weighted>
-8.7003

> <Gold.Chemscore.Metal.Weighted>
-0.0000

> <Gold.Chemscore.Lipo.Weighted>
-7.2599

> <Gold.Chemscore.Internal_Hbond.Weighted>
0.0000

> <Gold.Chemscore.DEClash.Weighted>
0.2578

> <Gold.Chemscore.DEInternal.Weighted>
1.3646

> <Gold.Chemscore.Rot.Weighted>
4.0911

> <Gold.Chemscore.Internal.Correction.Weighted>
   9.000000E+99

> <Gold.Protein.RotatedTorsions>
[ 6907 6896 6895 6894 ] final  -18.10 input  -60.11 | X-H torsion
[ 7974 7965 7964 7962 ] final  -30.45 input  175.53 | X-H torsion
[ 8008 7997 7996 7995 ] final   -5.88 input   59.86 | X-H torsion
[ 10167 10162 10161 10158 ] final -176.32 input  -65.29 | X-H torsion
[ 10718 10713 10712 10709 ] final  -90.54 input   66.30 | X-H torsion
[ 10763 10752 10751 10750 ] final  155.47 input  -60.55 | X-H torsion
[ 11005 11000 10999 10996 ] final -171.74 input  -57.11 | X-H torsion

> <Gold.Protein.ActiveResidues>
 VAL166  LYS551  ARG553  GLY616  TRP617  ASP618  TYR619  PRO620  LYS621  CYS622 
 ASP623  PHE694  ASN695  SER759  ASP760  ASP761  ALA762  ILE779  LEU786  VAL792 
 PHE793  MET794  SER795  GLU796  ALA797  LYS798  CYS799  TRP800  GLU811  SER814 

> <Gold.Protein.RotatedAtoms>
  151.2832  135.0720  159.9176 H   0  0  0  0  0  0  0  0  0  0  0  0  # atno 6907 bound_to 6896
  152.5330  134.0009  159.7904 H   0  0  0  0  0  0  0  0  0  0  0  0  # atno 6908 bound_to 6896
  151.0266  133.5777  159.2696 H   0  0  0  0  0  0  0  0  0  0  0  0  # atno 6909 bound_to 6896
  146.1142  140.5542  142.8764 H   0  0  0  0  0  0  0  0  0  0  0  0  # atno 7974 bound_to 7965
  154.5994  140.2447  155.7813 H   0  0  0  0  0  0  0  0  0  0  0  0  # atno 8008 bound_to 7997
  156.2301  140.2969  156.0118 H   0  0  0  0  0  0  0  0  0  0  0  0  # atno 8009 bound_to 7997
  155.2237  140.0401  157.2942 H   0  0  0  0  0  0  0  0  0  0  0  0  # atno 8010 bound_to 7997
  139.5536  144.2047  152.1120 H   0  0  0  0  0  0  0  0  0  0  0  0  # atno 10167 bound_to 10162
  155.9988  130.4913  150.5338 H   0  0  0  0  0  0  0  0  0  0  0  0  # atno 10718 bound_to 10713
  154.1689  135.2805  155.3087 H   0  0  0  0  0  0  0  0  0  0  0  0  # atno 10763 bound_to 10752
  154.6090  135.5505  153.7456 H   0  0  0  0  0  0  0  0  0  0  0  0  # atno 10764 bound_to 10752
  153.0170  135.6410  154.1830 H   0  0  0  0  0  0  0  0  0  0  0  0  # atno 10765 bound_to 10752
  140.5049  134.5858  157.5000 H   0  0  0  0  0  0  0  0  0  0  0  0  # atno 11005 bound_to 11000
  144.7538  140.5257  143.6783 LP  0  0  0  0  0  0  0  0  0  0  0  0  # atno 17320 bound_to 7965
  145.5601  139.1479  143.3346 LP  0  0  0  0  0  0  0  0  0  0  0  0  # atno 17321 bound_to 7965
  140.1547  144.5082  150.6667 LP  0  0  0  0  0  0  0  0  0  0  0  0  # atno 17342 bound_to 10162
  140.6804  143.2324  151.5400 LP  0  0  0  0  0  0  0  0  0  0  0  0  # atno 17343 bound_to 10162
  157.3284  131.0695  151.1880 LP  0  0  0  0  0  0  0  0  0  0  0  0  # atno 17370 bound_to 10713
  157.2769  130.6731  149.6047 LP  0  0  0  0  0  0  0  0  0  0  0  0  # atno 17371 bound_to 10713
  139.9692  134.7321  156.0076 LP  0  0  0  0  0  0  0  0  0  0  0  0  # atno 17394 bound_to 11000
  141.1416  133.6563  156.3747 LP  0  0  0  0  0  0  0  0  0  0  0  0  # atno 17395 bound_to 11000

$$$$
