AV-unprocessed.smi:1667|AV-procd|sdf|6676|dock3
  -GOLD-   22720 7393D 1   1.00000     0.00000
 Structure written by MMmdl.
 45 47  0  0  0  0  0  0  0  0  1 V2000
  145.7573  142.6212  158.0913 C   0  0  0  0  0  0  0  0  0  0  0  0
  146.2394  142.8879  156.6698 C   0  0  0  0  0  0  0  0  0  0  0  0
  145.6693  143.7290  155.9769 O   0  0  0  0  0  0  0  0  0  0  0  0
  147.2909  142.1581  156.2608 N   0  0  0  0  0  0  0  0  0  0  0  0
  147.9575  142.1866  154.9564 C   0  0  2  0  0  0  0  0  0  0  0  0
  146.9803  142.1816  153.7649 C   0  0  0  0  0  0  0  0  0  0  0  0
  149.0138  141.1083  154.8975 C   0  0  0  0  0  0  0  0  0  0  0  0
  148.8394  139.9887  154.1915 N   0  0  0  0  0  0  0  0  0  0  0  0
  149.9804  139.2655  154.4661 C   0  0  0  0  0  0  0  0  0  0  0  0
  150.3876  137.9900  154.0141 C   0  0  0  0  0  0  0  0  0  0  0  0
  151.6107  137.4371  154.4455 C   0  0  0  0  0  0  0  0  0  0  0  0
  152.4406  138.1498  155.3346 C   0  0  0  0  0  0  0  0  0  0  0  0
  152.0520  139.4218  155.7970 C   0  0  0  0  0  0  0  0  0  0  0  0
  150.8317  139.9727  155.3596 C   0  0  0  0  0  0  0  0  0  0  0  0
  150.1680  141.1704  155.6168 N   0  0  0  0  0  0  0  0  0  0  0  0
  150.6360  142.2315  156.5065 C   0  0  0  0  0  0  0  0  0  0  0  0
  149.8563  142.3339  157.8391 C   0  0  1  0  0  0  0  0  0  0  0  0
  149.1354  141.1424  158.0827 O   0  0  0  0  0  0  0  0  0  0  0  0
  150.7344  142.7414  159.0151 C   0  0  0  0  0  0  0  0  0  0  0  0
  150.5665  143.9930  159.6501 C   0  0  0  0  0  0  0  0  0  0  0  0
  151.3758  144.3477  160.7466 C   0  0  0  0  0  0  0  0  0  0  0  0
  152.3550  143.4530  161.2185 C   0  0  0  0  0  0  0  0  0  0  0  0
  152.5266  142.2043  160.5911 C   0  0  0  0  0  0  0  0  0  0  0  0
  153.4653  141.3415  161.0464 F   0  0  0  0  0  0  0  0  0  0  0  0
  151.7205  141.8508  159.4916 C   0  0  0  0  0  0  0  0  0  0  0  0
  148.4518  143.1534  154.9112 H   0  0  0  0  0  0  0  0  0  0  0  0
  146.5297  142.8927  158.8114 H   0  0  0  0  0  0  0  0  0  0  0  0
  145.5175  141.5655  158.2215 H   0  0  0  0  0  0  0  0  0  0  0  0
  144.8625  143.2036  158.3134 H   0  0  0  0  0  0  0  0  0  0  0  0
  147.6688  141.5001  156.9265 H   0  0  0  0  0  0  0  0  0  0  0  0
  147.5161  142.3102  152.8246 H   0  0  0  0  0  0  0  0  0  0  0  0
  146.2609  142.9967  153.8465 H   0  0  0  0  0  0  0  0  0  0  0  0
  146.4187  141.2503  153.6934 H   0  0  0  0  0  0  0  0  0  0  0  0
  149.7556  137.4348  153.3366 H   0  0  0  0  0  0  0  0  0  0  0  0
  151.9118  136.4611  154.0945 H   0  0  0  0  0  0  0  0  0  0  0  0
  153.3757  137.7194  155.6619 H   0  0  0  0  0  0  0  0  0  0  0  0
  152.6867  139.9684  156.4782 H   0  0  0  0  0  0  0  0  0  0  0  0
  151.7019  142.1067  156.6952 H   0  0  0  0  0  0  0  0  0  0  0  0
  150.5526  143.1762  155.9676 H   0  0  0  0  0  0  0  0  0  0  0  0
  149.1008  143.1113  157.7178 H   0  0  0  0  0  0  0  0  0  0  0  0
  149.3070  140.5387  157.3761 H   0  0  0  0  0  0  0  0  0  0  0  0
  149.8093  144.6827  159.3069 H   0  0  0  0  0  0  0  0  0  0  0  0
  151.2407  145.3041  161.2300 H   0  0  0  0  0  0  0  0  0  0  0  0
  152.9726  143.7237  162.0621 H   0  0  0  0  0  0  0  0  0  0  0  0
  151.8562  140.8887  159.0197 H   0  0  0  0  0  0  0  0  0  0  0  0
  1  2  1  0  0  0  0
  1 27  1  0  0  0  0
  1 28  1  0  0  0  0
  1 29  1  0  0  0  0
  2  3  2  0  0  0  0
  2  4  1  0  0  0  0
  4  5  1  0  0  0  0
  4 30  1  0  0  0  0
  5 26  1  0  0  0  0
  5  6  1  0  0  0  0
  5  7  1  0  0  0  0
  6 31  1  0  0  0  0
  6 32  1  0  0  0  0
  6 33  1  0  0  0  0
  7 15  1  0  0  0  0
  7  8  2  0  0  0  0
  8  9  1  0  0  0  0
  9 14  2  0  0  0  0
  9 10  1  0  0  0  0
 10 11  2  0  0  0  0
 10 34  1  0  0  0  0
 11 12  1  0  0  0  0
 11 35  1  0  0  0  0
 12 13  2  0  0  0  0
 12 36  1  0  0  0  0
 13 14  1  0  0  0  0
 13 37  1  0  0  0  0
 14 15  1  0  0  0  0
 15 16  1  0  0  0  0
 16 17  1  0  0  0  0
 16 38  1  0  0  0  0
 16 39  1  0  0  0  0
 17 18  1  0  0  0  0
 17 19  1  0  0  0  0
 17 40  1  0  0  0  0
 18 41  1  0  0  0  0
 19 25  1  0  0  0  0
 19 20  2  0  0  0  0
 20 21  1  0  0  0  0
 20 42  1  0  0  0  0
 21 22  2  0  0  0  0
 21 43  1  0  0  0  0
 22 23  1  0  0  0  0
 22 44  1  0  0  0  0
 23 24  1  0  0  0  0
 23 25  2  0  0  0  0
 25 45  1  0  0  0  0
M  END
> <s_m_source_file>
AV-unprocessed.smi

> <i_m_source_file_index>
1667

> <i_lp_mmshare_version>
43012

> <i_f3d_flags>
0

> <s_epik_input>
W0NIM11DKD1PKVtOSF1bQ0BASF0oW0NIM10pYyhuMSluKGMoYzEyKVtjSF1bY0hdW2NIXVtjSF0yKVtDSDJdW0NASF0oW09IXSljM1tjSF1bY0hdW2NIXWMoRilbY0hdMw==

> <s_epik_cmdline>
J2VwaWtfcHl0aG9uJywgJy1waCcsICc3LjAnLCAnLXRuJywgJzgnLCAnLW1hJywgJzIwMCcsICctbWV0YWxfYmluZGluZycsICctaW1hZScsICc8aW5maWxlLm1hZT4nLCAnLW9tYWUnLCAnPG91dGZpbGUubWFlPic=

> <r_epik_Ionization_Penalty>
0.133011

> <r_epik_Ionization_Penalty_Charging>
0

> <r_epik_Ionization_Penalty_Neutral>
0.133011

> <r_epik_State_Penalty>
0.122384

> <r_epik_Charging_Adjusted_Penalty>
0.122384

> <i_epik_Tot_Q>
0

> <i_epik_Tot_abs_Q>
0

> <r_epik_Metal_State_Penalty>
0.0997374

> <b_epik_Metal_Only>
0

> <s_lp_Force_Field>
OPLS_2005

> <r_lp_Energy>
8.29393

> <b_lp_Chiralities_Consistent>
1

> <s_lp_Variant>
AV-unprocessed.smi:1667-4

> <Gold.Version>
5.8.1

> <Gold.Id.Protein>
6NUR|6NUR_protein|mol2

> <Gold.PLP.Fitness>
48.5814

> <Gold.PLP.PLP>
-50.9115

> <Gold.PLP.part.hbond>
-0.5622

> <Gold.PLP.part.metal>
0.0000

> <Gold.PLP.part.buried>
0.2411

> <Gold.PLP.part.nonpolar>
-51.2824

> <Gold.PLP.part.repulsive>
0.2819

> <Gold.PLP.ligand.clash>
0.0000

> <Gold.PLP.ligand.torsion>
1.2697

> <Gold.PLP.Chemscore.Hbond>
0.0000

> <Gold.PLP.Chemscore.CHOScore>
0.0000

> <Gold.PLP.Chemscore.Metal>
0.0000

> <Gold.PLP.Chemscore.Internal.Correction>
0.2093

> <Gold.Rescore>
     Score         DG    S(hbond)    S(metal)    S(lipo)     H(rot)  DE(clash)    DE(int)     intcor
     10.94     -15.13       0.00        0.00     136.70       2.48       1.78       2.41       ----

> <Gold.Chemscore.Fitness>
10.9407

> <Gold.Chemscore.DG>
-15.1349

> <Gold.Chemscore.ZeroCoef>
-5.4800

> <Gold.Chemscore.Hbond>
0.0000

> <Gold.Chemscore.Metal>
0.0000

> <Gold.Chemscore.Lipo>
136.6954

> <Gold.Chemscore.Internal_Hbond>
0.0000

> <Gold.Chemscore.DEClash>
1.7805

> <Gold.Chemscore.DEInternal>
2.4136

> <Gold.Chemscore.Rot>
2.4760

> <Gold.Chemscore.Internal.Correction>
   9.000000E+99

> <Gold.Chemscore.Hbond.Weighted>
-0.0000

> <Gold.Chemscore.Metal.Weighted>
-0.0000

> <Gold.Chemscore.Lipo.Weighted>
-15.9934

> <Gold.Chemscore.Internal_Hbond.Weighted>
0.0000

> <Gold.Chemscore.DEClash.Weighted>
1.7805

> <Gold.Chemscore.DEInternal.Weighted>
2.4136

> <Gold.Chemscore.Rot.Weighted>
6.3385

> <Gold.Chemscore.Internal.Correction.Weighted>
   9.000000E+99

> <Gold.Protein.RotatedTorsions>
[ 6907 6896 6895 6894 ] final -147.24 input  -60.11 | X-H torsion
[ 7974 7965 7964 7962 ] final   32.41 input  175.53 | X-H torsion
[ 8008 7997 7996 7995 ] final   43.83 input   59.86 | X-H torsion
[ 10167 10162 10161 10158 ] final  -60.46 input  -65.29 | X-H torsion
[ 10718 10713 10712 10709 ] final -141.95 input   66.30 | X-H torsion
[ 10763 10752 10751 10750 ] final   26.63 input  -60.55 | X-H torsion
[ 11005 11000 10999 10996 ] final  -52.81 input  -57.11 | X-H torsion

> <Gold.Protein.ActiveResidues>
 VAL166  LYS551  ARG553  GLY616  TRP617  ASP618  TYR619  PRO620  LYS621  CYS622 
 ASP623  PHE694  ASN695  SER759  ASP760  ASP761  ALA762  ILE779  LEU786  VAL792 
 PHE793  MET794  SER795  GLU796  ALA797  LYS798  CYS799  TRP800  GLU811  SER814 

> <Gold.Protein.RotatedAtoms>
  151.1529  133.4896  159.2594 H   0  0  0  0  0  0  0  0  0  0  0  0  # atno 6907 bound_to 6896
  151.1535  135.0238  159.8689 H   0  0  0  0  0  0  0  0  0  0  0  0  # atno 6908 bound_to 6896
  152.5463  134.1410  159.8532 H   0  0  0  0  0  0  0  0  0  0  0  0  # atno 6909 bound_to 6896
  146.1488  139.6530  142.9113 H   0  0  0  0  0  0  0  0  0  0  0  0  # atno 7974 bound_to 7965
  155.3093  140.3390  155.4244 H   0  0  0  0  0  0  0  0  0  0  0  0  # atno 8008 bound_to 7997
  156.1964  140.1716  156.8028 H   0  0  0  0  0  0  0  0  0  0  0  0  # atno 8009 bound_to 7997
  154.5503  140.0707  156.8641 H   0  0  0  0  0  0  0  0  0  0  0  0  # atno 8010 bound_to 7997
  140.6069  143.2376  151.5799 H   0  0  0  0  0  0  0  0  0  0  0  0  # atno 10167 bound_to 10162
  156.3401  130.7633  151.1767 H   0  0  0  0  0  0  0  0  0  0  0  0  # atno 10718 bound_to 10713
  153.0609  135.6556  154.0465 H   0  0  0  0  0  0  0  0  0  0  0  0  # atno 10763 bound_to 10752
  154.0132  135.2926  155.3391 H   0  0  0  0  0  0  0  0  0  0  0  0  # atno 10764 bound_to 10752
  154.6947  135.5269  153.8509 H   0  0  0  0  0  0  0  0  0  0  0  0  # atno 10765 bound_to 10752
  141.0944  133.6627  156.4079 H   0  0  0  0  0  0  0  0  0  0  0  0  # atno 11005 bound_to 11000
  145.4873  141.0438  143.2612 LP  0  0  0  0  0  0  0  0  0  0  0  0  # atno 17320 bound_to 7965
  144.7879  139.6389  143.7126 LP  0  0  0  0  0  0  0  0  0  0  0  0  # atno 17321 bound_to 7965
  139.5332  144.2856  152.1194 LP  0  0  0  0  0  0  0  0  0  0  0  0  # atno 17342 bound_to 10162
  140.2048  144.4622  150.6414 LP  0  0  0  0  0  0  0  0  0  0  0  0  # atno 17343 bound_to 10162
  157.7445  131.0457  150.4855 LP  0  0  0  0  0  0  0  0  0  0  0  0  # atno 17370 bound_to 10713
  156.5034  130.4122  149.6340 LP  0  0  0  0  0  0  0  0  0  0  0  0  # atno 17371 bound_to 10713
  140.5176  134.6335  157.5307 LP  0  0  0  0  0  0  0  0  0  0  0  0  # atno 17394 bound_to 11000
  139.9777  134.7189  155.9919 LP  0  0  0  0  0  0  0  0  0  0  0  0  # atno 17395 bound_to 11000

$$$$
