AV-unprocessed.smi:344|AV-procd|sdf|2390|dock6
  -GOLD-   2262022323D 1   1.00000     0.00000
 Structure written by MMmdl.
 37 38  0  0  0  0  0  0  0  0  2 V2000
  145.1690  137.9220  152.0137 N   0  0  0  0  0  0  0  0  0  0  0  0
  146.4011  138.2007  151.5776 C   0  0  0  0  0  0  0  0  0  0  0  0
  147.0130  137.4526  150.8176 O   0  0  0  0  0  0  0  0  0  0  0  0
  147.0454  139.4970  152.0753 C   0  0  0  0  0  0  0  0  0  0  0  0
  147.1965  139.4752  153.5691 C   0  0  0  0  0  0  0  0  0  0  0  0
  146.1973  139.3383  154.4984 C   0  0  0  0  0  0  0  0  0  0  0  0
  146.8218  139.3580  156.1227 S   0  0  0  0  0  0  0  0  0  0  0  0
  148.4525  139.5701  155.4816 C   0  0  0  0  0  0  0  0  0  0  0  0
  149.5673  139.6620  156.2229 N   0  5  0  0  0  0  0  0  0  0  0  0
  150.6198  140.3816  155.7647 C   0  0  0  0  0  0  0  0  0  0  0  0
  151.4705  140.0658  154.9317 O   0  0  0  0  0  0  0  0  0  0  0  0
  150.6976  141.7615  156.4246 C   0  0  0  0  0  0  0  0  0  0  0  0
  151.2367  141.6765  157.8643 C   0  0  0  0  0  0  0  0  0  0  0  0
  151.0457  142.9793  158.6609 C   0  0  0  0  0  0  0  0  0  0  0  0
  151.5201  144.2258  157.9105 C   0  0  0  0  0  0  0  0  0  0  0  0
  151.7105  145.2938  158.9927 C   0  0  0  0  0  0  0  0  0  0  0  0
  151.9384  144.5353  160.3091 C   0  0  0  0  0  0  0  0  0  0  0  0
  151.8388  143.0435  159.9701 C   0  0  0  0  0  0  0  0  0  0  0  0
  148.4638  139.6074  154.1448 N   0  0  0  0  0  0  0  0  0  0  0  0
  144.6984  137.0881  151.6943 H   0  0  0  0  0  0  0  0  0  0  0  0
  144.7056  138.5595  152.6462 H   0  0  0  0  0  0  0  0  0  0  0  0
  148.0126  139.6239  151.5872 H   0  0  0  0  0  0  0  0  0  0  0  0
  146.4330  140.3454  151.7677 H   0  0  0  0  0  0  0  0  0  0  0  0
  145.1378  139.2214  154.3267 H   0  0  0  0  0  0  0  0  0  0  0  0
  151.3491  142.3977  155.8243 H   0  0  0  0  0  0  0  0  0  0  0  0
  149.7152  142.2369  156.4111 H   0  0  0  0  0  0  0  0  0  0  0  0
  150.7576  140.8509  158.3930 H   0  0  0  0  0  0  0  0  0  0  0  0
  152.3007  141.4371  157.8311 H   0  0  0  0  0  0  0  0  0  0  0  0
  149.9865  143.1063  158.8905 H   0  0  0  0  0  0  0  0  0  0  0  0
  152.4777  144.0255  157.4273 H   0  0  0  0  0  0  0  0  0  0  0  0
  150.8196  144.5386  157.1356 H   0  0  0  0  0  0  0  0  0  0  0  0
  152.5413  145.9587  158.7544 H   0  0  0  0  0  0  0  0  0  0  0  0
  150.8133  145.9086  159.0735 H   0  0  0  0  0  0  0  0  0  0  0  0
  152.9046  144.7751  160.7545 H   0  0  0  0  0  0  0  0  0  0  0  0
  151.1692  144.8105  161.0317 H   0  0  0  0  0  0  0  0  0  0  0  0
  151.3724  142.4687  160.7709 H   0  0  0  0  0  0  0  0  0  0  0  0
  152.8406  142.6391  159.8168 H   0  0  0  0  0  0  0  0  0  0  0  0
  1  2  1  0  0  0  0
  1 20  1  0  0  0  0
  1 21  1  0  0  0  0
  2  3  2  0  0  0  0
  2  4  1  0  0  0  0
  4  5  1  0  0  0  0
  4 22  1  0  0  0  0
  4 23  1  0  0  0  0
  5 19  1  0  0  0  0
  5  6  2  0  0  0  0
  6  7  1  0  0  0  0
  6 24  1  0  0  0  0
  7  8  1  0  0  0  0
  8  9  1  0  0  0  0
  8 19  2  0  0  0  0
  9 10  1  0  0  0  0
 10 11  2  0  0  0  0
 10 12  1  0  0  0  0
 12 13  1  0  0  0  0
 12 25  1  0  0  0  0
 12 26  1  0  0  0  0
 13 14  1  0  0  0  0
 13 27  1  0  0  0  0
 13 28  1  0  0  0  0
 14 18  1  0  0  0  0
 14 15  1  0  0  0  0
 14 29  1  0  0  0  0
 15 16  1  0  0  0  0
 15 30  1  0  0  0  0
 15 31  1  0  0  0  0
 16 17  1  0  0  0  0
 16 32  1  0  0  0  0
 16 33  1  0  0  0  0
 17 18  1  0  0  0  0
 17 34  1  0  0  0  0
 17 35  1  0  0  0  0
 18 36  1  0  0  0  0
 18 37  1  0  0  0  0
M  CHG  1   9  -1
M  END
> <s_m_source_file>
AV-unprocessed.smi

> <i_m_source_file_index>
344

> <i_lp_mmshare_version>
43012

> <i_f3d_flags>
0

> <s_epik_input>
W05IMl1DKD1PKVtDSDJdYzFbY0hdc2MobjEpW05IXUMoPU8pW0NIMl1bQ0gyXVtDSF0yW0NIMl1bQ0gyXVtDSDJdW0NIMl0y

> <s_epik_cmdline>
J2VwaWtfcHl0aG9uJywgJy1waCcsICc3LjAnLCAnLXRuJywgJzgnLCAnLW1hJywgJzIwMCcsICctbWV0YWxfYmluZGluZycsICctaW1hZScsICc8aW5maWxlLm1hZT4nLCAnLW9tYWUnLCAnPG91dGZpbGUubWFlPic=

> <r_lp_tautomer_probability>
1

> <r_epik_Ionization_Penalty>
5.48595

> <r_epik_Ionization_Penalty_Charging>
4.99802

> <r_epik_Ionization_Penalty_Neutral>
0.48793

> <r_epik_State_Penalty>
4.99789

> <r_epik_Charging_Adjusted_Penalty>
9.99592

> <i_epik_Tot_Q>
-1

> <i_epik_Tot_abs_Q>
1

> <r_epik_Metal_State_Penalty>
1.11866

> <b_epik_Metal_Only>
1

> <s_lp_Force_Field>
OPLS_2005

> <r_lp_Energy>
17.7805

> <b_lp_Chiralities_Consistent>
1

> <s_lp_Variant>
AV-unprocessed.smi:344-2

> <Gold.Version>
5.8.1

> <Gold.Id.Protein>
6NUR|6NUR_protein|mol2

> <Gold.PLP.Fitness>
44.8498

> <Gold.PLP.PLP>
-36.0757

> <Gold.PLP.part.hbond>
-3.6847

> <Gold.PLP.part.metal>
0.0000

> <Gold.PLP.part.buried>
-1.2731

> <Gold.PLP.part.nonpolar>
-34.6766

> <Gold.PLP.part.repulsive>
2.5266

> <Gold.PLP.ligand.clash>
0.0000

> <Gold.PLP.ligand.torsion>
1.2285

> <Gold.PLP.Chemscore.Hbond>
2.6720

> <Gold.PLP.Chemscore.CHOScore>
1.0000

> <Gold.PLP.Chemscore.Metal>
0.0000

> <Gold.Chemscore.Hbonds>
donor molecule, donor type, donor heavy atom, donor atom, acceptor molecule, acceptor atom, score
      L1  H     1    21       P1 10175  0.47
      P1  H  7954  7966       L1     3  0.99
      P1  H  7989  7998       L1    11  1.00
      L1  C     6    24       P1 10175  0.62

> <Gold.PLP.Chemscore.Internal.Correction>
0.2150

> <Gold.Rescore>
     Score         DG    S(hbond)    S(metal)    S(lipo)     H(rot)  DE(clash)    DE(int)     intcor
     16.11     -19.52       2.78        0.00      92.77       2.39       2.03       1.38       ----

> <Gold.Chemscore.Fitness>
16.1133

> <Gold.Chemscore.DG>
-19.5157

> <Gold.Chemscore.ZeroCoef>
-5.4800

> <Gold.Chemscore.Hbond>
2.7849

> <Gold.Chemscore.Metal>
0.0000

> <Gold.Chemscore.Lipo>
92.7716

> <Gold.Chemscore.Internal_Hbond>
0.0000

> <Gold.Chemscore.DEClash>
2.0252

> <Gold.Chemscore.DEInternal>
1.3771

> <Gold.Chemscore.Rot>
2.3907

> <Gold.Chemscore.Internal.Correction>
   9.000000E+99

> <Gold.Chemscore.Hbonds>
donor molecule, donor type, donor heavy atom, donor atom, acceptor molecule, acceptor atom, score
      L1  H     1    21       P1 10175  0.48
      P1  H  7954  7966       L1     3  0.92
      P1  H  7989  7998       L1    11  0.97

> <Gold.Chemscore.Hbond.Weighted>
-9.3015

> <Gold.Chemscore.Metal.Weighted>
-0.0000

> <Gold.Chemscore.Lipo.Weighted>
-10.8543

> <Gold.Chemscore.Internal_Hbond.Weighted>
0.0000

> <Gold.Chemscore.DEClash.Weighted>
2.0252

> <Gold.Chemscore.DEInternal.Weighted>
1.3771

> <Gold.Chemscore.Rot.Weighted>
6.1201

> <Gold.Chemscore.Internal.Correction.Weighted>
   9.000000E+99

> <Gold.Protein.RotatedTorsions>
[ 6907 6896 6895 6894 ] final   55.35 input  -60.11 | X-H torsion
[ 7974 7965 7964 7962 ] final  140.04 input  175.53 | X-H torsion
[ 8008 7997 7996 7995 ] final   20.16 input   59.86 | X-H torsion
[ 10167 10162 10161 10158 ] final  -81.44 input  -65.29 | X-H torsion
[ 10718 10713 10712 10709 ] final  -47.71 input   66.30 | X-H torsion
[ 10763 10752 10751 10750 ] final  171.23 input  -60.55 | X-H torsion
[ 11005 11000 10999 10996 ] final   39.51 input  -57.11 | X-H torsion

> <Gold.Protein.ActiveResidues>
 VAL166  LYS551  ARG553  GLY616  TRP617  ASP618  TYR619  PRO620  LYS621  CYS622 
 ASP623  PHE694  ASN695  SER759  ASP760  ASP761  ALA762  ILE779  LEU786  VAL792 
 PHE793  MET794  SER795  GLU796  ALA797  LYS798  CYS799  TRP800  GLU811  SER814 

> <Gold.Protein.RotatedAtoms>
  152.3529  134.6980  160.0230 H   0  0  0  0  0  0  0  0  0  0  0  0  # atno 6907 bound_to 6896
  151.7328  133.3313  159.3353 H   0  0  0  0  0  0  0  0  0  0  0  0  # atno 6908 bound_to 6896
  150.7552  134.6282  159.6216 H   0  0  0  0  0  0  0  0  0  0  0  0  # atno 6909 bound_to 6896
  144.9223  139.5152  143.5657 H   0  0  0  0  0  0  0  0  0  0  0  0  # atno 7974 bound_to 7965
  154.9315  140.3041  155.5165 H   0  0  0  0  0  0  0  0  0  0  0  0  # atno 8008 bound_to 7997
  156.3003  140.2353  156.4312 H   0  0  0  0  0  0  0  0  0  0  0  0  # atno 8009 bound_to 7997
  154.8233  140.0422  157.1414 H   0  0  0  0  0  0  0  0  0  0  0  0  # atno 8010 bound_to 7997
  140.4412  143.2514  151.8623 H   0  0  0  0  0  0  0  0  0  0  0  0  # atno 10167 bound_to 10162
  156.2058  130.4158  149.9180 H   0  0  0  0  0  0  0  0  0  0  0  0  # atno 10718 bound_to 10713
  154.4089  135.2756  155.2049 H   0  0  0  0  0  0  0  0  0  0  0  0  # atno 10763 bound_to 10752
  154.4044  135.6037  153.5919 H   0  0  0  0  0  0  0  0  0  0  0  0  # atno 10764 bound_to 10752
  152.9831  135.5934  154.4367 H   0  0  0  0  0  0  0  0  0  0  0  0  # atno 10765 bound_to 10752
  140.2021  134.3858  155.8091 H   0  0  0  0  0  0  0  0  0  0  0  0  # atno 11005 bound_to 11000
  146.3210  139.8112  142.8945 LP  0  0  0  0  0  0  0  0  0  0  0  0  # atno 17320 bound_to 7965
  145.3276  141.0259  143.3465 LP  0  0  0  0  0  0  0  0  0  0  0  0  # atno 17321 bound_to 7965
  139.4790  144.5227  151.8779 LP  0  0  0  0  0  0  0  0  0  0  0  0  # atno 17342 bound_to 10162
  140.4316  144.2107  150.5888 LP  0  0  0  0  0  0  0  0  0  0  0  0  # atno 17343 bound_to 10162
  156.6874  130.8882  151.3584 LP  0  0  0  0  0  0  0  0  0  0  0  0  # atno 17370 bound_to 10713
  157.7011  130.9334  150.0790 LP  0  0  0  0  0  0  0  0  0  0  0  0  # atno 17371 bound_to 10713
  141.2227  133.7099  156.8274 LP  0  0  0  0  0  0  0  0  0  0  0  0  # atno 17394 bound_to 11000
  140.2043  134.8874  157.3204 LP  0  0  0  0  0  0  0  0  0  0  0  0  # atno 17395 bound_to 11000

$$$$
