AV-unprocessed.smi:865|AV-procd|sdf|3990|dock9
  -GOLD-   22720 1473D 1   1.00000     0.00000
 Structure written by MMmdl.
 36 36  0  0  0  0  0  0  0  0  1 V2000
  151.3244  145.4101  160.3186 C   0  0  0  0  0  0  0  0  0  0  0  0
  152.3929  144.4862  159.7149 C   0  0  0  0  0  0  0  0  0  0  0  0
  151.8511  143.1255  159.2044 C   0  0  0  0  0  0  0  0  0  0  0  0
  152.9388  142.0222  159.2639 C   0  0  0  0  0  0  0  0  0  0  0  0
  153.6174  141.8618  160.6328 C   0  0  0  0  0  0  0  0  0  0  0  0
  151.2002  143.2377  157.7967 C   0  0  2  0  0  0  0  0  0  0  0  0
  150.1463  144.1806  157.8487 O   0  0  0  0  0  0  0  0  0  0  0  0
  150.6485  141.8963  157.2625 C   0  0  0  0  0  0  0  0  0  0  0  0
  149.7833  142.0984  156.1062 N   0  0  0  0  0  0  0  0  0  0  0  0
  149.8037  141.3587  154.9869 C   0  0  0  0  0  0  0  0  0  0  0  0
  150.6112  140.4529  154.7824 O   0  0  0  0  0  0  0  0  0  0  0  0
  148.7364  141.6791  153.9414 C   0  0  0  0  0  0  0  0  0  0  0  0
  147.4412  141.8564  154.5703 N   0  0  0  0  0  0  0  0  0  0  0  0
  146.2459  142.1442  154.0507 C   0  0  0  0  0  0  0  0  0  0  0  0
  145.3082  142.2002  154.9843 N   0  0  0  0  0  0  0  0  0  0  0  0
  146.0055  141.9229  156.1483 N   0  0  0  0  0  0  0  0  0  0  0  0
  147.2716  141.7176  155.9089 N   0  0  0  0  0  0  0  0  0  0  0  0
  151.7538  146.3822  160.5618 H   0  0  0  0  0  0  0  0  0  0  0  0
  150.9045  145.0061  161.2389 H   0  0  0  0  0  0  0  0  0  0  0  0
  150.5061  145.5781  159.6180 H   0  0  0  0  0  0  0  0  0  0  0  0
  152.8550  145.0322  158.8936 H   0  0  0  0  0  0  0  0  0  0  0  0
  153.1857  144.3229  160.4456 H   0  0  0  0  0  0  0  0  0  0  0  0
  151.0588  142.8224  159.8905 H   0  0  0  0  0  0  0  0  0  0  0  0
  152.5229  141.0648  158.9492 H   0  0  0  0  0  0  0  0  0  0  0  0
  153.7265  142.2494  158.5474 H   0  0  0  0  0  0  0  0  0  0  0  0
  154.4538  141.1659  160.5653 H   0  0  0  0  0  0  0  0  0  0  0  0
  152.9344  141.4679  161.3848 H   0  0  0  0  0  0  0  0  0  0  0  0
  154.0088  142.8132  160.9939 H   0  0  0  0  0  0  0  0  0  0  0  0
  151.9455  143.6009  157.0897 H   0  0  0  0  0  0  0  0  0  0  0  0
  149.6114  144.0754  157.0768 H   0  0  0  0  0  0  0  0  0  0  0  0
  151.4738  141.2756  156.9129 H   0  0  0  0  0  0  0  0  0  0  0  0
  150.1456  141.3211  158.0421 H   0  0  0  0  0  0  0  0  0  0  0  0
  149.0846  142.8238  156.1821 H   0  0  0  0  0  0  0  0  0  0  0  0
  149.0043  142.5831  153.3921 H   0  0  0  0  0  0  0  0  0  0  0  0
  148.6657  140.8676  153.2159 H   0  0  0  0  0  0  0  0  0  0  0  0
  146.0645  142.3057  152.9985 H   0  0  0  0  0  0  0  0  0  0  0  0
  1  2  1  0  0  0  0
  1 18  1  0  0  0  0
  1 19  1  0  0  0  0
  1 20  1  0  0  0  0
  2  3  1  0  0  0  0
  2 21  1  0  0  0  0
  2 22  1  0  0  0  0
  3  4  1  0  0  0  0
  3  6  1  0  0  0  0
  3 23  1  0  0  0  0
  4  5  1  0  0  0  0
  4 24  1  0  0  0  0
  4 25  1  0  0  0  0
  5 26  1  0  0  0  0
  5 27  1  0  0  0  0
  5 28  1  0  0  0  0
  6  7  1  0  0  0  0
  6  8  1  0  0  0  0
  6 29  1  0  0  0  0
  7 30  1  0  0  0  0
  8  9  1  0  0  0  0
  8 31  1  0  0  0  0
  8 32  1  0  0  0  0
  9 10  1  0  0  0  0
  9 33  1  0  0  0  0
 10 11  2  0  0  0  0
 10 12  1  0  0  0  0
 12 13  1  0  0  0  0
 12 34  1  0  0  0  0
 12 35  1  0  0  0  0
 13 17  1  0  0  0  0
 13 14  1  0  0  0  0
 14 15  2  0  0  0  0
 14 36  1  0  0  0  0
 15 16  1  0  0  0  0
 16 17  2  0  0  0  0
M  END
> <s_m_source_file>
AV-unprocessed.smi

> <i_m_source_file_index>
865

> <i_lp_mmshare_version>
43012

> <i_f3d_flags>
0

> <s_epik_input>
W0NIM11bQ0gyXVtDSF0oW0NIMl1bQ0gzXSlbQ0BIXShbT0hdKVtDSDJdW05IXUMoPU8pW0NIMl1uMVtjSF1ubm4x

> <s_epik_cmdline>
J2VwaWtfcHl0aG9uJywgJy1waCcsICc3LjAnLCAnLXRuJywgJzgnLCAnLW1hJywgJzIwMCcsICctbWV0YWxfYmluZGluZycsICctaW1hZScsICc8aW5maWxlLm1hZT4nLCAnLW9tYWUnLCAnPG91dGZpbGUubWFlPic=

> <r_lp_tautomer_probability>
1

> <r_epik_Ionization_Penalty>
9.39891e-07

> <r_epik_Ionization_Penalty_Charging>
0

> <r_epik_Ionization_Penalty_Neutral>
9.39891e-07

> <r_epik_State_Penalty>
-0

> <r_epik_Charging_Adjusted_Penalty>
0

> <i_epik_Tot_Q>
0

> <i_epik_Tot_abs_Q>
0

> <r_epik_Metal_State_Penalty>
-0

> <b_epik_Metal_Only>
0

> <s_lp_Force_Field>
OPLS_2005

> <r_lp_Energy>
13.4574

> <b_lp_Chiralities_Consistent>
1

> <s_lp_Variant>
AV-unprocessed.smi:865-1

> <Gold.Version>
5.8.1

> <Gold.Id.Protein>
6NUR|6NUR_protein|mol2

> <Gold.PLP.Fitness>
46.6962

> <Gold.PLP.PLP>
-38.9947

> <Gold.PLP.part.hbond>
-3.9187

> <Gold.PLP.part.metal>
0.0000

> <Gold.PLP.part.buried>
-1.9269

> <Gold.PLP.part.nonpolar>
-34.0031

> <Gold.PLP.part.repulsive>
0.6145

> <Gold.PLP.ligand.clash>
0.0016

> <Gold.PLP.ligand.torsion>
0.6952

> <Gold.PLP.Chemscore.Hbond>
2.9600

> <Gold.PLP.Chemscore.CHOScore>
0.0000

> <Gold.PLP.Chemscore.Metal>
0.0000

> <Gold.Chemscore.Hbonds>
donor molecule, donor type, donor heavy atom, donor atom, acceptor molecule, acceptor atom, score
      L1  H     7    30       P1  8028  0.98
      L1  H     9    33       P1  8028  0.77
      P1  H  7989  7998       L1    11  1.00

> <Gold.PLP.Chemscore.Internal.Correction>
0.2133

> <Gold.Rescore>
     Score         DG    S(hbond)    S(metal)    S(lipo)     H(rot)  DE(clash)    DE(int)     intcor
      9.80     -13.66       2.41        0.00      84.17       3.80       0.54       3.31       ----

> <Gold.Chemscore.Fitness>
9.8048

> <Gold.Chemscore.DG>
-13.6600

> <Gold.Chemscore.ZeroCoef>
-5.4800

> <Gold.Chemscore.Hbond>
2.4104

> <Gold.Chemscore.Metal>
0.0000

> <Gold.Chemscore.Lipo>
84.1705

> <Gold.Chemscore.Internal_Hbond>
0.0000

> <Gold.Chemscore.DEClash>
0.5439

> <Gold.Chemscore.DEInternal>
3.3113

> <Gold.Chemscore.Rot>
3.7964

> <Gold.Chemscore.Internal.Correction>
   9.000000E+99

> <Gold.Chemscore.Hbonds>
donor molecule, donor type, donor heavy atom, donor atom, acceptor molecule, acceptor atom, score
      L1  H     7    30       P1  8028  0.61
      L1  H     9    33       P1  8028  0.74
      P1  H  7989  7998       L1    11  0.68

> <Gold.Chemscore.Hbond.Weighted>
-8.0508

> <Gold.Chemscore.Metal.Weighted>
-0.0000

> <Gold.Chemscore.Lipo.Weighted>
-9.8480

> <Gold.Chemscore.Internal_Hbond.Weighted>
0.0000

> <Gold.Chemscore.DEClash.Weighted>
0.5439

> <Gold.Chemscore.DEInternal.Weighted>
3.3113

> <Gold.Chemscore.Rot.Weighted>
9.7188

> <Gold.Chemscore.Internal.Correction.Weighted>
   9.000000E+99

> <Gold.Protein.RotatedTorsions>
[ 6907 6896 6895 6894 ] final  -16.34 input  -60.11 | X-H torsion
[ 7974 7965 7964 7962 ] final  -13.33 input  175.53 | X-H torsion
[ 8008 7997 7996 7995 ] final   65.58 input   59.86 | X-H torsion
[ 10167 10162 10161 10158 ] final  -52.75 input  -65.29 | X-H torsion
[ 10718 10713 10712 10709 ] final   -3.37 input   66.30 | X-H torsion
[ 10763 10752 10751 10750 ] final  -16.96 input  -60.55 | X-H torsion
[ 11005 11000 10999 10996 ] final -128.45 input  -57.11 | X-H torsion

> <Gold.Protein.ActiveResidues>
 VAL166  LYS551  ARG553  GLY616  TRP617  ASP618  TYR619  PRO620  LYS621  CYS622 
 ASP623  PHE694  ASN695  SER759  ASP760  ASP761  ALA762  ILE779  LEU786  VAL792 
 PHE793  MET794  SER795  GLU796  ALA797  LYS798  CYS799  TRP800  GLU811  SER814 

> <Gold.Protein.RotatedAtoms>
  151.3100  135.0792  159.9268 H   0  0  0  0  0  0  0  0  0  0  0  0  # atno 6907 bound_to 6896
  152.5279  133.9745  159.7788 H   0  0  0  0  0  0  0  0  0  0  0  0  # atno 6908 bound_to 6896
  151.0047  133.5970  159.2720 H   0  0  0  0  0  0  0  0  0  0  0  0  # atno 6909 bound_to 6896
  146.2118  140.3187  142.8388 H   0  0  0  0  0  0  0  0  0  0  0  0  # atno 7974 bound_to 7965
  155.6639  140.3497  155.4793 H   0  0  0  0  0  0  0  0  0  0  0  0  # atno 8008 bound_to 7997
  155.9745  140.1162  157.0805 H   0  0  0  0  0  0  0  0  0  0  0  0  # atno 8009 bound_to 7997
  154.4175  140.1150  156.5337 H   0  0  0  0  0  0  0  0  0  0  0  0  # atno 8010 bound_to 7997
  140.6521  143.2573  151.4693 H   0  0  0  0  0  0  0  0  0  0  0  0  # atno 10167 bound_to 10162
  156.7770  130.5318  149.5757 H   0  0  0  0  0  0  0  0  0  0  0  0  # atno 10718 bound_to 10713
  153.5665  135.7008  153.5524 H   0  0  0  0  0  0  0  0  0  0  0  0  # atno 10763 bound_to 10752
  153.3383  135.4028  155.1551 H   0  0  0  0  0  0  0  0  0  0  0  0  # atno 10764 bound_to 10752
  154.8640  135.3736  154.5185 H   0  0  0  0  0  0  0  0  0  0  0  0  # atno 10765 bound_to 10752
  140.9515  134.1059  157.4057 H   0  0  0  0  0  0  0  0  0  0  0  0  # atno 11005 bound_to 11000
  144.8936  140.7554  143.5911 LP  0  0  0  0  0  0  0  0  0  0  0  0  # atno 17320 bound_to 7965
  145.3110  139.1818  143.4638 LP  0  0  0  0  0  0  0  0  0  0  0  0  # atno 17321 bound_to 7965
  139.5737  144.1867  152.1874 LP  0  0  0  0  0  0  0  0  0  0  0  0  # atno 17342 bound_to 10162
  140.1172  144.5405  150.6886 LP  0  0  0  0  0  0  0  0  0  0  0  0  # atno 17343 bound_to 10162
  156.1242  130.6132  151.0238 LP  0  0  0  0  0  0  0  0  0  0  0  0  # atno 17370 bound_to 10713
  157.6664  131.0870  150.7717 LP  0  0  0  0  0  0  0  0  0  0  0  0  # atno 17371 bound_to 10713
  139.8849  135.0067  156.6399 LP  0  0  0  0  0  0  0  0  0  0  0  0  # atno 17394 bound_to 11000
  140.7595  133.8829  155.8407 LP  0  0  0  0  0  0  0  0  0  0  0  0  # atno 17395 bound_to 11000

$$$$
