AV-unprocessed.smi:582|AV-procd|sdf|2996|dock3
  -GOLD-   2262023503D 1   1.00000     0.00000
 Structure written by MMmdl.
 27 28  0  0  0  0  0  0  0  0  3 V2000
  151.3179  140.3433  155.2437 O   0  0  0  0  0  0  0  0  0  0  0  0
  151.8485  139.4170  155.8958 C   0  0  0  0  0  0  0  0  0  0  0  0
  152.7257  139.6205  156.7639 O   0  5  0  0  0  0  0  0  0  0  0  0
  151.4155  138.0038  155.6266 C   0  0  0  0  0  0  0  0  0  0  0  0
  151.7659  136.9552  156.5089 C   0  0  0  0  0  0  0  0  0  0  0  0
  151.3456  135.6385  156.2297 C   0  0  0  0  0  0  0  0  0  0  0  0
  150.5783  135.3871  155.0693 C   0  0  0  0  0  0  0  0  0  0  0  0
  150.1177  134.1143  154.7091 N   0  0  0  0  0  0  0  0  0  0  0  0
  150.4796  133.0822  155.6721 C   0  0  0  0  0  0  0  0  0  0  0  0
  150.0327  131.7032  155.1574 C   0  0  0  0  0  0  0  0  0  0  0  0
  148.6348  131.7277  154.8842 O   0  0  0  0  0  0  0  0  0  0  0  0
  148.3004  132.6866  153.8848 C   0  0  0  0  0  0  0  0  0  0  0  0
  148.7013  134.0911  154.3671 C   0  0  0  0  0  0  0  0  0  0  0  0
  150.2635  136.4140  154.2507 N   0  3  0  0  0  0  0  0  0  0  0  0
  150.6467  137.6889  154.4829 C   0  0  0  0  0  0  0  0  0  0  0  0
  152.3524  137.1492  157.3953 H   0  0  0  0  0  0  0  0  0  0  0  0
  151.6129  134.8363  156.9015 H   0  0  0  0  0  0  0  0  0  0  0  0
  151.5584  133.0895  155.8341 H   0  0  0  0  0  0  0  0  0  0  0  0
  150.0062  133.2888  156.6329 H   0  0  0  0  0  0  0  0  0  0  0  0
  150.5855  131.4249  154.2587 H   0  0  0  0  0  0  0  0  0  0  0  0
  150.2356  130.9376  155.9064 H   0  0  0  0  0  0  0  0  0  0  0  0
  148.7991  132.4394  152.9464 H   0  0  0  0  0  0  0  0  0  0  0  0
  147.2275  132.6447  153.6966 H   0  0  0  0  0  0  0  0  0  0  0  0
  148.1041  134.3663  155.2374 H   0  0  0  0  0  0  0  0  0  0  0  0
  148.4972  134.8267  153.5879 H   0  0  0  0  0  0  0  0  0  0  0  0
  150.3266  138.4134  153.7475 H   0  0  0  0  0  0  0  0  0  0  0  0
  149.7097  136.2197  153.4165 H   0  0  0  0  0  0  0  0  0  0  0  0
  1  2  2  0  0  0  0
  2  3  1  0  0  0  0
  2  4  1  0  0  0  0
  4 15  1  0  0  0  0
  4  5  2  0  0  0  0
  5  6  1  0  0  0  0
  5 16  1  0  0  0  0
  6  7  2  0  0  0  0
  6 17  1  0  0  0  0
  7  8  1  0  0  0  0
  7 14  1  0  0  0  0
  8 13  1  0  0  0  0
  8  9  1  0  0  0  0
  9 10  1  0  0  0  0
  9 18  1  0  0  0  0
  9 19  1  0  0  0  0
 10 11  1  0  0  0  0
 10 20  1  0  0  0  0
 10 21  1  0  0  0  0
 11 12  1  0  0  0  0
 12 13  1  0  0  0  0
 12 22  1  0  0  0  0
 12 23  1  0  0  0  0
 13 24  1  0  0  0  0
 13 25  1  0  0  0  0
 14 15  2  0  0  0  0
 14 27  1  0  0  0  0
 15 26  1  0  0  0  0
M  CHG  1   3  -1
M  CHG  1  14   1
M  END
> <s_m_source_file>
AV-unprocessed.smi

> <i_m_source_file_index>
582

> <i_lp_mmshare_version>
43012

> <i_f3d_flags>
0

> <s_epik_input>
Tz1DKFtPSF0pYzFbY0hdW2NIXWMobltjSF0xKU4yW0NIMl1bQ0gyXU9bQ0gyXVtDSDJdMg==

> <s_epik_cmdline>
J2VwaWtfcHl0aG9uJywgJy1waCcsICc3LjAnLCAnLXRuJywgJzgnLCAnLW1hJywgJzIwMCcsICctbWV0YWxfYmluZGluZycsICctaW1hZScsICc8aW5maWxlLm1hZT4nLCAnLW9tYWUnLCAnPG91dGZpbGUubWFlPic=

> <r_epik_Ionization_Penalty>
2.51473

> <r_epik_Ionization_Penalty_Charging>
2.51473

> <r_epik_Ionization_Penalty_Neutral>
3.18713e-12

> <r_epik_State_Penalty>
2.68069

> <r_epik_Charging_Adjusted_Penalty>
5.19543

> <i_epik_Tot_Q>
0

> <i_epik_Tot_abs_Q>
2

> <r_epik_Metal_State_Penalty>
6.76699

> <b_epik_Metal_Only>
0

> <s_lp_Force_Field>
OPLS_2005

> <r_lp_Energy>
18.1108

> <b_lp_Chiralities_Consistent>
1

> <s_lp_Variant>
AV-unprocessed.smi:582-2

> <Gold.Version>
5.8.1

> <Gold.Id.Protein>
6NUR|6NUR_protein|mol2

> <Gold.PLP.Fitness>
37.1302

> <Gold.PLP.PLP>
-22.4520

> <Gold.PLP.part.hbond>
-4.0000

> <Gold.PLP.part.metal>
0.0000

> <Gold.PLP.part.buried>
-1.6369

> <Gold.PLP.part.nonpolar>
-17.3470

> <Gold.PLP.part.repulsive>
0.2335

> <Gold.PLP.ligand.clash>
0.0000

> <Gold.PLP.ligand.torsion>
0.1961

> <Gold.PLP.Chemscore.Hbond>
4.9920

> <Gold.PLP.Chemscore.CHOScore>
0.0000

> <Gold.PLP.Chemscore.Metal>
0.0000

> <Gold.Chemscore.Hbonds>
donor molecule, donor type, donor heavy atom, donor atom, acceptor molecule, acceptor atom, score
      L1  H    14    27       P1  7948  1.90
      P1  H  7989  7998       L1     1  0.99
      P1  H  7997  8009       L1     3  2.00

> <Gold.PLP.Chemscore.Internal.Correction>
0.0944

> <Gold.Rescore>
     Score         DG    S(hbond)    S(metal)    S(lipo)     H(rot)  DE(clash)    DE(int)     intcor
     16.69     -16.84       2.75        0.00      40.55       1.00       0.04       0.11       ----

> <Gold.Chemscore.Fitness>
16.6943

> <Gold.Chemscore.DG>
-16.8385

> <Gold.Chemscore.ZeroCoef>
-5.4800

> <Gold.Chemscore.Hbond>
2.7469

> <Gold.Chemscore.Metal>
0.0000

> <Gold.Chemscore.Lipo>
40.5462

> <Gold.Chemscore.Internal_Hbond>
0.0000

> <Gold.Chemscore.DEClash>
0.0354

> <Gold.Chemscore.DEInternal>
0.1088

> <Gold.Chemscore.Rot>
1.0000

> <Gold.Chemscore.Internal.Correction>
   9.000000E+99

> <Gold.Chemscore.Hbonds>
donor molecule, donor type, donor heavy atom, donor atom, acceptor molecule, acceptor atom, score
      L1  H    14    27       P1  7948  0.22
      P1  H  7989  7998       L1     1  0.93
      P1  H  7997  8009       L1     3  1.00

> <Gold.Chemscore.Hbond.Weighted>
-9.1746

> <Gold.Chemscore.Metal.Weighted>
-0.0000

> <Gold.Chemscore.Lipo.Weighted>
-4.7439

> <Gold.Chemscore.Internal_Hbond.Weighted>
0.0000

> <Gold.Chemscore.DEClash.Weighted>
0.0354

> <Gold.Chemscore.DEInternal.Weighted>
0.1088

> <Gold.Chemscore.Rot.Weighted>
2.5600

> <Gold.Chemscore.Internal.Correction.Weighted>
   9.000000E+99

> <Gold.Protein.RotatedTorsions>
[ 6907 6896 6895 6894 ] final  133.09 input  -60.11 | X-H torsion
[ 7974 7965 7964 7962 ] final -113.44 input  175.53 | X-H torsion
[ 8008 7997 7996 7995 ] final -168.08 input   59.86 | X-H torsion
[ 10167 10162 10161 10158 ] final   52.51 input  -65.29 | X-H torsion
[ 10718 10713 10712 10709 ] final  137.29 input   66.30 | X-H torsion
[ 10763 10752 10751 10750 ] final -155.63 input  -60.55 | X-H torsion
[ 11005 11000 10999 10996 ] final   47.40 input  -57.11 | X-H torsion

> <Gold.Protein.ActiveResidues>
 VAL166  LYS551  ARG553  GLY616  TRP617  ASP618  TYR619  PRO620  LYS621  CYS622 
 ASP623  PHE694  ASN695  SER759  ASP760  ASP761  ALA762  ILE779  LEU786  VAL792 
 PHE793  MET794  SER795  GLU796  ALA797  LYS798  CYS799  TRP800  GLU811  SER814 

> <Gold.Protein.RotatedAtoms>
  152.3256  133.5902  159.5774 H   0  0  0  0  0  0  0  0  0  0  0  0  # atno 6907 bound_to 6896
  150.7395  133.9945  159.3627 H   0  0  0  0  0  0  0  0  0  0  0  0  # atno 6908 bound_to 6896
  151.7825  135.0758  160.0427 H   0  0  0  0  0  0  0  0  0  0  0  0  # atno 6909 bound_to 6896
  145.1320  140.8730  143.3752 H   0  0  0  0  0  0  0  0  0  0  0  0  # atno 7974 bound_to 7965
  155.8866  140.1018  157.1448 H   0  0  0  0  0  0  0  0  0  0  0  0  # atno 8008 bound_to 7997
  154.4010  140.1319  156.4326 H   0  0  0  0  0  0  0  0  0  0  0  0  # atno 8009 bound_to 7997
  155.7582  140.3463  155.5187 H   0  0  0  0  0  0  0  0  0  0  0  0  # atno 8010 bound_to 7997
  140.2506  144.3483  150.6349 H   0  0  0  0  0  0  0  0  0  0  0  0  # atno 10167 bound_to 10162
  157.4376  131.1054  151.0180 H   0  0  0  0  0  0  0  0  0  0  0  0  # atno 10718 bound_to 10713
  154.7772  135.3163  154.8066 H   0  0  0  0  0  0  0  0  0  0  0  0  # atno 10763 bound_to 10752
  153.8786  135.6837  153.4773 H   0  0  0  0  0  0  0  0  0  0  0  0  # atno 10764 bound_to 10752
  153.1399  135.4743  154.9416 H   0  0  0  0  0  0  0  0  0  0  0  0  # atno 10765 bound_to 10752
  140.1283  134.4740  155.8542 H   0  0  0  0  0  0  0  0  0  0  0  0  # atno 11005 bound_to 11000
  145.0625  139.3094  143.5873 LP  0  0  0  0  0  0  0  0  0  0  0  0  # atno 17320 bound_to 7965
  146.3513  140.0071  142.8670 LP  0  0  0  0  0  0  0  0  0  0  0  0  # atno 17321 bound_to 7965
  140.6043  143.2167  151.7011 LP  0  0  0  0  0  0  0  0  0  0  0  0  # atno 17342 bound_to 10162
  139.5047  144.3743  152.0439 LP  0  0  0  0  0  0  0  0  0  0  0  0  # atno 17343 bound_to 10162
  157.1054  130.5999  149.5469 LP  0  0  0  0  0  0  0  0  0  0  0  0  # atno 17370 bound_to 10713
  155.9936  130.4998  150.7388 LP  0  0  0  0  0  0  0  0  0  0  0  0  # atno 17371 bound_to 10713
  141.2165  133.6786  156.7020 LP  0  0  0  0  0  0  0  0  0  0  0  0  # atno 17394 bound_to 11000
  140.2876  134.8267  157.3988 LP  0  0  0  0  0  0  0  0  0  0  0  0  # atno 17395 bound_to 11000

$$$$
