AV-unprocessed.smi:3303|AV-procd|sdf|12685|dock7
  -GOLD-   2272019 23D 1   1.00000     0.00000
 Structure written by MMmdl.
 44 45  0  0  0  0  0  0  0  0  2 V2000
  148.4015  141.6760  154.2239 C   0  0  0  0  0  0  0  0  0  0  0  0
  148.6387  140.1552  154.2205 C   0  0  2  0  0  0  0  0  0  0  0  0
  147.2904  139.4100  154.1283 C   0  0  0  0  0  0  0  0  0  0  0  0
  147.4753  137.9370  154.1345 N   0  3  2  0  0  0  0  0  0  0  0  0
  146.2278  137.1991  153.8325 C   0  0  0  0  0  0  0  0  0  0  0  0
  148.2036  137.4385  155.3351 C   0  0  2  0  0  0  0  0  0  0  0  0
  147.3897  137.5396  156.6435 C   0  0  0  0  0  0  0  0  0  0  0  0
  149.5707  138.1397  155.4409 C   0  0  0  0  0  0  0  0  0  0  0  0
  149.4422  139.6746  155.4535 C   0  0  1  0  0  0  0  0  0  0  0  0
  150.7914  140.2236  155.4088 N   0  0  0  0  0  0  0  0  0  0  0  0
  151.3376  140.4202  156.7443 C   0  0  0  0  0  0  0  0  0  0  0  0
  150.7315  141.6677  157.4091 C   0  0  0  0  0  0  0  0  0  0  0  0
  151.4845  142.1053  158.6552 C   0  0  0  0  0  0  0  0  0  0  0  0
  151.6216  141.2280  159.7521 C   0  0  0  0  0  0  0  0  0  0  0  0
  152.3083  141.6828  160.8944 C   0  0  0  0  0  0  0  0  0  0  0  0
  152.8269  142.9919  160.8978 C   0  0  0  0  0  0  0  0  0  0  0  0
  152.6363  143.7907  159.7529 C   0  0  0  0  0  0  0  0  0  0  0  0
  151.9803  143.3640  158.6523 N   0  0  0  0  0  0  0  0  0  0  0  0
  147.8681  141.9922  155.1208 H   0  0  0  0  0  0  0  0  0  0  0  0
  147.8109  141.9829  153.3604 H   0  0  0  0  0  0  0  0  0  0  0  0
  149.3403  142.2289  154.1815 H   0  0  0  0  0  0  0  0  0  0  0  0
  149.2095  139.9123  153.3224 H   0  0  0  0  0  0  0  0  0  0  0  0
  146.6300  139.7067  154.9435 H   0  0  0  0  0  0  0  0  0  0  0  0
  146.7855  139.6965  153.2046 H   0  0  0  0  0  0  0  0  0  0  0  0
  145.4461  137.4185  154.5601 H   0  0  0  0  0  0  0  0  0  0  0  0
  146.4044  136.1231  153.8278 H   0  0  0  0  0  0  0  0  0  0  0  0
  145.8536  137.4771  152.8468 H   0  0  0  0  0  0  0  0  0  0  0  0
  148.4032  136.3793  155.1671 H   0  0  0  0  0  0  0  0  0  0  0  0
  147.9687  137.1583  157.4851 H   0  0  0  0  0  0  0  0  0  0  0  0
  146.4748  136.9491  156.5988 H   0  0  0  0  0  0  0  0  0  0  0  0
  147.1119  138.5654  156.8835 H   0  0  0  0  0  0  0  0  0  0  0  0
  150.0976  137.7978  156.3329 H   0  0  0  0  0  0  0  0  0  0  0  0
  150.1850  137.8334  154.5922 H   0  0  0  0  0  0  0  0  0  0  0  0
  148.9312  139.9788  156.3685 H   0  0  0  0  0  0  0  0  0  0  0  0
  151.4023  139.6168  154.8806 H   0  0  0  0  0  0  0  0  0  0  0  0
  151.1459  139.5450  157.3662 H   0  0  0  0  0  0  0  0  0  0  0  0
  152.4198  140.5306  156.6668 H   0  0  0  0  0  0  0  0  0  0  0  0
  150.7342  142.4923  156.6954 H   0  0  0  0  0  0  0  0  0  0  0  0
  149.6839  141.4917  157.6585 H   0  0  0  0  0  0  0  0  0  0  0  0
  151.2067  140.2312  159.7223 H   0  0  0  0  0  0  0  0  0  0  0  0
  152.4331  141.0398  161.7531 H   0  0  0  0  0  0  0  0  0  0  0  0
  153.3575  143.3748  161.7568 H   0  0  0  0  0  0  0  0  0  0  0  0
  153.0194  144.7998  159.7207 H   0  0  0  0  0  0  0  0  0  0  0  0
  148.0905  137.7435  153.3568 H   0  0  0  0  0  0  0  0  0  0  0  0
  1  2  1  0  0  0  0
  1 19  1  0  0  0  0
  1 20  1  0  0  0  0
  1 21  1  0  0  0  0
  2  9  1  0  0  0  0
  2  3  1  0  0  0  0
  2 22  1  0  0  0  0
  3  4  1  0  0  0  0
  3 23  1  0  0  0  0
  3 24  1  0  0  0  0
  4  5  1  0  0  0  0
  4  6  1  0  0  0  0
  4 44  1  0  0  0  0
  5 25  1  0  0  0  0
  5 26  1  0  0  0  0
  5 27  1  0  0  0  0
  6  7  1  0  0  0  0
  6  8  1  0  0  0  0
  6 28  1  0  0  0  0
  7 29  1  0  0  0  0
  7 30  1  0  0  0  0
  7 31  1  0  0  0  0
  8  9  1  0  0  0  0
  8 32  1  0  0  0  0
  8 33  1  0  0  0  0
  9 10  1  0  0  0  0
  9 34  1  0  0  0  0
 10 11  1  0  0  0  0
 10 35  1  0  0  0  0
 11 12  1  0  0  0  0
 11 36  1  0  0  0  0
 11 37  1  0  0  0  0
 12 13  1  0  0  0  0
 12 38  1  0  0  0  0
 12 39  1  0  0  0  0
 13 18  1  0  0  0  0
 13 14  2  0  0  0  0
 14 15  1  0  0  0  0
 14 40  1  0  0  0  0
 15 16  2  0  0  0  0
 15 41  1  0  0  0  0
 16 17  1  0  0  0  0
 16 42  1  0  0  0  0
 17 18  2  0  0  0  0
 17 43  1  0  0  0  0
M  CHG  1   4   1
M  END
> <s_m_source_file>
AV-unprocessed.smi

> <i_m_source_file_index>
3303

> <i_lp_mmshare_version>
43012

> <i_f3d_flags>
0

> <s_epik_input>
W0NIM11bQ0BASF0xW0NIMl1OKFtDSDNdKVtDQEBIXShbQ0gzXSlbQ0gyXVtDQEhdMVtOSF1bQ0gyXVtDSDJdYzJbY0hdW2NIXVtjSF1bY0hdbjI=

> <s_epik_cmdline>
J2VwaWtfcHl0aG9uJywgJy1waCcsICc3LjAnLCAnLXRuJywgJzgnLCAnLW1hJywgJzIwMCcsICctbWV0YWxfYmluZGluZycsICctaW1hZScsICc8aW5maWxlLm1hZT4nLCAnLW9tYWUnLCAnPG91dGZpbGUubWFlPic=

> <r_epik_Ionization_Penalty>
2.31085

> <r_epik_Ionization_Penalty_Charging>
0.000313057

> <r_epik_Ionization_Penalty_Neutral>
2.31054

> <r_epik_State_Penalty>
2.4087

> <r_epik_Charging_Adjusted_Penalty>
2.40902

> <i_epik_Tot_Q>
1

> <i_epik_Tot_abs_Q>
1

> <r_epik_Metal_State_Penalty>
2.30979

> <b_epik_Metal_Only>
0

> <s_lp_Force_Field>
OPLS_2005

> <r_lp_Energy>
26.7889

> <b_lp_Chiralities_Consistent>
1

> <s_lp_Variant>
AV-unprocessed.smi:3303-29

> <Gold.Version>
5.8.1

> <Gold.Id.Protein>
6NUR|6NUR_protein|mol2

> <Gold.PLP.Fitness>
40.0026

> <Gold.PLP.PLP>
-34.9630

> <Gold.PLP.part.hbond>
-2.0000

> <Gold.PLP.part.metal>
0.0000

> <Gold.PLP.part.buried>
-2.8678

> <Gold.PLP.part.nonpolar>
-30.0723

> <Gold.PLP.part.repulsive>
0.1251

> <Gold.PLP.ligand.clash>
0.0000

> <Gold.PLP.ligand.torsion>
0.4838

> <Gold.PLP.Chemscore.Hbond>
2.0000

> <Gold.PLP.Chemscore.CHOScore>
0.0000

> <Gold.PLP.Chemscore.Metal>
0.0000

> <Gold.Chemscore.Hbonds>
donor molecule, donor type, donor heavy atom, donor atom, acceptor molecule, acceptor atom, score
      L1  H     4    44       P1  7948  0.71

> <Gold.PLP.Chemscore.Internal.Correction>
0.0072

> <Gold.Rescore>
     Score         DG    S(hbond)    S(metal)    S(lipo)     H(rot)  DE(clash)    DE(int)     intcor
     16.86     -17.32       1.00        0.00     101.79       1.33       0.18       0.27       ----

> <Gold.Chemscore.Fitness>
16.8591

> <Gold.Chemscore.DG>
-17.3159

> <Gold.Chemscore.ZeroCoef>
-5.4800

> <Gold.Chemscore.Hbond>
0.9951

> <Gold.Chemscore.Metal>
0.0000

> <Gold.Chemscore.Lipo>
101.7934

> <Gold.Chemscore.Internal_Hbond>
0.0000

> <Gold.Chemscore.DEClash>
0.1821

> <Gold.Chemscore.DEInternal>
0.2747

> <Gold.Chemscore.Rot>
1.3272

> <Gold.Chemscore.Internal.Correction>
   9.000000E+99

> <Gold.Chemscore.Hbonds>
donor molecule, donor type, donor heavy atom, donor atom, acceptor molecule, acceptor atom, score
      L1  H     4    44       P1  7948  0.35

> <Gold.Chemscore.Hbond.Weighted>
-3.3238

> <Gold.Chemscore.Metal.Weighted>
-0.0000

> <Gold.Chemscore.Lipo.Weighted>
-11.9098

> <Gold.Chemscore.Internal_Hbond.Weighted>
0.0000

> <Gold.Chemscore.DEClash.Weighted>
0.1821

> <Gold.Chemscore.DEInternal.Weighted>
0.2747

> <Gold.Chemscore.Rot.Weighted>
3.3976

> <Gold.Chemscore.Internal.Correction.Weighted>
   9.000000E+99

> <Gold.Protein.RotatedTorsions>
[ 6907 6896 6895 6894 ] final  -38.50 input  -60.11 | X-H torsion
[ 7974 7965 7964 7962 ] final  -90.06 input  175.53 | X-H torsion
[ 8008 7997 7996 7995 ] final   76.74 input   59.86 | X-H torsion
[ 10167 10162 10161 10158 ] final  -79.63 input  -65.29 | X-H torsion
[ 10718 10713 10712 10709 ] final  -75.66 input   66.30 | X-H torsion
[ 10763 10752 10751 10750 ] final  144.17 input  -60.55 | X-H torsion
[ 11005 11000 10999 10996 ] final  -19.88 input  -57.11 | X-H torsion

> <Gold.Protein.ActiveResidues>
 VAL166  LYS551  ARG553  GLY616  TRP617  ASP618  TYR619  PRO620  LYS621  CYS622 
 ASP623  PHE694  ASN695  SER759  ASP760  ASP761  ALA762  ILE779  LEU786  VAL792 
 PHE793  MET794  SER795  GLU796  ALA797  LYS798  CYS799  TRP800  GLU811  SER814 

> <Gold.Protein.RotatedAtoms>
  151.0016  134.9327  159.7956 H   0  0  0  0  0  0  0  0  0  0  0  0  # atno 6907 bound_to 6896
  152.5279  134.3146  159.9136 H   0  0  0  0  0  0  0  0  0  0  0  0  # atno 6908 bound_to 6896
  151.3152  133.4022  159.2684 H   0  0  0  0  0  0  0  0  0  0  0  0  # atno 6909 bound_to 6896
  145.4314  140.9556  143.2125 H   0  0  0  0  0  0  0  0  0  0  0  0  # atno 7974 bound_to 7965
  155.8316  140.3466  155.5576 H   0  0  0  0  0  0  0  0  0  0  0  0  # atno 8008 bound_to 7997
  155.8236  140.0916  157.1854 H   0  0  0  0  0  0  0  0  0  0  0  0  # atno 8009 bound_to 7997
  154.4004  140.1425  156.3516 H   0  0  0  0  0  0  0  0  0  0  0  0  # atno 8010 bound_to 7997
  140.4575  143.2463  151.8397 H   0  0  0  0  0  0  0  0  0  0  0  0  # atno 10167 bound_to 10162
  156.0200  130.4446  150.3076 H   0  0  0  0  0  0  0  0  0  0  0  0  # atno 10718 bound_to 10713
  153.9845  135.2938  155.3417 H   0  0  0  0  0  0  0  0  0  0  0  0  # atno 10763 bound_to 10752
  154.7250  135.5093  153.8875 H   0  0  0  0  0  0  0  0  0  0  0  0  # atno 10764 bound_to 10752
  153.0838  135.6687  154.0105 H   0  0  0  0  0  0  0  0  0  0  0  0  # atno 10765 bound_to 10752
  140.8410  133.7926  155.9860 H   0  0  0  0  0  0  0  0  0  0  0  0  # atno 11005 bound_to 11000
  144.8180  139.5842  143.7000 LP  0  0  0  0  0  0  0  0  0  0  0  0  # atno 17320 bound_to 7965
  146.2605  139.6399  142.9365 LP  0  0  0  0  0  0  0  0  0  0  0  0  # atno 17321 bound_to 7965
  139.4802  144.5047  151.9014 LP  0  0  0  0  0  0  0  0  0  0  0  0  # atno 17342 bound_to 10162
  140.4133  144.2340  150.5888 LP  0  0  0  0  0  0  0  0  0  0  0  0  # atno 17343 bound_to 10162
  157.1178  131.0238  151.3022 LP  0  0  0  0  0  0  0  0  0  0  0  0  # atno 17370 bound_to 10713
  157.4652  130.7677  149.7273 LP  0  0  0  0  0  0  0  0  0  0  0  0  # atno 17371 bound_to 10713
  140.8895  134.2512  157.5102 LP  0  0  0  0  0  0  0  0  0  0  0  0  # atno 17394 bound_to 11000
  139.8703  134.9654  156.4529 LP  0  0  0  0  0  0  0  0  0  0  0  0  # atno 17395 bound_to 11000

$$$$
