AV-unprocessed.smi:31|AV-procd|sdf|195|dock10
  -GOLD-   2262015463D 1   1.00000     0.00000
 Structure written by MMmdl.
 49 52  0  0  0  0  0  0  0  0  1 V2000
  147.2463  139.1851  155.6894 O   0  0  0  0  0  0  0  0  0  0  0  0
  147.6756  139.9600  154.8334 C   0  0  0  0  0  0  0  0  0  0  0  0
  148.4496  141.2235  155.2426 C   0  0  0  0  0  0  0  0  0  0  0  0
  149.7309  140.9361  155.9241 N   0  0  0  0  0  0  0  0  0  0  0  0
  150.6762  140.1022  155.2765 C   0  0  0  0  0  0  0  0  0  0  0  0
  150.4398  139.6037  154.1750 O   0  0  0  0  0  0  0  0  0  0  0  0
  151.9286  139.8939  155.9946 C   0  0  0  0  0  0  0  0  0  0  0  0
  152.8856  139.1210  155.4536 F   0  0  0  0  0  0  0  0  0  0  0  0
  152.1458  140.4711  157.1942 C   0  0  0  0  0  0  0  0  0  0  0  0
  151.2131  141.2818  157.8150 N   0  0  0  0  0  0  0  0  0  0  0  0
  151.5000  141.9343  159.1492 C   0  0  2  0  0  0  0  0  0  0  0  0
  151.5192  143.4595  158.9983 C   0  0  0  0  0  0  0  0  0  0  0  0
  152.9913  143.7317  158.7798 C   0  0  0  0  0  0  0  0  0  0  0  0
  153.6333  142.6693  159.6647 C   0  0  0  0  0  0  0  0  0  0  0  0
  152.7678  141.5393  159.5895 O   0  0  0  0  0  0  0  0  0  0  0  0
  149.9799  141.5413  157.1791 C   0  0  0  0  0  0  0  0  0  0  0  0
  149.1472  142.2869  157.6998 O   0  0  0  0  0  0  0  0  0  0  0  0
  147.5351  139.7820  153.5072 N   0  0  0  0  0  0  0  0  0  0  0  0
  146.8922  138.7154  152.8229 C   0  0  0  0  0  0  0  0  0  0  0  0
  146.8776  138.7632  151.4164 C   0  0  0  0  0  0  0  0  0  0  0  0
  146.2624  137.7368  150.6775 C   0  0  0  0  0  0  0  0  0  0  0  0
  145.6427  136.6504  151.3263 C   0  0  0  0  0  0  0  0  0  0  0  0
  145.5878  136.6318  152.7510 C   0  0  0  0  0  0  0  0  0  0  0  0
  146.2307  137.6523  153.4810 C   0  0  0  0  0  0  0  0  0  0  0  0
  144.9192  135.6797  153.4895 O   0  0  0  0  0  0  0  0  0  0  0  0
  143.7323  135.1576  152.9107 C   0  0  0  0  0  0  0  0  0  0  0  0
  144.0455  134.0145  151.9431 C   0  0  0  0  0  0  0  0  0  0  0  0
  145.2266  134.3338  151.0244 C   0  0  0  0  0  0  0  0  0  0  0  0
  145.1379  135.6569  150.5164 O   0  0  0  0  0  0  0  0  0  0  0  0
  148.6170  141.8347  154.3541 H   0  0  0  0  0  0  0  0  0  0  0  0
  147.7980  141.8378  155.8659 H   0  0  0  0  0  0  0  0  0  0  0  0
  153.0952  140.2881  157.6747 H   0  0  0  0  0  0  0  0  0  0  0  0
  150.7400  141.5655  159.8396 H   0  0  0  0  0  0  0  0  0  0  0  0
  150.8764  143.8078  158.1888 H   0  0  0  0  0  0  0  0  0  0  0  0
  151.1830  143.9064  159.9347 H   0  0  0  0  0  0  0  0  0  0  0  0
  153.2555  143.5658  157.7347 H   0  0  0  0  0  0  0  0  0  0  0  0
  153.2848  144.7464  159.0495 H   0  0  0  0  0  0  0  0  0  0  0  0
  154.6471  142.4186  159.3524 H   0  0  0  0  0  0  0  0  0  0  0  0
  153.6713  143.0113  160.6998 H   0  0  0  0  0  0  0  0  0  0  0  0
  148.0141  140.4486  152.9193 H   0  0  0  0  0  0  0  0  0  0  0  0
  147.3576  139.5786  150.8947 H   0  0  0  0  0  0  0  0  0  0  0  0
  146.2887  137.7706  149.5982 H   0  0  0  0  0  0  0  0  0  0  0  0
  146.1727  137.6182  154.5579 H   0  0  0  0  0  0  0  0  0  0  0  0
  143.0859  134.7940  153.7098 H   0  0  0  0  0  0  0  0  0  0  0  0
  143.1728  135.9494  152.4083 H   0  0  0  0  0  0  0  0  0  0  0  0
  144.2675  133.1041  152.5004 H   0  0  0  0  0  0  0  0  0  0  0  0
  143.1570  133.8025  151.3478 H   0  0  0  0  0  0  0  0  0  0  0  0
  146.1747  134.1886  151.5462 H   0  0  0  0  0  0  0  0  0  0  0  0
  145.2365  133.6378  150.1855 H   0  0  0  0  0  0  0  0  0  0  0  0
  1  2  2  0  0  0  0
  2  3  1  0  0  0  0
  2 18  1  0  0  0  0
  3  4  1  0  0  0  0
  3 30  1  0  0  0  0
  3 31  1  0  0  0  0
  4 16  1  0  0  0  0
  4  5  1  0  0  0  0
  5  6  2  0  0  0  0
  5  7  1  0  0  0  0
  7  8  1  0  0  0  0
  7  9  2  0  0  0  0
  9 10  1  0  0  0  0
  9 32  1  0  0  0  0
 10 11  1  0  0  0  0
 10 16  1  0  0  0  0
 11 15  1  0  0  0  0
 11 12  1  0  0  0  0
 11 33  1  0  0  0  0
 12 13  1  0  0  0  0
 12 34  1  0  0  0  0
 12 35  1  0  0  0  0
 13 14  1  0  0  0  0
 13 36  1  0  0  0  0
 13 37  1  0  0  0  0
 14 15  1  0  0  0  0
 14 38  1  0  0  0  0
 14 39  1  0  0  0  0
 16 17  2  0  0  0  0
 18 19  1  0  0  0  0
 18 40  1  0  0  0  0
 19 24  1  0  0  0  0
 19 20  2  0  0  0  0
 20 21  1  0  0  0  0
 20 41  1  0  0  0  0
 21 22  2  0  0  0  0
 21 42  1  0  0  0  0
 22 29  1  0  0  0  0
 22 23  1  0  0  0  0
 23 24  2  0  0  0  0
 23 25  1  0  0  0  0
 24 43  1  0  0  0  0
 25 26  1  0  0  0  0
 26 27  1  0  0  0  0
 26 44  1  0  0  0  0
 26 45  1  0  0  0  0
 27 28  1  0  0  0  0
 27 46  1  0  0  0  0
 27 47  1  0  0  0  0
 28 29  1  0  0  0  0
 28 48  1  0  0  0  0
 28 49  1  0  0  0  0
M  END
> <s_m_source_file>
AV-unprocessed.smi

> <i_m_source_file_index>
31

> <i_lp_mmshare_version>
43012

> <i_f3d_flags>
0

> <s_epik_input>
TzFbQ0gyXVtDSDJdW0NIMl1PYyhjMTIpW2NIXWMoW2NIXVtjSF0yKVtOSF1DKD1PKVtDSDJdbjNjKD1PKWMoRilbY0hdbihjMz1PKVtDQEBIXTRbQ0gyXVtDSDJdW0NIMl1PNA==

> <s_epik_cmdline>
J2VwaWtfcHl0aG9uJywgJy1waCcsICc3LjAnLCAnLXRuJywgJzgnLCAnLW1hJywgJzIwMCcsICctbWV0YWxfYmluZGluZycsICctaW1hZScsICc8aW5maWxlLm1hZT4nLCAnLW9tYWUnLCAnPG91dGZpbGUubWFlPic=

> <r_lp_tautomer_probability>
1

> <r_epik_Ionization_Penalty>
1.0483e-05

> <r_epik_Ionization_Penalty_Charging>
3.88729e-08

> <r_epik_Ionization_Penalty_Neutral>
1.04441e-05

> <r_epik_State_Penalty>
-0

> <r_epik_Charging_Adjusted_Penalty>
3.88729e-08

> <i_epik_Tot_Q>
0

> <i_epik_Tot_abs_Q>
0

> <r_epik_Metal_State_Penalty>
-0

> <b_epik_Metal_Only>
0

> <s_epik_Chemistry_Notes>
This compound contains an acetal/aminal-like group ( X-CH(R)-Y where X, Y are N, S, or O) that may be acid/base labile, releasing an aldehyde.

> <s_lp_Force_Field>
OPLS_2005

> <r_lp_Energy>
45.2544

> <b_lp_Chiralities_Consistent>
1

> <s_lp_Variant>
AV-unprocessed.smi:31-1

> <Gold.Version>
5.8.1

> <Gold.Id.Protein>
6NUR|6NUR_protein|mol2

> <Gold.PLP.Fitness>
46.3531

> <Gold.PLP.PLP>
-45.2783

> <Gold.PLP.part.hbond>
-1.3795

> <Gold.PLP.part.metal>
0.0000

> <Gold.PLP.part.buried>
4.3766

> <Gold.PLP.part.nonpolar>
-48.6016

> <Gold.PLP.part.repulsive>
0.6473

> <Gold.PLP.ligand.clash>
0.0000

> <Gold.PLP.ligand.torsion>
0.0740

> <Gold.PLP.Chemscore.Hbond>
0.4000

> <Gold.PLP.Chemscore.CHOScore>
0.0000

> <Gold.PLP.Chemscore.Metal>
0.0000

> <Gold.Chemscore.Hbonds>
donor molecule, donor type, donor heavy atom, donor atom, acceptor molecule, acceptor atom, score
      L1  H    18    40       P1  7957  0.05
      P1  H  7989  7998       L1     6  0.35

> <Gold.PLP.Chemscore.Internal.Correction>
0.0228

> <Gold.Rescore>
     Score         DG    S(hbond)    S(metal)    S(lipo)     H(rot)  DE(clash)    DE(int)     intcor
      8.89     -14.94       0.45        0.00     104.06       1.64       2.35       3.70       ----

> <Gold.Chemscore.Fitness>
8.8928

> <Gold.Chemscore.DG>
-14.9448

> <Gold.Chemscore.ZeroCoef>
-5.4800

> <Gold.Chemscore.Hbond>
0.4478

> <Gold.Chemscore.Metal>
0.0000

> <Gold.Chemscore.Lipo>
104.0554

> <Gold.Chemscore.Internal_Hbond>
0.0000

> <Gold.Chemscore.DEClash>
2.3508

> <Gold.Chemscore.DEInternal>
3.7013

> <Gold.Chemscore.Rot>
1.6427

> <Gold.Chemscore.Internal.Correction>
   9.000000E+99

> <Gold.Chemscore.Hbonds>
donor molecule, donor type, donor heavy atom, donor atom, acceptor molecule, acceptor atom, score
      L1  H    18    40       P1  7957  0.07
      P1  H  7989  7998       L1     6  0.01

> <Gold.Chemscore.Hbond.Weighted>
-1.4957

> <Gold.Chemscore.Metal.Weighted>
-0.0000

> <Gold.Chemscore.Lipo.Weighted>
-12.1745

> <Gold.Chemscore.Internal_Hbond.Weighted>
0.0000

> <Gold.Chemscore.DEClash.Weighted>
2.3508

> <Gold.Chemscore.DEInternal.Weighted>
3.7013

> <Gold.Chemscore.Rot.Weighted>
4.2053

> <Gold.Chemscore.Internal.Correction.Weighted>
   9.000000E+99

> <Gold.Protein.RotatedTorsions>
[ 6907 6896 6895 6894 ] final -172.12 input  -60.11 | X-H torsion
[ 7974 7965 7964 7962 ] final  166.67 input  175.53 | X-H torsion
[ 8008 7997 7996 7995 ] final   13.88 input   59.86 | X-H torsion
[ 10167 10162 10161 10158 ] final   87.79 input  -65.29 | X-H torsion
[ 10718 10713 10712 10709 ] final   62.42 input   66.30 | X-H torsion
[ 10763 10752 10751 10750 ] final  147.70 input  -60.55 | X-H torsion
[ 11005 11000 10999 10996 ] final  -46.53 input  -57.11 | X-H torsion

> <Gold.Protein.ActiveResidues>
 VAL166  LYS551  ARG553  GLY616  TRP617  ASP618  TYR619  PRO620  LYS621  CYS622 
 ASP623  PHE694  ASN695  SER759  ASP760  ASP761  ALA762  ILE779  LEU786  VAL792 
 PHE793  MET794  SER795  GLU796  ALA797  LYS798  CYS799  TRP800  GLU811  SER814 

> <Gold.Protein.RotatedAtoms>
  151.5349  133.3443  159.2924 H   0  0  0  0  0  0  0  0  0  0  0  0  # atno 6907 bound_to 6896
  150.8571  134.7915  159.7065 H   0  0  0  0  0  0  0  0  0  0  0  0  # atno 6908 bound_to 6896
  152.4601  134.5211  159.9834 H   0  0  0  0  0  0  0  0  0  0  0  0  # atno 6909 bound_to 6896
  144.7453  139.8649  143.6384 H   0  0  0  0  0  0  0  0  0  0  0  0  # atno 7974 bound_to 7965
  154.8406  140.2914  155.5662 H   0  0  0  0  0  0  0  0  0  0  0  0  # atno 8008 bound_to 7997
  156.3011  140.2514  156.3279 H   0  0  0  0  0  0  0  0  0  0  0  0  # atno 8009 bound_to 7997
  154.9129  140.0388  157.1945 H   0  0  0  0  0  0  0  0  0  0  0  0  # atno 8010 bound_to 7997
  139.8738  144.6478  150.8920 H   0  0  0  0  0  0  0  0  0  0  0  0  # atno 10167 bound_to 10162
  157.5899  130.9049  149.9586 H   0  0  0  0  0  0  0  0  0  0  0  0  # atno 10718 bound_to 10713
  154.0427  135.2888  155.3352 H   0  0  0  0  0  0  0  0  0  0  0  0  # atno 10763 bound_to 10752
  154.6919  135.5223  153.8407 H   0  0  0  0  0  0  0  0  0  0  0  0  # atno 10764 bound_to 10752
  153.0593  135.6607  154.0629 H   0  0  0  0  0  0  0  0  0  0  0  0  # atno 10765 bound_to 10752
  141.0585  133.6717  156.3169 H   0  0  0  0  0  0  0  0  0  0  0  0  # atno 11005 bound_to 11000
  146.1322  139.4359  143.0162 LP  0  0  0  0  0  0  0  0  0  0  0  0  # atno 17320 bound_to 7965
  145.7146  141.0095  143.1435 LP  0  0  0  0  0  0  0  0  0  0  0  0  # atno 17321 bound_to 7965
  140.7756  143.3642  151.1771 LP  0  0  0  0  0  0  0  0  0  0  0  0  # atno 17342 bound_to 10162
  139.7259  143.9149  152.3002 LP  0  0  0  0  0  0  0  0  0  0  0  0  # atno 17343 bound_to 10162
  156.0953  130.3660  150.0318 LP  0  0  0  0  0  0  0  0  0  0  0  0  # atno 17370 bound_to 10713
  156.8443  130.9436  151.3630 LP  0  0  0  0  0  0  0  0  0  0  0  0  # atno 17371 bound_to 10713
  140.5916  134.5644  157.5500 LP  0  0  0  0  0  0  0  0  0  0  0  0  # atno 17394 bound_to 11000
  139.9411  134.7785  156.0676 LP  0  0  0  0  0  0  0  0  0  0  0  0  # atno 17395 bound_to 11000

$$$$
