AV-unprocessed.smi:1244|AV-procd|sdf|5229|dock7
  -GOLD-   22720 4333D 1   1.00000     0.00000
 Structure written by MMmdl.
 55 57  0  0  0  0  0  0  0  0  2 V2000
  149.9554  143.2391  157.9799 C   0  0  0  0  0  0  0  0  0  0  0  0
  150.9317  142.1597  157.5015 C   0  0  2  0  0  0  0  0  0  0  0  0
  150.2286  141.0551  156.6900 C   0  0  0  0  0  0  0  0  0  0  0  0
  151.1513  139.9952  156.3024 N   0  0  0  0  0  0  0  0  0  0  0  0
  150.4742  138.9662  155.5123 C   0  0  0  0  0  0  0  0  0  0  0  0
  151.4043  137.9367  154.8388 C   0  0  0  0  0  0  0  0  0  0  0  0
  150.6533  136.8347  154.2462 N   0  0  0  0  0  0  0  0  0  0  0  0
  150.6079  135.5862  154.7299 C   0  0  0  0  0  0  0  0  0  0  0  0
  151.2668  135.2028  155.6965 O   0  0  0  0  0  0  0  0  0  0  0  0
  149.7326  134.8325  154.0451 N   0  0  0  0  0  0  0  0  0  0  0  0
  149.3364  133.4951  154.3241 C   0  0  0  0  0  0  0  0  0  0  0  0
  150.1266  132.6352  155.1282 C   0  0  0  0  0  0  0  0  0  0  0  0
  149.6971  131.3164  155.3721 C   0  0  0  0  0  0  0  0  0  0  0  0
  148.4895  130.8757  154.8018 C   0  0  0  0  0  0  0  0  0  0  0  0
  147.7686  131.7149  154.0291 N   0  3  0  0  0  0  0  0  0  0  0  0
  148.1316  132.9935  153.7612 C   0  0  0  0  0  0  0  0  0  0  0  0
  147.3107  133.7755  152.9215 N   0  0  0  0  0  0  0  0  0  0  0  0
  147.1670  133.2491  151.5667 C   0  0  0  0  0  0  0  0  0  0  0  0
  145.7297  133.5492  151.1353 C   0  0  0  0  0  0  0  0  0  0  0  0
  144.9752  133.6020  152.4582 C   0  0  0  0  0  0  0  0  0  0  0  0
  146.0042  134.2249  153.3997 C   0  0  0  0  0  0  0  0  0  0  0  0
  151.7870  139.4569  157.5014 C   0  0  0  0  0  0  0  0  0  0  0  0
  152.4917  140.5564  158.3190 C   0  0  2  0  0  0  0  0  0  0  0  0
  153.0885  140.0166  159.6229 C   0  0  0  0  0  0  0  0  0  0  0  0
  151.5493  141.5744  158.6448 O   0  0  0  0  0  0  0  0  0  0  0  0
  149.4660  143.7272  157.1368 H   0  0  0  0  0  0  0  0  0  0  0  0
  150.4748  144.0075  158.5530 H   0  0  0  0  0  0  0  0  0  0  0  0
  149.1799  142.8146  158.6180 H   0  0  0  0  0  0  0  0  0  0  0  0
  151.7010  142.6305  156.8867 H   0  0  0  0  0  0  0  0  0  0  0  0
  149.4102  140.6352  157.2775 H   0  0  0  0  0  0  0  0  0  0  0  0
  149.7785  141.4951  155.7991 H   0  0  0  0  0  0  0  0  0  0  0  0
  149.7460  138.4429  156.1336 H   0  0  0  0  0  0  0  0  0  0  0  0
  149.8944  139.4520  154.7265 H   0  0  0  0  0  0  0  0  0  0  0  0
  151.9969  138.4093  154.0558 H   0  0  0  0  0  0  0  0  0  0  0  0
  152.1212  137.5507  155.5650 H   0  0  0  0  0  0  0  0  0  0  0  0
  150.0783  137.0590  153.4476 H   0  0  0  0  0  0  0  0  0  0  0  0
  149.1938  135.3107  153.3382 H   0  0  0  0  0  0  0  0  0  0  0  0
  151.0623  132.9661  155.5533 H   0  0  0  0  0  0  0  0  0  0  0  0
  150.2888  130.6522  155.9849 H   0  0  0  0  0  0  0  0  0  0  0  0
  148.0846  129.8826  154.9323 H   0  0  0  0  0  0  0  0  0  0  0  0
  147.8861  133.7074  150.8875 H   0  0  0  0  0  0  0  0  0  0  0  0
  147.3408  132.1715  151.5618 H   0  0  0  0  0  0  0  0  0  0  0  0
  145.6850  134.5241  150.6476 H   0  0  0  0  0  0  0  0  0  0  0  0
  145.3296  132.8070  150.4440 H   0  0  0  0  0  0  0  0  0  0  0  0
  144.0497  134.1757  152.4007 H   0  0  0  0  0  0  0  0  0  0  0  0
  144.7305  132.5912  152.7878 H   0  0  0  0  0  0  0  0  0  0  0  0
  145.7942  133.9880  154.4428 H   0  0  0  0  0  0  0  0  0  0  0  0
  145.9766  135.3117  153.3123 H   0  0  0  0  0  0  0  0  0  0  0  0
  151.0400  138.9612  158.1236 H   0  0  0  0  0  0  0  0  0  0  0  0
  152.5209  138.6986  157.2298 H   0  0  0  0  0  0  0  0  0  0  0  0
  153.2931  140.9961  157.7225 H   0  0  0  0  0  0  0  0  0  0  0  0
  153.8283  139.2407  159.4246 H   0  0  0  0  0  0  0  0  0  0  0  0
  152.3161  139.5885  160.2625 H   0  0  0  0  0  0  0  0  0  0  0  0
  153.5823  140.8110  160.1831 H   0  0  0  0  0  0  0  0  0  0  0  0
  146.9021  131.3645  153.6202 H   0  0  0  0  0  0  0  0  0  0  0  0
  1  2  1  0  0  0  0
  1 26  1  0  0  0  0
  1 27  1  0  0  0  0
  1 28  1  0  0  0  0
  2 25  1  0  0  0  0
  2  3  1  0  0  0  0
  2 29  1  0  0  0  0
  3  4  1  0  0  0  0
  3 30  1  0  0  0  0
  3 31  1  0  0  0  0
  4  5  1  0  0  0  0
  4 22  1  0  0  0  0
  5  6  1  0  0  0  0
  5 32  1  0  0  0  0
  5 33  1  0  0  0  0
  6  7  1  0  0  0  0
  6 34  1  0  0  0  0
  6 35  1  0  0  0  0
  7  8  1  0  0  0  0
  7 36  1  0  0  0  0
  8  9  2  0  0  0  0
  8 10  1  0  0  0  0
 10 11  1  0  0  0  0
 10 37  1  0  0  0  0
 11 16  1  0  0  0  0
 11 12  2  0  0  0  0
 12 13  1  0  0  0  0
 12 38  1  0  0  0  0
 13 14  2  0  0  0  0
 13 39  1  0  0  0  0
 14 15  1  0  0  0  0
 14 40  1  0  0  0  0
 15 16  2  0  0  0  0
 15 55  1  0  0  0  0
 16 17  1  0  0  0  0
 17 21  1  0  0  0  0
 17 18  1  0  0  0  0
 18 19  1  0  0  0  0
 18 41  1  0  0  0  0
 18 42  1  0  0  0  0
 19 20  1  0  0  0  0
 19 43  1  0  0  0  0
 19 44  1  0  0  0  0
 20 21  1  0  0  0  0
 20 45  1  0  0  0  0
 20 46  1  0  0  0  0
 21 47  1  0  0  0  0
 21 48  1  0  0  0  0
 22 23  1  0  0  0  0
 22 49  1  0  0  0  0
 22 50  1  0  0  0  0
 23 24  1  0  0  0  0
 23 25  1  0  0  0  0
 23 51  1  0  0  0  0
 24 52  1  0  0  0  0
 24 53  1  0  0  0  0
 24 54  1  0  0  0  0
M  CHG  1  15   1
M  END
> <s_m_source_file>
AV-unprocessed.smi

> <i_m_source_file_index>
1244

> <i_lp_mmshare_version>
43012

> <i_f3d_flags>
0

> <s_epik_input>
W0NIM11bQ0BASF0xW0NIMl1OKFtDSDJdW0NASF0oTzEpW0NIM10pW0NIMl1bQ0gyXVtOSF1DKD1PKVtOSF1jMltjSF1bY0hdW2NIXW5jMk4zW0NIMl1bQ0gyXVtDSDJdW0NIMl0z

> <s_epik_cmdline>
J2VwaWtfcHl0aG9uJywgJy1waCcsICc3LjAnLCAnLXRuJywgJzgnLCAnLW1hJywgJzIwMCcsICctbWV0YWxfYmluZGluZycsICctaW1hZScsICc8aW5maWxlLm1hZT4nLCAnLW9tYWUnLCAnPG91dGZpbGUubWFlPic=

> <r_epik_Ionization_Penalty>
1.38385

> <r_epik_Ionization_Penalty_Charging>
1.11784

> <r_epik_Ionization_Penalty_Neutral>
0.26601

> <r_epik_State_Penalty>
1.46794

> <r_epik_Charging_Adjusted_Penalty>
2.58578

> <i_epik_Tot_Q>
1

> <i_epik_Tot_abs_Q>
1

> <r_epik_Metal_State_Penalty>
1.54908

> <b_epik_Metal_Only>
0

> <s_lp_Force_Field>
OPLS_2005

> <r_lp_Energy>
57.7362

> <b_lp_Chiralities_Consistent>
1

> <s_lp_Variant>
AV-unprocessed.smi:1244-9

> <Gold.Version>
5.8.1

> <Gold.Id.Protein>
6NUR|6NUR_protein|mol2

> <Gold.PLP.Fitness>
42.7495

> <Gold.PLP.PLP>
-35.1458

> <Gold.PLP.part.hbond>
-4.6982

> <Gold.PLP.part.metal>
0.0000

> <Gold.PLP.part.buried>
-3.1427

> <Gold.PLP.part.nonpolar>
-28.5483

> <Gold.PLP.part.repulsive>
0.3317

> <Gold.PLP.ligand.clash>
0.0000

> <Gold.PLP.ligand.torsion>
0.3146

> <Gold.PLP.Chemscore.Hbond>
2.6881

> <Gold.PLP.Chemscore.CHOScore>
0.0000

> <Gold.PLP.Chemscore.Metal>
0.0000

> <Gold.Chemscore.Hbonds>
donor molecule, donor type, donor heavy atom, donor atom, acceptor molecule, acceptor atom, score
      L1  H     7    36       P1  7948  0.76
      L1  H    10    37       P1  7948  1.00
      P1  H 10752 10765       L1     9  0.90

> <Gold.PLP.Chemscore.Internal.Correction>
0.1686

> <Gold.Rescore>
     Score         DG    S(hbond)    S(metal)    S(lipo)     H(rot)  DE(clash)    DE(int)     intcor
     15.21     -17.03       1.50        0.00      90.46       1.58       0.23       1.59       ----

> <Gold.Chemscore.Fitness>
15.2089

> <Gold.Chemscore.DG>
-17.0261

> <Gold.Chemscore.ZeroCoef>
-5.4800

> <Gold.Chemscore.Hbond>
1.4990

> <Gold.Chemscore.Metal>
0.0000

> <Gold.Chemscore.Lipo>
90.4562

> <Gold.Chemscore.Internal_Hbond>
0.0000

> <Gold.Chemscore.DEClash>
0.2314

> <Gold.Chemscore.DEInternal>
1.5857

> <Gold.Chemscore.Rot>
1.5797

> <Gold.Chemscore.Internal.Correction>
   9.000000E+99

> <Gold.Chemscore.Hbonds>
donor molecule, donor type, donor heavy atom, donor atom, acceptor molecule, acceptor atom, score
      L1  H     7    36       P1  7948  0.16
      L1  H    10    37       P1  7948  0.25
      P1  H 10752 10765       L1     9  0.17

> <Gold.Chemscore.Hbond.Weighted>
-5.0066

> <Gold.Chemscore.Metal.Weighted>
-0.0000

> <Gold.Chemscore.Lipo.Weighted>
-10.5834

> <Gold.Chemscore.Internal_Hbond.Weighted>
0.0000

> <Gold.Chemscore.DEClash.Weighted>
0.2314

> <Gold.Chemscore.DEInternal.Weighted>
1.5857

> <Gold.Chemscore.Rot.Weighted>
4.0439

> <Gold.Chemscore.Internal.Correction.Weighted>
   9.000000E+99

> <Gold.Protein.RotatedTorsions>
[ 6907 6896 6895 6894 ] final  100.81 input  -60.11 | X-H torsion
[ 7974 7965 7964 7962 ] final -136.10 input  175.53 | X-H torsion
[ 8008 7997 7996 7995 ] final  -48.81 input   59.86 | X-H torsion
[ 10167 10162 10161 10158 ] final  101.78 input  -65.29 | X-H torsion
[ 10718 10713 10712 10709 ] final  103.42 input   66.30 | X-H torsion
[ 10763 10752 10751 10750 ] final -157.49 input  -60.55 | X-H torsion
[ 11005 11000 10999 10996 ] final  -47.89 input  -57.11 | X-H torsion

> <Gold.Protein.ActiveResidues>
 VAL166  LYS551  ARG553  GLY616  TRP617  ASP618  TYR619  PRO620  LYS621  CYS622 
 ASP623  PHE694  ASN695  SER759  ASP760  ASP761  ALA762  ILE779  LEU786  VAL792 
 PHE793  MET794  SER795  GLU796  ALA797  LYS798  CYS799  TRP800  GLU811  SER814 

> <Gold.Protein.RotatedAtoms>
  152.5364  134.0220  159.7985 H   0  0  0  0  0  0  0  0  0  0  0  0  # atno 6907 bound_to 6896
  151.0405  133.5703  159.2659 H   0  0  0  0  0  0  0  0  0  0  0  0  # atno 6908 bound_to 6896
  151.2674  135.0681  159.9175 H   0  0  0  0  0  0  0  0  0  0  0  0  # atno 6909 bound_to 6896
  144.8957  140.6703  143.5117 H   0  0  0  0  0  0  0  0  0  0  0  0  # atno 7974 bound_to 7965
  154.4034  140.1312  156.4401 H   0  0  0  0  0  0  0  0  0  0  0  0  # atno 8008 bound_to 7997
  155.7467  140.3489  155.5110 H   0  0  0  0  0  0  0  0  0  0  0  0  # atno 8009 bound_to 7997
  155.8988  140.1016  157.1355 H   0  0  0  0  0  0  0  0  0  0  0  0  # atno 8010 bound_to 7997
  139.7408  144.7012  151.0579 H   0  0  0  0  0  0  0  0  0  0  0  0  # atno 10167 bound_to 10162
  157.6773  131.0778  150.5553 H   0  0  0  0  0  0  0  0  0  0  0  0  # atno 10718 bound_to 10713
  154.7632  135.3123  154.8338 H   0  0  0  0  0  0  0  0  0  0  0  0  # atno 10763 bound_to 10752
  153.9093  135.6807  153.4756 H   0  0  0  0  0  0  0  0  0  0  0  0  # atno 10764 bound_to 10752
  153.1235  135.4812  154.9166 H   0  0  0  0  0  0  0  0  0  0  0  0  # atno 10765 bound_to 10752
  141.0668  133.6691  156.3362 H   0  0  0  0  0  0  0  0  0  0  0  0  # atno 11005 bound_to 11000
  145.3705  139.1660  143.4334 LP  0  0  0  0  0  0  0  0  0  0  0  0  # atno 17320 bound_to 7965
  146.3079  140.3776  142.8680 LP  0  0  0  0  0  0  0  0  0  0  0  0  # atno 17321 bound_to 7965
  140.7785  143.4927  150.9872 LP  0  0  0  0  0  0  0  0  0  0  0  0  # atno 17342 bound_to 10162
  139.8615  143.7308  152.3173 LP  0  0  0  0  0  0  0  0  0  0  0  0  # atno 17343 bound_to 10162
  156.5857  130.4316  149.5958 LP  0  0  0  0  0  0  0  0  0  0  0  0  # atno 17370 bound_to 10713
  156.2625  130.6970  151.1743 LP  0  0  0  0  0  0  0  0  0  0  0  0  # atno 17371 bound_to 10713
  140.5757  134.5796  157.5468 LP  0  0  0  0  0  0  0  0  0  0  0  0  # atno 17394 bound_to 11000
  139.9484  134.7661  156.0507 LP  0  0  0  0  0  0  0  0  0  0  0  0  # atno 17395 bound_to 11000

$$$$
