AV-unprocessed.smi:1165|AV-procd|sdf|4929|dock10
  -GOLD-   22720 3513D 1   1.00000     0.00000
 Structure written by MMmdl.
 41 42  0  0  0  0  0  0  0  0  1 V2000
  153.6414  141.5262  160.7189 C   0  0  0  0  0  0  0  0  0  0  0  0
  153.0153  141.5514  159.3204 C   0  0  1  0  0  0  0  0  0  0  0  0
  151.9208  140.4770  159.1597 C   0  0  0  0  0  0  0  0  0  0  0  0
  151.2321  140.6119  157.8654 N   0  0  0  0  0  0  0  0  0  0  0  0
  151.7350  139.6183  156.5303 S   0  0  0  0  0  0  0  0  0  0  0  0
  151.1317  140.1349  155.2923 O   0  0  0  0  0  0  0  0  0  0  0  0
  153.1852  139.3911  156.6238 O   0  0  0  0  0  0  0  0  0  0  0  0
  150.9377  138.1487  156.9394 N   0  0  0  0  0  0  0  0  0  0  0  0
  151.3897  136.9085  156.3178 C   0  0  0  0  0  0  0  0  0  0  0  0
  150.2460  136.2770  155.5145 C   0  0  0  0  0  0  0  0  0  0  0  0
  150.3884  134.7722  155.4032 C   0  0  0  0  0  0  0  0  0  0  0  0
  151.2916  134.0698  156.2274 C   0  0  0  0  0  0  0  0  0  0  0  0
  151.3903  132.6721  156.0886 C   0  0  0  0  0  0  0  0  0  0  0  0
  150.5796  132.0349  155.1280 C   0  0  0  0  0  0  0  0  0  0  0  0
  149.7123  132.6977  154.3324 N   0  0  0  0  0  0  0  0  0  0  0  0
  149.6238  134.0380  154.4720 C   0  0  0  0  0  0  0  0  0  0  0  0
  150.7685  141.9839  157.5999 C   0  0  0  0  0  0  0  0  0  0  0  0
  151.9078  143.0016  157.8085 C   0  0  1  0  0  0  0  0  0  0  0  0
  151.4201  144.4475  157.6688 C   0  0  0  0  0  0  0  0  0  0  0  0
  152.4510  142.8409  159.1133 O   0  0  0  0  0  0  0  0  0  0  0  0
  154.1043  140.5608  160.9240 H   0  0  0  0  0  0  0  0  0  0  0  0
  152.8925  141.7094  161.4902 H   0  0  0  0  0  0  0  0  0  0  0  0
  154.4121  142.2916  160.8147 H   0  0  0  0  0  0  0  0  0  0  0  0
  153.8097  141.3885  158.5913 H   0  0  0  0  0  0  0  0  0  0  0  0
  152.3407  139.4768  159.2643 H   0  0  0  0  0  0  0  0  0  0  0  0
  151.1798  140.5863  159.9526 H   0  0  0  0  0  0  0  0  0  0  0  0
  149.9231  138.2483  156.9337 H   0  0  0  0  0  0  0  0  0  0  0  0
  152.2416  137.1229  155.6715 H   0  0  0  0  0  0  0  0  0  0  0  0
  151.7330  136.2247  157.0951 H   0  0  0  0  0  0  0  0  0  0  0  0
  149.2881  136.5062  155.9835 H   0  0  0  0  0  0  0  0  0  0  0  0
  150.2090  136.7075  154.5127 H   0  0  0  0  0  0  0  0  0  0  0  0
  151.8987  134.5914  156.9528 H   0  0  0  0  0  0  0  0  0  0  0  0
  152.0711  132.1014  156.7029 H   0  0  0  0  0  0  0  0  0  0  0  0
  150.6294  130.9642  154.9950 H   0  0  0  0  0  0  0  0  0  0  0  0
  148.9224  134.5381  153.8204 H   0  0  0  0  0  0  0  0  0  0  0  0
  150.3608  142.0588  156.5920 H   0  0  0  0  0  0  0  0  0  0  0  0
  149.9484  142.2055  158.2841 H   0  0  0  0  0  0  0  0  0  0  0  0
  152.6951  142.8399  157.0718 H   0  0  0  0  0  0  0  0  0  0  0  0
  151.0045  144.6273  156.6769 H   0  0  0  0  0  0  0  0  0  0  0  0
  152.2396  145.1510  157.8180 H   0  0  0  0  0  0  0  0  0  0  0  0
  150.6471  144.6767  158.4028 H   0  0  0  0  0  0  0  0  0  0  0  0
  1  2  1  0  0  0  0
  1 21  1  0  0  0  0
  1 22  1  0  0  0  0
  1 23  1  0  0  0  0
  2 20  1  0  0  0  0
  2  3  1  0  0  0  0
  2 24  1  0  0  0  0
  3  4  1  0  0  0  0
  3 25  1  0  0  0  0
  3 26  1  0  0  0  0
  4  5  1  0  0  0  0
  4 17  1  0  0  0  0
  5  6  2  0  0  0  0
  5  7  2  0  0  0  0
  5  8  1  0  0  0  0
  8  9  1  0  0  0  0
  8 27  1  0  0  0  0
  9 10  1  0  0  0  0
  9 28  1  0  0  0  0
  9 29  1  0  0  0  0
 10 11  1  0  0  0  0
 10 30  1  0  0  0  0
 10 31  1  0  0  0  0
 11 16  1  0  0  0  0
 11 12  2  0  0  0  0
 12 13  1  0  0  0  0
 12 32  1  0  0  0  0
 13 14  2  0  0  0  0
 13 33  1  0  0  0  0
 14 15  1  0  0  0  0
 14 34  1  0  0  0  0
 15 16  2  0  0  0  0
 16 35  1  0  0  0  0
 17 18  1  0  0  0  0
 17 36  1  0  0  0  0
 17 37  1  0  0  0  0
 18 19  1  0  0  0  0
 18 20  1  0  0  0  0
 18 38  1  0  0  0  0
 19 39  1  0  0  0  0
 19 40  1  0  0  0  0
 19 41  1  0  0  0  0
M  END
> <s_m_source_file>
AV-unprocessed.smi

> <i_m_source_file_index>
1165

> <i_lp_mmshare_version>
43012

> <i_f3d_flags>
0

> <s_epik_input>
W0NIM11bQ0BASF0xW0NIMl1OKFtDSDJdW0NASF0oTzEpW0NIM10pUyg9TykoPU8pW05IXVtDSDJdW0NIMl1jMltjSF1bY0hdW2NIXW5bY0hdMg==

> <s_epik_cmdline>
J2VwaWtfcHl0aG9uJywgJy1waCcsICc3LjAnLCAnLXRuJywgJzgnLCAnLW1hJywgJzIwMCcsICctbWV0YWxfYmluZGluZycsICctaW1hZScsICc8aW5maWxlLm1hZT4nLCAnLW9tYWUnLCAnPG91dGZpbGUubWFlPic=

> <r_epik_Ionization_Penalty>
0.0861056

> <r_epik_Ionization_Penalty_Charging>
0

> <r_epik_Ionization_Penalty_Neutral>
0.0861056

> <r_epik_State_Penalty>
0.0574425

> <r_epik_Charging_Adjusted_Penalty>
0.0574425

> <i_epik_Tot_Q>
0

> <i_epik_Tot_abs_Q>
0

> <r_epik_Metal_State_Penalty>
0.317425

> <b_epik_Metal_Only>
0

> <s_lp_Force_Field>
OPLS_2005

> <r_lp_Energy>
3.52917

> <b_lp_Chiralities_Consistent>
1

> <s_lp_Variant>
AV-unprocessed.smi:1165-2

> <Gold.Version>
5.8.1

> <Gold.Id.Protein>
6NUR|6NUR_protein|mol2

> <Gold.PLP.Fitness>
42.5748

> <Gold.PLP.PLP>
-35.7103

> <Gold.PLP.part.hbond>
-1.7966

> <Gold.PLP.part.metal>
0.0000

> <Gold.PLP.part.buried>
-6.7253

> <Gold.PLP.part.nonpolar>
-27.6298

> <Gold.PLP.part.repulsive>
0.1246

> <Gold.PLP.ligand.clash>
0.0000

> <Gold.PLP.ligand.torsion>
2.1210

> <Gold.PLP.Chemscore.Hbond>
2.0000

> <Gold.PLP.Chemscore.CHOScore>
1.0000

> <Gold.PLP.Chemscore.Metal>
0.0000

> <Gold.Chemscore.Hbonds>
donor molecule, donor type, donor heavy atom, donor atom, acceptor molecule, acceptor atom, score
      P1  H  7989  7998       L1     6  1.00
      P1  H  7997  8009       L1     7  0.77
      L1  C    16    35       P1  7948  0.95

> <Gold.PLP.Chemscore.Internal.Correction>
2.1065

> <Gold.Rescore>
     Score         DG    S(hbond)    S(metal)    S(lipo)     H(rot)  DE(clash)    DE(int)     intcor
     16.12     -18.38       1.91        0.00      88.97       1.52       0.24       2.02       ----

> <Gold.Chemscore.Fitness>
16.1199

> <Gold.Chemscore.DG>
-18.3791

> <Gold.Chemscore.ZeroCoef>
-5.4800

> <Gold.Chemscore.Hbond>
1.9083

> <Gold.Chemscore.Metal>
0.0000

> <Gold.Chemscore.Lipo>
88.9707

> <Gold.Chemscore.Internal_Hbond>
0.0000

> <Gold.Chemscore.DEClash>
0.2378

> <Gold.Chemscore.DEInternal>
2.0213

> <Gold.Chemscore.Rot>
1.5172

> <Gold.Chemscore.Internal.Correction>
   9.000000E+99

> <Gold.Chemscore.Hbonds>
donor molecule, donor type, donor heavy atom, donor atom, acceptor molecule, acceptor atom, score
      P1  H  7989  7998       L1     6  0.95
      P1  H  7997  8009       L1     7  0.72

> <Gold.Chemscore.Hbond.Weighted>
-6.3737

> <Gold.Chemscore.Metal.Weighted>
-0.0000

> <Gold.Chemscore.Lipo.Weighted>
-10.4096

> <Gold.Chemscore.Internal_Hbond.Weighted>
0.0000

> <Gold.Chemscore.DEClash.Weighted>
0.2378

> <Gold.Chemscore.DEInternal.Weighted>
2.0213

> <Gold.Chemscore.Rot.Weighted>
3.8841

> <Gold.Chemscore.Internal.Correction.Weighted>
   9.000000E+99

> <Gold.Protein.RotatedTorsions>
[ 6907 6896 6895 6894 ] final    4.06 input  -60.11 | X-H torsion
[ 7974 7965 7964 7962 ] final -112.83 input  175.53 | X-H torsion
[ 8008 7997 7996 7995 ] final  167.84 input   59.86 | X-H torsion
[ 10167 10162 10161 10158 ] final  -35.45 input  -65.29 | X-H torsion
[ 10718 10713 10712 10709 ] final -150.49 input   66.30 | X-H torsion
[ 10763 10752 10751 10750 ] final -116.45 input  -60.55 | X-H torsion
[ 11005 11000 10999 10996 ] final -166.28 input  -57.11 | X-H torsion

> <Gold.Protein.ActiveResidues>
 VAL166  LYS551  ARG553  GLY616  TRP617  ASP618  TYR619  PRO620  LYS621  CYS622 
 ASP623  PHE694  ASN695  SER759  ASP760  ASP761  ALA762  ILE779  LEU786  VAL792 
 PHE793  MET794  SER795  GLU796  ALA797  LYS798  CYS799  TRP800  GLU811  SER814 

> <Gold.Protein.RotatedAtoms>
  151.6351  135.1019  160.0129 H   0  0  0  0  0  0  0  0  0  0  0  0  # atno 6907 bound_to 6896
  152.4085  133.6922  159.6385 H   0  0  0  0  0  0  0  0  0  0  0  0  # atno 6908 bound_to 6896
  150.7977  133.8583  159.3265 H   0  0  0  0  0  0  0  0  0  0  0  0  # atno 6909 bound_to 6896
  145.1393  140.8769  143.3711 H   0  0  0  0  0  0  0  0  0  0  0  0  # atno 7974 bound_to 7965
  156.1599  140.1606  156.8630 H   0  0  0  0  0  0  0  0  0  0  0  0  # atno 8008 bound_to 7997
  154.5151  140.0791  156.8100 H   0  0  0  0  0  0  0  0  0  0  0  0  # atno 8009 bound_to 7997
  155.3728  140.3401  155.4246 H   0  0  0  0  0  0  0  0  0  0  0  0  # atno 8010 bound_to 7997
  140.7165  143.3477  151.2222 H   0  0  0  0  0  0  0  0  0  0  0  0  # atno 10167 bound_to 10162
  156.4469  130.8149  151.2379 H   0  0  0  0  0  0  0  0  0  0  0  0  # atno 10718 bound_to 10713
  154.8520  135.4345  154.1823 H   0  0  0  0  0  0  0  0  0  0  0  0  # atno 10763 bound_to 10752
  153.2910  135.6961  153.7299 H   0  0  0  0  0  0  0  0  0  0  0  0  # atno 10764 bound_to 10752
  153.6466  135.3459  155.3062 H   0  0  0  0  0  0  0  0  0  0  0  0  # atno 10765 bound_to 10752
  140.5663  134.5283  157.5153 H   0  0  0  0  0  0  0  0  0  0  0  0  # atno 11005 bound_to 11000
  145.0549  139.3151  143.5910 LP  0  0  0  0  0  0  0  0  0  0  0  0  # atno 17320 bound_to 7965
  146.3506  139.9971  142.8680 LP  0  0  0  0  0  0  0  0  0  0  0  0  # atno 17321 bound_to 7965
  139.7000  143.9549  152.2901 LP  0  0  0  0  0  0  0  0  0  0  0  0  # atno 17342 bound_to 10162
  139.9239  144.6783  150.8433 LP  0  0  0  0  0  0  0  0  0  0  0  0  # atno 17343 bound_to 10162
  157.7504  131.0150  150.3488 LP  0  0  0  0  0  0  0  0  0  0  0  0  # atno 17370 bound_to 10713
  156.3858  130.3889  149.7067 LP  0  0  0  0  0  0  0  0  0  0  0  0  # atno 17371 bound_to 10713
  139.9383  134.7834  156.0744 LP  0  0  0  0  0  0  0  0  0  0  0  0  # atno 17394 bound_to 11000
  141.1084  133.6652  156.2918 LP  0  0  0  0  0  0  0  0  0  0  0  0  # atno 17395 bound_to 11000

$$$$
