AV-unprocessed.smi:1240|AV-procd|sdf|5201|dock5
  -GOLD-   22720 4293D 1   1.00000     0.00000
 Structure written by MMmdl.
 48 50  0  0  0  0  0  0  0  0  2 V2000
  144.7264  136.3455  152.9217 O   0  0  0  0  0  0  0  0  0  0  0  0
  145.9160  136.4407  152.6216 C   0  0  0  0  0  0  0  0  0  0  0  0
  146.7032  137.4355  153.0502 N   0  0  0  0  0  0  0  0  0  0  0  0
  146.2517  138.5336  153.8989 C   0  0  0  0  0  0  0  0  0  0  0  0
  147.1072  139.8087  153.6908 C   0  0  2  0  0  0  0  0  0  0  0  0
  148.4136  139.7660  154.5508 C   0  0  1  0  0  0  0  0  0  0  0  0
  149.2759  138.5294  154.3207 C   0  0  0  0  0  0  0  0  0  0  0  0
  150.6488  138.9869  154.7836 C   0  0  0  0  0  0  0  0  0  0  0  0
  150.7345  140.2997  154.2622 O   0  0  0  0  0  0  0  0  0  0  0  0
  149.4365  140.8853  154.2591 C   0  0  0  0  0  0  0  0  0  0  0  0
  146.2195  141.0016  153.9077 N   0  3  0  0  0  0  0  0  0  0  0  0
  145.5701  141.1642  155.2347 C   0  0  0  0  0  0  0  0  0  0  0  0
  144.6051  142.3623  155.2177 C   0  0  0  0  0  0  0  0  0  0  0  0
  145.3093  143.5411  154.8520 O   0  0  0  0  0  0  0  0  0  0  0  0
  145.8691  143.4385  153.5499 C   0  0  0  0  0  0  0  0  0  0  0  0
  146.8748  142.2760  153.5138 C   0  0  0  0  0  0  0  0  0  0  0  0
  146.6000  135.5736  151.8554 N   0  0  0  0  0  0  0  0  0  0  0  0
  146.1219  134.4069  151.2004 C   0  0  0  0  0  0  0  0  0  0  0  0
  144.7427  134.3289  150.9176 C   0  0  0  0  0  0  0  0  0  0  0  0
  144.2444  133.1729  150.2841 C   0  0  0  0  0  0  0  0  0  0  0  0
  145.0198  132.1229  149.9409 N   0  0  0  0  0  0  0  0  0  0  0  0
  146.3370  132.1927  150.2274 C   0  0  0  0  0  0  0  0  0  0  0  0
  146.9370  133.3022  150.8558 C   0  0  0  0  0  0  0  0  0  0  0  0
  147.6675  137.4462  152.7518 H   0  0  0  0  0  0  0  0  0  0  0  0
  145.1972  138.7299  153.7039 H   0  0  0  0  0  0  0  0  0  0  0  0
  146.2932  138.2119  154.9398 H   0  0  0  0  0  0  0  0  0  0  0  0
  147.4261  139.8153  152.6471 H   0  0  0  0  0  0  0  0  0  0  0  0
  148.1643  139.7781  155.6128 H   0  0  0  0  0  0  0  0  0  0  0  0
  148.9255  137.6539  154.8684 H   0  0  0  0  0  0  0  0  0  0  0  0
  149.3149  138.2775  153.2598 H   0  0  0  0  0  0  0  0  0  0  0  0
  150.7031  139.0202  155.8727 H   0  0  0  0  0  0  0  0  0  0  0  0
  151.4549  138.3529  154.4138 H   0  0  0  0  0  0  0  0  0  0  0  0
  149.2700  141.3495  153.2865 H   0  0  0  0  0  0  0  0  0  0  0  0
  149.3972  141.6687  155.0158 H   0  0  0  0  0  0  0  0  0  0  0  0
  144.9972  140.2774  155.5010 H   0  0  0  0  0  0  0  0  0  0  0  0
  146.3272  141.3227  156.0031 H   0  0  0  0  0  0  0  0  0  0  0  0
  143.7786  142.1883  154.5269 H   0  0  0  0  0  0  0  0  0  0  0  0
  144.1677  142.5055  156.2060 H   0  0  0  0  0  0  0  0  0  0  0  0
  145.0805  143.2963  152.8091 H   0  0  0  0  0  0  0  0  0  0  0  0
  146.3698  144.3757  153.3070 H   0  0  0  0  0  0  0  0  0  0  0  0
  147.7056  142.4827  154.1904 H   0  0  0  0  0  0  0  0  0  0  0  0
  147.2963  142.2005  152.5121 H   0  0  0  0  0  0  0  0  0  0  0  0
  147.5925  135.7373  151.7726 H   0  0  0  0  0  0  0  0  0  0  0  0
  144.0749  135.1388  151.1728 H   0  0  0  0  0  0  0  0  0  0  0  0
  143.1938  133.0894  150.0485 H   0  0  0  0  0  0  0  0  0  0  0  0
  146.9320  131.3342  149.9532 H   0  0  0  0  0  0  0  0  0  0  0  0
  147.9944  133.2772  151.0698 H   0  0  0  0  0  0  0  0  0  0  0  0
  145.4534  140.8715  153.2623 H   0  0  0  0  0  0  0  0  0  0  0  0
  1  2  2  0  0  0  0
  2  3  1  0  0  0  0
  2 17  1  0  0  0  0
  3  4  1  0  0  0  0
  3 24  1  0  0  0  0
  4  5  1  0  0  0  0
  4 25  1  0  0  0  0
  4 26  1  0  0  0  0
  5  6  1  0  0  0  0
  5 11  1  0  0  0  0
  5 27  1  0  0  0  0
  6 10  1  0  0  0  0
  6  7  1  0  0  0  0
  6 28  1  0  0  0  0
  7  8  1  0  0  0  0
  7 29  1  0  0  0  0
  7 30  1  0  0  0  0
  8  9  1  0  0  0  0
  8 31  1  0  0  0  0
  8 32  1  0  0  0  0
  9 10  1  0  0  0  0
 10 33  1  0  0  0  0
 10 34  1  0  0  0  0
 11 16  1  0  0  0  0
 11 12  1  0  0  0  0
 11 48  1  0  0  0  0
 12 13  1  0  0  0  0
 12 35  1  0  0  0  0
 12 36  1  0  0  0  0
 13 14  1  0  0  0  0
 13 37  1  0  0  0  0
 13 38  1  0  0  0  0
 14 15  1  0  0  0  0
 15 16  1  0  0  0  0
 15 39  1  0  0  0  0
 15 40  1  0  0  0  0
 16 41  1  0  0  0  0
 16 42  1  0  0  0  0
 17 18  1  0  0  0  0
 17 43  1  0  0  0  0
 18 23  1  0  0  0  0
 18 19  2  0  0  0  0
 19 20  1  0  0  0  0
 19 44  1  0  0  0  0
 20 21  2  0  0  0  0
 20 45  1  0  0  0  0
 21 22  1  0  0  0  0
 22 23  2  0  0  0  0
 22 46  1  0  0  0  0
 23 47  1  0  0  0  0
M  CHG  1  11   1
M  END
> <s_m_source_file>
AV-unprocessed.smi

> <i_m_source_file_index>
1240

> <i_lp_mmshare_version>
43012

> <i_f3d_flags>
0

> <s_epik_input>
W2NIXTFbY0hdbltjSF1bY0hdYzFbTkhdQyg9TylbTkhdW0NIMl1bQ0BIXShbQ0BASF0yW0NIMl1bQ0gyXU9bQ0gyXTIpTjNbQ0gyXVtDSDJdT1tDSDJdW0NIMl0z

> <s_epik_cmdline>
J2VwaWtfcHl0aG9uJywgJy1waCcsICc3LjAnLCAnLXRuJywgJzgnLCAnLW1hJywgJzIwMCcsICctbWV0YWxfYmluZGluZycsICctaW1hZScsICc8aW5maWxlLm1hZT4nLCAnLW9tYWUnLCAnPG91dGZpbGUubWFlPic=

> <r_epik_Ionization_Penalty>
1.08433

> <r_epik_Ionization_Penalty_Charging>
0.98326

> <r_epik_Ionization_Penalty_Neutral>
0.10107

> <r_epik_State_Penalty>
1.11265

> <r_epik_Charging_Adjusted_Penalty>
2.09591

> <i_epik_Tot_Q>
1

> <i_epik_Tot_abs_Q>
1

> <r_epik_Metal_State_Penalty>
1.10731

> <b_epik_Metal_Only>
0

> <s_lp_Force_Field>
OPLS_2005

> <r_lp_Energy>
52.9252

> <b_lp_Chiralities_Consistent>
1

> <s_lp_Variant>
AV-unprocessed.smi:1240-7

> <Gold.Version>
5.8.1

> <Gold.Id.Protein>
6NUR|6NUR_protein|mol2

> <Gold.PLP.Fitness>
57.1292

> <Gold.PLP.PLP>
-37.9902

> <Gold.PLP.part.hbond>
-3.9258

> <Gold.PLP.part.metal>
0.0000

> <Gold.PLP.part.buried>
-6.9470

> <Gold.PLP.part.nonpolar>
-27.6398

> <Gold.PLP.part.repulsive>
0.6542

> <Gold.PLP.ligand.clash>
0.0000

> <Gold.PLP.ligand.torsion>
0.7089

> <Gold.PLP.Chemscore.Hbond>
4.8160

> <Gold.PLP.Chemscore.CHOScore>
1.9989

> <Gold.PLP.Chemscore.Metal>
0.0000

> <Gold.Chemscore.Hbonds>
donor molecule, donor type, donor heavy atom, donor atom, acceptor molecule, acceptor atom, score
      L1  H     3    24       P1  7948  0.77
      L1  H    11    48       P1 10175  2.00
      L1  H    17    43       P1  7948  0.71
      P1  H  7989  7998       L1     9  0.44
      L1  C    20    45       P1 10186  0.81
      L1  C    22    46       P1 10747  1.00

> <Gold.PLP.Chemscore.Internal.Correction>
0.1122

> <Gold.Rescore>
     Score         DG    S(hbond)    S(metal)    S(lipo)     H(rot)  DE(clash)    DE(int)     intcor
     20.25     -22.51       3.40        0.00      85.65       1.70       0.05       2.21       ----

> <Gold.Chemscore.Fitness>
20.2482

> <Gold.Chemscore.DG>
-22.5055

> <Gold.Chemscore.ZeroCoef>
-5.4800

> <Gold.Chemscore.Hbond>
3.4018

> <Gold.Chemscore.Metal>
0.0000

> <Gold.Chemscore.Lipo>
85.6477

> <Gold.Chemscore.Internal_Hbond>
0.0000

> <Gold.Chemscore.DEClash>
0.0520

> <Gold.Chemscore.DEInternal>
2.2052

> <Gold.Chemscore.Rot>
1.7021

> <Gold.Chemscore.Internal.Correction>
   9.000000E+99

> <Gold.Chemscore.Hbonds>
donor molecule, donor type, donor heavy atom, donor atom, acceptor molecule, acceptor atom, score
      L1  H     3    24       P1  7948  0.76
      L1  H    11    48       P1 10175  0.64
      L1  H    17    43       P1  7948  0.71
      P1  H  7989  7998       L1     9  0.40

> <Gold.Chemscore.Hbond.Weighted>
-11.3622

> <Gold.Chemscore.Metal.Weighted>
-0.0000

> <Gold.Chemscore.Lipo.Weighted>
-10.0208

> <Gold.Chemscore.Internal_Hbond.Weighted>
0.0000

> <Gold.Chemscore.DEClash.Weighted>
0.0520

> <Gold.Chemscore.DEInternal.Weighted>
2.2052

> <Gold.Chemscore.Rot.Weighted>
4.3575

> <Gold.Chemscore.Internal.Correction.Weighted>
   9.000000E+99

> <Gold.Protein.RotatedTorsions>
[ 6907 6896 6895 6894 ] final  152.54 input  -60.11 | X-H torsion
[ 7974 7965 7964 7962 ] final    7.39 input  175.53 | X-H torsion
[ 8008 7997 7996 7995 ] final   43.73 input   59.86 | X-H torsion
[ 10167 10162 10161 10158 ] final -161.93 input  -65.29 | X-H torsion
[ 10718 10713 10712 10709 ] final -166.51 input   66.30 | X-H torsion
[ 10763 10752 10751 10750 ] final -151.14 input  -60.55 | X-H torsion
[ 11005 11000 10999 10996 ] final  101.78 input  -57.11 | X-H torsion

> <Gold.Protein.ActiveResidues>
 VAL166  LYS551  ARG553  GLY616  TRP617  ASP618  TYR619  PRO620  LYS621  CYS622 
 ASP623  PHE694  ASN695  SER759  ASP760  ASP761  ALA762  ILE779  LEU786  VAL792 
 PHE793  MET794  SER795  GLU796  ALA797  LYS798  CYS799  TRP800  GLU811  SER814 

> <Gold.Protein.RotatedAtoms>
  152.0852  133.4173  159.4518 H   0  0  0  0  0  0  0  0  0  0  0  0  # atno 6907 bound_to 6896
  150.6862  134.2935  159.4686 H   0  0  0  0  0  0  0  0  0  0  0  0  # atno 6908 bound_to 6896
  152.0781  134.9489  160.0624 H   0  0  0  0  0  0  0  0  0  0  0  0  # atno 6909 bound_to 6896
  146.2427  140.0090  142.8408 H   0  0  0  0  0  0  0  0  0  0  0  0  # atno 7974 bound_to 7965
  155.3075  140.3389  155.4245 H   0  0  0  0  0  0  0  0  0  0  0  0  # atno 8008 bound_to 7997
  156.1971  140.1719  156.8013 H   0  0  0  0  0  0  0  0  0  0  0  0  # atno 8009 bound_to 7997
  154.5513  140.0705  156.8656 H   0  0  0  0  0  0  0  0  0  0  0  0  # atno 8010 bound_to 7997
  139.6429  144.0226  152.2105 H   0  0  0  0  0  0  0  0  0  0  0  0  # atno 10167 bound_to 10162
  156.6690  130.9076  151.3041 H   0  0  0  0  0  0  0  0  0  0  0  0  # atno 10718 bound_to 10713
  154.8076  135.3267  154.7390 H   0  0  0  0  0  0  0  0  0  0  0  0  # atno 10763 bound_to 10752
  153.8046  135.6900  153.4854 H   0  0  0  0  0  0  0  0  0  0  0  0  # atno 10764 bound_to 10752
  153.1832  135.4579  155.0000 H   0  0  0  0  0  0  0  0  0  0  0  0  # atno 10765 bound_to 10752
  139.8774  134.9197  156.4959 H   0  0  0  0  0  0  0  0  0  0  0  0  # atno 11005 bound_to 11000
  145.1345  140.9537  143.4525 LP  0  0  0  0  0  0  0  0  0  0  0  0  # atno 17320 bound_to 7965
  145.0355  139.3304  143.6003 LP  0  0  0  0  0  0  0  0  0  0  0  0  # atno 17321 bound_to 7965
  139.9920  144.6355  150.7806 LP  0  0  0  0  0  0  0  0  0  0  0  0  # atno 17342 bound_to 10162
  140.7500  143.2948  151.3234 LP  0  0  0  0  0  0  0  0  0  0  0  0  # atno 17343 bound_to 10162
  157.7084  130.9411  150.1006 LP  0  0  0  0  0  0  0  0  0  0  0  0  # atno 17370 bound_to 10713
  156.1953  130.3657  149.8857 LP  0  0  0  0  0  0  0  0  0  0  0  0  # atno 17371 bound_to 10713
  140.8625  133.8049  155.9279 LP  0  0  0  0  0  0  0  0  0  0  0  0  # atno 17394 bound_to 11000
  140.9035  134.2349  157.5028 LP  0  0  0  0  0  0  0  0  0  0  0  0  # atno 17395 bound_to 11000

$$$$
