AV-unprocessed.smi:519|AV-procd|sdf|2796|dock3
  -GOLD-   2262023273D 1   1.00000     0.00000
 Structure written by MMmdl.
 37 39  0  0  0  0  0  0  0  0  2 V2000
  151.4417  136.4338  154.3703 O   0  0  0  0  0  0  0  0  0  0  0  0
  151.7897  137.7964  154.5022 C   0  0  0  0  0  0  0  0  0  0  0  0
  150.6256  138.7221  154.3441 C   0  0  0  0  0  0  0  0  0  0  0  0
  149.5266  138.5154  153.5635 N   0  3  0  0  0  0  0  0  0  0  0  0
  148.6595  139.6032  153.6675 C   0  0  0  0  0  0  0  0  0  0  0  0
  147.4316  139.8507  153.0614 C   0  0  0  0  0  0  0  0  0  0  0  0
  146.8032  141.0723  153.3804 C   0  0  0  0  0  0  0  0  0  0  0  0
  147.3943  141.9907  154.2719 C   0  0  0  0  0  0  0  0  0  0  0  0
  148.6378  141.7267  154.8828 C   0  0  0  0  0  0  0  0  0  0  0  0
  149.2547  140.5182  154.5595 C   0  0  0  0  0  0  0  0  0  0  0  0
  150.4660  139.9337  154.9497 N   0  0  0  0  0  0  0  0  0  0  0  0
  151.3524  140.6496  155.8793 C   0  0  0  0  0  0  0  0  0  0  0  0
  151.4256  139.9691  157.2543 C   0  0  0  0  0  0  0  0  0  0  0  0
  152.7085  140.1898  157.8252 O   0  0  0  0  0  0  0  0  0  0  0  0
  152.8186  141.0666  158.8836 C   0  0  0  0  0  0  0  0  0  0  0  0
  151.9686  142.1861  159.0738 C   0  0  0  0  0  0  0  0  0  0  0  0
  152.1458  143.0380  160.1811 C   0  0  0  0  0  0  0  0  0  0  0  0
  153.1718  142.7859  161.1096 C   0  0  0  0  0  0  0  0  0  0  0  0
  154.0205  141.6786  160.9305 C   0  0  0  0  0  0  0  0  0  0  0  0
  153.8440  140.8232  159.8254 C   0  0  0  0  0  0  0  0  0  0  0  0
  154.8977  139.4678  159.6332 Cl  0  0  0  0  0  0  0  0  0  0  0  0
  151.1601  136.2801  153.4812 H   0  0  0  0  0  0  0  0  0  0  0  0
  152.2397  137.9520  155.4830 H   0  0  0  0  0  0  0  0  0  0  0  0
  152.5447  138.0418  153.7551 H   0  0  0  0  0  0  0  0  0  0  0  0
  146.9786  139.1490  152.3765 H   0  0  0  0  0  0  0  0  0  0  0  0
  145.8504  141.3106  152.9305 H   0  0  0  0  0  0  0  0  0  0  0  0
  146.8865  142.9192  154.4894 H   0  0  0  0  0  0  0  0  0  0  0  0
  149.0849  142.4424  155.5565 H   0  0  0  0  0  0  0  0  0  0  0  0
  152.3431  140.7403  155.4338 H   0  0  0  0  0  0  0  0  0  0  0  0
  150.9708  141.6654  155.9859 H   0  0  0  0  0  0  0  0  0  0  0  0
  150.6491  140.3772  157.9026 H   0  0  0  0  0  0  0  0  0  0  0  0
  151.2429  138.8995  157.1407 H   0  0  0  0  0  0  0  0  0  0  0  0
  151.1713  142.4148  158.3832 H   0  0  0  0  0  0  0  0  0  0  0  0
  151.4928  143.8874  160.3176 H   0  0  0  0  0  0  0  0  0  0  0  0
  153.3078  143.4405  161.9578 H   0  0  0  0  0  0  0  0  0  0  0  0
  154.8087  141.4856  161.6435 H   0  0  0  0  0  0  0  0  0  0  0  0
  149.3898  137.6877  152.9974 H   0  0  0  0  0  0  0  0  0  0  0  0
  1  2  1  0  0  0  0
  1 22  1  0  0  0  0
  2  3  1  0  0  0  0
  2 23  1  0  0  0  0
  2 24  1  0  0  0  0
  3 11  1  0  0  0  0
  3  4  2  0  0  0  0
  4  5  1  0  0  0  0
  4 37  1  0  0  0  0
  5 10  2  0  0  0  0
  5  6  1  0  0  0  0
  6  7  2  0  0  0  0
  6 25  1  0  0  0  0
  7  8  1  0  0  0  0
  7 26  1  0  0  0  0
  8  9  2  0  0  0  0
  8 27  1  0  0  0  0
  9 10  1  0  0  0  0
  9 28  1  0  0  0  0
 10 11  1  0  0  0  0
 11 12  1  0  0  0  0
 12 13  1  0  0  0  0
 12 29  1  0  0  0  0
 12 30  1  0  0  0  0
 13 14  1  0  0  0  0
 13 31  1  0  0  0  0
 13 32  1  0  0  0  0
 14 15  1  0  0  0  0
 15 20  1  0  0  0  0
 15 16  2  0  0  0  0
 16 17  1  0  0  0  0
 16 33  1  0  0  0  0
 17 18  2  0  0  0  0
 17 34  1  0  0  0  0
 18 19  1  0  0  0  0
 18 35  1  0  0  0  0
 19 20  2  0  0  0  0
 19 36  1  0  0  0  0
 20 21  1  0  0  0  0
M  CHG  1   4   1
M  END
> <s_m_source_file>
AV-unprocessed.smi

> <i_m_source_file_index>
519

> <i_lp_mmshare_version>
43012

> <i_f3d_flags>
0

> <s_epik_input>
W2NIXTFbY0hdW2NIXVtjSF1jKGMxMiluKGMobjIpW0NIMl1bT0hdKVtDSDJdW0NIMl1PYzNbY0hdW2NIXVtjSF1bY0hdYzNDbA==

> <s_epik_cmdline>
J2VwaWtfcHl0aG9uJywgJy1waCcsICc3LjAnLCAnLXRuJywgJzgnLCAnLW1hJywgJzIwMCcsICctbWV0YWxfYmluZGluZycsICctaW1hZScsICc8aW5maWxlLm1hZT4nLCAnLW9tYWUnLCAnPG91dGZpbGUubWFlPic=

> <r_lp_tautomer_probability>
1

> <r_epik_Ionization_Penalty>
1.54869

> <r_epik_Ionization_Penalty_Charging>
1.54784

> <r_epik_Ionization_Penalty_Neutral>
0.000855784

> <r_epik_State_Penalty>
1.6418

> <r_epik_Charging_Adjusted_Penalty>
3.18963

> <i_epik_Tot_Q>
1

> <i_epik_Tot_abs_Q>
1

> <r_epik_Metal_State_Penalty>
5.69628

> <b_epik_Metal_Only>
0

> <s_lp_Force_Field>
OPLS_2005

> <r_lp_Energy>
16.8459

> <b_lp_Chiralities_Consistent>
1

> <s_lp_Variant>
AV-unprocessed.smi:519-2

> <Gold.Version>
5.8.1

> <Gold.Id.Protein>
6NUR|6NUR_protein|mol2

> <Gold.PLP.Fitness>
61.1962

> <Gold.PLP.PLP>
-48.9217

> <Gold.PLP.part.hbond>
-5.0000

> <Gold.PLP.part.metal>
0.0000

> <Gold.PLP.part.buried>
2.6625

> <Gold.PLP.part.nonpolar>
-45.9691

> <Gold.PLP.part.repulsive>
0.0737

> <Gold.PLP.ligand.clash>
0.0000

> <Gold.PLP.ligand.torsion>
1.3675

> <Gold.PLP.Chemscore.Hbond>
4.9913

> <Gold.PLP.Chemscore.CHOScore>
0.0000

> <Gold.PLP.Chemscore.Metal>
0.0000

> <Gold.Chemscore.Hbonds>
donor molecule, donor type, donor heavy atom, donor atom, acceptor molecule, acceptor atom, score
      L1  H     1    22       P1  7949  1.00
      L1  H     4    37       P1  7948  2.00
      P1  H  7997  8008       L1    14  1.00
      P1  H 10752 10763       L1     1  1.00

> <Gold.PLP.Chemscore.Internal.Correction>
0.0356

> <Gold.Rescore>
     Score         DG    S(hbond)    S(metal)    S(lipo)     H(rot)  DE(clash)    DE(int)     intcor
     23.20     -25.84       3.30        0.00     129.10       2.25       1.36       1.28       ----

> <Gold.Chemscore.Fitness>
23.2008

> <Gold.Chemscore.DG>
-25.8370

> <Gold.Chemscore.ZeroCoef>
-5.4800

> <Gold.Chemscore.Hbond>
3.2978

> <Gold.Chemscore.Metal>
0.0000

> <Gold.Chemscore.Lipo>
129.1009

> <Gold.Chemscore.Internal_Hbond>
0.0000

> <Gold.Chemscore.DEClash>
1.3599

> <Gold.Chemscore.DEInternal>
1.2763

> <Gold.Chemscore.Rot>
2.2510

> <Gold.Chemscore.Internal.Correction>
   9.000000E+99

> <Gold.Chemscore.Hbonds>
donor molecule, donor type, donor heavy atom, donor atom, acceptor molecule, acceptor atom, score
      L1  H     1    22       P1  7949  0.38
      L1  H     4    37       P1  7948  0.93
      P1  H  7997  8008       L1    14  0.67
      P1  H 10752 10763       L1     1  0.27

> <Gold.Chemscore.Hbond.Weighted>
-11.0148

> <Gold.Chemscore.Metal.Weighted>
-0.0000

> <Gold.Chemscore.Lipo.Weighted>
-15.1048

> <Gold.Chemscore.Internal_Hbond.Weighted>
0.0000

> <Gold.Chemscore.DEClash.Weighted>
1.3599

> <Gold.Chemscore.DEInternal.Weighted>
1.2763

> <Gold.Chemscore.Rot.Weighted>
5.7626

> <Gold.Chemscore.Internal.Correction.Weighted>
   9.000000E+99

> <Gold.Protein.RotatedTorsions>
[ 6907 6896 6895 6894 ] final  117.60 input  -60.11 | X-H torsion
[ 7974 7965 7964 7962 ] final   94.11 input  175.53 | X-H torsion
[ 8008 7997 7996 7995 ] final  -71.85 input   59.86 | X-H torsion
[ 10167 10162 10161 10158 ] final  150.60 input  -65.29 | X-H torsion
[ 10718 10713 10712 10709 ] final  -26.43 input   66.30 | X-H torsion
[ 10763 10752 10751 10750 ] final   61.05 input  -60.55 | X-H torsion
[ 11005 11000 10999 10996 ] final  -17.79 input  -57.11 | X-H torsion

> <Gold.Protein.ActiveResidues>
 VAL166  LYS551  ARG553  GLY616  TRP617  ASP618  TYR619  PRO620  LYS621  CYS622 
 ASP623  PHE694  ASN695  SER759  ASP760  ASP761  ALA762  ILE779  LEU786  VAL792 
 PHE793  MET794  SER795  GLU796  ALA797  LYS798  CYS799  TRP800  GLU811  SER814 

> <Gold.Protein.RotatedAtoms>
  152.4601  133.7804  159.6847 H   0  0  0  0  0  0  0  0  0  0  0  0  # atno 6907 bound_to 6896
  150.8541  133.7732  159.3021 H   0  0  0  0  0  0  0  0  0  0  0  0  # atno 6908 bound_to 6896
  151.5318  135.1071  159.9956 H   0  0  0  0  0  0  0  0  0  0  0  0  # atno 6909 bound_to 6896
  145.4699  139.2282  143.2941 H   0  0  0  0  0  0  0  0  0  0  0  0  # atno 7974 bound_to 7965
  154.5120  140.0808  156.8008 H   0  0  0  0  0  0  0  0  0  0  0  0  # atno 8008 bound_to 7997
  155.3764  140.3425  155.4227 H   0  0  0  0  0  0  0  0  0  0  0  0  # atno 8009 bound_to 7997
  156.1584  140.1580  156.8641 H   0  0  0  0  0  0  0  0  0  0  0  0  # atno 8010 bound_to 7997
  139.4848  144.5509  151.7403 H   0  0  0  0  0  0  0  0  0  0  0  0  # atno 10167 bound_to 10162
  156.4513  130.4484  149.6988 H   0  0  0  0  0  0  0  0  0  0  0  0  # atno 10718 bound_to 10713
  152.9939  135.5514  154.5972 H   0  0  0  0  0  0  0  0  0  0  0  0  # atno 10763 bound_to 10752
  154.5321  135.2814  155.1172 H   0  0  0  0  0  0  0  0  0  0  0  0  # atno 10764 bound_to 10752
  154.2483  135.6403  153.5284 H   0  0  0  0  0  0  0  0  0  0  0  0  # atno 10765 bound_to 10752
  140.8203  133.8073  155.9653 H   0  0  0  0  0  0  0  0  0  0  0  0  # atno 11005 bound_to 11000
  146.2403  140.5476  142.8937 LP  0  0  0  0  0  0  0  0  0  0  0  0  # atno 17320 bound_to 7965
  144.7951  140.6108  143.6515 LP  0  0  0  0  0  0  0  0  0  0  0  0  # atno 17321 bound_to 7965
  140.5062  144.1094  150.5983 LP  0  0  0  0  0  0  0  0  0  0  0  0  # atno 17342 bound_to 10162
  140.4004  143.2707  151.9955 LP  0  0  0  0  0  0  0  0  0  0  0  0  # atno 17343 bound_to 10162
  156.3813  130.7580  151.2574 LP  0  0  0  0  0  0  0  0  0  0  0  0  # atno 17370 bound_to 10713
  157.7502  131.0294  150.4094 LP  0  0  0  0  0  0  0  0  0  0  0  0  # atno 17371 bound_to 10713
  140.9105  134.2266  157.4988 LP  0  0  0  0  0  0  0  0  0  0  0  0  # atno 17394 bound_to 11000
  139.8709  134.9748  156.4859 LP  0  0  0  0  0  0  0  0  0  0  0  0  # atno 17395 bound_to 11000

$$$$
