AV-unprocessed.smi:670|AV-procd|sdf|3269|dock9
  -GOLD-   22720 0223D 1   1.00000     0.00000
 Structure written by MMmdl.
 45 46  0  0  0  0  0  0  0  0  1 V2000
  151.0431  145.3918  159.8439 C   0  0  0  0  0  0  0  0  0  0  0  0
  151.5579  143.9843  160.1867 C   0  0  2  0  0  0  0  0  0  0  0  0
  152.2935  143.9898  161.5419 C   0  0  0  0  0  0  0  0  0  0  0  0
  152.8196  142.5944  161.9100 C   0  0  0  0  0  0  0  0  0  0  0  0
  153.7293  142.0413  160.8049 C   0  0  0  0  0  0  0  0  0  0  0  0
  153.0032  142.0209  159.4518 C   0  0  0  0  0  0  0  0  0  0  0  0
  152.4676  143.4186  159.0722 C   0  0  1  0  0  0  0  0  0  0  0  0
  151.6884  143.3291  157.8863 O   0  0  0  0  0  0  0  0  0  0  0  0
  150.6408  142.3713  157.9288 C   0  0  0  0  0  0  0  0  0  0  0  0
  150.4969  141.7184  156.5470 C   0  0  0  0  0  0  0  0  0  0  0  0
  150.6464  140.2690  156.6235 N   0  0  0  0  0  0  0  0  0  0  0  0
  151.2736  139.5070  155.7145 C   0  0  0  0  0  0  0  0  0  0  0  0
  151.8046  139.9636  154.7010 O   0  0  0  0  0  0  0  0  0  0  0  0
  151.2753  137.9962  155.9894 C   0  0  0  0  0  0  0  0  0  0  0  0
  152.1914  137.6029  157.0698 N   0  0  0  0  0  0  0  0  0  0  0  0
  153.2525  136.8124  156.6543 N   0  0  0  0  0  0  0  0  0  0  0  0
  154.1352  136.4173  157.5083 C   0  0  0  0  0  0  0  0  0  0  0  0
  155.1720  135.6390  157.0546 O   0  0  0  0  0  0  0  0  0  0  0  0
  154.0402  136.7799  158.9055 C   0  0  0  0  0  0  0  0  0  0  0  0
  152.9993  137.5446  159.3017 C   0  0  0  0  0  0  0  0  0  0  0  0
  151.9805  138.0106  158.3591 C   0  0  0  0  0  0  0  0  0  0  0  0
  151.0213  138.7062  158.6929 O   0  0  0  0  0  0  0  0  0  0  0  0
  155.6426  135.3705  157.8285 H   0  0  0  0  0  0  0  0  0  0  0  0
  151.8665  146.0948  159.7159 H   0  0  0  0  0  0  0  0  0  0  0  0
  150.3965  145.7761  160.6333 H   0  0  0  0  0  0  0  0  0  0  0  0
  150.4618  145.3885  158.9214 H   0  0  0  0  0  0  0  0  0  0  0  0
  150.6902  143.3289  160.2803 H   0  0  0  0  0  0  0  0  0  0  0  0
  153.1268  144.6929  161.5060 H   0  0  0  0  0  0  0  0  0  0  0  0
  151.6254  144.3441  162.3276 H   0  0  0  0  0  0  0  0  0  0  0  0
  153.3643  142.6389  162.8534 H   0  0  0  0  0  0  0  0  0  0  0  0
  151.9804  141.9160  162.0685 H   0  0  0  0  0  0  0  0  0  0  0  0
  154.6285  142.6540  160.7289 H   0  0  0  0  0  0  0  0  0  0  0  0
  154.0605  141.0356  161.0646 H   0  0  0  0  0  0  0  0  0  0  0  0
  153.6859  141.6486  158.6886 H   0  0  0  0  0  0  0  0  0  0  0  0
  152.1747  141.3128  159.4953 H   0  0  0  0  0  0  0  0  0  0  0  0
  153.3028  144.1057  158.9225 H   0  0  0  0  0  0  0  0  0  0  0  0
  150.8794  141.6060  158.6685 H   0  0  0  0  0  0  0  0  0  0  0  0
  149.6962  142.8273  158.2255 H   0  0  0  0  0  0  0  0  0  0  0  0
  149.5456  141.9937  156.0883 H   0  0  0  0  0  0  0  0  0  0  0  0
  151.2772  142.0955  155.8858 H   0  0  0  0  0  0  0  0  0  0  0  0
  150.2342  139.8101  157.4227 H   0  0  0  0  0  0  0  0  0  0  0  0
  150.2616  137.6637  156.2208 H   0  0  0  0  0  0  0  0  0  0  0  0
  151.5453  137.4866  155.0625 H   0  0  0  0  0  0  0  0  0  0  0  0
  154.7874  136.4421  159.6086 H   0  0  0  0  0  0  0  0  0  0  0  0
  152.9151  137.8223  160.3420 H   0  0  0  0  0  0  0  0  0  0  0  0
  1  2  1  0  0  0  0
  1 24  1  0  0  0  0
  1 25  1  0  0  0  0
  1 26  1  0  0  0  0
  2  7  1  0  0  0  0
  2  3  1  0  0  0  0
  2 27  1  0  0  0  0
  3  4  1  0  0  0  0
  3 28  1  0  0  0  0
  3 29  1  0  0  0  0
  4  5  1  0  0  0  0
  4 30  1  0  0  0  0
  4 31  1  0  0  0  0
  5  6  1  0  0  0  0
  5 32  1  0  0  0  0
  5 33  1  0  0  0  0
  6  7  1  0  0  0  0
  6 34  1  0  0  0  0
  6 35  1  0  0  0  0
  7  8  1  0  0  0  0
  7 36  1  0  0  0  0
  8  9  1  0  0  0  0
  9 10  1  0  0  0  0
  9 37  1  0  0  0  0
  9 38  1  0  0  0  0
 10 11  1  0  0  0  0
 10 39  1  0  0  0  0
 10 40  1  0  0  0  0
 11 12  1  0  0  0  0
 11 41  1  0  0  0  0
 12 13  2  0  0  0  0
 12 14  1  0  0  0  0
 14 42  1  0  0  0  0
 14 43  1  0  0  0  0
 14 15  1  0  0  0  0
 15 16  1  0  0  0  0
 15 21  1  0  0  0  0
 16 17  2  0  0  0  0
 17 18  1  0  0  0  0
 17 19  1  0  0  0  0
 18 23  1  0  0  0  0
 19 44  1  0  0  0  0
 19 20  2  0  0  0  0
 20 45  1  0  0  0  0
 20 21  1  0  0  0  0
 21 22  2  0  0  0  0
M  END
> <s_m_source_file>
AV-unprocessed.smi

> <i_m_source_file_index>
670

> <i_lp_mmshare_version>
43012

> <i_f3d_flags>
0

> <s_epik_input>
W0NIM11bQ0BASF0xW0NIMl1bQ0gyXVtDSDJdW0NIMl1bQ0BIXTFPW0NIMl1bQ0gyXVtOSF1DKD1PKVtDSDJdbjJbbkhdYyg9TylbY0hdW2NIXWMyPU8=

> <s_epik_cmdline>
J2VwaWtfcHl0aG9uJywgJy1waCcsICc3LjAnLCAnLXRuJywgJzgnLCAnLW1hJywgJzIwMCcsICctbWV0YWxfYmluZGluZycsICctaW1hZScsICc8aW5maWxlLm1hZT4nLCAnLW9tYWUnLCAnPG91dGZpbGUubWFlPic=

> <r_lp_tautomer_probability>
0.9996

> <r_epik_Ionization_Penalty>
2.12726

> <r_epik_Ionization_Penalty_Charging>
3.83395e-08

> <r_epik_Ionization_Penalty_Neutral>
2.12726

> <r_epik_State_Penalty>
1.70432

> <r_epik_Charging_Adjusted_Penalty>
1.70432

> <i_epik_Tot_Q>
0

> <i_epik_Tot_abs_Q>
0

> <r_epik_Metal_State_Penalty>
1.70432

> <b_epik_Metal_Only>
0

> <s_lp_Force_Field>
OPLS_2005

> <r_lp_Energy>
21.1157

> <b_lp_Chiralities_Consistent>
1

> <s_lp_Variant>
AV-unprocessed.smi:670-5

> <Gold.Version>
5.8.1

> <Gold.Id.Protein>
6NUR|6NUR_protein|mol2

> <Gold.PLP.Fitness>
47.3884

> <Gold.PLP.PLP>
-43.4087

> <Gold.PLP.part.hbond>
-2.8167

> <Gold.PLP.part.metal>
0.0000

> <Gold.PLP.part.buried>
-6.9378

> <Gold.PLP.part.nonpolar>
-34.8891

> <Gold.PLP.part.repulsive>
0.1929

> <Gold.PLP.ligand.clash>
0.0000

> <Gold.PLP.ligand.torsion>
0.9848

> <Gold.PLP.Chemscore.Hbond>
1.9760

> <Gold.PLP.Chemscore.CHOScore>
0.0000

> <Gold.PLP.Chemscore.Metal>
0.0000

> <Gold.Chemscore.Hbonds>
donor molecule, donor type, donor heavy atom, donor atom, acceptor molecule, acceptor atom, score
      P1  H  7989  7998       L1    13  0.92
      P1  H 10752 10765       L1    16  0.90

> <Gold.PLP.Chemscore.Internal.Correction>
0.0212

> <Gold.Rescore>
     Score         DG    S(hbond)    S(metal)    S(lipo)     H(rot)  DE(clash)    DE(int)     intcor
     12.95     -15.51       1.62        0.00     107.25       3.09       0.07       2.49       ----

> <Gold.Chemscore.Fitness>
12.9458

> <Gold.Chemscore.DG>
-15.5128

> <Gold.Chemscore.ZeroCoef>
-5.4800

> <Gold.Chemscore.Hbond>
1.6153

> <Gold.Chemscore.Metal>
0.0000

> <Gold.Chemscore.Lipo>
107.2510

> <Gold.Chemscore.Internal_Hbond>
0.0000

> <Gold.Chemscore.DEClash>
0.0727

> <Gold.Chemscore.DEInternal>
2.4942

> <Gold.Chemscore.Rot>
3.0901

> <Gold.Chemscore.Internal.Correction>
   9.000000E+99

> <Gold.Chemscore.Hbonds>
donor molecule, donor type, donor heavy atom, donor atom, acceptor molecule, acceptor atom, score
      P1  H  7989  7998       L1    13  0.83
      P1  H 10752 10765       L1    16  0.22

> <Gold.Chemscore.Hbond.Weighted>
-5.3950

> <Gold.Chemscore.Metal.Weighted>
-0.0000

> <Gold.Chemscore.Lipo.Weighted>
-12.5484

> <Gold.Chemscore.Internal_Hbond.Weighted>
0.0000

> <Gold.Chemscore.DEClash.Weighted>
0.0727

> <Gold.Chemscore.DEInternal.Weighted>
2.4942

> <Gold.Chemscore.Rot.Weighted>
7.9106

> <Gold.Chemscore.Internal.Correction.Weighted>
   9.000000E+99

> <Gold.Protein.RotatedTorsions>
[ 6907 6896 6895 6894 ] final  159.09 input  -60.11 | X-H torsion
[ 7974 7965 7964 7962 ] final  -44.18 input  175.53 | X-H torsion
[ 8008 7997 7996 7995 ] final  -59.91 input   59.86 | X-H torsion
[ 10167 10162 10161 10158 ] final  137.85 input  -65.29 | X-H torsion
[ 10718 10713 10712 10709 ] final -124.04 input   66.30 | X-H torsion
[ 10763 10752 10751 10750 ] final -127.40 input  -60.55 | X-H torsion
[ 11005 11000 10999 10996 ] final  152.46 input  -57.11 | X-H torsion

> <Gold.Protein.ActiveResidues>
 VAL166  LYS551  ARG553  GLY616  TRP617  ASP618  TYR619  PRO620  LYS621  CYS622 
 ASP623  PHE694  ASN695  SER759  ASP760  ASP761  ALA762  ILE779  LEU786  VAL792 
 PHE793  MET794  SER795  GLU796  ALA797  LYS798  CYS799  TRP800  GLU811  SER814 

> <Gold.Protein.RotatedAtoms>
  151.9907  133.3790  159.4142 H   0  0  0  0  0  0  0  0  0  0  0  0  # atno 6907 bound_to 6896
  150.6922  134.3940  159.5098 H   0  0  0  0  0  0  0  0  0  0  0  0  # atno 6908 bound_to 6896
  152.1672  134.8863  160.0588 H   0  0  0  0  0  0  0  0  0  0  0  0  # atno 6909 bound_to 6896
  145.9946  140.7143  142.9300 H   0  0  0  0  0  0  0  0  0  0  0  0  # atno 7974 bound_to 7965
  154.4374  140.1051  156.6190 H   0  0  0  0  0  0  0  0  0  0  0  0  # atno 8008 bound_to 7997
  155.5728  140.3489  155.4501 H   0  0  0  0  0  0  0  0  0  0  0  0  # atno 8009 bound_to 7997
  156.0377  140.1275  157.0179 H   0  0  0  0  0  0  0  0  0  0  0  0  # atno 8010 bound_to 7997
  139.5130  144.6387  151.5629 H   0  0  0  0  0  0  0  0  0  0  0  0  # atno 10167 bound_to 10162
  156.1553  130.6564  150.9973 H   0  0  0  0  0  0  0  0  0  0  0  0  # atno 10718 bound_to 10713
  154.8752  135.3963  154.3588 H   0  0  0  0  0  0  0  0  0  0  0  0  # atno 10763 bound_to 10752
  153.4363  135.7026  153.6203 H   0  0  0  0  0  0  0  0  0  0  0  0  # atno 10764 bound_to 10752
  153.4803  135.3771  155.2408 H   0  0  0  0  0  0  0  0  0  0  0  0  # atno 10765 bound_to 10752
  140.1310  134.8802  157.2204 H   0  0  0  0  0  0  0  0  0  0  0  0  # atno 11005 bound_to 11000
  144.6899  140.3128  143.7245 LP  0  0  0  0  0  0  0  0  0  0  0  0  # atno 17320 bound_to 7965
  145.7580  139.1815  143.2283 LP  0  0  0  0  0  0  0  0  0  0  0  0  # atno 17321 bound_to 7965
  140.6145  143.9374  150.6478 LP  0  0  0  0  0  0  0  0  0  0  0  0  # atno 17342 bound_to 10162
  140.2628  143.3512  152.1308 LP  0  0  0  0  0  0  0  0  0  0  0  0  # atno 17343 bound_to 10162
  157.6690  131.0865  150.7658 LP  0  0  0  0  0  0  0  0  0  0  0  0  # atno 17370 bound_to 10713
  156.7724  130.4833  149.5416 LP  0  0  0  0  0  0  0  0  0  0  0  0  # atno 17371 bound_to 10713
  140.2842  134.3315  155.7334 LP  0  0  0  0  0  0  0  0  0  0  0  0  # atno 17394 bound_to 11000
  141.2170  133.7496  156.9408 LP  0  0  0  0  0  0  0  0  0  0  0  0  # atno 17395 bound_to 11000

$$$$
