AV-unprocessed.smi:246|AV-procd|sdf|1881|dock2
  -GOLD-   2262020523D 1   1.00000     0.00000
 Structure written by MMmdl.
 57 60  0  0  0  0  0  0  0  0  1 V2000
  145.9479  130.8936  151.0722 C   0  0  0  0  0  0  0  0  0  0  0  0
  146.0300  132.3695  150.6594 C   0  0  0  0  0  0  0  0  0  0  0  0
  144.7601  132.8797  150.2783 O   0  0  0  0  0  0  0  0  0  0  0  0
  143.8752  133.1164  151.3636 C   0  0  0  0  0  0  0  0  0  0  0  0
  143.9556  134.5954  151.7518 C   0  0  0  0  0  0  0  0  0  0  0  0
  145.2188  134.8477  152.3485 O   0  0  0  0  0  0  0  0  0  0  0  0
  145.3699  136.1793  152.8172 C   0  0  2  0  0  0  0  0  0  0  0  0
  145.7492  137.1179  151.6713 C   0  0  0  0  0  0  0  0  0  0  0  0
  146.4818  138.2729  152.3630 C   0  0  0  0  0  0  0  0  0  0  0  0
  146.9585  137.7323  153.6280 N   0  0  0  0  0  0  0  0  0  0  0  0
  148.0320  138.2459  154.2822 C   0  0  0  0  0  0  0  0  0  0  0  0
  148.8903  137.3873  154.8944 N   0  0  0  0  0  0  0  0  0  0  0  0
  149.9569  137.8470  155.5540 C   0  0  0  0  0  0  0  0  0  0  0  0
  150.3448  139.1100  155.7335 N   0  0  0  0  0  0  0  0  0  0  0  0
  149.4841  139.9810  155.1339 C   0  0  0  0  0  0  0  0  0  0  0  0
  148.3158  139.6398  154.3924 C   0  0  0  0  0  0  0  0  0  0  0  0
  147.6961  140.8008  153.9416 N   0  0  0  0  0  0  0  0  0  0  0  0
  148.4540  141.7663  154.3833 C   0  0  0  0  0  0  0  0  0  0  0  0
  149.5386  141.3642  155.1283 N   0  0  0  0  0  0  0  0  0  0  0  0
  150.5379  142.2234  155.7404 C   0  0  0  0  0  0  0  0  0  0  0  0
  150.4198  142.3165  157.2791 C   0  0  2  0  0  0  0  0  0  0  0  0
  149.1505  142.8826  157.5330 O   0  0  0  0  0  0  0  0  0  0  0  0
  151.4629  143.2220  157.9735 C   0  0  2  0  0  0  0  0  0  0  0  0
  151.2947  143.4143  159.4836 C   0  0  0  0  0  0  0  0  0  0  0  0
  151.9346  144.7653  159.7590 C   0  0  0  0  0  0  0  0  0  0  0  0
  152.0500  145.4056  158.3756 C   0  0  0  0  0  0  0  0  0  0  0  0
  151.2973  144.5582  157.5201 O   0  0  0  0  0  0  0  0  0  0  0  0
  146.5457  136.3454  153.7839 C   0  0  0  0  0  0  0  0  0  0  0  0
  144.4483  136.5406  153.2778 H   0  0  0  0  0  0  0  0  0  0  0  0
  146.9427  130.4928  151.2669 H   0  0  0  0  0  0  0  0  0  0  0  0
  145.4965  130.2927  150.2825 H   0  0  0  0  0  0  0  0  0  0  0  0
  145.3581  130.7566  151.9780 H   0  0  0  0  0  0  0  0  0  0  0  0
  146.4756  132.9755  151.4497 H   0  0  0  0  0  0  0  0  0  0  0  0
  146.6891  132.4554  149.7954 H   0  0  0  0  0  0  0  0  0  0  0  0
  142.8480  132.8475  151.1169 H   0  0  0  0  0  0  0  0  0  0  0  0
  144.1801  132.5025  152.2124 H   0  0  0  0  0  0  0  0  0  0  0  0
  143.8557  135.2128  150.8580 H   0  0  0  0  0  0  0  0  0  0  0  0
  143.1353  134.8547  152.4225 H   0  0  0  0  0  0  0  0  0  0  0  0
  146.4371  136.6100  150.9938 H   0  0  0  0  0  0  0  0  0  0  0  0
  144.8891  137.4480  151.0881 H   0  0  0  0  0  0  0  0  0  0  0  0
  147.2965  138.6453  151.7408 H   0  0  0  0  0  0  0  0  0  0  0  0
  145.7976  139.0973  152.5666 H   0  0  0  0  0  0  0  0  0  0  0  0
  150.5876  137.0950  156.0048 H   0  0  0  0  0  0  0  0  0  0  0  0
  148.2347  142.8054  154.1848 H   0  0  0  0  0  0  0  0  0  0  0  0
  151.5336  141.8796  155.4573 H   0  0  0  0  0  0  0  0  0  0  0  0
  150.4178  143.2131  155.2972 H   0  0  0  0  0  0  0  0  0  0  0  0
  150.4398  141.3177  157.7166 H   0  0  0  0  0  0  0  0  0  0  0  0
  149.0009  143.5698  156.9015 H   0  0  0  0  0  0  0  0  0  0  0  0
  152.4786  142.8837  157.7574 H   0  0  0  0  0  0  0  0  0  0  0  0
  150.2365  143.4581  159.7443 H   0  0  0  0  0  0  0  0  0  0  0  0
  151.7559  142.6158  160.0640 H   0  0  0  0  0  0  0  0  0  0  0  0
  151.3146  145.3600  160.4309 H   0  0  0  0  0  0  0  0  0  0  0  0
  152.9192  144.6568  160.2152 H   0  0  0  0  0  0  0  0  0  0  0  0
  151.6689  146.4269  158.3522 H   0  0  0  0  0  0  0  0  0  0  0  0
  153.0893  145.4208  158.0441 H   0  0  0  0  0  0  0  0  0  0  0  0
  146.2594  136.1212  154.8122 H   0  0  0  0  0  0  0  0  0  0  0  0
  147.3710  135.6898  153.5024 H   0  0  0  0  0  0  0  0  0  0  0  0
  1  2  1  0  0  0  0
  1 30  1  0  0  0  0
  1 31  1  0  0  0  0
  1 32  1  0  0  0  0
  2  3  1  0  0  0  0
  2 33  1  0  0  0  0
  2 34  1  0  0  0  0
  3  4  1  0  0  0  0
  4  5  1  0  0  0  0
  4 35  1  0  0  0  0
  4 36  1  0  0  0  0
  5  6  1  0  0  0  0
  5 37  1  0  0  0  0
  5 38  1  0  0  0  0
  6  7  1  0  0  0  0
  7 29  1  0  0  0  0
  7 28  1  0  0  0  0
  7  8  1  0  0  0  0
  8  9  1  0  0  0  0
  8 39  1  0  0  0  0
  8 40  1  0  0  0  0
  9 10  1  0  0  0  0
  9 41  1  0  0  0  0
  9 42  1  0  0  0  0
 10 11  1  0  0  0  0
 10 28  1  0  0  0  0
 11 16  1  0  0  0  0
 11 12  2  0  0  0  0
 12 13  1  0  0  0  0
 13 14  2  0  0  0  0
 13 43  1  0  0  0  0
 14 15  1  0  0  0  0
 15 19  1  0  0  0  0
 15 16  2  0  0  0  0
 16 17  1  0  0  0  0
 17 18  2  0  0  0  0
 18 19  1  0  0  0  0
 18 44  1  0  0  0  0
 19 20  1  0  0  0  0
 20 21  1  0  0  0  0
 20 45  1  0  0  0  0
 20 46  1  0  0  0  0
 21 22  1  0  0  0  0
 21 23  1  0  0  0  0
 21 47  1  0  0  0  0
 22 48  1  0  0  0  0
 23 27  1  0  0  0  0
 23 24  1  0  0  0  0
 23 49  1  0  0  0  0
 24 25  1  0  0  0  0
 24 50  1  0  0  0  0
 24 51  1  0  0  0  0
 25 26  1  0  0  0  0
 25 52  1  0  0  0  0
 25 53  1  0  0  0  0
 26 27  1  0  0  0  0
 26 54  1  0  0  0  0
 26 55  1  0  0  0  0
 28 56  1  0  0  0  0
 28 57  1  0  0  0  0
M  END
> <s_m_source_file>
AV-unprocessed.smi

> <i_m_source_file_index>
246

> <i_lp_mmshare_version>
43012

> <i_f3d_flags>
0

> <s_epik_input>
W0NIM11bQ0gyXU9bQ0gyXVtDSDJdT1tDQEhdMVtDSDJdW0NIMl1OKFtDSDJdMSljKG5bY0hdbjIpYyhjMjMpbltjSF1uM1tDSDJdW0NASF0oW09IXSlbQ0BASF00W0NIMl1bQ0gyXVtDSDJdTzQ=

> <s_epik_cmdline>
J2VwaWtfcHl0aG9uJywgJy1waCcsICc3LjAnLCAnLXRuJywgJzgnLCAnLW1hJywgJzIwMCcsICctbWV0YWxfYmluZGluZycsICctaW1hZScsICc8aW5maWxlLm1hZT4nLCAnLW9tYWUnLCAnPG91dGZpbGUubWFlPic=

> <r_lp_tautomer_probability>
1

> <r_epik_Ionization_Penalty>
0.0024631

> <r_epik_Ionization_Penalty_Charging>
0

> <r_epik_Ionization_Penalty_Neutral>
0.0024631

> <r_epik_State_Penalty>
0.00162428

> <r_epik_Charging_Adjusted_Penalty>
0.00162428

> <i_epik_Tot_Q>
0

> <i_epik_Tot_abs_Q>
0

> <r_epik_Metal_State_Penalty>
-0

> <b_epik_Metal_Only>
0

> <s_lp_Force_Field>
OPLS_2005

> <r_lp_Energy>
52.7106

> <b_lp_Chiralities_Consistent>
1

> <s_lp_Variant>
AV-unprocessed.smi:246-2

> <Gold.Version>
5.8.1

> <Gold.Id.Protein>
6NUR|6NUR_protein|mol2

> <Gold.PLP.Fitness>
48.4656

> <Gold.PLP.PLP>
-43.9781

> <Gold.PLP.part.hbond>
-1.0000

> <Gold.PLP.part.metal>
0.0000

> <Gold.PLP.part.buried>
-5.5139

> <Gold.PLP.part.nonpolar>
-39.0066

> <Gold.PLP.part.repulsive>
0.6270

> <Gold.PLP.ligand.clash>
0.0000

> <Gold.PLP.ligand.torsion>
1.0126

> <Gold.PLP.Chemscore.Hbond>
1.0000

> <Gold.PLP.Chemscore.CHOScore>
1.0000

> <Gold.PLP.Chemscore.Metal>
0.0000

> <Gold.Chemscore.Hbonds>
donor molecule, donor type, donor heavy atom, donor atom, acceptor molecule, acceptor atom, score
      L1  H    22    48       P1  8028  1.00
      L1  C    18    44       P1  8028  0.93

> <Gold.PLP.Chemscore.Internal.Correction>
0.5127

> <Gold.Rescore>
     Score         DG    S(hbond)    S(metal)    S(lipo)     H(rot)  DE(clash)    DE(int)     intcor
     12.73     -14.20       0.96        0.00     114.93       3.10       0.08       1.38       ----

> <Gold.Chemscore.Fitness>
12.7309

> <Gold.Chemscore.DG>
-14.1993

> <Gold.Chemscore.ZeroCoef>
-5.4800

> <Gold.Chemscore.Hbond>
0.9626

> <Gold.Chemscore.Metal>
0.0000

> <Gold.Chemscore.Lipo>
114.9309

> <Gold.Chemscore.Internal_Hbond>
0.0000

> <Gold.Chemscore.DEClash>
0.0842

> <Gold.Chemscore.DEInternal>
1.3842

> <Gold.Chemscore.Rot>
3.1026

> <Gold.Chemscore.Internal.Correction>
   9.000000E+99

> <Gold.Chemscore.Hbonds>
donor molecule, donor type, donor heavy atom, donor atom, acceptor molecule, acceptor atom, score
      L1  H    22    48       P1  8028  0.65

> <Gold.Chemscore.Hbond.Weighted>
-3.2150

> <Gold.Chemscore.Metal.Weighted>
-0.0000

> <Gold.Chemscore.Lipo.Weighted>
-13.4469

> <Gold.Chemscore.Internal_Hbond.Weighted>
0.0000

> <Gold.Chemscore.DEClash.Weighted>
0.0842

> <Gold.Chemscore.DEInternal.Weighted>
1.3842

> <Gold.Chemscore.Rot.Weighted>
7.9426

> <Gold.Chemscore.Internal.Correction.Weighted>
   9.000000E+99

> <Gold.Protein.RotatedTorsions>
[ 6907 6896 6895 6894 ] final  -53.30 input  -60.11 | X-H torsion
[ 7974 7965 7964 7962 ] final  121.88 input  175.53 | X-H torsion
[ 8008 7997 7996 7995 ] final  -28.99 input   59.86 | X-H torsion
[ 10167 10162 10161 10158 ] final  143.83 input  -65.29 | X-H torsion
[ 10718 10713 10712 10709 ] final  159.05 input   66.30 | X-H torsion
[ 10763 10752 10751 10750 ] final  116.04 input  -60.55 | X-H torsion
[ 11005 11000 10999 10996 ] final  -77.87 input  -57.11 | X-H torsion

> <Gold.Protein.ActiveResidues>
 VAL166  LYS551  ARG553  GLY616  TRP617  ASP618  TYR619  PRO620  LYS621  CYS622 
 ASP623  PHE694  ASN695  SER759  ASP760  ASP761  ALA762  ILE779  LEU786  VAL792 
 PHE793  MET794  SER795  GLU796  ALA797  LYS798  CYS799  TRP800  GLU811  SER814 

> <Gold.Protein.RotatedAtoms>
  150.8439  134.7741  159.6954 H   0  0  0  0  0  0  0  0  0  0  0  0  # atno 6907 bound_to 6896
  152.4520  134.5369  159.9837 H   0  0  0  0  0  0  0  0  0  0  0  0  # atno 6908 bound_to 6896
  151.5504  133.3380  159.2987 H   0  0  0  0  0  0  0  0  0  0  0  0  # atno 6909 bound_to 6896
  145.1141  139.3433  143.4748 H   0  0  0  0  0  0  0  0  0  0  0  0  # atno 7974 bound_to 7965
  154.4308  140.1830  156.1177 H   0  0  0  0  0  0  0  0  0  0  0  0  # atno 8008 bound_to 7997
  156.0168  140.3345  155.6972 H   0  0  0  0  0  0  0  0  0  0  0  0  # atno 8009 bound_to 7997
  155.6033  140.0642  157.2717 H   0  0  0  0  0  0  0  0  0  0  0  0  # atno 8010 bound_to 7997
  139.4960  144.6014  151.6473 H   0  0  0  0  0  0  0  0  0  0  0  0  # atno 10167 bound_to 10162
  157.1696  131.0607  151.2190 H   0  0  0  0  0  0  0  0  0  0  0  0  # atno 10718 bound_to 10713
  153.5312  135.3578  155.2676 H   0  0  0  0  0  0  0  0  0  0  0  0  # atno 10763 bound_to 10752
  154.8726  135.4068  154.3150 H   0  0  0  0  0  0  0  0  0  0  0  0  # atno 10764 bound_to 10752
  153.3839  135.7069  153.6613 H   0  0  0  0  0  0  0  0  0  0  0  0  # atno 10765 bound_to 10752
  141.1662  133.7040  156.7886 H   0  0  0  0  0  0  0  0  0  0  0  0  # atno 11005 bound_to 11000
  146.3525  140.1072  142.8605 LP  0  0  0  0  0  0  0  0  0  0  0  0  # atno 17320 bound_to 7965
  145.0814  140.9223  143.4823 LP  0  0  0  0  0  0  0  0  0  0  0  0  # atno 17321 bound_to 7965
  140.5664  144.0182  150.6194 LP  0  0  0  0  0  0  0  0  0  0  0  0  # atno 17342 bound_to 10162
  140.3285  143.3092  152.0711 LP  0  0  0  0  0  0  0  0  0  0  0  0  # atno 17343 bound_to 10162
  157.4056  130.7357  149.6800 LP  0  0  0  0  0  0  0  0  0  0  0  0  # atno 17370 bound_to 10713
  155.9740  130.4109  150.3953 LP  0  0  0  0  0  0  0  0  0  0  0  0  # atno 17371 bound_to 10713
  140.2342  134.8663  157.3508 LP  0  0  0  0  0  0  0  0  0  0  0  0  # atno 17394 bound_to 11000
  140.1860  134.4430  155.7743 LP  0  0  0  0  0  0  0  0  0  0  0  0  # atno 17395 bound_to 11000

$$$$
