AV-unprocessed.smi:466|AV-procd|sdf|2641|dock10
  -GOLD-   2262023 53D 1   1.00000     0.00000
 Structure written by MMmdl.
 43 45  0  0  0  0  0  0  0  0  1 V2000
  154.0380  141.0795  161.4166 C   0  0  0  0  0  0  0  0  0  0  0  0
  153.2760  141.2673  160.2332 O   0  0  0  0  0  0  0  0  0  0  0  0
  152.5368  142.4259  160.1071 C   0  0  0  0  0  0  0  0  0  0  0  0
  152.4625  143.4225  161.1134 C   0  0  0  0  0  0  0  0  0  0  0  0
  151.6859  144.5787  160.9180 C   0  0  0  0  0  0  0  0  0  0  0  0
  150.9764  144.7534  159.7180 C   0  0  0  0  0  0  0  0  0  0  0  0
  151.0434  143.7722  158.7125 C   0  0  0  0  0  0  0  0  0  0  0  0
  151.8225  142.6018  158.8989 C   0  0  0  0  0  0  0  0  0  0  0  0
  151.9327  141.5987  157.9578 O   0  0  0  0  0  0  0  0  0  0  0  0
  151.1533  141.6921  156.7741 C   0  0  0  0  0  0  0  0  0  0  0  0
  151.8301  140.8619  155.6774 C   0  0  0  0  0  0  0  0  0  0  0  0
  150.9291  139.8556  155.1381 N   0  0  0  0  0  0  0  0  0  0  0  0
  149.7907  140.0347  154.4198 C   0  0  0  0  0  0  0  0  0  0  0  0
  149.2706  141.3925  154.0454 C   0  0  0  0  0  0  0  0  0  0  0  0
  147.8481  141.6619  154.5609 C   0  0  0  0  0  0  0  0  0  0  0  0
  147.3769  142.9162  154.1152 O   0  0  0  0  0  0  0  0  0  0  0  0
  149.1556  138.9196  154.0553 N   0  0  0  0  0  0  0  0  0  0  0  0
  149.9520  137.9259  154.5898 C   0  0  0  0  0  0  0  0  0  0  0  0
  149.8160  136.5196  154.5515 C   0  0  0  0  0  0  0  0  0  0  0  0
  150.7676  135.6929  155.1841 C   0  0  0  0  0  0  0  0  0  0  0  0
  151.8659  136.2592  155.8631 C   0  0  0  0  0  0  0  0  0  0  0  0
  152.0208  137.6579  155.9120 C   0  0  0  0  0  0  0  0  0  0  0  0
  151.0693  138.4785  155.2770 C   0  0  0  0  0  0  0  0  0  0  0  0
  154.5502  140.1188  161.3649 H   0  0  0  0  0  0  0  0  0  0  0  0
  153.4022  141.0659  162.3028 H   0  0  0  0  0  0  0  0  0  0  0  0
  154.7990  141.8529  161.5280 H   0  0  0  0  0  0  0  0  0  0  0  0
  152.9931  143.3232  162.0479 H   0  0  0  0  0  0  0  0  0  0  0  0
  151.6346  145.3319  161.6904 H   0  0  0  0  0  0  0  0  0  0  0  0
  150.3796  145.6409  159.5676 H   0  0  0  0  0  0  0  0  0  0  0  0
  150.4861  143.9427  157.8041 H   0  0  0  0  0  0  0  0  0  0  0  0
  150.1476  141.3091  156.9556 H   0  0  0  0  0  0  0  0  0  0  0  0
  151.0717  142.7323  156.4556 H   0  0  0  0  0  0  0  0  0  0  0  0
  152.1898  141.5028  154.8731 H   0  0  0  0  0  0  0  0  0  0  0  0
  152.7100  140.3592  156.0802 H   0  0  0  0  0  0  0  0  0  0  0  0
  149.9439  142.1318  154.4808 H   0  0  0  0  0  0  0  0  0  0  0  0
  149.3290  141.5482  152.9687 H   0  0  0  0  0  0  0  0  0  0  0  0
  147.1619  140.8735  154.2503 H   0  0  0  0  0  0  0  0  0  0  0  0
  147.8490  141.6756  155.6510 H   0  0  0  0  0  0  0  0  0  0  0  0
  147.5920  143.5675  154.7653 H   0  0  0  0  0  0  0  0  0  0  0  0
  148.9771  136.0766  154.0352 H   0  0  0  0  0  0  0  0  0  0  0  0
  150.6541  134.6194  155.1490 H   0  0  0  0  0  0  0  0  0  0  0  0
  152.5899  135.6196  156.3466 H   0  0  0  0  0  0  0  0  0  0  0  0
  152.8607  138.0947  156.4316 H   0  0  0  0  0  0  0  0  0  0  0  0
  1  2  1  0  0  0  0
  1 24  1  0  0  0  0
  1 25  1  0  0  0  0
  1 26  1  0  0  0  0
  2  3  1  0  0  0  0
  3  8  1  0  0  0  0
  3  4  2  0  0  0  0
  4  5  1  0  0  0  0
  4 27  1  0  0  0  0
  5  6  2  0  0  0  0
  5 28  1  0  0  0  0
  6  7  1  0  0  0  0
  6 29  1  0  0  0  0
  7  8  2  0  0  0  0
  7 30  1  0  0  0  0
  8  9  1  0  0  0  0
  9 10  1  0  0  0  0
 10 11  1  0  0  0  0
 10 31  1  0  0  0  0
 10 32  1  0  0  0  0
 11 12  1  0  0  0  0
 11 33  1  0  0  0  0
 11 34  1  0  0  0  0
 12 23  1  0  0  0  0
 12 13  1  0  0  0  0
 13 14  1  0  0  0  0
 13 17  2  0  0  0  0
 14 15  1  0  0  0  0
 14 35  1  0  0  0  0
 14 36  1  0  0  0  0
 15 16  1  0  0  0  0
 15 37  1  0  0  0  0
 15 38  1  0  0  0  0
 16 39  1  0  0  0  0
 17 18  1  0  0  0  0
 18 23  2  0  0  0  0
 18 19  1  0  0  0  0
 19 20  2  0  0  0  0
 19 40  1  0  0  0  0
 20 21  1  0  0  0  0
 20 41  1  0  0  0  0
 21 22  2  0  0  0  0
 21 42  1  0  0  0  0
 22 23  1  0  0  0  0
 22 43  1  0  0  0  0
M  END
> <s_m_source_file>
AV-unprocessed.smi

> <i_m_source_file_index>
466

> <i_lp_mmshare_version>
43012

> <i_f3d_flags>
0

> <s_epik_input>
W0NIM11PYzFbY0hdW2NIXVtjSF1bY0hdYzFPW0NIMl1bQ0gyXW4oYyhuMilbQ0gyXVtDSDJdW09IXSljKGMyMylbY0hdW2NIXVtjSF1bY0hdMw==

> <s_epik_cmdline>
J2VwaWtfcHl0aG9uJywgJy1waCcsICc3LjAnLCAnLXRuJywgJzgnLCAnLW1hJywgJzIwMCcsICctbWV0YWxfYmluZGluZycsICctaW1hZScsICc8aW5maWxlLm1hZT4nLCAnLW9tYWUnLCAnPG91dGZpbGUubWFlPic=

> <r_lp_tautomer_probability>
1

> <r_epik_Ionization_Penalty>
0.20808

> <r_epik_Ionization_Penalty_Charging>
0

> <r_epik_Ionization_Penalty_Neutral>
0.20808

> <r_epik_State_Penalty>
0.198097

> <r_epik_Charging_Adjusted_Penalty>
0.198097

> <i_epik_Tot_Q>
0

> <i_epik_Tot_abs_Q>
0

> <r_epik_Metal_State_Penalty>
0.000235189

> <b_epik_Metal_Only>
0

> <s_lp_Force_Field>
OPLS_2005

> <r_lp_Energy>
20.5556

> <b_lp_Chiralities_Consistent>
1

> <s_lp_Variant>
AV-unprocessed.smi:466-1

> <Gold.Version>
5.8.1

> <Gold.Id.Protein>
6NUR|6NUR_protein|mol2

> <Gold.PLP.Fitness>
47.8259

> <Gold.PLP.PLP>
-45.9150

> <Gold.PLP.part.hbond>
-1.7435

> <Gold.PLP.part.metal>
0.0000

> <Gold.PLP.part.buried>
-4.0910

> <Gold.PLP.part.nonpolar>
-39.6416

> <Gold.PLP.part.repulsive>
0.1706

> <Gold.PLP.ligand.clash>
0.0000

> <Gold.PLP.ligand.torsion>
0.5691

> <Gold.PLP.Chemscore.Hbond>
1.0000

> <Gold.PLP.Chemscore.CHOScore>
0.0000

> <Gold.PLP.Chemscore.Metal>
0.0000

> <Gold.Chemscore.Hbonds>
donor molecule, donor type, donor heavy atom, donor atom, acceptor molecule, acceptor atom, score
      L1  H    16    39       P1  8028  0.95

> <Gold.PLP.Chemscore.Internal.Correction>
0.0492

> <Gold.Rescore>
     Score         DG    S(hbond)    S(metal)    S(lipo)     H(rot)  DE(clash)    DE(int)     intcor
     16.55     -17.39       0.97        0.00     130.81       2.59       0.10       0.73       ----

> <Gold.Chemscore.Fitness>
16.5549

> <Gold.Chemscore.DG>
-17.3857

> <Gold.Chemscore.ZeroCoef>
-5.4800

> <Gold.Chemscore.Hbond>
0.9687

> <Gold.Chemscore.Metal>
0.0000

> <Gold.Chemscore.Lipo>
130.8114

> <Gold.Chemscore.Internal_Hbond>
0.0000

> <Gold.Chemscore.DEClash>
0.1017

> <Gold.Chemscore.DEInternal>
0.7290

> <Gold.Chemscore.Rot>
2.5916

> <Gold.Chemscore.Internal.Correction>
   9.000000E+99

> <Gold.Chemscore.Hbonds>
donor molecule, donor type, donor heavy atom, donor atom, acceptor molecule, acceptor atom, score
      L1  H    16    39       P1  8028  0.21

> <Gold.Chemscore.Hbond.Weighted>
-3.2353

> <Gold.Chemscore.Metal.Weighted>
-0.0000

> <Gold.Chemscore.Lipo.Weighted>
-15.3049

> <Gold.Chemscore.Internal_Hbond.Weighted>
0.0000

> <Gold.Chemscore.DEClash.Weighted>
0.1017

> <Gold.Chemscore.DEInternal.Weighted>
0.7290

> <Gold.Chemscore.Rot.Weighted>
6.6346

> <Gold.Chemscore.Internal.Correction.Weighted>
   9.000000E+99

> <Gold.Protein.RotatedTorsions>
[ 6907 6896 6895 6894 ] final   -5.29 input  -60.11 | X-H torsion
[ 7974 7965 7964 7962 ] final -110.49 input  175.53 | X-H torsion
[ 8008 7997 7996 7995 ] final  -15.15 input   59.86 | X-H torsion
[ 10167 10162 10161 10158 ] final  140.91 input  -65.29 | X-H torsion
[ 10718 10713 10712 10709 ] final   21.95 input   66.30 | X-H torsion
[ 10763 10752 10751 10750 ] final   75.89 input  -60.55 | X-H torsion
[ 11005 11000 10999 10996 ] final  166.16 input  -57.11 | X-H torsion

> <Gold.Protein.ActiveResidues>
 VAL166  LYS551  ARG553  GLY616  TRP617  ASP618  TYR619  PRO620  LYS621  CYS622 
 ASP623  PHE694  ASN695  SER759  ASP760  ASP761  ALA762  ILE779  LEU786  VAL792 
 PHE793  MET794  SER795  GLU796  ALA797  LYS798  CYS799  TRP800  GLU811  SER814 

> <Gold.Protein.RotatedAtoms>
  151.4839  135.1054  159.9784 H   0  0  0  0  0  0  0  0  0  0  0  0  # atno 6907 bound_to 6896
  152.4768  133.8154  159.7036 H   0  0  0  0  0  0  0  0  0  0  0  0  # atno 6908 bound_to 6896
  150.8812  133.7308  159.2958 H   0  0  0  0  0  0  0  0  0  0  0  0  # atno 6909 bound_to 6896
  145.1677  140.8910  143.3554 H   0  0  0  0  0  0  0  0  0  0  0  0  # atno 7974 bound_to 7965
  154.5153  140.2204  155.9078 H   0  0  0  0  0  0  0  0  0  0  0  0  # atno 8008 bound_to 7997
  156.1600  140.3144  155.8757 H   0  0  0  0  0  0  0  0  0  0  0  0  # atno 8009 bound_to 7997
  155.3770  140.0470  157.3035 H   0  0  0  0  0  0  0  0  0  0  0  0  # atno 8010 bound_to 7997
  139.5035  144.6205  151.6062 H   0  0  0  0  0  0  0  0  0  0  0  0  # atno 10167 bound_to 10162
  157.1456  130.6652  149.5995 H   0  0  0  0  0  0  0  0  0  0  0  0  # atno 10718 bound_to 10713
  153.0686  135.4972  154.8256 H   0  0  0  0  0  0  0  0  0  0  0  0  # atno 10763 bound_to 10752
  154.6990  135.2998  154.9371 H   0  0  0  0  0  0  0  0  0  0  0  0  # atno 10764 bound_to 10752
  154.0101  135.6755  153.4817 H   0  0  0  0  0  0  0  0  0  0  0  0  # atno 10765 bound_to 10752
  140.2636  134.7883  157.3612 H   0  0  0  0  0  0  0  0  0  0  0  0  # atno 11005 bound_to 11000
  145.0265  139.3378  143.6046 LP  0  0  0  0  0  0  0  0  0  0  0  0  # atno 17320 bound_to 7965
  146.3473  139.9587  142.8720 LP  0  0  0  0  0  0  0  0  0  0  0  0  # atno 17321 bound_to 7965
  140.5906  143.9787  150.6322 LP  0  0  0  0  0  0  0  0  0  0  0  0  # atno 17342 bound_to 10162
  140.2966  143.3288  152.1012 LP  0  0  0  0  0  0  0  0  0  0  0  0  # atno 17343 bound_to 10162
  155.9780  130.4762  150.6629 LP  0  0  0  0  0  0  0  0  0  0  0  0  # atno 17370 bound_to 10713
  157.4268  131.0844  151.1078 LP  0  0  0  0  0  0  0  0  0  0  0  0  # atno 17371 bound_to 10713
  140.1441  134.4934  155.8009 LP  0  0  0  0  0  0  0  0  0  0  0  0  # atno 17394 bound_to 11000
  141.2187  133.6836  156.7262 LP  0  0  0  0  0  0  0  0  0  0  0  0  # atno 17395 bound_to 11000

$$$$
