AV-unprocessed.smi:3083|AV-procd|sdf|11745|dock6
  -GOLD-   2272017143D 1   1.00000     0.00000
 Structure written by MMmdl.
 28 29  0  0  0  0  0  0  0  0  2 V2000
  146.8264  134.6517  152.3889 N   0  3  0  0  0  0  0  0  0  0  0  0
  146.2720  134.0454  151.1640 C   0  0  1  0  0  0  0  0  0  0  0  0
  146.1033  132.5183  151.3259 C   0  0  0  0  0  0  0  0  0  0  0  0
  145.4909  131.8794  150.0691 C   0  0  0  0  0  0  0  0  0  0  0  0
  144.1741  132.5633  149.6714 C   0  0  0  0  0  0  0  0  0  0  0  0
  144.3819  134.0715  149.4537 C   0  0  0  0  0  0  0  0  0  0  0  0
  144.9805  134.7737  150.6913 C   0  0  1  0  0  0  0  0  0  0  0  0
  143.9649  134.9907  151.7246 N   0  0  0  0  0  0  0  0  0  0  0  0
  143.5246  136.2046  152.2140 C   0  0  0  0  0  0  0  0  0  0  0  0
  142.5461  135.9535  153.1322 C   0  0  0  0  0  0  0  0  0  0  0  0
  142.4368  134.5363  153.1269 C   0  0  0  0  0  0  0  0  0  0  0  0
  143.2794  133.9665  152.2818 N   0  0  0  0  0  0  0  0  0  0  0  0
  147.1352  133.9181  153.0114 H   0  0  0  0  0  0  0  0  0  0  0  0
  146.1146  135.2031  152.8464 H   0  0  0  0  0  0  0  0  0  0  0  0
  147.0256  134.1986  150.3902 H   0  0  0  0  0  0  0  0  0  0  0  0
  147.0733  132.0607  151.5240 H   0  0  0  0  0  0  0  0  0  0  0  0
  145.4854  132.2800  152.1905 H   0  0  0  0  0  0  0  0  0  0  0  0
  146.1996  131.9492  149.2427 H   0  0  0  0  0  0  0  0  0  0  0  0
  145.3210  130.8158  150.2392 H   0  0  0  0  0  0  0  0  0  0  0  0
  143.7853  132.1103  148.7588 H   0  0  0  0  0  0  0  0  0  0  0  0
  143.4196  132.3939  150.4402 H   0  0  0  0  0  0  0  0  0  0  0  0
  145.0526  134.2131  148.6052 H   0  0  0  0  0  0  0  0  0  0  0  0
  143.4387  134.5410  149.1714 H   0  0  0  0  0  0  0  0  0  0  0  0
  145.2840  135.7719  150.3712 H   0  0  0  0  0  0  0  0  0  0  0  0
  143.9405  137.1406  151.8710 H   0  0  0  0  0  0  0  0  0  0  0  0
  141.9872  136.6733  153.7120 H   0  0  0  0  0  0  0  0  0  0  0  0
  141.7733  133.9096  153.7045 H   0  0  0  0  0  0  0  0  0  0  0  0
  147.6098  135.2424  152.1497 H   0  0  0  0  0  0  0  0  0  0  0  0
  1  2  1  0  0  0  0
  1 13  1  0  0  0  0
  1 14  1  0  0  0  0
  1 28  1  0  0  0  0
  2  7  1  0  0  0  0
  2  3  1  0  0  0  0
  2 15  1  0  0  0  0
  3  4  1  0  0  0  0
  3 16  1  0  0  0  0
  3 17  1  0  0  0  0
  4  5  1  0  0  0  0
  4 18  1  0  0  0  0
  4 19  1  0  0  0  0
  5  6  1  0  0  0  0
  5 20  1  0  0  0  0
  5 21  1  0  0  0  0
  6  7  1  0  0  0  0
  6 22  1  0  0  0  0
  6 23  1  0  0  0  0
  7  8  1  0  0  0  0
  7 24  1  0  0  0  0
  8 12  1  0  0  0  0
  8  9  1  0  0  0  0
  9 10  2  0  0  0  0
  9 25  1  0  0  0  0
 10 11  1  0  0  0  0
 10 26  1  0  0  0  0
 11 12  2  0  0  0  0
 11 27  1  0  0  0  0
M  CHG  1   1   1
M  END
> <s_m_source_file>
AV-unprocessed.smi

> <i_m_source_file_index>
3083

> <i_lp_mmshare_version>
43012

> <i_f3d_flags>
0

> <s_epik_input>
W05IMl1bQ0BASF0xW0NIMl1bQ0gyXVtDSDJdW0NIMl1bQ0BIXTFuMltjSF1bY0hdW2NIXW4y

> <s_epik_cmdline>
J2VwaWtfcHl0aG9uJywgJy1waCcsICc3LjAnLCAnLXRuJywgJzgnLCAnLW1hJywgJzIwMCcsICctbWV0YWxfYmluZGluZycsICctaW1hZScsICc8aW5maWxlLm1hZT4nLCAnLW9tYWUnLCAnPG91dGZpbGUubWFlPic=

> <r_lp_tautomer_probability>
1

> <r_epik_Ionization_Penalty>
0.00385053

> <r_epik_Ionization_Penalty_Charging>
0.0038389

> <r_epik_Ionization_Penalty_Neutral>
1.16305e-05

> <r_epik_State_Penalty>
-0

> <r_epik_Charging_Adjusted_Penalty>
0.0038389

> <i_epik_Tot_Q>
1

> <i_epik_Tot_abs_Q>
1

> <r_epik_Metal_State_Penalty>
-0

> <b_epik_Metal_Only>
0

> <s_lp_Force_Field>
OPLS_2005

> <r_lp_Energy>
16.3847

> <b_lp_Chiralities_Consistent>
1

> <s_lp_Variant>
AV-unprocessed.smi:3083-2

> <Gold.Version>
5.8.1

> <Gold.Id.Protein>
6NUR|6NUR_protein|mol2

> <Gold.PLP.Fitness>
34.5129

> <Gold.PLP.PLP>
-23.0805

> <Gold.PLP.part.hbond>
-1.0000

> <Gold.PLP.part.metal>
0.0000

> <Gold.PLP.part.buried>
-0.9211

> <Gold.PLP.part.nonpolar>
-21.6827

> <Gold.PLP.part.repulsive>
0.1995

> <Gold.PLP.ligand.clash>
0.0000

> <Gold.PLP.ligand.torsion>
0.0461

> <Gold.PLP.Chemscore.Hbond>
2.0000

> <Gold.PLP.Chemscore.CHOScore>
1.8200

> <Gold.PLP.Chemscore.Metal>
0.0000

> <Gold.Chemscore.Hbonds>
donor molecule, donor type, donor heavy atom, donor atom, acceptor molecule, acceptor atom, score
      L1  H     1    28       P1  7948  2.00
      L1  C     9    25       P1 10171  1.00
      L1  C    11    27       P1 10957  0.80

> <Gold.PLP.Chemscore.Internal.Correction>
0.0647

> <Gold.Rescore>
     Score         DG    S(hbond)    S(metal)    S(lipo)     H(rot)  DE(clash)    DE(int)     intcor
     12.55     -13.98       0.99        0.00      66.21       1.00       1.39       0.04       ----

> <Gold.Chemscore.Fitness>
12.5496

> <Gold.Chemscore.DG>
-13.9809

> <Gold.Chemscore.ZeroCoef>
-5.4800

> <Gold.Chemscore.Hbond>
0.9923

> <Gold.Chemscore.Metal>
0.0000

> <Gold.Chemscore.Lipo>
66.2097

> <Gold.Chemscore.Internal_Hbond>
0.0000

> <Gold.Chemscore.DEClash>
1.3943

> <Gold.Chemscore.DEInternal>
0.0370

> <Gold.Chemscore.Rot>
1.0000

> <Gold.Chemscore.Internal.Correction>
   9.000000E+99

> <Gold.Chemscore.Hbonds>
donor molecule, donor type, donor heavy atom, donor atom, acceptor molecule, acceptor atom, score
      L1  H     1    28       P1  7948  0.98

> <Gold.Chemscore.Hbond.Weighted>
-3.3144

> <Gold.Chemscore.Metal.Weighted>
-0.0000

> <Gold.Chemscore.Lipo.Weighted>
-7.7465

> <Gold.Chemscore.Internal_Hbond.Weighted>
0.0000

> <Gold.Chemscore.DEClash.Weighted>
1.3943

> <Gold.Chemscore.DEInternal.Weighted>
0.0370

> <Gold.Chemscore.Rot.Weighted>
2.5600

> <Gold.Chemscore.Internal.Correction.Weighted>
   9.000000E+99

> <Gold.Protein.RotatedTorsions>
[ 6907 6896 6895 6894 ] final  -17.38 input  -60.11 | X-H torsion
[ 7974 7965 7964 7962 ] final  -65.25 input  175.53 | X-H torsion
[ 8008 7997 7996 7995 ] final    3.06 input   59.86 | X-H torsion
[ 10167 10162 10161 10158 ] final  166.09 input  -65.29 | X-H torsion
[ 10718 10713 10712 10709 ] final  108.79 input   66.30 | X-H torsion
[ 10763 10752 10751 10750 ] final -120.85 input  -60.55 | X-H torsion
[ 11005 11000 10999 10996 ] final   77.41 input  -57.11 | X-H torsion

> <Gold.Protein.ActiveResidues>
 VAL166  LYS551  ARG553  GLY616  TRP617  ASP618  TYR619  PRO620  LYS621  CYS622 
 ASP623  PHE694  ASN695  SER759  ASP760  ASP761  ALA762  ILE779  LEU786  VAL792 
 PHE793  MET794  SER795  GLU796  ALA797  LYS798  CYS799  TRP800  GLU811  SER814 

> <Gold.Protein.RotatedAtoms>
  151.2942  135.0750  159.9214 H   0  0  0  0  0  0  0  0  0  0  0  0  # atno 6907 bound_to 6896
  152.5310  133.9900  159.7856 H   0  0  0  0  0  0  0  0  0  0  0  0  # atno 6908 bound_to 6896
  151.0175  133.5856  159.2705 H   0  0  0  0  0  0  0  0  0  0  0  0  # atno 6909 bound_to 6896
  145.7567  140.8882  143.0451 H   0  0  0  0  0  0  0  0  0  0  0  0  # atno 7974 bound_to 7965
  154.6991  140.2669  155.6737 H   0  0  0  0  0  0  0  0  0  0  0  0  # atno 8008 bound_to 7997
  156.2759  140.2776  156.1519 H   0  0  0  0  0  0  0  0  0  0  0  0  # atno 8009 bound_to 7997
  155.0789  140.0372  157.2623 H   0  0  0  0  0  0  0  0  0  0  0  0  # atno 8010 bound_to 7997
  139.4918  144.4064  151.9351 H   0  0  0  0  0  0  0  0  0  0  0  0  # atno 10167 bound_to 10162
  157.6571  131.0901  150.6357 H   0  0  0  0  0  0  0  0  0  0  0  0  # atno 10718 bound_to 10713
  154.8654  135.4188  154.2525 H   0  0  0  0  0  0  0  0  0  0  0  0  # atno 10763 bound_to 10752
  153.3469  135.6996  153.6826 H   0  0  0  0  0  0  0  0  0  0  0  0  # atno 10764 bound_to 10752
  153.5782  135.3578  155.2837 H   0  0  0  0  0  0  0  0  0  0  0  0  # atno 10765 bound_to 10752
  139.9256  134.7680  156.1518 H   0  0  0  0  0  0  0  0  0  0  0  0  # atno 11005 bound_to 11000
  144.6838  139.9665  143.7481 LP  0  0  0  0  0  0  0  0  0  0  0  0  # atno 17320 bound_to 7965
  146.0304  139.3330  143.0758 LP  0  0  0  0  0  0  0  0  0  0  0  0  # atno 17321 bound_to 7965
  140.3504  144.3096  150.5950 LP  0  0  0  0  0  0  0  0  0  0  0  0  # atno 17342 bound_to 10162
  140.5490  143.2209  151.7959 LP  0  0  0  0  0  0  0  0  0  0  0  0  # atno 17343 bound_to 10162
  156.6663  130.4526  149.5671 LP  0  0  0  0  0  0  0  0  0  0  0  0  # atno 17370 bound_to 10713
  156.2030  130.6632  151.1188 LP  0  0  0  0  0  0  0  0  0  0  0  0  # atno 17371 bound_to 10713
  141.0810  133.6754  156.2337 LP  0  0  0  0  0  0  0  0  0  0  0  0  # atno 17394 bound_to 11000
  140.6347  134.5228  157.5563 LP  0  0  0  0  0  0  0  0  0  0  0  0  # atno 17395 bound_to 11000

$$$$
