AV-unprocessed.smi:1005|AV-procd|sdf|4373|dock4
  -GOLD-   22720 2283D 1   1.00000     0.00000
 Structure written by MMmdl.
 57 59  0  0  0  0  0  0  0  0  3 V2000
  152.6787  142.7032  161.2638 C   0  0  0  0  0  0  0  0  0  0  0  0
  152.5015  141.8915  159.9926 C   0  0  0  0  0  0  0  0  0  0  0  0
  151.5632  142.3218  159.0277 C   0  0  0  0  0  0  0  0  0  0  0  0
  151.3704  141.5972  157.8315 C   0  0  0  0  0  0  0  0  0  0  0  0
  150.5209  141.8330  156.7643 N   0  0  0  0  0  0  0  0  0  0  0  0
  150.8065  140.8117  155.9626 C   0  0  0  0  0  0  0  0  0  0  0  0
  151.7531  139.9479  156.3782 N   0  0  0  0  0  0  0  0  0  0  0  0
  152.2434  138.7781  155.6718 C   0  0  0  0  0  0  0  0  0  0  0  0
  151.3002  138.3386  154.5339 C   0  0  1  0  0  0  0  0  0  0  0  0
  151.9789  137.3779  153.7505 O   0  0  0  0  0  0  0  0  0  0  0  0
  149.9768  137.7208  155.0368 C   0  0  0  0  0  0  0  0  0  0  0  0
  148.8124  138.1173  154.2053 N   0  3  2  0  0  0  0  0  0  0  0  0
  148.6221  139.5860  154.1155 C   0  0  0  0  0  0  0  0  0  0  0  0
  147.4232  139.9153  153.2123 C   0  0  0  0  0  0  0  0  0  0  0  0
  146.2601  139.2667  153.7123 O   0  0  0  0  0  0  0  0  0  0  0  0
  146.3838  137.8485  153.7143 C   0  0  2  0  0  0  0  0  0  0  0  0
  145.0348  137.2737  154.1919 C   0  0  0  0  0  0  0  0  0  0  0  0
  143.9312  137.4667  153.2155 N   0  3  0  0  0  0  0  0  0  0  0  0
  142.5855  137.2639  153.8007 C   0  0  0  0  0  0  0  0  0  0  0  0
  144.1196  136.6488  151.9967 C   0  0  0  0  0  0  0  0  0  0  0  0
  147.5567  137.4594  154.6396 C   0  0  0  0  0  0  0  0  0  0  0  0
  152.1498  140.4216  157.6243 C   0  0  0  0  0  0  0  0  0  0  0  0
  153.0826  139.9803  158.5793 C   0  0  0  0  0  0  0  0  0  0  0  0
  153.2629  140.7163  159.7688 C   0  0  0  0  0  0  0  0  0  0  0  0
  154.2748  140.2333  160.7928 C   0  0  0  0  0  0  0  0  0  0  0  0
  152.0086  143.5632  161.2842 H   0  0  0  0  0  0  0  0  0  0  0  0
  153.7013  143.0740  161.3402 H   0  0  0  0  0  0  0  0  0  0  0  0
  152.4646  142.0925  162.1410 H   0  0  0  0  0  0  0  0  0  0  0  0
  150.9815  143.2158  159.1989 H   0  0  0  0  0  0  0  0  0  0  0  0
  150.3068  140.6913  155.0123 H   0  0  0  0  0  0  0  0  0  0  0  0
  153.2341  139.0098  155.2781 H   0  0  0  0  0  0  0  0  0  0  0  0
  152.3734  137.9681  156.3912 H   0  0  0  0  0  0  0  0  0  0  0  0
  151.0988  139.2019  153.9012 H   0  0  0  0  0  0  0  0  0  0  0  0
  151.4495  137.1782  152.9927 H   0  0  0  0  0  0  0  0  0  0  0  0
  150.0819  136.6346  155.0353 H   0  0  0  0  0  0  0  0  0  0  0  0
  149.7751  138.0022  156.0712 H   0  0  0  0  0  0  0  0  0  0  0  0
  148.4576  139.9968  155.1132 H   0  0  0  0  0  0  0  0  0  0  0  0
  149.5153  140.0664  153.7175 H   0  0  0  0  0  0  0  0  0  0  0  0
  147.2488  140.9913  153.1985 H   0  0  0  0  0  0  0  0  0  0  0  0
  147.6135  139.6102  152.1821 H   0  0  0  0  0  0  0  0  0  0  0  0
  146.5882  137.5214  152.6942 H   0  0  0  0  0  0  0  0  0  0  0  0
  145.1674  136.2081  154.3854 H   0  0  0  0  0  0  0  0  0  0  0  0
  144.7498  137.7204  155.1459 H   0  0  0  0  0  0  0  0  0  0  0  0
  142.4674  136.2430  154.1664 H   0  0  0  0  0  0  0  0  0  0  0  0
  141.8122  137.4466  153.0537 H   0  0  0  0  0  0  0  0  0  0  0  0
  142.4002  137.9472  154.6283 H   0  0  0  0  0  0  0  0  0  0  0  0
  144.1102  135.5842  152.2343 H   0  0  0  0  0  0  0  0  0  0  0  0
  145.0691  136.8843  151.5145 H   0  0  0  0  0  0  0  0  0  0  0  0
  143.3276  136.8445  151.2730 H   0  0  0  0  0  0  0  0  0  0  0  0
  147.6934  136.3774  154.6265 H   0  0  0  0  0  0  0  0  0  0  0  0
  147.3372  137.7432  155.6704 H   0  0  0  0  0  0  0  0  0  0  0  0
  153.6547  139.0824  158.3991 H   0  0  0  0  0  0  0  0  0  0  0  0
  154.7656  139.3160  160.4660 H   0  0  0  0  0  0  0  0  0  0  0  0
  153.7863  140.0292  161.7461 H   0  0  0  0  0  0  0  0  0  0  0  0
  155.0462  140.9871  160.9526 H   0  0  0  0  0  0  0  0  0  0  0  0
  143.9760  138.4283  152.9099 H   0  0  0  0  0  0  0  0  0  0  0  0
  149.0041  137.7823  153.2714 H   0  0  0  0  0  0  0  0  0  0  0  0
  1  2  1  0  0  0  0
  1 26  1  0  0  0  0
  1 27  1  0  0  0  0
  1 28  1  0  0  0  0
  2 24  1  0  0  0  0
  2  3  2  0  0  0  0
  3  4  1  0  0  0  0
  3 29  1  0  0  0  0
  4 22  2  0  0  0  0
  4  5  1  0  0  0  0
  5  6  2  0  0  0  0
  6  7  1  0  0  0  0
  6 30  1  0  0  0  0
  7  8  1  0  0  0  0
  7 22  1  0  0  0  0
  8  9  1  0  0  0  0
  8 31  1  0  0  0  0
  8 32  1  0  0  0  0
  9 10  1  0  0  0  0
  9 11  1  0  0  0  0
  9 33  1  0  0  0  0
 10 34  1  0  0  0  0
 11 12  1  0  0  0  0
 11 35  1  0  0  0  0
 11 36  1  0  0  0  0
 12 21  1  0  0  0  0
 12 13  1  0  0  0  0
 12 57  1  0  0  0  0
 13 14  1  0  0  0  0
 13 37  1  0  0  0  0
 13 38  1  0  0  0  0
 14 15  1  0  0  0  0
 14 39  1  0  0  0  0
 14 40  1  0  0  0  0
 15 16  1  0  0  0  0
 16 17  1  0  0  0  0
 16 21  1  0  0  0  0
 16 41  1  0  0  0  0
 17 18  1  0  0  0  0
 17 42  1  0  0  0  0
 17 43  1  0  0  0  0
 18 19  1  0  0  0  0
 18 20  1  0  0  0  0
 18 56  1  0  0  0  0
 19 44  1  0  0  0  0
 19 45  1  0  0  0  0
 19 46  1  0  0  0  0
 20 47  1  0  0  0  0
 20 48  1  0  0  0  0
 20 49  1  0  0  0  0
 21 50  1  0  0  0  0
 21 51  1  0  0  0  0
 22 23  1  0  0  0  0
 23 24  2  0  0  0  0
 23 52  1  0  0  0  0
 24 25  1  0  0  0  0
 25 53  1  0  0  0  0
 25 54  1  0  0  0  0
 25 55  1  0  0  0  0
M  CHG  1  12   1
M  CHG  1  18   1
M  END
> <s_m_source_file>
AV-unprocessed.smi

> <i_m_source_file_index>
1005

> <i_lp_mmshare_version>
43012

> <i_f3d_flags>
0

> <s_epik_input>
W0NIM11jKFtjSF0xKWMoW0NIM10pW2NIXWMoYzEyKW4oW2NIXW4yKVtDSDJdW0NASF0oW09IXSlbQ0gyXU4zW0NIMl1bQ0gyXU9bQ0BIXShbQ0gyXTMpW0NIMl1OKFtDSDNdKVtDSDNd

> <s_epik_cmdline>
J2VwaWtfcHl0aG9uJywgJy1waCcsICc3LjAnLCAnLXRuJywgJzgnLCAnLW1hJywgJzIwMCcsICctbWV0YWxfYmluZGluZycsICctaW1hZScsICc8aW5maWxlLm1hZT4nLCAnLW9tYWUnLCAnPG91dGZpbGUubWFlPic=

> <r_epik_Ionization_Penalty>
1.0968

> <r_epik_Ionization_Penalty_Charging>
1.0096

> <r_epik_Ionization_Penalty_Neutral>
0.0871956

> <r_epik_State_Penalty>
1.31185

> <r_epik_Charging_Adjusted_Penalty>
2.32145

> <i_epik_Tot_Q>
2

> <i_epik_Tot_abs_Q>
2

> <r_epik_Metal_State_Penalty>
1.22442

> <b_epik_Metal_Only>
0

> <s_lp_Force_Field>
OPLS_2005

> <r_lp_Energy>
33.9928

> <b_lp_Chiralities_Consistent>
1

> <s_lp_Variant>
AV-unprocessed.smi:1005-12

> <Gold.Version>
5.8.1

> <Gold.Id.Protein>
6NUR|6NUR_protein|mol2

> <Gold.PLP.Fitness>
58.6229

> <Gold.PLP.PLP>
-42.4160

> <Gold.PLP.part.hbond>
-4.0000

> <Gold.PLP.part.metal>
0.0000

> <Gold.PLP.part.buried>
-1.2687

> <Gold.PLP.part.nonpolar>
-37.8397

> <Gold.PLP.part.repulsive>
0.4408

> <Gold.PLP.ligand.clash>
0.0000

> <Gold.PLP.ligand.torsion>
0.9379

> <Gold.PLP.Chemscore.Hbond>
6.0000

> <Gold.PLP.Chemscore.CHOScore>
0.0000

> <Gold.PLP.Chemscore.Metal>
0.0000

> <Gold.Chemscore.Hbonds>
donor molecule, donor type, donor heavy atom, donor atom, acceptor molecule, acceptor atom, score
      L1  H    10    34       P1  7949  0.93
      L1  H    12    57       P1  7948  1.79
      L1  H    18    56       P1 10175  1.72
      P1  H 10752 10763       L1    10  1.00

> <Gold.PLP.Chemscore.Internal.Correction>
0.0828

> <Gold.Rescore>
     Score         DG    S(hbond)    S(metal)    S(lipo)     H(rot)  DE(clash)    DE(int)     intcor
     21.50     -23.50       3.50        0.00     108.39       2.48       1.07       0.93       ----

> <Gold.Chemscore.Fitness>
21.4951

> <Gold.Chemscore.DG>
-23.4960

> <Gold.Chemscore.ZeroCoef>
-5.4800

> <Gold.Chemscore.Hbond>
3.4988

> <Gold.Chemscore.Metal>
0.0000

> <Gold.Chemscore.Lipo>
108.3948

> <Gold.Chemscore.Internal_Hbond>
0.0000

> <Gold.Chemscore.DEClash>
1.0726

> <Gold.Chemscore.DEInternal>
0.9283

> <Gold.Chemscore.Rot>
2.4814

> <Gold.Chemscore.Internal.Correction>
   9.000000E+99

> <Gold.Chemscore.Hbonds>
donor molecule, donor type, donor heavy atom, donor atom, acceptor molecule, acceptor atom, score
      L1  H    10    34       P1  7949  0.76
      L1  H    12    57       P1  7948  0.83
      L1  H    18    56       P1 10175  0.84
      P1  H 10752 10763       L1    10  0.46

> <Gold.Chemscore.Hbond.Weighted>
-11.6861

> <Gold.Chemscore.Metal.Weighted>
-0.0000

> <Gold.Chemscore.Lipo.Weighted>
-12.6822

> <Gold.Chemscore.Internal_Hbond.Weighted>
0.0000

> <Gold.Chemscore.DEClash.Weighted>
1.0726

> <Gold.Chemscore.DEInternal.Weighted>
0.9283

> <Gold.Chemscore.Rot.Weighted>
6.3524

> <Gold.Chemscore.Internal.Correction.Weighted>
   9.000000E+99

> <Gold.Protein.RotatedTorsions>
[ 6907 6896 6895 6894 ] final  131.65 input  -60.11 | X-H torsion
[ 7974 7965 7964 7962 ] final   99.15 input  175.53 | X-H torsion
[ 8008 7997 7996 7995 ] final  -38.38 input   59.86 | X-H torsion
[ 10167 10162 10161 10158 ] final  169.18 input  -65.29 | X-H torsion
[ 10718 10713 10712 10709 ] final  140.82 input   66.30 | X-H torsion
[ 10763 10752 10751 10750 ] final   32.74 input  -60.55 | X-H torsion
[ 11005 11000 10999 10996 ] final   17.74 input  -57.11 | X-H torsion

> <Gold.Protein.ActiveResidues>
 VAL166  LYS551  ARG553  GLY616  TRP617  ASP618  TYR619  PRO620  LYS621  CYS622 
 ASP623  PHE694  ASN695  SER759  ASP760  ASP761  ALA762  ILE779  LEU786  VAL792 
 PHE793  MET794  SER795  GLU796  ALA797  LYS798  CYS799  TRP800  GLU811  SER814 

> <Gold.Protein.RotatedAtoms>
  152.3405  133.6061  159.5872 H   0  0  0  0  0  0  0  0  0  0  0  0  # atno 6907 bound_to 6896
  150.7476  133.9730  159.3560 H   0  0  0  0  0  0  0  0  0  0  0  0  # atno 6908 bound_to 6896
  151.7594  135.0814  160.0394 H   0  0  0  0  0  0  0  0  0  0  0  0  # atno 6909 bound_to 6896
  145.4027  139.2345  143.3291 H   0  0  0  0  0  0  0  0  0  0  0  0  # atno 7974 bound_to 7965
  154.4038  140.1579  156.2691 H   0  0  0  0  0  0  0  0  0  0  0  0  # atno 8008 bound_to 7997
  155.8969  140.3435  155.5975 H   0  0  0  0  0  0  0  0  0  0  0  0  # atno 8009 bound_to 7997
  155.7493  140.0803  157.2199 H   0  0  0  0  0  0  0  0  0  0  0  0  # atno 8010 bound_to 7997
  139.4986  144.3734  151.9700 H   0  0  0  0  0  0  0  0  0  0  0  0  # atno 10167 bound_to 10162
  157.3989  131.1014  151.0571 H   0  0  0  0  0  0  0  0  0  0  0  0  # atno 10718 bound_to 10713
  153.0247  135.6405  154.1402 H   0  0  0  0  0  0  0  0  0  0  0  0  # atno 10763 bound_to 10752
  154.1132  135.2851  155.3227 H   0  0  0  0  0  0  0  0  0  0  0  0  # atno 10764 bound_to 10752
  154.6316  135.5490  153.7750 H   0  0  0  0  0  0  0  0  0  0  0  0  # atno 10765 bound_to 10752
  140.4326  134.1404  155.7682 H   0  0  0  0  0  0  0  0  0  0  0  0  # atno 11005 bound_to 11000
  146.2744  140.4727  142.8801 LP  0  0  0  0  0  0  0  0  0  0  0  0  # atno 17320 bound_to 7965
  144.8363  140.6787  143.6258 LP  0  0  0  0  0  0  0  0  0  0  0  0  # atno 17321 bound_to 7965
  140.3170  144.3472  150.6019 LP  0  0  0  0  0  0  0  0  0  0  0  0  # atno 17342 bound_to 10162
  140.5753  143.2177  151.7526 LP  0  0  0  0  0  0  0  0  0  0  0  0  # atno 17343 bound_to 10162
  157.1578  130.6212  149.5601 LP  0  0  0  0  0  0  0  0  0  0  0  0  # atno 17370 bound_to 10713
  155.9818  130.4827  150.6846 LP  0  0  0  0  0  0  0  0  0  0  0  0  # atno 17371 bound_to 10713
  141.1739  133.8553  157.1483 LP  0  0  0  0  0  0  0  0  0  0  0  0  # atno 17394 bound_to 11000
  140.0124  134.9982  157.0422 LP  0  0  0  0  0  0  0  0  0  0  0  0  # atno 17395 bound_to 11000

$$$$
