AV-unprocessed.smi:142|AV-procd|sdf|1191|dock2
  -GOLD-   2262018343D 1   1.00000     0.00000
 Structure written by MMmdl.
 52 55  0  0  0  0  0  0  0  0  1 V2000
  150.1670  139.9389  154.9052 C   0  0  0  0  0  0  0  0  0  0  0  0
  151.1808  139.2568  155.8337 C   0  0  2  0  0  0  0  0  0  0  0  0
  150.5971  138.0249  156.3611 N   0  0  0  0  0  0  0  0  0  0  0  0
  151.1155  136.7968  156.2103 C   0  0  0  0  0  0  0  0  0  0  0  0
  152.1322  136.5702  155.5525 O   0  0  0  0  0  0  0  0  0  0  0  0
  150.3633  135.6606  156.9183 C   0  0  0  0  0  0  0  0  0  0  0  0
  150.1529  134.4789  156.0542 N   0  0  0  0  0  0  0  0  0  0  0  0
  149.2438  134.5897  154.9723 C   0  0  0  0  0  0  0  0  0  0  0  0
  148.6568  135.6473  154.7378 O   0  0  0  0  0  0  0  0  0  0  0  0
  149.0516  133.3773  154.1850 C   0  0  0  0  0  0  0  0  0  0  0  0
  148.1967  133.3848  153.1482 F   0  0  0  0  0  0  0  0  0  0  0  0
  149.7166  132.2425  154.4849 C   0  0  0  0  0  0  0  0  0  0  0  0
  150.6155  132.1530  155.5294 N   0  0  0  0  0  0  0  0  0  0  0  0
  151.2733  130.8249  155.8256 C   0  0  1  0  0  0  0  0  0  0  0  0
  150.7379  129.6643  154.9655 C   0  0  0  0  0  0  0  0  0  0  0  0
  151.9858  129.1619  154.2574 C   0  0  0  0  0  0  0  0  0  0  0  0
  153.1108  129.6720  155.1510 C   0  0  0  0  0  0  0  0  0  0  0  0
  152.6405  130.9410  155.5778 O   0  0  0  0  0  0  0  0  0  0  0  0
  150.8302  133.2748  156.3633 C   0  0  0  0  0  0  0  0  0  0  0  0
  151.5794  133.2063  157.3387 O   0  0  0  0  0  0  0  0  0  0  0  0
  151.6519  140.2165  156.9240 C   0  0  0  0  0  0  0  0  0  0  0  0
  152.4620  139.7280  157.9714 C   0  0  0  0  0  0  0  0  0  0  0  0
  152.9173  140.5917  158.9862 C   0  0  0  0  0  0  0  0  0  0  0  0
  152.5675  141.9568  158.9622 C   0  0  0  0  0  0  0  0  0  0  0  0
  153.0196  142.8276  159.9752 C   0  0  0  0  0  0  0  0  0  0  0  0
  152.6658  144.1906  159.9435 C   0  0  0  0  0  0  0  0  0  0  0  0
  151.8595  144.6868  158.9008 C   0  0  0  0  0  0  0  0  0  0  0  0
  151.4049  143.8216  157.8867 C   0  0  0  0  0  0  0  0  0  0  0  0
  151.7575  142.4565  157.9128 C   0  0  0  0  0  0  0  0  0  0  0  0
  151.3076  141.5880  156.8982 C   0  0  0  0  0  0  0  0  0  0  0  0
  150.5978  140.8248  154.4379 H   0  0  0  0  0  0  0  0  0  0  0  0
  149.2766  140.2517  155.4520 H   0  0  0  0  0  0  0  0  0  0  0  0
  149.8502  139.2681  154.1060 H   0  0  0  0  0  0  0  0  0  0  0  0
  152.0490  138.9833  155.2307 H   0  0  0  0  0  0  0  0  0  0  0  0
  149.7562  138.1194  156.9118 H   0  0  0  0  0  0  0  0  0  0  0  0
  150.9099  135.3771  157.8196 H   0  0  0  0  0  0  0  0  0  0  0  0
  149.4204  136.0586  157.2958 H   0  0  0  0  0  0  0  0  0  0  0  0
  149.5330  131.3701  153.8747 H   0  0  0  0  0  0  0  0  0  0  0  0
  151.1169  130.6420  156.8898 H   0  0  0  0  0  0  0  0  0  0  0  0
  150.3295  128.9011  155.6287 H   0  0  0  0  0  0  0  0  0  0  0  0
  149.9528  129.9784  154.2771 H   0  0  0  0  0  0  0  0  0  0  0  0
  151.9996  128.0786  154.1362 H   0  0  0  0  0  0  0  0  0  0  0  0
  152.0647  129.6116  153.2673 H   0  0  0  0  0  0  0  0  0  0  0  0
  153.2449  129.0221  156.0172 H   0  0  0  0  0  0  0  0  0  0  0  0
  154.0638  129.7513  154.6271 H   0  0  0  0  0  0  0  0  0  0  0  0
  152.7374  138.6838  157.9997 H   0  0  0  0  0  0  0  0  0  0  0  0
  153.5356  140.2012  159.7814 H   0  0  0  0  0  0  0  0  0  0  0  0
  153.6377  142.4556  160.7795 H   0  0  0  0  0  0  0  0  0  0  0  0
  153.0124  144.8562  160.7200 H   0  0  0  0  0  0  0  0  0  0  0  0
  151.5887  145.7322  158.8788 H   0  0  0  0  0  0  0  0  0  0  0  0
  150.7849  144.2103  157.0916 H   0  0  0  0  0  0  0  0  0  0  0  0
  150.6957  141.9809  156.0992 H   0  0  0  0  0  0  0  0  0  0  0  0
  1  2  1  0  0  0  0
  1 31  1  0  0  0  0
  1 32  1  0  0  0  0
  1 33  1  0  0  0  0
  2  3  1  0  0  0  0
  2 21  1  0  0  0  0
  2 34  1  0  0  0  0
  3  4  1  0  0  0  0
  3 35  1  0  0  0  0
  4  5  2  0  0  0  0
  4  6  1  0  0  0  0
  6  7  1  0  0  0  0
  6 36  1  0  0  0  0
  6 37  1  0  0  0  0
  7 19  1  0  0  0  0
  7  8  1  0  0  0  0
  8  9  2  0  0  0  0
  8 10  1  0  0  0  0
 10 11  1  0  0  0  0
 10 12  2  0  0  0  0
 12 13  1  0  0  0  0
 12 38  1  0  0  0  0
 13 14  1  0  0  0  0
 13 19  1  0  0  0  0
 14 18  1  0  0  0  0
 14 15  1  0  0  0  0
 14 39  1  0  0  0  0
 15 16  1  0  0  0  0
 15 40  1  0  0  0  0
 15 41  1  0  0  0  0
 16 17  1  0  0  0  0
 16 42  1  0  0  0  0
 16 43  1  0  0  0  0
 17 18  1  0  0  0  0
 17 44  1  0  0  0  0
 17 45  1  0  0  0  0
 19 20  2  0  0  0  0
 21 30  1  0  0  0  0
 21 22  2  0  0  0  0
 22 23  1  0  0  0  0
 22 46  1  0  0  0  0
 23 24  2  0  0  0  0
 23 47  1  0  0  0  0
 24 29  1  0  0  0  0
 24 25  1  0  0  0  0
 25 26  2  0  0  0  0
 25 48  1  0  0  0  0
 26 27  1  0  0  0  0
 26 49  1  0  0  0  0
 27 28  2  0  0  0  0
 27 50  1  0  0  0  0
 28 29  1  0  0  0  0
 28 51  1  0  0  0  0
 29 30  2  0  0  0  0
 30 52  1  0  0  0  0
M  END
> <s_m_source_file>
AV-unprocessed.smi

> <i_m_source_file_index>
142

> <i_lp_mmshare_version>
43012

> <i_f3d_flags>
0

> <s_epik_input>
W2NIXTFbY0hdW2NIXVtjSF1jKGMxMilbY0hdYyhbY0hdW2NIXTIpW0NASF0oW0NIM10pW05IXUMoPU8pW0NIMl1uM2MoPU8pYyhGKVtjSF1uKGMzPU8pW0NAQEhdNFtDSDJdW0NIMl1bQ0gyXU80

> <s_epik_cmdline>
J2VwaWtfcHl0aG9uJywgJy1waCcsICc3LjAnLCAnLXRuJywgJzgnLCAnLW1hJywgJzIwMCcsICctbWV0YWxfYmluZGluZycsICctaW1hZScsICc8aW5maWxlLm1hZT4nLCAnLW9tYWUnLCAnPG91dGZpbGUubWFlPic=

> <r_lp_tautomer_probability>
1

> <r_epik_Ionization_Penalty>
3.35688e-08

> <r_epik_Ionization_Penalty_Charging>
3.59856e-09

> <r_epik_Ionization_Penalty_Neutral>
2.99702e-08

> <r_epik_State_Penalty>
-0

> <r_epik_Charging_Adjusted_Penalty>
3.59856e-09

> <i_epik_Tot_Q>
0

> <i_epik_Tot_abs_Q>
0

> <r_epik_Metal_State_Penalty>
-0

> <b_epik_Metal_Only>
0

> <s_epik_Chemistry_Notes>
This compound contains an acetal/aminal-like group ( X-CH(R)-Y where X, Y are N, S, or O) that may be acid/base labile, releasing an aldehyde.

> <s_lp_Force_Field>
OPLS_2005

> <r_lp_Energy>
25.6775

> <b_lp_Chiralities_Consistent>
1

> <s_lp_Variant>
AV-unprocessed.smi:142-3

> <Gold.Version>
5.8.1

> <Gold.Id.Protein>
6NUR|6NUR_protein|mol2

> <Gold.PLP.Fitness>
61.6278

> <Gold.PLP.PLP>
-57.5056

> <Gold.PLP.part.hbond>
-1.8944

> <Gold.PLP.part.metal>
0.0000

> <Gold.PLP.part.buried>
-3.6381

> <Gold.PLP.part.nonpolar>
-53.0354

> <Gold.PLP.part.repulsive>
1.6488

> <Gold.PLP.ligand.clash>
0.0000

> <Gold.PLP.ligand.torsion>
0.5590

> <Gold.PLP.Chemscore.Hbond>
1.7200

> <Gold.PLP.Chemscore.CHOScore>
0.0000

> <Gold.PLP.Chemscore.Metal>
0.0000

> <Gold.Chemscore.Hbonds>
donor molecule, donor type, donor heavy atom, donor atom, acceptor molecule, acceptor atom, score
      P1  H  6896  6909       L1    20  0.72
      P1  H 10752 10763       L1     5  1.00

> <Gold.PLP.Chemscore.Internal.Correction>
0.0802

> <Gold.Rescore>
     Score         DG    S(hbond)    S(metal)    S(lipo)     H(rot)  DE(clash)    DE(int)     intcor
     21.15     -22.42       1.93        0.00     133.90       2.02       0.02       1.24       ----

> <Gold.Chemscore.Fitness>
21.1547

> <Gold.Chemscore.DG>
-22.4185

> <Gold.Chemscore.ZeroCoef>
-5.4800

> <Gold.Chemscore.Hbond>
1.9274

> <Gold.Chemscore.Metal>
0.0000

> <Gold.Chemscore.Lipo>
133.8951

> <Gold.Chemscore.Internal_Hbond>
0.0000

> <Gold.Chemscore.DEClash>
0.0191

> <Gold.Chemscore.DEInternal>
1.2448

> <Gold.Chemscore.Rot>
2.0175

> <Gold.Chemscore.Internal.Correction>
   9.000000E+99

> <Gold.Chemscore.Hbonds>
donor molecule, donor type, donor heavy atom, donor atom, acceptor molecule, acceptor atom, score
      P1  H  6896  6909       L1    20  0.72
      P1  H 10752 10763       L1     5  0.92

> <Gold.Chemscore.Hbond.Weighted>
-6.4376

> <Gold.Chemscore.Metal.Weighted>
-0.0000

> <Gold.Chemscore.Lipo.Weighted>
-15.6657

> <Gold.Chemscore.Internal_Hbond.Weighted>
0.0000

> <Gold.Chemscore.DEClash.Weighted>
0.0191

> <Gold.Chemscore.DEInternal.Weighted>
1.2448

> <Gold.Chemscore.Rot.Weighted>
5.1648

> <Gold.Chemscore.Internal.Correction.Weighted>
   9.000000E+99

> <Gold.Protein.RotatedTorsions>
[ 6907 6896 6895 6894 ] final  -46.04 input  -60.11 | X-H torsion
[ 7974 7965 7964 7962 ] final   35.47 input  175.53 | X-H torsion
[ 8008 7997 7996 7995 ] final  -47.18 input   59.86 | X-H torsion
[ 10167 10162 10161 10158 ] final  -55.95 input  -65.29 | X-H torsion
[ 10718 10713 10712 10709 ] final   19.97 input   66.30 | X-H torsion
[ 10763 10752 10751 10750 ] final   86.81 input  -60.55 | X-H torsion
[ 11005 11000 10999 10996 ] final   53.24 input  -57.11 | X-H torsion

> <Gold.Protein.ActiveResidues>
 VAL166  LYS551  ARG553  GLY616  TRP617  ASP618  TYR619  PRO620  LYS621  CYS622 
 ASP623  PHE694  ASN695  SER759  ASP760  ASP761  ALA762  ILE779  LEU786  VAL792 
 PHE793  MET794  SER795  GLU796  ALA797  LYS798  CYS799  TRP800  GLU811  SER814 

> <Gold.Protein.RotatedAtoms>
  150.9155  134.8573  159.7453 H   0  0  0  0  0  0  0  0  0  0  0  0  # atno 6907 bound_to 6896
  152.4966  134.4295  159.9517 H   0  0  0  0  0  0  0  0  0  0  0  0  # atno 6908 bound_to 6896
  151.4334  133.3624  159.2807 H   0  0  0  0  0  0  0  0  0  0  0  0  # atno 6909 bound_to 6896
  146.1281  139.6139  142.9245 H   0  0  0  0  0  0  0  0  0  0  0  0  # atno 7974 bound_to 7965
  154.4014  140.1353  156.4133 H   0  0  0  0  0  0  0  0  0  0  0  0  # atno 8008 bound_to 7997
  155.7712  140.3484  155.5228 H   0  0  0  0  0  0  0  0  0  0  0  0  # atno 8009 bound_to 7997
  155.8764  140.0980  157.1505 H   0  0  0  0  0  0  0  0  0  0  0  0  # atno 8010 bound_to 7997
  140.6345  143.2475  151.5153 H   0  0  0  0  0  0  0  0  0  0  0  0  # atno 10167 bound_to 10162
  157.1179  130.6537  149.5915 H   0  0  0  0  0  0  0  0  0  0  0  0  # atno 10718 bound_to 10713
  153.1607  135.4566  154.9767 H   0  0  0  0  0  0  0  0  0  0  0  0  # atno 10763 bound_to 10752
  154.7895  135.3215  154.7812 H   0  0  0  0  0  0  0  0  0  0  0  0  # atno 10764 bound_to 10752
  153.8303  135.6939  153.4870 H   0  0  0  0  0  0  0  0  0  0  0  0  # atno 10765 bound_to 10752
  140.0783  134.5374  155.8973 H   0  0  0  0  0  0  0  0  0  0  0  0  # atno 11005 bound_to 11000
  145.5321  141.0426  143.2377 LP  0  0  0  0  0  0  0  0  0  0  0  0  # atno 17320 bound_to 7965
  144.7662  139.6839  143.7214 LP  0  0  0  0  0  0  0  0  0  0  0  0  # atno 17321 bound_to 7965
  139.5557  144.2282  152.1607 LP  0  0  0  0  0  0  0  0  0  0  0  0  # atno 17342 bound_to 10162
  140.1535  144.5092  150.6673 LP  0  0  0  0  0  0  0  0  0  0  0  0  # atno 17343 bound_to 10162
  155.9835  130.4855  150.6936 LP  0  0  0  0  0  0  0  0  0  0  0  0  # atno 17370 bound_to 10713
  157.4502  131.0871  151.0854 LP  0  0  0  0  0  0  0  0  0  0  0  0  # atno 17371 bound_to 10713
  141.2037  133.6634  156.6080 LP  0  0  0  0  0  0  0  0  0  0  0  0  # atno 17394 bound_to 11000
  140.3525  134.7756  157.4477 LP  0  0  0  0  0  0  0  0  0  0  0  0  # atno 17395 bound_to 11000

$$$$
