AV-unprocessed.smi:4|AV-procd|sdf|35|dock4
  -GOLD-   2262015153D 1   1.00000     0.00000
 Structure written by MMmdl.
 43 44  0  0  0  0  0  0  0  0  3 V2000
  152.3637  137.9766  156.0794 C   0  0  0  0  0  0  0  0  0  0  0  0
  150.8850  137.6749  155.7154 C   0  0  0  0  0  0  0  0  0  0  0  0
  150.0408  138.6938  156.5209 C   0  0  0  0  0  0  0  0  0  0  0  0
  150.7733  137.9590  154.1955 C   0  0  0  0  0  0  0  0  0  0  0  0
  150.4473  136.2643  156.0269 N   0  0  0  0  0  0  0  0  0  0  0  0
  149.9727  135.4236  154.9865 C   0  0  0  0  0  0  0  0  0  0  0  0
  149.5536  134.1564  155.1808 C   0  0  0  0  0  0  0  0  0  0  0  0
  149.0380  133.2834  154.0469 C   0  0  0  0  0  0  0  0  0  0  0  0
  148.0232  134.0030  153.2512 N   0  3  0  0  0  0  0  0  0  0  0  0
  147.5598  133.2661  152.0585 C   0  0  0  0  0  0  0  0  0  0  0  0
  146.1627  133.7169  151.6250 C   0  0  0  0  0  0  0  0  0  0  0  0
  146.2292  135.1253  151.5099 O   0  0  0  0  0  0  0  0  0  0  0  0
  145.5159  132.9983  150.4268 C   0  0  0  0  0  0  0  0  0  0  0  0
  144.1922  132.9475  151.1906 C   0  0  0  0  0  0  0  0  0  0  0  0
  144.9780  133.2215  152.4735 C   0  0  0  0  0  0  0  0  0  0  0  0
  149.5888  133.6381  156.5457 C   0  0  0  0  0  0  0  0  0  0  0  0
  149.2061  132.4908  156.7730 O   0  0  0  0  0  0  0  0  0  0  0  0
  150.0599  134.4592  157.5209 N   0  5  0  0  0  0  0  0  0  0  0  0
  150.4893  135.7385  157.3006 C   0  0  0  0  0  0  0  0  0  0  0  0
  150.9117  136.4179  158.2340 O   0  0  0  0  0  0  0  0  0  0  0  0
  152.6321  139.0026  155.8235 H   0  0  0  0  0  0  0  0  0  0  0  0
  153.0576  137.3335  155.5359 H   0  0  0  0  0  0  0  0  0  0  0  0
  152.5533  137.8712  157.1485 H   0  0  0  0  0  0  0  0  0  0  0  0
  150.0787  138.4776  157.5890 H   0  0  0  0  0  0  0  0  0  0  0  0
  148.9926  138.7126  156.2277 H   0  0  0  0  0  0  0  0  0  0  0  0
  150.4117  139.7099  156.3826 H   0  0  0  0  0  0  0  0  0  0  0  0
  151.1992  138.9305  153.9424 H   0  0  0  0  0  0  0  0  0  0  0  0
  149.7473  137.9805  153.8326 H   0  0  0  0  0  0  0  0  0  0  0  0
  151.3116  137.2088  153.6153 H   0  0  0  0  0  0  0  0  0  0  0  0
  149.9510  135.8319  153.9929 H   0  0  0  0  0  0  0  0  0  0  0  0
  149.8733  132.9900  153.4094 H   0  0  0  0  0  0  0  0  0  0  0  0
  148.6012  132.3678  154.4477 H   0  0  0  0  0  0  0  0  0  0  0  0
  147.2252  134.2025  153.8374 H   0  0  0  0  0  0  0  0  0  0  0  0
  148.2745  133.4344  151.2517 H   0  0  0  0  0  0  0  0  0  0  0  0
  147.5754  132.1953  152.2677 H   0  0  0  0  0  0  0  0  0  0  0  0
  147.1133  135.3797  151.7283 H   0  0  0  0  0  0  0  0  0  0  0  0
  145.4784  133.5837  149.5074 H   0  0  0  0  0  0  0  0  0  0  0  0
  145.9357  132.0070  150.2482 H   0  0  0  0  0  0  0  0  0  0  0  0
  143.5198  133.7643  150.9249 H   0  0  0  0  0  0  0  0  0  0  0  0
  143.6881  131.9809  151.1637 H   0  0  0  0  0  0  0  0  0  0  0  0
  145.2024  132.3098  153.0292 H   0  0  0  0  0  0  0  0  0  0  0  0
  144.5280  133.9768  153.1190 H   0  0  0  0  0  0  0  0  0  0  0  0
  148.4275  134.8790  152.9495 H   0  0  0  0  0  0  0  0  0  0  0  0
  1  2  1  0  0  0  0
  1 21  1  0  0  0  0
  1 22  1  0  0  0  0
  1 23  1  0  0  0  0
  2  3  1  0  0  0  0
  2  4  1  0  0  0  0
  2  5  1  0  0  0  0
  3 24  1  0  0  0  0
  3 25  1  0  0  0  0
  3 26  1  0  0  0  0
  4 27  1  0  0  0  0
  4 28  1  0  0  0  0
  4 29  1  0  0  0  0
  5 19  1  0  0  0  0
  5  6  1  0  0  0  0
  6  7  2  0  0  0  0
  6 30  1  0  0  0  0
  7  8  1  0  0  0  0
  7 16  1  0  0  0  0
  8  9  1  0  0  0  0
  8 31  1  0  0  0  0
  8 32  1  0  0  0  0
  9 10  1  0  0  0  0
  9 33  1  0  0  0  0
  9 43  1  0  0  0  0
 10 11  1  0  0  0  0
 10 34  1  0  0  0  0
 10 35  1  0  0  0  0
 11 15  1  0  0  0  0
 11 12  1  0  0  0  0
 11 13  1  0  0  0  0
 12 36  1  0  0  0  0
 13 14  1  0  0  0  0
 13 37  1  0  0  0  0
 13 38  1  0  0  0  0
 14 15  1  0  0  0  0
 14 39  1  0  0  0  0
 14 40  1  0  0  0  0
 15 41  1  0  0  0  0
 15 42  1  0  0  0  0
 16 17  2  0  0  0  0
 16 18  1  0  0  0  0
 18 19  1  0  0  0  0
 19 20  2  0  0  0  0
M  CHG  1   9   1
M  CHG  1  18  -1
M  END
> <s_m_source_file>
AV-unprocessed.smi

> <i_m_source_file_index>
4

> <i_lp_mmshare_version>
43012

> <i_f3d_flags>
0

> <s_epik_input>
W0NIM11DKFtDSDNdKShbQ0gzXSluMVtjSF1jKGMoPU8pW25IXWMxPU8pW0NIMl1bTkhdW0NIMl1DMihbT0hdKVtDSDJdW0NIMl1bQ0gyXTI=

> <s_epik_cmdline>
J2VwaWtfcHl0aG9uJywgJy1waCcsICc3LjAnLCAnLXRuJywgJzgnLCAnLW1hJywgJzIwMCcsICctbWV0YWxfYmluZGluZycsICctaW1hZScsICc8aW5maWxlLm1hZT4nLCAnLW9tYWUnLCAnPG91dGZpbGUubWFlPic=

> <r_lp_tautomer_probability>
0.999537

> <r_epik_Ionization_Penalty>
3.42736

> <r_epik_Ionization_Penalty_Charging>
0.0116785

> <r_epik_Ionization_Penalty_Neutral>
3.41568

> <r_epik_State_Penalty>
3.42726

> <r_epik_Charging_Adjusted_Penalty>
3.43893

> <i_epik_Tot_Q>
0

> <i_epik_Tot_abs_Q>
2

> <r_epik_Metal_State_Penalty>
0.176979

> <b_epik_Metal_Only>
1

> <s_lp_Force_Field>
OPLS_2005

> <r_lp_Energy>
29.0009

> <b_lp_Chiralities_Consistent>
1

> <s_lp_Variant>
AV-unprocessed.smi:4-3

> <Gold.Version>
5.8.1

> <Gold.Id.Protein>
6NUR|6NUR_protein|mol2

> <Gold.PLP.Fitness>
45.3798

> <Gold.PLP.PLP>
-28.9996

> <Gold.PLP.part.hbond>
-4.0000

> <Gold.PLP.part.metal>
0.0000

> <Gold.PLP.part.buried>
-3.8545

> <Gold.PLP.part.nonpolar>
-21.8216

> <Gold.PLP.part.repulsive>
0.0000

> <Gold.PLP.ligand.clash>
0.0000

> <Gold.PLP.ligand.torsion>
0.3135

> <Gold.PLP.Chemscore.Hbond>
4.7758

> <Gold.PLP.Chemscore.CHOScore>
0.8495

> <Gold.PLP.Chemscore.Metal>
0.0000

> <Gold.Chemscore.Hbonds>
donor molecule, donor type, donor heavy atom, donor atom, acceptor molecule, acceptor atom, score
      L1  H     9    43       P1  7948  2.00
      L1  H    12    36       P1  7948  1.00
      P1  H  6896  6908       L1    18  1.54
      P1  H  6896  6909       L1    20  0.20
      L1  C     6    30       P1  7948  0.80

> <Gold.PLP.Chemscore.Internal.Correction>
0.1314

> <Gold.Rescore>
     Score         DG    S(hbond)    S(metal)    S(lipo)     H(rot)  DE(clash)    DE(int)     intcor
     13.90     -15.55       2.55        0.00      67.19       2.47       0.00       1.65       ----

> <Gold.Chemscore.Fitness>
13.8959

> <Gold.Chemscore.DG>
-15.5452

> <Gold.Chemscore.ZeroCoef>
-5.4800

> <Gold.Chemscore.Hbond>
2.5524

> <Gold.Chemscore.Metal>
0.0000

> <Gold.Chemscore.Lipo>
67.1948

> <Gold.Chemscore.Internal_Hbond>
0.0000

> <Gold.Chemscore.DEClash>
0.0021

> <Gold.Chemscore.DEInternal>
1.6472

> <Gold.Chemscore.Rot>
2.4694

> <Gold.Chemscore.Internal.Correction>
   9.000000E+99

> <Gold.Chemscore.Hbonds>
donor molecule, donor type, donor heavy atom, donor atom, acceptor molecule, acceptor atom, score
      L1  H     9    43       P1  7948  0.60
      L1  H    12    36       P1  7948  0.96
      P1  H  6896  6908       L1    18  0.48
      P1  H  6896  6909       L1    20  0.16

> <Gold.Chemscore.Hbond.Weighted>
-8.5251

> <Gold.Chemscore.Metal.Weighted>
-0.0000

> <Gold.Chemscore.Lipo.Weighted>
-7.8618

> <Gold.Chemscore.Internal_Hbond.Weighted>
0.0000

> <Gold.Chemscore.DEClash.Weighted>
0.0021

> <Gold.Chemscore.DEInternal.Weighted>
1.6472

> <Gold.Chemscore.Rot.Weighted>
6.3216

> <Gold.Chemscore.Internal.Correction.Weighted>
   9.000000E+99

> <Gold.Protein.RotatedTorsions>
[ 6907 6896 6895 6894 ] final  121.28 input  -60.11 | X-H torsion
[ 7974 7965 7964 7962 ] final  -23.85 input  175.53 | X-H torsion
[ 8008 7997 7996 7995 ] final  -52.83 input   59.86 | X-H torsion
[ 10167 10162 10161 10158 ] final   76.63 input  -65.29 | X-H torsion
[ 10718 10713 10712 10709 ] final  116.35 input   66.30 | X-H torsion
[ 10763 10752 10751 10750 ] final  -35.33 input  -60.55 | X-H torsion
[ 11005 11000 10999 10996 ] final   18.80 input  -57.11 | X-H torsion

> <Gold.Protein.ActiveResidues>
 VAL166  LYS551  ARG553  GLY616  TRP617  ASP618  TYR619  PRO620  LYS621  CYS622 
 ASP623  PHE694  ASN695  SER759  ASP760  ASP761  ALA762  ILE779  LEU786  VAL792 
 PHE793  MET794  SER795  GLU796  ALA797  LYS798  CYS799  TRP800  GLU811  SER814 

> <Gold.Protein.RotatedAtoms>
  152.4334  133.7318  159.6591 H   0  0  0  0  0  0  0  0  0  0  0  0  # atno 6907 bound_to 6896
  150.8215  133.8234  159.3143 H   0  0  0  0  0  0  0  0  0  0  0  0  # atno 6908 bound_to 6896
  151.5914  135.1055  160.0091 H   0  0  0  0  0  0  0  0  0  0  0  0  # atno 6909 bound_to 6896
  146.1591  140.4672  142.8579 H   0  0  0  0  0  0  0  0  0  0  0  0  # atno 7974 bound_to 7965
  154.4117  140.1214  156.5056 H   0  0  0  0  0  0  0  0  0  0  0  0  # atno 8008 bound_to 7997
  155.6851  140.3496  155.4851 H   0  0  0  0  0  0  0  0  0  0  0  0  # atno 8009 bound_to 7997
  155.9517  140.1106  157.0961 H   0  0  0  0  0  0  0  0  0  0  0  0  # atno 8010 bound_to 7997
  139.9902  144.5763  150.7825 H   0  0  0  0  0  0  0  0  0  0  0  0  # atno 10167 bound_to 10162
  157.6166  131.1024  150.7461 H   0  0  0  0  0  0  0  0  0  0  0  0  # atno 10718 bound_to 10713
  153.8615  135.6839  153.4782 H   0  0  0  0  0  0  0  0  0  0  0  0  # atno 10763 bound_to 10752
  153.1339  135.4686  154.9390 H   0  0  0  0  0  0  0  0  0  0  0  0  # atno 10764 bound_to 10752
  154.7756  135.3252  154.8048 H   0  0  0  0  0  0  0  0  0  0  0  0  # atno 10765 bound_to 10752
  140.4208  134.1521  155.7673 H   0  0  0  0  0  0  0  0  0  0  0  0  # atno 11005 bound_to 11000
  144.8003  140.6200  143.6483 LP  0  0  0  0  0  0  0  0  0  0  0  0  # atno 17320 bound_to 7965
  145.4634  139.1510  143.3854 LP  0  0  0  0  0  0  0  0  0  0  0  0  # atno 17321 bound_to 7965
  140.7457  143.2880  151.3409 LP  0  0  0  0  0  0  0  0  0  0  0  0  # atno 17342 bound_to 10162
  139.6346  144.0656  152.2505 LP  0  0  0  0  0  0  0  0  0  0  0  0  # atno 17343 bound_to 10162
  156.7827  130.4864  149.5398 LP  0  0  0  0  0  0  0  0  0  0  0  0  # atno 17370 bound_to 10713
  156.1290  130.6164  151.0306 LP  0  0  0  0  0  0  0  0  0  0  0  0  # atno 17371 bound_to 10713
  141.1785  133.8464  157.1340 LP  0  0  0  0  0  0  0  0  0  0  0  0  # atno 17394 bound_to 11000
  140.0202  134.9949  157.0575 LP  0  0  0  0  0  0  0  0  0  0  0  0  # atno 17395 bound_to 11000

$$$$
