AV-unprocessed.smi:162|AV-procd|sdf|1376|dock7
  -GOLD-   2262019103D 1   1.00000     0.00000
 Structure written by MMmdl.
 54 57  0  0  0  0  0  0  0  0  1 V2000
  154.7057  138.8545  159.8992 C   0  0  0  0  0  0  0  0  0  0  0  0
  154.2051  139.6804  158.8595 O   0  0  0  0  0  0  0  0  0  0  0  0
  152.8003  139.5848  158.6684 C   0  0  0  0  0  0  0  0  0  0  0  0
  152.2334  140.8080  157.9149 C   0  0  2  0  0  0  0  0  0  0  0  0
  152.0829  142.0506  158.8006 C   0  0  0  0  0  0  0  0  0  0  0  0
  150.8921  142.8203  158.2042 C   0  0  1  0  0  0  0  0  0  0  0  0
  151.2635  144.0881  157.6813 O   0  0  0  0  0  0  0  0  0  0  0  0
  151.9698  144.8974  158.6081 C   0  0  0  0  0  0  0  0  0  0  0  0
  150.3980  141.9253  157.0620 C   0  0  0  0  0  0  0  0  0  0  0  0
  150.9018  140.5927  157.3645 N   0  0  0  0  0  0  0  0  0  0  0  0
  150.8285  139.6731  156.3731 C   0  0  0  0  0  0  0  0  0  0  0  0
  150.8029  140.0600  155.0699 N   0  0  0  0  0  0  0  0  0  0  0  0
  150.7624  139.1416  154.0994 C   0  0  0  0  0  0  0  0  0  0  0  0
  150.7492  137.8112  154.2085 N   0  0  0  0  0  0  0  0  0  0  0  0
  150.7765  137.4213  155.5152 C   0  0  0  0  0  0  0  0  0  0  0  0
  150.8145  138.2801  156.6487 C   0  0  0  0  0  0  0  0  0  0  0  0
  150.8410  137.5281  157.8160 N   0  0  0  0  0  0  0  0  0  0  0  0
  150.8278  136.2924  157.3959 C   0  0  0  0  0  0  0  0  0  0  0  0
  150.7793  136.1359  156.0284 N   0  0  0  0  0  0  0  0  0  0  0  0
  150.7665  134.8810  155.2933 C   0  0  0  0  0  0  0  0  0  0  0  0
  149.3576  134.4006  154.8626 C   0  0  0  0  0  0  0  0  0  0  0  0
  148.7145  135.5504  154.3423 O   0  0  0  0  0  0  0  0  0  0  0  0
  149.4016  133.3279  153.7531 C   0  0  0  0  0  0  0  0  0  0  0  0
  147.9953  132.8075  153.4040 C   0  0  0  0  0  0  0  0  0  0  0  0
  147.3569  132.3083  154.5740 O   0  0  0  0  0  0  0  0  0  0  0  0
  147.1577  133.3097  155.5655 C   0  0  0  0  0  0  0  0  0  0  0  0
  148.5151  133.8607  156.0387 C   0  0  0  0  0  0  0  0  0  0  0  0
  152.8889  141.0568  157.0789 H   0  0  0  0  0  0  0  0  0  0  0  0
  150.0998  142.9233  158.9479 H   0  0  0  0  0  0  0  0  0  0  0  0
  155.7732  139.0357  160.0225 H   0  0  0  0  0  0  0  0  0  0  0  0
  154.5762  137.7962  159.6740 H   0  0  0  0  0  0  0  0  0  0  0  0
  154.2181  139.0730  160.8498 H   0  0  0  0  0  0  0  0  0  0  0  0
  152.5642  138.6529  158.1531 H   0  0  0  0  0  0  0  0  0  0  0  0
  152.3349  139.5179  159.6524 H   0  0  0  0  0  0  0  0  0  0  0  0
  151.8489  141.7652  159.8272 H   0  0  0  0  0  0  0  0  0  0  0  0
  153.0050  142.6317  158.8234 H   0  0  0  0  0  0  0  0  0  0  0  0
  152.2255  145.8480  158.1403 H   0  0  0  0  0  0  0  0  0  0  0  0
  152.8971  144.4256  158.9338 H   0  0  0  0  0  0  0  0  0  0  0  0
  151.3600  145.1110  159.4867 H   0  0  0  0  0  0  0  0  0  0  0  0
  149.3102  141.9304  156.9885 H   0  0  0  0  0  0  0  0  0  0  0  0
  150.7998  142.2850  156.1136 H   0  0  0  0  0  0  0  0  0  0  0  0
  150.7410  139.5279  153.0912 H   0  0  0  0  0  0  0  0  0  0  0  0
  150.8505  135.4545  158.0777 H   0  0  0  0  0  0  0  0  0  0  0  0
  151.4049  135.0006  154.4167 H   0  0  0  0  0  0  0  0  0  0  0  0
  151.2474  134.1237  155.9143 H   0  0  0  0  0  0  0  0  0  0  0  0
  149.0299  135.6993  153.4640 H   0  0  0  0  0  0  0  0  0  0  0  0
  149.8904  133.7190  152.8599 H   0  0  0  0  0  0  0  0  0  0  0  0
  149.9980  132.4775  154.0825 H   0  0  0  0  0  0  0  0  0  0  0  0
  147.3865  133.5896  152.9478 H   0  0  0  0  0  0  0  0  0  0  0  0
  148.0680  132.0010  152.6743 H   0  0  0  0  0  0  0  0  0  0  0  0
  146.5230  134.1056  155.1733 H   0  0  0  0  0  0  0  0  0  0  0  0
  146.6228  132.8673  156.4060 H   0  0  0  0  0  0  0  0  0  0  0  0
  149.0483  133.0498  156.5350 H   0  0  0  0  0  0  0  0  0  0  0  0
  148.3655  134.6353  156.7918 H   0  0  0  0  0  0  0  0  0  0  0  0
  1  2  1  0  0  0  0
  1 30  1  0  0  0  0
  1 31  1  0  0  0  0
  1 32  1  0  0  0  0
  2  3  1  0  0  0  0
  3  4  1  0  0  0  0
  3 33  1  0  0  0  0
  3 34  1  0  0  0  0
  4 28  1  0  0  0  0
  4 10  1  0  0  0  0
  4  5  1  0  0  0  0
  5  6  1  0  0  0  0
  5 35  1  0  0  0  0
  5 36  1  0  0  0  0
  6 29  1  0  0  0  0
  6  7  1  0  0  0  0
  6  9  1  0  0  0  0
  7  8  1  0  0  0  0
  8 37  1  0  0  0  0
  8 38  1  0  0  0  0
  8 39  1  0  0  0  0
  9 10  1  0  0  0  0
  9 40  1  0  0  0  0
  9 41  1  0  0  0  0
 10 11  1  0  0  0  0
 11 16  1  0  0  0  0
 11 12  2  0  0  0  0
 12 13  1  0  0  0  0
 13 14  2  0  0  0  0
 13 42  1  0  0  0  0
 14 15  1  0  0  0  0
 15 19  1  0  0  0  0
 15 16  2  0  0  0  0
 16 17  1  0  0  0  0
 17 18  2  0  0  0  0
 18 19  1  0  0  0  0
 18 43  1  0  0  0  0
 19 20  1  0  0  0  0
 20 21  1  0  0  0  0
 20 44  1  0  0  0  0
 20 45  1  0  0  0  0
 21 27  1  0  0  0  0
 21 22  1  0  0  0  0
 21 23  1  0  0  0  0
 22 46  1  0  0  0  0
 23 24  1  0  0  0  0
 23 47  1  0  0  0  0
 23 48  1  0  0  0  0
 24 25  1  0  0  0  0
 24 49  1  0  0  0  0
 24 50  1  0  0  0  0
 25 26  1  0  0  0  0
 26 27  1  0  0  0  0
 26 51  1  0  0  0  0
 26 52  1  0  0  0  0
 27 53  1  0  0  0  0
 27 54  1  0  0  0  0
M  END
> <s_m_source_file>
AV-unprocessed.smi

> <i_m_source_file_index>
162

> <i_lp_mmshare_version>
43012

> <i_f3d_flags>
0

> <s_epik_input>
W0NIM11PW0NIMl1bQ0BASF0xW0NIMl1bQ0BASF0oT1tDSDNdKVtDSDJdTjFjKG5bY0hdbjIpYyhjMjMpbltjSF1uM1tDSDJdQzQoW09IXSlbQ0gyXVtDSDJdT1tDSDJdW0NIMl00

> <s_epik_cmdline>
J2VwaWtfcHl0aG9uJywgJy1waCcsICc3LjAnLCAnLXRuJywgJzgnLCAnLW1hJywgJzIwMCcsICctbWV0YWxfYmluZGluZycsICctaW1hZScsICc8aW5maWxlLm1hZT4nLCAnLW9tYWUnLCAnPG91dGZpbGUubWFlPic=

> <r_lp_tautomer_probability>
1

> <r_epik_Ionization_Penalty>
0.00660334

> <r_epik_Ionization_Penalty_Charging>
0

> <r_epik_Ionization_Penalty_Neutral>
0.00660334

> <r_epik_State_Penalty>
0.00469459

> <r_epik_Charging_Adjusted_Penalty>
0.00469459

> <i_epik_Tot_Q>
0

> <i_epik_Tot_abs_Q>
0

> <r_epik_Metal_State_Penalty>
-0

> <b_epik_Metal_Only>
0

> <s_lp_Force_Field>
OPLS_2005

> <r_lp_Energy>
45.7705

> <b_lp_Chiralities_Consistent>
1

> <s_lp_Variant>
AV-unprocessed.smi:162-1

> <Gold.Version>
5.8.1

> <Gold.Id.Protein>
6NUR|6NUR_protein|mol2

> <Gold.PLP.Fitness>
42.4353

> <Gold.PLP.PLP>
-36.1687

> <Gold.PLP.part.hbond>
-3.0000

> <Gold.PLP.part.metal>
0.0000

> <Gold.PLP.part.buried>
-5.7967

> <Gold.PLP.part.nonpolar>
-27.6538

> <Gold.PLP.part.repulsive>
0.4728

> <Gold.PLP.ligand.clash>
0.0000

> <Gold.PLP.ligand.torsion>
1.4056

> <Gold.PLP.Chemscore.Hbond>
2.0000

> <Gold.PLP.Chemscore.CHOScore>
1.0000

> <Gold.PLP.Chemscore.Metal>
0.0000

> <Gold.Chemscore.Hbonds>
donor molecule, donor type, donor heavy atom, donor atom, acceptor molecule, acceptor atom, score
      L1  H    22    46       P1  7948  1.00
      P1  H  7997  8009       L1     2  1.00
      L1  C    13    42       P1  7957  1.00

> <Gold.PLP.Chemscore.Internal.Correction>
0.0778

> <Gold.Rescore>
     Score         DG    S(hbond)    S(metal)    S(lipo)     H(rot)  DE(clash)    DE(int)     intcor
     12.30     -13.83       1.95        0.00      78.29       2.86       0.04       1.49       ----

> <Gold.Chemscore.Fitness>
12.3043

> <Gold.Chemscore.DG>
-13.8346

> <Gold.Chemscore.ZeroCoef>
-5.4800

> <Gold.Chemscore.Hbond>
1.9541

> <Gold.Chemscore.Metal>
0.0000

> <Gold.Chemscore.Lipo>
78.2917

> <Gold.Chemscore.Internal_Hbond>
0.0000

> <Gold.Chemscore.DEClash>
0.0407

> <Gold.Chemscore.DEInternal>
1.4896

> <Gold.Chemscore.Rot>
2.8642

> <Gold.Chemscore.Internal.Correction>
   9.000000E+99

> <Gold.Chemscore.Hbonds>
donor molecule, donor type, donor heavy atom, donor atom, acceptor molecule, acceptor atom, score
      L1  H    22    46       P1  7948  0.81
      P1  H  7997  8009       L1     2  0.29

> <Gold.Chemscore.Hbond.Weighted>
-6.5268

> <Gold.Chemscore.Metal.Weighted>
-0.0000

> <Gold.Chemscore.Lipo.Weighted>
-9.1601

> <Gold.Chemscore.Internal_Hbond.Weighted>
0.0000

> <Gold.Chemscore.DEClash.Weighted>
0.0407

> <Gold.Chemscore.DEInternal.Weighted>
1.4896

> <Gold.Chemscore.Rot.Weighted>
7.3324

> <Gold.Chemscore.Internal.Correction.Weighted>
   9.000000E+99

> <Gold.Protein.RotatedTorsions>
[ 6907 6896 6895 6894 ] final   31.76 input  -60.11 | X-H torsion
[ 7974 7965 7964 7962 ] final   11.62 input  175.53 | X-H torsion
[ 8008 7997 7996 7995 ] final  143.02 input   59.86 | X-H torsion
[ 10167 10162 10161 10158 ] final   28.43 input  -65.29 | X-H torsion
[ 10718 10713 10712 10709 ] final   12.58 input   66.30 | X-H torsion
[ 10763 10752 10751 10750 ] final   31.58 input  -60.55 | X-H torsion
[ 11005 11000 10999 10996 ] final   63.24 input  -57.11 | X-H torsion

> <Gold.Protein.ActiveResidues>
 VAL166  LYS551  ARG553  GLY616  TRP617  ASP618  TYR619  PRO620  LYS621  CYS622 
 ASP623  PHE694  ASN695  SER759  ASP760  ASP761  ALA762  ILE779  LEU786  VAL792 
 PHE793  MET794  SER795  GLU796  ALA797  LYS798  CYS799  TRP800  GLU811  SER814 

> <Gold.Protein.RotatedAtoms>
  152.0648  134.9571  160.0574 H   0  0  0  0  0  0  0  0  0  0  0  0  # atno 6907 bound_to 6896
  152.0920  133.4200  159.4556 H   0  0  0  0  0  0  0  0  0  0  0  0  # atno 6908 bound_to 6896
  150.6837  134.2780  159.4659 H   0  0  0  0  0  0  0  0  0  0  0  0  # atno 6909 bound_to 6896
  146.2367  139.9459  142.8477 H   0  0  0  0  0  0  0  0  0  0  0  0  # atno 7974 bound_to 7965
  156.2938  140.2273  156.4823 H   0  0  0  0  0  0  0  0  0  0  0  0  # atno 8008 bound_to 7997
  154.7842  140.0458  157.1172 H   0  0  0  0  0  0  0  0  0  0  0  0  # atno 8009 bound_to 7997
  154.9722  140.3068  155.4986 H   0  0  0  0  0  0  0  0  0  0  0  0  # atno 8010 bound_to 7997
  140.4853  144.0552  150.6278 H   0  0  0  0  0  0  0  0  0  0  0  0  # atno 10167 bound_to 10162
  157.0122  130.6121  149.5709 H   0  0  0  0  0  0  0  0  0  0  0  0  # atno 10718 bound_to 10713
  153.0308  135.6435  154.1221 H   0  0  0  0  0  0  0  0  0  0  0  0  # atno 10763 bound_to 10752
  154.0943  135.2864  155.3266 H   0  0  0  0  0  0  0  0  0  0  0  0  # atno 10764 bound_to 10752
  154.6443  135.5449  153.7889 H   0  0  0  0  0  0  0  0  0  0  0  0  # atno 10765 bound_to 10752
  140.0038  134.6401  155.9888 H   0  0  0  0  0  0  0  0  0  0  0  0  # atno 11005 bound_to 11000
  145.1908  140.9811  143.4212 LP  0  0  0  0  0  0  0  0  0  0  0  0  # atno 17320 bound_to 7965
  144.9859  139.3737  143.6239 LP  0  0  0  0  0  0  0  0  0  0  0  0  # atno 17321 bound_to 7965
  140.3805  143.2805  152.0175 LP  0  0  0  0  0  0  0  0  0  0  0  0  # atno 17342 bound_to 10162
  139.4841  144.6158  151.7348 LP  0  0  0  0  0  0  0  0  0  0  0  0  # atno 17343 bound_to 10162
  156.0132  130.5225  150.8053 LP  0  0  0  0  0  0  0  0  0  0  0  0  # atno 17370 bound_to 10713
  157.5312  131.0936  150.9952 LP  0  0  0  0  0  0  0  0  0  0  0  0  # atno 17371 bound_to 10713
  141.1661  133.6537  156.4486 LP  0  0  0  0  0  0  0  0  0  0  0  0  # atno 17394 bound_to 11000
  140.4679  134.6780  157.5116 LP  0  0  0  0  0  0  0  0  0  0  0  0  # atno 17395 bound_to 11000

$$$$
