AV-unprocessed.smi:694|AV-procd|sdf|3378|dock3
  -GOLD-   22720 0353D 1   1.00000     0.00000
 Structure written by MMmdl.
 43 44  0  0  0  0  0  0  0  0  2 V2000
  151.1427  144.2290  158.0359 C   0  0  0  0  0  0  0  0  0  0  0  0
  150.8899  142.8520  158.4451 N   0  0  0  0  0  0  0  0  0  0  0  0
  151.1922  142.4199  159.8034 C   0  0  0  0  0  0  0  0  0  0  0  0
  150.3802  141.9253  157.5101 C   0  0  0  0  0  0  0  0  0  0  0  0
  150.4145  140.5235  157.7086 C   0  0  0  0  0  0  0  0  0  0  0  0
  149.8840  139.6625  156.7258 C   0  0  0  0  0  0  0  0  0  0  0  0
  149.3256  140.1990  155.5466 C   0  0  0  0  0  0  0  0  0  0  0  0
  148.7922  139.2865  154.5950 N   0  0  0  0  0  0  0  0  0  0  0  0
  147.8319  139.4892  153.6760 C   0  0  0  0  0  0  0  0  0  0  0  0
  147.2599  140.5582  153.4660 O   0  0  0  0  0  0  0  0  0  0  0  0
  147.5742  138.3685  152.9872 N   0  0  0  0  0  0  0  0  0  0  0  0
  146.5867  138.2535  151.9180 C   0  0  0  0  0  0  0  0  0  0  0  0
  145.5803  137.1108  152.1717 C   0  0  2  0  0  0  0  0  0  0  0  0
  145.5017  136.0775  151.0426 C   0  0  0  0  0  0  0  0  0  0  0  0
  144.1399  135.3854  151.2073 C   0  0  0  0  0  0  0  0  0  0  0  0
  143.3454  136.2161  152.2283 C   0  0  0  0  0  0  0  0  0  0  0  0
  144.1186  137.5276  152.3995 C   0  0  2  0  0  0  0  0  0  0  0  0
  143.6820  138.4487  151.4166 O   0  0  0  0  0  0  0  0  0  0  0  0
  149.3075  141.6069  155.3988 C   0  0  0  0  0  0  0  0  0  0  0  0
  149.8263  142.3942  156.3656 N   0  3  0  0  0  0  0  0  0  0  0  0
  150.2187  144.7058  157.7073 H   0  0  0  0  0  0  0  0  0  0  0  0
  151.8604  144.2600  157.2154 H   0  0  0  0  0  0  0  0  0  0  0  0
  151.5492  144.8195  158.8570 H   0  0  0  0  0  0  0  0  0  0  0  0
  151.9390  141.6252  159.7958 H   0  0  0  0  0  0  0  0  0  0  0  0
  150.2931  142.0503  160.2976 H   0  0  0  0  0  0  0  0  0  0  0  0
  151.5872  143.2414  160.4016 H   0  0  0  0  0  0  0  0  0  0  0  0
  150.8386  140.0911  158.6025 H   0  0  0  0  0  0  0  0  0  0  0  0
  149.9102  138.5936  156.8808 H   0  0  0  0  0  0  0  0  0  0  0  0
  149.2067  138.3660  154.6016 H   0  0  0  0  0  0  0  0  0  0  0  0
  148.0911  137.5334  153.2211 H   0  0  0  0  0  0  0  0  0  0  0  0
  146.0668  139.2079  151.8313 H   0  0  0  0  0  0  0  0  0  0  0  0
  147.0941  138.0996  150.9641 H   0  0  0  0  0  0  0  0  0  0  0  0
  145.9007  136.5727  153.0657 H   0  0  0  0  0  0  0  0  0  0  0  0
  145.5389  136.5784  150.0741 H   0  0  0  0  0  0  0  0  0  0  0  0
  146.3314  135.3708  151.0760 H   0  0  0  0  0  0  0  0  0  0  0  0
  143.6200  135.3432  150.2495 H   0  0  0  0  0  0  0  0  0  0  0  0
  144.2578  134.3599  151.5591 H   0  0  0  0  0  0  0  0  0  0  0  0
  142.3066  136.3681  151.9316 H   0  0  0  0  0  0  0  0  0  0  0  0
  143.3312  135.6852  153.1812 H   0  0  0  0  0  0  0  0  0  0  0  0
  143.9649  137.9634  153.3872 H   0  0  0  0  0  0  0  0  0  0  0  0
  143.9827  139.3113  151.6576 H   0  0  0  0  0  0  0  0  0  0  0  0
  148.8937  142.1442  154.5593 H   0  0  0  0  0  0  0  0  0  0  0  0
  149.7963  143.4043  156.2251 H   0  0  0  0  0  0  0  0  0  0  0  0
  1  2  1  0  0  0  0
  1 21  1  0  0  0  0
  1 22  1  0  0  0  0
  1 23  1  0  0  0  0
  2  3  1  0  0  0  0
  2  4  1  0  0  0  0
  3 24  1  0  0  0  0
  3 25  1  0  0  0  0
  3 26  1  0  0  0  0
  4 20  1  0  0  0  0
  4  5  2  0  0  0  0
  5  6  1  0  0  0  0
  5 27  1  0  0  0  0
  6  7  2  0  0  0  0
  6 28  1  0  0  0  0
  7  8  1  0  0  0  0
  7 19  1  0  0  0  0
  8  9  1  0  0  0  0
  8 29  1  0  0  0  0
  9 10  2  0  0  0  0
  9 11  1  0  0  0  0
 11 12  1  0  0  0  0
 11 30  1  0  0  0  0
 12 13  1  0  0  0  0
 12 31  1  0  0  0  0
 12 32  1  0  0  0  0
 13 17  1  0  0  0  0
 13 14  1  0  0  0  0
 13 33  1  0  0  0  0
 14 15  1  0  0  0  0
 14 34  1  0  0  0  0
 14 35  1  0  0  0  0
 15 16  1  0  0  0  0
 15 36  1  0  0  0  0
 15 37  1  0  0  0  0
 16 17  1  0  0  0  0
 16 38  1  0  0  0  0
 16 39  1  0  0  0  0
 17 18  1  0  0  0  0
 17 40  1  0  0  0  0
 18 41  1  0  0  0  0
 19 20  2  0  0  0  0
 19 42  1  0  0  0  0
 20 43  1  0  0  0  0
M  CHG  1  20   1
M  END
> <s_m_source_file>
AV-unprocessed.smi

> <i_m_source_file_index>
694

> <i_lp_mmshare_version>
43012

> <i_f3d_flags>
0

> <s_epik_input>
W0NIM11OKFtDSDNdKWMxW2NIXVtjSF1jKFtjSF1uMSlbTkhdQyg9TylbTkhdW0NIMl1bQ0BASF0yW0NIMl1bQ0gyXVtDSDJdW0NASF0yW09IXQ==

> <s_epik_cmdline>
J2VwaWtfcHl0aG9uJywgJy1waCcsICc3LjAnLCAnLXRuJywgJzgnLCAnLW1hJywgJzIwMCcsICctbWV0YWxfYmluZGluZycsICctaW1hZScsICc8aW5maWxlLm1hZT4nLCAnLW9tYWUnLCAnPG91dGZpbGUubWFlPic=

> <r_lp_tautomer_probability>
0.999994

> <r_epik_Ionization_Penalty>
0.266135

> <r_epik_Ionization_Penalty_Charging>
0.266113

> <r_epik_Ionization_Penalty_Neutral>
2.14137e-05

> <r_epik_State_Penalty>
0.258052

> <r_epik_Charging_Adjusted_Penalty>
0.524165

> <i_epik_Tot_Q>
1

> <i_epik_Tot_abs_Q>
1

> <r_epik_Metal_State_Penalty>
0.544313

> <b_epik_Metal_Only>
0

> <s_lp_Force_Field>
OPLS_2005

> <r_lp_Energy>
36.5329

> <b_lp_Chiralities_Consistent>
1

> <s_lp_Variant>
AV-unprocessed.smi:694-3

> <Gold.Version>
5.8.1

> <Gold.Id.Protein>
6NUR|6NUR_protein|mol2

> <Gold.PLP.Fitness>
51.7147

> <Gold.PLP.PLP>
-41.6955

> <Gold.PLP.part.hbond>
-5.9215

> <Gold.PLP.part.metal>
0.0000

> <Gold.PLP.part.buried>
-0.7677

> <Gold.PLP.part.nonpolar>
-36.2777

> <Gold.PLP.part.repulsive>
0.4481

> <Gold.PLP.ligand.clash>
0.0000

> <Gold.PLP.ligand.torsion>
0.9964

> <Gold.PLP.Chemscore.Hbond>
4.0000

> <Gold.PLP.Chemscore.CHOScore>
0.0000

> <Gold.PLP.Chemscore.Metal>
0.0000

> <Gold.Chemscore.Hbonds>
donor molecule, donor type, donor heavy atom, donor atom, acceptor molecule, acceptor atom, score
      L1  H    11    30       P1  7948  0.46
      L1  H    18    41       P1 10175  0.58
      L1  H    20    43       P1  8028  1.86

> <Gold.PLP.Chemscore.Internal.Correction>
0.0119

> <Gold.Rescore>
     Score         DG    S(hbond)    S(metal)    S(lipo)     H(rot)  DE(clash)    DE(int)     intcor
     17.24     -19.37       2.78        0.00      77.52       1.75       0.47       1.66       ----

> <Gold.Chemscore.Fitness>
17.2437

> <Gold.Chemscore.DG>
-19.3660

> <Gold.Chemscore.ZeroCoef>
-5.4800

> <Gold.Chemscore.Hbond>
2.7821

> <Gold.Chemscore.Metal>
0.0000

> <Gold.Chemscore.Lipo>
77.5195

> <Gold.Chemscore.Internal_Hbond>
0.0000

> <Gold.Chemscore.DEClash>
0.4665

> <Gold.Chemscore.DEInternal>
1.6558

> <Gold.Chemscore.Rot>
1.7485

> <Gold.Chemscore.Internal.Correction>
   9.000000E+99

> <Gold.Chemscore.Hbonds>
donor molecule, donor type, donor heavy atom, donor atom, acceptor molecule, acceptor atom, score
      L1  H    11    30       P1  7948  0.44
      L1  H    18    41       P1 10175  0.46
      L1  H    20    43       P1  8028  0.91

> <Gold.Chemscore.Hbond.Weighted>
-9.2924

> <Gold.Chemscore.Metal.Weighted>
-0.0000

> <Gold.Chemscore.Lipo.Weighted>
-9.0698

> <Gold.Chemscore.Internal_Hbond.Weighted>
0.0000

> <Gold.Chemscore.DEClash.Weighted>
0.4665

> <Gold.Chemscore.DEInternal.Weighted>
1.6558

> <Gold.Chemscore.Rot.Weighted>
4.4762

> <Gold.Chemscore.Internal.Correction.Weighted>
   9.000000E+99

> <Gold.Protein.RotatedTorsions>
[ 6907 6896 6895 6894 ] final   25.91 input  -60.11 | X-H torsion
[ 7974 7965 7964 7962 ] final  -40.96 input  175.53 | X-H torsion
[ 8008 7997 7996 7995 ] final   94.49 input   59.86 | X-H torsion
[ 10167 10162 10161 10158 ] final -135.16 input  -65.29 | X-H torsion
[ 10718 10713 10712 10709 ] final -124.28 input   66.30 | X-H torsion
[ 10763 10752 10751 10750 ] final   15.74 input  -60.55 | X-H torsion
[ 11005 11000 10999 10996 ] final  160.86 input  -57.11 | X-H torsion

> <Gold.Protein.ActiveResidues>
 VAL166  LYS551  ARG553  GLY616  TRP617  ASP618  TYR619  PRO620  LYS621  CYS622 
 ASP623  PHE694  ASN695  SER759  ASP760  ASP761  ALA762  ILE779  LEU786  VAL792 
 PHE793  MET794  SER795  GLU796  ALA797  LYS798  CYS799  TRP800  GLU811  SER814 

> <Gold.Protein.RotatedAtoms>
  151.9796  135.0035  160.0556 H   0  0  0  0  0  0  0  0  0  0  0  0  # atno 6907 bound_to 6896
  152.1708  133.4637  159.4916 H   0  0  0  0  0  0  0  0  0  0  0  0  # atno 6908 bound_to 6896
  150.6901  134.1873  159.4314 H   0  0  0  0  0  0  0  0  0  0  0  0  # atno 6909 bound_to 6896
  146.0256  140.6796  142.9157 H   0  0  0  0  0  0  0  0  0  0  0  0  # atno 7974 bound_to 7965
  156.0584  140.3299  155.7433 H   0  0  0  0  0  0  0  0  0  0  0  0  # atno 8008 bound_to 7997
  155.5492  140.0609  157.2871 H   0  0  0  0  0  0  0  0  0  0  0  0  # atno 8009 bound_to 7997
  154.4469  140.1897  156.0658 H   0  0  0  0  0  0  0  0  0  0  0  0  # atno 8010 bound_to 7997
  139.8806  143.6843  152.2627 H   0  0  0  0  0  0  0  0  0  0  0  0  # atno 10167 bound_to 10162
  156.1574  130.6578  151.0002 H   0  0  0  0  0  0  0  0  0  0  0  0  # atno 10718 bound_to 10713
  153.1496  135.6776  153.8902 H   0  0  0  0  0  0  0  0  0  0  0  0  # atno 10763 bound_to 10752
  153.8332  135.3115  155.3421 H   0  0  0  0  0  0  0  0  0  0  0  0  # atno 10764 bound_to 10752
  154.7852  135.4866  154.0016 H   0  0  0  0  0  0  0  0  0  0  0  0  # atno 10765 bound_to 10752
  140.2101  134.8274  157.3111 H   0  0  0  0  0  0  0  0  0  0  0  0  # atno 11005 bound_to 11000
  144.7008  140.3643  143.7157 LP  0  0  0  0  0  0  0  0  0  0  0  0  # atno 17320 bound_to 7965
  145.7123  139.1688  143.2531 LP  0  0  0  0  0  0  0  0  0  0  0  0  # atno 17321 bound_to 7965
  139.7199  144.7604  151.0972 LP  0  0  0  0  0  0  0  0  0  0  0  0  # atno 17342 bound_to 10162
  140.7745  143.5221  150.9524 LP  0  0  0  0  0  0  0  0  0  0  0  0  # atno 17343 bound_to 10162
  157.6706  131.0862  150.7621 LP  0  0  0  0  0  0  0  0  0  0  0  0  # atno 17370 bound_to 10713
  156.7686  130.4821  149.5423 LP  0  0  0  0  0  0  0  0  0  0  0  0  # atno 17371 bound_to 10713
  140.1960  134.4313  155.7689 LP  0  0  0  0  0  0  0  0  0  0  0  0  # atno 17394 bound_to 11000
  141.2226  133.7049  156.8106 LP  0  0  0  0  0  0  0  0  0  0  0  0  # atno 17395 bound_to 11000

$$$$
