AV-unprocessed.smi:1047|AV-procd|sdf|4597|dock8
  -GOLD-   22720 3 83D 1   1.00000     0.00000
 Structure written by MMmdl.
 57 59  0  0  0  0  0  0  0  0  3 V2000
  143.7269  132.4021  151.0530 C   0  0  0  0  0  0  0  0  0  0  0  0
  145.0162  132.4441  151.8854 C   0  0  0  0  0  0  0  0  0  0  0  0
  144.8233  133.1168  153.1975 N   0  3  2  0  0  0  0  0  0  0  0  0
  144.2379  134.4758  153.0871 C   0  0  0  0  0  0  0  0  0  0  0  0
  145.2946  135.5054  152.6465 C   0  0  0  0  0  0  0  0  0  0  0  0
  146.3810  135.4981  153.5648 O   0  0  0  0  0  0  0  0  0  0  0  0
  147.0291  134.2317  153.6325 C   0  0  1  0  0  0  0  0  0  0  0  0
  148.2625  134.3474  154.5458 C   0  0  0  0  0  0  0  0  0  0  0  0
  148.9248  135.6438  154.4222 N   0  0  0  0  0  0  0  0  0  0  0  0
  148.4087  136.6505  155.3466 C   0  0  0  0  0  0  0  0  0  0  0  0
  148.5643  138.0795  154.7956 C   0  0  2  0  0  0  0  0  0  0  0  0
  148.0884  138.1279  153.4645 O   0  0  0  0  0  0  0  0  0  0  0  0
  149.9984  138.6401  154.8976 C   0  0  0  0  0  0  0  0  0  0  0  0
  150.0299  140.0566  155.2842 N   0  0  0  0  0  0  0  0  0  0  0  0
  149.4550  141.1382  154.6914 C   0  0  0  0  0  0  0  0  0  0  0  0
  149.7842  142.2338  155.4305 N   0  3  0  0  0  0  0  0  0  0  0  0
  150.5828  141.8462  156.5087 C   0  0  0  0  0  0  0  0  0  0  0  0
  151.1612  142.5920  157.5289 C   0  0  0  0  0  0  0  0  0  0  0  0
  151.9268  141.8898  158.4872 C   0  0  0  0  0  0  0  0  0  0  0  0
  152.5713  142.6754  159.6167 C   0  0  0  0  0  0  0  0  0  0  0  0
  152.0917  140.4828  158.4014 C   0  0  0  0  0  0  0  0  0  0  0  0
  152.9158  139.7379  159.4378 C   0  0  0  0  0  0  0  0  0  0  0  0
  151.4967  139.7423  157.3547 C   0  0  0  0  0  0  0  0  0  0  0  0
  150.7449  140.4502  156.4201 C   0  0  0  0  0  0  0  0  0  0  0  0
  146.0246  133.1392  154.0712 C   0  0  0  0  0  0  0  0  0  0  0  0
  143.9250  131.9919  150.0627 H   0  0  0  0  0  0  0  0  0  0  0  0
  143.3119  133.4015  150.9182 H   0  0  0  0  0  0  0  0  0  0  0  0
  142.9611  131.7778  151.5123 H   0  0  0  0  0  0  0  0  0  0  0  0
  145.4179  131.4393  152.0151 H   0  0  0  0  0  0  0  0  0  0  0  0
  145.7599  132.9975  151.3108 H   0  0  0  0  0  0  0  0  0  0  0  0
  143.3879  134.4755  152.4038 H   0  0  0  0  0  0  0  0  0  0  0  0
  143.8436  134.7611  154.0633 H   0  0  0  0  0  0  0  0  0  0  0  0
  145.6514  135.3004  151.6361 H   0  0  0  0  0  0  0  0  0  0  0  0
  144.8581  136.5042  152.6295 H   0  0  0  0  0  0  0  0  0  0  0  0
  147.4020  133.9945  152.6354 H   0  0  0  0  0  0  0  0  0  0  0  0
  147.9514  134.1926  155.5797 H   0  0  0  0  0  0  0  0  0  0  0  0
  148.9645  133.5461  154.3120 H   0  0  0  0  0  0  0  0  0  0  0  0
  148.8342  135.9865  153.4709 H   0  0  0  0  0  0  0  0  0  0  0  0
  147.3570  136.4578  155.5628 H   0  0  0  0  0  0  0  0  0  0  0  0
  148.9364  136.5759  156.2982 H   0  0  0  0  0  0  0  0  0  0  0  0
  147.9021  138.7218  155.3768 H   0  0  0  0  0  0  0  0  0  0  0  0
  148.2317  137.2838  153.0648 H   0  0  0  0  0  0  0  0  0  0  0  0
  150.5894  138.0719  155.6171 H   0  0  0  0  0  0  0  0  0  0  0  0
  150.5138  138.5573  153.9398 H   0  0  0  0  0  0  0  0  0  0  0  0
  148.8478  141.1289  153.7977 H   0  0  0  0  0  0  0  0  0  0  0  0
  151.0315  143.6628  157.5876 H   0  0  0  0  0  0  0  0  0  0  0  0
  153.6523  142.5333  159.6154 H   0  0  0  0  0  0  0  0  0  0  0  0
  152.1793  142.3508  160.5812 H   0  0  0  0  0  0  0  0  0  0  0  0
  152.3767  143.7442  159.5209 H   0  0  0  0  0  0  0  0  0  0  0  0
  152.9155  138.6634  159.2514 H   0  0  0  0  0  0  0  0  0  0  0  0
  152.5134  139.9010  160.4378 H   0  0  0  0  0  0  0  0  0  0  0  0
  153.9514  140.0793  159.4202 H   0  0  0  0  0  0  0  0  0  0  0  0
  151.6216  138.6716  157.2882 H   0  0  0  0  0  0  0  0  0  0  0  0
  145.6802  133.3398  155.0863 H   0  0  0  0  0  0  0  0  0  0  0  0
  146.5071  132.1633  154.1051 H   0  0  0  0  0  0  0  0  0  0  0  0
  144.1309  132.5586  153.6766 H   0  0  0  0  0  0  0  0  0  0  0  0
  149.4864  143.1757  155.2111 H   0  0  0  0  0  0  0  0  0  0  0  0
  1  2  1  0  0  0  0
  1 26  1  0  0  0  0
  1 27  1  0  0  0  0
  1 28  1  0  0  0  0
  2  3  1  0  0  0  0
  2 29  1  0  0  0  0
  2 30  1  0  0  0  0
  3 25  1  0  0  0  0
  3  4  1  0  0  0  0
  3 56  1  0  0  0  0
  4  5  1  0  0  0  0
  4 31  1  0  0  0  0
  4 32  1  0  0  0  0
  5  6  1  0  0  0  0
  5 33  1  0  0  0  0
  5 34  1  0  0  0  0
  6  7  1  0  0  0  0
  7  8  1  0  0  0  0
  7 25  1  0  0  0  0
  7 35  1  0  0  0  0
  8  9  1  0  0  0  0
  8 36  1  0  0  0  0
  8 37  1  0  0  0  0
  9 10  1  0  0  0  0
  9 38  1  0  0  0  0
 10 11  1  0  0  0  0
 10 39  1  0  0  0  0
 10 40  1  0  0  0  0
 11 12  1  0  0  0  0
 11 13  1  0  0  0  0
 11 41  1  0  0  0  0
 12 42  1  0  0  0  0
 13 14  1  0  0  0  0
 13 43  1  0  0  0  0
 13 44  1  0  0  0  0
 14 24  1  0  0  0  0
 14 15  1  0  0  0  0
 15 16  2  0  0  0  0
 15 45  1  0  0  0  0
 16 17  1  0  0  0  0
 16 57  1  0  0  0  0
 17 24  2  0  0  0  0
 17 18  1  0  0  0  0
 18 19  2  0  0  0  0
 18 46  1  0  0  0  0
 19 20  1  0  0  0  0
 19 21  1  0  0  0  0
 20 47  1  0  0  0  0
 20 48  1  0  0  0  0
 20 49  1  0  0  0  0
 21 22  1  0  0  0  0
 21 23  2  0  0  0  0
 22 50  1  0  0  0  0
 22 51  1  0  0  0  0
 22 52  1  0  0  0  0
 23 24  1  0  0  0  0
 23 53  1  0  0  0  0
 25 54  1  0  0  0  0
 25 55  1  0  0  0  0
M  CHG  1   3   1
M  CHG  1  16   1
M  END
> <s_m_source_file>
AV-unprocessed.smi

> <i_m_source_file_index>
1047

> <i_lp_mmshare_version>
43012

> <i_f3d_flags>
0

> <s_epik_input>
W0NIM11bQ0gyXU4xW0NIMl1bQ0gyXU9bQ0BIXShbQ0gyXTEpW0NIMl1bTkhdW0NIMl1bQ0BIXShbT0hdKVtDSDJdbihbY0hdbjIpYyhjMjMpW2NIXWMoW0NIM10pYyhbY0hdMylbQ0gzXQ==

> <s_epik_cmdline>
J2VwaWtfcHl0aG9uJywgJy1waCcsICc3LjAnLCAnLXRuJywgJzgnLCAnLW1hJywgJzIwMCcsICctbWV0YWxfYmluZGluZycsICctaW1hZScsICc8aW5maWxlLm1hZT4nLCAnLW9tYWUnLCAnPG91dGZpbGUubWFlPic=

> <r_epik_Ionization_Penalty>
2.03028

> <r_epik_Ionization_Penalty_Charging>
1.21256

> <r_epik_Ionization_Penalty_Neutral>
0.817715

> <r_epik_State_Penalty>
2.54959

> <r_epik_Charging_Adjusted_Penalty>
3.76215

> <i_epik_Tot_Q>
2

> <i_epik_Tot_abs_Q>
2

> <r_epik_Metal_State_Penalty>
6.52811

> <b_epik_Metal_Only>
0

> <s_lp_Force_Field>
OPLS_2005

> <r_lp_Energy>
43.5189

> <b_lp_Chiralities_Consistent>
1

> <s_lp_Variant>
AV-unprocessed.smi:1047-38

> <Gold.Version>
5.8.1

> <Gold.Id.Protein>
6NUR|6NUR_protein|mol2

> <Gold.PLP.Fitness>
57.0041

> <Gold.PLP.PLP>
-41.0020

> <Gold.PLP.part.hbond>
-4.2330

> <Gold.PLP.part.metal>
0.0000

> <Gold.PLP.part.buried>
-3.8525

> <Gold.PLP.part.nonpolar>
-33.3482

> <Gold.PLP.part.repulsive>
0.4857

> <Gold.PLP.ligand.clash>
0.0000

> <Gold.PLP.ligand.torsion>
1.2299

> <Gold.PLP.Chemscore.Hbond>
5.8880

> <Gold.PLP.Chemscore.CHOScore>
0.2297

> <Gold.PLP.Chemscore.Metal>
0.0000

> <Gold.Chemscore.Hbonds>
donor molecule, donor type, donor heavy atom, donor atom, acceptor molecule, acceptor atom, score
      L1  H     3    56       P1 10957  2.00
      L1  H     9    38       P1  7948  1.00
      L1  H    12    42       P1  7948  1.00
      L1  H    16    57       P1  8028  2.00

> <Gold.PLP.Chemscore.Internal.Correction>
0.1089

> <Gold.Rescore>
     Score         DG    S(hbond)    S(metal)    S(lipo)     H(rot)  DE(clash)    DE(int)     intcor
     20.80     -23.43       3.92        0.00     100.76       2.71       0.07       2.56       ----

> <Gold.Chemscore.Fitness>
20.8018

> <Gold.Chemscore.DG>
-23.4287

> <Gold.Chemscore.ZeroCoef>
-5.4800

> <Gold.Chemscore.Hbond>
3.9206

> <Gold.Chemscore.Metal>
0.0000

> <Gold.Chemscore.Lipo>
100.7563

> <Gold.Chemscore.Internal_Hbond>
0.0000

> <Gold.Chemscore.DEClash>
0.0668

> <Gold.Chemscore.DEInternal>
2.5601

> <Gold.Chemscore.Rot>
2.7088

> <Gold.Chemscore.Internal.Correction>
   9.000000E+99

> <Gold.Chemscore.Hbonds>
donor molecule, donor type, donor heavy atom, donor atom, acceptor molecule, acceptor atom, score
      L1  H     3    56       P1 10957  0.44
      L1  H     9    38       P1  7948  0.98
      L1  H    12    42       P1  7948  0.96
      L1  H    16    57       P1  8028  0.97

> <Gold.Chemscore.Hbond.Weighted>
-13.0948

> <Gold.Chemscore.Metal.Weighted>
-0.0000

> <Gold.Chemscore.Lipo.Weighted>
-11.7885

> <Gold.Chemscore.Internal_Hbond.Weighted>
0.0000

> <Gold.Chemscore.DEClash.Weighted>
0.0668

> <Gold.Chemscore.DEInternal.Weighted>
2.5601

> <Gold.Chemscore.Rot.Weighted>
6.9346

> <Gold.Chemscore.Internal.Correction.Weighted>
   9.000000E+99

> <Gold.Protein.RotatedTorsions>
[ 6907 6896 6895 6894 ] final -134.27 input  -60.11 | X-H torsion
[ 7974 7965 7964 7962 ] final  175.94 input  175.53 | X-H torsion
[ 8008 7997 7996 7995 ] final   16.83 input   59.86 | X-H torsion
[ 10167 10162 10161 10158 ] final    4.75 input  -65.29 | X-H torsion
[ 10718 10713 10712 10709 ] final   82.72 input   66.30 | X-H torsion
[ 10763 10752 10751 10750 ] final  161.11 input  -60.55 | X-H torsion
[ 11005 11000 10999 10996 ] final  140.28 input  -57.11 | X-H torsion

> <Gold.Protein.ActiveResidues>
 VAL166  LYS551  ARG553  GLY616  TRP617  ASP618  TYR619  PRO620  LYS621  CYS622 
 ASP623  PHE694  ASN695  SER759  ASP760  ASP761  ALA762  ILE779  LEU786  VAL792 
 PHE793  MET794  SER795  GLU796  ALA797  LYS798  CYS799  TRP800  GLU811  SER814 

> <Gold.Protein.RotatedAtoms>
  150.9839  133.6217  159.2718 H   0  0  0  0  0  0  0  0  0  0  0  0  # atno 6907 bound_to 6896
  151.3462  135.0873  159.9397 H   0  0  0  0  0  0  0  0  0  0  0  0  # atno 6908 bound_to 6896
  152.5224  133.9440  159.7694 H   0  0  0  0  0  0  0  0  0  0  0  0  # atno 6909 bound_to 6896
  144.7193  140.0022  143.6440 H   0  0  0  0  0  0  0  0  0  0  0  0  # atno 7974 bound_to 7965
  154.8826  140.2975  155.5416 H   0  0  0  0  0  0  0  0  0  0  0  0  # atno 8008 bound_to 7997
  156.3022  140.2439  156.3765 H   0  0  0  0  0  0  0  0  0  0  0  0  # atno 8009 bound_to 7997
  154.8701  140.0402  157.1708 H   0  0  0  0  0  0  0  0  0  0  0  0  # atno 8010 bound_to 7997
  140.6518  143.7525  150.7588 H   0  0  0  0  0  0  0  0  0  0  0  0  # atno 10167 bound_to 10162
  157.6863  131.0060  150.2417 H   0  0  0  0  0  0  0  0  0  0  0  0  # atno 10718 bound_to 10713
  154.2579  135.2769  155.2790 H   0  0  0  0  0  0  0  0  0  0  0  0  # atno 10763 bound_to 10752
  154.5409  135.5703  153.6842 H   0  0  0  0  0  0  0  0  0  0  0  0  # atno 10764 bound_to 10752
  152.9968  135.6251  154.2729 H   0  0  0  0  0  0  0  0  0  0  0  0  # atno 10765 bound_to 10752
  140.0316  134.9349  157.0673 H   0  0  0  0  0  0  0  0  0  0  0  0  # atno 11005 bound_to 11000
  146.0326  139.3349  143.0746 LP  0  0  0  0  0  0  0  0  0  0  0  0  # atno 17320 bound_to 7965
  145.8433  140.9568  143.0788 LP  0  0  0  0  0  0  0  0  0  0  0  0  # atno 17321 bound_to 7965
  140.1177  143.4640  152.2332 LP  0  0  0  0  0  0  0  0  0  0  0  0  # atno 17342 bound_to 10162
  139.5735  144.7475  151.3828 LP  0  0  0  0  0  0  0  0  0  0  0  0  # atno 17343 bound_to 10162
  156.3030  130.3761  149.7732 LP  0  0  0  0  0  0  0  0  0  0  0  0  # atno 17370 bound_to 10713
  156.5357  130.8277  151.3252 LP  0  0  0  0  0  0  0  0  0  0  0  0  # atno 17371 bound_to 10713
  140.4216  134.1874  155.7164 LP  0  0  0  0  0  0  0  0  0  0  0  0  # atno 17394 bound_to 11000
  141.1834  133.8365  157.1176 LP  0  0  0  0  0  0  0  0  0  0  0  0  # atno 17395 bound_to 11000

$$$$
