AV-unprocessed.smi:557|AV-procd|sdf|2914|dock7
  -GOLD-   2262023403D 1   1.00000     0.00000
 Structure written by MMmdl.
 47 49  0  0  0  0  0  0  0  0  2 V2000
  151.1521  141.8826  157.4528 C   0  0  0  0  0  0  0  0  0  0  0  0
  150.8259  141.0209  156.3367 N   0  0  0  0  0  0  0  0  0  0  0  0
  151.3156  139.7657  156.0469 C   0  0  0  0  0  0  0  0  0  0  0  0
  150.7155  139.3481  154.8925 C   0  0  0  0  0  0  0  0  0  0  0  0
  150.9060  138.0564  154.1482 C   0  0  0  0  0  0  0  0  0  0  0  0
  150.9917  136.8637  155.1090 C   0  0  0  0  0  0  0  0  0  0  0  0
  150.5829  135.6325  154.4386 N   0  0  0  0  0  0  0  0  0  0  0  0
  149.7480  134.6908  154.9091 C   0  0  0  0  0  0  0  0  0  0  0  0
  149.2119  134.7868  156.0111 O   0  0  0  0  0  0  0  0  0  0  0  0
  149.5473  133.6552  154.0758 N   0  0  0  0  0  0  0  0  0  0  0  0
  148.6937  132.5013  154.3516 C   0  0  2  0  0  0  0  0  0  0  0  0
  149.4220  131.1567  154.1625 C   0  0  0  0  0  0  0  0  0  0  0  0
  148.3899  130.2487  153.4860 C   0  0  0  0  0  0  0  0  0  0  0  0
  147.6254  131.1849  152.6540 N   0  3  1  0  0  0  0  0  0  0  0  0
  146.3728  130.7142  152.0287 C   0  0  0  0  0  0  0  0  0  0  0  0
  145.8667  131.8104  151.0663 C   0  0  0  0  0  0  0  0  0  0  0  0
  145.7597  133.1903  151.7547 C   0  0  0  0  0  0  0  0  0  0  0  0
  147.0593  133.5639  152.5004 C   0  0  0  0  0  0  0  0  0  0  0  0
  147.4409  132.4122  153.4477 C   0  0  2  0  0  0  0  0  0  0  0  0
  149.8605  140.4353  154.5524 C   0  0  0  0  0  0  0  0  0  0  0  0
  149.9297  141.4341  155.4173 N   0  0  0  0  0  0  0  0  0  0  0  0
  151.9640  141.4474  158.0365 H   0  0  0  0  0  0  0  0  0  0  0  0
  150.2783  142.0022  158.0937 H   0  0  0  0  0  0  0  0  0  0  0  0
  151.4654  142.8608  157.0867 H   0  0  0  0  0  0  0  0  0  0  0  0
  152.0440  139.2781  156.6781 H   0  0  0  0  0  0  0  0  0  0  0  0
  150.0866  137.8972  153.4460 H   0  0  0  0  0  0  0  0  0  0  0  0
  151.8119  138.0972  153.5423 H   0  0  0  0  0  0  0  0  0  0  0  0
  152.0140  136.7577  155.4765 H   0  0  0  0  0  0  0  0  0  0  0  0
  150.3492  137.0359  155.9742 H   0  0  0  0  0  0  0  0  0  0  0  0
  150.9737  135.4769  153.5203 H   0  0  0  0  0  0  0  0  0  0  0  0
  150.0323  133.6640  153.1900 H   0  0  0  0  0  0  0  0  0  0  0  0
  148.3604  132.5540  155.3902 H   0  0  0  0  0  0  0  0  0  0  0  0
  150.2800  131.2807  153.4998 H   0  0  0  0  0  0  0  0  0  0  0  0
  149.7899  130.7417  155.1015 H   0  0  0  0  0  0  0  0  0  0  0  0
  148.8484  129.4565  152.8939 H   0  0  0  0  0  0  0  0  0  0  0  0
  147.7328  129.7930  154.2285 H   0  0  0  0  0  0  0  0  0  0  0  0
  146.5585  129.7896  151.4814 H   0  0  0  0  0  0  0  0  0  0  0  0
  145.6285  130.4940  152.7954 H   0  0  0  0  0  0  0  0  0  0  0  0
  146.5524  131.8876  150.2214 H   0  0  0  0  0  0  0  0  0  0  0  0
  144.9003  131.5247  150.6502 H   0  0  0  0  0  0  0  0  0  0  0  0
  145.5159  133.9583  151.0200 H   0  0  0  0  0  0  0  0  0  0  0  0
  144.9314  133.1714  152.4641 H   0  0  0  0  0  0  0  0  0  0  0  0
  147.8616  133.7512  151.7854 H   0  0  0  0  0  0  0  0  0  0  0  0
  146.9084  134.4873  153.0598 H   0  0  0  0  0  0  0  0  0  0  0  0
  146.5962  132.2420  154.1192 H   0  0  0  0  0  0  0  0  0  0  0  0
  149.1968  140.5275  153.7052 H   0  0  0  0  0  0  0  0  0  0  0  0
  148.2453  131.4355  151.8968 H   0  0  0  0  0  0  0  0  0  0  0  0
  1  2  1  0  0  0  0
  1 22  1  0  0  0  0
  1 23  1  0  0  0  0
  1 24  1  0  0  0  0
  2 21  1  0  0  0  0
  2  3  1  0  0  0  0
  3  4  2  0  0  0  0
  3 25  1  0  0  0  0
  4  5  1  0  0  0  0
  4 20  1  0  0  0  0
  5  6  1  0  0  0  0
  5 26  1  0  0  0  0
  5 27  1  0  0  0  0
  6  7  1  0  0  0  0
  6 28  1  0  0  0  0
  6 29  1  0  0  0  0
  7  8  1  0  0  0  0
  7 30  1  0  0  0  0
  8  9  2  0  0  0  0
  8 10  1  0  0  0  0
 10 11  1  0  0  0  0
 10 31  1  0  0  0  0
 11 19  1  0  0  0  0
 11 12  1  0  0  0  0
 11 32  1  0  0  0  0
 12 13  1  0  0  0  0
 12 33  1  0  0  0  0
 12 34  1  0  0  0  0
 13 14  1  0  0  0  0
 13 35  1  0  0  0  0
 13 36  1  0  0  0  0
 14 19  1  0  0  0  0
 14 15  1  0  0  0  0
 14 47  1  0  0  0  0
 15 16  1  0  0  0  0
 15 37  1  0  0  0  0
 15 38  1  0  0  0  0
 16 17  1  0  0  0  0
 16 39  1  0  0  0  0
 16 40  1  0  0  0  0
 17 18  1  0  0  0  0
 17 41  1  0  0  0  0
 17 42  1  0  0  0  0
 18 19  1  0  0  0  0
 18 43  1  0  0  0  0
 18 44  1  0  0  0  0
 19 45  1  0  0  0  0
 20 21  2  0  0  0  0
 20 46  1  0  0  0  0
M  CHG  1  14   1
M  END
> <s_m_source_file>
AV-unprocessed.smi

> <i_m_source_file_index>
557

> <i_lp_mmshare_version>
43012

> <i_f3d_flags>
0

> <s_epik_input>
W0NIM11uMVtjSF1jKFtjSF1uMSlbQ0gyXVtDSDJdW05IXUMoPU8pW05IXVtDQEhdKFtDSDJdW0NIMl0yKVtDQEhdKE4yMylbQ0gyXVtDSDJdW0NIMl1bQ0gyXTM=

> <s_epik_cmdline>
J2VwaWtfcHl0aG9uJywgJy1waCcsICc3LjAnLCAnLXRuJywgJzgnLCAnLW1hJywgJzIwMCcsICctbWV0YWxfYmluZGluZycsICctaW1hZScsICc8aW5maWxlLm1hZT4nLCAnLW9tYWUnLCAnPG91dGZpbGUubWFlPic=

> <r_lp_tautomer_probability>
1

> <r_epik_Ionization_Penalty>
0.000956547

> <r_epik_Ionization_Penalty_Charging>
0.000435796

> <r_epik_Ionization_Penalty_Neutral>
0.000520752

> <r_epik_State_Penalty>
-0

> <r_epik_Charging_Adjusted_Penalty>
0.000435796

> <i_epik_Tot_Q>
1

> <i_epik_Tot_abs_Q>
1

> <r_epik_Metal_State_Penalty>
-0

> <b_epik_Metal_Only>
0

> <s_lp_Force_Field>
OPLS_2005

> <r_lp_Energy>
46.5188

> <b_lp_Chiralities_Consistent>
1

> <s_lp_Variant>
AV-unprocessed.smi:557-1

> <Gold.Version>
5.8.1

> <Gold.Id.Protein>
6NUR|6NUR_protein|mol2

> <Gold.PLP.Fitness>
45.9565

> <Gold.PLP.PLP>
-39.1156

> <Gold.PLP.part.hbond>
-3.2955

> <Gold.PLP.part.metal>
0.0000

> <Gold.PLP.part.buried>
-0.6838

> <Gold.PLP.part.nonpolar>
-35.1382

> <Gold.PLP.part.repulsive>
0.2679

> <Gold.PLP.ligand.clash>
0.0000

> <Gold.PLP.ligand.torsion>
0.5274

> <Gold.PLP.Chemscore.Hbond>
1.6394

> <Gold.PLP.Chemscore.CHOScore>
0.9901

> <Gold.PLP.Chemscore.Metal>
0.0000

> <Gold.Chemscore.Hbonds>
donor molecule, donor type, donor heavy atom, donor atom, acceptor molecule, acceptor atom, score
      L1  H     7    30       P1  7949  0.65
      L1  H    14    47       P1 10747  0.90
      L1  C    20    46       P1  7957  0.77

> <Gold.PLP.Chemscore.Internal.Correction>
0.0071

> <Gold.Rescore>
     Score         DG    S(hbond)    S(metal)    S(lipo)     H(rot)  DE(clash)    DE(int)     intcor
     14.57     -15.22       1.01        0.00      89.44       1.60       0.08       0.57       ----

> <Gold.Chemscore.Fitness>
14.5717

> <Gold.Chemscore.DG>
-15.2179

> <Gold.Chemscore.ZeroCoef>
-5.4800

> <Gold.Chemscore.Hbond>
1.0101

> <Gold.Chemscore.Metal>
0.0000

> <Gold.Chemscore.Lipo>
89.4414

> <Gold.Chemscore.Internal_Hbond>
0.0000

> <Gold.Chemscore.DEClash>
0.0761

> <Gold.Chemscore.DEInternal>
0.5700

> <Gold.Chemscore.Rot>
1.6018

> <Gold.Chemscore.Internal.Correction>
   9.000000E+99

> <Gold.Chemscore.Hbonds>
donor molecule, donor type, donor heavy atom, donor atom, acceptor molecule, acceptor atom, score
      L1  H     7    30       P1  7949  0.08
      L1  H    14    47       P1 10747  0.88

> <Gold.Chemscore.Hbond.Weighted>
-3.3738

> <Gold.Chemscore.Metal.Weighted>
-0.0000

> <Gold.Chemscore.Lipo.Weighted>
-10.4646

> <Gold.Chemscore.Internal_Hbond.Weighted>
0.0000

> <Gold.Chemscore.DEClash.Weighted>
0.0761

> <Gold.Chemscore.DEInternal.Weighted>
0.5700

> <Gold.Chemscore.Rot.Weighted>
4.1006

> <Gold.Chemscore.Internal.Correction.Weighted>
   9.000000E+99

> <Gold.Protein.RotatedTorsions>
[ 6907 6896 6895 6894 ] final -152.89 input  -60.11 | X-H torsion
[ 7974 7965 7964 7962 ] final  113.51 input  175.53 | X-H torsion
[ 8008 7997 7996 7995 ] final   87.64 input   59.86 | X-H torsion
[ 10167 10162 10161 10158 ] final -179.28 input  -65.29 | X-H torsion
[ 10718 10713 10712 10709 ] final   85.86 input   66.30 | X-H torsion
[ 10763 10752 10751 10750 ] final  -92.95 input  -60.55 | X-H torsion
[ 11005 11000 10999 10996 ] final -107.49 input  -57.11 | X-H torsion

> <Gold.Protein.ActiveResidues>
 VAL166  LYS551  ARG553  GLY616  TRP617  ASP618  TYR619  PRO620  LYS621  CYS622 
 ASP623  PHE694  ASN695  SER759  ASP760  ASP761  ALA762  ILE779  LEU786  VAL792 
 PHE793  MET794  SER795  GLU796  ALA797  LYS798  CYS799  TRP800  GLU811  SER814 

> <Gold.Protein.RotatedAtoms>
  151.2345  133.4432  159.2604 H   0  0  0  0  0  0  0  0  0  0  0  0  # atno 6907 bound_to 6896
  151.0763  134.9830  159.8344 H   0  0  0  0  0  0  0  0  0  0  0  0  # atno 6908 bound_to 6896
  152.5419  134.2287  159.8869 H   0  0  0  0  0  0  0  0  0  0  0  0  # atno 6909 bound_to 6896
  145.2160  139.2884  143.4243 H   0  0  0  0  0  0  0  0  0  0  0  0  # atno 7974 bound_to 7965
  155.9779  140.3380  155.6635 H   0  0  0  0  0  0  0  0  0  0  0  0  # atno 8008 bound_to 7997
  155.6588  140.0714  157.2579 H   0  0  0  0  0  0  0  0  0  0  0  0  # atno 8009 bound_to 7997
  154.4184  140.1712  156.1741 H   0  0  0  0  0  0  0  0  0  0  0  0  # atno 8010 bound_to 7997
  139.5393  144.2407  152.0862 H   0  0  0  0  0  0  0  0  0  0  0  0  # atno 10167 bound_to 10162
  157.6921  131.0192  150.2885 H   0  0  0  0  0  0  0  0  0  0  0  0  # atno 10718 bound_to 10713
  154.6911  135.5212  153.8394 H   0  0  0  0  0  0  0  0  0  0  0  0  # atno 10763 bound_to 10752
  153.0633  135.6576  154.0422 H   0  0  0  0  0  0  0  0  0  0  0  0  # atno 10764 bound_to 10752
  154.0295  135.2986  155.3350 H   0  0  0  0  0  0  0  0  0  0  0  0  # atno 10765 bound_to 10752
  141.0951  133.8985  157.1982 H   0  0  0  0  0  0  0  0  0  0  0  0  # atno 11005 bound_to 11000
  146.3387  140.2451  142.8597 LP  0  0  0  0  0  0  0  0  0  0  0  0  # atno 17320 bound_to 7965
  144.9810  140.8459  143.5397 LP  0  0  0  0  0  0  0  0  0  0  0  0  # atno 17321 bound_to 7965
  140.1883  144.4777  150.6492 LP  0  0  0  0  0  0  0  0  0  0  0  0  # atno 17342 bound_to 10162
  140.6616  143.2254  151.5842 LP  0  0  0  0  0  0  0  0  0  0  0  0  # atno 17343 bound_to 10162
  156.3420  130.3817  149.7401 LP  0  0  0  0  0  0  0  0  0  0  0  0  # atno 17370 bound_to 10713
  156.4907  130.8083  151.3093 LP  0  0  0  0  0  0  0  0  0  0  0  0  # atno 17371 bound_to 10713
  139.9786  135.0106  156.9693 LP  0  0  0  0  0  0  0  0  0  0  0  0  # atno 17394 bound_to 11000
  140.5159  134.0955  155.7281 LP  0  0  0  0  0  0  0  0  0  0  0  0  # atno 17395 bound_to 11000

$$$$
