AV-unprocessed.smi:44|AV-procd|sdf|395|dock2
  -GOLD-   2262016253D 1   1.00000     0.00000
 Structure written by MMmdl.
 29 31  0  0  0  0  0  0  0  0  1 V2000
  151.5723  138.4175  154.4602 O   0  0  0  0  0  0  0  0  0  0  0  0
  151.9531  138.7885  155.5686 C   0  0  0  0  0  0  0  0  0  0  0  0
  152.6925  138.0207  156.4056 N   0  0  0  0  0  0  0  0  0  0  0  0
  153.1346  138.4425  157.6847 C   0  0  0  0  0  0  0  0  0  0  0  0
  152.8868  139.6116  158.2161 N   0  0  0  0  0  0  0  0  0  0  0  0
  152.1334  140.4159  157.3845 C   0  0  0  0  0  0  0  0  0  0  0  0
  151.6529  140.1243  156.1355 C   0  0  0  0  0  0  0  0  0  0  0  0
  150.9383  141.1908  155.6050 N   0  0  0  0  0  0  0  0  0  0  0  0
  151.0212  142.0972  156.5767 C   0  0  0  0  0  0  0  0  0  0  0  0
  151.7099  141.7129  157.6690 N   0  0  0  0  0  0  0  0  0  0  0  0
  151.9542  142.5325  158.8950 C   0  0  1  0  0  0  0  0  0  0  0  0
  152.6993  143.8301  158.5535 C   0  0  0  0  0  0  0  0  0  0  0  0
  151.6745  144.8999  158.8801 C   0  0  0  0  0  0  0  0  0  0  0  0
  150.7950  144.2171  159.9253 C   0  0  1  0  0  0  0  0  0  0  0  0
  149.3912  144.8301  160.0336 C   0  0  0  0  0  0  0  0  0  0  0  0
  148.6307  144.1331  160.9970 O   0  0  0  0  0  0  0  0  0  0  0  0
  150.7176  142.8858  159.4337 O   0  0  0  0  0  0  0  0  0  0  0  0
  152.9392  137.0933  156.0918 H   0  0  0  0  0  0  0  0  0  0  0  0
  152.5089  141.8828  159.5734 H   0  0  0  0  0  0  0  0  0  0  0  0
  151.3075  144.2258  160.8895 H   0  0  0  0  0  0  0  0  0  0  0  0
  153.7184  137.6816  158.2046 H   0  0  0  0  0  0  0  0  0  0  0  0
  150.5633  143.0718  156.4923 H   0  0  0  0  0  0  0  0  0  0  0  0
  153.5699  143.9130  159.2051 H   0  0  0  0  0  0  0  0  0  0  0  0
  153.0322  143.8566  157.5148 H   0  0  0  0  0  0  0  0  0  0  0  0
  152.1269  145.8220  159.2457 H   0  0  0  0  0  0  0  0  0  0  0  0
  151.0922  145.1422  157.9905 H   0  0  0  0  0  0  0  0  0  0  0  0
  149.4601  145.8680  160.3607 H   0  0  0  0  0  0  0  0  0  0  0  0
  148.8820  144.8270  159.0690 H   0  0  0  0  0  0  0  0  0  0  0  0
  147.7675  144.5156  161.0338 H   0  0  0  0  0  0  0  0  0  0  0  0
  1  2  2  0  0  0  0
  2  7  1  0  0  0  0
  2  3  1  0  0  0  0
  3 18  1  0  0  0  0
  3  4  1  0  0  0  0
  4  5  2  0  0  0  0
  4 21  1  0  0  0  0
  5  6  1  0  0  0  0
  6 10  1  0  0  0  0
  6  7  2  0  0  0  0
  7  8  1  0  0  0  0
  8  9  2  0  0  0  0
  9 10  1  0  0  0  0
  9 22  1  0  0  0  0
 10 11  1  0  0  0  0
 11 19  1  0  0  0  0
 11 17  1  0  0  0  0
 11 12  1  0  0  0  0
 12 13  1  0  0  0  0
 12 23  1  0  0  0  0
 12 24  1  0  0  0  0
 13 14  1  0  0  0  0
 13 25  1  0  0  0  0
 13 26  1  0  0  0  0
 14 20  1  0  0  0  0
 14 15  1  0  0  0  0
 14 17  1  0  0  0  0
 15 16  1  0  0  0  0
 15 27  1  0  0  0  0
 15 28  1  0  0  0  0
 16 29  1  0  0  0  0
M  END
> <s_m_source_file>
AV-unprocessed.smi

> <i_m_source_file_index>
44

> <i_lp_mmshare_version>
43012

> <i_f3d_flags>
0

> <s_epik_input>
bjFbY0hdW25IXWMoPU8pYyhjMTIpbltjSF1uMltDQEhdM1tDSDJdW0NIMl1bQ0BIXShPMylbQ0gyXVtPSF0=

> <s_epik_cmdline>
J2VwaWtfcHl0aG9uJywgJy1waCcsICc3LjAnLCAnLXRuJywgJzgnLCAnLW1hJywgJzIwMCcsICctbWV0YWxfYmluZGluZycsICctaW1hZScsICc8aW5maWxlLm1hZT4nLCAnLW9tYWUnLCAnPG91dGZpbGUubWFlPic=

> <r_lp_tautomer_probability>
0.85571

> <r_epik_Ionization_Penalty>
0.00801444

> <r_epik_Ionization_Penalty_Charging>
0.00794574

> <r_epik_Ionization_Penalty_Neutral>
6.87072e-05

> <r_epik_State_Penalty>
0.0826172

> <r_epik_Charging_Adjusted_Penalty>
0.090563

> <i_epik_Tot_Q>
0

> <i_epik_Tot_abs_Q>
0

> <r_epik_Metal_State_Penalty>
0.440697

> <b_epik_Metal_Only>
0

> <s_epik_Chemistry_Notes>
This compound contains an acetal/aminal-like group ( X-CH(R)-Y where X, Y are N, S, or O) that may be acid/base labile, releasing an aldehyde.

> <s_lp_Force_Field>
OPLS_2005

> <r_lp_Energy>
43.2881

> <b_lp_Chiralities_Consistent>
1

> <s_lp_Variant>
AV-unprocessed.smi:44-1

> <Gold.Version>
5.8.1

> <Gold.Id.Protein>
6NUR|6NUR_protein|mol2

> <Gold.PLP.Fitness>
38.0059

> <Gold.PLP.PLP>
-31.7776

> <Gold.PLP.part.hbond>
-3.5080

> <Gold.PLP.part.metal>
0.0000

> <Gold.PLP.part.buried>
-4.7513

> <Gold.PLP.part.nonpolar>
-23.6681

> <Gold.PLP.part.repulsive>
0.3782

> <Gold.PLP.ligand.clash>
0.0000

> <Gold.PLP.ligand.torsion>
0.0087

> <Gold.PLP.Chemscore.Hbond>
1.0772

> <Gold.PLP.Chemscore.CHOScore>
1.0000

> <Gold.PLP.Chemscore.Metal>
0.0000

> <Gold.Chemscore.Hbonds>
donor molecule, donor type, donor heavy atom, donor atom, acceptor molecule, acceptor atom, score
      P1  H  6933  6944       L1    16  0.85
      P1  H  7989  7998       L1     8  0.25
      L1  C     9    22       P1  8028  1.00

> <Gold.PLP.Chemscore.Internal.Correction>
0.0141

> <Gold.Rescore>
     Score         DG    S(hbond)    S(metal)    S(lipo)     H(rot)  DE(clash)    DE(int)     intcor
      8.67      -9.00       1.28        0.00      43.35       2.27       0.31       0.02       ----

> <Gold.Chemscore.Fitness>
8.6695

> <Gold.Chemscore.DG>
-8.9980

> <Gold.Chemscore.ZeroCoef>
-5.4800

> <Gold.Chemscore.Hbond>
1.2763

> <Gold.Chemscore.Metal>
0.0000

> <Gold.Chemscore.Lipo>
43.3463

> <Gold.Chemscore.Internal_Hbond>
0.0000

> <Gold.Chemscore.DEClash>
0.3120

> <Gold.Chemscore.DEInternal>
0.0165

> <Gold.Chemscore.Rot>
2.2720

> <Gold.Chemscore.Internal.Correction>
   9.000000E+99

> <Gold.Chemscore.Hbonds>
donor molecule, donor type, donor heavy atom, donor atom, acceptor molecule, acceptor atom, score
      P1  H  6933  6944       L1    16  0.62
      P1  H  7989  7998       L1     8  0.04

> <Gold.Chemscore.Hbond.Weighted>
-4.2629

> <Gold.Chemscore.Metal.Weighted>
-0.0000

> <Gold.Chemscore.Lipo.Weighted>
-5.0715

> <Gold.Chemscore.Internal_Hbond.Weighted>
0.0000

> <Gold.Chemscore.DEClash.Weighted>
0.3120

> <Gold.Chemscore.DEInternal.Weighted>
0.0165

> <Gold.Chemscore.Rot.Weighted>
5.8164

> <Gold.Chemscore.Internal.Correction.Weighted>
   9.000000E+99

> <Gold.Protein.RotatedTorsions>
[ 6907 6896 6895 6894 ] final    3.62 input  -60.11 | X-H torsion
[ 7974 7965 7964 7962 ] final -102.78 input  175.53 | X-H torsion
[ 8008 7997 7996 7995 ] final   39.17 input   59.86 | X-H torsion
[ 10167 10162 10161 10158 ] final -146.22 input  -65.29 | X-H torsion
[ 10718 10713 10712 10709 ] final   87.05 input   66.30 | X-H torsion
[ 10763 10752 10751 10750 ] final  143.80 input  -60.55 | X-H torsion
[ 11005 11000 10999 10996 ] final  -11.18 input  -57.11 | X-H torsion

> <Gold.Protein.ActiveResidues>
 VAL166  LYS551  ARG553  GLY616  TRP617  ASP618  TYR619  PRO620  LYS621  CYS622 
 ASP623  PHE694  ASN695  SER759  ASP760  ASP761  ALA762  ILE779  LEU786  VAL792 
 PHE793  MET794  SER795  GLU796  ALA797  LYS798  CYS799  TRP800  GLU811  SER814 

> <Gold.Protein.RotatedAtoms>
  151.6280  135.1026  160.0115 H   0  0  0  0  0  0  0  0  0  0  0  0  # atno 6907 bound_to 6896
  152.4122  133.6977  159.6416 H   0  0  0  0  0  0  0  0  0  0  0  0  # atno 6908 bound_to 6896
  150.8012  133.8521  159.3249 H   0  0  0  0  0  0  0  0  0  0  0  0  # atno 6909 bound_to 6896
  145.2643  140.9279  143.3022 H   0  0  0  0  0  0  0  0  0  0  0  0  # atno 7974 bound_to 7965
  155.2322  140.3339  155.4302 H   0  0  0  0  0  0  0  0  0  0  0  0  # atno 8008 bound_to 7997
  156.2290  140.1842  156.7336 H   0  0  0  0  0  0  0  0  0  0  0  0  # atno 8009 bound_to 7997
  154.5947  140.0632  156.9272 H   0  0  0  0  0  0  0  0  0  0  0  0  # atno 8010 bound_to 7997
  139.7733  143.8205  152.2628 H   0  0  0  0  0  0  0  0  0  0  0  0  # atno 10167 bound_to 10162
  157.6936  131.0240  150.3064 H   0  0  0  0  0  0  0  0  0  0  0  0  # atno 10718 bound_to 10713
  153.9783  135.2944  155.3422 H   0  0  0  0  0  0  0  0  0  0  0  0  # atno 10763 bound_to 10752
  154.7283  135.5079  153.8926 H   0  0  0  0  0  0  0  0  0  0  0  0  # atno 10764 bound_to 10752
  153.0866  135.6695  154.0050 H   0  0  0  0  0  0  0  0  0  0  0  0  # atno 10765 bound_to 10752
  140.7525  133.8580  155.9057 H   0  0  0  0  0  0  0  0  0  0  0  0  # atno 11005 bound_to 11000
  144.9390  139.4210  143.6458 LP  0  0  0  0  0  0  0  0  0  0  0  0  # atno 17320 bound_to 7965
  146.3266  139.8341  142.8903 LP  0  0  0  0  0  0  0  0  0  0  0  0  # atno 17321 bound_to 7965
  139.8246  144.7280  150.9528 LP  0  0  0  0  0  0  0  0  0  0  0  0  # atno 17342 bound_to 10162
  140.7815  143.4126  151.0968 LP  0  0  0  0  0  0  0  0  0  0  0  0  # atno 17343 bound_to 10162
  156.3572  130.3841  149.7280 LP  0  0  0  0  0  0  0  0  0  0  0  0  # atno 17370 bound_to 10713
  156.4739  130.8009  151.3026 LP  0  0  0  0  0  0  0  0  0  0  0  0  # atno 17371 bound_to 10713
  140.9737  134.1497  157.4554 LP  0  0  0  0  0  0  0  0  0  0  0  0  # atno 17394 bound_to 11000
  139.8785  134.9987  156.5916 LP  0  0  0  0  0  0  0  0  0  0  0  0  # atno 17395 bound_to 11000

$$$$
