AV-unprocessed.smi:132|AV-procd|sdf|1163|dock7
  -GOLD-   2262018303D 1   1.00000     0.00000
 Structure written by MMmdl.
 41 44  0  0  0  0  0  0  0  0  1 V2000
  147.2720  137.3104  155.3476 O   0  0  0  0  0  0  0  0  0  0  0  0
  147.4993  137.0854  156.5374 C   0  0  0  0  0  0  0  0  0  0  0  0
  146.4538  137.0057  157.5520 C   0  0  0  0  0  0  0  0  0  0  0  0
  145.1713  137.2012  157.2019 F   0  0  0  0  0  0  0  0  0  0  0  0
  146.7529  136.7370  158.8411 C   0  0  0  0  0  0  0  0  0  0  0  0
  148.0446  136.5202  159.2882 N   0  0  0  0  0  0  0  0  0  0  0  0
  148.3064  136.2103  160.7426 C   0  0  2  0  0  0  0  0  0  0  0  0
  147.7303  134.8370  161.1130 C   0  0  0  0  0  0  0  0  0  0  0  0
  146.4888  135.2055  161.8997 C   0  0  0  0  0  0  0  0  0  0  0  0
  146.9016  136.5279  162.5331 C   0  0  0  0  0  0  0  0  0  0  0  0
  147.6644  137.1758  161.5233 O   0  0  0  0  0  0  0  0  0  0  0  0
  149.1206  136.5656  158.3747 C   0  0  0  0  0  0  0  0  0  0  0  0
  150.2763  136.3341  158.7378 O   0  0  0  0  0  0  0  0  0  0  0  0
  148.8111  136.8677  157.0272 N   0  0  0  0  0  0  0  0  0  0  0  0
  149.9109  136.9137  156.0759 C   0  0  0  0  0  0  0  0  0  0  0  0
  150.3844  138.3156  155.8245 C   0  0  0  0  0  0  0  0  0  0  0  0
  150.6657  138.9065  154.6592 N   0  0  0  0  0  0  0  0  0  0  0  0
  151.0497  140.1899  154.9717 N   0  0  0  0  0  0  0  0  0  0  0  0
  150.9705  140.2893  156.3030 C   0  0  0  0  0  0  0  0  0  0  0  0
  151.2617  141.4478  157.1469 C   0  0  0  0  0  0  0  0  0  0  0  0
  151.2157  142.7592  156.6198 C   0  0  0  0  0  0  0  0  0  0  0  0
  151.5014  143.8679  157.4403 C   0  0  0  0  0  0  0  0  0  0  0  0
  151.8349  143.6764  158.7946 C   0  0  0  0  0  0  0  0  0  0  0  0
  152.1864  145.0350  159.7982 Cl  0  0  0  0  0  0  0  0  0  0  0  0
  151.8818  142.3742  159.3277 C   0  0  0  0  0  0  0  0  0  0  0  0
  151.5962  141.2652  158.5077 C   0  0  0  0  0  0  0  0  0  0  0  0
  150.5566  139.1351  156.8929 O   0  0  0  0  0  0  0  0  0  0  0  0
  145.9394  136.6878  159.5494 H   0  0  0  0  0  0  0  0  0  0  0  0
  149.3822  136.2843  160.9049 H   0  0  0  0  0  0  0  0  0  0  0  0
  147.5297  134.2205  160.2356 H   0  0  0  0  0  0  0  0  0  0  0  0
  148.4485  134.3202  161.7506 H   0  0  0  0  0  0  0  0  0  0  0  0
  145.6444  135.3558  161.2262 H   0  0  0  0  0  0  0  0  0  0  0  0
  146.2081  134.4505  162.6344 H   0  0  0  0  0  0  0  0  0  0  0  0
  146.0497  137.1336  162.8426 H   0  0  0  0  0  0  0  0  0  0  0  0
  147.5350  136.3542  163.4044 H   0  0  0  0  0  0  0  0  0  0  0  0
  150.7275  136.2944  156.4484 H   0  0  0  0  0  0  0  0  0  0  0  0
  149.5785  136.4450  155.1482 H   0  0  0  0  0  0  0  0  0  0  0  0
  150.9631  142.9299  155.5836 H   0  0  0  0  0  0  0  0  0  0  0  0
  151.4647  144.8654  157.0279 H   0  0  0  0  0  0  0  0  0  0  0  0
  152.1374  142.2231  160.3662 H   0  0  0  0  0  0  0  0  0  0  0  0
  151.6374  140.2729  158.9328 H   0  0  0  0  0  0  0  0  0  0  0  0
  1  2  2  0  0  0  0
  2 14  1  0  0  0  0
  2  3  1  0  0  0  0
  3  4  1  0  0  0  0
  3  5  2  0  0  0  0
  5  6  1  0  0  0  0
  5 28  1  0  0  0  0
  6  7  1  0  0  0  0
  6 12  1  0  0  0  0
  7 11  1  0  0  0  0
  7  8  1  0  0  0  0
  7 29  1  0  0  0  0
  8  9  1  0  0  0  0
  8 30  1  0  0  0  0
  8 31  1  0  0  0  0
  9 10  1  0  0  0  0
  9 32  1  0  0  0  0
  9 33  1  0  0  0  0
 10 11  1  0  0  0  0
 10 34  1  0  0  0  0
 10 35  1  0  0  0  0
 12 13  2  0  0  0  0
 12 14  1  0  0  0  0
 14 15  1  0  0  0  0
 15 16  1  0  0  0  0
 15 36  1  0  0  0  0
 15 37  1  0  0  0  0
 16 27  1  0  0  0  0
 16 17  2  0  0  0  0
 17 18  1  0  0  0  0
 18 19  2  0  0  0  0
 19 20  1  0  0  0  0
 19 27  1  0  0  0  0
 20 26  1  0  0  0  0
 20 21  2  0  0  0  0
 21 22  1  0  0  0  0
 21 38  1  0  0  0  0
 22 23  2  0  0  0  0
 22 39  1  0  0  0  0
 23 24  1  0  0  0  0
 23 25  1  0  0  0  0
 25 26  2  0  0  0  0
 25 40  1  0  0  0  0
 26 41  1  0  0  0  0
M  END
> <s_m_source_file>
AV-unprocessed.smi

> <i_m_source_file_index>
132

> <i_lp_mmshare_version>
43012

> <i_f3d_flags>
0

> <s_epik_input>
TzFbQ0gyXVtDSDJdW0NIMl1bQ0BIXTFuKFtjSF1jKEYpYzI9TyljKD1PKW4yW0NIMl1jM25uYyhvMyktYzRbY0hdW2NIXWMoQ2wpW2NIXVtjSF00

> <s_epik_cmdline>
J2VwaWtfcHl0aG9uJywgJy1waCcsICc3LjAnLCAnLXRuJywgJzgnLCAnLW1hJywgJzIwMCcsICctbWV0YWxfYmluZGluZycsICctaW1hZScsICc8aW5maWxlLm1hZT4nLCAnLW9tYWUnLCAnPG91dGZpbGUubWFlPic=

> <r_lp_tautomer_probability>
1

> <r_epik_Ionization_Penalty>
2.5553e-09

> <r_epik_Ionization_Penalty_Charging>
2.54231e-09

> <r_epik_Ionization_Penalty_Neutral>
1.29923e-11

> <r_epik_State_Penalty>
-0

> <r_epik_Charging_Adjusted_Penalty>
2.54231e-09

> <i_epik_Tot_Q>
0

> <i_epik_Tot_abs_Q>
0

> <r_epik_Metal_State_Penalty>
-0

> <b_epik_Metal_Only>
0

> <s_epik_Chemistry_Notes>
This compound contains an acetal/aminal-like group ( X-CH(R)-Y where X, Y are N, S, or O) that may be acid/base labile, releasing an aldehyde.

> <s_lp_Force_Field>
OPLS_2005

> <r_lp_Energy>
32.6339

> <b_lp_Chiralities_Consistent>
1

> <s_lp_Variant>
AV-unprocessed.smi:132-1

> <Gold.Version>
5.8.1

> <Gold.Id.Protein>
6NUR|6NUR_protein|mol2

> <Gold.PLP.Fitness>
50.6590

> <Gold.PLP.PLP>
-41.1038

> <Gold.PLP.part.hbond>
-4.0000

> <Gold.PLP.part.metal>
0.0000

> <Gold.PLP.part.buried>
-6.1404

> <Gold.PLP.part.nonpolar>
-30.6676

> <Gold.PLP.part.repulsive>
0.2326

> <Gold.PLP.ligand.clash>
0.0000

> <Gold.PLP.ligand.torsion>
0.8913

> <Gold.PLP.Chemscore.Hbond>
3.7760

> <Gold.PLP.Chemscore.CHOScore>
0.0000

> <Gold.PLP.Chemscore.Metal>
0.0000

> <Gold.Chemscore.Hbonds>
donor molecule, donor type, donor heavy atom, donor atom, acceptor molecule, acceptor atom, score
      P1  H  6896  6909       L1    13  1.00
      P1  H  6931  6943       L1    11  1.00
      P1  H  6934  6947       L1    11  0.78
      P1  H  7989  7998       L1    18  1.00

> <Gold.PLP.Chemscore.Internal.Correction>
0.0098

> <Gold.Rescore>
     Score         DG    S(hbond)    S(metal)    S(lipo)     H(rot)  DE(clash)    DE(int)     intcor
     22.58     -23.42       3.34        0.00      95.06       1.70       0.07       0.77       ----

> <Gold.Chemscore.Fitness>
22.5753

> <Gold.Chemscore.DG>
-23.4189

> <Gold.Chemscore.ZeroCoef>
-5.4800

> <Gold.Chemscore.Hbond>
3.3424

> <Gold.Chemscore.Metal>
0.0000

> <Gold.Chemscore.Lipo>
95.0621

> <Gold.Chemscore.Internal_Hbond>
0.0000

> <Gold.Chemscore.DEClash>
0.0740

> <Gold.Chemscore.DEInternal>
0.7697

> <Gold.Chemscore.Rot>
1.6980

> <Gold.Chemscore.Internal.Correction>
   9.000000E+99

> <Gold.Chemscore.Hbonds>
donor molecule, donor type, donor heavy atom, donor atom, acceptor molecule, acceptor atom, score
      P1  H  6896  6909       L1    13  0.97
      P1  H  6931  6943       L1    11  0.28
      P1  H  6934  6947       L1    11  0.73
      P1  H  7989  7998       L1    18  0.55

> <Gold.Chemscore.Hbond.Weighted>
-11.1635

> <Gold.Chemscore.Metal.Weighted>
-0.0000

> <Gold.Chemscore.Lipo.Weighted>
-11.1223

> <Gold.Chemscore.Internal_Hbond.Weighted>
0.0000

> <Gold.Chemscore.DEClash.Weighted>
0.0740

> <Gold.Chemscore.DEInternal.Weighted>
0.7697

> <Gold.Chemscore.Rot.Weighted>
4.3469

> <Gold.Chemscore.Internal.Correction.Weighted>
   9.000000E+99

> <Gold.Protein.RotatedTorsions>
[ 6907 6896 6895 6894 ] final   68.44 input  -60.11 | X-H torsion
[ 7974 7965 7964 7962 ] final    9.99 input  175.53 | X-H torsion
[ 8008 7997 7996 7995 ] final -176.24 input   59.86 | X-H torsion
[ 10167 10162 10161 10158 ] final -174.68 input  -65.29 | X-H torsion
[ 10718 10713 10712 10709 ] final -106.81 input   66.30 | X-H torsion
[ 10763 10752 10751 10750 ] final -154.56 input  -60.55 | X-H torsion
[ 11005 11000 10999 10996 ] final   64.73 input  -57.11 | X-H torsion

> <Gold.Protein.ActiveResidues>
 VAL166  LYS551  ARG553  GLY616  TRP617  ASP618  TYR619  PRO620  LYS621  CYS622 
 ASP623  PHE694  ASN695  SER759  ASP760  ASP761  ALA762  ILE779  LEU786  VAL792 
 PHE793  MET794  SER795  GLU796  ALA797  LYS798  CYS799  TRP800  GLU811  SER814 

> <Gold.Protein.RotatedAtoms>
  152.4620  134.5162  159.9768 H   0  0  0  0  0  0  0  0  0  0  0  0  # atno 6907 bound_to 6896
  151.5208  133.3461  159.2909 H   0  0  0  0  0  0  0  0  0  0  0  0  # atno 6908 bound_to 6896
  150.8587  134.7963  159.7128 H   0  0  0  0  0  0  0  0  0  0  0  0  # atno 6909 bound_to 6896
  146.2395  139.9701  142.8448 H   0  0  0  0  0  0  0  0  0  0  0  0  # atno 7974 bound_to 7965
  155.9924  140.1204  157.0625 H   0  0  0  0  0  0  0  0  0  0  0  0  # atno 8008 bound_to 7997
  154.4216  140.1123  156.5653 H   0  0  0  0  0  0  0  0  0  0  0  0  # atno 8009 bound_to 7997
  155.6324  140.3473  155.4689 H   0  0  0  0  0  0  0  0  0  0  0  0  # atno 8010 bound_to 7997
  139.5621  144.1845  152.1255 H   0  0  0  0  0  0  0  0  0  0  0  0  # atno 10167 bound_to 10162
  156.0407  130.5631  150.7733 H   0  0  0  0  0  0  0  0  0  0  0  0  # atno 10718 bound_to 10713
  154.7850  135.3187  154.7906 H   0  0  0  0  0  0  0  0  0  0  0  0  # atno 10763 bound_to 10752
  153.8608  135.6853  153.4787 H   0  0  0  0  0  0  0  0  0  0  0  0  # atno 10764 bound_to 10752
  153.1499  135.4704  154.9559 H   0  0  0  0  0  0  0  0  0  0  0  0  # atno 10765 bound_to 10752
  139.9940  134.6547  156.0042 H   0  0  0  0  0  0  0  0  0  0  0  0  # atno 11005 bound_to 11000
  145.1689  140.9711  143.4333 LP  0  0  0  0  0  0  0  0  0  0  0  0  # atno 17320 bound_to 7965
  145.0046  139.3566  143.6150 LP  0  0  0  0  0  0  0  0  0  0  0  0  # atno 17321 bound_to 7965
  140.1360  144.5245  150.6773 LP  0  0  0  0  0  0  0  0  0  0  0  0  # atno 17342 bound_to 10162
  140.6901  143.2371  151.5153 LP  0  0  0  0  0  0  0  0  0  0  0  0  # atno 17343 bound_to 10162
  157.5221  131.0932  151.0065 LP  0  0  0  0  0  0  0  0  0  0  0  0  # atno 17370 bound_to 10713
  157.0393  130.5743  149.5354 LP  0  0  0  0  0  0  0  0  0  0  0  0  # atno 17371 bound_to 10713
  141.1589  133.6540  156.4253 LP  0  0  0  0  0  0  0  0  0  0  0  0  # atno 17394 bound_to 11000
  140.4854  134.6625  157.5188 LP  0  0  0  0  0  0  0  0  0  0  0  0  # atno 17395 bound_to 11000

$$$$
