AV-unprocessed.smi:1195|AV-procd|sdf|4995|dock10
  -GOLD-   22720 4 03D 1   1.00000     0.00000
 Structure written by MMmdl.
 39 40  0  0  0  0  0  0  0  0  1 V2000
  146.4527  132.4040  150.4325 N   0  0  0  0  0  0  0  0  0  0  0  0
  145.4991  132.1696  149.5278 C   0  0  0  0  0  0  0  0  0  0  0  0
  145.7185  131.5218  148.5051 O   0  0  0  0  0  0  0  0  0  0  0  0
  144.1122  132.7516  149.8326 C   0  0  0  0  0  0  0  0  0  0  0  0
  144.1577  133.8552  150.7781 N   0  0  0  0  0  0  0  0  0  0  0  0
  144.7562  135.0899  150.6189 C   0  0  0  0  0  0  0  0  0  0  0  0
  144.5165  135.7697  151.7796 C   0  0  0  0  0  0  0  0  0  0  0  0
  144.9015  137.0837  152.1476 N   0  0  0  0  0  0  0  0  0  0  0  0
  145.7140  137.4417  153.1555 C   0  0  0  0  0  0  0  0  0  0  0  0
  146.2550  136.6612  153.9392 O   0  0  0  0  0  0  0  0  0  0  0  0
  145.8673  138.7726  153.2092 N   0  0  0  0  0  0  0  0  0  0  0  0
  146.6805  139.4863  154.1891 C   0  0  2  0  0  0  0  0  0  0  0  0
  145.9380  140.7515  154.6551 C   0  0  0  0  0  0  0  0  0  0  0  0
  146.7768  141.5610  155.6600 C   0  0  0  0  0  0  0  0  0  0  0  0
  148.1747  141.9054  155.1116 C   0  0  2  0  0  0  0  0  0  0  0  0
  148.0674  142.8647  154.0784 O   0  0  0  0  0  0  0  0  0  0  0  0
  148.9060  140.6523  154.5942 C   0  0  0  0  0  0  0  0  0  0  0  0
  148.0552  139.8507  153.5938 C   0  0  0  0  0  0  0  0  0  0  0  0
  143.7665  134.8859  152.5982 C   0  0  0  0  0  0  0  0  0  0  0  0
  143.5565  133.7294  151.9880 N   0  0  0  0  0  0  0  0  0  0  0  0
  147.3836  132.0430  150.2819 H   0  0  0  0  0  0  0  0  0  0  0  0
  146.2419  132.9386  151.2623 H   0  0  0  0  0  0  0  0  0  0  0  0
  143.6478  133.0910  148.9054 H   0  0  0  0  0  0  0  0  0  0  0  0
  143.4720  131.9712  150.2458 H   0  0  0  0  0  0  0  0  0  0  0  0
  145.2791  135.3604  149.7137 H   0  0  0  0  0  0  0  0  0  0  0  0
  144.5156  137.8288  151.5862 H   0  0  0  0  0  0  0  0  0  0  0  0
  145.3876  139.3352  152.5218 H   0  0  0  0  0  0  0  0  0  0  0  0
  146.8309  138.8435  155.0587 H   0  0  0  0  0  0  0  0  0  0  0  0
  145.6975  141.3779  153.7948 H   0  0  0  0  0  0  0  0  0  0  0  0
  144.9858  140.4790  155.1119 H   0  0  0  0  0  0  0  0  0  0  0  0
  146.2466  142.4713  155.9429 H   0  0  0  0  0  0  0  0  0  0  0  0
  146.8886  140.9790  156.5756 H   0  0  0  0  0  0  0  0  0  0  0  0
  148.7661  142.3602  155.9067 H   0  0  0  0  0  0  0  0  0  0  0  0
  148.2774  143.7146  154.4345 H   0  0  0  0  0  0  0  0  0  0  0  0
  149.8579  140.9293  154.1396 H   0  0  0  0  0  0  0  0  0  0  0  0
  149.1504  140.0094  155.4407 H   0  0  0  0  0  0  0  0  0  0  0  0
  148.5927  138.9469  153.3046 H   0  0  0  0  0  0  0  0  0  0  0  0
  147.9203  140.4317  152.6804 H   0  0  0  0  0  0  0  0  0  0  0  0
  143.3771  135.0403  153.5936 H   0  0  0  0  0  0  0  0  0  0  0  0
  1  2  1  0  0  0  0
  1 21  1  0  0  0  0
  1 22  1  0  0  0  0
  2  3  2  0  0  0  0
  2  4  1  0  0  0  0
  4  5  1  0  0  0  0
  4 23  1  0  0  0  0
  4 24  1  0  0  0  0
  5 20  1  0  0  0  0
  5  6  1  0  0  0  0
  6  7  2  0  0  0  0
  6 25  1  0  0  0  0
  7  8  1  0  0  0  0
  7 19  1  0  0  0  0
  8  9  1  0  0  0  0
  8 26  1  0  0  0  0
  9 10  2  0  0  0  0
  9 11  1  0  0  0  0
 11 12  1  0  0  0  0
 11 27  1  0  0  0  0
 12 18  1  0  0  0  0
 12 13  1  0  0  0  0
 12 28  1  0  0  0  0
 13 14  1  0  0  0  0
 13 29  1  0  0  0  0
 13 30  1  0  0  0  0
 14 15  1  0  0  0  0
 14 31  1  0  0  0  0
 14 32  1  0  0  0  0
 15 16  1  0  0  0  0
 15 17  1  0  0  0  0
 15 33  1  0  0  0  0
 16 34  1  0  0  0  0
 17 18  1  0  0  0  0
 17 35  1  0  0  0  0
 17 36  1  0  0  0  0
 18 37  1  0  0  0  0
 18 38  1  0  0  0  0
 19 20  2  0  0  0  0
 19 39  1  0  0  0  0
M  END
> <s_m_source_file>
AV-unprocessed.smi

> <i_m_source_file_index>
1195

> <i_lp_mmshare_version>
43012

> <i_f3d_flags>
0

> <s_epik_input>
W05IMl1DKD1PKVtDSDJdbjFbY0hdYyhbY0hdbjEpW05IXUMoPU8pW05IXVtDQEBIXTJbQ0gyXVtDSDJdW0NAQEhdKFtPSF0pW0NIMl1bQ0gyXTI=

> <s_epik_cmdline>
J2VwaWtfcHl0aG9uJywgJy1waCcsICc3LjAnLCAnLXRuJywgJzgnLCAnLW1hJywgJzIwMCcsICctbWV0YWxfYmluZGluZycsICctaW1hZScsICc8aW5maWxlLm1hZT4nLCAnLW9tYWUnLCAnPG91dGZpbGUubWFlPic=

> <r_lp_tautomer_probability>
1

> <r_epik_Ionization_Penalty>
4.75851e-05

> <r_epik_Ionization_Penalty_Charging>
0

> <r_epik_Ionization_Penalty_Neutral>
4.75851e-05

> <r_epik_State_Penalty>
-0

> <r_epik_Charging_Adjusted_Penalty>
0

> <i_epik_Tot_Q>
0

> <i_epik_Tot_abs_Q>
0

> <r_epik_Metal_State_Penalty>
-0

> <b_epik_Metal_Only>
0

> <s_lp_Force_Field>
OPLS_2005

> <r_lp_Energy>
14.5792

> <b_lp_Chiralities_Consistent>
1

> <s_lp_Variant>
AV-unprocessed.smi:1195-2

> <Gold.Version>
5.8.1

> <Gold.Id.Protein>
6NUR|6NUR_protein|mol2

> <Gold.PLP.Fitness>
41.8509

> <Gold.PLP.PLP>
-29.9287

> <Gold.PLP.part.hbond>
-7.6166

> <Gold.PLP.part.metal>
0.0000

> <Gold.PLP.part.buried>
2.8162

> <Gold.PLP.part.nonpolar>
-24.7342

> <Gold.PLP.part.repulsive>
0.5861

> <Gold.PLP.ligand.clash>
0.0000

> <Gold.PLP.ligand.torsion>
1.1996

> <Gold.PLP.Chemscore.Hbond>
3.7680

> <Gold.PLP.Chemscore.CHOScore>
1.0000

> <Gold.PLP.Chemscore.Metal>
0.0000

> <Gold.Chemscore.Hbonds>
donor molecule, donor type, donor heavy atom, donor atom, acceptor molecule, acceptor atom, score
      L1  H     1    21       P1 10747  1.00
      L1  H     8    26       P1 10171  0.99
      L1  H    11    27       P1 10175  0.71
      L1  H    16    34       P1  8028  1.00
      L1  C     6    25       P1  7921  1.00

> <Gold.PLP.Chemscore.Internal.Correction>
0.0173

> <Gold.Rescore>
     Score         DG    S(hbond)    S(metal)    S(lipo)     H(rot)  DE(clash)    DE(int)     intcor
     13.75     -16.31       3.28        0.00      56.25       2.62       1.36       1.20       ----

> <Gold.Chemscore.Fitness>
13.7528

> <Gold.Chemscore.DG>
-16.3054

> <Gold.Chemscore.ZeroCoef>
-5.4800

> <Gold.Chemscore.Hbond>
3.2799

> <Gold.Chemscore.Metal>
0.0000

> <Gold.Chemscore.Lipo>
56.2463

> <Gold.Chemscore.Internal_Hbond>
0.0000

> <Gold.Chemscore.DEClash>
1.3576

> <Gold.Chemscore.DEInternal>
1.1950

> <Gold.Chemscore.Rot>
2.6212

> <Gold.Chemscore.Internal.Correction>
   9.000000E+99

> <Gold.Chemscore.Hbonds>
donor molecule, donor type, donor heavy atom, donor atom, acceptor molecule, acceptor atom, score
      L1  H     1    21       P1 10747  0.98
      L1  H     8    26       P1 10171  0.89
      L1  H    11    27       P1 10175  0.67
      L1  H    16    34       P1  8028  0.90

> <Gold.Chemscore.Hbond.Weighted>
-10.9549

> <Gold.Chemscore.Metal.Weighted>
-0.0000

> <Gold.Chemscore.Lipo.Weighted>
-6.5808

> <Gold.Chemscore.Internal_Hbond.Weighted>
0.0000

> <Gold.Chemscore.DEClash.Weighted>
1.3576

> <Gold.Chemscore.DEInternal.Weighted>
1.1950

> <Gold.Chemscore.Rot.Weighted>
6.7103

> <Gold.Chemscore.Internal.Correction.Weighted>
   9.000000E+99

> <Gold.Protein.RotatedTorsions>
[ 6907 6896 6895 6894 ] final  -75.02 input  -60.11 | X-H torsion
[ 7974 7965 7964 7962 ] final  -23.32 input  175.53 | X-H torsion
[ 8008 7997 7996 7995 ] final -165.80 input   59.86 | X-H torsion
[ 10167 10162 10161 10158 ] final -119.71 input  -65.29 | X-H torsion
[ 10718 10713 10712 10709 ] final  136.43 input   66.30 | X-H torsion
[ 10763 10752 10751 10750 ] final -150.29 input  -60.55 | X-H torsion
[ 11005 11000 10999 10996 ] final -177.23 input  -57.11 | X-H torsion

> <Gold.Protein.ActiveResidues>
 VAL166  LYS551  ARG553  GLY616  TRP617  ASP618  TYR619  PRO620  LYS621  CYS622 
 ASP623  PHE694  ASN695  SER759  ASP760  ASP761  ALA762  ILE779  LEU786  VAL792 
 PHE793  MET794  SER795  GLU796  ALA797  LYS798  CYS799  TRP800  GLU811  SER814 

> <Gold.Protein.RotatedAtoms>
  150.7073  134.4783  159.5457 H   0  0  0  0  0  0  0  0  0  0  0  0  # atno 6907 bound_to 6896
  152.2425  134.8211  160.0467 H   0  0  0  0  0  0  0  0  0  0  0  0  # atno 6908 bound_to 6896
  151.8987  133.3498  159.3860 H   0  0  0  0  0  0  0  0  0  0  0  0  # atno 6909 bound_to 6896
  146.1623  140.4599  142.8566 H   0  0  0  0  0  0  0  0  0  0  0  0  # atno 7974 bound_to 7965
  155.8549  140.0969  157.1651 H   0  0  0  0  0  0  0  0  0  0  0  0  # atno 8008 bound_to 7997
  154.3987  140.1376  156.3952 H   0  0  0  0  0  0  0  0  0  0  0  0  # atno 8009 bound_to 7997
  155.7920  140.3455  155.5357 H   0  0  0  0  0  0  0  0  0  0  0  0  # atno 8010 bound_to 7997
  140.0437  143.5128  152.2117 H   0  0  0  0  0  0  0  0  0  0  0  0  # atno 10167 bound_to 10162
  157.4467  131.1062  151.0080 H   0  0  0  0  0  0  0  0  0  0  0  0  # atno 10718 bound_to 10713
  154.8127  135.3288  154.7260 H   0  0  0  0  0  0  0  0  0  0  0  0  # atno 10763 bound_to 10752
  153.7906  135.6911  153.4876 H   0  0  0  0  0  0  0  0  0  0  0  0  # atno 10764 bound_to 10752
  153.1919  135.4548  155.0106 H   0  0  0  0  0  0  0  0  0  0  0  0  # atno 10765 bound_to 10752
  140.4432  134.6412  157.4767 H   0  0  0  0  0  0  0  0  0  0  0  0  # atno 11005 bound_to 11000
  144.8044  140.6273  143.6456 LP  0  0  0  0  0  0  0  0  0  0  0  0  # atno 17320 bound_to 7965
  145.4556  139.1518  143.3894 LP  0  0  0  0  0  0  0  0  0  0  0  0  # atno 17321 bound_to 7965
  139.5997  144.7579  151.3200 LP  0  0  0  0  0  0  0  0  0  0  0  0  # atno 17342 bound_to 10162
  140.7249  143.7033  150.7827 LP  0  0  0  0  0  0  0  0  0  0  0  0  # atno 17343 bound_to 10162
  157.0924  130.5948  149.5442 LP  0  0  0  0  0  0  0  0  0  0  0  0  # atno 17370 bound_to 10713
  155.9970  130.5041  150.7519 LP  0  0  0  0  0  0  0  0  0  0  0  0  # atno 17371 bound_to 10713
  140.0056  134.6769  155.9461 LP  0  0  0  0  0  0  0  0  0  0  0  0  # atno 17394 bound_to 11000
  141.1696  133.6537  156.4604 LP  0  0  0  0  0  0  0  0  0  0  0  0  # atno 17395 bound_to 11000

$$$$
