AV-unprocessed.smi:34|AV-procd|sdf|222|dock10
  -GOLD-   2262015543D 1   1.00000     0.00000
 Structure written by MMmdl.
 55 59  0  0  0  0  0  0  0  0  1 V2000
  145.4279  132.4017  151.9291 O   0  0  0  0  0  0  0  0  0  0  0  0
  146.3476  131.9998  152.6426 C   0  0  0  0  0  0  0  0  0  0  0  0
  146.9629  132.8387  153.6549 N   0  0  0  0  0  0  0  0  0  0  0  0
  146.7178  134.1437  153.9157 C   0  0  0  0  0  0  0  0  0  0  0  0
  145.5044  134.7153  153.6946 N   0  0  0  0  0  0  0  0  0  0  0  0
  145.3115  136.0106  153.9628 C   0  0  0  0  0  0  0  0  0  0  0  0
  146.1811  136.9017  154.4451 N   0  0  0  0  0  0  0  0  0  0  0  0
  147.4020  136.3337  154.6629 C   0  0  0  0  0  0  0  0  0  0  0  0
  147.7493  134.9763  154.4218 C   0  0  0  0  0  0  0  0  0  0  0  0
  149.0806  134.7664  154.7571 N   0  0  0  0  0  0  0  0  0  0  0  0
  149.4893  135.9337  155.1778 C   0  0  0  0  0  0  0  0  0  0  0  0
  148.5409  136.9357  155.1496 N   0  0  0  0  0  0  0  0  0  0  0  0
  148.6538  138.3723  155.5646 C   0  0  1  0  0  0  0  0  0  0  0  0
  149.9370  138.5866  156.0723 O   0  0  0  0  0  0  0  0  0  0  0  0
  150.7356  139.2050  155.0718 C   0  0  2  0  0  0  0  0  0  0  0  0
  151.9715  139.8690  155.6882 C   0  0  0  0  0  0  0  0  0  0  0  0
  151.5480  140.7586  156.7080 O   0  0  0  0  0  0  0  0  0  0  0  0
  152.3155  140.9536  157.7969 C   0  0  0  0  0  0  0  0  0  0  0  0
  153.0666  140.0955  158.2649 O   0  0  0  0  0  0  0  0  0  0  0  0
  152.1593  142.3179  158.3789 C   0  0  0  0  0  0  0  0  0  0  0  0
  151.4945  143.3182  157.6317 C   0  0  0  0  0  0  0  0  0  0  0  0
  151.3335  144.6162  158.1543 C   0  0  0  0  0  0  0  0  0  0  0  0
  151.8357  144.9301  159.4306 C   0  0  0  0  0  0  0  0  0  0  0  0
  152.4986  143.9440  160.1844 C   0  0  0  0  0  0  0  0  0  0  0  0
  152.6600  142.6450  159.6638 C   0  0  0  0  0  0  0  0  0  0  0  0
  149.7469  140.1701  154.4212 C   0  0  2  0  0  0  0  0  0  0  0  0
  149.5649  141.2439  155.1931 F   0  0  0  0  0  0  0  0  0  0  0  0
  148.4638  139.3525  154.3801 C   0  0  1  0  0  0  0  0  0  0  0  0
  148.3208  138.7338  153.1127 O   0  0  0  0  0  0  0  0  0  0  0  0
  146.8310  130.5806  152.5837 C   0  0  0  0  0  0  0  0  0  0  0  0
  146.2522  129.6739  151.6676 C   0  0  0  0  0  0  0  0  0  0  0  0
  146.7080  128.3429  151.5978 C   0  0  0  0  0  0  0  0  0  0  0  0
  147.7529  127.9106  152.4364 C   0  0  0  0  0  0  0  0  0  0  0  0
  148.3447  128.8111  153.3418 C   0  0  0  0  0  0  0  0  0  0  0  0
  147.8882  130.1419  153.4142 C   0  0  0  0  0  0  0  0  0  0  0  0
  147.6532  132.3918  154.2404 H   0  0  0  0  0  0  0  0  0  0  0  0
  144.3186  136.3858  153.7621 H   0  0  0  0  0  0  0  0  0  0  0  0
  150.5002  136.0871  155.5259 H   0  0  0  0  0  0  0  0  0  0  0  0
  147.9113  138.4882  156.3552 H   0  0  0  0  0  0  0  0  0  0  0  0
  151.0411  138.4628  154.3324 H   0  0  0  0  0  0  0  0  0  0  0  0
  152.6210  139.1107  156.1276 H   0  0  0  0  0  0  0  0  0  0  0  0
  152.5460  140.3982  154.9262 H   0  0  0  0  0  0  0  0  0  0  0  0
  151.1004  143.1011  156.6490 H   0  0  0  0  0  0  0  0  0  0  0  0
  150.8241  145.3716  157.5741 H   0  0  0  0  0  0  0  0  0  0  0  0
  151.7130  145.9256  159.8310 H   0  0  0  0  0  0  0  0  0  0  0  0
  152.8850  144.1837  161.1642 H   0  0  0  0  0  0  0  0  0  0  0  0
  153.1737  141.9123  160.2689 H   0  0  0  0  0  0  0  0  0  0  0  0
  150.0738  140.5285  153.4441 H   0  0  0  0  0  0  0  0  0  0  0  0
  147.5863  139.9748  154.5602 H   0  0  0  0  0  0  0  0  0  0  0  0
  149.0457  139.0012  152.5675 H   0  0  0  0  0  0  0  0  0  0  0  0
  145.4500  129.9909  151.0165 H   0  0  0  0  0  0  0  0  0  0  0  0
  146.2562  127.6537  150.8999 H   0  0  0  0  0  0  0  0  0  0  0  0
  148.1025  126.8899  152.3820 H   0  0  0  0  0  0  0  0  0  0  0  0
  149.1512  128.4820  153.9803 H   0  0  0  0  0  0  0  0  0  0  0  0
  148.3619  130.8197  154.1097 H   0  0  0  0  0  0  0  0  0  0  0  0
  1  2  2  0  0  0  0
  2  3  1  0  0  0  0
  2 30  1  0  0  0  0
  3  4  1  0  0  0  0
  3 36  1  0  0  0  0
  4  9  1  0  0  0  0
  4  5  2  0  0  0  0
  5  6  1  0  0  0  0
  6  7  2  0  0  0  0
  6 37  1  0  0  0  0
  7  8  1  0  0  0  0
  8 12  1  0  0  0  0
  8  9  2  0  0  0  0
  9 10  1  0  0  0  0
 10 11  2  0  0  0  0
 11 12  1  0  0  0  0
 11 38  1  0  0  0  0
 12 13  1  0  0  0  0
 13 28  1  0  0  0  0
 13 14  1  0  0  0  0
 13 39  1  0  0  0  0
 14 15  1  0  0  0  0
 15 16  1  0  0  0  0
 15 26  1  0  0  0  0
 15 40  1  0  0  0  0
 16 17  1  0  0  0  0
 16 41  1  0  0  0  0
 16 42  1  0  0  0  0
 17 18  1  0  0  0  0
 18 19  2  0  0  0  0
 18 20  1  0  0  0  0
 20 25  1  0  0  0  0
 20 21  2  0  0  0  0
 21 22  1  0  0  0  0
 21 43  1  0  0  0  0
 22 23  2  0  0  0  0
 22 44  1  0  0  0  0
 23 24  1  0  0  0  0
 23 45  1  0  0  0  0
 24 25  2  0  0  0  0
 24 46  1  0  0  0  0
 25 47  1  0  0  0  0
 26 27  1  0  0  0  0
 26 28  1  0  0  0  0
 26 48  1  0  0  0  0
 28 29  1  0  0  0  0
 28 49  1  0  0  0  0
 29 50  1  0  0  0  0
 30 35  1  0  0  0  0
 30 31  2  0  0  0  0
 31 32  1  0  0  0  0
 31 51  1  0  0  0  0
 32 33  2  0  0  0  0
 32 52  1  0  0  0  0
 33 34  1  0  0  0  0
 33 53  1  0  0  0  0
 34 35  2  0  0  0  0
 34 54  1  0  0  0  0
 35 55  1  0  0  0  0
M  END
> <s_m_source_file>
AV-unprocessed.smi

> <i_m_source_file_index>
34

> <i_lp_mmshare_version>
43012

> <i_f3d_flags>
0

> <s_epik_input>
W2NIXTFbY0hdW2NIXVtjSF1bY0hdYzFDKD1PKVtOSF1jKG5bY0hdbjIpYyhjMjMpbltjSF1uM1tDQEBIXTRPW0NASF0oW0NAQEhdKEYpW0NASF00W09IXSlbQ0gyXU9DKD1PKWM1W2NIXVtjSF1bY0hdW2NIXVtjSF01

> <s_epik_cmdline>
J2VwaWtfcHl0aG9uJywgJy1waCcsICc3LjAnLCAnLXRuJywgJzgnLCAnLW1hJywgJzIwMCcsICctbWV0YWxfYmluZGluZycsICctaW1hZScsICc8aW5maWxlLm1hZT4nLCAnLW9tYWUnLCAnPG91dGZpbGUubWFlPic=

> <r_lp_tautomer_probability>
1

> <r_epik_Ionization_Penalty>
0.00257489

> <r_epik_Ionization_Penalty_Charging>
0

> <r_epik_Ionization_Penalty_Neutral>
0.00257489

> <r_epik_State_Penalty>
0.00519398

> <r_epik_Charging_Adjusted_Penalty>
0.00519398

> <i_epik_Tot_Q>
0

> <i_epik_Tot_abs_Q>
0

> <r_epik_Metal_State_Penalty>
0.335891

> <b_epik_Metal_Only>
0

> <s_epik_Chemistry_Notes>
This compound has an ester and may undergo hydrolysis at high or low pH. This compound contains an acetal/aminal-like group ( X-CH(R)-Y where X, Y are N, S, or O) that may be acid/base labile, releasing an aldehyde.

> <s_lp_Force_Field>
OPLS_2005

> <r_lp_Energy>
48.7075

> <b_lp_Chiralities_Consistent>
1

> <s_lp_Variant>
AV-unprocessed.smi:34-8

> <Gold.Version>
5.8.1

> <Gold.Id.Protein>
6NUR|6NUR_protein|mol2

> <Gold.PLP.Fitness>
60.2373

> <Gold.PLP.PLP>
-55.8706

> <Gold.PLP.part.hbond>
-3.0000

> <Gold.PLP.part.metal>
0.0000

> <Gold.PLP.part.buried>
-6.1507

> <Gold.PLP.part.nonpolar>
-47.0809

> <Gold.PLP.part.repulsive>
0.4038

> <Gold.PLP.ligand.clash>
0.0000

> <Gold.PLP.ligand.torsion>
0.8956

> <Gold.PLP.Chemscore.Hbond>
1.9760

> <Gold.PLP.Chemscore.CHOScore>
0.0000

> <Gold.PLP.Chemscore.Metal>
0.0000

> <Gold.Chemscore.Hbonds>
donor molecule, donor type, donor heavy atom, donor atom, acceptor molecule, acceptor atom, score
      L1  H    29    50       P1  7957  0.94
      P1  H  7997  8009       L1    19  1.00

> <Gold.PLP.Chemscore.Internal.Correction>
0.2300

> <Gold.Rescore>
     Score         DG    S(hbond)    S(metal)    S(lipo)     H(rot)  DE(clash)    DE(int)     intcor
     16.25     -21.33       1.78        0.00     144.13       2.72       0.14       4.94       ----

> <Gold.Chemscore.Fitness>
16.2519

> <Gold.Chemscore.DG>
-21.3307

> <Gold.Chemscore.ZeroCoef>
-5.4800

> <Gold.Chemscore.Hbond>
1.7830

> <Gold.Chemscore.Metal>
0.0000

> <Gold.Chemscore.Lipo>
144.1254

> <Gold.Chemscore.Internal_Hbond>
0.0000

> <Gold.Chemscore.DEClash>
0.1421

> <Gold.Chemscore.DEInternal>
4.9367

> <Gold.Chemscore.Rot>
2.7215

> <Gold.Chemscore.Internal.Correction>
   9.000000E+99

> <Gold.Chemscore.Hbonds>
donor molecule, donor type, donor heavy atom, donor atom, acceptor molecule, acceptor atom, score
      L1  H    29    50       P1  7957  0.90
      P1  H  7997  8009       L1    19  0.51

> <Gold.Chemscore.Hbond.Weighted>
-5.9551

> <Gold.Chemscore.Metal.Weighted>
-0.0000

> <Gold.Chemscore.Lipo.Weighted>
-16.8627

> <Gold.Chemscore.Internal_Hbond.Weighted>
0.0000

> <Gold.Chemscore.DEClash.Weighted>
0.1421

> <Gold.Chemscore.DEInternal.Weighted>
4.9367

> <Gold.Chemscore.Rot.Weighted>
6.9670

> <Gold.Chemscore.Internal.Correction.Weighted>
   9.000000E+99

> <Gold.Protein.RotatedTorsions>
[ 6907 6896 6895 6894 ] final  157.67 input  -60.11 | X-H torsion
[ 7974 7965 7964 7962 ] final   86.34 input  175.53 | X-H torsion
[ 8008 7997 7996 7995 ] final  150.50 input   59.86 | X-H torsion
[ 10167 10162 10161 10158 ] final  -81.48 input  -65.29 | X-H torsion
[ 10718 10713 10712 10709 ] final  -30.56 input   66.30 | X-H torsion
[ 10763 10752 10751 10750 ] final -154.14 input  -60.55 | X-H torsion
[ 11005 11000 10999 10996 ] final   32.19 input  -57.11 | X-H torsion

> <Gold.Protein.ActiveResidues>
 VAL166  LYS551  ARG553  GLY616  TRP617  ASP618  TYR619  PRO620  LYS621  CYS622 
 ASP623  PHE694  ASN695  SER759  ASP760  ASP761  ALA762  ILE779  LEU786  VAL792 
 PHE793  MET794  SER795  GLU796  ALA797  LYS798  CYS799  TRP800  GLU811  SER814 

> <Gold.Protein.RotatedAtoms>
  152.0117  133.3864  159.4222 H   0  0  0  0  0  0  0  0  0  0  0  0  # atno 6907 bound_to 6896
  150.6899  134.3723  159.5007 H   0  0  0  0  0  0  0  0  0  0  0  0  # atno 6908 bound_to 6896
  152.1484  134.9007  160.0600 H   0  0  0  0  0  0  0  0  0  0  0  0  # atno 6909 bound_to 6896
  145.5735  139.2316  143.2392 H   0  0  0  0  0  0  0  0  0  0  0  0  # atno 7974 bound_to 7965
  156.2713  140.2073  156.6027 H   0  0  0  0  0  0  0  0  0  0  0  0  # atno 8008 bound_to 7997
  154.6894  140.0532  157.0371 H   0  0  0  0  0  0  0  0  0  0  0  0  # atno 8009 bound_to 7997
  155.0888  140.3194  155.4583 H   0  0  0  0  0  0  0  0  0  0  0  0  # atno 8010 bound_to 7997
  140.4408  143.2515  151.8628 H   0  0  0  0  0  0  0  0  0  0  0  0  # atno 10167 bound_to 10162
  156.3983  130.4385  149.7342 H   0  0  0  0  0  0  0  0  0  0  0  0  # atno 10718 bound_to 10713
  154.7879  135.3197  154.7844 H   0  0  0  0  0  0  0  0  0  0  0  0  # atno 10763 bound_to 10752
  153.8539  135.6859  153.4794 H   0  0  0  0  0  0  0  0  0  0  0  0  # atno 10764 bound_to 10752
  153.1538  135.4688  154.9614 H   0  0  0  0  0  0  0  0  0  0  0  0  # atno 10765 bound_to 10752
  140.2761  134.3027  155.7814 H   0  0  0  0  0  0  0  0  0  0  0  0  # atno 11005 bound_to 11000
  146.1767  140.6562  142.9208 LP  0  0  0  0  0  0  0  0  0  0  0  0  # atno 17320 bound_to 7965
  144.7426  140.4984  143.6858 LP  0  0  0  0  0  0  0  0  0  0  0  0  # atno 17321 bound_to 7965
  139.4789  144.5231  151.8773 LP  0  0  0  0  0  0  0  0  0  0  0  0  # atno 17342 bound_to 10162
  140.4321  144.2102  150.5888 LP  0  0  0  0  0  0  0  0  0  0  0  0  # atno 17343 bound_to 10162
  156.4368  130.7842  151.2862 LP  0  0  0  0  0  0  0  0  0  0  0  0  # atno 17370 bound_to 10713
  157.7502  131.0137  150.3435 LP  0  0  0  0  0  0  0  0  0  0  0  0  # atno 17371 bound_to 10713
  141.2170  133.7496  156.9408 LP  0  0  0  0  0  0  0  0  0  0  0  0  # atno 17394 bound_to 11000
  140.1327  134.9345  157.2360 LP  0  0  0  0  0  0  0  0  0  0  0  0  # atno 17395 bound_to 11000

$$$$
