AV-unprocessed.smi:2246|AV-procd|sdf|9082|dock3
  -GOLD-   2272012283D 1   1.00000     0.00000
 Structure written by MMmdl.
 29 30  0  0  0  0  0  0  0  0  1 V2000
  153.3787  139.5501  157.9734 O   0  0  0  0  0  0  0  0  0  0  0  0
  152.4061  140.2075  157.6047 C   0  0  0  0  0  0  0  0  0  0  0  0
  151.8995  140.1874  156.1623 C   0  0  1  0  0  0  0  0  0  0  0  0
  151.4141  138.8310  155.8125 N   0  0  0  0  0  0  0  0  0  0  0  0
  151.7603  137.6860  156.5207 C   0  0  0  0  0  0  0  0  0  0  0  0
  151.3618  136.4400  156.1686 C   0  0  0  0  0  0  0  0  0  0  0  0
  151.8382  135.0698  157.1061 Cl  0  0  0  0  0  0  0  0  0  0  0  0
  150.5305  136.2455  154.9826 C   0  0  0  0  0  0  0  0  0  0  0  0
  150.1067  135.1644  154.5786 O   0  0  0  0  0  0  0  0  0  0  0  0
  150.2277  137.4172  154.2842 N   0  0  0  0  0  0  0  0  0  0  0  0
  150.6405  138.7030  154.6343 C   0  0  0  0  0  0  0  0  0  0  0  0
  150.3251  139.6555  153.9216 O   0  0  0  0  0  0  0  0  0  0  0  0
  150.7667  141.2380  156.2052 C   0  0  0  0  0  0  0  0  0  0  0  0
  150.5443  141.5987  157.6790 C   0  0  0  0  0  0  0  0  0  0  0  0
  151.6752  141.0188  158.3780 N   0  0  0  0  0  0  0  0  0  0  0  0
  151.8743  141.2688  159.8045 C   0  0  0  0  0  0  0  0  0  0  0  0
  153.1764  142.0386  160.0891 C   0  0  0  0  0  0  0  0  0  0  0  0
  153.1978  142.3954  161.3725 F   0  0  0  0  0  0  0  0  0  0  0  0
  154.2468  141.2841  159.8423 F   0  0  0  0  0  0  0  0  0  0  0  0
  153.2351  143.1404  159.3410 F   0  0  0  0  0  0  0  0  0  0  0  0
  149.6675  137.3241  153.4493 H   0  0  0  0  0  0  0  0  0  0  0  0
  152.6856  140.5610  155.5037 H   0  0  0  0  0  0  0  0  0  0  0  0
  152.3859  137.7784  157.3960 H   0  0  0  0  0  0  0  0  0  0  0  0
  151.0935  142.1314  155.6711 H   0  0  0  0  0  0  0  0  0  0  0  0
  149.8469  140.9177  155.7148 H   0  0  0  0  0  0  0  0  0  0  0  0
  150.4959  142.6781  157.8282 H   0  0  0  0  0  0  0  0  0  0  0  0
  149.6198  141.1594  158.0559 H   0  0  0  0  0  0  0  0  0  0  0  0
  151.0240  141.8346  160.1875 H   0  0  0  0  0  0  0  0  0  0  0  0
  151.8747  140.3210  160.3453 H   0  0  0  0  0  0  0  0  0  0  0  0
  1  2  2  0  0  0  0
  2 15  1  0  0  0  0
  2  3  1  0  0  0  0
  3  4  1  0  0  0  0
  3 13  1  0  0  0  0
  3 22  1  0  0  0  0
  4 11  1  0  0  0  0
  4  5  1  0  0  0  0
  5  6  2  0  0  0  0
  5 23  1  0  0  0  0
  6  7  1  0  0  0  0
  6  8  1  0  0  0  0
  8  9  2  0  0  0  0
  8 10  1  0  0  0  0
 10 21  1  0  0  0  0
 10 11  1  0  0  0  0
 11 12  2  0  0  0  0
 13 14  1  0  0  0  0
 13 24  1  0  0  0  0
 13 25  1  0  0  0  0
 14 15  1  0  0  0  0
 14 26  1  0  0  0  0
 14 27  1  0  0  0  0
 15 16  1  0  0  0  0
 16 17  1  0  0  0  0
 16 28  1  0  0  0  0
 16 29  1  0  0  0  0
 17 18  1  0  0  0  0
 17 19  1  0  0  0  0
 17 20  1  0  0  0  0
M  END
> <s_m_source_file>
AV-unprocessed.smi

> <i_m_source_file_index>
2246

> <i_lp_mmshare_version>
43012

> <i_f3d_flags>
0

> <s_epik_input>
RkMoRikoRilbQ0gyXU4xW0NIMl1bQ0gyXVtDQEBIXShDMT1PKW4yW2NIXWMoQ2wpYyg9TylbbkhdYzI9Tw==

> <s_epik_cmdline>
J2VwaWtfcHl0aG9uJywgJy1waCcsICc3LjAnLCAnLXRuJywgJzgnLCAnLW1hJywgJzIwMCcsICctbWV0YWxfYmluZGluZycsICctaW1hZScsICc8aW5maWxlLm1hZT4nLCAnLW9tYWUnLCAnPG91dGZpbGUubWFlPic=

> <r_lp_tautomer_probability>
0.999537

> <r_epik_Ionization_Penalty>
0.0656354

> <r_epik_Ionization_Penalty_Charging>
0.0656354

> <r_epik_Ionization_Penalty_Neutral>
1.30579e-10

> <r_epik_State_Penalty>
0.0572525

> <r_epik_Charging_Adjusted_Penalty>
0.122888

> <i_epik_Tot_Q>
0

> <i_epik_Tot_abs_Q>
0

> <r_epik_Metal_State_Penalty>
2.74286

> <b_epik_Metal_Only>
0

> <s_lp_Force_Field>
OPLS_2005

> <r_lp_Energy>
21.6737

> <b_lp_Chiralities_Consistent>
1

> <s_lp_Variant>
AV-unprocessed.smi:2246-1

> <Gold.Version>
5.8.1

> <Gold.Id.Protein>
6NUR|6NUR_protein|mol2

> <Gold.PLP.Fitness>
42.6662

> <Gold.PLP.PLP>
-34.3336

> <Gold.PLP.part.hbond>
-3.0889

> <Gold.PLP.part.metal>
0.0000

> <Gold.PLP.part.buried>
-1.6719

> <Gold.PLP.part.nonpolar>
-32.1034

> <Gold.PLP.part.repulsive>
2.1886

> <Gold.PLP.ligand.clash>
0.0000

> <Gold.PLP.ligand.torsion>
0.3980

> <Gold.PLP.Chemscore.Hbond>
3.0000

> <Gold.PLP.Chemscore.CHOScore>
0.0000

> <Gold.PLP.Chemscore.Metal>
0.0000

> <Gold.Chemscore.Hbonds>
donor molecule, donor type, donor heavy atom, donor atom, acceptor molecule, acceptor atom, score
      L1  H    10    21       P1  7948  1.00
      P1  H  7989  7998       L1    12  1.00
      P1  H  7997  8009       L1     1  1.00

> <Gold.PLP.Chemscore.Internal.Correction>
0.1286

> <Gold.Rescore>
     Score         DG    S(hbond)    S(metal)    S(lipo)     H(rot)  DE(clash)    DE(int)     intcor
      9.60     -15.46       2.43        0.00      48.03       1.46       1.51       4.35       ----

> <Gold.Chemscore.Fitness>
9.5986

> <Gold.Chemscore.DG>
-15.4598

> <Gold.Chemscore.ZeroCoef>
-5.4800

> <Gold.Chemscore.Hbond>
2.4269

> <Gold.Chemscore.Metal>
0.0000

> <Gold.Chemscore.Lipo>
48.0332

> <Gold.Chemscore.Internal_Hbond>
0.0000

> <Gold.Chemscore.DEClash>
1.5079

> <Gold.Chemscore.DEInternal>
4.3533

> <Gold.Chemscore.Rot>
1.4632

> <Gold.Chemscore.Internal.Correction>
   9.000000E+99

> <Gold.Chemscore.Hbonds>
donor molecule, donor type, donor heavy atom, donor atom, acceptor molecule, acceptor atom, score
      L1  H    10    21       P1  7948  0.71
      P1  H  7989  7998       L1    12  0.92
      P1  H  7997  8009       L1     1  0.34

> <Gold.Chemscore.Hbond.Weighted>
-8.1057

> <Gold.Chemscore.Metal.Weighted>
-0.0000

> <Gold.Chemscore.Lipo.Weighted>
-5.6199

> <Gold.Chemscore.Internal_Hbond.Weighted>
0.0000

> <Gold.Chemscore.DEClash.Weighted>
1.5079

> <Gold.Chemscore.DEInternal.Weighted>
4.3533

> <Gold.Chemscore.Rot.Weighted>
3.7458

> <Gold.Chemscore.Internal.Correction.Weighted>
   9.000000E+99

> <Gold.Protein.RotatedTorsions>
[ 6907 6896 6895 6894 ] final -175.55 input  -60.11 | X-H torsion
[ 7974 7965 7964 7962 ] final   25.68 input  175.53 | X-H torsion
[ 8008 7997 7996 7995 ] final  162.01 input   59.86 | X-H torsion
[ 10167 10162 10161 10158 ] final  -51.97 input  -65.29 | X-H torsion
[ 10718 10713 10712 10709 ] final -128.21 input   66.30 | X-H torsion
[ 10763 10752 10751 10750 ] final   20.76 input  -60.55 | X-H torsion
[ 11005 11000 10999 10996 ] final -166.38 input  -57.11 | X-H torsion

> <Gold.Protein.ActiveResidues>
 VAL166  LYS551  ARG553  GLY616  TRP617  ASP618  TYR619  PRO620  LYS621  CYS622 
 ASP623  PHE694  ASN695  SER759  ASP760  ASP761  ALA762  ILE779  LEU786  VAL792 
 PHE793  MET794  SER795  GLU796  ALA797  LYS798  CYS799  TRP800  GLU811  SER814 

> <Gold.Protein.RotatedAtoms>
  151.5904  133.3367  159.3026 H   0  0  0  0  0  0  0  0  0  0  0  0  # atno 6907 bound_to 6896
  150.8263  134.7499  159.6827 H   0  0  0  0  0  0  0  0  0  0  0  0  # atno 6908 bound_to 6896
  152.4352  134.5706  159.9971 H   0  0  0  0  0  0  0  0  0  0  0  0  # atno 6909 bound_to 6896
  146.1876  139.7433  142.8855 H   0  0  0  0  0  0  0  0  0  0  0  0  # atno 7974 bound_to 7965
  156.2062  140.1762  156.7794 H   0  0  0  0  0  0  0  0  0  0  0  0  # atno 8008 bound_to 7997
  154.5659  140.0691  156.8920 H   0  0  0  0  0  0  0  0  0  0  0  0  # atno 8009 bound_to 7997
  155.2762  140.3346  155.4264 H   0  0  0  0  0  0  0  0  0  0  0  0  # atno 8010 bound_to 7997
  140.6561  143.2600  151.4580 H   0  0  0  0  0  0  0  0  0  0  0  0  # atno 10167 bound_to 10162
  156.1929  130.6807  151.0446 H   0  0  0  0  0  0  0  0  0  0  0  0  # atno 10718 bound_to 10713
  153.1051  135.6682  153.9602 H   0  0  0  0  0  0  0  0  0  0  0  0  # atno 10763 bound_to 10752
  153.9161  135.3019  155.3449 H   0  0  0  0  0  0  0  0  0  0  0  0  # atno 10764 bound_to 10752
  154.7472  135.5052  153.9301 H   0  0  0  0  0  0  0  0  0  0  0  0  # atno 10765 bound_to 10752
  140.5651  134.5294  157.5151 H   0  0  0  0  0  0  0  0  0  0  0  0  # atno 11005 bound_to 11000
  145.3890  141.0369  143.3135 LP  0  0  0  0  0  0  0  0  0  0  0  0  # atno 17320 bound_to 7965
  144.8427  139.5447  143.6893 LP  0  0  0  0  0  0  0  0  0  0  0  0  # atno 17321 bound_to 7965
  139.5784  144.1765  152.1935 LP  0  0  0  0  0  0  0  0  0  0  0  0  # atno 17342 bound_to 10162
  140.1083  144.5480  150.6942 LP  0  0  0  0  0  0  0  0  0  0  0  0  # atno 17343 bound_to 10162
  157.6940  131.0800  150.7024 LP  0  0  0  0  0  0  0  0  0  0  0  0  # atno 17370 bound_to 10713
  156.7080  130.4643  149.5555 LP  0  0  0  0  0  0  0  0  0  0  0  0  # atno 17371 bound_to 10713
  139.9389  134.7824  156.0730 LP  0  0  0  0  0  0  0  0  0  0  0  0  # atno 17394 bound_to 11000
  141.1091  133.6649  156.2935 LP  0  0  0  0  0  0  0  0  0  0  0  0  # atno 17395 bound_to 11000

$$$$
