AV-unprocessed.smi:3152|AV-procd|sdf|12018|dock3
  -GOLD-   2272017433D 1   1.00000     0.00000
 Structure written by MMmdl.
 40 41  0  0  0  0  0  0  0  0  1 V2000
  152.9741  142.7296  162.1833 C   0  0  0  0  0  0  0  0  0  0  0  0
  152.4625  143.3825  160.9314 C   0  0  0  0  0  0  0  0  0  0  0  0
  152.1745  144.7609  160.7195 C   0  0  0  0  0  0  0  0  0  0  0  0
  151.7397  145.0137  159.4957 N   0  0  0  0  0  0  0  0  0  0  0  0
  151.7337  143.8099  158.8851 N   0  0  0  0  0  0  0  0  0  0  0  0
  151.3092  143.7055  157.5027 C   0  0  0  0  0  0  0  0  0  0  0  0
  151.0922  142.2440  157.0887 C   0  0  0  0  0  0  0  0  0  0  0  0
  150.3126  142.1606  155.8591 N   0  0  0  0  0  0  0  0  0  0  0  0
  149.5031  140.9470  155.7657 C   0  0  0  0  0  0  0  0  0  0  0  0
  148.6255  140.9131  154.4894 C   0  0  0  0  0  0  0  0  0  0  0  0
  149.4884  141.1472  153.3919 O   0  0  0  0  0  0  0  0  0  0  0  0
  148.0178  139.5073  154.2690 C   0  0  0  0  0  0  0  0  0  0  0  0
  146.8917  139.1829  155.2683 C   0  0  0  0  0  0  0  0  0  0  0  0
  145.7976  140.2616  155.2511 C   0  0  0  0  0  0  0  0  0  0  0  0
  146.3873  141.6609  155.4866 C   0  0  0  0  0  0  0  0  0  0  0  0
  147.4962  141.9730  154.4674 C   0  0  0  0  0  0  0  0  0  0  0  0
  152.1664  142.8082  159.7275 C   0  0  0  0  0  0  0  0  0  0  0  0
  152.7011  143.2944  163.0750 H   0  0  0  0  0  0  0  0  0  0  0  0
  154.0610  142.6459  162.1760 H   0  0  0  0  0  0  0  0  0  0  0  0
  152.5739  141.7232  162.3073 H   0  0  0  0  0  0  0  0  0  0  0  0
  152.2698  145.5813  161.4153 H   0  0  0  0  0  0  0  0  0  0  0  0
  150.3882  144.2768  157.3791 H   0  0  0  0  0  0  0  0  0  0  0  0
  152.0621  144.1772  156.8691 H   0  0  0  0  0  0  0  0  0  0  0  0
  152.0590  141.7588  156.9478 H   0  0  0  0  0  0  0  0  0  0  0  0
  150.5841  141.7061  157.8899 H   0  0  0  0  0  0  0  0  0  0  0  0
  150.9318  142.2131  155.0562 H   0  0  0  0  0  0  0  0  0  0  0  0
  150.1500  140.0689  155.7813 H   0  0  0  0  0  0  0  0  0  0  0  0
  148.8746  140.8731  156.6528 H   0  0  0  0  0  0  0  0  0  0  0  0
  149.3362  140.4777  152.7428 H   0  0  0  0  0  0  0  0  0  0  0  0
  147.6082  139.4415  153.2595 H   0  0  0  0  0  0  0  0  0  0  0  0
  148.7951  138.7442  154.3284 H   0  0  0  0  0  0  0  0  0  0  0  0
  146.4556  138.2131  155.0273 H   0  0  0  0  0  0  0  0  0  0  0  0
  147.2987  139.0889  156.2751 H   0  0  0  0  0  0  0  0  0  0  0  0
  145.2826  140.2413  154.2897 H   0  0  0  0  0  0  0  0  0  0  0  0
  145.0452  140.0415  156.0089 H   0  0  0  0  0  0  0  0  0  0  0  0
  145.5984  142.4100  155.4141 H   0  0  0  0  0  0  0  0  0  0  0  0
  146.7836  141.7303  156.5002 H   0  0  0  0  0  0  0  0  0  0  0  0
  147.8909  142.9743  154.6420 H   0  0  0  0  0  0  0  0  0  0  0  0
  147.0495  142.0036  153.4724 H   0  0  0  0  0  0  0  0  0  0  0  0
  152.2288  141.7798  159.4029 H   0  0  0  0  0  0  0  0  0  0  0  0
  1  2  1  0  0  0  0
  1 18  1  0  0  0  0
  1 19  1  0  0  0  0
  1 20  1  0  0  0  0
  2 17  2  0  0  0  0
  2  3  1  0  0  0  0
  3  4  2  0  0  0  0
  3 21  1  0  0  0  0
  4  5  1  0  0  0  0
  5  6  1  0  0  0  0
  5 17  1  0  0  0  0
  6  7  1  0  0  0  0
  6 22  1  0  0  0  0
  6 23  1  0  0  0  0
  7  8  1  0  0  0  0
  7 24  1  0  0  0  0
  7 25  1  0  0  0  0
  8  9  1  0  0  0  0
  8 26  1  0  0  0  0
  9 10  1  0  0  0  0
  9 27  1  0  0  0  0
  9 28  1  0  0  0  0
 10 16  1  0  0  0  0
 10 11  1  0  0  0  0
 10 12  1  0  0  0  0
 11 29  1  0  0  0  0
 12 13  1  0  0  0  0
 12 30  1  0  0  0  0
 12 31  1  0  0  0  0
 13 14  1  0  0  0  0
 13 32  1  0  0  0  0
 13 33  1  0  0  0  0
 14 15  1  0  0  0  0
 14 34  1  0  0  0  0
 14 35  1  0  0  0  0
 15 16  1  0  0  0  0
 15 36  1  0  0  0  0
 15 37  1  0  0  0  0
 16 38  1  0  0  0  0
 16 39  1  0  0  0  0
 17 40  1  0  0  0  0
M  END
> <s_m_source_file>
AV-unprocessed.smi

> <i_m_source_file_index>
3152

> <i_lp_mmshare_version>
43012

> <i_f3d_flags>
0

> <s_epik_input>
W0NIM11jMVtjSF1ubihbY0hdMSlbQ0gyXVtDSDJdW05IXVtDSDJdQzIoW09IXSlbQ0gyXVtDSDJdW0NIMl1bQ0gyXVtDSDJdMg==

> <s_epik_cmdline>
J2VwaWtfcHl0aG9uJywgJy1waCcsICc3LjAnLCAnLXRuJywgJzgnLCAnLW1hJywgJzIwMCcsICctbWV0YWxfYmluZGluZycsICctaW1hZScsICc8aW5maWxlLm1hZT4nLCAnLW9tYWUnLCAnPG91dGZpbGUubWFlPic=

> <r_lp_tautomer_probability>
1

> <r_epik_Ionization_Penalty>
1.91403

> <r_epik_Ionization_Penalty_Charging>
0

> <r_epik_Ionization_Penalty_Neutral>
1.91403

> <r_epik_State_Penalty>
2.0334

> <r_epik_Charging_Adjusted_Penalty>
2.0334

> <i_epik_Tot_Q>
0

> <i_epik_Tot_abs_Q>
0

> <r_epik_Metal_State_Penalty>
2.03082

> <b_epik_Metal_Only>
0

> <s_lp_Force_Field>
OPLS_2005

> <r_lp_Energy>
20.9393

> <b_lp_Chiralities_Consistent>
1

> <s_lp_Variant>
AV-unprocessed.smi:3152-2

> <Gold.Version>
5.8.1

> <Gold.Id.Protein>
6NUR|6NUR_protein|mol2

> <Gold.PLP.Fitness>
44.9893

> <Gold.PLP.PLP>
-40.0687

> <Gold.PLP.part.hbond>
-3.8110

> <Gold.PLP.part.metal>
0.0000

> <Gold.PLP.part.buried>
-4.7461

> <Gold.PLP.part.nonpolar>
-31.6674

> <Gold.PLP.part.repulsive>
0.0885

> <Gold.PLP.ligand.clash>
0.0000

> <Gold.PLP.ligand.torsion>
0.4507

> <Gold.PLP.Chemscore.Hbond>
1.9326

> <Gold.PLP.Chemscore.CHOScore>
0.0000

> <Gold.PLP.Chemscore.Metal>
0.0000

> <Gold.Chemscore.Hbonds>
donor molecule, donor type, donor heavy atom, donor atom, acceptor molecule, acceptor atom, score
      L1  H    11    29       P1  7957  0.88
      P1  H  7989  7998       L1    11  0.11
      P1  H  8011  8017       L1    11  0.85

> <Gold.PLP.Chemscore.Internal.Correction>
0.0241

> <Gold.Rescore>
     Score         DG    S(hbond)    S(metal)    S(lipo)     H(rot)  DE(clash)    DE(int)     intcor
     16.15     -16.60       1.42        0.00     100.06       2.09       0.12       0.32       ----

> <Gold.Chemscore.Fitness>
16.1514

> <Gold.Chemscore.DG>
-16.5964

> <Gold.Chemscore.ZeroCoef>
-5.4800

> <Gold.Chemscore.Hbond>
1.4240

> <Gold.Chemscore.Metal>
0.0000

> <Gold.Chemscore.Lipo>
100.0556

> <Gold.Chemscore.Internal_Hbond>
0.0000

> <Gold.Chemscore.DEClash>
0.1201

> <Gold.Chemscore.DEInternal>
0.3249

> <Gold.Chemscore.Rot>
2.0883

> <Gold.Chemscore.Internal.Correction>
   9.000000E+99

> <Gold.Chemscore.Hbonds>
donor molecule, donor type, donor heavy atom, donor atom, acceptor molecule, acceptor atom, score
      L1  H    11    29       P1  7957  0.86
      P1  H  7989  7998       L1    11  0.02
      P1  H  8011  8017       L1    11  0.14

> <Gold.Chemscore.Hbond.Weighted>
-4.7560

> <Gold.Chemscore.Metal.Weighted>
-0.0000

> <Gold.Chemscore.Lipo.Weighted>
-11.7065

> <Gold.Chemscore.Internal_Hbond.Weighted>
0.0000

> <Gold.Chemscore.DEClash.Weighted>
0.1201

> <Gold.Chemscore.DEInternal.Weighted>
0.3249

> <Gold.Chemscore.Rot.Weighted>
5.3461

> <Gold.Chemscore.Internal.Correction.Weighted>
   9.000000E+99

> <Gold.Protein.RotatedTorsions>
[ 6907 6896 6895 6894 ] final   23.62 input  -60.11 | X-H torsion
[ 7974 7965 7964 7962 ] final   90.66 input  175.53 | X-H torsion
[ 8008 7997 7996 7995 ] final -136.44 input   59.86 | X-H torsion
[ 10167 10162 10161 10158 ] final -141.26 input  -65.29 | X-H torsion
[ 10718 10713 10712 10709 ] final    1.07 input   66.30 | X-H torsion
[ 10763 10752 10751 10750 ] final  -25.61 input  -60.55 | X-H torsion
[ 11005 11000 10999 10996 ] final  -38.14 input  -57.11 | X-H torsion

> <Gold.Protein.ActiveResidues>
 VAL166  LYS551  ARG553  GLY616  TRP617  ASP618  TYR619  PRO620  LYS621  CYS622 
 ASP623  PHE694  ASN695  SER759  ASP760  ASP761  ALA762  ILE779  LEU786  VAL792 
 PHE793  MET794  SER795  GLU796  ALA797  LYS798  CYS799  TRP800  GLU811  SER814 

> <Gold.Protein.RotatedAtoms>
  151.9450  135.0195  160.0538 H   0  0  0  0  0  0  0  0  0  0  0  0  # atno 6907 bound_to 6896
  152.2003  133.4831  159.5063 H   0  0  0  0  0  0  0  0  0  0  0  0  # atno 6908 bound_to 6896
  150.6953  134.1516  159.4185 H   0  0  0  0  0  0  0  0  0  0  0  0  # atno 6909 bound_to 6896
  145.5161  139.2278  143.2697 H   0  0  0  0  0  0  0  0  0  0  0  0  # atno 7974 bound_to 7965
  155.3953  140.0502  157.3039 H   0  0  0  0  0  0  0  0  0  0  0  0  # atno 8008 bound_to 7997
  154.5016  140.2159  155.9295 H   0  0  0  0  0  0  0  0  0  0  0  0  # atno 8009 bound_to 7997
  156.1475  140.3142  155.8599 H   0  0  0  0  0  0  0  0  0  0  0  0  # atno 8010 bound_to 7997
  139.8202  143.7584  152.2666 H   0  0  0  0  0  0  0  0  0  0  0  0  # atno 10167 bound_to 10162
  156.8427  130.5526  149.5676 H   0  0  0  0  0  0  0  0  0  0  0  0  # atno 10718 bound_to 10713
  153.7026  135.6955  153.5059 H   0  0  0  0  0  0  0  0  0  0  0  0  # atno 10763 bound_to 10752
  153.2331  135.4331  155.0616 H   0  0  0  0  0  0  0  0  0  0  0  0  # atno 10764 bound_to 10752
  154.8339  135.3489  154.6565 H   0  0  0  0  0  0  0  0  0  0  0  0  # atno 10765 bound_to 10752
  141.0005  133.6958  156.2014 H   0  0  0  0  0  0  0  0  0  0  0  0  # atno 11005 bound_to 11000
  146.2136  140.5970  142.9048 LP  0  0  0  0  0  0  0  0  0  0  0  0  # atno 17320 bound_to 7965
  144.7701  140.5618  143.6676 LP  0  0  0  0  0  0  0  0  0  0  0  0  # atno 17321 bound_to 7965
  139.7760  144.7461  151.0156 LP  0  0  0  0  0  0  0  0  0  0  0  0  # atno 17342 bound_to 10162
  140.7813  143.4593  151.0300 LP  0  0  0  0  0  0  0  0  0  0  0  0  # atno 17343 bound_to 10162
  156.0872  130.5867  150.9668 LP  0  0  0  0  0  0  0  0  0  0  0  0  # atno 17370 bound_to 10713
  157.6347  131.0917  150.8372 LP  0  0  0  0  0  0  0  0  0  0  0  0  # atno 17371 bound_to 10713
  140.6897  134.4679  157.5589 LP  0  0  0  0  0  0  0  0  0  0  0  0  # atno 17394 bound_to 11000
  139.9036  134.8499  156.1794 LP  0  0  0  0  0  0  0  0  0  0  0  0  # atno 17395 bound_to 11000

$$$$
