AV-unprocessed.smi:1645|AV-procd|sdf|6609|dock2
  -GOLD-   22720 7313D 1   1.00000     0.00000
 Structure written by MMmdl.
 56 59  0  0  0  0  0  0  0  0  3 V2000
  146.7694  139.9898  154.2946 O   0  0  0  0  0  0  0  0  0  0  0  0
  147.5707  139.0566  154.2830 C   0  0  0  0  0  0  0  0  0  0  0  0
  148.7279  139.0105  154.9661 N   0  0  0  0  0  0  0  0  0  0  0  0
  149.3291  140.0124  155.7775 C   0  0  0  0  0  0  0  0  0  0  0  0
  150.2039  139.5861  156.7986 C   0  0  0  0  0  0  0  0  0  0  0  0
  150.8344  140.5356  157.6282 C   0  0  0  0  0  0  0  0  0  0  0  0
  150.5821  141.9175  157.4386 C   0  0  0  0  0  0  0  0  0  0  0  0
  151.1849  142.9413  158.2039 N   0  0  0  0  0  0  0  0  0  0  0  0
  150.3325  144.0708  158.5883 C   0  0  0  0  0  0  0  0  0  0  0  0
  151.1726  145.3004  158.9733 C   0  0  0  0  0  0  0  0  0  0  0  0
  152.2128  144.9465  160.0454 C   0  0  0  0  0  0  0  0  0  0  0  0
  153.0849  143.7798  159.5614 C   0  0  0  0  0  0  0  0  0  0  0  0
  152.2253  142.5673  159.1639 C   0  0  0  0  0  0  0  0  0  0  0  0
  149.7215  142.2762  156.4552 N   0  3  0  0  0  0  0  0  0  0  0  0
  149.0970  141.4017  155.6374 C   0  0  0  0  0  0  0  0  0  0  0  0
  147.3867  137.9384  153.5656 N   0  0  0  0  0  0  0  0  0  0  0  0
  146.2564  137.6857  152.6722 C   0  0  1  0  0  0  0  0  0  0  0  0
  146.5165  138.1524  151.2270 C   0  0  0  0  0  0  0  0  0  0  0  0
  145.9076  137.0534  150.3500 C   0  0  0  0  0  0  0  0  0  0  0  0
  146.1299  135.8402  151.1451 N   0  3  2  0  0  0  0  0  0  0  0  0
  145.4591  134.5909  150.7325 C   0  0  0  0  0  0  0  0  0  0  0  0
  145.9997  133.4373  151.6047 C   0  0  0  0  0  0  0  0  0  0  0  0
  145.9000  133.7490  153.1157 C   0  0  0  0  0  0  0  0  0  0  0  0
  146.5037  135.1283  153.4600 C   0  0  0  0  0  0  0  0  0  0  0  0
  145.8655  136.1936  152.5507 C   0  0  1  0  0  0  0  0  0  0  0  0
  149.2829  138.1777  154.8332 H   0  0  0  0  0  0  0  0  0  0  0  0
  150.4004  138.5340  156.9460 H   0  0  0  0  0  0  0  0  0  0  0  0
  151.4982  140.1807  158.4019 H   0  0  0  0  0  0  0  0  0  0  0  0
  149.6502  144.3559  157.7879 H   0  0  0  0  0  0  0  0  0  0  0  0
  149.7137  143.7655  159.4330 H   0  0  0  0  0  0  0  0  0  0  0  0
  151.6785  145.6879  158.0878 H   0  0  0  0  0  0  0  0  0  0  0  0
  150.5225  146.0987  159.3320 H   0  0  0  0  0  0  0  0  0  0  0  0
  152.8342  145.8143  160.2692 H   0  0  0  0  0  0  0  0  0  0  0  0
  151.7097  144.6725  160.9737 H   0  0  0  0  0  0  0  0  0  0  0  0
  153.6788  144.1012  158.7046 H   0  0  0  0  0  0  0  0  0  0  0  0
  153.7945  143.4948  160.3387 H   0  0  0  0  0  0  0  0  0  0  0  0
  151.7554  142.1333  160.0476 H   0  0  0  0  0  0  0  0  0  0  0  0
  152.8829  141.8096  158.7374 H   0  0  0  0  0  0  0  0  0  0  0  0
  148.4413  141.8585  154.9124 H   0  0  0  0  0  0  0  0  0  0  0  0
  148.0947  137.2205  153.6169 H   0  0  0  0  0  0  0  0  0  0  0  0
  145.3873  138.2339  153.0421 H   0  0  0  0  0  0  0  0  0  0  0  0
  146.0914  139.1349  151.0189 H   0  0  0  0  0  0  0  0  0  0  0  0
  147.5890  138.2112  151.0345 H   0  0  0  0  0  0  0  0  0  0  0  0
  144.8370  137.2169  150.2158 H   0  0  0  0  0  0  0  0  0  0  0  0
  146.3761  136.9903  149.3674 H   0  0  0  0  0  0  0  0  0  0  0  0
  144.3781  134.6895  150.8426 H   0  0  0  0  0  0  0  0  0  0  0  0
  145.6618  134.3933  149.6793 H   0  0  0  0  0  0  0  0  0  0  0  0
  145.4655  132.5144  151.3768 H   0  0  0  0  0  0  0  0  0  0  0  0
  147.0446  133.2562  151.3482 H   0  0  0  0  0  0  0  0  0  0  0  0
  144.8513  133.7314  153.4156 H   0  0  0  0  0  0  0  0  0  0  0  0
  146.3961  132.9682  153.6928 H   0  0  0  0  0  0  0  0  0  0  0  0
  146.3189  135.3586  154.5096 H   0  0  0  0  0  0  0  0  0  0  0  0
  147.5856  135.1083  153.3226 H   0  0  0  0  0  0  0  0  0  0  0  0
  144.7841  136.1512  152.6995 H   0  0  0  0  0  0  0  0  0  0  0  0
  147.1224  135.6627  151.0868 H   0  0  0  0  0  0  0  0  0  0  0  0
  149.5378  143.2704  156.3185 H   0  0  0  0  0  0  0  0  0  0  0  0
  1  2  2  0  0  0  0
  2  3  1  0  0  0  0
  2 16  1  0  0  0  0
  3  4  1  0  0  0  0
  3 26  1  0  0  0  0
  4 15  1  0  0  0  0
  4  5  2  0  0  0  0
  5  6  1  0  0  0  0
  5 27  1  0  0  0  0
  6  7  2  0  0  0  0
  6 28  1  0  0  0  0
  7  8  1  0  0  0  0
  7 14  1  0  0  0  0
  8 13  1  0  0  0  0
  8  9  1  0  0  0  0
  9 10  1  0  0  0  0
  9 29  1  0  0  0  0
  9 30  1  0  0  0  0
 10 11  1  0  0  0  0
 10 31  1  0  0  0  0
 10 32  1  0  0  0  0
 11 12  1  0  0  0  0
 11 33  1  0  0  0  0
 11 34  1  0  0  0  0
 12 13  1  0  0  0  0
 12 35  1  0  0  0  0
 12 36  1  0  0  0  0
 13 37  1  0  0  0  0
 13 38  1  0  0  0  0
 14 15  2  0  0  0  0
 14 56  1  0  0  0  0
 15 39  1  0  0  0  0
 16 17  1  0  0  0  0
 16 40  1  0  0  0  0
 17 25  1  0  0  0  0
 17 18  1  0  0  0  0
 17 41  1  0  0  0  0
 18 19  1  0  0  0  0
 18 42  1  0  0  0  0
 18 43  1  0  0  0  0
 19 20  1  0  0  0  0
 19 44  1  0  0  0  0
 19 45  1  0  0  0  0
 20 25  1  0  0  0  0
 20 21  1  0  0  0  0
 20 55  1  0  0  0  0
 21 22  1  0  0  0  0
 21 46  1  0  0  0  0
 21 47  1  0  0  0  0
 22 23  1  0  0  0  0
 22 48  1  0  0  0  0
 22 49  1  0  0  0  0
 23 24  1  0  0  0  0
 23 50  1  0  0  0  0
 23 51  1  0  0  0  0
 24 25  1  0  0  0  0
 24 52  1  0  0  0  0
 24 53  1  0  0  0  0
 25 54  1  0  0  0  0
M  CHG  1  14   1
M  CHG  1  20   1
M  END
> <s_m_source_file>
AV-unprocessed.smi

> <i_m_source_file_index>
1645

> <i_lp_mmshare_version>
43012

> <i_f3d_flags>
0

> <s_epik_input>
W0NIMl0xW0NIMl1bQ0gyXVtDSDJdW0NASF0oTjEyKVtDQEBIXShbQ0gyXVtDSDJdMilbTkhdQyg9TylbTkhdYzNbY0hdW2NIXWMobltjSF0zKU40W0NIMl1bQ0gyXVtDSDJdW0NIMl1bQ0gyXTQ=

> <s_epik_cmdline>
J2VwaWtfcHl0aG9uJywgJy1waCcsICc3LjAnLCAnLXRuJywgJzgnLCAnLW1hJywgJzIwMCcsICctbWV0YWxfYmluZGluZycsICctaW1hZScsICc8aW5maWxlLm1hZT4nLCAnLW9tYWUnLCAnPG91dGZpbGUubWFlPic=

> <r_lp_tautomer_probability>
0.999994

> <r_epik_Ionization_Penalty>
1.26838

> <r_epik_Ionization_Penalty_Charging>
1.26836

> <r_epik_Ionization_Penalty_Neutral>
1.95562e-05

> <r_epik_State_Penalty>
1.33841

> <r_epik_Charging_Adjusted_Penalty>
2.60677

> <i_epik_Tot_Q>
2

> <i_epik_Tot_abs_Q>
2

> <r_epik_Metal_State_Penalty>
1.40601

> <b_epik_Metal_Only>
0

> <s_lp_Force_Field>
OPLS_2005

> <r_lp_Energy>
64.599

> <b_lp_Chiralities_Consistent>
1

> <s_lp_Variant>
AV-unprocessed.smi:1645-10

> <Gold.Version>
5.8.1

> <Gold.Id.Protein>
6NUR|6NUR_protein|mol2

> <Gold.PLP.Fitness>
50.0322

> <Gold.PLP.PLP>
-39.1789

> <Gold.PLP.part.hbond>
-3.0000

> <Gold.PLP.part.metal>
0.0000

> <Gold.PLP.part.buried>
4.5362

> <Gold.PLP.part.nonpolar>
-39.1292

> <Gold.PLP.part.repulsive>
0.2856

> <Gold.PLP.ligand.clash>
0.0000

> <Gold.PLP.ligand.torsion>
0.8359

> <Gold.PLP.Chemscore.Hbond>
4.0892

> <Gold.PLP.Chemscore.CHOScore>
0.0000

> <Gold.PLP.Chemscore.Metal>
0.0000

> <Gold.Chemscore.Hbonds>
donor molecule, donor type, donor heavy atom, donor atom, acceptor molecule, acceptor atom, score
      L1  H    14    56       P1  8028  2.00
      L1  H    16    40       P1  7948  0.30
      L1  H    20    55       P1  7948  1.79

> <Gold.PLP.Chemscore.Internal.Correction>
0.2575

> <Gold.Rescore>
     Score         DG    S(hbond)    S(metal)    S(lipo)     H(rot)  DE(clash)    DE(int)     intcor
     20.37     -23.94       2.05        0.00     121.25       1.00       1.87       1.71       ----

> <Gold.Chemscore.Fitness>
20.3680

> <Gold.Chemscore.DG>
-23.9426

> <Gold.Chemscore.ZeroCoef>
-5.4800

> <Gold.Chemscore.Hbond>
2.0469

> <Gold.Chemscore.Metal>
0.0000

> <Gold.Chemscore.Lipo>
121.2478

> <Gold.Chemscore.Internal_Hbond>
0.0000

> <Gold.Chemscore.DEClash>
1.8681

> <Gold.Chemscore.DEInternal>
1.7065

> <Gold.Chemscore.Rot>
1.0000

> <Gold.Chemscore.Internal.Correction>
   9.000000E+99

> <Gold.Chemscore.Hbonds>
donor molecule, donor type, donor heavy atom, donor atom, acceptor molecule, acceptor atom, score
      L1  H    14    56       P1  8028  1.00
      L1  H    16    40       P1  7948  0.29
      L1  H    20    55       P1  7948  0.76

> <Gold.Chemscore.Hbond.Weighted>
-6.8366

> <Gold.Chemscore.Metal.Weighted>
-0.0000

> <Gold.Chemscore.Lipo.Weighted>
-14.1860

> <Gold.Chemscore.Internal_Hbond.Weighted>
0.0000

> <Gold.Chemscore.DEClash.Weighted>
1.8681

> <Gold.Chemscore.DEInternal.Weighted>
1.7065

> <Gold.Chemscore.Rot.Weighted>
2.5600

> <Gold.Chemscore.Internal.Correction.Weighted>
   9.000000E+99

> <Gold.Protein.RotatedTorsions>
[ 6907 6896 6895 6894 ] final -132.64 input  -60.11 | X-H torsion
[ 7974 7965 7964 7962 ] final -132.16 input  175.53 | X-H torsion
[ 8008 7997 7996 7995 ] final  149.10 input   59.86 | X-H torsion
[ 10167 10162 10161 10158 ] final  -54.34 input  -65.29 | X-H torsion
[ 10718 10713 10712 10709 ] final   86.50 input   66.30 | X-H torsion
[ 10763 10752 10751 10750 ] final   97.58 input  -60.55 | X-H torsion
[ 11005 11000 10999 10996 ] final  -25.98 input  -57.11 | X-H torsion

> <Gold.Protein.ActiveResidues>
 VAL166  LYS551  ARG553  GLY616  TRP617  ASP618  TYR619  PRO620  LYS621  CYS622 
 ASP623  PHE694  ASN695  SER759  ASP760  ASP761  ALA762  ILE779  LEU786  VAL792 
 PHE793  MET794  SER795  GLU796  ALA797  LYS798  CYS799  TRP800  GLU811  SER814 

> <Gold.Protein.RotatedAtoms>
  150.9647  133.6407  159.2747 H   0  0  0  0  0  0  0  0  0  0  0  0  # atno 6907 bound_to 6896
  151.3717  135.0922  159.9477 H   0  0  0  0  0  0  0  0  0  0  0  0  # atno 6908 bound_to 6896
  152.5161  133.9200  159.7584 H   0  0  0  0  0  0  0  0  0  0  0  0  # atno 6909 bound_to 6896
  144.9311  140.7129  143.4905 H   0  0  0  0  0  0  0  0  0  0  0  0  # atno 7974 bound_to 7965
  156.2767  140.2111  156.5804 H   0  0  0  0  0  0  0  0  0  0  0  0  # atno 8008 bound_to 7997
  154.7063  140.0516  157.0530 H   0  0  0  0  0  0  0  0  0  0  0  0  # atno 8009 bound_to 7997
  155.0666  140.3172  155.4646 H   0  0  0  0  0  0  0  0  0  0  0  0  # atno 8010 bound_to 7997
  140.6436  143.2522  151.4922 H   0  0  0  0  0  0  0  0  0  0  0  0  # atno 10167 bound_to 10162
  157.6929  131.0218  150.2982 H   0  0  0  0  0  0  0  0  0  0  0  0  # atno 10718 bound_to 10713
  153.2786  135.4178  155.1057 H   0  0  0  0  0  0  0  0  0  0  0  0  # atno 10763 bound_to 10752
  154.8481  135.3489  154.6144 H   0  0  0  0  0  0  0  0  0  0  0  0  # atno 10764 bound_to 10752
  153.6564  135.7050  153.5249 H   0  0  0  0  0  0  0  0  0  0  0  0  # atno 10765 bound_to 10752
  140.8987  133.7538  156.0516 H   0  0  0  0  0  0  0  0  0  0  0  0  # atno 11005 bound_to 11000
  145.3140  139.1809  143.4623 LP  0  0  0  0  0  0  0  0  0  0  0  0  # atno 17320 bound_to 7965
  146.3247  140.3149  142.8629 LP  0  0  0  0  0  0  0  0  0  0  0  0  # atno 17321 bound_to 7965
  139.5645  144.2075  152.1744 LP  0  0  0  0  0  0  0  0  0  0  0  0  # atno 17342 bound_to 10162
  140.1352  144.5252  150.6777 LP  0  0  0  0  0  0  0  0  0  0  0  0  # atno 17343 bound_to 10162
  156.3502  130.3830  149.7335 LP  0  0  0  0  0  0  0  0  0  0  0  0  # atno 17370 bound_to 10713
  156.4815  130.8043  151.3057 LP  0  0  0  0  0  0  0  0  0  0  0  0  # atno 17371 bound_to 10713
  140.8257  134.3238  157.5366 LP  0  0  0  0  0  0  0  0  0  0  0  0  # atno 17394 bound_to 11000
  139.8739  134.9334  156.3580 LP  0  0  0  0  0  0  0  0  0  0  0  0  # atno 17395 bound_to 11000

$$$$
