AV-unprocessed.smi:235|AV-procd|sdf|1805|dock9
  -GOLD-   2262020383D 1   1.00000     0.00000
 Structure written by MMmdl.
 54 58  0  0  0  0  0  0  0  0  1 V2000
  150.5853  140.4262  155.0168 O   0  0  0  0  0  0  0  0  0  0  0  0
  149.6554  141.1978  155.2564 C   0  0  0  0  0  0  0  0  0  0  0  0
  149.7561  142.2342  156.1014 N   0  0  0  0  0  0  0  0  0  0  0  0
  150.9268  142.5899  156.8327 C   0  0  0  0  0  0  0  0  0  0  0  0
  151.5068  141.5505  157.7665 C   0  0  0  0  0  0  0  0  0  0  0  0
  150.8053  142.7568  158.3306 C   0  0  0  0  0  0  0  0  0  0  0  0
  148.2986  141.0224  154.5601 C   0  0  2  0  0  0  0  0  0  0  0  0
  147.7491  142.3442  153.9847 C   0  0  0  0  0  0  0  0  0  0  0  0
  146.2429  142.2424  154.1872 C   0  0  0  0  0  0  0  0  0  0  0  0
  146.1520  141.4916  155.5097 C   0  0  0  0  0  0  0  0  0  0  0  0
  147.2777  140.5601  155.5093 N   0  0  0  0  0  0  0  0  0  0  0  0
  147.0198  139.2304  155.4214 C   0  0  0  0  0  0  0  0  0  0  0  0
  147.0721  138.4484  156.5327 N   0  0  0  0  0  0  0  0  0  0  0  0
  146.7544  137.1525  156.4587 C   0  0  0  0  0  0  0  0  0  0  0  0
  146.3508  136.4511  155.3975 N   0  0  0  0  0  0  0  0  0  0  0  0
  146.2944  137.2330  154.2816 C   0  0  0  0  0  0  0  0  0  0  0  0
  146.6170  138.6165  154.2041 C   0  0  0  0  0  0  0  0  0  0  0  0
  146.4486  139.0694  152.9012 N   0  0  0  0  0  0  0  0  0  0  0  0
  146.0282  138.0203  152.2498 C   0  0  0  0  0  0  0  0  0  0  0  0
  145.8938  136.8781  153.0060 N   0  0  0  0  0  0  0  0  0  0  0  0
  145.4219  135.5838  152.5512 C   0  0  0  0  0  0  0  0  0  0  0  0
  144.9834  135.5904  151.0708 C   0  0  2  0  0  0  0  0  0  0  0  0
  143.8306  136.4031  150.9799 O   0  0  0  0  0  0  0  0  0  0  0  0
  144.6619  134.1948  150.4891 C   0  0  1  0  0  0  0  0  0  0  0  0
  145.8011  133.1786  150.6244 C   0  0  0  0  0  0  0  0  0  0  0  0
  145.0986  131.8291  150.6630 C   0  0  0  0  0  0  0  0  0  0  0  0
  143.6213  132.1848  150.8277 C   0  0  0  0  0  0  0  0  0  0  0  0
  143.6252  133.5493  151.2154 O   0  0  0  0  0  0  0  0  0  0  0  0
  148.9446  142.8217  156.2272 H   0  0  0  0  0  0  0  0  0  0  0  0
  151.6510  143.2291  156.3291 H   0  0  0  0  0  0  0  0  0  0  0  0
  150.9968  140.5923  157.8456 H   0  0  0  0  0  0  0  0  0  0  0  0
  152.5899  141.5100  157.8620 H   0  0  0  0  0  0  0  0  0  0  0  0
  151.4195  143.5225  158.8000 H   0  0  0  0  0  0  0  0  0  0  0  0
  149.8224  142.6131  158.7749 H   0  0  0  0  0  0  0  0  0  0  0  0
  148.3968  140.3072  153.7390 H   0  0  0  0  0  0  0  0  0  0  0  0
  148.1239  143.2101  154.5332 H   0  0  0  0  0  0  0  0  0  0  0  0
  148.0143  142.4815  152.9360 H   0  0  0  0  0  0  0  0  0  0  0  0
  145.7470  143.2130  154.2121 H   0  0  0  0  0  0  0  0  0  0  0  0
  145.7965  141.6493  153.3878 H   0  0  0  0  0  0  0  0  0  0  0  0
  146.2937  142.1820  156.3421 H   0  0  0  0  0  0  0  0  0  0  0  0
  145.1759  141.0260  155.6512 H   0  0  0  0  0  0  0  0  0  0  0  0
  146.8241  136.6013  157.3849 H   0  0  0  0  0  0  0  0  0  0  0  0
  145.7877  138.0566  151.1971 H   0  0  0  0  0  0  0  0  0  0  0  0
  146.2161  134.8522  152.7069 H   0  0  0  0  0  0  0  0  0  0  0  0
  144.5908  135.2846  153.1915 H   0  0  0  0  0  0  0  0  0  0  0  0
  145.7597  136.0587  150.4645 H   0  0  0  0  0  0  0  0  0  0  0  0
  144.0109  137.1130  150.3824 H   0  0  0  0  0  0  0  0  0  0  0  0
  144.3617  134.2785  149.4427 H   0  0  0  0  0  0  0  0  0  0  0  0
  146.5245  133.2544  149.8119 H   0  0  0  0  0  0  0  0  0  0  0  0
  146.3363  133.3339  151.5622 H   0  0  0  0  0  0  0  0  0  0  0  0
  145.2623  131.2576  149.7487 H   0  0  0  0  0  0  0  0  0  0  0  0
  145.4599  131.2333  151.5021 H   0  0  0  0  0  0  0  0  0  0  0  0
  143.0966  132.0821  149.8771 H   0  0  0  0  0  0  0  0  0  0  0  0
  143.1155  131.5634  151.5667 H   0  0  0  0  0  0  0  0  0  0  0  0
  1  2  2  0  0  0  0
  2  3  1  0  0  0  0
  2  7  1  0  0  0  0
  3  4  1  0  0  0  0
  3 29  1  0  0  0  0
  4  6  1  0  0  0  0
  4  5  1  0  0  0  0
  4 30  1  0  0  0  0
  5  6  1  0  0  0  0
  5 31  1  0  0  0  0
  5 32  1  0  0  0  0
  6 33  1  0  0  0  0
  6 34  1  0  0  0  0
  7 11  1  0  0  0  0
  7  8  1  0  0  0  0
  7 35  1  0  0  0  0
  8  9  1  0  0  0  0
  8 36  1  0  0  0  0
  8 37  1  0  0  0  0
  9 10  1  0  0  0  0
  9 38  1  0  0  0  0
  9 39  1  0  0  0  0
 10 11  1  0  0  0  0
 10 40  1  0  0  0  0
 10 41  1  0  0  0  0
 11 12  1  0  0  0  0
 12 17  1  0  0  0  0
 12 13  2  0  0  0  0
 13 14  1  0  0  0  0
 14 15  2  0  0  0  0
 14 42  1  0  0  0  0
 15 16  1  0  0  0  0
 16 20  1  0  0  0  0
 16 17  2  0  0  0  0
 17 18  1  0  0  0  0
 18 19  2  0  0  0  0
 19 20  1  0  0  0  0
 19 43  1  0  0  0  0
 20 21  1  0  0  0  0
 21 22  1  0  0  0  0
 21 44  1  0  0  0  0
 21 45  1  0  0  0  0
 22 23  1  0  0  0  0
 22 24  1  0  0  0  0
 22 46  1  0  0  0  0
 23 47  1  0  0  0  0
 24 28  1  0  0  0  0
 24 25  1  0  0  0  0
 24 48  1  0  0  0  0
 25 26  1  0  0  0  0
 25 49  1  0  0  0  0
 25 50  1  0  0  0  0
 26 27  1  0  0  0  0
 26 51  1  0  0  0  0
 26 52  1  0  0  0  0
 27 28  1  0  0  0  0
 27 53  1  0  0  0  0
 27 54  1  0  0  0  0
M  END
> <s_m_source_file>
AV-unprocessed.smi

> <i_m_source_file_index>
235

> <i_lp_mmshare_version>
43012

> <i_f3d_flags>
0

> <s_epik_input>
W0NIMl0xW0NIMl1bQ0hdMVtOSF1DKD1PKVtDQEBIXTJbQ0gyXVtDSDJdW0NIMl1OMmMobltjSF1uMyljKGMzNCluW2NIXW40W0NIMl1bQ0BIXShbT0hdKVtDQEBIXTVbQ0gyXVtDSDJdW0NIMl1PNQ==

> <s_epik_cmdline>
J2VwaWtfcHl0aG9uJywgJy1waCcsICc3LjAnLCAnLXRuJywgJzgnLCAnLW1hJywgJzIwMCcsICctbWV0YWxfYmluZGluZycsICctaW1hZScsICc8aW5maWxlLm1hZT4nLCAnLW9tYWUnLCAnPG91dGZpbGUubWFlPic=

> <r_lp_tautomer_probability>
1

> <r_epik_Ionization_Penalty>
0.000526714

> <r_epik_Ionization_Penalty_Charging>
0

> <r_epik_Ionization_Penalty_Neutral>
0.000526714

> <r_epik_State_Penalty>
0.000272704

> <r_epik_Charging_Adjusted_Penalty>
0.000272704

> <i_epik_Tot_Q>
0

> <i_epik_Tot_abs_Q>
0

> <r_epik_Metal_State_Penalty>
-0

> <b_epik_Metal_Only>
0

> <s_lp_Force_Field>
OPLS_2005

> <r_lp_Energy>
59.397

> <b_lp_Chiralities_Consistent>
1

> <s_lp_Variant>
AV-unprocessed.smi:235-5

> <Gold.Version>
5.8.1

> <Gold.Id.Protein>
6NUR|6NUR_protein|mol2

> <Gold.PLP.Fitness>
50.3217

> <Gold.PLP.PLP>
-40.6343

> <Gold.PLP.part.hbond>
-2.9995

> <Gold.PLP.part.metal>
0.0000

> <Gold.PLP.part.buried>
-3.8582

> <Gold.PLP.part.nonpolar>
-34.1335

> <Gold.PLP.part.repulsive>
0.7084

> <Gold.PLP.ligand.clash>
0.0000

> <Gold.PLP.ligand.torsion>
0.5823

> <Gold.PLP.Chemscore.Hbond>
2.5200

> <Gold.PLP.Chemscore.CHOScore>
0.9960

> <Gold.PLP.Chemscore.Metal>
0.0000

> <Gold.Chemscore.Hbonds>
donor molecule, donor type, donor heavy atom, donor atom, acceptor molecule, acceptor atom, score
      L1  H     3    29       P1  8028  0.48
      L1  H    23    47       P1 10171  1.00
      P1  H  7989  7998       L1     1  1.00
      L1  C    19    43       P1 10171  1.00

> <Gold.PLP.Chemscore.Internal.Correction>
0.3041

> <Gold.Rescore>
     Score         DG    S(hbond)    S(metal)    S(lipo)     H(rot)  DE(clash)    DE(int)     intcor
     15.47     -16.36       2.32        0.00      92.47       3.00       0.15       0.73       ----

> <Gold.Chemscore.Fitness>
15.4740

> <Gold.Chemscore.DG>
-16.3607

> <Gold.Chemscore.ZeroCoef>
-5.4800

> <Gold.Chemscore.Hbond>
2.3171

> <Gold.Chemscore.Metal>
0.0000

> <Gold.Chemscore.Lipo>
92.4674

> <Gold.Chemscore.Internal_Hbond>
0.0000

> <Gold.Chemscore.DEClash>
0.1543

> <Gold.Chemscore.DEInternal>
0.7323

> <Gold.Chemscore.Rot>
2.9989

> <Gold.Chemscore.Internal.Correction>
   9.000000E+99

> <Gold.Chemscore.Hbonds>
donor molecule, donor type, donor heavy atom, donor atom, acceptor molecule, acceptor atom, score
      L1  H     3    29       P1  8028  0.47
      L1  H    23    47       P1 10171  0.95
      P1  H  7989  7998       L1     1  0.88

> <Gold.Chemscore.Hbond.Weighted>
-7.7392

> <Gold.Chemscore.Metal.Weighted>
-0.0000

> <Gold.Chemscore.Lipo.Weighted>
-10.8187

> <Gold.Chemscore.Internal_Hbond.Weighted>
0.0000

> <Gold.Chemscore.DEClash.Weighted>
0.1543

> <Gold.Chemscore.DEInternal.Weighted>
0.7323

> <Gold.Chemscore.Rot.Weighted>
7.6772

> <Gold.Chemscore.Internal.Correction.Weighted>
   9.000000E+99

> <Gold.Protein.RotatedTorsions>
[ 6907 6896 6895 6894 ] final   76.71 input  -60.11 | X-H torsion
[ 7974 7965 7964 7962 ] final    5.21 input  175.53 | X-H torsion
[ 8008 7997 7996 7995 ] final   -2.41 input   59.86 | X-H torsion
[ 10167 10162 10161 10158 ] final  -25.23 input  -65.29 | X-H torsion
[ 10718 10713 10712 10709 ] final   -7.59 input   66.30 | X-H torsion
[ 10763 10752 10751 10750 ] final  -39.22 input  -60.55 | X-H torsion
[ 11005 11000 10999 10996 ] final  -97.37 input  -57.11 | X-H torsion

> <Gold.Protein.ActiveResidues>
 VAL166  LYS551  ARG553  GLY616  TRP617  ASP618  TYR619  PRO620  LYS621  CYS622 
 ASP623  PHE694  ASN695  SER759  ASP760  ASP761  ALA762  ILE779  LEU786  VAL792 
 PHE793  MET794  SER795  GLU796  ALA797  LYS798  CYS799  TRP800  GLU811  SER814 

> <Gold.Protein.RotatedAtoms>
  152.5085  134.3927  159.9389 H   0  0  0  0  0  0  0  0  0  0  0  0  # atno 6907 bound_to 6896
  151.3888  133.3790  159.2726 H   0  0  0  0  0  0  0  0  0  0  0  0  # atno 6908 bound_to 6896
  150.9448  134.8875  159.7694 H   0  0  0  0  0  0  0  0  0  0  0  0  # atno 6909 bound_to 6896
  146.2441  140.0418  142.8381 H   0  0  0  0  0  0  0  0  0  0  0  0  # atno 7974 bound_to 7965
  154.6360  140.2535  155.7377 H   0  0  0  0  0  0  0  0  0  0  0  0  # atno 8008 bound_to 7997
  156.2504  140.2897  156.0653 H   0  0  0  0  0  0  0  0  0  0  0  0  # atno 8009 bound_to 7997
  155.1670  140.0385  157.2845 H   0  0  0  0  0  0  0  0  0  0  0  0  # atno 8010 bound_to 7997
  140.7287  143.4283  151.0841 H   0  0  0  0  0  0  0  0  0  0  0  0  # atno 10167 bound_to 10162
  156.7150  130.5133  149.5882 H   0  0  0  0  0  0  0  0  0  0  0  0  # atno 10718 bound_to 10713
  153.9258  135.6777  153.4746 H   0  0  0  0  0  0  0  0  0  0  0  0  # atno 10763 bound_to 10752
  153.1005  135.4830  154.8855 H   0  0  0  0  0  0  0  0  0  0  0  0  # atno 10764 bound_to 10752
  154.7454  135.3171  154.8611 H   0  0  0  0  0  0  0  0  0  0  0  0  # atno 10765 bound_to 10752
  141.1381  133.8166  157.0697 H   0  0  0  0  0  0  0  0  0  0  0  0  # atno 11005 bound_to 11000
  145.1062  140.9377  143.4683 LP  0  0  0  0  0  0  0  0  0  0  0  0  # atno 17320 bound_to 7965
  145.0622  139.3096  143.5874 LP  0  0  0  0  0  0  0  0  0  0  0  0  # atno 17321 bound_to 7965
  139.7937  143.8181  152.3155 LP  0  0  0  0  0  0  0  0  0  0  0  0  # atno 17342 bound_to 10162
  139.8174  144.7310  150.9617 LP  0  0  0  0  0  0  0  0  0  0  0  0  # atno 17343 bound_to 10162
  156.1634  130.6389  151.0748 LP  0  0  0  0  0  0  0  0  0  0  0  0  # atno 17370 bound_to 10713
  157.6921  131.0806  150.7077 LP  0  0  0  0  0  0  0  0  0  0  0  0  # atno 17371 bound_to 10713
  140.0519  134.9801  157.1151 LP  0  0  0  0  0  0  0  0  0  0  0  0  # atno 17394 bound_to 11000
  140.3977  134.2116  155.7164 LP  0  0  0  0  0  0  0  0  0  0  0  0  # atno 17395 bound_to 11000

$$$$
