AV-unprocessed.smi:2295|AV-procd|sdf|9219|dock6
  -GOLD-   2272012443D 1   1.00000     0.00000
 Structure written by MMmdl.
 37 38  0  0  0  0  0  0  0  0  1 V2000
  146.5206  128.9597  152.8143 C   0  0  0  0  0  0  0  0  0  0  0  0
  146.3377  130.3799  152.3218 C   0  0  0  0  0  0  0  0  0  0  0  0
  145.3116  130.7046  151.4141 C   0  0  0  0  0  0  0  0  0  0  0  0
  145.1939  132.0447  150.9955 C   0  0  0  0  0  0  0  0  0  0  0  0
  144.1141  132.4646  150.0205 C   0  0  0  0  0  0  0  0  0  0  0  0
  146.0177  133.0254  151.4232 N   0  0  0  0  0  0  0  0  0  0  0  0
  147.0095  132.7243  152.2979 C   0  0  0  0  0  0  0  0  0  0  0  0
  147.9263  133.6803  152.8105 N   0  0  0  0  0  0  0  0  0  0  0  0
  148.5780  133.6611  153.9865 C   0  0  0  0  0  0  0  0  0  0  0  0
  148.4680  132.7885  154.8483 O   0  0  0  0  0  0  0  0  0  0  0  0
  149.3782  134.7299  154.1124 N   0  0  0  0  0  0  0  0  0  0  0  0
  150.2385  135.0166  155.2565 C   0  0  0  0  0  0  0  0  0  0  0  0
  150.4408  136.5288  155.4627 C   0  0  1  0  0  0  0  0  0  0  0  0
  151.2628  137.2153  154.3612 C   0  0  0  0  0  0  0  0  0  0  0  0
  150.9209  138.7046  154.4168 C   0  0  0  0  0  0  0  0  0  0  0  0
  149.3987  138.7924  154.5307 C   0  0  0  0  0  0  0  0  0  0  0  0
  148.8548  137.4058  155.5610 S   0  0  0  0  0  0  0  0  0  0  0  0
  147.1970  131.4046  152.7670 C   0  0  0  0  0  0  0  0  0  0  0  0
  145.7441  128.3012  152.4242 H   0  0  0  0  0  0  0  0  0  0  0  0
  146.4775  128.9288  153.9033 H   0  0  0  0  0  0  0  0  0  0  0  0
  147.4888  128.5717  152.4970 H   0  0  0  0  0  0  0  0  0  0  0  0
  144.6333  129.9474  151.0483 H   0  0  0  0  0  0  0  0  0  0  0  0
  143.4398  131.6376  149.7962 H   0  0  0  0  0  0  0  0  0  0  0  0
  144.5604  132.8042  149.0855 H   0  0  0  0  0  0  0  0  0  0  0  0
  143.5227  133.2809  150.4363 H   0  0  0  0  0  0  0  0  0  0  0  0
  148.1180  134.4645  152.2050 H   0  0  0  0  0  0  0  0  0  0  0  0
  149.4020  135.3947  153.3533 H   0  0  0  0  0  0  0  0  0  0  0  0
  149.8520  134.5535  156.1660 H   0  0  0  0  0  0  0  0  0  0  0  0
  151.2023  134.5448  155.0634 H   0  0  0  0  0  0  0  0  0  0  0  0
  150.9395  136.6972  156.4181 H   0  0  0  0  0  0  0  0  0  0  0  0
  152.3322  137.0423  154.4853 H   0  0  0  0  0  0  0  0  0  0  0  0
  150.9821  136.8196  153.3841 H   0  0  0  0  0  0  0  0  0  0  0  0
  151.3820  139.1516  155.2984 H   0  0  0  0  0  0  0  0  0  0  0  0
  151.2941  139.2429  153.5452 H   0  0  0  0  0  0  0  0  0  0  0  0
  149.0700  139.7452  154.9466 H   0  0  0  0  0  0  0  0  0  0  0  0
  148.9429  138.6833  153.5462 H   0  0  0  0  0  0  0  0  0  0  0  0
  147.9909  131.1772  153.4638 H   0  0  0  0  0  0  0  0  0  0  0  0
  1  2  1  0  0  0  0
  1 19  1  0  0  0  0
  1 20  1  0  0  0  0
  1 21  1  0  0  0  0
  2 18  1  0  0  0  0
  2  3  2  0  0  0  0
  3  4  1  0  0  0  0
  3 22  1  0  0  0  0
  4  5  1  0  0  0  0
  4  6  2  0  0  0  0
  5 23  1  0  0  0  0
  5 24  1  0  0  0  0
  5 25  1  0  0  0  0
  6  7  1  0  0  0  0
  7  8  1  0  0  0  0
  7 18  2  0  0  0  0
  8  9  1  0  0  0  0
  8 26  1  0  0  0  0
  9 10  2  0  0  0  0
  9 11  1  0  0  0  0
 11 12  1  0  0  0  0
 11 27  1  0  0  0  0
 12 13  1  0  0  0  0
 12 28  1  0  0  0  0
 12 29  1  0  0  0  0
 13 17  1  0  0  0  0
 13 14  1  0  0  0  0
 13 30  1  0  0  0  0
 14 15  1  0  0  0  0
 14 31  1  0  0  0  0
 14 32  1  0  0  0  0
 15 16  1  0  0  0  0
 15 33  1  0  0  0  0
 15 34  1  0  0  0  0
 16 17  1  0  0  0  0
 16 35  1  0  0  0  0
 16 36  1  0  0  0  0
 18 37  1  0  0  0  0
M  END
> <s_m_source_file>
AV-unprocessed.smi

> <i_m_source_file_index>
2295

> <i_lp_mmshare_version>
43012

> <i_f3d_flags>
0

> <s_epik_input>
W0NIM11jMVtjSF1jKFtDSDNdKW5jKFtjSF0xKVtOSF1DKD1PKVtOSF1bQ0gyXVtDQEBIXTJbQ0gyXVtDSDJdW0NIMl1TMg==

> <s_epik_cmdline>
J2VwaWtfcHl0aG9uJywgJy1waCcsICc3LjAnLCAnLXRuJywgJzgnLCAnLW1hJywgJzIwMCcsICctbWV0YWxfYmluZGluZycsICctaW1hZScsICc8aW5maWxlLm1hZT4nLCAnLW9tYWUnLCAnPG91dGZpbGUubWFlPic=

> <r_lp_tautomer_probability>
1

> <r_epik_Ionization_Penalty>
0.000247769

> <r_epik_Ionization_Penalty_Charging>
0

> <r_epik_Ionization_Penalty_Neutral>
0.000247769

> <r_epik_State_Penalty>
-0

> <r_epik_Charging_Adjusted_Penalty>
0

> <i_epik_Tot_Q>
0

> <i_epik_Tot_abs_Q>
0

> <r_epik_Metal_State_Penalty>
-0

> <b_epik_Metal_Only>
0

> <s_lp_Force_Field>
OPLS_2005

> <r_lp_Energy>
14.3156

> <b_lp_Chiralities_Consistent>
1

> <s_lp_Variant>
AV-unprocessed.smi:2295-2

> <Gold.Version>
5.8.1

> <Gold.Id.Protein>
6NUR|6NUR_protein|mol2

> <Gold.PLP.Fitness>
38.2354

> <Gold.PLP.PLP>
-33.1397

> <Gold.PLP.part.hbond>
-2.0000

> <Gold.PLP.part.metal>
0.0000

> <Gold.PLP.part.buried>
-5.0113

> <Gold.PLP.part.nonpolar>
-26.8196

> <Gold.PLP.part.repulsive>
0.1796

> <Gold.PLP.ligand.clash>
0.0000

> <Gold.PLP.ligand.torsion>
0.3778

> <Gold.PLP.Chemscore.Hbond>
1.9500

> <Gold.PLP.Chemscore.CHOScore>
0.0000

> <Gold.PLP.Chemscore.Metal>
0.0000

> <Gold.Chemscore.Hbonds>
donor molecule, donor type, donor heavy atom, donor atom, acceptor molecule, acceptor atom, score
      L1  H     8    26       P1  7948  0.85
      L1  H    11    27       P1  7948  0.80

> <Gold.PLP.Chemscore.Internal.Correction>
0.0012

> <Gold.Rescore>
     Score         DG    S(hbond)    S(metal)    S(lipo)     H(rot)  DE(clash)    DE(int)     intcor
     16.05     -17.76       1.61        0.00      84.45       1.17       0.03       1.68       ----

> <Gold.Chemscore.Fitness>
16.0482

> <Gold.Chemscore.DG>
-17.7558

> <Gold.Chemscore.ZeroCoef>
-5.4800

> <Gold.Chemscore.Hbond>
1.6147

> <Gold.Chemscore.Metal>
0.0000

> <Gold.Chemscore.Lipo>
84.4450

> <Gold.Chemscore.Internal_Hbond>
0.0000

> <Gold.Chemscore.DEClash>
0.0251

> <Gold.Chemscore.DEInternal>
1.6825

> <Gold.Chemscore.Rot>
1.1709

> <Gold.Chemscore.Internal.Correction>
   9.000000E+99

> <Gold.Chemscore.Hbonds>
donor molecule, donor type, donor heavy atom, donor atom, acceptor molecule, acceptor atom, score
      L1  H     8    26       P1  7948  0.14
      L1  H    11    27       P1  7948  0.12

> <Gold.Chemscore.Hbond.Weighted>
-5.3932

> <Gold.Chemscore.Metal.Weighted>
-0.0000

> <Gold.Chemscore.Lipo.Weighted>
-9.8801

> <Gold.Chemscore.Internal_Hbond.Weighted>
0.0000

> <Gold.Chemscore.DEClash.Weighted>
0.0251

> <Gold.Chemscore.DEInternal.Weighted>
1.6825

> <Gold.Chemscore.Rot.Weighted>
2.9975

> <Gold.Chemscore.Internal.Correction.Weighted>
   9.000000E+99

> <Gold.Protein.RotatedTorsions>
[ 6907 6896 6895 6894 ] final  -25.65 input  -60.11 | X-H torsion
[ 7974 7965 7964 7962 ] final  162.08 input  175.53 | X-H torsion
[ 8008 7997 7996 7995 ] final   61.65 input   59.86 | X-H torsion
[ 10167 10162 10161 10158 ] final   36.89 input  -65.29 | X-H torsion
[ 10718 10713 10712 10709 ] final -139.01 input   66.30 | X-H torsion
[ 10763 10752 10751 10750 ] final  -11.41 input  -60.55 | X-H torsion
[ 11005 11000 10999 10996 ] final -116.66 input  -57.11 | X-H torsion

> <Gold.Protein.ActiveResidues>
 VAL166  LYS551  ARG553  GLY616  TRP617  ASP618  TYR619  PRO620  LYS621  CYS622 
 ASP623  PHE694  ASN695  SER759  ASP760  ASP761  ALA762  ILE779  LEU786  VAL792 
 PHE793  MET794  SER795  GLU796  ALA797  LYS798  CYS799  TRP800  GLU811  SER814 

> <Gold.Protein.RotatedAtoms>
  151.1722  135.0323  159.8756 H   0  0  0  0  0  0  0  0  0  0  0  0  # atno 6907 bound_to 6896
  152.5448  134.1158  159.8388 H   0  0  0  0  0  0  0  0  0  0  0  0  # atno 6908 bound_to 6896
  151.1265  133.5020  159.2633 H   0  0  0  0  0  0  0  0  0  0  0  0  # atno 6909 bound_to 6896
  144.7654  139.7989  143.6317 H   0  0  0  0  0  0  0  0  0  0  0  0  # atno 7974 bound_to 7965
  155.6017  140.3494  155.4596 H   0  0  0  0  0  0  0  0  0  0  0  0  # atno 8008 bound_to 7997
  156.0223  140.1256  157.0369 H   0  0  0  0  0  0  0  0  0  0  0  0  # atno 8009 bound_to 7997
  154.4320  140.1060  156.5967 H   0  0  0  0  0  0  0  0  0  0  0  0  # atno 8010 bound_to 7997
  140.4085  144.1625  150.6138 H   0  0  0  0  0  0  0  0  0  0  0  0  # atno 10167 bound_to 10162
  156.3059  130.7455  151.1518 H   0  0  0  0  0  0  0  0  0  0  0  0  # atno 10718 bound_to 10713
  153.4833  135.7017  153.5925 H   0  0  0  0  0  0  0  0  0  0  0  0  # atno 10763 bound_to 10752
  153.4129  135.3844  155.2062 H   0  0  0  0  0  0  0  0  0  0  0  0  # atno 10764 bound_to 10752
  154.8720  135.3909  154.4285 H   0  0  0  0  0  0  0  0  0  0  0  0  # atno 10765 bound_to 10752
  141.0407  133.9840  157.2999 H   0  0  0  0  0  0  0  0  0  0  0  0  # atno 11005 bound_to 11000
  146.1756  139.4925  142.9899 LP  0  0  0  0  0  0  0  0  0  0  0  0  # atno 17320 bound_to 7965
  145.6487  141.0268  143.1772 LP  0  0  0  0  0  0  0  0  0  0  0  0  # atno 17321 bound_to 7965
  140.4663  143.2429  151.9150 LP  0  0  0  0  0  0  0  0  0  0  0  0  # atno 17342 bound_to 10162
  139.4783  144.5415  151.8520 LP  0  0  0  0  0  0  0  0  0  0  0  0  # atno 17343 bound_to 10162
  157.7379  131.0546  150.5325 LP  0  0  0  0  0  0  0  0  0  0  0  0  # atno 17370 bound_to 10713
  156.5458  130.4219  149.6131 LP  0  0  0  0  0  0  0  0  0  0  0  0  # atno 17371 bound_to 10713
  139.9274  135.0201  156.8281 LP  0  0  0  0  0  0  0  0  0  0  0  0  # atno 17394 bound_to 11000
  140.6239  133.9968  155.7631 LP  0  0  0  0  0  0  0  0  0  0  0  0  # atno 17395 bound_to 11000

$$$$
