AV-unprocessed.smi:978|AV-procd|sdf|4308|dock7
  -GOLD-   22720 2213D 1   1.00000     0.00000
 Structure written by MMmdl.
 39 40  0  0  0  0  0  0  0  0  2 V2000
  150.6863  136.1919  156.1898 C   0  0  0  0  0  0  0  0  0  0  0  0
  150.6588  134.7013  155.9946 C   0  0  0  0  0  0  0  0  0  0  0  0
  151.4150  133.9380  156.7701 N   0  0  0  0  0  0  0  0  0  0  0  0
  151.2458  132.6176  156.3258 O   0  0  0  0  0  0  0  0  0  0  0  0
  150.3791  132.6139  155.2799 C   0  0  0  0  0  0  0  0  0  0  0  0
  150.0807  131.2948  154.6513 C   0  0  0  0  0  0  0  0  0  0  0  0
  149.9602  133.8914  155.0511 C   0  0  0  0  0  0  0  0  0  0  0  0
  149.0694  134.2726  154.0160 N   0  0  0  0  0  0  0  0  0  0  0  0
  148.0052  133.5848  153.5750 C   0  0  0  0  0  0  0  0  0  0  0  0
  147.6477  132.4879  154.0031 O   0  0  0  0  0  0  0  0  0  0  0  0
  147.3795  134.2326  152.5818 N   0  0  0  0  0  0  0  0  0  0  0  0
  146.2024  133.7404  151.8717 C   0  0  2  0  0  0  0  0  0  0  0  0
  146.5948  132.5701  150.9547 C   0  0  0  0  0  0  0  0  0  0  0  0
  145.3908  132.0804  150.1316 C   0  0  0  0  0  0  0  0  0  0  0  0
  144.7947  133.1893  149.3452 N   0  3  1  0  0  0  0  0  0  0  0  0
  143.7083  132.7277  148.4545 C   0  0  0  0  0  0  0  0  0  0  0  0
  144.3738  134.3203  150.2090 C   0  0  0  0  0  0  0  0  0  0  0  0
  145.5559  134.8586  151.0320 C   0  0  0  0  0  0  0  0  0  0  0  0
  150.5727  136.7166  155.2414 H   0  0  0  0  0  0  0  0  0  0  0  0
  151.6288  136.5196  156.6299 H   0  0  0  0  0  0  0  0  0  0  0  0
  149.8838  136.5148  156.8528 H   0  0  0  0  0  0  0  0  0  0  0  0
  149.5216  131.4195  153.7238 H   0  0  0  0  0  0  0  0  0  0  0  0
  149.4878  130.6734  155.3225 H   0  0  0  0  0  0  0  0  0  0  0  0
  151.0019  130.7600  154.4196 H   0  0  0  0  0  0  0  0  0  0  0  0
  149.3237  135.1003  153.4971 H   0  0  0  0  0  0  0  0  0  0  0  0
  147.7483  135.1268  152.2919 H   0  0  0  0  0  0  0  0  0  0  0  0
  145.4753  133.3756  152.6003 H   0  0  0  0  0  0  0  0  0  0  0  0
  147.3933  132.8791  150.2781 H   0  0  0  0  0  0  0  0  0  0  0  0
  146.9936  131.7465  151.5484 H   0  0  0  0  0  0  0  0  0  0  0  0
  145.7118  131.2858  149.4570 H   0  0  0  0  0  0  0  0  0  0  0  0
  144.6346  131.6510  150.7907 H   0  0  0  0  0  0  0  0  0  0  0  0
  142.8689  132.3358  149.0304 H   0  0  0  0  0  0  0  0  0  0  0  0
  144.0637  131.9410  147.7881 H   0  0  0  0  0  0  0  0  0  0  0  0
  143.3447  133.5477  147.8347 H   0  0  0  0  0  0  0  0  0  0  0  0
  143.9672  135.1213  149.5902 H   0  0  0  0  0  0  0  0  0  0  0  0
  143.5718  133.9947  150.8735 H   0  0  0  0  0  0  0  0  0  0  0  0
  145.2115  135.6673  151.6780 H   0  0  0  0  0  0  0  0  0  0  0  0
  146.2973  135.2946  150.3603 H   0  0  0  0  0  0  0  0  0  0  0  0
  145.5259  133.5418  148.7441 H   0  0  0  0  0  0  0  0  0  0  0  0
  1  2  1  0  0  0  0
  1 19  1  0  0  0  0
  1 20  1  0  0  0  0
  1 21  1  0  0  0  0
  2  7  1  0  0  0  0
  2  3  2  0  0  0  0
  3  4  1  0  0  0  0
  4  5  1  0  0  0  0
  5  6  1  0  0  0  0
  5  7  2  0  0  0  0
  6 22  1  0  0  0  0
  6 23  1  0  0  0  0
  6 24  1  0  0  0  0
  7  8  1  0  0  0  0
  8  9  1  0  0  0  0
  8 25  1  0  0  0  0
  9 10  2  0  0  0  0
  9 11  1  0  0  0  0
 11 12  1  0  0  0  0
 11 26  1  0  0  0  0
 12 18  1  0  0  0  0
 12 13  1  0  0  0  0
 12 27  1  0  0  0  0
 13 14  1  0  0  0  0
 13 28  1  0  0  0  0
 13 29  1  0  0  0  0
 14 15  1  0  0  0  0
 14 30  1  0  0  0  0
 14 31  1  0  0  0  0
 15 16  1  0  0  0  0
 15 17  1  0  0  0  0
 15 39  1  0  0  0  0
 16 32  1  0  0  0  0
 16 33  1  0  0  0  0
 16 34  1  0  0  0  0
 17 18  1  0  0  0  0
 17 35  1  0  0  0  0
 17 36  1  0  0  0  0
 18 37  1  0  0  0  0
 18 38  1  0  0  0  0
M  CHG  1  15   1
M  END
> <s_m_source_file>
AV-unprocessed.smi

> <i_m_source_file_index>
978

> <i_lp_mmshare_version>
43012

> <i_f3d_flags>
0

> <s_epik_input>
W0NIM11jMW5vYyhbQ0gzXSljMVtOSF1DKD1PKVtOSF1bQ0hdMltDSDJdW0NIMl1OKFtDSDNdKVtDSDJdW0NIMl0y

> <s_epik_cmdline>
J2VwaWtfcHl0aG9uJywgJy1waCcsICc3LjAnLCAnLXRuJywgJzgnLCAnLW1hJywgJzIwMCcsICctbWV0YWxfYmluZGluZycsICctaW1hZScsICc8aW5maWxlLm1hZT4nLCAnLW9tYWUnLCAnPG91dGZpbGUubWFlPic=

> <r_epik_Ionization_Penalty>
0.00369783

> <r_epik_Ionization_Penalty_Charging>
0.00366825

> <r_epik_Ionization_Penalty_Neutral>
2.95799e-05

> <r_epik_State_Penalty>
0.00261101

> <r_epik_Charging_Adjusted_Penalty>
0.00627926

> <i_epik_Tot_Q>
1

> <i_epik_Tot_abs_Q>
1

> <r_epik_Metal_State_Penalty>
-0

> <b_epik_Metal_Only>
0

> <s_lp_Force_Field>
OPLS_2005

> <r_lp_Energy>
17.6402

> <b_lp_Chiralities_Consistent>
1

> <s_lp_Variant>
AV-unprocessed.smi:978-1

> <Gold.Version>
5.8.1

> <Gold.Id.Protein>
6NUR|6NUR_protein|mol2

> <Gold.PLP.Fitness>
40.9101

> <Gold.PLP.PLP>
-33.0976

> <Gold.PLP.part.hbond>
-3.7624

> <Gold.PLP.part.metal>
0.0000

> <Gold.PLP.part.buried>
-2.5256

> <Gold.PLP.part.nonpolar>
-25.8641

> <Gold.PLP.part.repulsive>
0.2309

> <Gold.PLP.ligand.clash>
0.0000

> <Gold.PLP.ligand.torsion>
0.3924

> <Gold.PLP.Chemscore.Hbond>
2.7808

> <Gold.PLP.Chemscore.CHOScore>
0.0000

> <Gold.PLP.Chemscore.Metal>
0.0000

> <Gold.Chemscore.Hbonds>
donor molecule, donor type, donor heavy atom, donor atom, acceptor molecule, acceptor atom, score
      L1  H     8    25       P1  7948  0.74
      L1  H    11    26       P1  7948  1.00
      L1  H    15    39       P1  7921  1.00

> <Gold.PLP.Chemscore.Internal.Correction>
0.2549

> <Gold.Rescore>
     Score         DG    S(hbond)    S(metal)    S(lipo)     H(rot)  DE(clash)    DE(int)     intcor
     15.75     -18.80       2.16        0.00      73.95       1.00       0.13       2.91       ----

> <Gold.Chemscore.Fitness>
15.7500

> <Gold.Chemscore.DG>
-18.7973

> <Gold.Chemscore.ZeroCoef>
-5.4800

> <Gold.Chemscore.Hbond>
2.1633

> <Gold.Chemscore.Metal>
0.0000

> <Gold.Chemscore.Lipo>
73.9475

> <Gold.Chemscore.Internal_Hbond>
0.0000

> <Gold.Chemscore.DEClash>
0.1334

> <Gold.Chemscore.DEInternal>
2.9138

> <Gold.Chemscore.Rot>
1.0000

> <Gold.Chemscore.Internal.Correction>
   9.000000E+99

> <Gold.Chemscore.Hbonds>
donor molecule, donor type, donor heavy atom, donor atom, acceptor molecule, acceptor atom, score
      L1  H     8    25       P1  7948  0.10
      L1  H    11    26       P1  7948  0.94
      L1  H    15    39       P1  7921  0.24

> <Gold.Chemscore.Hbond.Weighted>
-7.2254

> <Gold.Chemscore.Metal.Weighted>
-0.0000

> <Gold.Chemscore.Lipo.Weighted>
-8.6519

> <Gold.Chemscore.Internal_Hbond.Weighted>
0.0000

> <Gold.Chemscore.DEClash.Weighted>
0.1334

> <Gold.Chemscore.DEInternal.Weighted>
2.9138

> <Gold.Chemscore.Rot.Weighted>
2.5600

> <Gold.Chemscore.Internal.Correction.Weighted>
   9.000000E+99

> <Gold.Protein.RotatedTorsions>
[ 6907 6896 6895 6894 ] final   56.63 input  -60.11 | X-H torsion
[ 7974 7965 7964 7962 ] final -124.21 input  175.53 | X-H torsion
[ 8008 7997 7996 7995 ] final  -86.32 input   59.86 | X-H torsion
[ 10167 10162 10161 10158 ] final -166.52 input  -65.29 | X-H torsion
[ 10718 10713 10712 10709 ] final   80.86 input   66.30 | X-H torsion
[ 10763 10752 10751 10750 ] final  164.74 input  -60.55 | X-H torsion
[ 11005 11000 10999 10996 ] final  -80.21 input  -57.11 | X-H torsion

> <Gold.Protein.ActiveResidues>
 VAL166  LYS551  ARG553  GLY616  TRP617  ASP618  TYR619  PRO620  LYS621  CYS622 
 ASP623  PHE694  ASN695  SER759  ASP760  ASP761  ALA762  ILE779  LEU786  VAL792 
 PHE793  MET794  SER795  GLU796  ALA797  LYS798  CYS799  TRP800  GLU811  SER814 

> <Gold.Protein.RotatedAtoms>
  152.3654  134.6811  160.0193 H   0  0  0  0  0  0  0  0  0  0  0  0  # atno 6907 bound_to 6896
  151.7121  133.3307  159.3301 H   0  0  0  0  0  0  0  0  0  0  0  0  # atno 6908 bound_to 6896
  150.7635  134.6458  159.6306 H   0  0  0  0  0  0  0  0  0  0  0  0  # atno 6909 bound_to 6896
  145.0105  140.7901  143.4441 H   0  0  0  0  0  0  0  0  0  0  0  0  # atno 7974 bound_to 7965
  154.6506  140.0580  156.9951 H   0  0  0  0  0  0  0  0  0  0  0  0  # atno 8008 bound_to 7997
  155.1377  140.3262  155.4441 H   0  0  0  0  0  0  0  0  0  0  0  0  # atno 8009 bound_to 7997
  156.2574  140.1969  156.6494 H   0  0  0  0  0  0  0  0  0  0  0  0  # atno 8010 bound_to 7997
  139.6109  144.0816  152.1841 H   0  0  0  0  0  0  0  0  0  0  0  0  # atno 10167 bound_to 10162
  157.6817  130.9978  150.2141 H   0  0  0  0  0  0  0  0  0  0  0  0  # atno 10718 bound_to 10713
  154.3136  135.2757  155.2554 H   0  0  0  0  0  0  0  0  0  0  0  0  # atno 10763 bound_to 10752
  154.4938  135.5826  153.6483 H   0  0  0  0  0  0  0  0  0  0  0  0  # atno 10764 bound_to 10752
  152.9885  135.6141  154.3315 H   0  0  0  0  0  0  0  0  0  0  0  0  # atno 10765 bound_to 10752
  141.1668  133.7140  156.8239 H   0  0  0  0  0  0  0  0  0  0  0  0  # atno 11005 bound_to 11000
  145.2030  139.2242  143.5183 LP  0  0  0  0  0  0  0  0  0  0  0  0  # atno 17320 bound_to 7965
  146.3469  140.1852  142.8589 LP  0  0  0  0  0  0  0  0  0  0  0  0  # atno 17321 bound_to 7965
  140.0434  144.5989  150.7393 LP  0  0  0  0  0  0  0  0  0  0  0  0  # atno 17342 bound_to 10162
  140.7318  143.2699  151.3922 LP  0  0  0  0  0  0  0  0  0  0  0  0  # atno 17343 bound_to 10162
  156.2806  130.3733  149.7939 LP  0  0  0  0  0  0  0  0  0  0  0  0  # atno 17370 bound_to 10713
  156.5628  130.8391  151.3334 LP  0  0  0  0  0  0  0  0  0  0  0  0  # atno 17371 bound_to 10713
  140.2099  134.8835  157.3263 LP  0  0  0  0  0  0  0  0  0  0  0  0  # atno 17394 bound_to 11000
  140.2097  134.4153  155.7619 LP  0  0  0  0  0  0  0  0  0  0  0  0  # atno 17395 bound_to 11000

$$$$
