AV-unprocessed.smi:1301|AV-procd|sdf|5424|dock1
  -GOLD-   22720 4583D 1   1.00000     0.00000
 Structure written by MMmdl.
 44 45  0  0  0  0  0  0  0  0  3 V2000
  152.3584  140.5824  159.1261 C   0  0  0  0  0  0  0  0  0  0  0  0
  152.0711  140.2382  157.7049 C   0  0  0  0  0  0  0  0  0  0  0  0
  150.9929  140.4594  156.8958 C   0  0  0  0  0  0  0  0  0  0  0  0
  151.3874  139.8726  155.6624 C   0  0  0  0  0  0  0  0  0  0  0  0
  150.6528  139.8205  154.5407 N   0  5  0  0  0  0  0  0  0  0  0  0
  149.5163  140.5460  154.4374 C   0  0  0  0  0  0  0  0  0  0  0  0
  149.3173  141.6689  154.9066 O   0  0  0  0  0  0  0  0  0  0  0  0
  148.5520  139.9319  153.7375 N   0  0  0  0  0  0  0  0  0  0  0  0
  147.2291  140.4719  153.4252 C   0  0  2  0  0  0  0  0  0  0  0  0
  146.1571  139.7746  154.2793 C   0  0  0  0  0  0  0  0  0  0  0  0
  145.9509  138.3081  153.8561 C   0  0  0  0  0  0  0  0  0  0  0  0
  145.6206  138.2011  152.4113 N   0  3  2  0  0  0  0  0  0  0  0  0
  145.2923  136.8078  152.0128 C   0  0  0  0  0  0  0  0  0  0  0  0
  144.1790  136.1749  152.8763 C   0  0  0  0  0  0  0  0  0  0  0  0
  143.8243  134.7544  152.4052 C   0  0  0  0  0  0  0  0  0  0  0  0
  142.9274  137.0654  152.8807 C   0  0  0  0  0  0  0  0  0  0  0  0
  146.6705  138.8238  151.5616 C   0  0  0  0  0  0  0  0  0  0  0  0
  146.8801  140.3017  151.9336 C   0  0  0  0  0  0  0  0  0  0  0  0
  152.5914  139.3289  155.7227 N   0  0  0  0  0  0  0  0  0  0  0  0
  153.0392  139.5639  157.0281 O   0  0  0  0  0  0  0  0  0  0  0  0
  151.8792  139.8710  159.7984 H   0  0  0  0  0  0  0  0  0  0  0  0
  151.9867  141.5788  159.3653 H   0  0  0  0  0  0  0  0  0  0  0  0
  153.4304  140.5664  159.3241 H   0  0  0  0  0  0  0  0  0  0  0  0
  150.0713  140.9641  157.1439 H   0  0  0  0  0  0  0  0  0  0  0  0
  148.7628  139.0096  153.3855 H   0  0  0  0  0  0  0  0  0  0  0  0
  147.2300  141.5346  153.6742 H   0  0  0  0  0  0  0  0  0  0  0  0
  146.4231  139.8257  155.3359 H   0  0  0  0  0  0  0  0  0  0  0  0
  145.2128  140.3114  154.1786 H   0  0  0  0  0  0  0  0  0  0  0  0
  146.8447  137.7199  154.0704 H   0  0  0  0  0  0  0  0  0  0  0  0
  145.1428  137.8798  154.4503 H   0  0  0  0  0  0  0  0  0  0  0  0
  145.0170  136.7941  150.9569 H   0  0  0  0  0  0  0  0  0  0  0  0
  146.1836  136.1844  152.0994 H   0  0  0  0  0  0  0  0  0  0  0  0
  144.5181  136.1098  153.9096 H   0  0  0  0  0  0  0  0  0  0  0  0
  143.4769  134.7539  151.3717 H   0  0  0  0  0  0  0  0  0  0  0  0
  143.0335  134.3240  153.0205 H   0  0  0  0  0  0  0  0  0  0  0  0
  144.6829  134.0856  152.4690 H   0  0  0  0  0  0  0  0  0  0  0  0
  142.5118  137.1731  151.8783 H   0  0  0  0  0  0  0  0  0  0  0  0
  143.1558  138.0636  153.2555 H   0  0  0  0  0  0  0  0  0  0  0  0
  142.1489  136.6471  153.5194 H   0  0  0  0  0  0  0  0  0  0  0  0
  147.6051  138.2709  151.6686 H   0  0  0  0  0  0  0  0  0  0  0  0
  146.3932  138.7658  150.5101 H   0  0  0  0  0  0  0  0  0  0  0  0
  145.9681  140.8581  151.7135 H   0  0  0  0  0  0  0  0  0  0  0  0
  147.6553  140.7376  151.3025 H   0  0  0  0  0  0  0  0  0  0  0  0
  144.7773  138.7404  152.2782 H   0  0  0  0  0  0  0  0  0  0  0  0
  1  2  1  0  0  0  0
  1 21  1  0  0  0  0
  1 22  1  0  0  0  0
  1 23  1  0  0  0  0
  2 20  1  0  0  0  0
  2  3  2  0  0  0  0
  3  4  1  0  0  0  0
  3 24  1  0  0  0  0
  4  5  1  0  0  0  0
  4 19  2  0  0  0  0
  5  6  1  0  0  0  0
  6  7  2  0  0  0  0
  6  8  1  0  0  0  0
  8  9  1  0  0  0  0
  8 25  1  0  0  0  0
  9 18  1  0  0  0  0
  9 10  1  0  0  0  0
  9 26  1  0  0  0  0
 10 11  1  0  0  0  0
 10 27  1  0  0  0  0
 10 28  1  0  0  0  0
 11 12  1  0  0  0  0
 11 29  1  0  0  0  0
 11 30  1  0  0  0  0
 12 13  1  0  0  0  0
 12 17  1  0  0  0  0
 12 44  1  0  0  0  0
 13 14  1  0  0  0  0
 13 31  1  0  0  0  0
 13 32  1  0  0  0  0
 14 15  1  0  0  0  0
 14 16  1  0  0  0  0
 14 33  1  0  0  0  0
 15 34  1  0  0  0  0
 15 35  1  0  0  0  0
 15 36  1  0  0  0  0
 16 37  1  0  0  0  0
 16 38  1  0  0  0  0
 16 39  1  0  0  0  0
 17 18  1  0  0  0  0
 17 40  1  0  0  0  0
 17 41  1  0  0  0  0
 18 42  1  0  0  0  0
 18 43  1  0  0  0  0
 19 20  1  0  0  0  0
M  CHG  1   5  -1
M  CHG  1  12   1
M  END
> <s_m_source_file>
AV-unprocessed.smi

> <i_m_source_file_index>
1301

> <i_lp_mmshare_version>
43012

> <i_f3d_flags>
0

> <s_epik_input>
W0NIM11jMVtjSF1jKG5vMSlbTkhdQyg9TylbTkhdW0NIXTJbQ0gyXVtDSDJdTihbQ0gyXVtDSDJdMilbQ0gyXVtDSF0oW0NIM10pW0NIM10=

> <s_epik_cmdline>
J2VwaWtfcHl0aG9uJywgJy1waCcsICc3LjAnLCAnLXRuJywgJzgnLCAnLW1hJywgJzIwMCcsICctbWV0YWxfYmluZGluZycsICctaW1hZScsICc8aW5maWxlLm1hZT4nLCAnLW9tYWUnLCAnPG91dGZpbGUubWFlPic=

> <r_epik_Ionization_Penalty>
6.28597

> <r_epik_Ionization_Penalty_Charging>
6.28587

> <r_epik_Ionization_Penalty_Neutral>
9.69304e-05

> <r_epik_State_Penalty>
6.28524

> <r_epik_Charging_Adjusted_Penalty>
12.5711

> <i_epik_Tot_Q>
0

> <i_epik_Tot_abs_Q>
2

> <r_epik_Metal_State_Penalty>
2.21973

> <b_epik_Metal_Only>
1

> <s_lp_Force_Field>
OPLS_2005

> <r_lp_Energy>
6.70583

> <b_lp_Chiralities_Consistent>
1

> <s_lp_Variant>
AV-unprocessed.smi:1301-4

> <Gold.Version>
5.8.1

> <Gold.Id.Protein>
6NUR|6NUR_protein|mol2

> <Gold.PLP.Fitness>
44.2631

> <Gold.PLP.PLP>
-33.4526

> <Gold.PLP.part.hbond>
-5.4403

> <Gold.PLP.part.metal>
0.0000

> <Gold.PLP.part.buried>
1.2700

> <Gold.PLP.part.nonpolar>
-29.3059

> <Gold.PLP.part.repulsive>
0.3759

> <Gold.PLP.ligand.clash>
0.0000

> <Gold.PLP.ligand.torsion>
0.4414

> <Gold.PLP.Chemscore.Hbond>
3.8000

> <Gold.PLP.Chemscore.CHOScore>
0.0000

> <Gold.PLP.Chemscore.Metal>
0.0000

> <Gold.Chemscore.Hbonds>
donor molecule, donor type, donor heavy atom, donor atom, acceptor molecule, acceptor atom, score
      L1  H    12    44       P1 10175  1.95
      P1  H  7989  7998       L1     5  0.80
      P1  H  7997  8010       L1    20  1.00

> <Gold.PLP.Chemscore.Internal.Correction>
0.2933

> <Gold.Rescore>
     Score         DG    S(hbond)    S(metal)    S(lipo)     H(rot)  DE(clash)    DE(int)     intcor
     12.69     -15.46       1.69        0.00      67.91       1.41       1.02       1.75       ----

> <Gold.Chemscore.Fitness>
12.6950

> <Gold.Chemscore.DG>
-15.4630

> <Gold.Chemscore.ZeroCoef>
-5.4800

> <Gold.Chemscore.Hbond>
1.6880

> <Gold.Chemscore.Metal>
0.0000

> <Gold.Chemscore.Lipo>
67.9075

> <Gold.Chemscore.Internal_Hbond>
0.0000

> <Gold.Chemscore.DEClash>
1.0203

> <Gold.Chemscore.DEInternal>
1.7478

> <Gold.Chemscore.Rot>
1.4063

> <Gold.Chemscore.Internal.Correction>
   9.000000E+99

> <Gold.Chemscore.Hbonds>
donor molecule, donor type, donor heavy atom, donor atom, acceptor molecule, acceptor atom, score
      L1  H    12    44       P1 10175  0.88
      P1  H  7989  7998       L1     5  0.03
      P1  H  7997  8010       L1    20  0.51

> <Gold.Chemscore.Hbond.Weighted>
-5.6380

> <Gold.Chemscore.Metal.Weighted>
-0.0000

> <Gold.Chemscore.Lipo.Weighted>
-7.9452

> <Gold.Chemscore.Internal_Hbond.Weighted>
0.0000

> <Gold.Chemscore.DEClash.Weighted>
1.0203

> <Gold.Chemscore.DEInternal.Weighted>
1.7478

> <Gold.Chemscore.Rot.Weighted>
3.6002

> <Gold.Chemscore.Internal.Correction.Weighted>
   9.000000E+99

> <Gold.Protein.RotatedTorsions>
[ 6907 6896 6895 6894 ] final -145.72 input  -60.11 | X-H torsion
[ 7974 7965 7964 7962 ] final   -5.84 input  175.53 | X-H torsion
[ 8008 7997 7996 7995 ] final   41.27 input   59.86 | X-H torsion
[ 10167 10162 10161 10158 ] final  -45.29 input  -65.29 | X-H torsion
[ 10718 10713 10712 10709 ] final  -91.27 input   66.30 | X-H torsion
[ 10763 10752 10751 10750 ] final  -67.74 input  -60.55 | X-H torsion
[ 11005 11000 10999 10996 ] final -176.44 input  -57.11 | X-H torsion

> <Gold.Protein.ActiveResidues>
 VAL166  LYS551  ARG553  GLY616  TRP617  ASP618  TYR619  PRO620  LYS621  CYS622 
 ASP623  PHE694  ASN695  SER759  ASP760  ASP761  ALA762  ILE779  LEU786  VAL792 
 PHE793  MET794  SER795  GLU796  ALA797  LYS798  CYS799  TRP800  GLU811  SER814 

> <Gold.Protein.RotatedAtoms>
  151.1317  133.5032  159.2598 H   0  0  0  0  0  0  0  0  0  0  0  0  # atno 6907 bound_to 6896
  151.1750  135.0335  159.8778 H   0  0  0  0  0  0  0  0  0  0  0  0  # atno 6908 bound_to 6896
  152.5460  134.1176  159.8438 H   0  0  0  0  0  0  0  0  0  0  0  0  # atno 6909 bound_to 6896
  146.2344  140.2082  142.8335 H   0  0  0  0  0  0  0  0  0  0  0  0  # atno 7974 bound_to 7965
  155.2669  140.3363  155.4268 H   0  0  0  0  0  0  0  0  0  0  0  0  # atno 8008 bound_to 7997
  156.2150  140.1785  156.7651 H   0  0  0  0  0  0  0  0  0  0  0  0  # atno 8009 bound_to 7997
  154.5740  140.0665  156.8992 H   0  0  0  0  0  0  0  0  0  0  0  0  # atno 8010 bound_to 7997
  140.6863  143.2887  151.3618 H   0  0  0  0  0  0  0  0  0  0  0  0  # atno 10167 bound_to 10162
  155.9992  130.4941  150.5449 H   0  0  0  0  0  0  0  0  0  0  0  0  # atno 10718 bound_to 10713
  154.3789  135.6078  153.5780 H   0  0  0  0  0  0  0  0  0  0  0  0  # atno 10763 bound_to 10752
  152.9788  135.5856  154.4433 H   0  0  0  0  0  0  0  0  0  0  0  0  # atno 10764 bound_to 10752
  154.4199  135.2845  155.1960 H   0  0  0  0  0  0  0  0  0  0  0  0  # atno 10765 bound_to 10752
  140.4520  134.6334  157.4805 H   0  0  0  0  0  0  0  0  0  0  0  0  # atno 11005 bound_to 11000
  144.9728  140.8385  143.5445 LP  0  0  0  0  0  0  0  0  0  0  0  0  # atno 17320 bound_to 7965
  145.2065  139.2226  143.5165 LP  0  0  0  0  0  0  0  0  0  0  0  0  # atno 17321 bound_to 7965
  139.6225  144.0878  152.2405 LP  0  0  0  0  0  0  0  0  0  0  0  0  # atno 17342 bound_to 10162
  140.0327  144.6068  150.7475 LP  0  0  0  0  0  0  0  0  0  0  0  0  # atno 17343 bound_to 10162
  157.3380  131.0711  151.1810 LP  0  0  0  0  0  0  0  0  0  0  0  0  # atno 17370 bound_to 10713
  157.2668  130.6685  149.6000 LP  0  0  0  0  0  0  0  0  0  0  0  0  # atno 17371 bound_to 10713
  140.0000  134.6851  155.9545 LP  0  0  0  0  0  0  0  0  0  0  0  0  # atno 17394 bound_to 11000
  141.1660  133.6537  156.4480 LP  0  0  0  0  0  0  0  0  0  0  0  0  # atno 17395 bound_to 11000

$$$$
