AV-unprocessed.smi:1331|AV-procd|sdf|5487|dock4
  -GOLD-   22720 5 63D 1   1.00000     0.00000
 Structure written by MMmdl.
 38 39  0  0  0  0  0  0  0  0  1 V2000
  151.1561  138.1336  156.3099 C   0  0  0  0  0  0  0  0  0  0  0  0
  150.3422  139.4027  156.0161 C   0  0  2  0  0  0  0  0  0  0  0  0
  150.1234  139.6020  154.5041 C   0  0  0  0  0  0  0  0  0  0  0  0
  148.9391  140.3943  154.2203 N   0  0  0  0  0  0  0  0  0  0  0  0
  148.7071  141.7213  154.5144 C   0  0  0  0  0  0  0  0  0  0  0  0
  147.4626  142.0298  154.0449 C   0  0  0  0  0  0  0  0  0  0  0  0
  147.0058  140.8104  153.4712 C   0  0  0  0  0  0  0  0  0  0  0  0
  147.8910  139.8330  153.5786 N   0  0  0  0  0  0  0  0  0  0  0  0
  151.0199  140.5672  156.5809 N   0  0  0  0  0  0  0  0  0  0  0  0
  151.4073  140.7019  157.8582 C   0  0  0  0  0  0  0  0  0  0  0  0
  151.2693  139.8179  158.7043 O   0  0  0  0  0  0  0  0  0  0  0  0
  152.0423  142.0460  158.2373 C   0  0  0  0  0  0  0  0  0  0  0  0
  152.2211  142.1658  159.7660 C   0  0  0  0  0  0  0  0  0  0  0  0
  152.8409  143.5188  160.1517 C   0  0  0  0  0  0  0  0  0  0  0  0
  152.0051  144.6886  159.6086 C   0  0  0  0  0  0  0  0  0  0  0  0
  151.8147  144.5765  158.0876 C   0  0  0  0  0  0  0  0  0  0  0  0
  151.1982  143.2220  157.7011 C   0  0  0  0  0  0  0  0  0  0  0  0
  150.6603  137.2490  155.9100 H   0  0  0  0  0  0  0  0  0  0  0  0
  151.2781  137.9832  157.3833 H   0  0  0  0  0  0  0  0  0  0  0  0
  152.1504  138.1877  155.8655 H   0  0  0  0  0  0  0  0  0  0  0  0
  149.3615  139.2901  156.4826 H   0  0  0  0  0  0  0  0  0  0  0  0
  150.9928  140.0777  154.0469 H   0  0  0  0  0  0  0  0  0  0  0  0
  150.0035  138.6361  154.0121 H   0  0  0  0  0  0  0  0  0  0  0  0
  149.4404  142.3288  155.0244 H   0  0  0  0  0  0  0  0  0  0  0  0
  146.9563  142.9818  154.1012 H   0  0  0  0  0  0  0  0  0  0  0  0
  146.0637  140.6081  152.9834 H   0  0  0  0  0  0  0  0  0  0  0  0
  151.1709  141.3483  155.9588 H   0  0  0  0  0  0  0  0  0  0  0  0
  153.0306  142.1003  157.7765 H   0  0  0  0  0  0  0  0  0  0  0  0
  151.2584  142.0576  160.2686 H   0  0  0  0  0  0  0  0  0  0  0  0
  152.8538  141.3573  160.1345 H   0  0  0  0  0  0  0  0  0  0  0  0
  152.9245  143.5938  161.2362 H   0  0  0  0  0  0  0  0  0  0  0  0
  153.8564  143.5813  159.7585 H   0  0  0  0  0  0  0  0  0  0  0  0
  151.0308  144.6990  160.0986 H   0  0  0  0  0  0  0  0  0  0  0  0
  152.4858  145.6357  159.8551 H   0  0  0  0  0  0  0  0  0  0  0  0
  151.1796  145.3884  157.7320 H   0  0  0  0  0  0  0  0  0  0  0  0
  152.7771  144.6954  157.5886 H   0  0  0  0  0  0  0  0  0  0  0  0
  151.1128  143.1576  156.6152 H   0  0  0  0  0  0  0  0  0  0  0  0
  150.1816  143.1662  158.0941 H   0  0  0  0  0  0  0  0  0  0  0  0
  1  2  1  0  0  0  0
  1 18  1  0  0  0  0
  1 19  1  0  0  0  0
  1 20  1  0  0  0  0
  2  3  1  0  0  0  0
  2  9  1  0  0  0  0
  2 21  1  0  0  0  0
  3  4  1  0  0  0  0
  3 22  1  0  0  0  0
  3 23  1  0  0  0  0
  4  8  1  0  0  0  0
  4  5  1  0  0  0  0
  5  6  2  0  0  0  0
  5 24  1  0  0  0  0
  6  7  1  0  0  0  0
  6 25  1  0  0  0  0
  7  8  2  0  0  0  0
  7 26  1  0  0  0  0
  9 10  1  0  0  0  0
  9 27  1  0  0  0  0
 10 11  2  0  0  0  0
 10 12  1  0  0  0  0
 12 17  1  0  0  0  0
 12 13  1  0  0  0  0
 12 28  1  0  0  0  0
 13 14  1  0  0  0  0
 13 29  1  0  0  0  0
 13 30  1  0  0  0  0
 14 15  1  0  0  0  0
 14 31  1  0  0  0  0
 14 32  1  0  0  0  0
 15 16  1  0  0  0  0
 15 33  1  0  0  0  0
 15 34  1  0  0  0  0
 16 17  1  0  0  0  0
 16 35  1  0  0  0  0
 16 36  1  0  0  0  0
 17 37  1  0  0  0  0
 17 38  1  0  0  0  0
M  END
> <s_m_source_file>
AV-unprocessed.smi

> <i_m_source_file_index>
1331

> <i_lp_mmshare_version>
43012

> <i_f3d_flags>
0

> <s_epik_input>
bjFbY0hdW2NIXVtjSF1uMVtDSDJdW0NAQEhdKFtDSDNdKVtOSF1DKD1PKVtDSF0yW0NIMl1bQ0gyXVtDSDJdW0NIMl1bQ0gyXTI=

> <s_epik_cmdline>
J2VwaWtfcHl0aG9uJywgJy1waCcsICc3LjAnLCAnLXRuJywgJzgnLCAnLW1hJywgJzIwMCcsICctbWV0YWxfYmluZGluZycsICctaW1hZScsICc8aW5maWxlLm1hZT4nLCAnLW9tYWUnLCAnPG91dGZpbGUubWFlPic=

> <r_lp_tautomer_probability>
1

> <r_epik_Ionization_Penalty>
0.000326658

> <r_epik_Ionization_Penalty_Charging>
0

> <r_epik_Ionization_Penalty_Neutral>
0.000326658

> <r_epik_State_Penalty>
-0

> <r_epik_Charging_Adjusted_Penalty>
0

> <i_epik_Tot_Q>
0

> <i_epik_Tot_abs_Q>
0

> <r_epik_Metal_State_Penalty>
-0

> <b_epik_Metal_Only>
0

> <s_lp_Force_Field>
OPLS_2005

> <r_lp_Energy>
10.6365

> <b_lp_Chiralities_Consistent>
1

> <s_lp_Variant>
AV-unprocessed.smi:1331-1

> <Gold.Version>
5.8.1

> <Gold.Id.Protein>
6NUR|6NUR_protein|mol2

> <Gold.PLP.Fitness>
41.7946

> <Gold.PLP.PLP>
-37.4250

> <Gold.PLP.part.hbond>
0.0000

> <Gold.PLP.part.metal>
0.0000

> <Gold.PLP.part.buried>
-3.6385

> <Gold.PLP.part.nonpolar>
-34.8651

> <Gold.PLP.part.repulsive>
0.9401

> <Gold.PLP.ligand.clash>
0.0000

> <Gold.PLP.ligand.torsion>
0.5392

> <Gold.PLP.Chemscore.Hbond>
0.0000

> <Gold.PLP.Chemscore.CHOScore>
1.8031

> <Gold.PLP.Chemscore.Metal>
0.0000

> <Gold.Chemscore.Hbonds>
donor molecule, donor type, donor heavy atom, donor atom, acceptor molecule, acceptor atom, score
      L1  C     5    24       P1  8028  0.79
      L1  C     7    26       P1 10175  1.00

> <Gold.PLP.Chemscore.Internal.Correction>
0.0386

> <Gold.Rescore>
     Score         DG    S(hbond)    S(metal)    S(lipo)     H(rot)  DE(clash)    DE(int)     intcor
     12.68     -14.26       0.00        0.00     107.63       1.49       0.00       1.58       ----

> <Gold.Chemscore.Fitness>
12.6755

> <Gold.Chemscore.DG>
-14.2583

> <Gold.Chemscore.ZeroCoef>
-5.4800

> <Gold.Chemscore.Hbond>
0.0000

> <Gold.Chemscore.Metal>
0.0000

> <Gold.Chemscore.Lipo>
107.6336

> <Gold.Chemscore.Internal_Hbond>
0.0000

> <Gold.Chemscore.DEClash>
0.0048

> <Gold.Chemscore.DEInternal>
1.5779

> <Gold.Chemscore.Rot>
1.4902

> <Gold.Chemscore.Internal.Correction>
   9.000000E+99

> <Gold.Chemscore.Hbond.Weighted>
-0.0000

> <Gold.Chemscore.Metal.Weighted>
-0.0000

> <Gold.Chemscore.Lipo.Weighted>
-12.5931

> <Gold.Chemscore.Internal_Hbond.Weighted>
0.0000

> <Gold.Chemscore.DEClash.Weighted>
0.0048

> <Gold.Chemscore.DEInternal.Weighted>
1.5779

> <Gold.Chemscore.Rot.Weighted>
3.8149

> <Gold.Chemscore.Internal.Correction.Weighted>
   9.000000E+99

> <Gold.Protein.RotatedTorsions>
[ 6907 6896 6895 6894 ] final -101.78 input  -60.11 | X-H torsion
[ 7974 7965 7964 7962 ] final  -70.06 input  175.53 | X-H torsion
[ 8008 7997 7996 7995 ] final  -56.84 input   59.86 | X-H torsion
[ 10167 10162 10161 10158 ] final  111.79 input  -65.29 | X-H torsion
[ 10718 10713 10712 10709 ] final  110.70 input   66.30 | X-H torsion
[ 10763 10752 10751 10750 ] final -156.51 input  -60.55 | X-H torsion
[ 11005 11000 10999 10996 ] final -135.56 input  -57.11 | X-H torsion

> <Gold.Protein.ActiveResidues>
 VAL166  LYS551  ARG553  GLY616  TRP617  ASP618  TYR619  PRO620  LYS621  CYS622 
 ASP623  PHE694  ASN695  SER759  ASP760  ASP761  ALA762  ILE779  LEU786  VAL792 
 PHE793  MET794  SER795  GLU796  ALA797  LYS798  CYS799  TRP800  GLU811  SER814 

> <Gold.Protein.RotatedAtoms>
  150.7168  134.0682  159.3854 H   0  0  0  0  0  0  0  0  0  0  0  0  # atno 6907 bound_to 6896
  151.8663  135.0503  160.0484 H   0  0  0  0  0  0  0  0  0  0  0  0  # atno 6908 bound_to 6896
  152.2678  133.5319  159.5457 H   0  0  0  0  0  0  0  0  0  0  0  0  # atno 6909 bound_to 6896
  145.6958  140.9135  143.0757 H   0  0  0  0  0  0  0  0  0  0  0  0  # atno 7974 bound_to 7965
  154.4245  140.1120  156.5702 H   0  0  0  0  0  0  0  0  0  0  0  0  # atno 8008 bound_to 7997
  155.6220  140.3495  155.4636 H   0  0  0  0  0  0  0  0  0  0  0  0  # atno 8009 bound_to 7997
  156.0016  140.1200  157.0531 H   0  0  0  0  0  0  0  0  0  0  0  0  # atno 8010 bound_to 7997
  139.6584  144.7129  151.1912 H   0  0  0  0  0  0  0  0  0  0  0  0  # atno 10167 bound_to 10162
  157.6481  131.0937  150.6641 H   0  0  0  0  0  0  0  0  0  0  0  0  # atno 10718 bound_to 10713
  154.7707  135.3144  154.8194 H   0  0  0  0  0  0  0  0  0  0  0  0  # atno 10763 bound_to 10752
  153.8930  135.6823  153.4763 H   0  0  0  0  0  0  0  0  0  0  0  0  # atno 10764 bound_to 10752
  153.1321  135.4776  154.9299 H   0  0  0  0  0  0  0  0  0  0  0  0  # atno 10765 bound_to 10752
  140.8887  134.1839  157.4542 H   0  0  0  0  0  0  0  0  0  0  0  0  # atno 11005 bound_to 11000
  144.6983  139.8882  143.7451 LP  0  0  0  0  0  0  0  0  0  0  0  0  # atno 17320 bound_to 7965
  146.0841  139.3829  143.0446 LP  0  0  0  0  0  0  0  0  0  0  0  0  # atno 17321 bound_to 7965
  140.7569  143.6034  150.8677 LP  0  0  0  0  0  0  0  0  0  0  0  0  # atno 17342 bound_to 10162
  139.9689  143.6079  152.2979 LP  0  0  0  0  0  0  0  0  0  0  0  0  # atno 17343 bound_to 10162
  156.6955  130.4608  149.5587 LP  0  0  0  0  0  0  0  0  0  0  0  0  # atno 17370 bound_to 10713
  156.1832  130.6512  151.0975 LP  0  0  0  0  0  0  0  0  0  0  0  0  # atno 17371 bound_to 10713
  139.8727  134.9849  156.5259 LP  0  0  0  0  0  0  0  0  0  0  0  0  # atno 17394 bound_to 11000
  140.8373  133.8232  155.9041 LP  0  0  0  0  0  0  0  0  0  0  0  0  # atno 17395 bound_to 11000

$$$$
