AV-unprocessed.smi:1830|AV-procd|sdf|7433|dock8
  -GOLD-   22720 9123D 1   1.00000     0.00000
 Structure written by MMmdl.
 53 56  0  0  0  0  0  0  0  0  2 V2000
  150.9265  134.7001  155.6445 O   0  0  0  0  0  0  0  0  0  0  0  0
  150.3355  135.1383  154.6576 C   0  0  0  0  0  0  0  0  0  0  0  0
  150.3229  136.4342  154.3179 N   0  0  0  0  0  0  0  0  0  0  0  0
  150.9773  137.5009  155.0665 C   0  0  0  0  0  0  0  0  0  0  0  0
  150.8991  138.8544  154.3244 C   0  0  1  0  0  0  0  0  0  0  0  0
  149.5710  139.6071  154.5815 C   0  0  0  0  0  0  0  0  0  0  0  0
  149.6012  140.1902  155.9360 N   0  3  2  0  0  0  0  0  0  0  0  0
  148.4262  140.9537  156.3905 C   0  0  0  0  0  0  0  0  0  0  0  0
  148.9653  141.8931  157.4877 C   0  0  0  0  0  0  0  0  0  0  0  0
  150.4951  141.7224  157.4692 C   0  0  0  0  0  0  0  0  0  0  0  0
  150.7550  141.0743  156.1128 C   0  0  1  0  0  0  0  0  0  0  0  0
  152.0422  140.2605  155.9389 C   0  0  0  0  0  0  0  0  0  0  0  0
  152.0279  139.6897  154.6279 O   0  0  0  0  0  0  0  0  0  0  0  0
  149.6066  134.4059  153.8002 N   0  0  0  0  0  0  0  0  0  0  0  0
  149.3097  133.0165  153.8713 C   0  0  0  0  0  0  0  0  0  0  0  0
  150.1117  132.1275  154.6276 C   0  0  0  0  0  0  0  0  0  0  0  0
  149.8218  130.7524  154.6088 C   0  0  0  0  0  0  0  0  0  0  0  0
  148.7473  130.3107  153.8191 C   0  0  0  0  0  0  0  0  0  0  0  0
  147.9824  131.1424  153.0842 N   0  0  0  0  0  0  0  0  0  0  0  0
  148.2399  132.4734  153.1035 C   0  0  0  0  0  0  0  0  0  0  0  0
  147.3933  133.3005  152.3300 N   0  0  0  0  0  0  0  0  0  0  0  0
  146.5480  132.7259  151.2886 C   0  0  0  0  0  0  0  0  0  0  0  0
  145.5291  133.8139  150.9627 C   0  0  0  0  0  0  0  0  0  0  0  0
  145.2927  134.4572  152.3256 C   0  0  0  0  0  0  0  0  0  0  0  0
  146.6563  134.3567  153.0180 C   0  0  0  0  0  0  0  0  0  0  0  0
  149.8094  136.7034  153.4912 H   0  0  0  0  0  0  0  0  0  0  0  0
  150.5206  137.5880  156.0538 H   0  0  0  0  0  0  0  0  0  0  0  0
  152.0122  137.2087  155.2418 H   0  0  0  0  0  0  0  0  0  0  0  0
  150.9504  138.6466  153.2550 H   0  0  0  0  0  0  0  0  0  0  0  0
  149.4439  140.4038  153.8469 H   0  0  0  0  0  0  0  0  0  0  0  0
  148.7166  138.9374  154.4791 H   0  0  0  0  0  0  0  0  0  0  0  0
  148.0184  141.5382  155.5643 H   0  0  0  0  0  0  0  0  0  0  0  0
  147.6434  140.2883  156.7553 H   0  0  0  0  0  0  0  0  0  0  0  0
  148.6868  142.9246  157.2690 H   0  0  0  0  0  0  0  0  0  0  0  0
  148.5579  141.6436  158.4681 H   0  0  0  0  0  0  0  0  0  0  0  0
  151.0287  142.6649  157.5956 H   0  0  0  0  0  0  0  0  0  0  0  0
  150.8020  141.0513  158.2728 H   0  0  0  0  0  0  0  0  0  0  0  0
  150.7191  141.8528  155.3472 H   0  0  0  0  0  0  0  0  0  0  0  0
  152.9156  140.9058  156.0346 H   0  0  0  0  0  0  0  0  0  0  0  0
  152.1334  139.4857  156.7007 H   0  0  0  0  0  0  0  0  0  0  0  0
  149.1051  134.9180  153.0894 H   0  0  0  0  0  0  0  0  0  0  0  0
  150.9575  132.4754  155.2015 H   0  0  0  0  0  0  0  0  0  0  0  0
  150.4180  130.0524  155.1752 H   0  0  0  0  0  0  0  0  0  0  0  0
  148.4978  129.2611  153.7710 H   0  0  0  0  0  0  0  0  0  0  0  0
  147.1326  132.4422  150.4130 H   0  0  0  0  0  0  0  0  0  0  0  0
  146.0272  131.8406  151.6558 H   0  0  0  0  0  0  0  0  0  0  0  0
  145.9647  134.5418  150.2767 H   0  0  0  0  0  0  0  0  0  0  0  0
  144.6183  133.4212  150.5103 H   0  0  0  0  0  0  0  0  0  0  0  0
  144.9280  135.4824  152.2560 H   0  0  0  0  0  0  0  0  0  0  0  0
  144.5559  133.8750  152.8809 H   0  0  0  0  0  0  0  0  0  0  0  0
  146.5466  134.1536  154.0843 H   0  0  0  0  0  0  0  0  0  0  0  0
  147.1987  135.2958  152.9060 H   0  0  0  0  0  0  0  0  0  0  0  0
  149.7191  139.4300  156.5905 H   0  0  0  0  0  0  0  0  0  0  0  0
  1  2  2  0  0  0  0
  2  3  1  0  0  0  0
  2 14  1  0  0  0  0
  3  4  1  0  0  0  0
  3 26  1  0  0  0  0
  4  5  1  0  0  0  0
  4 27  1  0  0  0  0
  4 28  1  0  0  0  0
  5 13  1  0  0  0  0
  5  6  1  0  0  0  0
  5 29  1  0  0  0  0
  6  7  1  0  0  0  0
  6 30  1  0  0  0  0
  6 31  1  0  0  0  0
  7 11  1  0  0  0  0
  7  8  1  0  0  0  0
  7 53  1  0  0  0  0
  8  9  1  0  0  0  0
  8 32  1  0  0  0  0
  8 33  1  0  0  0  0
  9 10  1  0  0  0  0
  9 34  1  0  0  0  0
  9 35  1  0  0  0  0
 10 11  1  0  0  0  0
 10 36  1  0  0  0  0
 10 37  1  0  0  0  0
 11 12  1  0  0  0  0
 11 38  1  0  0  0  0
 12 13  1  0  0  0  0
 12 39  1  0  0  0  0
 12 40  1  0  0  0  0
 14 15  1  0  0  0  0
 14 41  1  0  0  0  0
 15 20  1  0  0  0  0
 15 16  2  0  0  0  0
 16 17  1  0  0  0  0
 16 42  1  0  0  0  0
 17 18  2  0  0  0  0
 17 43  1  0  0  0  0
 18 19  1  0  0  0  0
 18 44  1  0  0  0  0
 19 20  2  0  0  0  0
 20 21  1  0  0  0  0
 21 25  1  0  0  0  0
 21 22  1  0  0  0  0
 22 23  1  0  0  0  0
 22 45  1  0  0  0  0
 22 46  1  0  0  0  0
 23 24  1  0  0  0  0
 23 47  1  0  0  0  0
 23 48  1  0  0  0  0
 24 25  1  0  0  0  0
 24 49  1  0  0  0  0
 24 50  1  0  0  0  0
 25 51  1  0  0  0  0
 25 52  1  0  0  0  0
M  CHG  1   7   1
M  END
> <s_m_source_file>
AV-unprocessed.smi

> <i_m_source_file_index>
1830

> <i_lp_mmshare_version>
43012

> <i_f3d_flags>
0

> <s_epik_input>
W0NIMl0xW0NIMl1bQ0gyXVtDQEhdKE4xMilbQ0gyXU9bQ0BASF0oW0NIMl0yKVtDSDJdW05IXUMoPU8pW05IXWMzW2NIXVtjSF1bY0hdbmMzTjRbQ0gyXVtDSDJdW0NIMl1bQ0gyXTQ=

> <s_epik_cmdline>
J2VwaWtfcHl0aG9uJywgJy1waCcsICc3LjAnLCAnLXRuJywgJzgnLCAnLW1hJywgJzIwMCcsICctbWV0YWxfYmluZGluZycsICctaW1hZScsICc8aW5maWxlLm1hZT4nLCAnLW9tYWUnLCAnPG91dGZpbGUubWFlPic=

> <r_lp_tautomer_probability>
1

> <r_epik_Ionization_Penalty>
0.193547

> <r_epik_Ionization_Penalty_Charging>
0.10673

> <r_epik_Ionization_Penalty_Neutral>
0.0868166

> <r_epik_State_Penalty>
0.173595

> <r_epik_Charging_Adjusted_Penalty>
0.280326

> <i_epik_Tot_Q>
1

> <i_epik_Tot_abs_Q>
1

> <r_epik_Metal_State_Penalty>
0.164683

> <b_epik_Metal_Only>
0

> <s_lp_Force_Field>
OPLS_2005

> <r_lp_Energy>
66.0686

> <b_lp_Chiralities_Consistent>
1

> <s_lp_Variant>
AV-unprocessed.smi:1830-2

> <Gold.Version>
5.8.1

> <Gold.Id.Protein>
6NUR|6NUR_protein|mol2

> <Gold.PLP.Fitness>
48.7531

> <Gold.PLP.PLP>
-41.1151

> <Gold.PLP.part.hbond>
-3.7671

> <Gold.PLP.part.metal>
0.0000

> <Gold.PLP.part.buried>
-5.3999

> <Gold.PLP.part.nonpolar>
-32.9446

> <Gold.PLP.part.repulsive>
0.4960

> <Gold.PLP.ligand.clash>
0.0000

> <Gold.PLP.ligand.torsion>
0.6371

> <Gold.PLP.Chemscore.Hbond>
2.8624

> <Gold.PLP.Chemscore.CHOScore>
0.0000

> <Gold.PLP.Chemscore.Metal>
0.0000

> <Gold.Chemscore.Hbonds>
donor molecule, donor type, donor heavy atom, donor atom, acceptor molecule, acceptor atom, score
      L1  H     3    26       P1  7948  0.99
      L1  H    14    41       P1  7948  0.65
      P1  H  7989  7998       L1    13  0.70

> <Gold.PLP.Chemscore.Internal.Correction>
0.3250

> <Gold.Rescore>
     Score         DG    S(hbond)    S(metal)    S(lipo)     H(rot)  DE(clash)    DE(int)     intcor
     16.35     -18.26       2.17        0.00      78.12       1.41       0.01       1.90       ----

> <Gold.Chemscore.Fitness>
16.3522

> <Gold.Chemscore.DG>
-18.2625

> <Gold.Chemscore.ZeroCoef>
-5.4800

> <Gold.Chemscore.Hbond>
2.1687

> <Gold.Chemscore.Metal>
0.0000

> <Gold.Chemscore.Lipo>
78.1207

> <Gold.Chemscore.Internal_Hbond>
0.0000

> <Gold.Chemscore.DEClash>
0.0098

> <Gold.Chemscore.DEInternal>
1.9006

> <Gold.Chemscore.Rot>
1.4067

> <Gold.Chemscore.Internal.Correction>
   9.000000E+99

> <Gold.Chemscore.Hbonds>
donor molecule, donor type, donor heavy atom, donor atom, acceptor molecule, acceptor atom, score
      L1  H     3    26       P1  7948  0.37
      L1  H    14    41       P1  7948  0.05
      P1  H  7989  7998       L1    13  0.08
      P1  H 10752 10764       L1     1  0.01

> <Gold.Chemscore.Hbond.Weighted>
-7.2435

> <Gold.Chemscore.Metal.Weighted>
-0.0000

> <Gold.Chemscore.Lipo.Weighted>
-9.1401

> <Gold.Chemscore.Internal_Hbond.Weighted>
0.0000

> <Gold.Chemscore.DEClash.Weighted>
0.0098

> <Gold.Chemscore.DEInternal.Weighted>
1.9006

> <Gold.Chemscore.Rot.Weighted>
3.6011

> <Gold.Chemscore.Internal.Correction.Weighted>
   9.000000E+99

> <Gold.Protein.RotatedTorsions>
[ 6907 6896 6895 6894 ] final  -45.13 input  -60.11 | X-H torsion
[ 7974 7965 7964 7962 ] final -126.97 input  175.53 | X-H torsion
[ 8008 7997 7996 7995 ] final -110.70 input   59.86 | X-H torsion
[ 10167 10162 10161 10158 ] final  160.67 input  -65.29 | X-H torsion
[ 10718 10713 10712 10709 ] final  118.65 input   66.30 | X-H torsion
[ 10763 10752 10751 10750 ] final  -23.26 input  -60.55 | X-H torsion
[ 11005 11000 10999 10996 ] final  134.65 input  -57.11 | X-H torsion

> <Gold.Protein.ActiveResidues>
 VAL166  LYS551  ARG553  GLY616  TRP617  ASP618  TYR619  PRO620  LYS621  CYS622 
 ASP623  PHE694  ASN695  SER759  ASP760  ASP761  ALA762  ILE779  LEU786  VAL792 
 PHE793  MET794  SER795  GLU796  ALA797  LYS798  CYS799  TRP800  GLU811  SER814 

> <Gold.Protein.RotatedAtoms>
  150.9252  134.8669  159.7515 H   0  0  0  0  0  0  0  0  0  0  0  0  # atno 6907 bound_to 6896
  152.5012  134.4159  159.9474 H   0  0  0  0  0  0  0  0  0  0  0  0  # atno 6908 bound_to 6896
  151.4190  133.3664  159.2789 H   0  0  0  0  0  0  0  0  0  0  0  0  # atno 6909 bound_to 6896
  144.9818  140.7647  143.4607 H   0  0  0  0  0  0  0  0  0  0  0  0  # atno 7974 bound_to 7965
  154.9785  140.0396  157.2267 H   0  0  0  0  0  0  0  0  0  0  0  0  # atno 8008 bound_to 7997
  154.7736  140.2806  155.6096 H   0  0  0  0  0  0  0  0  0  0  0  0  # atno 8009 bound_to 7997
  156.2925  140.2605  156.2544 H   0  0  0  0  0  0  0  0  0  0  0  0  # atno 8010 bound_to 7997
  139.4842  144.4612  151.8702 H   0  0  0  0  0  0  0  0  0  0  0  0  # atno 10167 bound_to 10162
  157.6016  131.1050  150.7786 H   0  0  0  0  0  0  0  0  0  0  0  0  # atno 10718 bound_to 10713
  153.6650  135.6974  153.5165 H   0  0  0  0  0  0  0  0  0  0  0  0  # atno 10763 bound_to 10752
  153.2602  135.4247  155.0885 H   0  0  0  0  0  0  0  0  0  0  0  0  # atno 10764 bound_to 10752
  154.8442  135.3553  154.6195 H   0  0  0  0  0  0  0  0  0  0  0  0  # atno 10765 bound_to 10752
  139.9929  134.9508  156.9897 H   0  0  0  0  0  0  0  0  0  0  0  0  # atno 11005 bound_to 11000
  145.2410  139.2072  143.4992 LP  0  0  0  0  0  0  0  0  0  0  0  0  # atno 17320 bound_to 7965
  146.3410  140.2305  142.8593 LP  0  0  0  0  0  0  0  0  0  0  0  0  # atno 17321 bound_to 7965
  140.4074  144.2414  150.5890 LP  0  0  0  0  0  0  0  0  0  0  0  0  # atno 17342 bound_to 10162
  140.4999  143.2321  151.8694 LP  0  0  0  0  0  0  0  0  0  0  0  0  # atno 17343 bound_to 10162
  156.8183  130.4975  149.5346 LP  0  0  0  0  0  0  0  0  0  0  0  0  # atno 17370 bound_to 10713
  156.1090  130.6026  151.0018 LP  0  0  0  0  0  0  0  0  0  0  0  0  # atno 17371 bound_to 10713
  140.4874  134.1227  155.7227 LP  0  0  0  0  0  0  0  0  0  0  0  0  # atno 17394 bound_to 11000
  141.1580  133.8846  157.1924 LP  0  0  0  0  0  0  0  0  0  0  0  0  # atno 17395 bound_to 11000

$$$$
