AV-unprocessed.smi:1100|AV-procd|sdf|4764|dock1
  -GOLD-   22720 3303D 1   1.00000     0.00000
 Structure written by MMmdl.
 43 44  0  0  0  0  0  0  0  0  3 V2000
  146.6185  141.8968  154.2806 C   0  0  0  0  0  0  0  0  0  0  0  0
  147.2372  140.8503  153.3192 C   0  0  1  0  0  0  0  0  0  0  0  0
  148.6952  140.4481  153.6661 C   0  0  0  0  0  0  0  0  0  0  0  0
  149.3542  141.5096  154.4264 N   0  5  0  0  0  0  0  0  0  0  0  0
  149.9473  141.3384  155.6390 C   0  0  0  0  0  0  0  0  0  0  0  0
  150.1788  140.2687  156.2138 O   0  0  0  0  0  0  0  0  0  0  0  0
  150.2665  142.5169  156.2100 N   0  0  0  0  0  0  0  0  0  0  0  0
  150.9407  142.7871  157.4115 C   0  0  0  0  0  0  0  0  0  0  0  0
  151.6732  141.7020  158.0289 C   0  0  0  0  0  0  0  0  0  0  0  0
  152.3188  141.8709  159.1991 C   0  0  0  0  0  0  0  0  0  0  0  0
  152.3098  143.1572  159.8998 C   0  0  0  0  0  0  0  0  0  0  0  0
  152.8920  143.3254  160.9720 O   0  0  0  0  0  0  0  0  0  0  0  0
  151.6119  144.1569  159.2871 N   0  0  0  0  0  0  0  0  0  0  0  0
  151.5362  145.4802  159.9117 C   0  0  0  0  0  0  0  0  0  0  0  0
  150.9310  143.9678  158.0689 C   0  0  0  0  0  0  0  0  0  0  0  0
  146.3822  139.6327  153.1575 N   0  3  0  0  0  0  0  0  0  0  0  0
  146.7661  138.6853  152.0736 C   0  0  0  0  0  0  0  0  0  0  0  0
  145.7006  137.5870  151.9331 C   0  0  0  0  0  0  0  0  0  0  0  0
  145.5574  136.9056  153.1734 O   0  0  0  0  0  0  0  0  0  0  0  0
  145.1224  137.7747  154.2121 C   0  0  0  0  0  0  0  0  0  0  0  0
  146.1552  138.8945  154.4249 C   0  0  0  0  0  0  0  0  0  0  0  0
  147.1701  142.8385  154.2650 H   0  0  0  0  0  0  0  0  0  0  0  0
  146.5928  141.5551  155.3168 H   0  0  0  0  0  0  0  0  0  0  0  0
  145.5955  142.1346  153.9891 H   0  0  0  0  0  0  0  0  0  0  0  0
  147.2905  141.3226  152.3367 H   0  0  0  0  0  0  0  0  0  0  0  0
  148.6872  139.5031  154.2104 H   0  0  0  0  0  0  0  0  0  0  0  0
  149.2250  140.2450  152.7338 H   0  0  0  0  0  0  0  0  0  0  0  0
  149.9738  143.3364  155.6987 H   0  0  0  0  0  0  0  0  0  0  0  0
  151.7060  140.7367  157.5449 H   0  0  0  0  0  0  0  0  0  0  0  0
  152.8558  141.0400  159.6320 H   0  0  0  0  0  0  0  0  0  0  0  0
  151.0641  146.2234  159.2683 H   0  0  0  0  0  0  0  0  0  0  0  0
  152.5324  145.8543  160.1528 H   0  0  0  0  0  0  0  0  0  0  0  0
  150.9585  145.4299  160.8354 H   0  0  0  0  0  0  0  0  0  0  0  0
  150.3951  144.8420  157.7353 H   0  0  0  0  0  0  0  0  0  0  0  0
  146.8749  139.2091  151.1235 H   0  0  0  0  0  0  0  0  0  0  0  0
  147.7281  138.2230  152.2983 H   0  0  0  0  0  0  0  0  0  0  0  0
  144.7438  138.0079  151.6192 H   0  0  0  0  0  0  0  0  0  0  0  0
  145.9994  136.8693  151.1689 H   0  0  0  0  0  0  0  0  0  0  0  0
  144.1438  138.1903  153.9665 H   0  0  0  0  0  0  0  0  0  0  0  0
  145.0012  137.1968  155.1286 H   0  0  0  0  0  0  0  0  0  0  0  0
  147.0973  138.4760  154.7814 H   0  0  0  0  0  0  0  0  0  0  0  0
  145.7920  139.5742  155.1967 H   0  0  0  0  0  0  0  0  0  0  0  0
  145.4758  139.9970  152.9000 H   0  0  0  0  0  0  0  0  0  0  0  0
  1  2  1  0  0  0  0
  1 22  1  0  0  0  0
  1 23  1  0  0  0  0
  1 24  1  0  0  0  0
  2  3  1  0  0  0  0
  2 16  1  0  0  0  0
  2 25  1  0  0  0  0
  3  4  1  0  0  0  0
  3 26  1  0  0  0  0
  3 27  1  0  0  0  0
  4  5  1  0  0  0  0
  5  6  2  0  0  0  0
  5  7  1  0  0  0  0
  7  8  1  0  0  0  0
  7 28  1  0  0  0  0
  8 15  2  0  0  0  0
  8  9  1  0  0  0  0
  9 10  2  0  0  0  0
  9 29  1  0  0  0  0
 10 11  1  0  0  0  0
 10 30  1  0  0  0  0
 11 12  2  0  0  0  0
 11 13  1  0  0  0  0
 13 14  1  0  0  0  0
 13 15  1  0  0  0  0
 14 31  1  0  0  0  0
 14 32  1  0  0  0  0
 14 33  1  0  0  0  0
 15 34  1  0  0  0  0
 16 21  1  0  0  0  0
 16 17  1  0  0  0  0
 16 43  1  0  0  0  0
 17 18  1  0  0  0  0
 17 35  1  0  0  0  0
 17 36  1  0  0  0  0
 18 19  1  0  0  0  0
 18 37  1  0  0  0  0
 18 38  1  0  0  0  0
 19 20  1  0  0  0  0
 20 21  1  0  0  0  0
 20 39  1  0  0  0  0
 20 40  1  0  0  0  0
 21 41  1  0  0  0  0
 21 42  1  0  0  0  0
M  CHG  1   4  -1
M  CHG  1  16   1
M  END
> <s_m_source_file>
AV-unprocessed.smi

> <i_m_source_file_index>
1100

> <i_lp_mmshare_version>
43012

> <i_f3d_flags>
0

> <s_epik_input>
W0NIMl0xW0NIMl1PW0NIMl1bQ0gyXU4xW0NASF0oW0NIM10pW0NIMl1bTkhdQyg9TylbTkhdYzJbY0hdW2NIXWMoPU8pbihbQ0gzXSlbY0hdMg==

> <s_epik_cmdline>
J2VwaWtfcHl0aG9uJywgJy1waCcsICc3LjAnLCAnLXRuJywgJzgnLCAnLW1hJywgJzIwMCcsICctbWV0YWxfYmluZGluZycsICctaW1hZScsICc8aW5maWxlLm1hZT4nLCAnLW9tYWUnLCAnPG91dGZpbGUubWFlPic=

> <r_lp_tautomer_probability>
1

> <r_epik_Ionization_Penalty>
6.79272

> <r_epik_Ionization_Penalty_Charging>
6.79272

> <r_epik_Ionization_Penalty_Neutral>
3.37009e-06

> <r_epik_State_Penalty>
7.34577

> <r_epik_Charging_Adjusted_Penalty>
14.1385

> <i_epik_Tot_Q>
0

> <i_epik_Tot_abs_Q>
2

> <r_epik_Metal_State_Penalty>
3.26257

> <b_epik_Metal_Only>
1

> <s_lp_Force_Field>
OPLS_2005

> <r_lp_Energy>
32.2868

> <b_lp_Chiralities_Consistent>
1

> <s_lp_Variant>
AV-unprocessed.smi:1100-6

> <Gold.Version>
5.8.1

> <Gold.Id.Protein>
6NUR|6NUR_protein|mol2

> <Gold.PLP.Fitness>
51.7567

> <Gold.PLP.PLP>
-41.3601

> <Gold.PLP.part.hbond>
-4.0000

> <Gold.PLP.part.metal>
0.0000

> <Gold.PLP.part.buried>
1.4885

> <Gold.PLP.part.nonpolar>
-40.2206

> <Gold.PLP.part.repulsive>
0.5022

> <Gold.PLP.ligand.clash>
0.0000

> <Gold.PLP.ligand.torsion>
0.5433

> <Gold.PLP.Chemscore.Hbond>
2.9705

> <Gold.PLP.Chemscore.CHOScore>
0.7946

> <Gold.PLP.Chemscore.Metal>
0.0000

> <Gold.Chemscore.Hbonds>
donor molecule, donor type, donor heavy atom, donor atom, acceptor molecule, acceptor atom, score
      L1  H     7    28       P1  8028  0.93
      L1  H    16    43       P1 10175  2.00
      P1  H  8011  8017       L1     4  0.04
      L1  C    15    34       P1  8028  0.69
      L1  C    15    34       P1  8029  0.14

> <Gold.PLP.Chemscore.Internal.Correction>
0.1879

> <Gold.Rescore>
     Score         DG    S(hbond)    S(metal)    S(lipo)     H(rot)  DE(clash)    DE(int)     intcor
     16.11     -18.53       1.98        0.00      88.01       1.51       0.46       1.96       ----

> <Gold.Chemscore.Fitness>
16.1072

> <Gold.Chemscore.DG>
-18.5308

> <Gold.Chemscore.ZeroCoef>
-5.4800

> <Gold.Chemscore.Hbond>
1.9839

> <Gold.Chemscore.Metal>
0.0000

> <Gold.Chemscore.Lipo>
88.0089

> <Gold.Chemscore.Internal_Hbond>
0.0000

> <Gold.Chemscore.DEClash>
0.4632

> <Gold.Chemscore.DEInternal>
1.9604

> <Gold.Chemscore.Rot>
1.5128

> <Gold.Chemscore.Internal.Correction>
   9.000000E+99

> <Gold.Chemscore.Hbonds>
donor molecule, donor type, donor heavy atom, donor atom, acceptor molecule, acceptor atom, score
      L1  H     7    28       P1  8028  0.91
      L1  H    16    43       P1 10175  0.99

> <Gold.Chemscore.Hbond.Weighted>
-6.6264

> <Gold.Chemscore.Metal.Weighted>
-0.0000

> <Gold.Chemscore.Lipo.Weighted>
-10.2970

> <Gold.Chemscore.Internal_Hbond.Weighted>
0.0000

> <Gold.Chemscore.DEClash.Weighted>
0.4632

> <Gold.Chemscore.DEInternal.Weighted>
1.9604

> <Gold.Chemscore.Rot.Weighted>
3.8726

> <Gold.Chemscore.Internal.Correction.Weighted>
   9.000000E+99

> <Gold.Protein.RotatedTorsions>
[ 6907 6896 6895 6894 ] final   23.41 input  -60.11 | X-H torsion
[ 7974 7965 7964 7962 ] final    9.87 input  175.53 | X-H torsion
[ 8008 7997 7996 7995 ] final   67.10 input   59.86 | X-H torsion
[ 10167 10162 10161 10158 ] final -155.27 input  -65.29 | X-H torsion
[ 10718 10713 10712 10709 ] final   86.41 input   66.30 | X-H torsion
[ 10763 10752 10751 10750 ] final  -61.62 input  -60.55 | X-H torsion
[ 11005 11000 10999 10996 ] final  -90.29 input  -57.11 | X-H torsion

> <Gold.Protein.ActiveResidues>
 VAL166  LYS551  ARG553  GLY616  TRP617  ASP618  TYR619  PRO620  LYS621  CYS622 
 ASP623  PHE694  ASN695  SER759  ASP760  ASP761  ALA762  ILE779  LEU786  VAL792 
 PHE793  MET794  SER795  GLU796  ALA797  LYS798  CYS799  TRP800  GLU811  SER814 

> <Gold.Protein.RotatedAtoms>
  151.9419  135.0209  160.0536 H   0  0  0  0  0  0  0  0  0  0  0  0  # atno 6907 bound_to 6896
  152.2029  133.4849  159.5076 H   0  0  0  0  0  0  0  0  0  0  0  0  # atno 6908 bound_to 6896
  150.6958  134.1484  159.4174 H   0  0  0  0  0  0  0  0  0  0  0  0  # atno 6909 bound_to 6896
  146.2397  139.9719  142.8446 H   0  0  0  0  0  0  0  0  0  0  0  0  # atno 7974 bound_to 7965
  155.6877  140.3496  155.4881 H   0  0  0  0  0  0  0  0  0  0  0  0  # atno 8008 bound_to 7997
  155.9552  140.1127  157.0965 H   0  0  0  0  0  0  0  0  0  0  0  0  # atno 8009 bound_to 7997
  154.4130  140.1186  156.5091 H   0  0  0  0  0  0  0  0  0  0  0  0  # atno 8010 bound_to 7997
  139.6945  143.9365  152.2401 H   0  0  0  0  0  0  0  0  0  0  0  0  # atno 10167 bound_to 10162
  157.6928  131.0214  150.2968 H   0  0  0  0  0  0  0  0  0  0  0  0  # atno 10718 bound_to 10713
  154.2874  135.6260  153.5371 H   0  0  0  0  0  0  0  0  0  0  0  0  # atno 10763 bound_to 10752
  152.9857  135.5647  154.5428 H   0  0  0  0  0  0  0  0  0  0  0  0  # atno 10764 bound_to 10752
  154.5032  135.2873  155.1380 H   0  0  0  0  0  0  0  0  0  0  0  0  # atno 10765 bound_to 10752
  141.1568  133.7682  156.9716 H   0  0  0  0  0  0  0  0  0  0  0  0  # atno 11005 bound_to 11000
  145.1673  140.9703  143.4342 LP  0  0  0  0  0  0  0  0  0  0  0  0  # atno 17320 bound_to 7965
  145.0061  139.3553  143.6143 LP  0  0  0  0  0  0  0  0  0  0  0  0  # atno 17321 bound_to 7965
  139.9190  144.6811  150.8481 LP  0  0  0  0  0  0  0  0  0  0  0  0  # atno 17342 bound_to 10162
  140.7692  143.3388  151.2251 LP  0  0  0  0  0  0  0  0  0  0  0  0  # atno 17343 bound_to 10162
  156.3490  130.3828  149.7345 LP  0  0  0  0  0  0  0  0  0  0  0  0  # atno 17370 bound_to 10713
  156.4828  130.8049  151.3062 LP  0  0  0  0  0  0  0  0  0  0  0  0  # atno 17371 bound_to 10713
  140.1125  134.9467  157.2087 LP  0  0  0  0  0  0  0  0  0  0  0  0  # atno 17394 bound_to 11000
  140.3175  134.2954  155.7253 LP  0  0  0  0  0  0  0  0  0  0  0  0  # atno 17395 bound_to 11000

$$$$
