AV-unprocessed.smi:148|AV-procd|sdf|1217|dock7
  -GOLD-   2262018403D 1   1.00000     0.00000
 Structure written by MMmdl.
 63 67  0  0  0  0  0  0  0  0  1 V2000
  149.8623  142.5814  156.1732 O   0  0  0  0  0  0  0  0  0  0  0  0
  150.9096  142.5586  157.1204 C   0  0  0  0  0  0  0  0  0  0  0  0
  150.7853  141.3614  158.0935 C   0  0  1  0  0  0  0  0  0  0  0  0
  150.8948  140.0177  157.3237 C   0  0  0  0  0  0  0  0  0  0  0  0
  150.3476  138.8710  158.0374 N   0  0  0  0  0  0  0  0  0  0  0  0
  151.0643  137.8550  158.6320 C   0  0  0  0  0  0  0  0  0  0  0  0
  150.3504  136.9341  159.2193 N   0  0  0  0  0  0  0  0  0  0  0  0
  149.0407  137.3342  158.9949 C   0  0  0  0  0  0  0  0  0  0  0  0
  147.7747  136.7965  159.3440 C   0  0  0  0  0  0  0  0  0  0  0  0
  147.6577  135.6602  160.0704 N   0  0  0  0  0  0  0  0  0  0  0  0
  147.5387  136.0027  161.4878 C   0  0  0  0  0  0  0  0  0  0  0  0
  147.6307  134.7578  162.3771 C   0  0  0  0  0  0  0  0  0  0  0  0
  146.5737  133.7337  161.9562 C   0  0  0  0  0  0  0  0  0  0  0  0
  146.7492  133.3827  160.4733 C   0  0  0  0  0  0  0  0  0  0  0  0
  146.7178  134.6411  159.5648 C   0  0  2  0  0  0  0  0  0  0  0  0
  146.9521  134.3107  158.0562 C   0  0  1  0  0  0  0  0  0  0  0  0
  146.4062  135.3387  157.0463 C   0  0  0  0  0  0  0  0  0  0  0  0
  147.2963  135.2337  155.7968 C   0  0  0  0  0  0  0  0  0  0  0  0
  148.3322  134.1446  156.0954 C   0  0  0  0  0  0  0  0  0  0  0  0
  148.4094  134.0971  157.6210 C   0  0  2  0  0  0  0  0  0  0  0  0
  148.9281  132.8633  158.0727 O   0  0  0  0  0  0  0  0  0  0  0  0
  146.6638  137.4734  158.9492 N   0  0  0  0  0  0  0  0  0  0  0  0
  146.7878  138.5985  158.2389 C   0  0  0  0  0  0  0  0  0  0  0  0
  147.9025  139.2119  157.8349 N   0  0  0  0  0  0  0  0  0  0  0  0
  149.0178  138.5426  158.2446 C   0  0  0  0  0  0  0  0  0  0  0  0
  151.7930  141.4389  159.2741 C   0  0  2  0  0  0  0  0  0  0  0  0
  151.9760  142.8328  159.8534 C   0  0  0  0  0  0  0  0  0  0  0  0
  153.2718  142.6925  160.6450 C   0  0  0  0  0  0  0  0  0  0  0  0
  154.0365  141.7060  159.9610 O   0  0  0  0  0  0  0  0  0  0  0  0
  153.2508  141.1143  158.9323 C   0  0  0  0  0  0  0  0  0  0  0  0
  149.6780  143.4808  155.9489 H   0  0  0  0  0  0  0  0  0  0  0  0
  151.8385  142.4907  156.5539 H   0  0  0  0  0  0  0  0  0  0  0  0
  150.9331  143.5049  157.6619 H   0  0  0  0  0  0  0  0  0  0  0  0
  149.7784  141.3883  158.5134 H   0  0  0  0  0  0  0  0  0  0  0  0
  150.4096  140.0859  156.3502 H   0  0  0  0  0  0  0  0  0  0  0  0
  151.9433  139.8059  157.1110 H   0  0  0  0  0  0  0  0  0  0  0  0
  152.1439  137.8203  158.6234 H   0  0  0  0  0  0  0  0  0  0  0  0
  148.3242  136.7060  161.7701 H   0  0  0  0  0  0  0  0  0  0  0  0
  146.5859  136.5065  161.6581 H   0  0  0  0  0  0  0  0  0  0  0  0
  148.6262  134.3189  162.2972 H   0  0  0  0  0  0  0  0  0  0  0  0
  147.4924  135.0342  163.4224 H   0  0  0  0  0  0  0  0  0  0  0  0
  146.6551  132.8349  162.5680 H   0  0  0  0  0  0  0  0  0  0  0  0
  145.5755  134.1395  162.1258 H   0  0  0  0  0  0  0  0  0  0  0  0
  147.6893  132.8457  160.3538 H   0  0  0  0  0  0  0  0  0  0  0  0
  145.9584  132.6875  160.1955 H   0  0  0  0  0  0  0  0  0  0  0  0
  145.7164  135.0654  159.6526 H   0  0  0  0  0  0  0  0  0  0  0  0
  146.4466  133.3707  157.8294 H   0  0  0  0  0  0  0  0  0  0  0  0
  145.3615  135.1351  156.8091 H   0  0  0  0  0  0  0  0  0  0  0  0
  146.4486  136.3548  157.4353 H   0  0  0  0  0  0  0  0  0  0  0  0
  146.7182  134.9995  154.9023 H   0  0  0  0  0  0  0  0  0  0  0  0
  147.7966  136.1869  155.6212 H   0  0  0  0  0  0  0  0  0  0  0  0
  147.9709  133.1899  155.7096 H   0  0  0  0  0  0  0  0  0  0  0  0
  149.2984  134.3442  155.6310 H   0  0  0  0  0  0  0  0  0  0  0  0
  149.0528  134.9081  157.9594 H   0  0  0  0  0  0  0  0  0  0  0  0
  148.6268  132.1804  157.4931 H   0  0  0  0  0  0  0  0  0  0  0  0
  145.8621  139.0766  157.9544 H   0  0  0  0  0  0  0  0  0  0  0  0
  151.4784  140.7633  160.0707 H   0  0  0  0  0  0  0  0  0  0  0  0
  152.1081  143.5615  159.0522 H   0  0  0  0  0  0  0  0  0  0  0  0
  151.1474  143.1671  160.4755 H   0  0  0  0  0  0  0  0  0  0  0  0
  153.8144  143.6347  160.7242 H   0  0  0  0  0  0  0  0  0  0  0  0
  153.0652  142.3334  161.6539 H   0  0  0  0  0  0  0  0  0  0  0  0
  153.4393  140.0424  158.8681 H   0  0  0  0  0  0  0  0  0  0  0  0
  153.5362  141.5686  157.9824 H   0  0  0  0  0  0  0  0  0  0  0  0
  1  2  1  0  0  0  0
  1 31  1  0  0  0  0
  2  3  1  0  0  0  0
  2 32  1  0  0  0  0
  2 33  1  0  0  0  0
  3  4  1  0  0  0  0
  3 26  1  0  0  0  0
  3 34  1  0  0  0  0
  4  5  1  0  0  0  0
  4 35  1  0  0  0  0
  4 36  1  0  0  0  0
  5 25  1  0  0  0  0
  5  6  1  0  0  0  0
  6  7  2  0  0  0  0
  6 37  1  0  0  0  0
  7  8  1  0  0  0  0
  8 25  2  0  0  0  0
  8  9  1  0  0  0  0
  9 10  1  0  0  0  0
  9 22  2  0  0  0  0
 10 15  1  0  0  0  0
 10 11  1  0  0  0  0
 11 12  1  0  0  0  0
 11 38  1  0  0  0  0
 11 39  1  0  0  0  0
 12 13  1  0  0  0  0
 12 40  1  0  0  0  0
 12 41  1  0  0  0  0
 13 14  1  0  0  0  0
 13 42  1  0  0  0  0
 13 43  1  0  0  0  0
 14 15  1  0  0  0  0
 14 44  1  0  0  0  0
 14 45  1  0  0  0  0
 15 16  1  0  0  0  0
 15 46  1  0  0  0  0
 16 20  1  0  0  0  0
 16 17  1  0  0  0  0
 16 47  1  0  0  0  0
 17 18  1  0  0  0  0
 17 48  1  0  0  0  0
 17 49  1  0  0  0  0
 18 19  1  0  0  0  0
 18 50  1  0  0  0  0
 18 51  1  0  0  0  0
 19 20  1  0  0  0  0
 19 52  1  0  0  0  0
 19 53  1  0  0  0  0
 20 21  1  0  0  0  0
 20 54  1  0  0  0  0
 21 55  1  0  0  0  0
 22 23  1  0  0  0  0
 23 24  2  0  0  0  0
 23 56  1  0  0  0  0
 24 25  1  0  0  0  0
 26 30  1  0  0  0  0
 26 27  1  0  0  0  0
 26 57  1  0  0  0  0
 27 28  1  0  0  0  0
 27 58  1  0  0  0  0
 27 59  1  0  0  0  0
 28 29  1  0  0  0  0
 28 60  1  0  0  0  0
 28 61  1  0  0  0  0
 29 30  1  0  0  0  0
 30 62  1  0  0  0  0
 30 63  1  0  0  0  0
M  END
> <s_m_source_file>
AV-unprocessed.smi

> <i_m_source_file_index>
148

> <i_lp_mmshare_version>
43012

> <i_f3d_flags>
0

> <s_epik_input>
W0NIMl0xT1tDSDJdW0NIMl1bQ0BIXTFbQ0BIXShbQ0gyXVtPSF0pW0NIMl1uKFtjSF1uMiljKGMyMyluW2NIXW5jM040W0NIMl1bQ0gyXVtDSDJdW0NIMl1bQ0BIXTRbQ0BASF01W0NIMl1bQ0gyXVtDSDJdW0NASF01W09IXQ==

> <s_epik_cmdline>
J2VwaWtfcHl0aG9uJywgJy1waCcsICc3LjAnLCAnLXRuJywgJzgnLCAnLW1hJywgJzIwMCcsICctbWV0YWxfYmluZGluZycsICctaW1hZScsICc8aW5maWxlLm1hZT4nLCAnLW9tYWUnLCAnPG91dGZpbGUubWFlPic=

> <r_lp_tautomer_probability>
1

> <r_epik_Ionization_Penalty>
0.00556303

> <r_epik_Ionization_Penalty_Charging>
0

> <r_epik_Ionization_Penalty_Neutral>
0.00556303

> <r_epik_State_Penalty>
0.00401767

> <r_epik_Charging_Adjusted_Penalty>
0.00401767

> <i_epik_Tot_Q>
0

> <i_epik_Tot_abs_Q>
0

> <r_epik_Metal_State_Penalty>
-0

> <b_epik_Metal_Only>
0

> <s_lp_Force_Field>
OPLS_2005

> <r_lp_Energy>
67.8341

> <b_lp_Chiralities_Consistent>
1

> <s_lp_Variant>
AV-unprocessed.smi:148-16

> <Gold.Version>
5.8.1

> <Gold.Id.Protein>
6NUR|6NUR_protein|mol2

> <Gold.PLP.Fitness>
49.2272

> <Gold.PLP.PLP>
-42.4580

> <Gold.PLP.part.hbond>
-3.0000

> <Gold.PLP.part.metal>
0.0000

> <Gold.PLP.part.buried>
-7.9322

> <Gold.PLP.part.nonpolar>
-31.2818

> <Gold.PLP.part.repulsive>
0.0000

> <Gold.PLP.ligand.clash>
0.0000

> <Gold.PLP.ligand.torsion>
1.3555

> <Gold.PLP.Chemscore.Hbond>
3.0000

> <Gold.PLP.Chemscore.CHOScore>
0.0000

> <Gold.PLP.Chemscore.Metal>
0.0000

> <Gold.Chemscore.Hbonds>
donor molecule, donor type, donor heavy atom, donor atom, acceptor molecule, acceptor atom, score
      L1  H     1    31       P1  8028  0.91
      P1  H  6896  6908       L1     7  0.81

> <Gold.PLP.Chemscore.Internal.Correction>
0.4803

> <Gold.Rescore>
     Score         DG    S(hbond)    S(metal)    S(lipo)     H(rot)  DE(clash)    DE(int)     intcor
     17.16     -18.58       2.91        0.00     101.47       3.32       0.00       1.42       ----

> <Gold.Chemscore.Fitness>
17.1638

> <Gold.Chemscore.DG>
-18.5789

> <Gold.Chemscore.ZeroCoef>
-5.4800

> <Gold.Chemscore.Hbond>
2.9121

> <Gold.Chemscore.Metal>
0.0000

> <Gold.Chemscore.Lipo>
101.4735

> <Gold.Chemscore.Internal_Hbond>
0.0000

> <Gold.Chemscore.DEClash>
0.0000

> <Gold.Chemscore.DEInternal>
1.4151

> <Gold.Chemscore.Rot>
3.3203

> <Gold.Chemscore.Internal.Correction>
   9.000000E+99

> <Gold.Chemscore.Hbonds>
donor molecule, donor type, donor heavy atom, donor atom, acceptor molecule, acceptor atom, score
      L1  H     1    31       P1  8028  0.88
      P1  H  6896  6907       L1    21  0.01
      P1  H  6896  6908       L1     7  0.80

> <Gold.Chemscore.Hbond.Weighted>
-9.7265

> <Gold.Chemscore.Metal.Weighted>
-0.0000

> <Gold.Chemscore.Lipo.Weighted>
-11.8724

> <Gold.Chemscore.Internal_Hbond.Weighted>
0.0000

> <Gold.Chemscore.DEClash.Weighted>
0.0000

> <Gold.Chemscore.DEInternal.Weighted>
1.4151

> <Gold.Chemscore.Rot.Weighted>
8.5000

> <Gold.Chemscore.Internal.Correction.Weighted>
   9.000000E+99

> <Gold.Protein.RotatedTorsions>
[ 6907 6896 6895 6894 ] final -144.66 input  -60.11 | X-H torsion
[ 7974 7965 7964 7962 ] final -143.10 input  175.53 | X-H torsion
[ 8008 7997 7996 7995 ] final  -44.94 input   59.86 | X-H torsion
[ 10167 10162 10161 10158 ] final -118.32 input  -65.29 | X-H torsion
[ 10718 10713 10712 10709 ] final   37.24 input   66.30 | X-H torsion
[ 10763 10752 10751 10750 ] final   92.92 input  -60.55 | X-H torsion
[ 11005 11000 10999 10996 ] final  135.64 input  -57.11 | X-H torsion

> <Gold.Protein.ActiveResidues>
 VAL166  LYS551  ARG553  GLY616  TRP617  ASP618  TYR619  PRO620  LYS621  CYS622 
 ASP623  PHE694  ASN695  SER759  ASP760  ASP761  ALA762  ILE779  LEU786  VAL792 
 PHE793  MET794  SER795  GLU796  ALA797  LYS798  CYS799  TRP800  GLU811  SER814 

> <Gold.Protein.RotatedAtoms>
  151.1171  133.5131  159.2603 H   0  0  0  0  0  0  0  0  0  0  0  0  # atno 6907 bound_to 6896
  151.1902  135.0399  159.8839 H   0  0  0  0  0  0  0  0  0  0  0  0  # atno 6908 bound_to 6896
  152.5453  134.1012  159.8372 H   0  0  0  0  0  0  0  0  0  0  0  0  # atno 6909 bound_to 6896
  144.8394  140.5877  143.5462 H   0  0  0  0  0  0  0  0  0  0  0  0  # atno 7974 bound_to 7965
  154.3999  140.1409  156.3765 H   0  0  0  0  0  0  0  0  0  0  0  0  # atno 8008 bound_to 7997
  155.8043  140.3475  155.5400 H   0  0  0  0  0  0  0  0  0  0  0  0  # atno 8009 bound_to 7997
  155.8451  140.0933  157.1700 H   0  0  0  0  0  0  0  0  0  0  0  0  # atno 8010 bound_to 7997
  140.0587  143.4989  152.2043 H   0  0  0  0  0  0  0  0  0  0  0  0  # atno 10167 bound_to 10162
  157.3445  130.7565  149.6935 H   0  0  0  0  0  0  0  0  0  0  0  0  # atno 10718 bound_to 10713
  153.2246  135.4344  155.0527 H   0  0  0  0  0  0  0  0  0  0  0  0  # atno 10763 bound_to 10752
  154.8267  135.3364  154.6877 H   0  0  0  0  0  0  0  0  0  0  0  0  # atno 10764 bound_to 10752
  153.7307  135.7011  153.5046 H   0  0  0  0  0  0  0  0  0  0  0  0  # atno 10765 bound_to 10752
  139.9993  134.9485  157.0036 H   0  0  0  0  0  0  0  0  0  0  0  0  # atno 11005 bound_to 11000
  145.4725  139.1502  143.3806 LP  0  0  0  0  0  0  0  0  0  0  0  0  # atno 17320 bound_to 7965
  146.2689  140.4859  142.8822 LP  0  0  0  0  0  0  0  0  0  0  0  0  # atno 17321 bound_to 7965
  139.5907  144.7549  151.3408 LP  0  0  0  0  0  0  0  0  0  0  0  0  # atno 17342 bound_to 10162
  140.7182  143.7208  150.7697 LP  0  0  0  0  0  0  0  0  0  0  0  0  # atno 17343 bound_to 10162
  155.9712  130.4158  150.4199 LP  0  0  0  0  0  0  0  0  0  0  0  0  # atno 17370 bound_to 10713
  157.2252  131.0491  151.2523 LP  0  0  0  0  0  0  0  0  0  0  0  0  # atno 17371 bound_to 10713
  140.4758  134.1340  155.7209 LP  0  0  0  0  0  0  0  0  0  0  0  0  # atno 17394 bound_to 11000
  141.1629  133.8758  157.1797 LP  0  0  0  0  0  0  0  0  0  0  0  0  # atno 17395 bound_to 11000

$$$$
