AV-unprocessed.smi:1259|AV-procd|sdf|5291|dock3
  -GOLD-   22720 4413D 1   1.00000     0.00000
 Structure written by MMmdl.
 34 35  0  0  0  0  0  0  0  0  1 V2000
  153.7375  141.6135  160.6050 C   0  0  0  0  0  0  0  0  0  0  0  0
  152.7485  142.2824  159.6965 C   0  0  0  0  0  0  0  0  0  0  0  0
  151.8560  141.6711  158.7688 C   0  0  0  0  0  0  0  0  0  0  0  0
  151.2046  142.7445  158.2254 C   0  0  0  0  0  0  0  0  0  0  0  0
  150.2341  142.7635  157.2733 N   0  0  0  0  0  0  0  0  0  0  0  0
  149.4851  141.7450  156.8156 C   0  0  0  0  0  0  0  0  0  0  0  0
  149.5646  140.5753  157.1915 O   0  0  0  0  0  0  0  0  0  0  0  0
  148.6207  142.1647  155.8801 N   0  0  0  0  0  0  0  0  0  0  0  0
  147.6511  141.3235  155.1855 C   0  0  2  0  0  0  0  0  0  0  0  0
  148.1549  141.0691  153.7581 C   0  0  0  0  0  0  0  0  0  0  0  0
  146.2483  141.9077  155.1681 C   0  0  0  0  0  0  0  0  0  0  0  0
  145.9463  143.2114  154.4672 C   0  0  0  0  0  0  0  0  0  0  0  0
  145.9087  143.1377  155.9760 C   0  0  0  0  0  0  0  0  0  0  0  0
  151.6890  143.8976  158.8025 N   0  0  0  0  0  0  0  0  0  0  0  0
  151.3213  145.2785  158.5570 C   0  0  0  0  0  0  0  0  0  0  0  0
  152.6454  143.6066  159.7106 N   0  0  0  0  0  0  0  0  0  0  0  0
  153.6812  140.5283  160.5174 H   0  0  0  0  0  0  0  0  0  0  0  0
  153.5511  141.8715  161.6477 H   0  0  0  0  0  0  0  0  0  0  0  0
  154.7575  141.9130  160.3631 H   0  0  0  0  0  0  0  0  0  0  0  0
  151.7324  140.6203  158.5540 H   0  0  0  0  0  0  0  0  0  0  0  0
  150.0506  143.6681  156.8649 H   0  0  0  0  0  0  0  0  0  0  0  0
  148.6271  143.1437  155.6343 H   0  0  0  0  0  0  0  0  0  0  0  0
  147.6079  140.3560  155.6894 H   0  0  0  0  0  0  0  0  0  0  0  0
  147.4855  140.3976  153.2198 H   0  0  0  0  0  0  0  0  0  0  0  0
  149.1433  140.6082  153.7654 H   0  0  0  0  0  0  0  0  0  0  0  0
  148.2227  141.9969  153.1890 H   0  0  0  0  0  0  0  0  0  0  0  0
  145.4658  141.1522  155.1209 H   0  0  0  0  0  0  0  0  0  0  0  0
  146.7757  143.7506  154.0138 H   0  0  0  0  0  0  0  0  0  0  0  0
  144.9967  143.2896  153.9419 H   0  0  0  0  0  0  0  0  0  0  0  0
  144.9336  143.1686  156.4577 H   0  0  0  0  0  0  0  0  0  0  0  0
  146.7141  143.6261  156.5215 H   0  0  0  0  0  0  0  0  0  0  0  0
  151.7734  145.6153  157.6242 H   0  0  0  0  0  0  0  0  0  0  0  0
  151.6669  145.9165  159.3714 H   0  0  0  0  0  0  0  0  0  0  0  0
  150.2374  145.3657  158.4805 H   0  0  0  0  0  0  0  0  0  0  0  0
  1  2  1  0  0  0  0
  1 17  1  0  0  0  0
  1 18  1  0  0  0  0
  1 19  1  0  0  0  0
  2 16  2  0  0  0  0
  2  3  1  0  0  0  0
  3  4  2  0  0  0  0
  3 20  1  0  0  0  0
  4  5  1  0  0  0  0
  4 14  1  0  0  0  0
  5  6  1  0  0  0  0
  5 21  1  0  0  0  0
  6  7  2  0  0  0  0
  6  8  1  0  0  0  0
  8  9  1  0  0  0  0
  8 22  1  0  0  0  0
  9 10  1  0  0  0  0
  9 11  1  0  0  0  0
  9 23  1  0  0  0  0
 10 24  1  0  0  0  0
 10 25  1  0  0  0  0
 10 26  1  0  0  0  0
 11 13  1  0  0  0  0
 11 12  1  0  0  0  0
 11 27  1  0  0  0  0
 12 13  1  0  0  0  0
 12 28  1  0  0  0  0
 12 29  1  0  0  0  0
 13 30  1  0  0  0  0
 13 31  1  0  0  0  0
 14 15  1  0  0  0  0
 14 16  1  0  0  0  0
 15 32  1  0  0  0  0
 15 33  1  0  0  0  0
 15 34  1  0  0  0  0
M  END
> <s_m_source_file>
AV-unprocessed.smi

> <i_m_source_file_index>
1259

> <i_lp_mmshare_version>
43012

> <i_f3d_flags>
0

> <s_epik_input>
W0NIM11jMVtjSF1jKG4objEpW0NIM10pW05IXUMoPU8pW05IXVtDQEhdKFtDSDNdKVtDSF0yW0NIMl1bQ0gyXTI=

> <s_epik_cmdline>
J2VwaWtfcHl0aG9uJywgJy1waCcsICc3LjAnLCAnLXRuJywgJzgnLCAnLW1hJywgJzIwMCcsICctbWV0YWxfYmluZGluZycsICctaW1hZScsICc8aW5maWxlLm1hZT4nLCAnLW9tYWUnLCAnPG91dGZpbGUubWFlPic=

> <r_lp_tautomer_probability>
1

> <r_epik_Ionization_Penalty>
0.000100032

> <r_epik_Ionization_Penalty_Charging>
0

> <r_epik_Ionization_Penalty_Neutral>
0.000100032

> <r_epik_State_Penalty>
-0

> <r_epik_Charging_Adjusted_Penalty>
0

> <i_epik_Tot_Q>
0

> <i_epik_Tot_abs_Q>
0

> <r_epik_Metal_State_Penalty>
-0

> <b_epik_Metal_Only>
0

> <s_lp_Force_Field>
OPLS_2005

> <r_lp_Energy>
14.2457

> <b_lp_Chiralities_Consistent>
1

> <s_lp_Variant>
AV-unprocessed.smi:1259-1

> <Gold.Version>
5.8.1

> <Gold.Id.Protein>
6NUR|6NUR_protein|mol2

> <Gold.PLP.Fitness>
39.2484

> <Gold.PLP.PLP>
-34.1112

> <Gold.PLP.part.hbond>
-2.0000

> <Gold.PLP.part.metal>
0.0000

> <Gold.PLP.part.buried>
-4.3417

> <Gold.PLP.part.nonpolar>
-27.5278

> <Gold.PLP.part.repulsive>
0.1259

> <Gold.PLP.ligand.clash>
0.0000

> <Gold.PLP.ligand.torsion>
0.9038

> <Gold.PLP.Chemscore.Hbond>
1.9600

> <Gold.PLP.Chemscore.CHOScore>
0.0000

> <Gold.PLP.Chemscore.Metal>
0.0000

> <Gold.Chemscore.Hbonds>
donor molecule, donor type, donor heavy atom, donor atom, acceptor molecule, acceptor atom, score
      L1  H     5    21       P1  8028  0.94
      L1  H     8    22       P1  8028  1.00

> <Gold.PLP.Chemscore.Internal.Correction>
1.0647

> <Gold.Rescore>
     Score         DG    S(hbond)    S(metal)    S(lipo)     H(rot)  DE(clash)    DE(int)     intcor
     14.71     -16.72       1.92        0.00      67.37       1.20       0.07       1.94       ----

> <Gold.Chemscore.Fitness>
14.7118

> <Gold.Chemscore.DG>
-16.7187

> <Gold.Chemscore.ZeroCoef>
-5.4800

> <Gold.Chemscore.Hbond>
1.9239

> <Gold.Chemscore.Metal>
0.0000

> <Gold.Chemscore.Lipo>
67.3696

> <Gold.Chemscore.Internal_Hbond>
0.0000

> <Gold.Chemscore.DEClash>
0.0659

> <Gold.Chemscore.DEInternal>
1.9409

> <Gold.Chemscore.Rot>
1.1990

> <Gold.Chemscore.Internal.Correction>
   9.000000E+99

> <Gold.Chemscore.Hbonds>
donor molecule, donor type, donor heavy atom, donor atom, acceptor molecule, acceptor atom, score
      L1  H     5    21       P1  8028  0.89
      L1  H     8    22       P1  8028  0.98

> <Gold.Chemscore.Hbond.Weighted>
-6.4260

> <Gold.Chemscore.Metal.Weighted>
-0.0000

> <Gold.Chemscore.Lipo.Weighted>
-7.8822

> <Gold.Chemscore.Internal_Hbond.Weighted>
0.0000

> <Gold.Chemscore.DEClash.Weighted>
0.0659

> <Gold.Chemscore.DEInternal.Weighted>
1.9409

> <Gold.Chemscore.Rot.Weighted>
3.0695

> <Gold.Chemscore.Internal.Correction.Weighted>
   9.000000E+99

> <Gold.Protein.RotatedTorsions>
[ 6907 6896 6895 6894 ] final  -30.07 input  -60.11 | X-H torsion
[ 7974 7965 7964 7962 ] final -167.93 input  175.53 | X-H torsion
[ 8008 7997 7996 7995 ] final   13.20 input   59.86 | X-H torsion
[ 10167 10162 10161 10158 ] final  -41.55 input  -65.29 | X-H torsion
[ 10718 10713 10712 10709 ] final  -67.09 input   66.30 | X-H torsion
[ 10763 10752 10751 10750 ] final   35.51 input  -60.55 | X-H torsion
[ 11005 11000 10999 10996 ] final   89.52 input  -57.11 | X-H torsion

> <Gold.Protein.ActiveResidues>
 VAL166  LYS551  ARG553  GLY616  TRP617  ASP618  TYR619  PRO620  LYS621  CYS622 
 ASP623  PHE694  ASN695  SER759  ASP760  ASP761  ALA762  ILE779  LEU786  VAL792 
 PHE793  MET794  SER795  GLU796  ALA797  LYS798  CYS799  TRP800  GLU811  SER814 

> <Gold.Protein.RotatedAtoms>
  151.1106  135.0024  159.8491 H   0  0  0  0  0  0  0  0  0  0  0  0  # atno 6907 bound_to 6896
  152.5443  134.1840  159.8657 H   0  0  0  0  0  0  0  0  0  0  0  0  # atno 6908 bound_to 6896
  151.1890  133.4634  159.2628 H   0  0  0  0  0  0  0  0  0  0  0  0  # atno 6909 bound_to 6896
  144.7213  140.2446  143.6287 H   0  0  0  0  0  0  0  0  0  0  0  0  # atno 7974 bound_to 7965
  154.8311  140.2899  155.5721 H   0  0  0  0  0  0  0  0  0  0  0  0  # atno 8008 bound_to 7997
  156.3005  140.2532  156.3168 H   0  0  0  0  0  0  0  0  0  0  0  0  # atno 8009 bound_to 7997
  154.9230  140.0385  157.1997 H   0  0  0  0  0  0  0  0  0  0  0  0  # atno 8010 bound_to 7997
  140.6999  143.3088  151.3082 H   0  0  0  0  0  0  0  0  0  0  0  0  # atno 10167 bound_to 10162
  156.0576  130.4272  150.1804 H   0  0  0  0  0  0  0  0  0  0  0  0  # atno 10718 bound_to 10713
  153.0116  135.6331  154.1837 H   0  0  0  0  0  0  0  0  0  0  0  0  # atno 10763 bound_to 10752
  154.1579  135.2825  155.3118 H   0  0  0  0  0  0  0  0  0  0  0  0  # atno 10764 bound_to 10752
  154.6004  135.5589  153.7429 H   0  0  0  0  0  0  0  0  0  0  0  0  # atno 10765 bound_to 10752
  139.8874  134.8556  156.3153 H   0  0  0  0  0  0  0  0  0  0  0  0  # atno 11005 bound_to 11000
  145.8287  139.2076  143.1896 LP  0  0  0  0  0  0  0  0  0  0  0  0  # atno 17320 bound_to 7965
  146.0450  140.8127  142.9810 LP  0  0  0  0  0  0  0  0  0  0  0  0  # atno 17321 bound_to 7965
  139.6504  144.0373  152.2622 LP  0  0  0  0  0  0  0  0  0  0  0  0  # atno 17342 bound_to 10162
  139.9908  144.6363  150.7816 LP  0  0  0  0  0  0  0  0  0  0  0  0  # atno 17343 bound_to 10162
  156.9878  130.9884  151.3422 LP  0  0  0  0  0  0  0  0  0  0  0  0  # atno 17370 bound_to 10713
  157.5559  130.8213  149.8204 LP  0  0  0  0  0  0  0  0  0  0  0  0  # atno 17371 bound_to 10713
  140.9823  133.7260  156.0690 LP  0  0  0  0  0  0  0  0  0  0  0  0  # atno 17394 bound_to 11000
  140.7733  134.3807  157.5503 LP  0  0  0  0  0  0  0  0  0  0  0  0  # atno 17395 bound_to 11000

$$$$
