AV-unprocessed.smi:107|AV-procd|sdf|1025|dock2
  -GOLD-   2262018 23D 1   1.00000     0.00000
 Structure written by MMmdl.
 30 31  0  0  0  0  0  0  0  0  2 V2000
  149.9505  136.4099  158.7627 C   0  0  0  0  0  0  0  0  0  0  0  0
  150.8710  137.0793  157.7568 C   0  0  0  0  0  0  0  0  0  0  0  0
  150.9103  138.4208  157.5961 C   0  0  0  0  0  0  0  0  0  0  0  0
  151.7519  139.0338  156.6800 N   0  0  0  0  0  0  0  0  0  0  0  0
  151.7389  140.5352  156.4349 C   0  0  2  0  0  0  0  0  0  0  0  0
  151.0319  141.3602  157.5168 C   0  0  0  0  0  0  0  0  0  0  0  0
  149.6375  141.5179  156.9387 C   0  0  1  0  0  0  0  0  0  0  0  0
  149.0231  142.6946  157.4230 O   0  0  0  0  0  0  0  0  0  0  0  0
  149.9104  141.5815  155.4325 C   0  0  2  0  0  0  0  0  0  0  0  0
  148.7486  141.0480  154.5802 C   0  0  0  0  0  0  0  0  0  0  0  0
  148.9991  141.2844  153.2111 O   0  0  0  0  0  0  0  0  0  0  0  0
  151.0636  140.7643  155.2338 O   0  0  0  0  0  0  0  0  0  0  0  0
  152.5555  138.2219  155.8332 C   0  0  0  0  0  0  0  0  0  0  0  0
  153.2465  138.7778  154.9790 O   0  0  0  0  0  0  0  0  0  0  0  0
  152.5333  136.8687  155.9980 N   0  5  0  0  0  0  0  0  0  0  0  0
  151.7433  136.2496  156.9198 C   0  0  0  0  0  0  0  0  0  0  0  0
  151.7403  135.0275  157.0647 O   0  0  0  0  0  0  0  0  0  0  0  0
  149.3629  137.1444  159.3140 H   0  0  0  0  0  0  0  0  0  0  0  0
  150.5293  135.8314  159.4835 H   0  0  0  0  0  0  0  0  0  0  0  0
  149.2588  135.7364  158.2560 H   0  0  0  0  0  0  0  0  0  0  0  0
  150.2554  139.0115  158.2138 H   0  0  0  0  0  0  0  0  0  0  0  0
  152.7889  140.8221  156.3588 H   0  0  0  0  0  0  0  0  0  0  0  0
  151.0830  140.9114  158.5087 H   0  0  0  0  0  0  0  0  0  0  0  0
  151.5302  142.3298  157.5652 H   0  0  0  0  0  0  0  0  0  0  0  0
  149.0151  140.6564  157.1787 H   0  0  0  0  0  0  0  0  0  0  0  0
  148.8334  143.2573  156.6878 H   0  0  0  0  0  0  0  0  0  0  0  0
  150.1667  142.6058  155.1548 H   0  0  0  0  0  0  0  0  0  0  0  0
  148.5830  139.9854  154.7603 H   0  0  0  0  0  0  0  0  0  0  0  0
  147.8251  141.5678  154.8358 H   0  0  0  0  0  0  0  0  0  0  0  0
  148.9711  140.4582  152.7537 H   0  0  0  0  0  0  0  0  0  0  0  0
  1  2  1  0  0  0  0
  1 18  1  0  0  0  0
  1 19  1  0  0  0  0
  1 20  1  0  0  0  0
  2 16  1  0  0  0  0
  2  3  2  0  0  0  0
  3  4  1  0  0  0  0
  3 21  1  0  0  0  0
  4  5  1  0  0  0  0
  4 13  1  0  0  0  0
  5 12  1  0  0  0  0
  5  6  1  0  0  0  0
  5 22  1  0  0  0  0
  6  7  1  0  0  0  0
  6 23  1  0  0  0  0
  6 24  1  0  0  0  0
  7  8  1  0  0  0  0
  7  9  1  0  0  0  0
  7 25  1  0  0  0  0
  8 26  1  0  0  0  0
  9 10  1  0  0  0  0
  9 12  1  0  0  0  0
  9 27  1  0  0  0  0
 10 11  1  0  0  0  0
 10 28  1  0  0  0  0
 10 29  1  0  0  0  0
 11 30  1  0  0  0  0
 13 14  2  0  0  0  0
 13 15  1  0  0  0  0
 15 16  1  0  0  0  0
 16 17  2  0  0  0  0
M  CHG  1  15  -1
M  END
> <s_m_source_file>
AV-unprocessed.smi

> <i_m_source_file_index>
107

> <i_lp_mmshare_version>
43012

> <i_f3d_flags>
0

> <s_epik_input>
Tz1jMVtuSF1jKD1PKW4oW2NIXWMxW0NIM10pW0NAQEhdMltDSDJdW0NAQEhdKFtPSF0pW0NASF0oTzIpW0NIMl1bT0hd

> <s_epik_cmdline>
J2VwaWtfcHl0aG9uJywgJy1waCcsICc3LjAnLCAnLXRuJywgJzgnLCAnLW1hJywgJzIwMCcsICctbWV0YWxfYmluZGluZycsICctaW1hZScsICc8aW5maWxlLm1hZT4nLCAnLW9tYWUnLCAnPG91dGZpbGUubWFlPic=

> <r_lp_tautomer_probability>
0.999537

> <r_epik_Ionization_Penalty>
3.66603

> <r_epik_Ionization_Penalty_Charging>
1.09773e-07

> <r_epik_Ionization_Penalty_Neutral>
3.66603

> <r_epik_State_Penalty>
3.66562

> <r_epik_Charging_Adjusted_Penalty>
3.66562

> <i_epik_Tot_Q>
-1

> <i_epik_Tot_abs_Q>
1

> <r_epik_Metal_State_Penalty>
0.234536

> <b_epik_Metal_Only>
1

> <s_epik_Chemistry_Notes>
This compound contains an acetal/aminal-like group ( X-CH(R)-Y where X, Y are N, S, or O) that may be acid/base labile, releasing an aldehyde.

> <s_lp_Force_Field>
OPLS_2005

> <r_lp_Energy>
34.2807

> <b_lp_Chiralities_Consistent>
1

> <s_lp_Variant>
AV-unprocessed.smi:107-13

> <Gold.Version>
5.8.1

> <Gold.Id.Protein>
6NUR|6NUR_protein|mol2

> <Gold.PLP.Fitness>
43.9893

> <Gold.PLP.PLP>
-25.2069

> <Gold.PLP.part.hbond>
-7.5523

> <Gold.PLP.part.metal>
0.0000

> <Gold.PLP.part.buried>
-2.4338

> <Gold.PLP.part.nonpolar>
-15.2341

> <Gold.PLP.part.repulsive>
0.0433

> <Gold.PLP.ligand.clash>
0.0000

> <Gold.PLP.ligand.torsion>
0.3428

> <Gold.PLP.Chemscore.Hbond>
6.4720

> <Gold.PLP.Chemscore.CHOScore>
0.0000

> <Gold.PLP.Chemscore.Metal>
0.0000

> <Gold.Chemscore.Hbonds>
donor molecule, donor type, donor heavy atom, donor atom, acceptor molecule, acceptor atom, score
      L1  H     8    26       P1  8028  1.00
      L1  H    11    30       P1  7957  0.58
      P1  H  7989  7998       L1    12  0.82
      P1  H  7997  8008       L1    14  0.86
      P1  H  8011  8017       L1    11  1.00
      P1  H 10752 10764       L1    15  1.79

> <Gold.PLP.Chemscore.Internal.Correction>
0.0520

> <Gold.Rescore>
     Score         DG    S(hbond)    S(metal)    S(lipo)     H(rot)  DE(clash)    DE(int)     intcor
     16.65     -17.28       4.38        0.00      34.74       2.69       0.00       0.63       ----

> <Gold.Chemscore.Fitness>
16.6510

> <Gold.Chemscore.DG>
-17.2849

> <Gold.Chemscore.ZeroCoef>
-5.4800

> <Gold.Chemscore.Hbond>
4.3771

> <Gold.Chemscore.Metal>
0.0000

> <Gold.Chemscore.Lipo>
34.7393

> <Gold.Chemscore.Internal_Hbond>
0.0000

> <Gold.Chemscore.DEClash>
0.0004

> <Gold.Chemscore.DEInternal>
0.6335

> <Gold.Chemscore.Rot>
2.6871

> <Gold.Chemscore.Internal.Correction>
   9.000000E+99

> <Gold.Chemscore.Hbonds>
donor molecule, donor type, donor heavy atom, donor atom, acceptor molecule, acceptor atom, score
      L1  H     8    26       P1  8028  0.85
      L1  H    11    30       P1  7957  0.58
      P1  H  7989  7998       L1    12  0.61
      P1  H  7997  8008       L1    14  0.36
      P1  H  8011  8017       L1    11  0.75
      P1  H 10752 10764       L1    15  0.35

> <Gold.Chemscore.Hbond.Weighted>
-14.6195

> <Gold.Chemscore.Metal.Weighted>
-0.0000

> <Gold.Chemscore.Lipo.Weighted>
-4.0645

> <Gold.Chemscore.Internal_Hbond.Weighted>
0.0000

> <Gold.Chemscore.DEClash.Weighted>
0.0004

> <Gold.Chemscore.DEInternal.Weighted>
0.6335

> <Gold.Chemscore.Rot.Weighted>
6.8791

> <Gold.Chemscore.Internal.Correction.Weighted>
   9.000000E+99

> <Gold.Protein.RotatedTorsions>
[ 6907 6896 6895 6894 ] final  -50.85 input  -60.11 | X-H torsion
[ 7974 7965 7964 7962 ] final   73.65 input  175.53 | X-H torsion
[ 8008 7997 7996 7995 ] final  -27.31 input   59.86 | X-H torsion
[ 10167 10162 10161 10158 ] final   85.53 input  -65.29 | X-H torsion
[ 10718 10713 10712 10709 ] final  154.50 input   66.30 | X-H torsion
[ 10763 10752 10751 10750 ] final  -29.92 input  -60.55 | X-H torsion
[ 11005 11000 10999 10996 ] final  136.35 input  -57.11 | X-H torsion

> <Gold.Protein.ActiveResidues>
 VAL166  LYS551  ARG553  GLY616  TRP617  ASP618  TYR619  PRO620  LYS621  CYS622 
 ASP623  PHE694  ASN695  SER759  ASP760  ASP761  ALA762  ILE779  LEU786  VAL792 
 PHE793  MET794  SER795  GLU796  ALA797  LYS798  CYS799  TRP800  GLU811  SER814 

> <Gold.Protein.RotatedAtoms>
  150.8667  134.8032  159.7123 H   0  0  0  0  0  0  0  0  0  0  0  0  # atno 6907 bound_to 6896
  152.4686  134.5012  159.9735 H   0  0  0  0  0  0  0  0  0  0  0  0  # atno 6908 bound_to 6896
  151.5107  133.3447  159.2920 H   0  0  0  0  0  0  0  0  0  0  0  0  # atno 6909 bound_to 6896
  145.7382  139.2710  143.1501 H   0  0  0  0  0  0  0  0  0  0  0  0  # atno 7974 bound_to 7965
  154.4383  140.1876  156.0912 H   0  0  0  0  0  0  0  0  0  0  0  0  # atno 8008 bound_to 7997
  156.0364  140.3325  155.7170 H   0  0  0  0  0  0  0  0  0  0  0  0  # atno 8009 bound_to 7997
  155.5764  140.0617  157.2785 H   0  0  0  0  0  0  0  0  0  0  0  0  # atno 8010 bound_to 7997
  139.8968  144.6353  150.8679 H   0  0  0  0  0  0  0  0  0  0  0  0  # atno 10167 bound_to 10162
  157.2307  131.0738  151.1854 H   0  0  0  0  0  0  0  0  0  0  0  0  # atno 10718 bound_to 10713
  153.7725  135.6911  153.4904 H   0  0  0  0  0  0  0  0  0  0  0  0  # atno 10763 bound_to 10752
  153.1865  135.4487  155.0094 H   0  0  0  0  0  0  0  0  0  0  0  0  # atno 10764 bound_to 10752
  154.8112  135.3378  154.7233 H   0  0  0  0  0  0  0  0  0  0  0  0  # atno 10765 bound_to 10752
  140.0040  134.9467  157.0135 H   0  0  0  0  0  0  0  0  0  0  0  0  # atno 11005 bound_to 11000
  146.0473  140.8105  142.9799 LP  0  0  0  0  0  0  0  0  0  0  0  0  # atno 17320 bound_to 7965
  144.6877  140.2999  143.7265 LP  0  0  0  0  0  0  0  0  0  0  0  0  # atno 17321 bound_to 7965
  140.7715  143.3467  151.2097 LP  0  0  0  0  0  0  0  0  0  0  0  0  # atno 17342 bound_to 10162
  139.7060  143.9454  152.2927 LP  0  0  0  0  0  0  0  0  0  0  0  0  # atno 17343 bound_to 10162
  157.3480  130.7067  149.6423 LP  0  0  0  0  0  0  0  0  0  0  0  0  # atno 17370 bound_to 10713
  155.9675  130.4260  150.4681 LP  0  0  0  0  0  0  0  0  0  0  0  0  # atno 17371 bound_to 10713
  140.4675  134.1421  155.7199 LP  0  0  0  0  0  0  0  0  0  0  0  0  # atno 17394 bound_to 11000
  141.1663  133.8696  157.1703 LP  0  0  0  0  0  0  0  0  0  0  0  0  # atno 17395 bound_to 11000

$$$$
