AV-unprocessed.smi:2405|AV-procd|sdf|9514|dock8
  -GOLD-   2272013143D 1   1.00000     0.00000
 Structure written by MMmdl.
 36 37  0  0  0  0  0  0  0  0  2 V2000
  149.9697  129.6400  154.6282 C   0  0  0  0  0  0  0  0  0  0  0  0
  150.5721  130.7292  155.5220 C   0  0  0  0  0  0  0  0  0  0  0  0
  149.8639  132.0357  155.3896 C   0  0  0  0  0  0  0  0  0  0  0  0
  149.4825  132.7751  156.4342 N   0  0  0  0  0  0  0  0  0  0  0  0
  148.8601  133.9682  156.0529 C   0  0  0  0  0  0  0  0  0  0  0  0
  148.3495  134.9153  157.0995 C   0  0  0  0  0  0  0  0  0  0  0  0
  148.0906  134.1658  158.4069 C   0  0  0  0  0  0  0  0  0  0  0  0
  148.9370  133.3894  158.8505 O   0  0  0  0  0  0  0  0  0  0  0  0
  146.9166  134.4050  159.0099 N   0  0  0  0  0  0  0  0  0  0  0  0
  146.4678  133.7961  160.2577 C   0  0  2  0  0  0  0  0  0  0  0  0
  145.1826  134.4651  160.7879 C   0  0  0  0  0  0  0  0  0  0  0  0
  145.4756  134.8620  162.2393 C   0  0  0  0  0  0  0  0  0  0  0  0
  146.9947  135.0775  162.3005 C   0  0  2  0  0  0  0  0  0  0  0  0
  147.3702  136.5101  161.8632 C   0  0  0  0  0  0  0  0  0  0  0  0
  148.5784  136.7195  161.6177 O   0  0  0  0  0  0  0  0  0  0  0  0
  146.4659  137.3697  161.7650 O   0  5  0  0  0  0  0  0  0  0  0  0
  147.5290  133.9813  161.3591 C   0  0  0  0  0  0  0  0  0  0  0  0
  148.7978  134.1328  154.6908 C   0  0  0  0  0  0  0  0  0  0  0  0
  149.5092  132.7896  153.8398 S   0  0  0  0  0  0  0  0  0  0  0  0
  150.5068  128.6988  154.7471 H   0  0  0  0  0  0  0  0  0  0  0  0
  150.0208  129.9222  153.5764 H   0  0  0  0  0  0  0  0  0  0  0  0
  148.9235  129.4611  154.8774 H   0  0  0  0  0  0  0  0  0  0  0  0
  150.5346  130.4162  156.5657 H   0  0  0  0  0  0  0  0  0  0  0  0
  151.6250  130.8723  155.2764 H   0  0  0  0  0  0  0  0  0  0  0  0
  149.0619  135.7215  157.2809 H   0  0  0  0  0  0  0  0  0  0  0  0
  147.4259  135.3906  156.7675 H   0  0  0  0  0  0  0  0  0  0  0  0
  146.2766  135.0509  158.5681 H   0  0  0  0  0  0  0  0  0  0  0  0
  146.3047  132.7282  160.1011 H   0  0  0  0  0  0  0  0  0  0  0  0
  144.9472  135.3620  160.2124 H   0  0  0  0  0  0  0  0  0  0  0  0
  144.3187  133.8038  160.7170 H   0  0  0  0  0  0  0  0  0  0  0  0
  144.8927  135.7300  162.5513 H   0  0  0  0  0  0  0  0  0  0  0  0
  145.2036  134.0415  162.9044 H   0  0  0  0  0  0  0  0  0  0  0  0
  147.3693  134.9332  163.3144 H   0  0  0  0  0  0  0  0  0  0  0  0
  147.6132  133.0533  161.9259 H   0  0  0  0  0  0  0  0  0  0  0  0
  148.5278  134.1802  160.9666 H   0  0  0  0  0  0  0  0  0  0  0  0
  148.3750  134.9598  154.1398 H   0  0  0  0  0  0  0  0  0  0  0  0
  1  2  1  0  0  0  0
  1 20  1  0  0  0  0
  1 21  1  0  0  0  0
  1 22  1  0  0  0  0
  2  3  1  0  0  0  0
  2 23  1  0  0  0  0
  2 24  1  0  0  0  0
  3 19  1  0  0  0  0
  3  4  2  0  0  0  0
  4  5  1  0  0  0  0
  5  6  1  0  0  0  0
  5 18  2  0  0  0  0
  6  7  1  0  0  0  0
  6 25  1  0  0  0  0
  6 26  1  0  0  0  0
  7  8  2  0  0  0  0
  7  9  1  0  0  0  0
  9 10  1  0  0  0  0
  9 27  1  0  0  0  0
 10 17  1  0  0  0  0
 10 11  1  0  0  0  0
 10 28  1  0  0  0  0
 11 12  1  0  0  0  0
 11 29  1  0  0  0  0
 11 30  1  0  0  0  0
 12 13  1  0  0  0  0
 12 31  1  0  0  0  0
 12 32  1  0  0  0  0
 13 14  1  0  0  0  0
 13 17  1  0  0  0  0
 13 33  1  0  0  0  0
 14 15  2  0  0  0  0
 14 16  1  0  0  0  0
 17 34  1  0  0  0  0
 17 35  1  0  0  0  0
 18 19  1  0  0  0  0
 18 36  1  0  0  0  0
M  CHG  1  16  -1
M  END
> <s_m_source_file>
AV-unprocessed.smi

> <i_m_source_file_index>
2405

> <i_lp_mmshare_version>
43012

> <i_f3d_flags>
0

> <s_epik_input>
W0NIM11bQ0gyXWMxbmMoW2NIXXMxKVtDSDJdQyg9TylbTkhdW0NAQEhdMltDSDJdW0NIMl1bQ0BIXShbQ0gyXTIpQyg9TylbT0hd

> <s_epik_cmdline>
J2VwaWtfcHl0aG9uJywgJy1waCcsICc3LjAnLCAnLXRuJywgJzgnLCAnLW1hJywgJzIwMCcsICctbWV0YWxfYmluZGluZycsICctaW1hZScsICc8aW5maWxlLm1hZT4nLCAnLW9tYWUnLCAnPG91dGZpbGUubWFlPic=

> <r_epik_Ionization_Penalty>
0.000544611

> <r_epik_Ionization_Penalty_Charging>
0.000481685

> <r_epik_Ionization_Penalty_Neutral>
6.29266e-05

> <r_epik_State_Penalty>
0.00029893

> <r_epik_Charging_Adjusted_Penalty>
0.000780614

> <i_epik_Tot_Q>
-1

> <i_epik_Tot_abs_Q>
1

> <r_epik_Metal_State_Penalty>
-0

> <b_epik_Metal_Only>
0

> <s_lp_Force_Field>
OPLS_2005

> <r_lp_Energy>
7.32439

> <b_lp_Chiralities_Consistent>
1

> <s_lp_Variant>
AV-unprocessed.smi:2405-3

> <Gold.Version>
5.8.1

> <Gold.Id.Protein>
6NUR|6NUR_protein|mol2

> <Gold.PLP.Fitness>
43.6950

> <Gold.PLP.PLP>
-28.1996

> <Gold.PLP.part.hbond>
-3.0000

> <Gold.PLP.part.metal>
0.0000

> <Gold.PLP.part.buried>
-3.4351

> <Gold.PLP.part.nonpolar>
-21.6675

> <Gold.PLP.part.repulsive>
0.0126

> <Gold.PLP.ligand.clash>
0.0000

> <Gold.PLP.ligand.torsion>
0.8907

> <Gold.PLP.Chemscore.Hbond>
4.8240

> <Gold.PLP.Chemscore.CHOScore>
0.9216

> <Gold.PLP.Chemscore.Metal>
0.0000

> <Gold.Chemscore.Hbonds>
donor molecule, donor type, donor heavy atom, donor atom, acceptor molecule, acceptor atom, score
      P1  H  6896  6908       L1     8  1.00
      P1  H  6931  6943       L1    15  2.00
      P1  H  6934  6947       L1    16  1.92
      L1  C    18    36       P1  7948  0.70

> <Gold.PLP.Chemscore.Internal.Correction>
0.0402

> <Gold.Rescore>
     Score         DG    S(hbond)    S(metal)    S(lipo)     H(rot)  DE(clash)    DE(int)     intcor
     12.34     -16.02       2.63        0.00      60.26       2.06       0.00       3.68       ----

> <Gold.Chemscore.Fitness>
12.3366

> <Gold.Chemscore.DG>
-16.0175

> <Gold.Chemscore.ZeroCoef>
-5.4800

> <Gold.Chemscore.Hbond>
2.6257

> <Gold.Chemscore.Metal>
0.0000

> <Gold.Chemscore.Lipo>
60.2581

> <Gold.Chemscore.Internal_Hbond>
0.0000

> <Gold.Chemscore.DEClash>
0.0000

> <Gold.Chemscore.DEInternal>
3.6809

> <Gold.Chemscore.Rot>
2.0635

> <Gold.Chemscore.Internal.Correction>
   9.000000E+99

> <Gold.Chemscore.Hbonds>
donor molecule, donor type, donor heavy atom, donor atom, acceptor molecule, acceptor atom, score
      P1  H  6896  6908       L1     8  0.98
      P1  H  6931  6943       L1    15  0.87
      P1  H  6934  6947       L1    16  0.71

> <Gold.Chemscore.Hbond.Weighted>
-8.7697

> <Gold.Chemscore.Metal.Weighted>
-0.0000

> <Gold.Chemscore.Lipo.Weighted>
-7.0502

> <Gold.Chemscore.Internal_Hbond.Weighted>
0.0000

> <Gold.Chemscore.DEClash.Weighted>
0.0000

> <Gold.Chemscore.DEInternal.Weighted>
3.6809

> <Gold.Chemscore.Rot.Weighted>
5.2825

> <Gold.Chemscore.Internal.Correction.Weighted>
   9.000000E+99

> <Gold.Protein.RotatedTorsions>
[ 6907 6896 6895 6894 ] final  131.48 input  -60.11 | X-H torsion
[ 7974 7965 7964 7962 ] final -106.15 input  175.53 | X-H torsion
[ 8008 7997 7996 7995 ] final  159.71 input   59.86 | X-H torsion
[ 10167 10162 10161 10158 ] final -104.83 input  -65.29 | X-H torsion
[ 10718 10713 10712 10709 ] final -144.66 input   66.30 | X-H torsion
[ 10763 10752 10751 10750 ] final -172.75 input  -60.55 | X-H torsion
[ 11005 11000 10999 10996 ] final  155.89 input  -57.11 | X-H torsion

> <Gold.Protein.ActiveResidues>
 VAL166  LYS551  ARG553  GLY616  TRP617  ASP618  TYR619  PRO620  LYS621  CYS622 
 ASP623  PHE694  ASN695  SER759  ASP760  ASP761  ALA762  ILE779  LEU786  VAL792 
 PHE793  MET794  SER795  GLU796  ALA797  LYS798  CYS799  TRP800  GLU811  SER814 

> <Gold.Protein.RotatedAtoms>
  152.3422  133.6080  159.5884 H   0  0  0  0  0  0  0  0  0  0  0  0  # atno 6907 bound_to 6896
  150.7485  133.9704  159.3553 H   0  0  0  0  0  0  0  0  0  0  0  0  # atno 6908 bound_to 6896
  151.7567  135.0820  160.0390 H   0  0  0  0  0  0  0  0  0  0  0  0  # atno 6909 bound_to 6896
  145.2215  140.9136  143.3257 H   0  0  0  0  0  0  0  0  0  0  0  0  # atno 7974 bound_to 7965
  156.2221  140.1824  156.7453 H   0  0  0  0  0  0  0  0  0  0  0  0  # atno 8008 bound_to 7997
  154.5881  140.0655  156.9229 H   0  0  0  0  0  0  0  0  0  0  0  0  # atno 8009 bound_to 7997
  155.2384  140.3320  155.4297 H   0  0  0  0  0  0  0  0  0  0  0  0  # atno 8010 bound_to 7997
  140.2050  143.3789  152.1098 H   0  0  0  0  0  0  0  0  0  0  0  0  # atno 10167 bound_to 10162
  156.3729  130.7797  151.1980 H   0  0  0  0  0  0  0  0  0  0  0  0  # atno 10718 bound_to 10713
  154.6158  135.2869  155.0382 H   0  0  0  0  0  0  0  0  0  0  0  0  # atno 10763 bound_to 10752
  154.1595  135.6490  153.4986 H   0  0  0  0  0  0  0  0  0  0  0  0  # atno 10764 bound_to 10752
  153.0214  135.5375  154.6928 H   0  0  0  0  0  0  0  0  0  0  0  0  # atno 10765 bound_to 10752
  140.1624  134.8600  157.2590 H   0  0  0  0  0  0  0  0  0  0  0  0  # atno 11005 bound_to 11000
  144.9761  139.3830  143.6285 LP  0  0  0  0  0  0  0  0  0  0  0  0  # atno 17320 bound_to 7965
  146.3375  139.8881  142.8813 LP  0  0  0  0  0  0  0  0  0  0  0  0  # atno 17321 bound_to 7965
  139.5202  144.7030  151.5439 LP  0  0  0  0  0  0  0  0  0  0  0  0  # atno 17342 bound_to 10162
  140.6363  143.8977  150.6651 LP  0  0  0  0  0  0  0  0  0  0  0  0  # atno 17343 bound_to 10162
  157.7485  131.0367  150.4421 LP  0  0  0  0  0  0  0  0  0  0  0  0  # atno 17370 bound_to 10713
  156.4651  130.4040  149.6552 LP  0  0  0  0  0  0  0  0  0  0  0  0  # atno 17371 bound_to 10713
  140.2474  134.3723  155.7456 LP  0  0  0  0  0  0  0  0  0  0  0  0  # atno 17394 bound_to 11000
  141.2210  133.7298  156.8883 LP  0  0  0  0  0  0  0  0  0  0  0  0  # atno 17395 bound_to 11000

$$$$
