AV-unprocessed.smi:774|AV-procd|sdf|3691|dock7
  -GOLD-   22720 1113D 1   1.00000     0.00000
 Structure written by MMmdl.
 37 38  0  0  0  0  0  0  0  0  1 V2000
  145.9583  131.9520  149.4909 C   0  0  0  0  0  0  0  0  0  0  0  0
  145.3034  131.7211  150.8553 C   0  0  0  0  0  0  0  0  0  0  0  0
  143.7594  132.6579  151.0149 S   0  0  0  0  0  0  0  0  0  0  0  0
  144.3807  134.1804  151.7853 C   0  0  2  0  0  0  0  0  0  0  0  0
  143.2539  135.0841  152.2786 C   0  0  0  0  0  0  0  0  0  0  0  0
  143.9069  136.4600  152.4170 C   0  0  0  0  0  0  0  0  0  0  0  0
  145.0176  136.5099  151.3509 C   0  0  1  0  0  0  0  0  0  0  0  0
  146.2731  136.9878  151.9280 N   0  0  0  0  0  0  0  0  0  0  0  0
  146.4761  138.1985  152.4672 C   0  0  0  0  0  0  0  0  0  0  0  0
  145.6065  139.0660  152.5408 O   0  0  0  0  0  0  0  0  0  0  0  0
  147.7358  138.3190  152.9216 N   0  0  0  0  0  0  0  0  0  0  0  0
  148.3448  139.4253  153.5750 C   0  0  0  0  0  0  0  0  0  0  0  0
  147.5662  140.5854  153.7677 C   0  0  0  0  0  0  0  0  0  0  0  0
  148.1358  141.6955  154.4194 C   0  0  0  0  0  0  0  0  0  0  0  0
  149.4683  141.5994  154.8641 C   0  0  0  0  0  0  0  0  0  0  0  0
  150.2231  140.4923  154.7036 N   0  0  0  0  0  0  0  0  0  0  0  0
  149.6709  139.4314  154.0761 C   0  0  0  0  0  0  0  0  0  0  0  0
  145.1691  135.0716  150.8199 C   0  0  0  0  0  0  0  0  0  0  0  0
  146.8830  131.3815  149.4022 H   0  0  0  0  0  0  0  0  0  0  0  0
  146.2009  133.0048  149.3443 H   0  0  0  0  0  0  0  0  0  0  0  0
  145.2975  131.6444  148.6799 H   0  0  0  0  0  0  0  0  0  0  0  0
  145.0895  130.6608  150.9907 H   0  0  0  0  0  0  0  0  0  0  0  0
  145.9861  132.0175  151.6516 H   0  0  0  0  0  0  0  0  0  0  0  0
  145.0137  133.9153  152.6334 H   0  0  0  0  0  0  0  0  0  0  0  0
  142.4593  135.1320  151.5326 H   0  0  0  0  0  0  0  0  0  0  0  0
  142.8131  134.7339  153.2123 H   0  0  0  0  0  0  0  0  0  0  0  0
  143.1840  137.2675  152.2964 H   0  0  0  0  0  0  0  0  0  0  0  0
  144.3289  136.5533  153.4190 H   0  0  0  0  0  0  0  0  0  0  0  0
  144.6937  137.1540  150.5314 H   0  0  0  0  0  0  0  0  0  0  0  0
  147.0483  136.3415  151.9165 H   0  0  0  0  0  0  0  0  0  0  0  0
  148.3128  137.4943  152.8445 H   0  0  0  0  0  0  0  0  0  0  0  0
  146.5454  140.6292  153.4170 H   0  0  0  0  0  0  0  0  0  0  0  0
  147.5651  142.5991  154.5744 H   0  0  0  0  0  0  0  0  0  0  0  0
  149.9386  142.4318  155.3665 H   0  0  0  0  0  0  0  0  0  0  0  0
  150.3174  138.5715  154.0017 H   0  0  0  0  0  0  0  0  0  0  0  0
  146.2089  134.7553  150.7266 H   0  0  0  0  0  0  0  0  0  0  0  0
  144.7289  135.0144  149.8233 H   0  0  0  0  0  0  0  0  0  0  0  0
  1  2  1  0  0  0  0
  1 19  1  0  0  0  0
  1 20  1  0  0  0  0
  1 21  1  0  0  0  0
  2  3  1  0  0  0  0
  2 22  1  0  0  0  0
  2 23  1  0  0  0  0
  3  4  1  0  0  0  0
  4 18  1  0  0  0  0
  4  5  1  0  0  0  0
  4 24  1  0  0  0  0
  5  6  1  0  0  0  0
  5 25  1  0  0  0  0
  5 26  1  0  0  0  0
  6  7  1  0  0  0  0
  6 27  1  0  0  0  0
  6 28  1  0  0  0  0
  7  8  1  0  0  0  0
  7 18  1  0  0  0  0
  7 29  1  0  0  0  0
  8  9  1  0  0  0  0
  8 30  1  0  0  0  0
  9 10  2  0  0  0  0
  9 11  1  0  0  0  0
 11 12  1  0  0  0  0
 11 31  1  0  0  0  0
 12 17  1  0  0  0  0
 12 13  2  0  0  0  0
 13 14  1  0  0  0  0
 13 32  1  0  0  0  0
 14 15  2  0  0  0  0
 14 33  1  0  0  0  0
 15 16  1  0  0  0  0
 15 34  1  0  0  0  0
 16 17  2  0  0  0  0
 17 35  1  0  0  0  0
 18 36  1  0  0  0  0
 18 37  1  0  0  0  0
M  END
> <s_m_source_file>
AV-unprocessed.smi

> <i_m_source_file_index>
774

> <i_lp_mmshare_version>
43012

> <i_f3d_flags>
0

> <s_epik_input>
W0NIM11bQ0gyXVNbQ0BASF0xW0NIMl1bQ0gyXVtDQEhdKFtDSDJdMSlbTkhdQyg9TylbTkhdYzJbY0hdW2NIXVtjSF1uW2NIXTI=

> <s_epik_cmdline>
J2VwaWtfcHl0aG9uJywgJy1waCcsICc3LjAnLCAnLXRuJywgJzgnLCAnLW1hJywgJzIwMCcsICctbWV0YWxfYmluZGluZycsICctaW1hZScsICc8aW5maWxlLm1hZT4nLCAnLW9tYWUnLCAnPG91dGZpbGUubWFlPic=

> <r_epik_Ionization_Penalty>
0.00485718

> <r_epik_Ionization_Penalty_Charging>
0

> <r_epik_Ionization_Penalty_Neutral>
0.00485718

> <r_epik_State_Penalty>
0.00349461

> <r_epik_Charging_Adjusted_Penalty>
0.00349461

> <i_epik_Tot_Q>
0

> <i_epik_Tot_abs_Q>
0

> <r_epik_Metal_State_Penalty>
-0

> <b_epik_Metal_Only>
0

> <s_lp_Force_Field>
OPLS_2005

> <r_lp_Energy>
20.878

> <b_lp_Chiralities_Consistent>
1

> <s_lp_Variant>
AV-unprocessed.smi:774-1

> <Gold.Version>
5.8.1

> <Gold.Id.Protein>
6NUR|6NUR_protein|mol2

> <Gold.PLP.Fitness>
42.5217

> <Gold.PLP.PLP>
-31.9853

> <Gold.PLP.part.hbond>
-3.8669

> <Gold.PLP.part.metal>
0.0000

> <Gold.PLP.part.buried>
1.2838

> <Gold.PLP.part.nonpolar>
-35.3658

> <Gold.PLP.part.repulsive>
5.1665

> <Gold.PLP.ligand.clash>
0.0000

> <Gold.PLP.ligand.torsion>
0.2860

> <Gold.PLP.Chemscore.Hbond>
2.8160

> <Gold.PLP.Chemscore.CHOScore>
0.8848

> <Gold.PLP.Chemscore.Metal>
0.0000

> <Gold.Chemscore.Hbonds>
donor molecule, donor type, donor heavy atom, donor atom, acceptor molecule, acceptor atom, score
      L1  H     8    30       P1  7948  0.88
      L1  H    11    31       P1  7948  0.96
      P1  H  7989  7998       L1    16  0.96
      L1  C    15    34       P1  8028  0.89

> <Gold.PLP.Chemscore.Internal.Correction>
0.0060

> <Gold.Rescore>
     Score         DG    S(hbond)    S(metal)    S(lipo)     H(rot)  DE(clash)    DE(int)     intcor
     15.53     -18.84       2.08        0.00      83.36       1.30       1.57       1.74       ----

> <Gold.Chemscore.Fitness>
15.5269

> <Gold.Chemscore.DG>
-18.8372

> <Gold.Chemscore.ZeroCoef>
-5.4800

> <Gold.Chemscore.Hbond>
2.0786

> <Gold.Chemscore.Metal>
0.0000

> <Gold.Chemscore.Lipo>
83.3595

> <Gold.Chemscore.Internal_Hbond>
0.0000

> <Gold.Chemscore.DEClash>
1.5671

> <Gold.Chemscore.DEInternal>
1.7431

> <Gold.Chemscore.Rot>
1.3041

> <Gold.Chemscore.Internal.Correction>
   9.000000E+99

> <Gold.Chemscore.Hbonds>
donor molecule, donor type, donor heavy atom, donor atom, acceptor molecule, acceptor atom, score
      L1  H     8    30       P1  7948  0.86
      L1  H    11    31       P1  7948  0.92
      P1  H  7989  7998       L1    16  0.15

> <Gold.Chemscore.Hbond.Weighted>
-6.9425

> <Gold.Chemscore.Metal.Weighted>
-0.0000

> <Gold.Chemscore.Lipo.Weighted>
-9.7531

> <Gold.Chemscore.Internal_Hbond.Weighted>
0.0000

> <Gold.Chemscore.DEClash.Weighted>
1.5671

> <Gold.Chemscore.DEInternal.Weighted>
1.7431

> <Gold.Chemscore.Rot.Weighted>
3.3384

> <Gold.Chemscore.Internal.Correction.Weighted>
   9.000000E+99

> <Gold.Protein.RotatedTorsions>
[ 6907 6896 6895 6894 ] final   62.26 input  -60.11 | X-H torsion
[ 7974 7965 7964 7962 ] final   71.47 input  175.53 | X-H torsion
[ 8008 7997 7996 7995 ] final   26.11 input   59.86 | X-H torsion
[ 10167 10162 10161 10158 ] final -149.36 input  -65.29 | X-H torsion
[ 10718 10713 10712 10709 ] final  171.88 input   66.30 | X-H torsion
[ 10763 10752 10751 10750 ] final  -27.21 input  -60.55 | X-H torsion
[ 11005 11000 10999 10996 ] final  133.77 input  -57.11 | X-H torsion

> <Gold.Protein.ActiveResidues>
 VAL166  LYS551  ARG553  GLY616  TRP617  ASP618  TYR619  PRO620  LYS621  CYS622 
 ASP623  PHE694  ASN695  SER759  ASP760  ASP761  ALA762  ILE779  LEU786  VAL792 
 PHE793  MET794  SER795  GLU796  ALA797  LYS798  CYS799  TRP800  GLU811  SER814 

> <Gold.Protein.RotatedAtoms>
  152.4157  134.6045  160.0008 H   0  0  0  0  0  0  0  0  0  0  0  0  # atno 6907 bound_to 6896
  151.6210  133.3333  159.3096 H   0  0  0  0  0  0  0  0  0  0  0  0  # atno 6908 bound_to 6896
  150.8046  134.7202  159.6698 H   0  0  0  0  0  0  0  0  0  0  0  0  # atno 6909 bound_to 6896
  145.7654  139.2819  143.1352 H   0  0  0  0  0  0  0  0  0  0  0  0  # atno 7974 bound_to 7965
  155.0222  140.3149  155.4789 H   0  0  0  0  0  0  0  0  0  0  0  0  # atno 8008 bound_to 7997
  156.2890  140.2195  156.5283 H   0  0  0  0  0  0  0  0  0  0  0  0  # atno 8009 bound_to 7997
  154.7442  140.0471  157.0825 H   0  0  0  0  0  0  0  0  0  0  0  0  # atno 8010 bound_to 7997
  139.7450  143.8605  152.2572 H   0  0  0  0  0  0  0  0  0  0  0  0  # atno 10167 bound_to 10162
  156.9871  131.0136  151.2866 H   0  0  0  0  0  0  0  0  0  0  0  0  # atno 10718 bound_to 10713
  153.7284  135.6940  153.4995 H   0  0  0  0  0  0  0  0  0  0  0  0  # atno 10763 bound_to 10752
  153.2153  135.4388  155.0426 H   0  0  0  0  0  0  0  0  0  0  0  0  # atno 10764 bound_to 10752
  154.8261  135.3447  154.6815 H   0  0  0  0  0  0  0  0  0  0  0  0  # atno 10765 bound_to 10752
  139.9872  134.9528  156.9772 H   0  0  0  0  0  0  0  0  0  0  0  0  # atno 11005 bound_to 11000
  146.0223  140.8336  142.9917 LP  0  0  0  0  0  0  0  0  0  0  0  0  # atno 17320 bound_to 7965
  144.6822  140.2647  143.7314 LP  0  0  0  0  0  0  0  0  0  0  0  0  # atno 17321 bound_to 7965
  139.8566  144.7138  150.9149 LP  0  0  0  0  0  0  0  0  0  0  0  0  # atno 17342 bound_to 10162
  140.7791  143.3853  151.1404 LP  0  0  0  0  0  0  0  0  0  0  0  0  # atno 17343 bound_to 10162
  157.5485  130.8167  149.8116 LP  0  0  0  0  0  0  0  0  0  0  0  0  # atno 17370 bound_to 10713
  156.0222  130.3792  150.1929 LP  0  0  0  0  0  0  0  0  0  0  0  0  # atno 17371 bound_to 10713
  140.4978  134.1128  155.7244 LP  0  0  0  0  0  0  0  0  0  0  0  0  # atno 17394 bound_to 11000
  141.1535  133.8925  157.2037 LP  0  0  0  0  0  0  0  0  0  0  0  0  # atno 17395 bound_to 11000

$$$$
