AV-unprocessed.smi:74|AV-procd|sdf|764|dock6
  -GOLD-   2262017103D 1   1.00000     0.00000
 Structure written by MMmdl.
 58 62  0  0  0  0  0  0  0  0  1 V2000
  146.4769  131.3158  151.6842 O   0  0  0  0  0  0  0  0  0  0  0  0
  145.3229  131.3327  150.8686 C   0  0  0  0  0  0  0  0  0  0  0  0
  144.9023  132.7721  150.5291 C   0  0  0  0  0  0  0  0  0  0  0  0
  144.1315  132.7724  149.1930 C   0  0  0  0  0  0  0  0  0  0  0  0
  142.8997  132.0890  149.3073 O   0  0  0  0  0  0  0  0  0  0  0  0
  144.2297  133.5578  151.6777 C   0  0  0  0  0  0  0  0  0  0  0  0
  145.0282  134.8018  151.2827 C   0  0  0  0  0  0  0  0  0  0  0  0
  145.4445  135.7555  152.2682 N   0  0  0  0  0  0  0  0  0  0  0  0
  145.3223  137.1247  152.1966 C   0  0  0  0  0  0  0  0  0  0  0  0
  145.7323  137.7756  153.2509 N   0  0  0  0  0  0  0  0  0  0  0  0
  146.1414  136.7789  154.1293 C   0  0  0  0  0  0  0  0  0  0  0  0
  146.6698  136.7769  155.4517 C   0  0  0  0  0  0  0  0  0  0  0  0
  146.9124  137.9168  156.1485 N   0  0  0  0  0  0  0  0  0  0  0  0
  145.7234  138.6614  156.5512 C   0  0  0  0  0  0  0  0  0  0  0  0
  146.0961  139.7323  157.5898 C   0  0  0  0  0  0  0  0  0  0  0  0
  147.1171  140.5767  157.0678 O   0  0  0  0  0  0  0  0  0  0  0  0
  148.3060  139.8564  156.7526 C   0  0  2  0  0  0  0  0  0  0  0  0
  149.3839  140.8520  156.3018 C   0  0  0  0  0  0  0  0  0  0  0  0
  149.7970  141.6435  157.4041 O   0  0  0  0  0  0  0  0  0  0  0  0
  150.9023  142.4752  157.1008 C   0  0  0  0  0  0  0  0  0  0  0  0
  151.2253  143.3196  158.3148 C   0  0  0  0  0  0  0  0  0  0  0  0
  152.1596  144.5035  158.2046 C   0  0  0  0  0  0  0  0  0  0  0  0
  152.6007  143.2638  158.9399 C   0  0  0  0  0  0  0  0  0  0  0  0
  148.0008  138.7788  155.6936 C   0  0  0  0  0  0  0  0  0  0  0  0
  146.9236  135.5669  156.0194 N   0  0  0  0  0  0  0  0  0  0  0  0
  146.6882  134.4390  155.3434 C   0  0  0  0  0  0  0  0  0  0  0  0
  146.2076  134.2923  154.1077 N   0  0  0  0  0  0  0  0  0  0  0  0
  145.9464  135.5009  153.5324 C   0  0  0  0  0  0  0  0  0  0  0  0
  146.0228  133.8298  150.6430 C   0  0  0  0  0  0  0  0  0  0  0  0
  147.2390  131.3361  151.1259 H   0  0  0  0  0  0  0  0  0  0  0  0
  145.5149  130.7467  149.9698 H   0  0  0  0  0  0  0  0  0  0  0  0
  144.5288  130.8135  151.4064 H   0  0  0  0  0  0  0  0  0  0  0  0
  143.9171  133.7886  148.8614 H   0  0  0  0  0  0  0  0  0  0  0  0
  144.7147  132.3127  148.3949 H   0  0  0  0  0  0  0  0  0  0  0  0
  142.2048  132.7277  149.3536 H   0  0  0  0  0  0  0  0  0  0  0  0
  143.1486  133.6725  151.5917 H   0  0  0  0  0  0  0  0  0  0  0  0
  144.5025  133.1870  152.6676 H   0  0  0  0  0  0  0  0  0  0  0  0
  144.4987  135.3728  150.5180 H   0  0  0  0  0  0  0  0  0  0  0  0
  144.9208  137.6316  151.3313 H   0  0  0  0  0  0  0  0  0  0  0  0
  145.2876  139.1341  155.6701 H   0  0  0  0  0  0  0  0  0  0  0  0
  144.9600  138.0057  156.9675 H   0  0  0  0  0  0  0  0  0  0  0  0
  145.2242  140.3396  157.8323 H   0  0  0  0  0  0  0  0  0  0  0  0
  146.4310  139.2700  158.5197 H   0  0  0  0  0  0  0  0  0  0  0  0
  148.6610  139.3709  157.6636 H   0  0  0  0  0  0  0  0  0  0  0  0
  150.2344  140.3171  155.8768 H   0  0  0  0  0  0  0  0  0  0  0  0
  148.9812  141.4977  155.5199 H   0  0  0  0  0  0  0  0  0  0  0  0
  151.7734  141.8699  156.8468 H   0  0  0  0  0  0  0  0  0  0  0  0
  150.6790  143.1200  156.2490 H   0  0  0  0  0  0  0  0  0  0  0  0
  150.3959  143.4224  159.0120 H   0  0  0  0  0  0  0  0  0  0  0  0
  152.6146  144.7021  157.2361 H   0  0  0  0  0  0  0  0  0  0  0  0
  151.9245  145.3846  158.7983 H   0  0  0  0  0  0  0  0  0  0  0  0
  152.6612  143.3179  160.0251 H   0  0  0  0  0  0  0  0  0  0  0  0
  153.3509  142.6370  158.4619 H   0  0  0  0  0  0  0  0  0  0  0  0
  148.8964  138.1847  155.5067 H   0  0  0  0  0  0  0  0  0  0  0  0
  147.7155  139.2453  154.7495 H   0  0  0  0  0  0  0  0  0  0  0  0
  146.9183  133.5233  155.8679 H   0  0  0  0  0  0  0  0  0  0  0  0
  146.8178  133.5322  151.3299 H   0  0  0  0  0  0  0  0  0  0  0  0
  146.4346  134.1663  149.6911 H   0  0  0  0  0  0  0  0  0  0  0  0
  1  2  1  0  0  0  0
  1 30  1  0  0  0  0
  2  3  1  0  0  0  0
  2 31  1  0  0  0  0
  2 32  1  0  0  0  0
  3 29  1  0  0  0  0
  3  4  1  0  0  0  0
  3  6  1  0  0  0  0
  4  5  1  0  0  0  0
  4 33  1  0  0  0  0
  4 34  1  0  0  0  0
  5 35  1  0  0  0  0
  6  7  1  0  0  0  0
  6 36  1  0  0  0  0
  6 37  1  0  0  0  0
  7  8  1  0  0  0  0
  7 29  1  0  0  0  0
  7 38  1  0  0  0  0
  8 28  1  0  0  0  0
  8  9  1  0  0  0  0
  9 10  2  0  0  0  0
  9 39  1  0  0  0  0
 10 11  1  0  0  0  0
 11 28  2  0  0  0  0
 11 12  1  0  0  0  0
 12 13  1  0  0  0  0
 12 25  2  0  0  0  0
 13 24  1  0  0  0  0
 13 14  1  0  0  0  0
 14 15  1  0  0  0  0
 14 40  1  0  0  0  0
 14 41  1  0  0  0  0
 15 16  1  0  0  0  0
 15 42  1  0  0  0  0
 15 43  1  0  0  0  0
 16 17  1  0  0  0  0
 17 18  1  0  0  0  0
 17 24  1  0  0  0  0
 17 44  1  0  0  0  0
 18 19  1  0  0  0  0
 18 45  1  0  0  0  0
 18 46  1  0  0  0  0
 19 20  1  0  0  0  0
 20 21  1  0  0  0  0
 20 47  1  0  0  0  0
 20 48  1  0  0  0  0
 21 23  1  0  0  0  0
 21 22  1  0  0  0  0
 21 49  1  0  0  0  0
 22 23  1  0  0  0  0
 22 50  1  0  0  0  0
 22 51  1  0  0  0  0
 23 52  1  0  0  0  0
 23 53  1  0  0  0  0
 24 54  1  0  0  0  0
 24 55  1  0  0  0  0
 25 26  1  0  0  0  0
 26 27  2  0  0  0  0
 26 56  1  0  0  0  0
 27 28  1  0  0  0  0
 29 57  1  0  0  0  0
 29 58  1  0  0  0  0
M  END
> <s_m_source_file>
AV-unprocessed.smi

> <i_m_source_file_index>
74

> <i_lp_mmshare_version>
43012

> <i_f3d_flags>
0

> <s_epik_input>
W09IXVtDSDJdQzEoW0NIMl1bT0hdKVtDSDJdW0NIXShbQ0gyXTEpbihbY0hdbjIpYyhjMjMpbltjSF1uYzNONFtDSDJdW0NIMl1PW0NASF0oW0NIMl00KVtDSDJdT1tDSDJdW0NIXTVbQ0gyXVtDSDJdNQ==

> <s_epik_cmdline>
J2VwaWtfcHl0aG9uJywgJy1waCcsICc3LjAnLCAnLXRuJywgJzgnLCAnLW1hJywgJzIwMCcsICctbWV0YWxfYmluZGluZycsICctaW1hZScsICc8aW5maWxlLm1hZT4nLCAnLW9tYWUnLCAnPG91dGZpbGUubWFlPic=

> <r_lp_tautomer_probability>
1

> <r_epik_Ionization_Penalty>
5.89322e-05

> <r_epik_Ionization_Penalty_Charging>
0

> <r_epik_Ionization_Penalty_Neutral>
5.89322e-05

> <r_epik_State_Penalty>
-0

> <r_epik_Charging_Adjusted_Penalty>
0

> <i_epik_Tot_Q>
0

> <i_epik_Tot_abs_Q>
0

> <r_epik_Metal_State_Penalty>
-0

> <b_epik_Metal_Only>
0

> <s_lp_Force_Field>
OPLS_2005

> <r_lp_Energy>
49.4071

> <b_lp_Chiralities_Consistent>
1

> <s_lp_Variant>
AV-unprocessed.smi:74-2

> <Gold.Version>
5.8.1

> <Gold.Id.Protein>
6NUR|6NUR_protein|mol2

> <Gold.PLP.Fitness>
51.3122

> <Gold.PLP.PLP>
-41.0192

> <Gold.PLP.part.hbond>
-3.9712

> <Gold.PLP.part.metal>
0.0000

> <Gold.PLP.part.buried>
-6.2412

> <Gold.PLP.part.nonpolar>
-31.9985

> <Gold.PLP.part.repulsive>
0.3829

> <Gold.PLP.ligand.clash>
0.0000

> <Gold.PLP.ligand.torsion>
1.4033

> <Gold.PLP.Chemscore.Hbond>
2.8850

> <Gold.PLP.Chemscore.CHOScore>
1.0000

> <Gold.PLP.Chemscore.Metal>
0.0000

> <Gold.Chemscore.Hbonds>
donor molecule, donor type, donor heavy atom, donor atom, acceptor molecule, acceptor atom, score
      L1  H     1    30       P1 10747  1.00
      L1  H     5    35       P1 10186  0.89
      P1  H 10785 10796       L1     5  0.96
      L1  C     9    39       P1 10171  1.00

> <Gold.PLP.Chemscore.Internal.Correction>
1.4446

> <Gold.Rescore>
     Score         DG    S(hbond)    S(metal)    S(lipo)     H(rot)  DE(clash)    DE(int)     intcor
     14.16     -15.66       2.60        0.00      99.50       3.97       0.11       1.38       ----

> <Gold.Chemscore.Fitness>
14.1634

> <Gold.Chemscore.DG>
-15.6610

> <Gold.Chemscore.ZeroCoef>
-5.4800

> <Gold.Chemscore.Hbond>
2.6025

> <Gold.Chemscore.Metal>
0.0000

> <Gold.Chemscore.Lipo>
99.5010

> <Gold.Chemscore.Internal_Hbond>
0.0000

> <Gold.Chemscore.DEClash>
0.1143

> <Gold.Chemscore.DEInternal>
1.3833

> <Gold.Chemscore.Rot>
3.9660

> <Gold.Chemscore.Internal.Correction>
   9.000000E+99

> <Gold.Chemscore.Hbonds>
donor molecule, donor type, donor heavy atom, donor atom, acceptor molecule, acceptor atom, score
      L1  H     1    30       P1 10747  0.97
      L1  H     5    35       P1 10186  0.87
      P1  H 10785 10796       L1     5  0.59

> <Gold.Chemscore.Hbond.Weighted>
-8.6923

> <Gold.Chemscore.Metal.Weighted>
-0.0000

> <Gold.Chemscore.Lipo.Weighted>
-11.6416

> <Gold.Chemscore.Internal_Hbond.Weighted>
0.0000

> <Gold.Chemscore.DEClash.Weighted>
0.1143

> <Gold.Chemscore.DEInternal.Weighted>
1.3833

> <Gold.Chemscore.Rot.Weighted>
10.1529

> <Gold.Chemscore.Internal.Correction.Weighted>
   9.000000E+99

> <Gold.Protein.RotatedTorsions>
[ 6907 6896 6895 6894 ] final  -37.61 input  -60.11 | X-H torsion
[ 7974 7965 7964 7962 ] final  130.70 input  175.53 | X-H torsion
[ 8008 7997 7996 7995 ] final -165.46 input   59.86 | X-H torsion
[ 10167 10162 10161 10158 ] final -124.56 input  -65.29 | X-H torsion
[ 10718 10713 10712 10709 ] final  -32.44 input   66.30 | X-H torsion
[ 10763 10752 10751 10750 ] final   12.98 input  -60.55 | X-H torsion
[ 11005 11000 10999 10996 ] final  -87.25 input  -57.11 | X-H torsion

> <Gold.Protein.ActiveResidues>
 VAL166  LYS551  ARG553  GLY616  TRP617  ASP618  TYR619  PRO620  LYS621  CYS622 
 ASP623  PHE694  ASN695  SER759  ASP760  ASP761  ALA762  ILE779  LEU786  VAL792 
 PHE793  MET794  SER795  GLU796  ALA797  LYS798  CYS799  TRP800  GLU811  SER814 

> <Gold.Protein.RotatedAtoms>
  151.0126  134.9409  159.8015 H   0  0  0  0  0  0  0  0  0  0  0  0  # atno 6907 bound_to 6896
  152.5306  134.3008  159.9087 H   0  0  0  0  0  0  0  0  0  0  0  0  # atno 6908 bound_to 6896
  151.3014  133.4079  159.2674 H   0  0  0  0  0  0  0  0  0  0  0  0  # atno 6909 bound_to 6896
  145.0151  139.4184  143.5225 H   0  0  0  0  0  0  0  0  0  0  0  0  # atno 7974 bound_to 7965
  155.8501  140.0962  157.1680 H   0  0  0  0  0  0  0  0  0  0  0  0  # atno 8008 bound_to 7997
  154.3985  140.1384  156.3896 H   0  0  0  0  0  0  0  0  0  0  0  0  # atno 8009 bound_to 7997
  155.7970  140.3454  155.5384 H   0  0  0  0  0  0  0  0  0  0  0  0  # atno 8010 bound_to 7997
  139.9915  143.5636  152.2340 H   0  0  0  0  0  0  0  0  0  0  0  0  # atno 10167 bound_to 10162
  156.3749  130.4346  149.7515 H   0  0  0  0  0  0  0  0  0  0  0  0  # atno 10718 bound_to 10713
  153.1767  135.6821  153.8533 H   0  0  0  0  0  0  0  0  0  0  0  0  # atno 10763 bound_to 10752
  153.7879  135.3173  155.3375 H   0  0  0  0  0  0  0  0  0  0  0  0  # atno 10764 bound_to 10752
  154.8033  135.4764  154.0424 H   0  0  0  0  0  0  0  0  0  0  0  0  # atno 10765 bound_to 10752
  141.1619  133.7500  156.9279 H   0  0  0  0  0  0  0  0  0  0  0  0  # atno 11005 bound_to 11000
  146.3476  139.9617  142.8716 LP  0  0  0  0  0  0  0  0  0  0  0  0  # atno 17320 bound_to 7965
  145.1971  140.9838  143.4177 LP  0  0  0  0  0  0  0  0  0  0  0  0  # atno 17321 bound_to 7965
  139.6337  144.7647  151.2483 LP  0  0  0  0  0  0  0  0  0  0  0  0  # atno 17342 bound_to 10162
  140.7453  143.6435  150.8313 LP  0  0  0  0  0  0  0  0  0  0  0  0  # atno 17343 bound_to 10162
  156.4628  130.7960  151.2980 LP  0  0  0  0  0  0  0  0  0  0  0  0  # atno 17370 bound_to 10713
  157.7487  131.0060  150.3136 LP  0  0  0  0  0  0  0  0  0  0  0  0  # atno 17371 bound_to 10713
  140.1406  134.9296  157.2462 LP  0  0  0  0  0  0  0  0  0  0  0  0  # atno 17394 bound_to 11000
  140.2841  134.3316  155.7334 LP  0  0  0  0  0  0  0  0  0  0  0  0  # atno 17395 bound_to 11000

$$$$
