AV-unprocessed.smi:2821|AV-procd|sdf|10856|dock1
  -GOLD-   2272015303D 1   1.00000     0.00000
 Structure written by MMmdl.
 36 37  0  0  0  0  0  0  0  0  1 V2000
  147.2841  140.8099  153.5639 C   0  0  0  0  0  0  0  0  0  0  0  0
  148.5246  140.6267  154.4411 C   0  0  0  0  0  0  0  0  0  0  0  0
  149.1083  139.3607  154.1500 O   0  0  0  0  0  0  0  0  0  0  0  0
  150.2921  139.0274  154.7753 C   0  0  0  0  0  0  0  0  0  0  0  0
  150.9798  137.8584  154.3855 C   0  0  0  0  0  0  0  0  0  0  0  0
  152.1412  137.4848  154.9663 N   0  0  0  0  0  0  0  0  0  0  0  0
  152.6165  138.2896  155.9422 C   0  0  0  0  0  0  0  0  0  0  0  0
  151.9419  139.4649  156.3403 C   0  0  0  0  0  0  0  0  0  0  0  0
  152.4873  140.2596  157.3593 N   0  0  0  0  0  0  0  0  0  0  0  0
  151.6437  140.9273  158.3471 C   0  0  2  0  0  0  0  0  0  0  0  0
  150.6066  141.8251  157.6492 C   0  0  0  0  0  0  0  0  0  0  0  0
  152.5131  141.7386  159.3263 C   0  0  2  0  0  0  0  0  0  0  0  0
  153.4817  140.8973  160.1607 C   0  0  0  0  0  0  0  0  0  0  0  0
  153.7039  141.7335  161.4118 C   0  0  0  0  0  0  0  0  0  0  0  0
  152.5890  142.7810  161.3625 C   0  0  0  0  0  0  0  0  0  0  0  0
  151.7147  142.3389  160.3347 O   0  0  0  0  0  0  0  0  0  0  0  0
  150.7757  139.8309  155.7559 N   0  0  0  0  0  0  0  0  0  0  0  0
  146.8045  141.7685  153.7630 H   0  0  0  0  0  0  0  0  0  0  0  0
  146.5521  140.0241  153.7517 H   0  0  0  0  0  0  0  0  0  0  0  0
  147.5454  140.7800  152.5058 H   0  0  0  0  0  0  0  0  0  0  0  0
  149.2358  141.4302  154.2414 H   0  0  0  0  0  0  0  0  0  0  0  0
  148.2395  140.6814  155.4931 H   0  0  0  0  0  0  0  0  0  0  0  0
  150.5954  137.2196  153.6041 H   0  0  0  0  0  0  0  0  0  0  0  0
  153.5456  137.9921  156.4066 H   0  0  0  0  0  0  0  0  0  0  0  0
  153.4571  140.5344  157.2986 H   0  0  0  0  0  0  0  0  0  0  0  0
  151.1122  140.1717  158.9269 H   0  0  0  0  0  0  0  0  0  0  0  0
  149.9516  142.3080  158.3747 H   0  0  0  0  0  0  0  0  0  0  0  0
  149.9706  141.2527  156.9735 H   0  0  0  0  0  0  0  0  0  0  0  0
  151.0900  142.6093  157.0657 H   0  0  0  0  0  0  0  0  0  0  0  0
  153.0587  142.5226  158.7968 H   0  0  0  0  0  0  0  0  0  0  0  0
  153.0163  139.9497  160.4359 H   0  0  0  0  0  0  0  0  0  0  0  0
  154.4080  140.6733  159.6312 H   0  0  0  0  0  0  0  0  0  0  0  0
  153.6360  141.1153  162.3075 H   0  0  0  0  0  0  0  0  0  0  0  0
  154.6834  142.2126  161.4072 H   0  0  0  0  0  0  0  0  0  0  0  0
  152.0623  142.8795  162.3120 H   0  0  0  0  0  0  0  0  0  0  0  0
  152.9922  143.7584  161.0934 H   0  0  0  0  0  0  0  0  0  0  0  0
  1  2  1  0  0  0  0
  1 18  1  0  0  0  0
  1 19  1  0  0  0  0
  1 20  1  0  0  0  0
  2  3  1  0  0  0  0
  2 21  1  0  0  0  0
  2 22  1  0  0  0  0
  3  4  1  0  0  0  0
  4 17  1  0  0  0  0
  4  5  2  0  0  0  0
  5  6  1  0  0  0  0
  5 23  1  0  0  0  0
  6  7  2  0  0  0  0
  7  8  1  0  0  0  0
  7 24  1  0  0  0  0
  8  9  1  0  0  0  0
  8 17  2  0  0  0  0
  9 10  1  0  0  0  0
  9 25  1  0  0  0  0
 10 11  1  0  0  0  0
 10 12  1  0  0  0  0
 10 26  1  0  0  0  0
 11 27  1  0  0  0  0
 11 28  1  0  0  0  0
 11 29  1  0  0  0  0
 12 16  1  0  0  0  0
 12 13  1  0  0  0  0
 12 30  1  0  0  0  0
 13 14  1  0  0  0  0
 13 31  1  0  0  0  0
 13 32  1  0  0  0  0
 14 15  1  0  0  0  0
 14 33  1  0  0  0  0
 14 34  1  0  0  0  0
 15 16  1  0  0  0  0
 15 35  1  0  0  0  0
 15 36  1  0  0  0  0
M  END
> <s_m_source_file>
AV-unprocessed.smi

> <i_m_source_file_index>
2821

> <i_lp_mmshare_version>
43012

> <i_f3d_flags>
0

> <s_epik_input>
W0NIM11bQ0gyXU9jMVtjSF1uW2NIXWMobjEpW05IXVtDQEhdKFtDSDNdKVtDQEBIXTJbQ0gyXVtDSDJdW0NIMl1PMg==

> <s_epik_cmdline>
J2VwaWtfcHl0aG9uJywgJy1waCcsICc3LjAnLCAnLXRuJywgJzgnLCAnLW1hJywgJzIwMCcsICctbWV0YWxfYmluZGluZycsICctaW1hZScsICc8aW5maWxlLm1hZT4nLCAnLW9tYWUnLCAnPG91dGZpbGUubWFlPic=

> <r_lp_tautomer_probability>
1

> <r_epik_Ionization_Penalty>
4.69533e-05

> <r_epik_Ionization_Penalty_Charging>
0

> <r_epik_Ionization_Penalty_Neutral>
4.69533e-05

> <r_epik_State_Penalty>
-0

> <r_epik_Charging_Adjusted_Penalty>
0

> <i_epik_Tot_Q>
0

> <i_epik_Tot_abs_Q>
0

> <r_epik_Metal_State_Penalty>
-0

> <b_epik_Metal_Only>
0

> <s_lp_Force_Field>
OPLS_2005

> <r_lp_Energy>
27.5992

> <b_lp_Chiralities_Consistent>
1

> <s_lp_Variant>
AV-unprocessed.smi:2821-1

> <Gold.Version>
5.8.1

> <Gold.Id.Protein>
6NUR|6NUR_protein|mol2

> <Gold.PLP.Fitness>
40.4951

> <Gold.PLP.PLP>
-35.3786

> <Gold.PLP.part.hbond>
-1.8445

> <Gold.PLP.part.metal>
0.0000

> <Gold.PLP.part.buried>
-5.9373

> <Gold.PLP.part.nonpolar>
-29.9649

> <Gold.PLP.part.repulsive>
2.2675

> <Gold.PLP.ligand.clash>
0.0000

> <Gold.PLP.ligand.torsion>
0.3601

> <Gold.PLP.Chemscore.Hbond>
0.7262

> <Gold.PLP.Chemscore.CHOScore>
1.1805

> <Gold.PLP.Chemscore.Metal>
0.0000

> <Gold.Chemscore.Hbonds>
donor molecule, donor type, donor heavy atom, donor atom, acceptor molecule, acceptor atom, score
      P1  H 10752 10763       L1     6  0.69
      L1  C     5    23       P1  7948  0.56
      L1  C     5    23       P1  7949  0.62

> <Gold.PLP.Chemscore.Internal.Correction>
0.1165

> <Gold.Rescore>
     Score         DG    S(hbond)    S(metal)    S(lipo)     H(rot)  DE(clash)    DE(int)     intcor
     11.42     -13.48       0.84        0.00      78.37       1.55       0.30       1.76       ----

> <Gold.Chemscore.Fitness>
11.4243

> <Gold.Chemscore.DG>
-13.4800

> <Gold.Chemscore.ZeroCoef>
-5.4800

> <Gold.Chemscore.Hbond>
0.8391

> <Gold.Chemscore.Metal>
0.0000

> <Gold.Chemscore.Lipo>
78.3663

> <Gold.Chemscore.Internal_Hbond>
0.0000

> <Gold.Chemscore.DEClash>
0.2975

> <Gold.Chemscore.DEInternal>
1.7582

> <Gold.Chemscore.Rot>
1.5514

> <Gold.Chemscore.Internal.Correction>
   9.000000E+99

> <Gold.Chemscore.Hbonds>
donor molecule, donor type, donor heavy atom, donor atom, acceptor molecule, acceptor atom, score
      P1  H 10752 10763       L1     6  0.64

> <Gold.Chemscore.Hbond.Weighted>
-2.8026

> <Gold.Chemscore.Metal.Weighted>
-0.0000

> <Gold.Chemscore.Lipo.Weighted>
-9.1689

> <Gold.Chemscore.Internal_Hbond.Weighted>
0.0000

> <Gold.Chemscore.DEClash.Weighted>
0.2975

> <Gold.Chemscore.DEInternal.Weighted>
1.7582

> <Gold.Chemscore.Rot.Weighted>
3.9715

> <Gold.Chemscore.Internal.Correction.Weighted>
   9.000000E+99

> <Gold.Protein.RotatedTorsions>
[ 6907 6896 6895 6894 ] final  149.91 input  -60.11 | X-H torsion
[ 7974 7965 7964 7962 ] final  -88.22 input  175.53 | X-H torsion
[ 8008 7997 7996 7995 ] final   23.94 input   59.86 | X-H torsion
[ 10167 10162 10161 10158 ] final   56.14 input  -65.29 | X-H torsion
[ 10718 10713 10712 10709 ] final  101.10 input   66.30 | X-H torsion
[ 10763 10752 10751 10750 ] final   52.13 input  -60.55 | X-H torsion
[ 11005 11000 10999 10996 ] final -106.86 input  -57.11 | X-H torsion

> <Gold.Protein.ActiveResidues>
 VAL166  LYS551  ARG553  GLY616  TRP617  ASP618  TYR619  PRO620  LYS621  CYS622 
 ASP623  PHE694  ASN695  SER759  ASP760  ASP761  ALA762  ILE779  LEU786  VAL792 
 PHE793  MET794  SER795  GLU796  ALA797  LYS798  CYS799  TRP800  GLU811  SER814 

> <Gold.Protein.RotatedAtoms>
  152.1216  133.4357  159.4678 H   0  0  0  0  0  0  0  0  0  0  0  0  # atno 6907 bound_to 6896
  150.6872  134.2528  159.4527 H   0  0  0  0  0  0  0  0  0  0  0  0  # atno 6908 bound_to 6896
  152.0405  134.9714  160.0624 H   0  0  0  0  0  0  0  0  0  0  0  0  # atno 6909 bound_to 6896
  145.4561  140.9561  143.1995 H   0  0  0  0  0  0  0  0  0  0  0  0  # atno 7974 bound_to 7965
  154.9887  140.3111  155.4915 H   0  0  0  0  0  0  0  0  0  0  0  0  # atno 8008 bound_to 7997
  156.2943  140.2253  156.4930 H   0  0  0  0  0  0  0  0  0  0  0  0  # atno 8009 bound_to 7997
  154.7723  140.0451  157.1050 H   0  0  0  0  0  0  0  0  0  0  0  0  # atno 8010 bound_to 7997
  140.2119  144.3880  150.6485 H   0  0  0  0  0  0  0  0  0  0  0  0  # atno 10167 bound_to 10162
  157.6838  131.0717  150.5201 H   0  0  0  0  0  0  0  0  0  0  0  0  # atno 10718 bound_to 10713
  152.9787  135.5823  154.4528 H   0  0  0  0  0  0  0  0  0  0  0  0  # atno 10763 bound_to 10752
  154.4115  135.2770  155.2036 H   0  0  0  0  0  0  0  0  0  0  0  0  # atno 10764 bound_to 10752
  154.3824  135.6144  153.5852 H   0  0  0  0  0  0  0  0  0  0  0  0  # atno 10765 bound_to 10752
  141.0983  133.8930  157.1907 H   0  0  0  0  0  0  0  0  0  0  0  0  # atno 11005 bound_to 11000
  144.8031  139.6102  143.7063 LP  0  0  0  0  0  0  0  0  0  0  0  0  # atno 17320 bound_to 7965
  146.2477  139.6133  142.9448 LP  0  0  0  0  0  0  0  0  0  0  0  0  # atno 17321 bound_to 7965
  140.6317  143.2188  151.6481 LP  0  0  0  0  0  0  0  0  0  0  0  0  # atno 17342 bound_to 10162
  139.5176  144.3308  152.0827 LP  0  0  0  0  0  0  0  0  0  0  0  0  # atno 17343 bound_to 10162
  156.5514  130.4232  149.6106 LP  0  0  0  0  0  0  0  0  0  0  0  0  # atno 17370 bound_to 10713
  156.2899  130.7118  151.1964 LP  0  0  0  0  0  0  0  0  0  0  0  0  # atno 17371 bound_to 10713
  139.9826  135.0093  156.9787 LP  0  0  0  0  0  0  0  0  0  0  0  0  # atno 17394 bound_to 11000
  140.5085  134.1026  155.7265 LP  0  0  0  0  0  0  0  0  0  0  0  0  # atno 17395 bound_to 11000

$$$$
