AV-unprocessed.smi:2331|AV-procd|sdf|9316|dock1
  -GOLD-   2272012533D 1   1.00000     0.00000
 Structure written by MMmdl.
 50 51  0  0  0  0  0  0  0  0  2 V2000
  151.0926  137.4702  158.7368 C   0  0  0  0  0  0  0  0  0  0  0  0
  150.4795  137.7435  157.3416 C   0  0  0  0  0  0  0  0  0  0  0  0
  151.5408  137.3234  156.3021 C   0  0  0  0  0  0  0  0  0  0  0  0
  149.2225  136.8487  157.1587 C   0  0  0  0  0  0  0  0  0  0  0  0
  148.5414  136.5572  158.4188 N   0  0  0  0  0  0  0  0  0  0  0  0
  148.5343  135.3753  159.0580 C   0  0  0  0  0  0  0  0  0  0  0  0
  149.0470  134.3612  158.5863 O   0  0  0  0  0  0  0  0  0  0  0  0
  147.8390  135.3980  160.2184 N   0  0  0  0  0  0  0  0  0  0  0  0
  147.7172  136.6092  161.0391 C   0  0  0  0  0  0  0  0  0  0  0  0
  147.7485  136.1286  162.4834 C   0  0  0  0  0  0  0  0  0  0  0  0
  147.1161  134.7523  162.4014 C   0  0  0  0  0  0  0  0  0  0  0  0
  147.5366  134.1976  161.0261 C   0  0  1  0  0  0  0  0  0  0  0  0
  146.4647  133.2436  160.3989 C   0  0  0  0  0  0  0  0  0  0  0  0
  146.9357  132.6563  159.0522 C   0  0  0  0  0  0  0  0  0  0  0  0
  145.9973  132.1203  161.3468 C   0  0  0  0  0  0  0  0  0  0  0  0
  145.3300  134.0089  160.0444 O   0  0  0  0  0  0  0  0  0  0  0  0
  150.1139  139.2279  157.1357 C   0  0  0  0  0  0  0  0  0  0  0  0
  149.1656  139.9023  157.9484 C   0  0  0  0  0  0  0  0  0  0  0  0
  148.8591  141.2543  157.6934 C   0  0  0  0  0  0  0  0  0  0  0  0
  149.4676  141.9044  156.6799 N   0  3  0  0  0  0  0  0  0  0  0  0
  150.3762  141.3121  155.8780 C   0  0  0  0  0  0  0  0  0  0  0  0
  150.7197  139.9611  156.0849 C   0  0  0  0  0  0  0  0  0  0  0  0
  151.3372  136.4144  158.8590 H   0  0  0  0  0  0  0  0  0  0  0  0
  150.4126  137.7306  159.5475 H   0  0  0  0  0  0  0  0  0  0  0  0
  152.0162  138.0307  158.8863 H   0  0  0  0  0  0  0  0  0  0  0  0
  151.8368  136.2823  156.4373 H   0  0  0  0  0  0  0  0  0  0  0  0
  152.4415  137.9323  156.3882 H   0  0  0  0  0  0  0  0  0  0  0  0
  151.1780  137.4187  155.2788 H   0  0  0  0  0  0  0  0  0  0  0  0
  148.4935  137.3564  156.5265 H   0  0  0  0  0  0  0  0  0  0  0  0
  149.4753  135.9294  156.6273 H   0  0  0  0  0  0  0  0  0  0  0  0
  148.0545  137.3250  158.8575 H   0  0  0  0  0  0  0  0  0  0  0  0
  148.5124  137.3364  160.8638 H   0  0  0  0  0  0  0  0  0  0  0  0
  146.7641  137.0895  160.8141 H   0  0  0  0  0  0  0  0  0  0  0  0
  148.7818  136.0400  162.8223 H   0  0  0  0  0  0  0  0  0  0  0  0
  147.2246  136.7983  163.1657 H   0  0  0  0  0  0  0  0  0  0  0  0
  147.4176  134.1052  163.2257 H   0  0  0  0  0  0  0  0  0  0  0  0
  146.0339  134.8724  162.4559 H   0  0  0  0  0  0  0  0  0  0  0  0
  148.4690  133.6482  161.1737 H   0  0  0  0  0  0  0  0  0  0  0  0
  147.7633  131.9581  159.1773 H   0  0  0  0  0  0  0  0  0  0  0  0
  147.2658  133.4412  158.3702 H   0  0  0  0  0  0  0  0  0  0  0  0
  146.1349  132.1072  158.5548 H   0  0  0  0  0  0  0  0  0  0  0  0
  146.8315  131.4954  161.6646 H   0  0  0  0  0  0  0  0  0  0  0  0
  145.2709  131.4692  160.8591 H   0  0  0  0  0  0  0  0  0  0  0  0
  145.5202  132.5146  162.2441 H   0  0  0  0  0  0  0  0  0  0  0  0
  145.4411  134.3217  159.1597 H   0  0  0  0  0  0  0  0  0  0  0  0
  148.6583  139.4110  158.7642 H   0  0  0  0  0  0  0  0  0  0  0  0
  148.1480  141.8309  158.2670 H   0  0  0  0  0  0  0  0  0  0  0  0
  150.7966  141.9308  155.0985 H   0  0  0  0  0  0  0  0  0  0  0  0
  151.4422  139.4951  155.4314 H   0  0  0  0  0  0  0  0  0  0  0  0
  149.2310  142.8829  156.5133 H   0  0  0  0  0  0  0  0  0  0  0  0
  1  2  1  0  0  0  0
  1 23  1  0  0  0  0
  1 24  1  0  0  0  0
  1 25  1  0  0  0  0
  2  3  1  0  0  0  0
  2  4  1  0  0  0  0
  2 17  1  0  0  0  0
  3 26  1  0  0  0  0
  3 27  1  0  0  0  0
  3 28  1  0  0  0  0
  4  5  1  0  0  0  0
  4 29  1  0  0  0  0
  4 30  1  0  0  0  0
  5  6  1  0  0  0  0
  5 31  1  0  0  0  0
  6  7  2  0  0  0  0
  6  8  1  0  0  0  0
  8 12  1  0  0  0  0
  8  9  1  0  0  0  0
  9 10  1  0  0  0  0
  9 32  1  0  0  0  0
  9 33  1  0  0  0  0
 10 11  1  0  0  0  0
 10 34  1  0  0  0  0
 10 35  1  0  0  0  0
 11 12  1  0  0  0  0
 11 36  1  0  0  0  0
 11 37  1  0  0  0  0
 12 13  1  0  0  0  0
 12 38  1  0  0  0  0
 13 14  1  0  0  0  0
 13 15  1  0  0  0  0
 13 16  1  0  0  0  0
 14 39  1  0  0  0  0
 14 40  1  0  0  0  0
 14 41  1  0  0  0  0
 15 42  1  0  0  0  0
 15 43  1  0  0  0  0
 15 44  1  0  0  0  0
 16 45  1  0  0  0  0
 17 22  1  0  0  0  0
 17 18  2  0  0  0  0
 18 19  1  0  0  0  0
 18 46  1  0  0  0  0
 19 20  2  0  0  0  0
 19 47  1  0  0  0  0
 20 21  1  0  0  0  0
 20 50  1  0  0  0  0
 21 22  2  0  0  0  0
 21 48  1  0  0  0  0
 22 49  1  0  0  0  0
M  CHG  1  20   1
M  END
> <s_m_source_file>
AV-unprocessed.smi

> <i_m_source_file_index>
2331

> <i_lp_mmshare_version>
43012

> <i_f3d_flags>
0

> <s_epik_input>
W2NIXTFbY0hdbltjSF1bY0hdYzFDKFtDSDNdKShbQ0gzXSlbQ0gyXVtOSF1DKD1PKU4yW0NIMl1bQ0gyXVtDSDJdW0NASF0yQyhbQ0gzXSkoW0NIM10pW09IXQ==

> <s_epik_cmdline>
J2VwaWtfcHl0aG9uJywgJy1waCcsICc3LjAnLCAnLXRuJywgJzgnLCAnLW1hJywgJzIwMCcsICctbWV0YWxfYmluZGluZycsICctaW1hZScsICc8aW5maWxlLm1hZT4nLCAnLW9tYWUnLCAnPG91dGZpbGUubWFlPic=

> <r_epik_Ionization_Penalty>
1.40501

> <r_epik_Ionization_Penalty_Charging>
1.40494

> <r_epik_Ionization_Penalty_Neutral>
7.00889e-05

> <r_epik_State_Penalty>
1.48741

> <r_epik_Charging_Adjusted_Penalty>
2.89235

> <i_epik_Tot_Q>
1

> <i_epik_Tot_abs_Q>
1

> <r_epik_Metal_State_Penalty>
1.54092

> <b_epik_Metal_Only>
0

> <s_lp_Force_Field>
OPLS_2005

> <r_lp_Energy>
55.517

> <b_lp_Chiralities_Consistent>
1

> <s_lp_Variant>
AV-unprocessed.smi:2331-3

> <Gold.Version>
5.8.1

> <Gold.Id.Protein>
6NUR|6NUR_protein|mol2

> <Gold.PLP.Fitness>
36.3845

> <Gold.PLP.PLP>
-29.6709

> <Gold.PLP.part.hbond>
-2.0000

> <Gold.PLP.part.metal>
0.0000

> <Gold.PLP.part.buried>
-3.8244

> <Gold.PLP.part.nonpolar>
-24.2860

> <Gold.PLP.part.repulsive>
0.1233

> <Gold.PLP.ligand.clash>
0.8829

> <Gold.PLP.ligand.torsion>
0.9745

> <Gold.PLP.Chemscore.Hbond>
3.0000

> <Gold.PLP.Chemscore.CHOScore>
0.0000

> <Gold.PLP.Chemscore.Metal>
0.0000

> <Gold.Chemscore.Hbonds>
donor molecule, donor type, donor heavy atom, donor atom, acceptor molecule, acceptor atom, score
      L1  H    20    50       P1  8028  1.89
      P1  H  6896  6908       L1     7  1.00

> <Gold.PLP.Chemscore.Internal.Correction>
0.5456

> <Gold.Rescore>
     Score         DG    S(hbond)    S(metal)    S(lipo)     H(rot)  DE(clash)    DE(int)     intcor
     13.72     -16.22       1.97        0.00      79.86       2.02       0.01       2.48       ----

> <Gold.Chemscore.Fitness>
13.7249

> <Gold.Chemscore.DG>
-16.2222

> <Gold.Chemscore.ZeroCoef>
-5.4800

> <Gold.Chemscore.Hbond>
1.9665

> <Gold.Chemscore.Metal>
0.0000

> <Gold.Chemscore.Lipo>
79.8569

> <Gold.Chemscore.Internal_Hbond>
0.0000

> <Gold.Chemscore.DEClash>
0.0126

> <Gold.Chemscore.DEInternal>
2.4846

> <Gold.Chemscore.Rot>
2.0192

> <Gold.Chemscore.Internal.Correction>
   9.000000E+99

> <Gold.Chemscore.Hbonds>
donor molecule, donor type, donor heavy atom, donor atom, acceptor molecule, acceptor atom, score
      L1  H    20    50       P1  8028  0.90
      P1  H  6896  6908       L1     7  0.26

> <Gold.Chemscore.Hbond.Weighted>
-6.5680

> <Gold.Chemscore.Metal.Weighted>
-0.0000

> <Gold.Chemscore.Lipo.Weighted>
-9.3433

> <Gold.Chemscore.Internal_Hbond.Weighted>
0.0000

> <Gold.Chemscore.DEClash.Weighted>
0.0126

> <Gold.Chemscore.DEInternal.Weighted>
2.4846

> <Gold.Chemscore.Rot.Weighted>
5.1691

> <Gold.Chemscore.Internal.Correction.Weighted>
   9.000000E+99

> <Gold.Protein.RotatedTorsions>
[ 6907 6896 6895 6894 ] final  156.64 input  -60.11 | X-H torsion
[ 7974 7965 7964 7962 ] final   55.52 input  175.53 | X-H torsion
[ 8008 7997 7996 7995 ] final  -63.03 input   59.86 | X-H torsion
[ 10167 10162 10161 10158 ] final  154.60 input  -65.29 | X-H torsion
[ 10718 10713 10712 10709 ] final -132.45 input   66.30 | X-H torsion
[ 10763 10752 10751 10750 ] final  176.51 input  -60.55 | X-H torsion
[ 11005 11000 10999 10996 ] final -113.71 input  -57.11 | X-H torsion

> <Gold.Protein.ActiveResidues>
 VAL166  LYS551  ARG553  GLY616  TRP617  ASP618  TYR619  PRO620  LYS621  CYS622 
 ASP623  PHE694  ASN695  SER759  ASP760  ASP761  ALA762  ILE779  LEU786  VAL792 
 PHE793  MET794  SER795  GLU796  ALA797  LYS798  CYS799  TRP800  GLU811  SER814 

> <Gold.Protein.RotatedAtoms>
  152.0267  133.3920  159.4280 H   0  0  0  0  0  0  0  0  0  0  0  0  # atno 6907 bound_to 6896
  150.6885  134.3566  159.4941 H   0  0  0  0  0  0  0  0  0  0  0  0  # atno 6908 bound_to 6896
  152.1347  134.9108  160.0607 H   0  0  0  0  0  0  0  0  0  0  0  0  # atno 6909 bound_to 6896
  145.9495  139.3959  143.0314 H   0  0  0  0  0  0  0  0  0  0  0  0  # atno 7974 bound_to 7965
  154.4532  140.0983  156.6680 H   0  0  0  0  0  0  0  0  0  0  0  0  # atno 8008 bound_to 7997
  155.5220  140.3479  155.4390 H   0  0  0  0  0  0  0  0  0  0  0  0  # atno 8009 bound_to 7997
  156.0724  140.1352  156.9801 H   0  0  0  0  0  0  0  0  0  0  0  0  # atno 8010 bound_to 7997
  139.4823  144.5172  151.7932 H   0  0  0  0  0  0  0  0  0  0  0  0  # atno 10167 bound_to 10162
  156.2347  130.7059  151.0895 H   0  0  0  0  0  0  0  0  0  0  0  0  # atno 10718 bound_to 10713
  154.4821  135.2775  155.1562 H   0  0  0  0  0  0  0  0  0  0  0  0  # atno 10763 bound_to 10752
  154.3268  135.6198  153.5536 H   0  0  0  0  0  0  0  0  0  0  0  0  # atno 10764 bound_to 10752
  152.9876  135.5756  154.5224 H   0  0  0  0  0  0  0  0  0  0  0  0  # atno 10765 bound_to 10752
  141.0597  133.9555  157.2689 H   0  0  0  0  0  0  0  0  0  0  0  0  # atno 11005 bound_to 11000
  145.8190  140.9688  143.0908 LP  0  0  0  0  0  0  0  0  0  0  0  0  # atno 17320 bound_to 7965
  144.6793  140.0018  143.7484 LP  0  0  0  0  0  0  0  0  0  0  0  0  # atno 17321 bound_to 7965
  140.4682  144.1624  150.5914 LP  0  0  0  0  0  0  0  0  0  0  0  0  # atno 17342 bound_to 10162
  140.4411  143.2526  151.9472 LP  0  0  0  0  0  0  0  0  0  0  0  0  # atno 17343 bound_to 10162
  157.7149  131.0715  150.6364 LP  0  0  0  0  0  0  0  0  0  0  0  0  # atno 17370 bound_to 10713
  156.6434  130.4465  149.5744 LP  0  0  0  0  0  0  0  0  0  0  0  0  # atno 17371 bound_to 10713
  139.9422  135.0189  156.8742 LP  0  0  0  0  0  0  0  0  0  0  0  0  # atno 17394 bound_to 11000
  140.5893  134.0277  155.7493 LP  0  0  0  0  0  0  0  0  0  0  0  0  # atno 17395 bound_to 11000

$$$$
