AV-unprocessed.smi:2457|AV-procd|sdf|9707|dock2
  -GOLD-   2272013343D 1   1.00000     0.00000
 Structure written by MMmdl.
 40 41  0  0  0  0  0  0  0  0  1 V2000
  145.0939  144.7716  152.9566 C   0  0  0  0  0  0  0  0  0  0  0  0
  145.4196  143.6413  153.8807 C   0  0  0  0  0  0  0  0  0  0  0  0
  144.9436  143.4509  155.1537 C   0  0  0  0  0  0  0  0  0  0  0  0
  145.5955  142.0090  155.8811 S   0  0  0  0  0  0  0  0  0  0  0  0
  146.5094  141.7125  154.4054 C   0  0  0  0  0  0  0  0  0  0  0  0
  147.4645  140.5672  154.2478 C   0  0  1  0  0  0  0  0  0  0  0  0
  146.9996  139.5722  153.1749 C   0  0  0  0  0  0  0  0  0  0  0  0
  148.9309  141.0158  154.0573 C   0  0  0  0  0  0  0  0  0  0  0  0
  149.3468  141.9836  155.0714 N   0  0  0  0  0  0  0  0  0  0  0  0
  150.2558  141.7577  156.0310 C   0  0  0  0  0  0  0  0  0  0  0  0
  150.7848  140.6661  156.2415 O   0  0  0  0  0  0  0  0  0  0  0  0
  150.5547  142.8767  156.7046 N   0  0  0  0  0  0  0  0  0  0  0  0
  151.5942  142.9853  157.7236 C   0  0  1  0  0  0  0  0  0  0  0  0
  151.4368  144.3095  158.5016 C   0  0  0  0  0  0  0  0  0  0  0  0
  152.5419  144.5111  159.5506 C   0  0  0  0  0  0  0  0  0  0  0  0
  152.5488  143.4035  160.6140 C   0  0  0  0  0  0  0  0  0  0  0  0
  152.8707  141.7804  159.8720 S   0  0  0  0  0  0  0  0  0  0  0  0
  151.5236  141.7646  158.6569 C   0  0  0  0  0  0  0  0  0  0  0  0
  146.3029  142.6410  153.4664 N   0  0  0  0  0  0  0  0  0  0  0  0
  144.2724  145.3766  153.3410 H   0  0  0  0  0  0  0  0  0  0  0  0
  144.8009  144.4051  151.9725 H   0  0  0  0  0  0  0  0  0  0  0  0
  145.9539  145.4285  152.8236 H   0  0  0  0  0  0  0  0  0  0  0  0
  144.2548  144.0714  155.7078 H   0  0  0  0  0  0  0  0  0  0  0  0
  147.4342  140.0228  155.1927 H   0  0  0  0  0  0  0  0  0  0  0  0
  145.9980  139.1999  153.3926 H   0  0  0  0  0  0  0  0  0  0  0  0
  147.6677  138.7126  153.1207 H   0  0  0  0  0  0  0  0  0  0  0  0
  146.9758  140.0361  152.1882 H   0  0  0  0  0  0  0  0  0  0  0  0
  149.5934  140.1521  154.1204 H   0  0  0  0  0  0  0  0  0  0  0  0
  149.0674  141.4284  153.0562 H   0  0  0  0  0  0  0  0  0  0  0  0
  148.9709  142.9165  154.9871 H   0  0  0  0  0  0  0  0  0  0  0  0
  150.0675  143.7258  156.4586 H   0  0  0  0  0  0  0  0  0  0  0  0
  152.5684  142.9773  157.2307 H   0  0  0  0  0  0  0  0  0  0  0  0
  151.4569  145.1508  157.8074 H   0  0  0  0  0  0  0  0  0  0  0  0
  150.4606  144.3422  158.9875 H   0  0  0  0  0  0  0  0  0  0  0  0
  153.5142  144.5559  159.0582 H   0  0  0  0  0  0  0  0  0  0  0  0
  152.4014  145.4761  160.0385 H   0  0  0  0  0  0  0  0  0  0  0  0
  153.3163  143.6030  161.3622 H   0  0  0  0  0  0  0  0  0  0  0  0
  151.5925  143.3723  161.1372 H   0  0  0  0  0  0  0  0  0  0  0  0
  150.5707  141.7402  159.1868 H   0  0  0  0  0  0  0  0  0  0  0  0
  151.5944  140.8406  158.0820 H   0  0  0  0  0  0  0  0  0  0  0  0
  1  2  1  0  0  0  0
  1 20  1  0  0  0  0
  1 21  1  0  0  0  0
  1 22  1  0  0  0  0
  2 19  1  0  0  0  0
  2  3  2  0  0  0  0
  3  4  1  0  0  0  0
  3 23  1  0  0  0  0
  4  5  1  0  0  0  0
  5  6  1  0  0  0  0
  5 19  2  0  0  0  0
  6  7  1  0  0  0  0
  6  8  1  0  0  0  0
  6 24  1  0  0  0  0
  7 25  1  0  0  0  0
  7 26  1  0  0  0  0
  7 27  1  0  0  0  0
  8  9  1  0  0  0  0
  8 28  1  0  0  0  0
  8 29  1  0  0  0  0
  9 10  1  0  0  0  0
  9 30  1  0  0  0  0
 10 11  2  0  0  0  0
 10 12  1  0  0  0  0
 12 13  1  0  0  0  0
 12 31  1  0  0  0  0
 13 18  1  0  0  0  0
 13 14  1  0  0  0  0
 13 32  1  0  0  0  0
 14 15  1  0  0  0  0
 14 33  1  0  0  0  0
 14 34  1  0  0  0  0
 15 16  1  0  0  0  0
 15 35  1  0  0  0  0
 15 36  1  0  0  0  0
 16 17  1  0  0  0  0
 16 37  1  0  0  0  0
 16 38  1  0  0  0  0
 17 18  1  0  0  0  0
 18 39  1  0  0  0  0
 18 40  1  0  0  0  0
M  END
> <s_m_source_file>
AV-unprocessed.smi

> <i_m_source_file_index>
2457

> <i_lp_mmshare_version>
43012

> <i_f3d_flags>
0

> <s_epik_input>
W0NIM11jMVtjSF1zYyhuMSlbQ0BIXShbQ0gzXSlbQ0gyXVtOSF1DKD1PKVtOSF1bQ0BASF0yW0NIMl1bQ0gyXVtDSDJdU1tDSDJdMg==

> <s_epik_cmdline>
J2VwaWtfcHl0aG9uJywgJy1waCcsICc3LjAnLCAnLXRuJywgJzgnLCAnLW1hJywgJzIwMCcsICctbWV0YWxfYmluZGluZycsICctaW1hZScsICc8aW5maWxlLm1hZT4nLCAnLW9tYWUnLCAnPG91dGZpbGUubWFlPic=

> <r_epik_Ionization_Penalty>
0.00154805

> <r_epik_Ionization_Penalty_Charging>
0

> <r_epik_Ionization_Penalty_Neutral>
0.00154805

> <r_epik_State_Penalty>
0.00100357

> <r_epik_Charging_Adjusted_Penalty>
0.00100357

> <i_epik_Tot_Q>
0

> <i_epik_Tot_abs_Q>
0

> <r_epik_Metal_State_Penalty>
-0

> <b_epik_Metal_Only>
0

> <s_lp_Force_Field>
OPLS_2005

> <r_lp_Energy>
-7.34104

> <b_lp_Chiralities_Consistent>
1

> <s_lp_Variant>
AV-unprocessed.smi:2457-4

> <Gold.Version>
5.8.1

> <Gold.Id.Protein>
6NUR|6NUR_protein|mol2

> <Gold.PLP.Fitness>
49.4702

> <Gold.PLP.PLP>
-43.9067

> <Gold.PLP.part.hbond>
-2.0000

> <Gold.PLP.part.metal>
0.0000

> <Gold.PLP.part.buried>
-5.0263

> <Gold.PLP.part.nonpolar>
-37.7257

> <Gold.PLP.part.repulsive>
0.4791

> <Gold.PLP.ligand.clash>
0.0000

> <Gold.PLP.ligand.torsion>
0.2800

> <Gold.PLP.Chemscore.Hbond>
2.0000

> <Gold.PLP.Chemscore.CHOScore>
0.0000

> <Gold.PLP.Chemscore.Metal>
0.0000

> <Gold.Chemscore.Hbonds>
donor molecule, donor type, donor heavy atom, donor atom, acceptor molecule, acceptor atom, score
      L1  H     9    30       P1  8028  0.99
      L1  H    12    31       P1  8028  1.00

> <Gold.PLP.Chemscore.Internal.Correction>
0.1235

> <Gold.Rescore>
     Score         DG    S(hbond)    S(metal)    S(lipo)     H(rot)  DE(clash)    DE(int)     intcor
     20.27     -21.69       1.96        0.00     114.61       1.46       0.22       1.20       ----

> <Gold.Chemscore.Fitness>
20.2725

> <Gold.Chemscore.DG>
-21.6918

> <Gold.Chemscore.ZeroCoef>
-5.4800

> <Gold.Chemscore.Hbond>
1.9594

> <Gold.Chemscore.Metal>
0.0000

> <Gold.Chemscore.Lipo>
114.6083

> <Gold.Chemscore.Internal_Hbond>
0.0000

> <Gold.Chemscore.DEClash>
0.2173

> <Gold.Chemscore.DEInternal>
1.2020

> <Gold.Chemscore.Rot>
1.4616

> <Gold.Chemscore.Internal.Correction>
   9.000000E+99

> <Gold.Chemscore.Hbonds>
donor molecule, donor type, donor heavy atom, donor atom, acceptor molecule, acceptor atom, score
      L1  H     9    30       P1  8028  0.94
      L1  H    12    31       P1  8028  0.99

> <Gold.Chemscore.Hbond.Weighted>
-6.5443

> <Gold.Chemscore.Metal.Weighted>
-0.0000

> <Gold.Chemscore.Lipo.Weighted>
-13.4092

> <Gold.Chemscore.Internal_Hbond.Weighted>
0.0000

> <Gold.Chemscore.DEClash.Weighted>
0.2173

> <Gold.Chemscore.DEInternal.Weighted>
1.2020

> <Gold.Chemscore.Rot.Weighted>
3.7416

> <Gold.Chemscore.Internal.Correction.Weighted>
   9.000000E+99

> <Gold.Protein.RotatedTorsions>
[ 6907 6896 6895 6894 ] final -176.07 input  -60.11 | X-H torsion
[ 7974 7965 7964 7962 ] final -111.45 input  175.53 | X-H torsion
[ 8008 7997 7996 7995 ] final  158.04 input   59.86 | X-H torsion
[ 10167 10162 10161 10158 ] final -141.17 input  -65.29 | X-H torsion
[ 10718 10713 10712 10709 ] final  -71.94 input   66.30 | X-H torsion
[ 10763 10752 10751 10750 ] final  131.45 input  -60.55 | X-H torsion
[ 11005 11000 10999 10996 ] final  -17.45 input  -57.11 | X-H torsion

> <Gold.Protein.ActiveResidues>
 VAL166  LYS551  ARG553  GLY616  TRP617  ASP618  TYR619  PRO620  LYS621  CYS622 
 ASP623  PHE694  ASN695  SER759  ASP760  ASP761  ALA762  ILE779  LEU786  VAL792 
 PHE793  MET794  SER795  GLU796  ALA797  LYS798  CYS799  TRP800  GLU811  SER814 

> <Gold.Protein.RotatedAtoms>
  151.5988  133.3358  159.3042 H   0  0  0  0  0  0  0  0  0  0  0  0  # atno 6907 bound_to 6896
  150.8219  134.7435  159.6791 H   0  0  0  0  0  0  0  0  0  0  0  0  # atno 6908 bound_to 6896
  152.4312  134.5780  159.9991 H   0  0  0  0  0  0  0  0  0  0  0  0  # atno 6909 bound_to 6896
  145.1559  140.8853  143.3619 H   0  0  0  0  0  0  0  0  0  0  0  0  # atno 7974 bound_to 7965
  156.2327  140.1869  156.7201 H   0  0  0  0  0  0  0  0  0  0  0  0  # atno 8008 bound_to 7997
  154.6051  140.0630  156.9447 H   0  0  0  0  0  0  0  0  0  0  0  0  # atno 8009 bound_to 7997
  155.2110  140.3300  155.4331 H   0  0  0  0  0  0  0  0  0  0  0  0  # atno 8010 bound_to 7997
  139.8211  143.7573  152.2666 H   0  0  0  0  0  0  0  0  0  0  0  0  # atno 10167 bound_to 10162
  156.0341  130.4362  150.2519 H   0  0  0  0  0  0  0  0  0  0  0  0  # atno 10718 bound_to 10713
  153.7746  135.3177  155.3357 H   0  0  0  0  0  0  0  0  0  0  0  0  # atno 10763 bound_to 10752
  154.8184  135.4620  154.0711 H   0  0  0  0  0  0  0  0  0  0  0  0  # atno 10764 bound_to 10752
  153.1981  135.6918  153.8351 H   0  0  0  0  0  0  0  0  0  0  0  0  # atno 10765 bound_to 10752
  140.8170  133.8097  155.9620 H   0  0  0  0  0  0  0  0  0  0  0  0  # atno 11005 bound_to 11000
  145.0382  139.3283  143.5990 LP  0  0  0  0  0  0  0  0  0  0  0  0  # atno 17320 bound_to 7965
  146.3489  139.9745  142.8702 LP  0  0  0  0  0  0  0  0  0  0  0  0  # atno 17321 bound_to 7965
  139.7751  144.7463  151.0168 LP  0  0  0  0  0  0  0  0  0  0  0  0  # atno 17342 bound_to 10162
  140.7813  143.4602  151.0289 LP  0  0  0  0  0  0  0  0  0  0  0  0  # atno 17343 bound_to 10162
  157.0619  131.0092  151.3219 LP  0  0  0  0  0  0  0  0  0  0  0  0  # atno 17370 bound_to 10713
  157.5064  130.7911  149.7658 LP  0  0  0  0  0  0  0  0  0  0  0  0  # atno 17371 bound_to 10713
  140.9139  134.2226  157.4969 LP  0  0  0  0  0  0  0  0  0  0  0  0  # atno 17394 bound_to 11000
  139.8710  134.9762  156.4913 LP  0  0  0  0  0  0  0  0  0  0  0  0  # atno 17395 bound_to 11000

$$$$
