AV-unprocessed.smi:2044|AV-procd|sdf|8304|dock3
  -GOLD-   2272010573D 1   1.00000     0.00000
 Structure written by MMmdl.
 39 40  0  0  0  0  0  0  0  0  3 V2000
  146.8418  135.7244  162.9555 C   0  0  0  0  0  0  0  0  0  0  0  0
  147.4856  135.7713  161.6119 C   0  0  0  0  0  0  0  0  0  0  0  0
  147.9922  134.8038  160.7911 C   0  0  0  0  0  0  0  0  0  0  0  0
  148.4434  135.5400  159.6613 C   0  0  0  0  0  0  0  0  0  0  0  0
  149.0359  135.0311  158.5699 N   0  5  0  0  0  0  0  0  0  0  0  0
  148.7803  135.5558  157.3500 C   0  0  0  0  0  0  0  0  0  0  0  0
  148.4127  136.7079  157.1091 O   0  0  0  0  0  0  0  0  0  0  0  0
  148.9643  134.6915  156.3434 N   0  0  0  0  0  0  0  0  0  0  0  0
  148.7821  134.9973  154.9290 C   0  0  0  0  0  0  0  0  0  0  0  0
  147.9855  133.8950  154.1820 C   0  0  2  0  0  0  0  0  0  0  0  0
  148.9209  132.7184  153.8080 C   0  0  0  0  0  0  0  0  0  0  0  0
  147.2694  134.4268  152.9739 N   0  3  0  0  0  0  0  0  0  0  0  0
  146.7744  133.3578  152.0615 C   0  0  0  0  0  0  0  0  0  0  0  0
  146.0743  133.9493  150.8270 C   0  0  0  0  0  0  0  0  0  0  0  0
  145.0032  134.7827  151.2387 O   0  0  0  0  0  0  0  0  0  0  0  0
  145.4737  135.8796  152.0051 C   0  0  0  0  0  0  0  0  0  0  0  0
  146.1578  135.3697  153.2847 C   0  0  0  0  0  0  0  0  0  0  0  0
  148.2454  136.8407  159.7937 N   0  0  0  0  0  0  0  0  0  0  0  0
  147.6251  136.9971  161.0389 O   0  0  0  0  0  0  0  0  0  0  0  0
  147.4991  135.2459  163.6815 H   0  0  0  0  0  0  0  0  0  0  0  0
  145.9109  135.1585  162.9167 H   0  0  0  0  0  0  0  0  0  0  0  0
  146.6127  136.7269  163.3176 H   0  0  0  0  0  0  0  0  0  0  0  0
  148.0298  133.7392  160.9668 H   0  0  0  0  0  0  0  0  0  0  0  0
  149.2648  133.7574  156.5809 H   0  0  0  0  0  0  0  0  0  0  0  0
  148.2604  135.9533  154.9020 H   0  0  0  0  0  0  0  0  0  0  0  0
  149.7538  135.1394  154.4526 H   0  0  0  0  0  0  0  0  0  0  0  0
  147.2290  133.5152  154.8711 H   0  0  0  0  0  0  0  0  0  0  0  0
  149.5080  132.3702  154.6573 H   0  0  0  0  0  0  0  0  0  0  0  0
  149.6229  133.0059  153.0247 H   0  0  0  0  0  0  0  0  0  0  0  0
  148.3714  131.8427  153.4669 H   0  0  0  0  0  0  0  0  0  0  0  0
  147.5920  132.7368  151.7011 H   0  0  0  0  0  0  0  0  0  0  0  0
  146.0869  132.7057  152.6024 H   0  0  0  0  0  0  0  0  0  0  0  0
  146.7777  134.5119  150.2107 H   0  0  0  0  0  0  0  0  0  0  0  0
  145.6766  133.1488  150.2028 H   0  0  0  0  0  0  0  0  0  0  0  0
  146.1592  136.4882  151.4129 H   0  0  0  0  0  0  0  0  0  0  0  0
  144.6276  136.5171  152.2624 H   0  0  0  0  0  0  0  0  0  0  0  0
  145.4290  134.8763  153.9298 H   0  0  0  0  0  0  0  0  0  0  0  0
  146.5238  136.2468  153.8154 H   0  0  0  0  0  0  0  0  0  0  0  0
  147.9514  134.9584  152.4519 H   0  0  0  0  0  0  0  0  0  0  0  0
  1  2  1  0  0  0  0
  1 20  1  0  0  0  0
  1 21  1  0  0  0  0
  1 22  1  0  0  0  0
  2 19  1  0  0  0  0
  2  3  2  0  0  0  0
  3  4  1  0  0  0  0
  3 23  1  0  0  0  0
  4  5  1  0  0  0  0
  4 18  2  0  0  0  0
  5  6  1  0  0  0  0
  6  7  2  0  0  0  0
  6  8  1  0  0  0  0
  8  9  1  0  0  0  0
  8 24  1  0  0  0  0
  9 10  1  0  0  0  0
  9 25  1  0  0  0  0
  9 26  1  0  0  0  0
 10 11  1  0  0  0  0
 10 12  1  0  0  0  0
 10 27  1  0  0  0  0
 11 28  1  0  0  0  0
 11 29  1  0  0  0  0
 11 30  1  0  0  0  0
 12 17  1  0  0  0  0
 12 13  1  0  0  0  0
 12 39  1  0  0  0  0
 13 14  1  0  0  0  0
 13 31  1  0  0  0  0
 13 32  1  0  0  0  0
 14 15  1  0  0  0  0
 14 33  1  0  0  0  0
 14 34  1  0  0  0  0
 15 16  1  0  0  0  0
 16 17  1  0  0  0  0
 16 35  1  0  0  0  0
 16 36  1  0  0  0  0
 17 37  1  0  0  0  0
 17 38  1  0  0  0  0
 18 19  1  0  0  0  0
M  CHG  1   5  -1
M  CHG  1  12   1
M  END
> <s_m_source_file>
AV-unprocessed.smi

> <i_m_source_file_index>
2044

> <i_lp_mmshare_version>
43012

> <i_f3d_flags>
0

> <s_epik_input>
W0NIM11jMVtjSF1jKG5vMSlbTkhdQyg9TylbTkhdW0NIMl1bQ0BIXShbQ0gzXSlOMltDSDJdW0NIMl1PW0NIMl1bQ0gyXTI=

> <s_epik_cmdline>
J2VwaWtfcHl0aG9uJywgJy1waCcsICc3LjAnLCAnLXRuJywgJzgnLCAnLW1hJywgJzIwMCcsICctbWV0YWxfYmluZGluZycsICctaW1hZScsICc8aW5maWxlLm1hZT4nLCAnLW9tYWUnLCAnPG91dGZpbGUubWFlPic=

> <r_epik_Ionization_Penalty>
6.73014

> <r_epik_Ionization_Penalty_Charging>
6.73004

> <r_epik_Ionization_Penalty_Neutral>
9.51297e-05

> <r_epik_State_Penalty>
6.93052

> <r_epik_Charging_Adjusted_Penalty>
13.6606

> <i_epik_Tot_Q>
0

> <i_epik_Tot_abs_Q>
2

> <r_epik_Metal_State_Penalty>
2.86736

> <b_epik_Metal_Only>
1

> <s_lp_Force_Field>
OPLS_2005

> <r_lp_Energy>
9.04271

> <b_lp_Chiralities_Consistent>
1

> <s_lp_Variant>
AV-unprocessed.smi:2044-7

> <Gold.Version>
5.8.1

> <Gold.Id.Protein>
6NUR|6NUR_protein|mol2

> <Gold.PLP.Fitness>
42.4088

> <Gold.PLP.PLP>
-26.9426

> <Gold.PLP.part.hbond>
-4.2562

> <Gold.PLP.part.metal>
0.0000

> <Gold.PLP.part.buried>
-3.1769

> <Gold.PLP.part.nonpolar>
-19.6055

> <Gold.PLP.part.repulsive>
0.2048

> <Gold.PLP.ligand.clash>
0.0000

> <Gold.PLP.ligand.torsion>
0.9290

> <Gold.PLP.Chemscore.Hbond>
5.7480

> <Gold.PLP.Chemscore.CHOScore>
0.0000

> <Gold.PLP.Chemscore.Metal>
0.0000

> <Gold.Chemscore.Hbonds>
donor molecule, donor type, donor heavy atom, donor atom, acceptor molecule, acceptor atom, score
      L1  H    12    39       P1  7948  2.00
      P1  H  6896  6908       L1     5  1.70
      P1  H  6931  6943       L1    19  0.79
      P1  H  6934  6947       L1    19  0.80

> <Gold.PLP.Chemscore.Internal.Correction>
0.0803

> <Gold.Rescore>
     Score         DG    S(hbond)    S(metal)    S(lipo)     H(rot)  DE(clash)    DE(int)     intcor
     13.34     -15.84       2.36        0.00      56.05       1.59       0.05       2.45       ----

> <Gold.Chemscore.Fitness>
13.3378

> <Gold.Chemscore.DG>
-15.8437

> <Gold.Chemscore.ZeroCoef>
-5.4800

> <Gold.Chemscore.Hbond>
2.3604

> <Gold.Chemscore.Metal>
0.0000

> <Gold.Chemscore.Lipo>
56.0506

> <Gold.Chemscore.Internal_Hbond>
0.0000

> <Gold.Chemscore.DEClash>
0.0536

> <Gold.Chemscore.DEInternal>
2.4522

> <Gold.Chemscore.Rot>
1.5930

> <Gold.Chemscore.Internal.Correction>
   9.000000E+99

> <Gold.Chemscore.Hbonds>
donor molecule, donor type, donor heavy atom, donor atom, acceptor molecule, acceptor atom, score
      L1  H    12    39       P1  7948  0.85
      P1  H  6896  6908       L1     5  0.15
      P1  H  6931  6943       L1    19  0.13
      P1  H  6934  6947       L1    19  0.17

> <Gold.Chemscore.Hbond.Weighted>
-7.8838

> <Gold.Chemscore.Metal.Weighted>
-0.0000

> <Gold.Chemscore.Lipo.Weighted>
-6.5579

> <Gold.Chemscore.Internal_Hbond.Weighted>
0.0000

> <Gold.Chemscore.DEClash.Weighted>
0.0536

> <Gold.Chemscore.DEInternal.Weighted>
2.4522

> <Gold.Chemscore.Rot.Weighted>
4.0781

> <Gold.Chemscore.Internal.Correction.Weighted>
   9.000000E+99

> <Gold.Protein.RotatedTorsions>
[ 6907 6896 6895 6894 ] final  156.03 input  -60.11 | X-H torsion
[ 7974 7965 7964 7962 ] final  -95.39 input  175.53 | X-H torsion
[ 8008 7997 7996 7995 ] final  -56.22 input   59.86 | X-H torsion
[ 10167 10162 10161 10158 ] final  134.80 input  -65.29 | X-H torsion
[ 10718 10713 10712 10709 ] final -179.79 input   66.30 | X-H torsion
[ 10763 10752 10751 10750 ] final  -83.32 input  -60.55 | X-H torsion
[ 11005 11000 10999 10996 ] final  102.43 input  -57.11 | X-H torsion

> <Gold.Protein.ActiveResidues>
 VAL166  LYS551  ARG553  GLY616  TRP617  ASP618  TYR619  PRO620  LYS621  CYS622 
 ASP623  PHE694  ASN695  SER759  ASP760  ASP761  ALA762  ILE779  LEU786  VAL792 
 PHE793  MET794  SER795  GLU796  ALA797  LYS798  CYS799  TRP800  GLU811  SER814 

> <Gold.Protein.RotatedAtoms>
  152.0355  133.3955  159.4314 H   0  0  0  0  0  0  0  0  0  0  0  0  # atno 6907 bound_to 6896
  150.6879  134.3473  159.4903 H   0  0  0  0  0  0  0  0  0  0  0  0  # atno 6908 bound_to 6896
  152.1264  134.9167  160.0611 H   0  0  0  0  0  0  0  0  0  0  0  0  # atno 6909 bound_to 6896
  145.3606  140.9491  143.2502 H   0  0  0  0  0  0  0  0  0  0  0  0  # atno 7974 bound_to 7965
  154.4222  140.1135  156.5603 H   0  0  0  0  0  0  0  0  0  0  0  0  # atno 8008 bound_to 7997
  155.6318  140.3495  155.4666 H   0  0  0  0  0  0  0  0  0  0  0  0  # atno 8009 bound_to 7997
  155.9941  140.1185  157.0600 H   0  0  0  0  0  0  0  0  0  0  0  0  # atno 8010 bound_to 7997
  139.5242  144.6549  151.5192 H   0  0  0  0  0  0  0  0  0  0  0  0  # atno 10167 bound_to 10162
  156.8643  130.9762  151.3080 H   0  0  0  0  0  0  0  0  0  0  0  0  # atno 10718 bound_to 10713
  154.5863  135.5560  153.7234 H   0  0  0  0  0  0  0  0  0  0  0  0  # atno 10763 bound_to 10752
  153.0100  135.6332  154.1912 H   0  0  0  0  0  0  0  0  0  0  0  0  # atno 10764 bound_to 10752
  154.1853  135.2885  155.3019 H   0  0  0  0  0  0  0  0  0  0  0  0  # atno 10765 bound_to 10752
  139.8777  134.9223  156.5057 H   0  0  0  0  0  0  0  0  0  0  0  0  # atno 11005 bound_to 11000
  144.8649  139.5123  143.6795 LP  0  0  0  0  0  0  0  0  0  0  0  0  # atno 17320 bound_to 7965
  146.2929  139.7191  142.9148 LP  0  0  0  0  0  0  0  0  0  0  0  0  # atno 17321 bound_to 7965
  140.6370  143.8964  150.6656 LP  0  0  0  0  0  0  0  0  0  0  0  0  # atno 17342 bound_to 10162
  140.2287  143.3753  152.1584 LP  0  0  0  0  0  0  0  0  0  0  0  0  # atno 17343 bound_to 10162
  157.6232  130.8671  149.9144 LP  0  0  0  0  0  0  0  0  0  0  0  0  # atno 17370 bound_to 10713
  156.0760  130.3679  150.0677 LP  0  0  0  0  0  0  0  0  0  0  0  0  # atno 17371 bound_to 10713
  140.8557  133.8098  155.9214 LP  0  0  0  0  0  0  0  0  0  0  0  0  # atno 17394 bound_to 11000
  140.9100  134.2273  157.4991 LP  0  0  0  0  0  0  0  0  0  0  0  0  # atno 17395 bound_to 11000

$$$$
