AV-unprocessed.smi:197|AV-procd|sdf|1545|dock6
  -GOLD-   2262019403D 1   1.00000     0.00000
 Structure written by MMmdl.
 54 57  0  0  0  0  0  0  0  0  1 V2000
  152.3834  144.2576  158.6672 C   0  0  0  0  0  0  0  0  0  0  0  0
  152.1527  142.9089  158.2902 O   0  0  0  0  0  0  0  0  0  0  0  0
  151.0533  142.7291  157.4079 C   0  0  0  0  0  0  0  0  0  0  0  0
  150.9834  141.2868  156.8729 C   0  0  0  0  0  0  0  0  0  0  0  0
  149.5514  140.8250  156.5065 C   0  0  1  0  0  0  0  0  0  0  0  0
  148.9473  141.6078  155.3199 C   0  0  0  0  0  0  0  0  0  0  0  0
  149.6346  141.2806  154.1160 O   0  0  0  0  0  0  0  0  0  0  0  0
  149.4987  139.9032  153.7833 C   0  0  0  0  0  0  0  0  0  0  0  0
  150.0956  139.0347  154.9024 C   0  0  0  0  0  0  0  0  0  0  0  0
  149.5007  139.3942  156.1891 N   0  0  0  0  0  0  0  0  0  0  0  0
  149.6553  138.5334  157.2298 C   0  0  0  0  0  0  0  0  0  0  0  0
  150.8795  138.3866  157.8044 N   0  0  0  0  0  0  0  0  0  0  0  0
  151.0465  137.5606  158.8408 C   0  0  0  0  0  0  0  0  0  0  0  0
  150.1406  136.7955  159.4518 N   0  0  0  0  0  0  0  0  0  0  0  0
  148.9112  136.9309  158.8780 C   0  0  0  0  0  0  0  0  0  0  0  0
  148.5845  137.7654  157.7711 C   0  0  0  0  0  0  0  0  0  0  0  0
  147.2390  137.6183  157.4532 N   0  0  0  0  0  0  0  0  0  0  0  0
  146.7951  136.7572  158.3269 C   0  0  0  0  0  0  0  0  0  0  0  0
  147.7289  136.3029  159.2298 N   0  0  0  0  0  0  0  0  0  0  0  0
  147.5070  135.3462  160.3031 C   0  0  0  0  0  0  0  0  0  0  0  0
  147.3240  135.9952  161.7032 C   0  0  1  0  0  0  0  0  0  0  0  0
  148.4626  136.7732  162.0200 O   0  0  0  0  0  0  0  0  0  0  0  0
  146.0814  136.8694  161.8231 C   0  0  0  0  0  0  0  0  0  0  0  0
  144.9852  135.8500  162.1176 C   0  0  0  0  0  0  0  0  0  0  0  0
  145.6253  134.7883  162.8195 O   0  0  0  0  0  0  0  0  0  0  0  0
  147.0372  134.9843  162.8303 C   0  0  1  0  0  0  0  0  0  0  0  0
  147.7740  133.6385  162.7567 C   0  0  0  0  0  0  0  0  0  0  0  0
  153.2641  144.3073  159.3073 H   0  0  0  0  0  0  0  0  0  0  0  0
  151.5473  144.6765  159.2264 H   0  0  0  0  0  0  0  0  0  0  0  0
  152.5703  144.8852  157.7950 H   0  0  0  0  0  0  0  0  0  0  0  0
  150.1177  143.0187  157.8891 H   0  0  0  0  0  0  0  0  0  0  0  0
  151.2021  143.4209  156.5798 H   0  0  0  0  0  0  0  0  0  0  0  0
  151.6451  141.1886  156.0118 H   0  0  0  0  0  0  0  0  0  0  0  0
  151.3818  140.6168  157.6338 H   0  0  0  0  0  0  0  0  0  0  0  0
  148.9166  141.0200  157.3687 H   0  0  0  0  0  0  0  0  0  0  0  0
  147.8875  141.3715  155.2107 H   0  0  0  0  0  0  0  0  0  0  0  0
  149.0014  142.6829  155.4826 H   0  0  0  0  0  0  0  0  0  0  0  0
  148.4467  139.6607  153.6248 H   0  0  0  0  0  0  0  0  0  0  0  0
  150.0144  139.7108  152.8425 H   0  0  0  0  0  0  0  0  0  0  0  0
  149.9100  137.9829  154.6807 H   0  0  0  0  0  0  0  0  0  0  0  0
  151.1770  139.1690  154.9463 H   0  0  0  0  0  0  0  0  0  0  0  0
  152.0493  137.5065  159.2385 H   0  0  0  0  0  0  0  0  0  0  0  0
  145.7648  136.4325  158.3416 H   0  0  0  0  0  0  0  0  0  0  0  0
  146.6308  134.7504  160.0444 H   0  0  0  0  0  0  0  0  0  0  0  0
  148.3502  134.6546  160.3120 H   0  0  0  0  0  0  0  0  0  0  0  0
  149.1617  136.1916  162.2768 H   0  0  0  0  0  0  0  0  0  0  0  0
  146.1742  137.5408  162.6788 H   0  0  0  0  0  0  0  0  0  0  0  0
  145.8704  137.4894  160.9531 H   0  0  0  0  0  0  0  0  0  0  0  0
  144.1691  136.2773  162.7007 H   0  0  0  0  0  0  0  0  0  0  0  0
  144.5682  135.4551  161.1905 H   0  0  0  0  0  0  0  0  0  0  0  0
  147.2689  135.4527  163.7890 H   0  0  0  0  0  0  0  0  0  0  0  0
  148.8540  133.7851  162.7306 H   0  0  0  0  0  0  0  0  0  0  0  0
  147.4875  133.0681  161.8733 H   0  0  0  0  0  0  0  0  0  0  0  0
  147.5439  133.0257  163.6282 H   0  0  0  0  0  0  0  0  0  0  0  0
  1  2  1  0  0  0  0
  1 28  1  0  0  0  0
  1 29  1  0  0  0  0
  1 30  1  0  0  0  0
  2  3  1  0  0  0  0
  3  4  1  0  0  0  0
  3 31  1  0  0  0  0
  3 32  1  0  0  0  0
  4  5  1  0  0  0  0
  4 33  1  0  0  0  0
  4 34  1  0  0  0  0
  5 10  1  0  0  0  0
  5  6  1  0  0  0  0
  5 35  1  0  0  0  0
  6  7  1  0  0  0  0
  6 36  1  0  0  0  0
  6 37  1  0  0  0  0
  7  8  1  0  0  0  0
  8  9  1  0  0  0  0
  8 38  1  0  0  0  0
  8 39  1  0  0  0  0
  9 10  1  0  0  0  0
  9 40  1  0  0  0  0
  9 41  1  0  0  0  0
 10 11  1  0  0  0  0
 11 16  1  0  0  0  0
 11 12  2  0  0  0  0
 12 13  1  0  0  0  0
 13 14  2  0  0  0  0
 13 42  1  0  0  0  0
 14 15  1  0  0  0  0
 15 19  1  0  0  0  0
 15 16  2  0  0  0  0
 16 17  1  0  0  0  0
 17 18  2  0  0  0  0
 18 19  1  0  0  0  0
 18 43  1  0  0  0  0
 19 20  1  0  0  0  0
 20 21  1  0  0  0  0
 20 44  1  0  0  0  0
 20 45  1  0  0  0  0
 21 26  1  0  0  0  0
 21 22  1  0  0  0  0
 21 23  1  0  0  0  0
 22 46  1  0  0  0  0
 23 24  1  0  0  0  0
 23 47  1  0  0  0  0
 23 48  1  0  0  0  0
 24 25  1  0  0  0  0
 24 49  1  0  0  0  0
 24 50  1  0  0  0  0
 25 26  1  0  0  0  0
 26 27  1  0  0  0  0
 26 51  1  0  0  0  0
 27 52  1  0  0  0  0
 27 53  1  0  0  0  0
 27 54  1  0  0  0  0
M  END
> <s_m_source_file>
AV-unprocessed.smi

> <i_m_source_file_index>
197

> <i_lp_mmshare_version>
43012

> <i_f3d_flags>
0

> <s_epik_input>
W0NIM11PW0NIMl1bQ0gyXVtDQEBIXTFbQ0gyXU9bQ0gyXVtDSDJdTjFjKG5bY0hdbjIpYyhjMjMpbltjSF1uM1tDSDJdW0NAQF00KFtPSF0pW0NIMl1bQ0gyXU9bQ0BIXTRbQ0gzXQ==

> <s_epik_cmdline>
J2VwaWtfcHl0aG9uJywgJy1waCcsICc3LjAnLCAnLXRuJywgJzgnLCAnLW1hJywgJzIwMCcsICctbWV0YWxfYmluZGluZycsICctaW1hZScsICc8aW5maWxlLm1hZT4nLCAnLW9tYWUnLCAnPG91dGZpbGUubWFlPic=

> <r_lp_tautomer_probability>
1

> <r_epik_Ionization_Penalty>
0.000106218

> <r_epik_Ionization_Penalty_Charging>
0

> <r_epik_Ionization_Penalty_Neutral>
0.000106218

> <r_epik_State_Penalty>
-0

> <r_epik_Charging_Adjusted_Penalty>
0

> <i_epik_Tot_Q>
0

> <i_epik_Tot_abs_Q>
0

> <r_epik_Metal_State_Penalty>
-0

> <b_epik_Metal_Only>
0

> <s_lp_Force_Field>
OPLS_2005

> <r_lp_Energy>
43.0465

> <b_lp_Chiralities_Consistent>
1

> <s_lp_Variant>
AV-unprocessed.smi:197-2

> <Gold.Version>
5.8.1

> <Gold.Id.Protein>
6NUR|6NUR_protein|mol2

> <Gold.PLP.Fitness>
46.0434

> <Gold.PLP.PLP>
-39.0674

> <Gold.PLP.part.hbond>
-3.9497

> <Gold.PLP.part.metal>
0.0000

> <Gold.PLP.part.buried>
-0.4041

> <Gold.PLP.part.nonpolar>
-34.3133

> <Gold.PLP.part.repulsive>
0.2203

> <Gold.PLP.ligand.clash>
0.0000

> <Gold.PLP.ligand.torsion>
0.7428

> <Gold.PLP.Chemscore.Hbond>
2.6190

> <Gold.PLP.Chemscore.CHOScore>
0.0000

> <Gold.PLP.Chemscore.Metal>
0.0000

> <Gold.Chemscore.Hbonds>
donor molecule, donor type, donor heavy atom, donor atom, acceptor molecule, acceptor atom, score
      P1  H  6896  6907       L1    14  1.00
      P1  H  6931  6943       L1    22  1.00
      P1  H  7989  7998       L1     7  0.01
      P1  H  8011  8017       L1     7  0.56

> <Gold.PLP.Chemscore.Internal.Correction>
0.6046

> <Gold.Rescore>
     Score         DG    S(hbond)    S(metal)    S(lipo)     H(rot)  DE(clash)    DE(int)     intcor
     14.31     -18.26       2.50        0.00      99.85       2.84       2.51       1.44       ----

> <Gold.Chemscore.Fitness>
14.3084

> <Gold.Chemscore.DG>
-18.2584

> <Gold.Chemscore.ZeroCoef>
-5.4800

> <Gold.Chemscore.Hbond>
2.5015

> <Gold.Chemscore.Metal>
0.0000

> <Gold.Chemscore.Lipo>
99.8534

> <Gold.Chemscore.Internal_Hbond>
0.0000

> <Gold.Chemscore.DEClash>
2.5101

> <Gold.Chemscore.DEInternal>
1.4399

> <Gold.Chemscore.Rot>
2.8358

> <Gold.Chemscore.Internal.Correction>
   9.000000E+99

> <Gold.Chemscore.Hbonds>
donor molecule, donor type, donor heavy atom, donor atom, acceptor molecule, acceptor atom, score
      P1  H  6896  6907       L1    14  0.57
      P1  H  6931  6943       L1    22  0.64
      P1  H  8011  8017       L1     7  0.42

> <Gold.Chemscore.Hbond.Weighted>
-8.3551

> <Gold.Chemscore.Metal.Weighted>
-0.0000

> <Gold.Chemscore.Lipo.Weighted>
-11.6828

> <Gold.Chemscore.Internal_Hbond.Weighted>
0.0000

> <Gold.Chemscore.DEClash.Weighted>
2.5101

> <Gold.Chemscore.DEInternal.Weighted>
1.4399

> <Gold.Chemscore.Rot.Weighted>
7.2596

> <Gold.Chemscore.Internal.Correction.Weighted>
   9.000000E+99

> <Gold.Protein.RotatedTorsions>
[ 6907 6896 6895 6894 ] final  -35.20 input  -60.11 | X-H torsion
[ 7974 7965 7964 7962 ] final   14.58 input  175.53 | X-H torsion
[ 8008 7997 7996 7995 ] final  -38.93 input   59.86 | X-H torsion
[ 10167 10162 10161 10158 ] final  -42.15 input  -65.29 | X-H torsion
[ 10718 10713 10712 10709 ] final -111.20 input   66.30 | X-H torsion
[ 10763 10752 10751 10750 ] final -147.05 input  -60.55 | X-H torsion
[ 11005 11000 10999 10996 ] final   17.68 input  -57.11 | X-H torsion

> <Gold.Protein.ActiveResidues>
 VAL166  LYS551  ARG553  GLY616  TRP617  ASP618  TYR619  PRO620  LYS621  CYS622 
 ASP623  PHE694  ASN695  SER759  ASP760  ASP761  ALA762  ILE779  LEU786  VAL792 
 PHE793  MET794  SER795  GLU796  ALA797  LYS798  CYS799  TRP800  GLU811  SER814 

> <Gold.Protein.RotatedAtoms>
  151.0428  134.9619  159.8170 H   0  0  0  0  0  0  0  0  0  0  0  0  # atno 6907 bound_to 6896
  152.5367  134.2636  159.8955 H   0  0  0  0  0  0  0  0  0  0  0  0  # atno 6908 bound_to 6896
  151.2649  133.4241  159.2652 H   0  0  0  0  0  0  0  0  0  0  0  0  # atno 6909 bound_to 6896
  146.2301  139.9020  142.8537 H   0  0  0  0  0  0  0  0  0  0  0  0  # atno 7974 bound_to 7965
  154.4030  140.1565  156.2780 H   0  0  0  0  0  0  0  0  0  0  0  0  # atno 8008 bound_to 7997
  155.8895  140.3439  155.5924 H   0  0  0  0  0  0  0  0  0  0  0  0  # atno 8009 bound_to 7997
  155.7575  140.0813  157.2162 H   0  0  0  0  0  0  0  0  0  0  0  0  # atno 8010 bound_to 7997
  140.6979  143.3054  151.3168 H   0  0  0  0  0  0  0  0  0  0  0  0  # atno 10167 bound_to 10162
  156.0633  130.5855  150.8341 H   0  0  0  0  0  0  0  0  0  0  0  0  # atno 10718 bound_to 10713
  154.8305  135.3370  154.6757 H   0  0  0  0  0  0  0  0  0  0  0  0  # atno 10763 bound_to 10752
  153.7377  135.6948  153.4978 H   0  0  0  0  0  0  0  0  0  0  0  0  # atno 10764 bound_to 10752
  153.2266  135.4430  155.0500 H   0  0  0  0  0  0  0  0  0  0  0  0  # atno 10765 bound_to 10752
  140.4332  134.1398  155.7682 H   0  0  0  0  0  0  0  0  0  0  0  0  # atno 11005 bound_to 11000
  145.2313  140.9974  143.3989 LP  0  0  0  0  0  0  0  0  0  0  0  0  # atno 17320 bound_to 7965
  144.9528  139.4064  143.6394 LP  0  0  0  0  0  0  0  0  0  0  0  0  # atno 17321 bound_to 7965
  139.6457  144.0455  152.2589 LP  0  0  0  0  0  0  0  0  0  0  0  0  # atno 17342 bound_to 10162
  139.9975  144.6317  150.7759 LP  0  0  0  0  0  0  0  0  0  0  0  0  # atno 17343 bound_to 10162
  157.5658  131.0946  150.9491 LP  0  0  0  0  0  0  0  0  0  0  0  0  # atno 17370 bound_to 10713
  156.9719  130.5494  149.5291 LP  0  0  0  0  0  0  0  0  0  0  0  0  # atno 17371 bound_to 10713
  141.1737  133.8558  157.1491 LP  0  0  0  0  0  0  0  0  0  0  0  0  # atno 17394 bound_to 11000
  140.0120  134.9984  157.0414 LP  0  0  0  0  0  0  0  0  0  0  0  0  # atno 17395 bound_to 11000

$$$$
