AV-unprocessed.smi:1465|AV-procd|sdf|5952|dock2
  -GOLD-   22720 6 33D 1   1.00000     0.00000
 Structure written by MMmdl.
 54 55  0  0  0  0  0  0  0  0  2 V2000
  152.3938  143.7155  161.1314 C   0  0  0  0  0  0  0  0  0  0  0  0
  152.7326  142.3932  160.7506 O   0  0  0  0  0  0  0  0  0  0  0  0
  152.3946  142.1149  159.4025 C   0  0  0  0  0  0  0  0  0  0  0  0
  152.0947  140.6152  159.2627 C   0  0  0  0  0  0  0  0  0  0  0  0
  151.7656  140.2644  157.8749 N   0  0  0  0  0  0  0  0  0  0  0  0
  150.6013  140.8409  157.3319 C   0  0  0  0  0  0  0  0  0  0  0  0
  150.1873  140.5850  156.0755 C   0  0  0  0  0  0  0  0  0  0  0  0
  148.9583  141.2073  155.5782 C   0  0  0  0  0  0  0  0  0  0  0  0
  148.3219  142.0744  156.1785 O   0  0  0  0  0  0  0  0  0  0  0  0
  148.5651  140.7433  154.3795 N   0  0  0  0  0  0  0  0  0  0  0  0
  147.3688  141.1638  153.6512 C   0  0  2  0  0  0  0  0  0  0  0  0
  146.1322  141.0848  154.5622 C   0  0  0  0  0  0  0  0  0  0  0  0
  145.7211  139.6301  154.8553 C   0  0  0  0  0  0  0  0  0  0  0  0
  145.4949  138.8696  153.5971 N   0  3  2  0  0  0  0  0  0  0  0  0
  144.9744  137.4959  153.8232 C   0  0  0  0  0  0  0  0  0  0  0  0
  144.3966  136.8449  152.5473 C   0  0  0  0  0  0  0  0  0  0  0  0
  143.3640  135.7682  152.9126 C   0  0  0  0  0  0  0  0  0  0  0  0
  145.4996  136.2497  151.6557 C   0  0  0  0  0  0  0  0  0  0  0  0
  146.7036  138.8754  152.7332 C   0  0  0  0  0  0  0  0  0  0  0  0
  147.1358  140.3116  152.3884 C   0  0  0  0  0  0  0  0  0  0  0  0
  151.0009  139.6795  155.2773 C   0  0  0  0  0  0  0  0  0  0  0  0
  152.1110  139.1185  155.7959 C   0  0  0  0  0  0  0  0  0  0  0  0
  152.5455  139.3920  157.1691 C   0  0  0  0  0  0  0  0  0  0  0  0
  153.5476  138.8660  157.6537 O   0  0  0  0  0  0  0  0  0  0  0  0
  152.6715  143.8797  162.1726 H   0  0  0  0  0  0  0  0  0  0  0  0
  151.3211  143.8907  161.0369 H   0  0  0  0  0  0  0  0  0  0  0  0
  152.9235  144.4496  160.5222 H   0  0  0  0  0  0  0  0  0  0  0  0
  151.5252  142.7047  159.1076 H   0  0  0  0  0  0  0  0  0  0  0  0
  153.2210  142.3946  158.7469 H   0  0  0  0  0  0  0  0  0  0  0  0
  152.9571  140.0376  159.5994 H   0  0  0  0  0  0  0  0  0  0  0  0
  151.2850  140.3324  159.9378 H   0  0  0  0  0  0  0  0  0  0  0  0
  150.0699  141.4915  158.0128 H   0  0  0  0  0  0  0  0  0  0  0  0
  149.1318  140.0269  153.9495 H   0  0  0  0  0  0  0  0  0  0  0  0
  147.5038  142.2056  153.3544 H   0  0  0  0  0  0  0  0  0  0  0  0
  146.3154  141.6182  155.4959 H   0  0  0  0  0  0  0  0  0  0  0  0
  145.2992  141.5982  154.0796 H   0  0  0  0  0  0  0  0  0  0  0  0
  146.4891  139.1325  155.4495 H   0  0  0  0  0  0  0  0  0  0  0  0
  144.8165  139.6411  155.4613 H   0  0  0  0  0  0  0  0  0  0  0  0
  145.7791  136.8581  154.1925 H   0  0  0  0  0  0  0  0  0  0  0  0
  144.2244  137.5236  154.6153 H   0  0  0  0  0  0  0  0  0  0  0  0
  143.8670  137.5990  151.9663 H   0  0  0  0  0  0  0  0  0  0  0  0
  143.8174  134.9611  153.4891 H   0  0  0  0  0  0  0  0  0  0  0  0
  142.9207  135.3288  152.0183 H   0  0  0  0  0  0  0  0  0  0  0  0
  142.5517  136.1868  153.5076 H   0  0  0  0  0  0  0  0  0  0  0  0
  146.0689  135.4850  152.1855 H   0  0  0  0  0  0  0  0  0  0  0  0
  146.2000  137.0147  151.3201 H   0  0  0  0  0  0  0  0  0  0  0  0
  145.0752  135.7875  150.7639 H   0  0  0  0  0  0  0  0  0  0  0  0
  147.5145  138.3428  153.2326 H   0  0  0  0  0  0  0  0  0  0  0  0
  146.4963  138.3381  151.8070 H   0  0  0  0  0  0  0  0  0  0  0  0
  146.3585  140.7791  151.7825 H   0  0  0  0  0  0  0  0  0  0  0  0
  148.0302  140.2932  151.7648 H   0  0  0  0  0  0  0  0  0  0  0  0
  150.7389  139.4376  154.2580 H   0  0  0  0  0  0  0  0  0  0  0  0
  152.6990  138.4493  155.1852 H   0  0  0  0  0  0  0  0  0  0  0  0
  144.7795  139.3606  153.0799 H   0  0  0  0  0  0  0  0  0  0  0  0
  1  2  1  0  0  0  0
  1 25  1  0  0  0  0
  1 26  1  0  0  0  0
  1 27  1  0  0  0  0
  2  3  1  0  0  0  0
  3  4  1  0  0  0  0
  3 28  1  0  0  0  0
  3 29  1  0  0  0  0
  4  5  1  0  0  0  0
  4 30  1  0  0  0  0
  4 31  1  0  0  0  0
  5 23  1  0  0  0  0
  5  6  1  0  0  0  0
  6  7  2  0  0  0  0
  6 32  1  0  0  0  0
  7  8  1  0  0  0  0
  7 21  1  0  0  0  0
  8  9  2  0  0  0  0
  8 10  1  0  0  0  0
 10 11  1  0  0  0  0
 10 33  1  0  0  0  0
 11 20  1  0  0  0  0
 11 12  1  0  0  0  0
 11 34  1  0  0  0  0
 12 13  1  0  0  0  0
 12 35  1  0  0  0  0
 12 36  1  0  0  0  0
 13 14  1  0  0  0  0
 13 37  1  0  0  0  0
 13 38  1  0  0  0  0
 14 15  1  0  0  0  0
 14 19  1  0  0  0  0
 14 54  1  0  0  0  0
 15 16  1  0  0  0  0
 15 39  1  0  0  0  0
 15 40  1  0  0  0  0
 16 17  1  0  0  0  0
 16 18  1  0  0  0  0
 16 41  1  0  0  0  0
 17 42  1  0  0  0  0
 17 43  1  0  0  0  0
 17 44  1  0  0  0  0
 18 45  1  0  0  0  0
 18 46  1  0  0  0  0
 18 47  1  0  0  0  0
 19 20  1  0  0  0  0
 19 48  1  0  0  0  0
 19 49  1  0  0  0  0
 20 50  1  0  0  0  0
 20 51  1  0  0  0  0
 21 22  2  0  0  0  0
 21 52  1  0  0  0  0
 22 23  1  0  0  0  0
 22 53  1  0  0  0  0
 23 24  2  0  0  0  0
M  CHG  1  14   1
M  END
> <s_m_source_file>
AV-unprocessed.smi

> <i_m_source_file_index>
1465

> <i_lp_mmshare_version>
43012

> <i_f3d_flags>
0

> <s_epik_input>
W0NIM11PW0NIMl1bQ0gyXW4xW2NIXWMoW2NIXVtjSF1jMT1PKUMoPU8pW05IXVtDSF0yW0NIMl1bQ0gyXU4oW0NIMl1bQ0gyXTIpW0NIMl1bQ0hdKFtDSDNdKVtDSDNd

> <s_epik_cmdline>
J2VwaWtfcHl0aG9uJywgJy1waCcsICc3LjAnLCAnLXRuJywgJzgnLCAnLW1hJywgJzIwMCcsICctbWV0YWxfYmluZGluZycsICctaW1hZScsICc8aW5maWxlLm1hZT4nLCAnLW9tYWUnLCAnPG91dGZpbGUubWFlPic=

> <r_lp_tautomer_probability>
1

> <r_epik_Ionization_Penalty>
0.00386091

> <r_epik_Ionization_Penalty_Charging>
0.0038603

> <r_epik_Ionization_Penalty_Neutral>
6.13806e-07

> <r_epik_State_Penalty>
0.00275716

> <r_epik_Charging_Adjusted_Penalty>
0.00661746

> <i_epik_Tot_Q>
1

> <i_epik_Tot_abs_Q>
1

> <r_epik_Metal_State_Penalty>
-0

> <b_epik_Metal_Only>
0

> <s_lp_Force_Field>
OPLS_2005

> <r_lp_Energy>
34.4783

> <b_lp_Chiralities_Consistent>
1

> <s_lp_Variant>
AV-unprocessed.smi:1465-2

> <Gold.Version>
5.8.1

> <Gold.Id.Protein>
6NUR|6NUR_protein|mol2

> <Gold.PLP.Fitness>
45.6467

> <Gold.PLP.PLP>
-37.7123

> <Gold.PLP.part.hbond>
-2.0000

> <Gold.PLP.part.metal>
0.0000

> <Gold.PLP.part.buried>
-2.9509

> <Gold.PLP.part.nonpolar>
-34.8145

> <Gold.PLP.part.repulsive>
2.1829

> <Gold.PLP.ligand.clash>
0.0000

> <Gold.PLP.ligand.torsion>
0.5869

> <Gold.PLP.Chemscore.Hbond>
2.9760

> <Gold.PLP.Chemscore.CHOScore>
0.0000

> <Gold.PLP.Chemscore.Metal>
0.0000

> <Gold.Chemscore.Hbonds>
donor molecule, donor type, donor heavy atom, donor atom, acceptor molecule, acceptor atom, score
      L1  H    14    54       P1 10175  2.00
      P1  H  7997  8009       L1    24  0.91

> <Gold.PLP.Chemscore.Internal.Correction>
0.1802

> <Gold.Rescore>
     Score         DG    S(hbond)    S(metal)    S(lipo)     H(rot)  DE(clash)    DE(int)     intcor
     14.93     -17.98       1.68        0.00      97.82       1.78       1.36       1.69       ----

> <Gold.Chemscore.Fitness>
14.9341

> <Gold.Chemscore.DG>
-17.9813

> <Gold.Chemscore.ZeroCoef>
-5.4800

> <Gold.Chemscore.Hbond>
1.6781

> <Gold.Chemscore.Metal>
0.0000

> <Gold.Chemscore.Lipo>
97.8230

> <Gold.Chemscore.Internal_Hbond>
0.0000

> <Gold.Chemscore.DEClash>
1.3604

> <Gold.Chemscore.DEInternal>
1.6867

> <Gold.Chemscore.Rot>
1.7769

> <Gold.Chemscore.Internal.Correction>
   9.000000E+99

> <Gold.Chemscore.Hbonds>
donor molecule, donor type, donor heavy atom, donor atom, acceptor molecule, acceptor atom, score
      L1  H    14    54       P1 10175  1.00
      P1  H  7997  8009       L1    24  0.31

> <Gold.Chemscore.Hbond.Weighted>
-5.6050

> <Gold.Chemscore.Metal.Weighted>
-0.0000

> <Gold.Chemscore.Lipo.Weighted>
-11.4453

> <Gold.Chemscore.Internal_Hbond.Weighted>
0.0000

> <Gold.Chemscore.DEClash.Weighted>
1.3604

> <Gold.Chemscore.DEInternal.Weighted>
1.6867

> <Gold.Chemscore.Rot.Weighted>
4.5490

> <Gold.Chemscore.Internal.Correction.Weighted>
   9.000000E+99

> <Gold.Protein.RotatedTorsions>
[ 6907 6896 6895 6894 ] final   46.61 input  -60.11 | X-H torsion
[ 7974 7965 7964 7962 ] final   22.13 input  175.53 | X-H torsion
[ 8008 7997 7996 7995 ] final  136.35 input   59.86 | X-H torsion
[ 10167 10162 10161 10158 ] final  132.84 input  -65.29 | X-H torsion
[ 10718 10713 10712 10709 ] final  -21.17 input   66.30 | X-H torsion
[ 10763 10752 10751 10750 ] final  175.21 input  -60.55 | X-H torsion
[ 11005 11000 10999 10996 ] final   24.31 input  -57.11 | X-H torsion

> <Gold.Protein.ActiveResidues>
 VAL166  LYS551  ARG553  GLY616  TRP617  ASP618  TYR619  PRO620  LYS621  CYS622 
 ASP623  PHE694  ASN695  SER759  ASP760  ASP761  ALA762  ILE779  LEU786  VAL792 
 PHE793  MET794  SER795  GLU796  ALA797  LYS798  CYS799  TRP800  GLU811  SER814 

> <Gold.Protein.RotatedAtoms>
  152.2584  134.8060  160.0434 H   0  0  0  0  0  0  0  0  0  0  0  0  # atno 6907 bound_to 6896
  151.8715  133.3471  159.3744 H   0  0  0  0  0  0  0  0  0  0  0  0  # atno 6908 bound_to 6896
  150.7108  134.5035  159.5617 H   0  0  0  0  0  0  0  0  0  0  0  0  # atno 6909 bound_to 6896
  146.2042  139.7929  142.8738 H   0  0  0  0  0  0  0  0  0  0  0  0  # atno 7974 bound_to 7965
  156.3004  140.2447  156.3731 H   0  0  0  0  0  0  0  0  0  0  0  0  # atno 8008 bound_to 7997
  154.8770  140.0414  157.1779 H   0  0  0  0  0  0  0  0  0  0  0  0  # atno 8009 bound_to 7997
  154.8736  140.2938  155.5471 H   0  0  0  0  0  0  0  0  0  0  0  0  # atno 8010 bound_to 7997
  139.5322  144.6644  151.4909 H   0  0  0  0  0  0  0  0  0  0  0  0  # atno 10167 bound_to 10162
  156.5219  130.4634  149.6592 H   0  0  0  0  0  0  0  0  0  0  0  0  # atno 10718 bound_to 10713
  154.4644  135.2769  155.1689 H   0  0  0  0  0  0  0  0  0  0  0  0  # atno 10763 bound_to 10752
  154.3463  135.6159  153.5624 H   0  0  0  0  0  0  0  0  0  0  0  0  # atno 10764 bound_to 10752
  152.9858  135.5800  154.5013 H   0  0  0  0  0  0  0  0  0  0  0  0  # atno 10765 bound_to 10752
  140.3600  134.2135  155.7673 H   0  0  0  0  0  0  0  0  0  0  0  0  # atno 11005 bound_to 11000
  145.3378  141.0281  143.3409 LP  0  0  0  0  0  0  0  0  0  0  0  0  # atno 17320 bound_to 7965
  144.8753  139.4980  143.6748 LP  0  0  0  0  0  0  0  0  0  0  0  0  # atno 17321 bound_to 7965
  140.6508  143.8701  150.6783 LP  0  0  0  0  0  0  0  0  0  0  0  0  # atno 17342 bound_to 10162
  140.2065  143.3918  152.1752 LP  0  0  0  0  0  0  0  0  0  0  0  0  # atno 17343 bound_to 10162
  156.3142  130.7245  151.2144 LP  0  0  0  0  0  0  0  0  0  0  0  0  # atno 17370 bound_to 10713
  157.7435  131.0473  150.4938 LP  0  0  0  0  0  0  0  0  0  0  0  0  # atno 17371 bound_to 10713
  141.1987  133.8030  157.0572 LP  0  0  0  0  0  0  0  0  0  0  0  0  # atno 17394 bound_to 11000
  140.0634  134.9742  157.1344 LP  0  0  0  0  0  0  0  0  0  0  0  0  # atno 17395 bound_to 11000

$$$$
