AV-unprocessed.smi:49|AV-procd|sdf|464|dock3
  -GOLD-   2262016333D 1   1.00000     0.00000
 Structure written by MMmdl.
 28 29  0  0  0  0  0  0  0  0  2 V2000
  152.4315  142.2408  159.2316 C   0  0  0  0  0  0  0  0  0  0  0  0
  151.9101  140.8512  158.8501 C   0  0  0  0  0  0  0  0  0  0  0  0
  151.4129  140.7925  157.4432 C   0  0  0  0  0  0  0  0  0  0  0  0
  150.3254  141.4074  156.9901 N   0  0  0  0  0  0  0  0  0  0  0  0
  150.3610  141.0311  155.6767 C   0  0  0  0  0  0  0  0  0  0  0  0
  149.3496  141.5117  154.6837 C   0  0  1  0  0  0  0  0  0  0  0  0
  148.6607  140.3782  153.9194 C   0  0  0  0  0  0  0  0  0  0  0  0
  147.3591  141.0316  153.4667 C   0  0  1  0  0  0  0  0  0  0  0  0
  146.3554  140.0798  153.1840 O   0  0  0  0  0  0  0  0  0  0  0  0
  146.9883  141.9304  154.6509 C   0  0  0  0  0  0  0  0  0  0  0  0
  148.2613  142.2961  155.3041 N   0  3  0  0  0  0  0  0  0  0  0  0
  151.3924  140.2655  155.3179 N   0  0  0  0  0  0  0  0  0  0  0  0
  152.0548  140.1205  156.4854 N   0  0  0  0  0  0  0  0  0  0  0  0
  149.8437  142.1684  153.9656 H   0  0  0  0  0  0  0  0  0  0  0  0
  147.5430  141.6423  152.5814 H   0  0  0  0  0  0  0  0  0  0  0  0
  152.9073  139.5856  156.5755 H   0  0  0  0  0  0  0  0  0  0  0  0
  152.7798  142.2548  160.2644 H   0  0  0  0  0  0  0  0  0  0  0  0
  151.6497  142.9948  159.1337 H   0  0  0  0  0  0  0  0  0  0  0  0
  153.2647  142.5371  158.5940 H   0  0  0  0  0  0  0  0  0  0  0  0
  152.6985  140.1092  158.9820 H   0  0  0  0  0  0  0  0  0  0  0  0
  151.0983  140.5641  159.5193 H   0  0  0  0  0  0  0  0  0  0  0  0
  149.2626  139.9869  153.0986 H   0  0  0  0  0  0  0  0  0  0  0  0
  148.4396  139.5520  154.5980 H   0  0  0  0  0  0  0  0  0  0  0  0
  145.5871  140.5322  152.8696 H   0  0  0  0  0  0  0  0  0  0  0  0
  146.4252  142.8119  154.3433 H   0  0  0  0  0  0  0  0  0  0  0  0
  146.3870  141.3838  155.3789 H   0  0  0  0  0  0  0  0  0  0  0  0
  148.2031  142.0611  156.2851 H   0  0  0  0  0  0  0  0  0  0  0  0
  148.4491  143.2829  155.2010 H   0  0  0  0  0  0  0  0  0  0  0  0
  1  2  1  0  0  0  0
  1 17  1  0  0  0  0
  1 18  1  0  0  0  0
  1 19  1  0  0  0  0
  2  3  1  0  0  0  0
  2 20  1  0  0  0  0
  2 21  1  0  0  0  0
  3 13  1  0  0  0  0
  3  4  2  0  0  0  0
  4  5  1  0  0  0  0
  5  6  1  0  0  0  0
  5 12  2  0  0  0  0
  6 14  1  0  0  0  0
  6 11  1  0  0  0  0
  6  7  1  0  0  0  0
  7  8  1  0  0  0  0
  7 22  1  0  0  0  0
  7 23  1  0  0  0  0
  8 15  1  0  0  0  0
  8  9  1  0  0  0  0
  8 10  1  0  0  0  0
  9 24  1  0  0  0  0
 10 11  1  0  0  0  0
 10 25  1  0  0  0  0
 10 26  1  0  0  0  0
 11 27  1  0  0  0  0
 11 28  1  0  0  0  0
 12 13  1  0  0  0  0
 13 16  1  0  0  0  0
M  CHG  1  11   1
M  END
> <s_m_source_file>
AV-unprocessed.smi

> <i_m_source_file_index>
49

> <i_lp_mmshare_version>
43012

> <i_f3d_flags>
0

> <s_epik_input>
W0NIM11bQ0gyXWMxbmMobltuSF0xKVtDQEBIXTJbQ0gyXVtDQEBIXShbT0hdKVtDSDJdW05IXTI=

> <s_epik_cmdline>
J2VwaWtfcHl0aG9uJywgJy1waCcsICc3LjAnLCAnLXRuJywgJzgnLCAnLW1hJywgJzIwMCcsICctbWV0YWxfYmluZGluZycsICctaW1hZScsICc8aW5maWxlLm1hZT4nLCAnLW9tYWUnLCAnPG91dGZpbGUubWFlPic=

> <r_lp_tautomer_probability>
0.948284

> <r_epik_Ionization_Penalty>
0.045643

> <r_epik_Ionization_Penalty_Charging>
0.0371552

> <r_epik_Ionization_Penalty_Neutral>
0.00848778

> <r_epik_State_Penalty>
0.283309

> <r_epik_Charging_Adjusted_Penalty>
0.320465

> <i_epik_Tot_Q>
1

> <i_epik_Tot_abs_Q>
1

> <r_epik_Metal_State_Penalty>
0.558162

> <b_epik_Metal_Only>
0

> <s_lp_Force_Field>
OPLS_2005

> <r_lp_Energy>
16.6831

> <b_lp_Chiralities_Consistent>
1

> <s_lp_Variant>
AV-unprocessed.smi:49-2

> <Gold.Version>
5.8.1

> <Gold.Id.Protein>
6NUR|6NUR_protein|mol2

> <Gold.PLP.Fitness>
37.0837

> <Gold.PLP.PLP>
-25.3203

> <Gold.PLP.part.hbond>
-2.9277

> <Gold.PLP.part.metal>
0.0000

> <Gold.PLP.part.buried>
-3.1897

> <Gold.PLP.part.nonpolar>
-19.9426

> <Gold.PLP.part.repulsive>
0.3706

> <Gold.PLP.ligand.clash>
0.0000

> <Gold.PLP.ligand.torsion>
0.1256

> <Gold.PLP.Chemscore.Hbond>
4.0000

> <Gold.PLP.Chemscore.CHOScore>
0.0000

> <Gold.PLP.Chemscore.Metal>
0.0000

> <Gold.Chemscore.Hbonds>
donor molecule, donor type, donor heavy atom, donor atom, acceptor molecule, acceptor atom, score
      L1  H     9    24       P1 10175  0.98
      L1  H    11    28       P1  8028  2.00
      P1  H  7989  7998       L1    12  0.99

> <Gold.PLP.Chemscore.Internal.Correction>
0.0146

> <Gold.Rescore>
     Score         DG    S(hbond)    S(metal)    S(lipo)     H(rot)  DE(clash)    DE(int)     intcor
     14.39     -14.90       2.71        0.00      44.40       1.89       0.17       0.34       ----

> <Gold.Chemscore.Fitness>
14.3948

> <Gold.Chemscore.DG>
-14.9042

> <Gold.Chemscore.ZeroCoef>
-5.4800

> <Gold.Chemscore.Hbond>
2.7134

> <Gold.Chemscore.Metal>
0.0000

> <Gold.Chemscore.Lipo>
44.4043

> <Gold.Chemscore.Internal_Hbond>
0.0000

> <Gold.Chemscore.DEClash>
0.1740

> <Gold.Chemscore.DEInternal>
0.3354

> <Gold.Chemscore.Rot>
1.8883

> <Gold.Chemscore.Internal.Correction>
   9.000000E+99

> <Gold.Chemscore.Hbonds>
donor molecule, donor type, donor heavy atom, donor atom, acceptor molecule, acceptor atom, score
      L1  H     9    24       P1 10175  0.69
      L1  H    11    28       P1  8028  0.94
      P1  H  7989  7998       L1    12  0.24

> <Gold.Chemscore.Hbond.Weighted>
-9.0629

> <Gold.Chemscore.Metal.Weighted>
-0.0000

> <Gold.Chemscore.Lipo.Weighted>
-5.1953

> <Gold.Chemscore.Internal_Hbond.Weighted>
0.0000

> <Gold.Chemscore.DEClash.Weighted>
0.1740

> <Gold.Chemscore.DEInternal.Weighted>
0.3354

> <Gold.Chemscore.Rot.Weighted>
4.8340

> <Gold.Chemscore.Internal.Correction.Weighted>
   9.000000E+99

> <Gold.Protein.RotatedTorsions>
[ 6907 6896 6895 6894 ] final  139.61 input  -60.11 | X-H torsion
[ 7974 7965 7964 7962 ] final  109.30 input  175.53 | X-H torsion
[ 8008 7997 7996 7995 ] final  128.88 input   59.86 | X-H torsion
[ 10167 10162 10161 10158 ] final  -19.81 input  -65.29 | X-H torsion
[ 10718 10713 10712 10709 ] final -162.45 input   66.30 | X-H torsion
[ 10763 10752 10751 10750 ] final  155.89 input  -60.55 | X-H torsion
[ 11005 11000 10999 10996 ] final   -4.68 input  -57.11 | X-H torsion

> <Gold.Protein.ActiveResidues>
 VAL166  LYS551  ARG553  GLY616  TRP617  ASP618  TYR619  PRO620  LYS621  CYS622 
 ASP623  PHE694  ASN695  SER759  ASP760  ASP761  ALA762  ILE779  LEU786  VAL792 
 PHE793  MET794  SER795  GLU796  ALA797  LYS798  CYS799  TRP800  GLU811  SER814 

> <Gold.Protein.RotatedAtoms>
  152.2529  133.5230  159.5335 H   0  0  0  0  0  0  0  0  0  0  0  0  # atno 6907 bound_to 6896
  150.7099  134.0936  159.3949 H   0  0  0  0  0  0  0  0  0  0  0  0  # atno 6908 bound_to 6896
  151.8855  135.0437  160.0543 H   0  0  0  0  0  0  0  0  0  0  0  0  # atno 6909 bound_to 6896
  145.2696  139.2671  143.3973 H   0  0  0  0  0  0  0  0  0  0  0  0  # atno 7974 bound_to 7965
  156.2924  140.2634  156.2508 H   0  0  0  0  0  0  0  0  0  0  0  0  # atno 8008 bound_to 7997
  154.9885  140.0389  157.2327 H   0  0  0  0  0  0  0  0  0  0  0  0  # atno 8009 bound_to 7997
  154.7708  140.2777  155.6144 H   0  0  0  0  0  0  0  0  0  0  0  0  # atno 8010 bound_to 7997
  140.7271  143.4783  151.0152 H   0  0  0  0  0  0  0  0  0  0  0  0  # atno 10167 bound_to 10162
  156.6106  130.8849  151.2935 H   0  0  0  0  0  0  0  0  0  0  0  0  # atno 10718 bound_to 10713
  154.1755  135.2802  155.3068 H   0  0  0  0  0  0  0  0  0  0  0  0  # atno 10763 bound_to 10752
  154.6042  135.5519  153.7409 H   0  0  0  0  0  0  0  0  0  0  0  0  # atno 10764 bound_to 10752
  153.0152  135.6399  154.1895 H   0  0  0  0  0  0  0  0  0  0  0  0  # atno 10765 bound_to 10752
  140.6829  133.9137  155.8567 H   0  0  0  0  0  0  0  0  0  0  0  0  # atno 11005 bound_to 11000
  146.3250  140.3135  142.8628 LP  0  0  0  0  0  0  0  0  0  0  0  0  # atno 17320 bound_to 7965
  144.9346  140.8013  143.5668 LP  0  0  0  0  0  0  0  0  0  0  0  0  # atno 17321 bound_to 7965
  139.8480  143.7476  152.3179 LP  0  0  0  0  0  0  0  0  0  0  0  0  # atno 17342 bound_to 10162
  139.7648  144.7495  151.0311 LP  0  0  0  0  0  0  0  0  0  0  0  0  # atno 17343 bound_to 10162
  157.7255  130.9617  150.1618 LP  0  0  0  0  0  0  0  0  0  0  0  0  # atno 17370 bound_to 10713
  156.2393  130.3689  149.8355 LP  0  0  0  0  0  0  0  0  0  0  0  0  # atno 17371 bound_to 10713
  141.0303  134.0766  157.4022 LP  0  0  0  0  0  0  0  0  0  0  0  0  # atno 17394 bound_to 11000
  139.8946  135.0137  156.6960 LP  0  0  0  0  0  0  0  0  0  0  0  0  # atno 17395 bound_to 11000

$$$$
