AV-unprocessed.smi:2066|AV-procd|sdf|8421|dock8
  -GOLD-   2272011113D 1   1.00000     0.00000
 Structure written by MMmdl.
 38 39  0  0  0  0  0  0  0  0  2 V2000
  150.8306  138.5178  155.5350 C   0  0  0  0  0  0  0  0  0  0  0  0
  149.9568  138.8401  156.7712 C   0  0  0  0  0  0  0  0  0  0  0  0
  148.5148  139.0940  156.2631 C   0  0  0  0  0  0  0  0  0  0  0  0
  149.8941  137.5494  157.6371 C   0  0  0  0  0  0  0  0  0  0  0  0
  148.9564  137.6735  158.7498 N   0  0  0  0  0  0  0  0  0  0  0  0
  148.7208  136.7326  159.6726 C   0  0  0  0  0  0  0  0  0  0  0  0
  149.3103  135.6512  159.6108 O   0  0  0  0  0  0  0  0  0  0  0  0
  147.8202  137.1033  160.6111 N   0  5  0  0  0  0  0  0  0  0  0  0
  147.1481  136.1693  161.3030 C   0  0  0  0  0  0  0  0  0  0  0  0
  147.6454  134.9546  161.5624 N   0  0  0  0  0  0  0  0  0  0  0  0
  146.7748  134.1424  162.2911 C   0  0  0  0  0  0  0  0  0  0  0  0
  145.5821  134.7489  162.5840 C   0  0  0  0  0  0  0  0  0  0  0  0
  145.5177  136.3693  161.9514 S   0  0  0  0  0  0  0  0  0  0  0  0
  150.4603  140.0043  157.5530 N   0  0  0  0  0  0  0  0  0  0  0  0
  150.6608  141.2333  156.7775 C   0  0  0  0  0  0  0  0  0  0  0  0
  151.0592  142.4212  157.6701 C   0  0  0  0  0  0  0  0  0  0  0  0
  152.2323  142.0967  158.4065 O   0  0  0  0  0  0  0  0  0  0  0  0
  152.0583  140.9429  159.2203 C   0  0  0  0  0  0  0  0  0  0  0  0
  151.6704  139.7425  158.3410 C   0  0  0  0  0  0  0  0  0  0  0  0
  150.4333  137.6612  154.9891 H   0  0  0  0  0  0  0  0  0  0  0  0
  151.8545  138.2660  155.8101 H   0  0  0  0  0  0  0  0  0  0  0  0
  150.8703  139.3478  154.8302 H   0  0  0  0  0  0  0  0  0  0  0  0
  148.0753  138.1909  155.8380 H   0  0  0  0  0  0  0  0  0  0  0  0
  148.4794  139.8471  155.4760 H   0  0  0  0  0  0  0  0  0  0  0  0
  147.8576  139.4264  157.0676 H   0  0  0  0  0  0  0  0  0  0  0  0
  149.5877  136.6980  157.0269 H   0  0  0  0  0  0  0  0  0  0  0  0
  150.8814  137.2868  158.0189 H   0  0  0  0  0  0  0  0  0  0  0  0
  148.4601  138.5487  158.8339 H   0  0  0  0  0  0  0  0  0  0  0  0
  147.0864  133.1434  162.5572 H   0  0  0  0  0  0  0  0  0  0  0  0
  144.7424  134.3451  163.1291 H   0  0  0  0  0  0  0  0  0  0  0  0
  151.4361  141.0828  156.0263 H   0  0  0  0  0  0  0  0  0  0  0  0
  149.7524  141.5101  156.2455 H   0  0  0  0  0  0  0  0  0  0  0  0
  151.2546  143.3036  157.0609 H   0  0  0  0  0  0  0  0  0  0  0  0
  150.2497  142.6780  158.3553 H   0  0  0  0  0  0  0  0  0  0  0  0
  152.9876  140.7387  159.7518 H   0  0  0  0  0  0  0  0  0  0  0  0
  151.2926  141.1313  159.9745 H   0  0  0  0  0  0  0  0  0  0  0  0
  151.5299  138.8860  158.9980 H   0  0  0  0  0  0  0  0  0  0  0  0
  152.5055  139.5039  157.6823 H   0  0  0  0  0  0  0  0  0  0  0  0
  1  2  1  0  0  0  0
  1 20  1  0  0  0  0
  1 21  1  0  0  0  0
  1 22  1  0  0  0  0
  2  3  1  0  0  0  0
  2  4  1  0  0  0  0
  2 14  1  0  0  0  0
  3 23  1  0  0  0  0
  3 24  1  0  0  0  0
  3 25  1  0  0  0  0
  4  5  1  0  0  0  0
  4 26  1  0  0  0  0
  4 27  1  0  0  0  0
  5  6  1  0  0  0  0
  5 28  1  0  0  0  0
  6  7  2  0  0  0  0
  6  8  1  0  0  0  0
  8  9  1  0  0  0  0
  9 13  1  0  0  0  0
  9 10  2  0  0  0  0
 10 11  1  0  0  0  0
 11 12  2  0  0  0  0
 11 29  1  0  0  0  0
 12 13  1  0  0  0  0
 12 30  1  0  0  0  0
 14 19  1  0  0  0  0
 14 15  1  0  0  0  0
 15 16  1  0  0  0  0
 15 31  1  0  0  0  0
 15 32  1  0  0  0  0
 16 17  1  0  0  0  0
 16 33  1  0  0  0  0
 16 34  1  0  0  0  0
 17 18  1  0  0  0  0
 18 19  1  0  0  0  0
 18 35  1  0  0  0  0
 18 36  1  0  0  0  0
 19 37  1  0  0  0  0
 19 38  1  0  0  0  0
M  CHG  1   8  -1
M  END
> <s_m_source_file>
AV-unprocessed.smi

> <i_m_source_file_index>
2066

> <i_lp_mmshare_version>
43012

> <i_f3d_flags>
0

> <s_epik_input>
W0NIMl0xW0NIMl1PW0NIMl1bQ0gyXU4xQyhbQ0gzXSkoW0NIM10pW0NIMl1bTkhdQyg9TylbTkhdYzJuW2NIXVtjSF1zMg==

> <s_epik_cmdline>
J2VwaWtfcHl0aG9uJywgJy1waCcsICc3LjAnLCAnLXRuJywgJzgnLCAnLW1hJywgJzIwMCcsICctbWV0YWxfYmluZGluZycsICctaW1hZScsICc8aW5maWxlLm1hZT4nLCAnLW9tYWUnLCAnPG91dGZpbGUubWFlPic=

> <r_lp_tautomer_probability>
0.999

> <r_epik_Ionization_Penalty>
7.22375

> <r_epik_Ionization_Penalty_Charging>
5.82415

> <r_epik_Ionization_Penalty_Neutral>
1.39959

> <r_epik_State_Penalty>
6.03347

> <r_epik_Charging_Adjusted_Penalty>
11.8576

> <i_epik_Tot_Q>
-1

> <i_epik_Tot_abs_Q>
1

> <r_epik_Metal_State_Penalty>
2.0104

> <b_epik_Metal_Only>
1

> <s_lp_Force_Field>
OPLS_2005

> <r_lp_Energy>
36.7798

> <b_lp_Chiralities_Consistent>
1

> <s_lp_Variant>
AV-unprocessed.smi:2066-3

> <Gold.Version>
5.8.1

> <Gold.Id.Protein>
6NUR|6NUR_protein|mol2

> <Gold.PLP.Fitness>
40.3651

> <Gold.PLP.PLP>
-28.0725

> <Gold.PLP.part.hbond>
-3.0000

> <Gold.PLP.part.metal>
0.0000

> <Gold.PLP.part.buried>
-4.7712

> <Gold.PLP.part.nonpolar>
-20.7324

> <Gold.PLP.part.repulsive>
0.1843

> <Gold.PLP.ligand.clash>
0.0000

> <Gold.PLP.ligand.torsion>
0.4739

> <Gold.PLP.Chemscore.Hbond>
4.3920

> <Gold.PLP.Chemscore.CHOScore>
0.0000

> <Gold.PLP.Chemscore.Metal>
0.0000

> <Gold.Chemscore.Hbonds>
donor molecule, donor type, donor heavy atom, donor atom, acceptor molecule, acceptor atom, score
      P1  H  6896  6907       L1     7  0.96
      P1  H  6931  6943       L1     8  1.35
      P1  H  6934  6947       L1     8  1.68

> <Gold.PLP.Chemscore.Internal.Correction>
0.0644

> <Gold.Rescore>
     Score         DG    S(hbond)    S(metal)    S(lipo)     H(rot)  DE(clash)    DE(int)     intcor
     13.30     -15.74       2.16        0.00      59.95       1.55       0.05       2.40       ----

> <Gold.Chemscore.Fitness>
13.2951

> <Gold.Chemscore.DG>
-15.7401

> <Gold.Chemscore.ZeroCoef>
-5.4800

> <Gold.Chemscore.Hbond>
2.1593

> <Gold.Chemscore.Metal>
0.0000

> <Gold.Chemscore.Lipo>
59.9548

> <Gold.Chemscore.Internal_Hbond>
0.0000

> <Gold.Chemscore.DEClash>
0.0491

> <Gold.Chemscore.DEInternal>
2.3960

> <Gold.Chemscore.Rot>
1.5495

> <Gold.Chemscore.Internal.Correction>
   9.000000E+99

> <Gold.Chemscore.Hbonds>
donor molecule, donor type, donor heavy atom, donor atom, acceptor molecule, acceptor atom, score
      P1  H  6896  6907       L1     7  0.92
      P1  H  6931  6943       L1     8  0.15
      P1  H  6934  6947       L1     8  0.71

> <Gold.Chemscore.Hbond.Weighted>
-7.2120

> <Gold.Chemscore.Metal.Weighted>
-0.0000

> <Gold.Chemscore.Lipo.Weighted>
-7.0147

> <Gold.Chemscore.Internal_Hbond.Weighted>
0.0000

> <Gold.Chemscore.DEClash.Weighted>
0.0491

> <Gold.Chemscore.DEInternal.Weighted>
2.3960

> <Gold.Chemscore.Rot.Weighted>
3.9666

> <Gold.Chemscore.Internal.Correction.Weighted>
   9.000000E+99

> <Gold.Protein.RotatedTorsions>
[ 6907 6896 6895 6894 ] final  -76.00 input  -60.11 | X-H torsion
[ 7974 7965 7964 7962 ] final   -7.51 input  175.53 | X-H torsion
[ 8008 7997 7996 7995 ] final   -2.73 input   59.86 | X-H torsion
[ 10167 10162 10161 10158 ] final   25.69 input  -65.29 | X-H torsion
[ 10718 10713 10712 10709 ] final  -34.85 input   66.30 | X-H torsion
[ 10763 10752 10751 10750 ] final  -18.97 input  -60.55 | X-H torsion
[ 11005 11000 10999 10996 ] final  106.67 input  -57.11 | X-H torsion

> <Gold.Protein.ActiveResidues>
 VAL166  LYS551  ARG553  GLY616  TRP617  ASP618  TYR619  PRO620  LYS621  CYS622 
 ASP623  PHE694  ASN695  SER759  ASP760  ASP761  ALA762  ILE779  LEU786  VAL792 
 PHE793  MET794  SER795  GLU796  ALA797  LYS798  CYS799  TRP800  GLU811  SER814 

> <Gold.Protein.RotatedAtoms>
  150.7041  134.4636  159.5392 H   0  0  0  0  0  0  0  0  0  0  0  0  # atno 6907 bound_to 6896
  152.2306  134.8322  160.0483 H   0  0  0  0  0  0  0  0  0  0  0  0  # atno 6908 bound_to 6896
  151.9140  133.3533  159.3910 H   0  0  0  0  0  0  0  0  0  0  0  0  # atno 6909 bound_to 6896
  146.2305  140.2330  142.8341 H   0  0  0  0  0  0  0  0  0  0  0  0  # atno 7974 bound_to 7965
  154.6325  140.2527  155.7417 H   0  0  0  0  0  0  0  0  0  0  0  0  # atno 8008 bound_to 7997
  156.2487  140.2904  156.0603 H   0  0  0  0  0  0  0  0  0  0  0  0  # atno 8009 bound_to 7997
  155.1722  140.0387  157.2855 H   0  0  0  0  0  0  0  0  0  0  0  0  # atno 8010 bound_to 7997
  140.5085  144.0199  150.6362 H   0  0  0  0  0  0  0  0  0  0  0  0  # atno 10167 bound_to 10162
  156.3456  130.4300  149.7748 H   0  0  0  0  0  0  0  0  0  0  0  0  # atno 10718 bound_to 10713
  153.5976  135.7000  153.5397 H   0  0  0  0  0  0  0  0  0  0  0  0  # atno 10763 bound_to 10752
  153.3124  135.4097  155.1347 H   0  0  0  0  0  0  0  0  0  0  0  0  # atno 10764 bound_to 10752
  154.8589  135.3675  154.5510 H   0  0  0  0  0  0  0  0  0  0  0  0  # atno 10765 bound_to 10752
  139.8817  134.9376  156.5701 H   0  0  0  0  0  0  0  0  0  0  0  0  # atno 11005 bound_to 11000
  144.9543  140.8210  143.5552 LP  0  0  0  0  0  0  0  0  0  0  0  0  # atno 17320 bound_to 7965
  145.2294  139.2122  143.5051 LP  0  0  0  0  0  0  0  0  0  0  0  0  # atno 17321 bound_to 7965
  140.3515  143.2960  152.0482 LP  0  0  0  0  0  0  0  0  0  0  0  0  # atno 17342 bound_to 10162
  139.4890  144.6370  151.6954 LP  0  0  0  0  0  0  0  0  0  0  0  0  # atno 17343 bound_to 10162
  156.4968  130.8110  151.3117 LP  0  0  0  0  0  0  0  0  0  0  0  0  # atno 17370 bound_to 10713
  157.7453  130.9957  150.2755 LP  0  0  0  0  0  0  0  0  0  0  0  0  # atno 17371 bound_to 10713
  140.8104  133.8433  155.8805 LP  0  0  0  0  0  0  0  0  0  0  0  0  # atno 17394 bound_to 11000
  140.9511  134.1777  157.4727 LP  0  0  0  0  0  0  0  0  0  0  0  0  # atno 17395 bound_to 11000

$$$$
