AV-unprocessed.smi:364|AV-procd|sdf|2426|dock5
  -GOLD-   2262022363D 1   1.00000     0.00000
 Structure written by MMmdl.
 37 38  0  0  0  0  0  0  0  0  1 V2000
  151.0695  144.2055  161.4789 C   0  0  0  0  0  0  0  0  0  0  0  0
  152.4215  143.5563  161.1508 C   0  0  2  0  0  0  0  0  0  0  0  0
  152.5476  143.2590  159.6437 C   0  0  0  0  0  0  0  0  0  0  0  0
  153.8857  142.5756  159.3054 C   0  0  0  0  0  0  0  0  0  0  0  0
  154.1077  141.2957  160.1332 C   0  0  2  0  0  0  0  0  0  0  0  0
  153.1304  140.2845  159.7461 N   0  0  0  0  0  0  0  0  0  0  0  0
  153.3556  139.1496  159.0655 C   0  0  0  0  0  0  0  0  0  0  0  0
  154.4675  138.8189  158.6564 O   0  0  0  0  0  0  0  0  0  0  0  0
  152.1508  138.2268  158.8085 C   0  0  0  0  0  0  0  0  0  0  0  0
  151.8323  138.0242  157.3823 N   0  0  0  0  0  0  0  0  0  0  0  0
  151.7558  139.1696  156.5722 C   0  0  0  0  0  0  0  0  0  0  0  0
  151.5109  139.0690  155.2581 C   0  0  0  0  0  0  0  0  0  0  0  0
  151.3314  137.7105  154.7304 C   0  0  0  0  0  0  0  0  0  0  0  0
  151.4006  136.6640  155.4656 N   0  0  0  0  0  0  0  0  0  0  0  0
  151.6593  136.7723  156.8451 C   0  0  0  0  0  0  0  0  0  0  0  0
  151.7418  135.7700  157.5550 O   0  0  0  0  0  0  0  0  0  0  0  0
  153.9853  141.5998  161.6387 C   0  0  0  0  0  0  0  0  0  0  0  0
  152.6458  142.2781  161.9829 C   0  0  0  0  0  0  0  0  0  0  0  0
  150.2412  143.5390  161.2354 H   0  0  0  0  0  0  0  0  0  0  0  0
  150.9299  145.1288  160.9162 H   0  0  0  0  0  0  0  0  0  0  0  0
  150.9983  144.4515  162.5388 H   0  0  0  0  0  0  0  0  0  0  0  0
  153.2031  144.2694  161.4171 H   0  0  0  0  0  0  0  0  0  0  0  0
  151.7194  142.6265  159.3205 H   0  0  0  0  0  0  0  0  0  0  0  0
  152.4613  144.1853  159.0747 H   0  0  0  0  0  0  0  0  0  0  0  0
  153.9270  142.3461  158.2400 H   0  0  0  0  0  0  0  0  0  0  0  0
  154.7023  143.2728  159.4969 H   0  0  0  0  0  0  0  0  0  0  0  0
  155.1150  140.9287  159.9301 H   0  0  0  0  0  0  0  0  0  0  0  0
  152.1790  140.4587  160.0358 H   0  0  0  0  0  0  0  0  0  0  0  0
  152.3365  137.2699  159.2994 H   0  0  0  0  0  0  0  0  0  0  0  0
  151.2858  138.6459  159.3247 H   0  0  0  0  0  0  0  0  0  0  0  0
  151.9154  140.1104  157.0792 H   0  0  0  0  0  0  0  0  0  0  0  0
  151.4442  139.9067  154.5799 H   0  0  0  0  0  0  0  0  0  0  0  0
  151.1332  137.6486  153.6573 H   0  0  0  0  0  0  0  0  0  0  0  0
  154.0986  140.6827  162.2184 H   0  0  0  0  0  0  0  0  0  0  0  0
  154.8050  142.2532  161.9405 H   0  0  0  0  0  0  0  0  0  0  0  0
  152.6244  142.5191  163.0461 H   0  0  0  0  0  0  0  0  0  0  0  0
  151.8257  141.5787  161.8135 H   0  0  0  0  0  0  0  0  0  0  0  0
  1  2  1  0  0  0  0
  1 19  1  0  0  0  0
  1 20  1  0  0  0  0
  1 21  1  0  0  0  0
  2 18  1  0  0  0  0
  2  3  1  0  0  0  0
  2 22  1  0  0  0  0
  3  4  1  0  0  0  0
  3 23  1  0  0  0  0
  3 24  1  0  0  0  0
  4  5  1  0  0  0  0
  4 25  1  0  0  0  0
  4 26  1  0  0  0  0
  5  6  1  0  0  0  0
  5 17  1  0  0  0  0
  5 27  1  0  0  0  0
  6  7  1  0  0  0  0
  6 28  1  0  0  0  0
  7  8  2  0  0  0  0
  7  9  1  0  0  0  0
  9 10  1  0  0  0  0
  9 29  1  0  0  0  0
  9 30  1  0  0  0  0
 10 15  1  0  0  0  0
 10 11  1  0  0  0  0
 11 12  2  0  0  0  0
 11 31  1  0  0  0  0
 12 13  1  0  0  0  0
 12 32  1  0  0  0  0
 13 14  2  0  0  0  0
 13 33  1  0  0  0  0
 14 15  1  0  0  0  0
 15 16  2  0  0  0  0
 17 18  1  0  0  0  0
 17 34  1  0  0  0  0
 17 35  1  0  0  0  0
 18 36  1  0  0  0  0
 18 37  1  0  0  0  0
M  END
> <s_m_source_file>
AV-unprocessed.smi

> <i_m_source_file_index>
364

> <i_lp_mmshare_version>
43012

> <i_f3d_flags>
0

> <s_epik_input>
W0NIM11bQ0BASF0xW0NIMl1bQ0gyXVtDQEhdKFtDSDJdW0NIMl0xKVtOSF1DKD1PKVtDSDJdbjJbY0hdW2NIXVtjSF1uYzI9Tw==

> <s_epik_cmdline>
J2VwaWtfcHl0aG9uJywgJy1waCcsICc3LjAnLCAnLXRuJywgJzgnLCAnLW1hJywgJzIwMCcsICctbWV0YWxfYmluZGluZycsICctaW1hZScsICc8aW5maWxlLm1hZT4nLCAnLW9tYWUnLCAnPG91dGZpbGUubWFlPic=

> <r_lp_tautomer_probability>
1

> <r_epik_Ionization_Penalty>
7.65306e-06

> <r_epik_Ionization_Penalty_Charging>
1.81354e-08

> <r_epik_Ionization_Penalty_Neutral>
7.63492e-06

> <r_epik_State_Penalty>
-0

> <r_epik_Charging_Adjusted_Penalty>
1.81354e-08

> <i_epik_Tot_Q>
0

> <i_epik_Tot_abs_Q>
0

> <r_epik_Metal_State_Penalty>
-0

> <b_epik_Metal_Only>
0

> <s_lp_Force_Field>
OPLS_2005

> <r_lp_Energy>
9.99244

> <b_lp_Chiralities_Consistent>
1

> <s_lp_Variant>
AV-unprocessed.smi:364-2

> <Gold.Version>
5.8.1

> <Gold.Id.Protein>
6NUR|6NUR_protein|mol2

> <Gold.PLP.Fitness>
43.8550

> <Gold.PLP.PLP>
-35.2489

> <Gold.PLP.part.hbond>
-3.0000

> <Gold.PLP.part.metal>
0.0000

> <Gold.PLP.part.buried>
-3.9735

> <Gold.PLP.part.nonpolar>
-28.7595

> <Gold.PLP.part.repulsive>
0.2007

> <Gold.PLP.ligand.clash>
0.0000

> <Gold.PLP.ligand.torsion>
0.1973

> <Gold.PLP.Chemscore.Hbond>
2.0000

> <Gold.PLP.Chemscore.CHOScore>
0.9983

> <Gold.PLP.Chemscore.Metal>
0.0000

> <Gold.Chemscore.Hbonds>
donor molecule, donor type, donor heavy atom, donor atom, acceptor molecule, acceptor atom, score
      P1  H  7997  8010       L1     8  1.00
      P1  H 10752 10765       L1    14  0.88
      L1  C    13    33       P1  7949  0.50

> <Gold.PLP.Chemscore.Internal.Correction>
0.0059

> <Gold.Rescore>
     Score         DG    S(hbond)    S(metal)    S(lipo)     H(rot)  DE(clash)    DE(int)     intcor
     17.91     -19.12       1.48        0.00     107.13       1.50       0.96       0.25       ----

> <Gold.Chemscore.Fitness>
17.9136

> <Gold.Chemscore.DG>
-19.1246

> <Gold.Chemscore.ZeroCoef>
-5.4800

> <Gold.Chemscore.Hbond>
1.4804

> <Gold.Chemscore.Metal>
0.0000

> <Gold.Chemscore.Lipo>
107.1304

> <Gold.Chemscore.Internal_Hbond>
0.0000

> <Gold.Chemscore.DEClash>
0.9623

> <Gold.Chemscore.DEInternal>
0.2487

> <Gold.Chemscore.Rot>
1.4977

> <Gold.Chemscore.Internal.Correction>
   9.000000E+99

> <Gold.Chemscore.Hbonds>
donor molecule, donor type, donor heavy atom, donor atom, acceptor molecule, acceptor atom, score
      P1  H  6896  6907       L1    16  0.01
      P1  H  7997  8010       L1     8  0.74
      P1  H 10752 10765       L1    14  0.19

> <Gold.Chemscore.Hbond.Weighted>
-4.9445

> <Gold.Chemscore.Metal.Weighted>
-0.0000

> <Gold.Chemscore.Lipo.Weighted>
-12.5343

> <Gold.Chemscore.Internal_Hbond.Weighted>
0.0000

> <Gold.Chemscore.DEClash.Weighted>
0.9623

> <Gold.Chemscore.DEInternal.Weighted>
0.2487

> <Gold.Chemscore.Rot.Weighted>
3.8341

> <Gold.Chemscore.Internal.Correction.Weighted>
   9.000000E+99

> <Gold.Protein.RotatedTorsions>
[ 6907 6896 6895 6894 ] final  -17.51 input  -60.11 | X-H torsion
[ 7974 7965 7964 7962 ] final  -36.77 input  175.53 | X-H torsion
[ 8008 7997 7996 7995 ] final    6.02 input   59.86 | X-H torsion
[ 10167 10162 10161 10158 ] final  -92.12 input  -65.29 | X-H torsion
[ 10718 10713 10712 10709 ] final  159.34 input   66.30 | X-H torsion
[ 10763 10752 10751 10750 ] final  174.99 input  -60.55 | X-H torsion
[ 11005 11000 10999 10996 ] final  -53.95 input  -57.11 | X-H torsion

> <Gold.Protein.ActiveResidues>
 VAL166  LYS551  ARG553  GLY616  TRP617  ASP618  TYR619  PRO620  LYS621  CYS622 
 ASP623  PHE694  ASN695  SER759  ASP760  ASP761  ALA762  ILE779  LEU786  VAL792 
 PHE793  MET794  SER795  GLU796  ALA797  LYS798  CYS799  TRP800  GLU811  SER814 

> <Gold.Protein.RotatedAtoms>
  151.2922  135.0745  159.9208 H   0  0  0  0  0  0  0  0  0  0  0  0  # atno 6907 bound_to 6896
  152.5314  133.9920  159.7865 H   0  0  0  0  0  0  0  0  0  0  0  0  # atno 6908 bound_to 6896
  151.0192  133.5841  159.2704 H   0  0  0  0  0  0  0  0  0  0  0  0  # atno 6909 bound_to 6896
  146.0633  140.6318  142.8987 H   0  0  0  0  0  0  0  0  0  0  0  0  # atno 7974 bound_to 7965
  154.7357  140.2739  155.6417 H   0  0  0  0  0  0  0  0  0  0  0  0  # atno 8008 bound_to 7997
  156.2861  140.2707  156.1995 H   0  0  0  0  0  0  0  0  0  0  0  0  # atno 8009 bound_to 7997
  155.0324  140.0371  157.2469 H   0  0  0  0  0  0  0  0  0  0  0  0  # atno 8010 bound_to 7997
  140.3380  143.2958  151.9867 H   0  0  0  0  0  0  0  0  0  0  0  0  # atno 10167 bound_to 10162
  157.1655  131.0597  151.2210 H   0  0  0  0  0  0  0  0  0  0  0  0  # atno 10718 bound_to 10713
  154.4615  135.2768  155.1709 H   0  0  0  0  0  0  0  0  0  0  0  0  # atno 10763 bound_to 10752
  154.3495  135.6153  153.5639 H   0  0  0  0  0  0  0  0  0  0  0  0  # atno 10764 bound_to 10752
  152.9855  135.5808  154.4978 H   0  0  0  0  0  0  0  0  0  0  0  0  # atno 10765 bound_to 10752
  141.1002  133.6619  156.4249 H   0  0  0  0  0  0  0  0  0  0  0  0  # atno 11005 bound_to 11000
  144.7187  140.4300  143.7024 LP  0  0  0  0  0  0  0  0  0  0  0  0  # atno 17320 bound_to 7965
  145.6522  139.1567  143.2855 LP  0  0  0  0  0  0  0  0  0  0  0  0  # atno 17321 bound_to 7965
  139.4845  144.6180  151.7309 LP  0  0  0  0  0  0  0  0  0  0  0  0  # atno 17342 bound_to 10162
  140.5336  144.0692  150.6062 LP  0  0  0  0  0  0  0  0  0  0  0  0  # atno 17343 bound_to 10162
  157.4092  130.7376  149.6826 LP  0  0  0  0  0  0  0  0  0  0  0  0  # atno 17370 bound_to 10713
  155.9747  130.4100  150.3906 LP  0  0  0  0  0  0  0  0  0  0  0  0  # atno 17371 bound_to 10713
  140.5041  134.6457  157.5260 LP  0  0  0  0  0  0  0  0  0  0  0  0  # atno 17394 bound_to 11000
  139.9851  134.7075  155.9789 LP  0  0  0  0  0  0  0  0  0  0  0  0  # atno 17395 bound_to 11000

$$$$
