AV-unprocessed.smi:772|AV-procd|sdf|3687|dock9
  -GOLD-   22720 1103D 1   1.00000     0.00000
 Structure written by MMmdl.
 47 48  0  0  0  0  0  0  0  0  2 V2000
  143.4283  143.5288  156.4139 C   0  0  0  0  0  0  0  0  0  0  0  0
  144.7162  143.1225  155.7299 C   0  0  0  0  0  0  0  0  0  0  0  0
  145.0835  143.6148  154.4594 C   0  0  0  0  0  0  0  0  0  0  0  0
  146.2933  143.1831  153.8777 C   0  0  0  0  0  0  0  0  0  0  0  0
  147.1107  142.2679  154.5762 C   0  0  0  0  0  0  0  0  0  0  0  0
  148.3987  141.7572  153.9548 C   0  0  0  0  0  0  0  0  0  0  0  0
  149.3030  141.0002  154.9470 C   0  0  0  0  0  0  0  0  0  0  0  0
  149.7301  141.8390  156.0645 N   0  0  0  0  0  0  0  0  0  0  0  0
  150.3608  141.4145  157.1741 C   0  0  0  0  0  0  0  0  0  0  0  0
  150.6423  140.2289  157.3550 O   0  0  0  0  0  0  0  0  0  0  0  0
  150.6112  142.3837  158.0903 N   0  0  0  0  0  0  0  0  0  0  0  0
  150.4255  143.8296  157.8896 C   0  0  0  0  0  0  0  0  0  0  0  0
  151.7701  144.4530  157.4858 C   0  0  0  0  0  0  0  0  0  0  0  0
  153.0003  144.2586  158.8118 S   0  0  0  0  0  0  0  0  0  0  0  0
  152.8319  142.4703  159.1533 C   0  0  1  0  0  0  0  0  0  0  0  0
  153.7149  142.0129  160.3419 C   0  0  0  0  0  0  0  0  0  0  0  0
  153.9323  140.4894  160.4096 C   0  0  0  0  0  0  0  0  0  0  0  0
  153.1953  142.5522  161.6855 C   0  0  0  0  0  0  0  0  0  0  0  0
  151.3426  142.0980  159.3309 C   0  0  0  0  0  0  0  0  0  0  0  0
  146.6956  141.8160  155.8476 C   0  0  0  0  0  0  0  0  0  0  0  0
  145.5288  142.2521  156.3698 N   0  3  0  0  0  0  0  0  0  0  0  0
  142.9301  144.3310  155.8687 H   0  0  0  0  0  0  0  0  0  0  0  0
  143.6276  143.8796  157.4268 H   0  0  0  0  0  0  0  0  0  0  0  0
  142.7468  142.6796  156.4701 H   0  0  0  0  0  0  0  0  0  0  0  0
  144.4457  144.3089  153.9316 H   0  0  0  0  0  0  0  0  0  0  0  0
  146.5832  143.5411  152.9005 H   0  0  0  0  0  0  0  0  0  0  0  0
  148.1454  141.1024  153.1201 H   0  0  0  0  0  0  0  0  0  0  0  0
  148.9469  142.5964  153.5241 H   0  0  0  0  0  0  0  0  0  0  0  0
  148.7998  140.1026  155.3101 H   0  0  0  0  0  0  0  0  0  0  0  0
  150.1977  140.6545  154.4289 H   0  0  0  0  0  0  0  0  0  0  0  0
  149.5264  142.8252  155.9918 H   0  0  0  0  0  0  0  0  0  0  0  0
  149.6670  144.0666  157.1435 H   0  0  0  0  0  0  0  0  0  0  0  0
  150.0644  144.2896  158.8105 H   0  0  0  0  0  0  0  0  0  0  0  0
  152.1492  143.9878  156.5752 H   0  0  0  0  0  0  0  0  0  0  0  0
  151.6494  145.5157  157.2760 H   0  0  0  0  0  0  0  0  0  0  0  0
  153.1931  141.9522  158.2636 H   0  0  0  0  0  0  0  0  0  0  0  0
  154.6976  142.4630  160.1960 H   0  0  0  0  0  0  0  0  0  0  0  0
  152.9973  139.9526  160.5695 H   0  0  0  0  0  0  0  0  0  0  0  0
  154.5995  140.2300  161.2320 H   0  0  0  0  0  0  0  0  0  0  0  0
  154.3872  140.1049  159.4974 H   0  0  0  0  0  0  0  0  0  0  0  0
  152.2243  142.1287  161.9427 H   0  0  0  0  0  0  0  0  0  0  0  0
  153.0901  143.6371  161.6610 H   0  0  0  0  0  0  0  0  0  0  0  0
  153.8834  142.3098  162.4959 H   0  0  0  0  0  0  0  0  0  0  0  0
  150.8994  142.6611  160.1525 H   0  0  0  0  0  0  0  0  0  0  0  0
  151.2467  141.0497  159.6178 H   0  0  0  0  0  0  0  0  0  0  0  0
  147.2487  141.1120  156.4519 H   0  0  0  0  0  0  0  0  0  0  0  0
  145.2457  141.9057  157.2868 H   0  0  0  0  0  0  0  0  0  0  0  0
  1  2  1  0  0  0  0
  1 22  1  0  0  0  0
  1 23  1  0  0  0  0
  1 24  1  0  0  0  0
  2 21  1  0  0  0  0
  2  3  2  0  0  0  0
  3  4  1  0  0  0  0
  3 25  1  0  0  0  0
  4  5  2  0  0  0  0
  4 26  1  0  0  0  0
  5  6  1  0  0  0  0
  5 20  1  0  0  0  0
  6  7  1  0  0  0  0
  6 27  1  0  0  0  0
  6 28  1  0  0  0  0
  7  8  1  0  0  0  0
  7 29  1  0  0  0  0
  7 30  1  0  0  0  0
  8  9  1  0  0  0  0
  8 31  1  0  0  0  0
  9 10  2  0  0  0  0
  9 11  1  0  0  0  0
 11 19  1  0  0  0  0
 11 12  1  0  0  0  0
 12 13  1  0  0  0  0
 12 32  1  0  0  0  0
 12 33  1  0  0  0  0
 13 14  1  0  0  0  0
 13 34  1  0  0  0  0
 13 35  1  0  0  0  0
 14 15  1  0  0  0  0
 15 16  1  0  0  0  0
 15 19  1  0  0  0  0
 15 36  1  0  0  0  0
 16 17  1  0  0  0  0
 16 18  1  0  0  0  0
 16 37  1  0  0  0  0
 17 38  1  0  0  0  0
 17 39  1  0  0  0  0
 17 40  1  0  0  0  0
 18 41  1  0  0  0  0
 18 42  1  0  0  0  0
 18 43  1  0  0  0  0
 19 44  1  0  0  0  0
 19 45  1  0  0  0  0
 20 21  2  0  0  0  0
 20 46  1  0  0  0  0
 21 47  1  0  0  0  0
M  CHG  1  21   1
M  END
> <s_m_source_file>
AV-unprocessed.smi

> <i_m_source_file_index>
772

> <i_lp_mmshare_version>
43012

> <i_f3d_flags>
0

> <s_epik_input>
W0NIM11jMVtjSF1bY0hdYyhbY0hdbjEpW0NIMl1bQ0gyXVtOSF1DKD1PKU4yW0NIMl1bQ0gyXVNbQ0BIXShbQ0gyXTIpW0NIXShbQ0gzXSlbQ0gzXQ==

> <s_epik_cmdline>
J2VwaWtfcHl0aG9uJywgJy1waCcsICc3LjAnLCAnLXRuJywgJzgnLCAnLW1hJywgJzIwMCcsICctbWV0YWxfYmluZGluZycsICctaW1hZScsICc8aW5maWxlLm1hZT4nLCAnLW9tYWUnLCAnPG91dGZpbGUubWFlPic=

> <r_epik_Ionization_Penalty>
1.41908

> <r_epik_Ionization_Penalty_Charging>
1.41903

> <r_epik_Ionization_Penalty_Neutral>
4.72921e-05

> <r_epik_State_Penalty>
1.50265

> <r_epik_Charging_Adjusted_Penalty>
2.92168

> <i_epik_Tot_Q>
1

> <i_epik_Tot_abs_Q>
1

> <r_epik_Metal_State_Penalty>
1.55496

> <b_epik_Metal_Only>
0

> <s_lp_Force_Field>
OPLS_2005

> <r_lp_Energy>
32.521

> <b_lp_Chiralities_Consistent>
1

> <s_lp_Variant>
AV-unprocessed.smi:772-3

> <Gold.Version>
5.8.1

> <Gold.Id.Protein>
6NUR|6NUR_protein|mol2

> <Gold.PLP.Fitness>
46.8820

> <Gold.PLP.PLP>
-44.4809

> <Gold.PLP.part.hbond>
-0.9906

> <Gold.PLP.part.metal>
0.0000

> <Gold.PLP.part.buried>
0.1387

> <Gold.PLP.part.nonpolar>
-43.3894

> <Gold.PLP.part.repulsive>
0.0977

> <Gold.PLP.ligand.clash>
0.0000

> <Gold.PLP.ligand.torsion>
0.3330

> <Gold.PLP.Chemscore.Hbond>
0.9913

> <Gold.PLP.Chemscore.CHOScore>
0.0000

> <Gold.PLP.Chemscore.Metal>
0.0000

> <Gold.Chemscore.Hbonds>
donor molecule, donor type, donor heavy atom, donor atom, acceptor molecule, acceptor atom, score
      L1  H     8    31       P1  8028  1.00

> <Gold.PLP.Chemscore.Internal.Correction>
0.0934

> <Gold.Rescore>
     Score         DG    S(hbond)    S(metal)    S(lipo)     H(rot)  DE(clash)    DE(int)     intcor
     18.38     -19.30       0.99        0.00     120.49       1.39       0.42       0.51       ----

> <Gold.Chemscore.Fitness>
18.3770

> <Gold.Chemscore.DG>
-19.3003

> <Gold.Chemscore.ZeroCoef>
-5.4800

> <Gold.Chemscore.Hbond>
0.9860

> <Gold.Chemscore.Metal>
0.0000

> <Gold.Chemscore.Lipo>
120.4949

> <Gold.Chemscore.Internal_Hbond>
0.0000

> <Gold.Chemscore.DEClash>
0.4182

> <Gold.Chemscore.DEInternal>
0.5050

> <Gold.Chemscore.Rot>
1.3949

> <Gold.Chemscore.Internal.Correction>
   9.000000E+99

> <Gold.Chemscore.Hbonds>
donor molecule, donor type, donor heavy atom, donor atom, acceptor molecule, acceptor atom, score
      L1  H     8    31       P1  8028  0.93

> <Gold.Chemscore.Hbond.Weighted>
-3.2933

> <Gold.Chemscore.Metal.Weighted>
-0.0000

> <Gold.Chemscore.Lipo.Weighted>
-14.0979

> <Gold.Chemscore.Internal_Hbond.Weighted>
0.0000

> <Gold.Chemscore.DEClash.Weighted>
0.4182

> <Gold.Chemscore.DEInternal.Weighted>
0.5050

> <Gold.Chemscore.Rot.Weighted>
3.5709

> <Gold.Chemscore.Internal.Correction.Weighted>
   9.000000E+99

> <Gold.Protein.RotatedTorsions>
[ 6907 6896 6895 6894 ] final -158.56 input  -60.11 | X-H torsion
[ 7974 7965 7964 7962 ] final -111.62 input  175.53 | X-H torsion
[ 8008 7997 7996 7995 ] final -112.10 input   59.86 | X-H torsion
[ 10167 10162 10161 10158 ] final    3.86 input  -65.29 | X-H torsion
[ 10718 10713 10712 10709 ] final  -11.47 input   66.30 | X-H torsion
[ 10763 10752 10751 10750 ] final  -55.11 input  -60.55 | X-H torsion
[ 11005 11000 10999 10996 ] final  -11.23 input  -57.11 | X-H torsion

> <Gold.Protein.ActiveResidues>
 VAL166  LYS551  ARG553  GLY616  TRP617  ASP618  TYR619  PRO620  LYS621  CYS622 
 ASP623  PHE694  ASN695  SER759  ASP760  ASP761  ALA762  ILE779  LEU786  VAL792 
 PHE793  MET794  SER795  GLU796  ALA797  LYS798  CYS799  TRP800  GLU811  SER814 

> <Gold.Protein.RotatedAtoms>
  151.3200  133.4044  159.2653 H   0  0  0  0  0  0  0  0  0  0  0  0  # atno 6907 bound_to 6896
  151.0042  134.9347  159.7981 H   0  0  0  0  0  0  0  0  0  0  0  0  # atno 6908 bound_to 6896
  152.5283  134.3165  159.9185 H   0  0  0  0  0  0  0  0  0  0  0  0  # atno 6909 bound_to 6896
  145.1539  140.8843  143.3630 H   0  0  0  0  0  0  0  0  0  0  0  0  # atno 7974 bound_to 7965
  154.9999  140.0394  157.2356 H   0  0  0  0  0  0  0  0  0  0  0  0  # atno 8008 bound_to 7997
  154.7553  140.2774  155.6236 H   0  0  0  0  0  0  0  0  0  0  0  0  # atno 8009 bound_to 7997
  156.2893  140.2639  156.2317 H   0  0  0  0  0  0  0  0  0  0  0  0  # atno 8010 bound_to 7997
  140.6564  143.7416  150.7661 H   0  0  0  0  0  0  0  0  0  0  0  0  # atno 10167 bound_to 10162
  156.6586  130.4975  149.6038 H   0  0  0  0  0  0  0  0  0  0  0  0  # atno 10718 bound_to 10713
  154.1856  135.6436  153.5046 H   0  0  0  0  0  0  0  0  0  0  0  0  # atno 10763 bound_to 10752
  153.0048  135.5416  154.6469 H   0  0  0  0  0  0  0  0  0  0  0  0  # atno 10764 bound_to 10752
  154.5844  135.2928  155.0672 H   0  0  0  0  0  0  0  0  0  0  0  0  # atno 10765 bound_to 10752
  140.7531  133.8576  155.9061 H   0  0  0  0  0  0  0  0  0  0  0  0  # atno 11005 bound_to 11000
  145.0402  139.3267  143.5980 LP  0  0  0  0  0  0  0  0  0  0  0  0  # atno 17320 bound_to 7965
  146.3491  139.9772  142.8699 LP  0  0  0  0  0  0  0  0  0  0  0  0  # atno 17321 bound_to 7965
  140.1076  143.4729  152.2389 LP  0  0  0  0  0  0  0  0  0  0  0  0  # atno 17342 bound_to 10162
  139.5788  144.7500  151.3695 LP  0  0  0  0  0  0  0  0  0  0  0  0  # atno 17343 bound_to 10162
  156.2028  130.6631  151.1186 LP  0  0  0  0  0  0  0  0  0  0  0  0  # atno 17370 bound_to 10713
  157.7117  131.0731  150.6476 LP  0  0  0  0  0  0  0  0  0  0  0  0  # atno 17371 bound_to 10713
  140.9732  134.1503  157.4558 LP  0  0  0  0  0  0  0  0  0  0  0  0  # atno 17394 bound_to 11000
  139.8784  134.9986  156.5907 LP  0  0  0  0  0  0  0  0  0  0  0  0  # atno 17395 bound_to 11000

$$$$
