AV-unprocessed.smi:1554|AV-procd|sdf|6262|dock6
  -GOLD-   22720 6453D 1   1.00000     0.00000
 Structure written by MMmdl.
 49 51  0  0  0  0  0  0  0  0  3 V2000
  152.9380  140.8371  159.2078 C   0  0  0  0  0  0  0  0  0  0  0  0
  152.0072  140.7300  158.0118 C   0  0  0  0  0  0  0  0  0  0  0  0
  152.1282  139.6084  157.1612 C   0  0  0  0  0  0  0  0  0  0  0  0
  151.2615  139.5378  156.0770 C   0  0  0  0  0  0  0  0  0  0  0  0
  151.1296  138.5748  155.0747 N   0  3  0  0  0  0  0  0  0  0  0  0
  150.1341  138.9406  154.2210 C   0  0  0  0  0  0  0  0  0  0  0  0
  149.6240  140.1218  154.6654 N   0  0  0  0  0  0  0  0  0  0  0  0
  148.5440  140.9438  154.1011 C   0  0  0  0  0  0  0  0  0  0  0  0
  147.3756  140.1046  153.5470 C   0  0  2  0  0  0  0  0  0  0  0  0
  146.6033  140.9463  152.7152 O   0  0  0  0  0  0  0  0  0  0  0  0
  146.4610  139.5082  154.6396 C   0  0  0  0  0  0  0  0  0  0  0  0
  145.3723  138.6674  154.0795 N   0  3  2  0  0  0  0  0  0  0  0  0
  144.5515  138.0278  155.1347 C   0  0  0  0  0  0  0  0  0  0  0  0
  143.4046  137.2185  154.5072 C   0  0  0  0  0  0  0  0  0  0  0  0
  143.9394  136.2536  153.6098 O   0  0  0  0  0  0  0  0  0  0  0  0
  144.6552  136.8540  152.5361 C   0  0  2  0  0  0  0  0  0  0  0  0
  145.1084  135.7435  151.5817 C   0  0  0  0  0  0  0  0  0  0  0  0
  145.8447  137.6508  153.1065 C   0  0  0  0  0  0  0  0  0  0  0  0
  150.2998  140.5352  155.8209 C   0  0  0  0  0  0  0  0  0  0  0  0
  150.1685  141.6475  156.6499 C   0  0  0  0  0  0  0  0  0  0  0  0
  151.0391  141.7361  157.7595 C   0  0  0  0  0  0  0  0  0  0  0  0
  150.9164  142.9372  158.6819 C   0  0  0  0  0  0  0  0  0  0  0  0
  153.6340  139.9987  159.2483 H   0  0  0  0  0  0  0  0  0  0  0  0
  152.3679  140.8420  160.1369 H   0  0  0  0  0  0  0  0  0  0  0  0
  153.5255  141.7541  159.1565 H   0  0  0  0  0  0  0  0  0  0  0  0
  152.8631  138.8385  157.3471 H   0  0  0  0  0  0  0  0  0  0  0  0
  149.8096  138.3926  153.3479 H   0  0  0  0  0  0  0  0  0  0  0  0
  148.1997  141.6572  154.8498 H   0  0  0  0  0  0  0  0  0  0  0  0
  148.9862  141.5375  153.2994 H   0  0  0  0  0  0  0  0  0  0  0  0
  147.7912  139.3118  152.9258 H   0  0  0  0  0  0  0  0  0  0  0  0
  145.6961  140.6878  152.7779 H   0  0  0  0  0  0  0  0  0  0  0  0
  147.0336  138.9079  155.3474 H   0  0  0  0  0  0  0  0  0  0  0  0
  146.0304  140.3292  155.2154 H   0  0  0  0  0  0  0  0  0  0  0  0
  145.1797  137.3754  155.7433 H   0  0  0  0  0  0  0  0  0  0  0  0
  144.1398  138.7890  155.7985 H   0  0  0  0  0  0  0  0  0  0  0  0
  142.8392  136.7035  155.2840 H   0  0  0  0  0  0  0  0  0  0  0  0
  142.7050  137.8728  153.9847 H   0  0  0  0  0  0  0  0  0  0  0  0
  143.9891  137.5271  151.9930 H   0  0  0  0  0  0  0  0  0  0  0  0
  145.6567  136.1538  150.7333 H   0  0  0  0  0  0  0  0  0  0  0  0
  144.2526  135.1942  151.1886 H   0  0  0  0  0  0  0  0  0  0  0  0
  145.7588  135.0284  152.0866 H   0  0  0  0  0  0  0  0  0  0  0  0
  146.3811  138.1290  152.2878 H   0  0  0  0  0  0  0  0  0  0  0  0
  146.5480  136.9758  153.5972 H   0  0  0  0  0  0  0  0  0  0  0  0
  149.4337  142.4161  156.4634 H   0  0  0  0  0  0  0  0  0  0  0  0
  150.1308  143.6171  158.3507 H   0  0  0  0  0  0  0  0  0  0  0  0
  151.8512  143.4975  158.7082 H   0  0  0  0  0  0  0  0  0  0  0  0
  150.6743  142.6180  159.6960 H   0  0  0  0  0  0  0  0  0  0  0  0
  144.7558  139.2932  153.5802 H   0  0  0  0  0  0  0  0  0  0  0  0
  151.6800  137.7311  154.9760 H   0  0  0  0  0  0  0  0  0  0  0  0
  1  2  1  0  0  0  0
  1 23  1  0  0  0  0
  1 24  1  0  0  0  0
  1 25  1  0  0  0  0
  2 21  1  0  0  0  0
  2  3  2  0  0  0  0
  3  4  1  0  0  0  0
  3 26  1  0  0  0  0
  4 19  2  0  0  0  0
  4  5  1  0  0  0  0
  5  6  2  0  0  0  0
  5 49  1  0  0  0  0
  6  7  1  0  0  0  0
  6 27  1  0  0  0  0
  7  8  1  0  0  0  0
  7 19  1  0  0  0  0
  8  9  1  0  0  0  0
  8 28  1  0  0  0  0
  8 29  1  0  0  0  0
  9 10  1  0  0  0  0
  9 11  1  0  0  0  0
  9 30  1  0  0  0  0
 10 31  1  0  0  0  0
 11 12  1  0  0  0  0
 11 32  1  0  0  0  0
 11 33  1  0  0  0  0
 12 18  1  0  0  0  0
 12 13  1  0  0  0  0
 12 48  1  0  0  0  0
 13 14  1  0  0  0  0
 13 34  1  0  0  0  0
 13 35  1  0  0  0  0
 14 15  1  0  0  0  0
 14 36  1  0  0  0  0
 14 37  1  0  0  0  0
 15 16  1  0  0  0  0
 16 17  1  0  0  0  0
 16 18  1  0  0  0  0
 16 38  1  0  0  0  0
 17 39  1  0  0  0  0
 17 40  1  0  0  0  0
 17 41  1  0  0  0  0
 18 42  1  0  0  0  0
 18 43  1  0  0  0  0
 19 20  1  0  0  0  0
 20 21  2  0  0  0  0
 20 44  1  0  0  0  0
 21 22  1  0  0  0  0
 22 45  1  0  0  0  0
 22 46  1  0  0  0  0
 22 47  1  0  0  0  0
M  CHG  1   5   1
M  CHG  1  12   1
M  END
> <s_m_source_file>
AV-unprocessed.smi

> <i_m_source_file_index>
1554

> <i_lp_mmshare_version>
43012

> <i_f3d_flags>
0

> <s_epik_input>
W0NIM11jKFtjSF0xKWMoW0NIM10pW2NIXWMoYzEyKW4oW2NIXW4yKVtDSDJdW0NASF0oW09IXSlbQ0gyXU4zW0NIMl1bQ0gyXU9bQ0BASF0oW0NIM10pW0NIMl0z

> <s_epik_cmdline>
J2VwaWtfcHl0aG9uJywgJy1waCcsICc3LjAnLCAnLXRuJywgJzgnLCAnLW1hJywgJzIwMCcsICctbWV0YWxfYmluZGluZycsICctaW1hZScsICc8aW5maWxlLm1hZT4nLCAnLW9tYWUnLCAnPG91dGZpbGUubWFlPic=

> <r_epik_Ionization_Penalty>
1.8848

> <r_epik_Ionization_Penalty_Charging>
1.88479

> <r_epik_Ionization_Penalty_Neutral>
1.42224e-05

> <r_epik_State_Penalty>
1.94551

> <r_epik_Charging_Adjusted_Penalty>
3.8303

> <i_epik_Tot_Q>
2

> <i_epik_Tot_abs_Q>
2

> <r_epik_Metal_State_Penalty>
5.95849

> <b_epik_Metal_Only>
0

> <s_lp_Force_Field>
OPLS_2005

> <r_lp_Energy>
32.1421

> <b_lp_Chiralities_Consistent>
1

> <s_lp_Variant>
AV-unprocessed.smi:1554-23

> <Gold.Version>
5.8.1

> <Gold.Id.Protein>
6NUR|6NUR_protein|mol2

> <Gold.PLP.Fitness>
45.8331

> <Gold.PLP.PLP>
-34.1209

> <Gold.PLP.part.hbond>
-2.0000

> <Gold.PLP.part.metal>
0.0000

> <Gold.PLP.part.buried>
-1.1396

> <Gold.PLP.part.nonpolar>
-30.7483

> <Gold.PLP.part.repulsive>
0.1792

> <Gold.PLP.ligand.clash>
0.0000

> <Gold.PLP.ligand.torsion>
0.4584

> <Gold.PLP.Chemscore.Hbond>
3.0000

> <Gold.PLP.Chemscore.CHOScore>
1.1977

> <Gold.PLP.Chemscore.Metal>
0.0000

> <Gold.Chemscore.Hbonds>
donor molecule, donor type, donor heavy atom, donor atom, acceptor molecule, acceptor atom, score
      L1  H    10    31       P1 10175  0.99
      L1  H    12    48       P1 10175  2.00
      L1  C     6    27       P1  7948  0.53
      L1  C     6    27       P1  7957  0.32

> <Gold.PLP.Chemscore.Internal.Correction>
0.0358

> <Gold.Rescore>
     Score         DG    S(hbond)    S(metal)    S(lipo)     H(rot)  DE(clash)    DE(int)     intcor
     15.60     -16.05       1.63        0.00      90.06       2.11       0.05       0.40       ----

> <Gold.Chemscore.Fitness>
15.6000

> <Gold.Chemscore.DG>
-16.0481

> <Gold.Chemscore.ZeroCoef>
-5.4800

> <Gold.Chemscore.Hbond>
1.6282

> <Gold.Chemscore.Metal>
0.0000

> <Gold.Chemscore.Lipo>
90.0604

> <Gold.Chemscore.Internal_Hbond>
0.0000

> <Gold.Chemscore.DEClash>
0.0476

> <Gold.Chemscore.DEInternal>
0.4005

> <Gold.Chemscore.Rot>
2.1122

> <Gold.Chemscore.Internal.Correction>
   9.000000E+99

> <Gold.Chemscore.Hbonds>
donor molecule, donor type, donor heavy atom, donor atom, acceptor molecule, acceptor atom, score
      L1  H    10    31       P1 10175  0.46
      L1  H    12    48       P1 10175  0.99

> <Gold.Chemscore.Hbond.Weighted>
-5.4383

> <Gold.Chemscore.Metal.Weighted>
-0.0000

> <Gold.Chemscore.Lipo.Weighted>
-10.5371

> <Gold.Chemscore.Internal_Hbond.Weighted>
0.0000

> <Gold.Chemscore.DEClash.Weighted>
0.0476

> <Gold.Chemscore.DEInternal.Weighted>
0.4005

> <Gold.Chemscore.Rot.Weighted>
5.4073

> <Gold.Chemscore.Internal.Correction.Weighted>
   9.000000E+99

> <Gold.Protein.RotatedTorsions>
[ 6907 6896 6895 6894 ] final   -4.61 input  -60.11 | X-H torsion
[ 7974 7965 7964 7962 ] final -123.70 input  175.53 | X-H torsion
[ 8008 7997 7996 7995 ] final  151.02 input   59.86 | X-H torsion
[ 10167 10162 10161 10158 ] final   96.85 input  -65.29 | X-H torsion
[ 10718 10713 10712 10709 ] final  -75.07 input   66.30 | X-H torsion
[ 10763 10752 10751 10750 ] final   73.27 input  -60.55 | X-H torsion
[ 11005 11000 10999 10996 ] final  110.27 input  -57.11 | X-H torsion

> <Gold.Protein.ActiveResidues>
 VAL166  LYS551  ARG553  GLY616  TRP617  ASP618  TYR619  PRO620  LYS621  CYS622 
 ASP623  PHE694  ASN695  SER759  ASP760  ASP761  ALA762  ILE779  LEU786  VAL792 
 PHE793  MET794  SER795  GLU796  ALA797  LYS798  CYS799  TRP800  GLU811  SER814 

> <Gold.Protein.RotatedAtoms>
  151.4950  135.1059  159.9813 H   0  0  0  0  0  0  0  0  0  0  0  0  # atno 6907 bound_to 6896
  152.4725  133.8059  159.6988 H   0  0  0  0  0  0  0  0  0  0  0  0  # atno 6908 bound_to 6896
  150.8743  133.7398  159.2977 H   0  0  0  0  0  0  0  0  0  0  0  0  # atno 6909 bound_to 6896
  145.0159  140.7946  143.4410 H   0  0  0  0  0  0  0  0  0  0  0  0  # atno 7974 bound_to 7965
  156.2691  140.2059  156.6110 H   0  0  0  0  0  0  0  0  0  0  0  0  # atno 8008 bound_to 7997
  154.6831  140.0538  157.0311 H   0  0  0  0  0  0  0  0  0  0  0  0  # atno 8009 bound_to 7997
  155.0972  140.3202  155.4560 H   0  0  0  0  0  0  0  0  0  0  0  0  # atno 8010 bound_to 7997
  139.7856  144.6872  150.9962 H   0  0  0  0  0  0  0  0  0  0  0  0  # atno 10167 bound_to 10162
  156.0220  130.4432  150.2988 H   0  0  0  0  0  0  0  0  0  0  0  0  # atno 10718 bound_to 10713
  153.0511  135.5069  154.7868 H   0  0  0  0  0  0  0  0  0  0  0  0  # atno 10763 bound_to 10752
  154.6730  135.2956  154.9718 H   0  0  0  0  0  0  0  0  0  0  0  0  # atno 10764 bound_to 10752
  154.0530  135.6701  153.4855 H   0  0  0  0  0  0  0  0  0  0  0  0  # atno 10765 bound_to 10752
  139.8878  134.9480  156.6253 H   0  0  0  0  0  0  0  0  0  0  0  0  # atno 11005 bound_to 11000
  145.1960  139.2276  143.5217 LP  0  0  0  0  0  0  0  0  0  0  0  0  # atno 17320 bound_to 7965
  146.3478  140.1767  142.8589 LP  0  0  0  0  0  0  0  0  0  0  0  0  # atno 17321 bound_to 7965
  140.7819  143.4436  151.0516 LP  0  0  0  0  0  0  0  0  0  0  0  0  # atno 17342 bound_to 10162
  139.8114  143.7945  152.3171 LP  0  0  0  0  0  0  0  0  0  0  0  0  # atno 17343 bound_to 10162
  157.1091  131.0216  151.3055 LP  0  0  0  0  0  0  0  0  0  0  0  0  # atno 17370 bound_to 10713
  157.4719  130.7714  149.7331 LP  0  0  0  0  0  0  0  0  0  0  0  0  # atno 17371 bound_to 10713
  140.7708  133.8740  155.8490 LP  0  0  0  0  0  0  0  0  0  0  0  0  # atno 17394 bound_to 11000
  140.9843  134.1363  157.4466 LP  0  0  0  0  0  0  0  0  0  0  0  0  # atno 17395 bound_to 11000

$$$$
