AV-unprocessed.smi:2343|AV-procd|sdf|9356|dock1
  -GOLD-   2272012573D 1   1.00000     0.00000
 Structure written by MMmdl.
 34 35  0  0  0  0  0  0  0  0  1 V2000
  149.3447  140.5444  157.3044 O   0  0  0  0  0  0  0  0  0  0  0  0
  149.3271  141.7191  156.9374 C   0  0  0  0  0  0  0  0  0  0  0  0
  148.4808  142.1891  156.0097 N   0  0  0  0  0  0  0  0  0  0  0  0
  147.4876  141.3915  155.3002 C   0  0  0  0  0  0  0  0  0  0  0  0
  146.9445  142.1320  154.0668 C   0  0  0  0  0  0  0  0  0  0  0  0
  145.9273  143.1955  154.4314 C   0  0  0  0  0  0  0  0  0  0  0  0
  145.3964  143.4069  155.6349 C   0  0  0  0  0  0  0  0  0  0  0  0
  144.4088  144.5410  155.6423 C   0  0  0  0  0  0  0  0  0  0  0  0
  144.3771  145.0189  154.1732 C   0  0  0  0  0  0  0  0  0  0  0  0
  145.3878  144.1469  153.3946 C   0  0  0  0  0  0  0  0  0  0  0  0
  150.1203  142.6971  157.4078 N   0  0  0  0  0  0  0  0  0  0  0  0
  151.1668  142.6210  158.3682 C   0  0  0  0  0  0  0  0  0  0  0  0
  151.6450  141.4148  158.9359 C   0  0  0  0  0  0  0  0  0  0  0  0
  152.7030  141.4791  159.8650 C   0  0  0  0  0  0  0  0  0  0  0  0
  153.2949  142.6324  160.2412 N   0  0  0  0  0  0  0  0  0  0  0  0
  152.8446  143.7788  159.6892 C   0  0  0  0  0  0  0  0  0  0  0  0
  151.7934  143.8258  158.7517 C   0  0  0  0  0  0  0  0  0  0  0  0
  151.3942  145.0121  158.2320 F   0  0  0  0  0  0  0  0  0  0  0  0
  148.5292  143.1693  155.7729 H   0  0  0  0  0  0  0  0  0  0  0  0
  147.9637  140.4604  154.9920 H   0  0  0  0  0  0  0  0  0  0  0  0
  146.6773  141.1163  155.9772 H   0  0  0  0  0  0  0  0  0  0  0  0
  147.7582  142.6061  153.5164 H   0  0  0  0  0  0  0  0  0  0  0  0
  146.4787  141.4194  153.3849 H   0  0  0  0  0  0  0  0  0  0  0  0
  145.6298  142.8446  156.5271 H   0  0  0  0  0  0  0  0  0  0  0  0
  143.4316  144.1906  155.9757 H   0  0  0  0  0  0  0  0  0  0  0  0
  144.7466  145.3282  156.3168 H   0  0  0  0  0  0  0  0  0  0  0  0
  143.3755  144.9080  153.7564 H   0  0  0  0  0  0  0  0  0  0  0  0
  144.6410  146.0747  154.1032 H   0  0  0  0  0  0  0  0  0  0  0  0
  146.1916  144.7504  152.9721 H   0  0  0  0  0  0  0  0  0  0  0  0
  144.9061  143.5954  152.5867 H   0  0  0  0  0  0  0  0  0  0  0  0
  149.9281  143.6254  157.0608 H   0  0  0  0  0  0  0  0  0  0  0  0
  151.2383  140.4505  158.6753 H   0  0  0  0  0  0  0  0  0  0  0  0
  153.0893  140.5758  160.3137 H   0  0  0  0  0  0  0  0  0  0  0  0
  153.3386  144.6869  160.0023 H   0  0  0  0  0  0  0  0  0  0  0  0
  1  2  2  0  0  0  0
  2  3  1  0  0  0  0
  2 11  1  0  0  0  0
  3  4  1  0  0  0  0
  3 19  1  0  0  0  0
  4  5  1  0  0  0  0
  4 20  1  0  0  0  0
  4 21  1  0  0  0  0
  5  6  1  0  0  0  0
  5 22  1  0  0  0  0
  5 23  1  0  0  0  0
  6 10  1  0  0  0  0
  6  7  2  0  0  0  0
  7  8  1  0  0  0  0
  7 24  1  0  0  0  0
  8  9  1  0  0  0  0
  8 25  1  0  0  0  0
  8 26  1  0  0  0  0
  9 10  1  0  0  0  0
  9 27  1  0  0  0  0
  9 28  1  0  0  0  0
 10 29  1  0  0  0  0
 10 30  1  0  0  0  0
 11 12  1  0  0  0  0
 11 31  1  0  0  0  0
 12 17  1  0  0  0  0
 12 13  2  0  0  0  0
 13 14  1  0  0  0  0
 13 32  1  0  0  0  0
 14 15  2  0  0  0  0
 14 33  1  0  0  0  0
 15 16  1  0  0  0  0
 16 17  2  0  0  0  0
 16 34  1  0  0  0  0
 17 18  1  0  0  0  0
M  END
> <s_m_source_file>
AV-unprocessed.smi

> <i_m_source_file_index>
2343

> <i_lp_mmshare_version>
43012

> <i_f3d_flags>
0

> <s_epik_input>
RmMxW2NIXW5bY0hdW2NIXWMxW05IXUMoPU8pW05IXVtDSDJdW0NIMl1DMj1bQ0hdW0NIMl1bQ0gyXVtDSDJdMg==

> <s_epik_cmdline>
J2VwaWtfcHl0aG9uJywgJy1waCcsICc3LjAnLCAnLXRuJywgJzgnLCAnLW1hJywgJzIwMCcsICctbWV0YWxfYmluZGluZycsICctaW1hZScsICc8aW5maWxlLm1hZT4nLCAnLW9tYWUnLCAnPG91dGZpbGUubWFlPic=

> <r_epik_Ionization_Penalty>
0.0031801

> <r_epik_Ionization_Penalty_Charging>
0

> <r_epik_Ionization_Penalty_Neutral>
0.0031801

> <r_epik_State_Penalty>
0.0022135

> <r_epik_Charging_Adjusted_Penalty>
0.0022135

> <i_epik_Tot_Q>
0

> <i_epik_Tot_abs_Q>
0

> <r_epik_Metal_State_Penalty>
-0

> <b_epik_Metal_Only>
0

> <s_lp_Force_Field>
OPLS_2005

> <r_lp_Energy>
22.6316

> <b_lp_Chiralities_Consistent>
1

> <s_lp_Variant>
AV-unprocessed.smi:2343-1

> <Gold.Version>
5.8.1

> <Gold.Id.Protein>
6NUR|6NUR_protein|mol2

> <Gold.PLP.Fitness>
46.3365

> <Gold.PLP.PLP>
-41.1222

> <Gold.PLP.part.hbond>
-2.0000

> <Gold.PLP.part.metal>
0.0000

> <Gold.PLP.part.buried>
-7.5992

> <Gold.PLP.part.nonpolar>
-31.6500

> <Gold.PLP.part.repulsive>
0.1339

> <Gold.PLP.ligand.clash>
0.0000

> <Gold.PLP.ligand.torsion>
0.2285

> <Gold.PLP.Chemscore.Hbond>
1.8897

> <Gold.PLP.Chemscore.CHOScore>
0.0000

> <Gold.PLP.Chemscore.Metal>
0.0000

> <Gold.Chemscore.Hbonds>
donor molecule, donor type, donor heavy atom, donor atom, acceptor molecule, acceptor atom, score
      L1  H     3    19       P1  8028  1.00
      L1  H    11    31       P1  8028  0.87

> <Gold.PLP.Chemscore.Internal.Correction>
0.0021

> <Gold.Rescore>
     Score         DG    S(hbond)    S(metal)    S(lipo)     H(rot)  DE(clash)    DE(int)     intcor
     17.97     -19.41       1.94        0.00      94.83       1.43       0.10       1.35       ----

> <Gold.Chemscore.Fitness>
17.9657

> <Gold.Chemscore.DG>
-19.4103

> <Gold.Chemscore.ZeroCoef>
-5.4800

> <Gold.Chemscore.Hbond>
1.9435

> <Gold.Chemscore.Metal>
0.0000

> <Gold.Chemscore.Lipo>
94.8323

> <Gold.Chemscore.Internal_Hbond>
0.0000

> <Gold.Chemscore.DEClash>
0.0951

> <Gold.Chemscore.DEInternal>
1.3495

> <Gold.Chemscore.Rot>
1.4282

> <Gold.Chemscore.Internal.Correction>
   9.000000E+99

> <Gold.Chemscore.Hbonds>
donor molecule, donor type, donor heavy atom, donor atom, acceptor molecule, acceptor atom, score
      L1  H     3    19       P1  8028  0.97
      L1  H    11    31       P1  8028  0.79

> <Gold.Chemscore.Hbond.Weighted>
-6.4912

> <Gold.Chemscore.Metal.Weighted>
-0.0000

> <Gold.Chemscore.Lipo.Weighted>
-11.0954

> <Gold.Chemscore.Internal_Hbond.Weighted>
0.0000

> <Gold.Chemscore.DEClash.Weighted>
0.0951

> <Gold.Chemscore.DEInternal.Weighted>
1.3495

> <Gold.Chemscore.Rot.Weighted>
3.6563

> <Gold.Chemscore.Internal.Correction.Weighted>
   9.000000E+99

> <Gold.Protein.RotatedTorsions>
[ 6907 6896 6895 6894 ] final   19.18 input  -60.11 | X-H torsion
[ 7974 7965 7964 7962 ] final -157.35 input  175.53 | X-H torsion
[ 8008 7997 7996 7995 ] final  153.89 input   59.86 | X-H torsion
[ 10167 10162 10161 10158 ] final -155.09 input  -65.29 | X-H torsion
[ 10718 10713 10712 10709 ] final   24.25 input   66.30 | X-H torsion
[ 10763 10752 10751 10750 ] final  -99.22 input  -60.55 | X-H torsion
[ 11005 11000 10999 10996 ] final  164.19 input  -57.11 | X-H torsion

> <Gold.Protein.ActiveResidues>
 VAL166  LYS551  ARG553  GLY616  TRP617  ASP618  TYR619  PRO620  LYS621  CYS622 
 ASP623  PHE694  ASN695  SER759  ASP760  ASP761  ALA762  ILE779  LEU786  VAL792 
 PHE793  MET794  SER795  GLU796  ALA797  LYS798  CYS799  TRP800  GLU811  SER814 

> <Gold.Protein.RotatedAtoms>
  151.8769  135.0468  160.0484 H   0  0  0  0  0  0  0  0  0  0  0  0  # atno 6907 bound_to 6896
  152.2544  133.5238  159.5352 H   0  0  0  0  0  0  0  0  0  0  0  0  # atno 6908 bound_to 6896
  150.7094  134.0832  159.3948 H   0  0  0  0  0  0  0  0  0  0  0  0  # atno 6909 bound_to 6896
  144.7552  140.3981  143.6017 H   0  0  0  0  0  0  0  0  0  0  0  0  # atno 7974 bound_to 7965
  156.2559  140.1981  156.6561 H   0  0  0  0  0  0  0  0  0  0  0  0  # atno 8008 bound_to 7997
  154.6499  140.0573  156.9969 H   0  0  0  0  0  0  0  0  0  0  0  0  # atno 8009 bound_to 7997
  155.1433  140.3244  155.4450 H   0  0  0  0  0  0  0  0  0  0  0  0  # atno 8010 bound_to 7997
  139.6960  143.9342  152.2407 H   0  0  0  0  0  0  0  0  0  0  0  0  # atno 10167 bound_to 10162
  157.1772  130.6786  149.6099 H   0  0  0  0  0  0  0  0  0  0  0  0  # atno 10718 bound_to 10713
  154.7480  135.4980  153.9238 H   0  0  0  0  0  0  0  0  0  0  0  0  # atno 10763 bound_to 10752
  153.1112  135.6710  153.9504 H   0  0  0  0  0  0  0  0  0  0  0  0  # atno 10764 bound_to 10752
  153.9263  135.3083  155.3426 H   0  0  0  0  0  0  0  0  0  0  0  0  # atno 10765 bound_to 10752
  140.2434  134.8033  157.3432 H   0  0  0  0  0  0  0  0  0  0  0  0  # atno 11005 bound_to 11000
  145.6804  139.1617  143.2704 LP  0  0  0  0  0  0  0  0  0  0  0  0  # atno 17320 bound_to 7965
  146.1554  140.6866  142.9302 LP  0  0  0  0  0  0  0  0  0  0  0  0  # atno 17321 bound_to 7965
  139.9171  144.6822  150.8500 LP  0  0  0  0  0  0  0  0  0  0  0  0  # atno 17342 bound_to 10162
  140.7696  143.3401  151.2225 LP  0  0  0  0  0  0  0  0  0  0  0  0  # atno 17343 bound_to 10162
  155.9729  130.4659  150.6269 LP  0  0  0  0  0  0  0  0  0  0  0  0  # atno 17370 bound_to 10713
  157.3987  131.0806  151.1328 LP  0  0  0  0  0  0  0  0  0  0  0  0  # atno 17371 bound_to 10713
  140.1631  134.4704  155.7881 LP  0  0  0  0  0  0  0  0  0  0  0  0  # atno 17394 bound_to 11000
  141.2208  133.6909  156.7578 LP  0  0  0  0  0  0  0  0  0  0  0  0  # atno 17395 bound_to 11000

$$$$
