AV-unprocessed.smi:1240|AV-procd|sdf|5208|dock2
  -GOLD-   22720 4293D 1   1.00000     0.00000
 Structure written by MMmdl.
 49 51  0  0  0  0  0  0  0  0  3 V2000
  144.5285  136.7217  152.2941 O   0  0  0  0  0  0  0  0  0  0  0  0
  145.7197  136.4177  152.2355 C   0  0  0  0  0  0  0  0  0  0  0  0
  146.7092  137.2410  152.6099 N   0  0  0  0  0  0  0  0  0  0  0  0
  146.5234  138.5912  153.1295 C   0  0  0  0  0  0  0  0  0  0  0  0
  147.8518  139.3411  153.4379 C   0  0  1  0  0  0  0  0  0  0  0  0
  147.6856  140.5614  154.3884 C   0  0  2  0  0  0  0  0  0  0  0  0
  146.9290  140.3018  155.6835 C   0  0  0  0  0  0  0  0  0  0  0  0
  146.4405  141.6895  156.0987 C   0  0  0  0  0  0  0  0  0  0  0  0
  146.4667  142.4902  154.9228 O   0  0  0  0  0  0  0  0  0  0  0  0
  146.8221  141.6857  153.8090 C   0  0  0  0  0  0  0  0  0  0  0  0
  148.8951  138.4163  153.9757 N   0  3  0  0  0  0  0  0  0  0  0  0
  150.2246  139.0189  154.2493 C   0  0  0  0  0  0  0  0  0  0  0  0
  151.2327  137.9166  154.6137 C   0  0  0  0  0  0  0  0  0  0  0  0
  150.7539  137.1889  155.7387 O   0  0  0  0  0  0  0  0  0  0  0  0
  149.5139  136.5437  155.4721 C   0  0  0  0  0  0  0  0  0  0  0  0
  148.4453  137.5948  155.1260 C   0  0  0  0  0  0  0  0  0  0  0  0
  146.2036  135.2466  151.7869 N   0  0  0  0  0  0  0  0  0  0  0  0
  145.4839  134.1105  151.3267 C   0  0  0  0  0  0  0  0  0  0  0  0
  146.1962  133.1397  150.5879 C   0  0  0  0  0  0  0  0  0  0  0  0
  145.5273  131.9876  150.1271 C   0  0  0  0  0  0  0  0  0  0  0  0
  144.2169  131.8156  150.4027 N   0  3  0  0  0  0  0  0  0  0  0  0
  143.4975  132.7081  151.1166 C   0  0  0  0  0  0  0  0  0  0  0  0
  144.1122  133.8795  151.6039 C   0  0  0  0  0  0  0  0  0  0  0  0
  147.6612  136.9147  152.5240 H   0  0  0  0  0  0  0  0  0  0  0  0
  145.9463  139.1382  152.3842 H   0  0  0  0  0  0  0  0  0  0  0  0
  145.8932  138.5303  154.0174 H   0  0  0  0  0  0  0  0  0  0  0  0
  148.2484  139.7306  152.4994 H   0  0  0  0  0  0  0  0  0  0  0  0
  148.6635  140.9723  154.6426 H   0  0  0  0  0  0  0  0  0  0  0  0
  146.0721  139.6522  155.4987 H   0  0  0  0  0  0  0  0  0  0  0  0
  147.5426  139.8420  156.4582 H   0  0  0  0  0  0  0  0  0  0  0  0
  145.4374  141.6533  156.5245 H   0  0  0  0  0  0  0  0  0  0  0  0
  147.1063  142.1338  156.8391 H   0  0  0  0  0  0  0  0  0  0  0  0
  147.3436  142.2756  153.0547 H   0  0  0  0  0  0  0  0  0  0  0  0
  145.9123  141.2850  153.3589 H   0  0  0  0  0  0  0  0  0  0  0  0
  150.5843  139.5666  153.3786 H   0  0  0  0  0  0  0  0  0  0  0  0
  150.1571  139.7293  155.0738 H   0  0  0  0  0  0  0  0  0  0  0  0
  151.3972  137.2436  153.7706 H   0  0  0  0  0  0  0  0  0  0  0  0
  152.1980  138.3576  154.8628 H   0  0  0  0  0  0  0  0  0  0  0  0
  149.6322  135.8263  154.6582 H   0  0  0  0  0  0  0  0  0  0  0  0
  149.2127  135.9778  156.3537 H   0  0  0  0  0  0  0  0  0  0  0  0
  148.2591  138.2285  155.9933 H   0  0  0  0  0  0  0  0  0  0  0  0
  147.5068  137.0942  154.8859 H   0  0  0  0  0  0  0  0  0  0  0  0
  147.2085  135.1803  151.7154 H   0  0  0  0  0  0  0  0  0  0  0  0
  147.2455  133.2756  150.3687 H   0  0  0  0  0  0  0  0  0  0  0  0
  145.9983  131.2033  149.5524 H   0  0  0  0  0  0  0  0  0  0  0  0
  142.4598  132.4575  151.2813 H   0  0  0  0  0  0  0  0  0  0  0  0
  143.5237  134.5691  152.1898 H   0  0  0  0  0  0  0  0  0  0  0  0
  149.0502  137.7495  153.2330 H   0  0  0  0  0  0  0  0  0  0  0  0
  143.7519  130.9739  150.0614 H   0  0  0  0  0  0  0  0  0  0  0  0
  1  2  2  0  0  0  0
  2  3  1  0  0  0  0
  2 17  1  0  0  0  0
  3  4  1  0  0  0  0
  3 24  1  0  0  0  0
  4  5  1  0  0  0  0
  4 25  1  0  0  0  0
  4 26  1  0  0  0  0
  5  6  1  0  0  0  0
  5 11  1  0  0  0  0
  5 27  1  0  0  0  0
  6 10  1  0  0  0  0
  6  7  1  0  0  0  0
  6 28  1  0  0  0  0
  7  8  1  0  0  0  0
  7 29  1  0  0  0  0
  7 30  1  0  0  0  0
  8  9  1  0  0  0  0
  8 31  1  0  0  0  0
  8 32  1  0  0  0  0
  9 10  1  0  0  0  0
 10 33  1  0  0  0  0
 10 34  1  0  0  0  0
 11 16  1  0  0  0  0
 11 12  1  0  0  0  0
 11 48  1  0  0  0  0
 12 13  1  0  0  0  0
 12 35  1  0  0  0  0
 12 36  1  0  0  0  0
 13 14  1  0  0  0  0
 13 37  1  0  0  0  0
 13 38  1  0  0  0  0
 14 15  1  0  0  0  0
 15 16  1  0  0  0  0
 15 39  1  0  0  0  0
 15 40  1  0  0  0  0
 16 41  1  0  0  0  0
 16 42  1  0  0  0  0
 17 18  1  0  0  0  0
 17 43  1  0  0  0  0
 18 23  1  0  0  0  0
 18 19  2  0  0  0  0
 19 20  1  0  0  0  0
 19 44  1  0  0  0  0
 20 21  2  0  0  0  0
 20 45  1  0  0  0  0
 21 22  1  0  0  0  0
 21 49  1  0  0  0  0
 22 23  2  0  0  0  0
 22 46  1  0  0  0  0
 23 47  1  0  0  0  0
M  CHG  1  11   1
M  CHG  1  21   1
M  END
> <s_m_source_file>
AV-unprocessed.smi

> <i_m_source_file_index>
1240

> <i_lp_mmshare_version>
43012

> <i_f3d_flags>
0

> <s_epik_input>
W2NIXTFbY0hdbltjSF1bY0hdYzFbTkhdQyg9TylbTkhdW0NIMl1bQ0BIXShbQ0BASF0yW0NIMl1bQ0gyXU9bQ0gyXTIpTjNbQ0gyXVtDSDJdT1tDSDJdW0NIMl0z

> <s_epik_cmdline>
J2VwaWtfcHl0aG9uJywgJy1waCcsICc3LjAnLCAnLXRuJywgJzgnLCAnLW1hJywgJzIwMCcsICctbWV0YWxfYmluZGluZycsICctaW1hZScsICc8aW5maWxlLm1hZT4nLCAnLW9tYWUnLCAnPG91dGZpbGUubWFlPic=

> <r_epik_Ionization_Penalty>
2.08105

> <r_epik_Ionization_Penalty_Charging>
2.08103

> <r_epik_Ionization_Penalty_Neutral>
2.04144e-05

> <r_epik_State_Penalty>
2.15598

> <r_epik_Charging_Adjusted_Penalty>
4.23701

> <i_epik_Tot_Q>
2

> <i_epik_Tot_abs_Q>
2

> <r_epik_Metal_State_Penalty>
2.25158

> <b_epik_Metal_Only>
0

> <s_lp_Force_Field>
OPLS_2005

> <r_lp_Energy>
49.9195

> <b_lp_Chiralities_Consistent>
1

> <s_lp_Variant>
AV-unprocessed.smi:1240-14

> <Gold.Version>
5.8.1

> <Gold.Id.Protein>
6NUR|6NUR_protein|mol2

> <Gold.PLP.Fitness>
47.2130

> <Gold.PLP.PLP>
-36.1055

> <Gold.PLP.part.hbond>
-3.4357

> <Gold.PLP.part.metal>
0.0000

> <Gold.PLP.part.buried>
-5.4675

> <Gold.PLP.part.nonpolar>
-28.3132

> <Gold.PLP.part.repulsive>
0.6608

> <Gold.PLP.ligand.clash>
0.0000

> <Gold.PLP.ligand.torsion>
0.4701

> <Gold.PLP.Chemscore.Hbond>
3.9280

> <Gold.PLP.Chemscore.CHOScore>
0.0000

> <Gold.PLP.Chemscore.Metal>
0.0000

> <Gold.Chemscore.Hbonds>
donor molecule, donor type, donor heavy atom, donor atom, acceptor molecule, acceptor atom, score
      L1  H     3    24       P1  7948  1.00
      L1  H    11    48       P1  7948  2.00
      L1  H    17    43       P1  7948  0.91

> <Gold.PLP.Chemscore.Internal.Correction>
0.2637

> <Gold.Rescore>
     Score         DG    S(hbond)    S(metal)    S(lipo)     H(rot)  DE(clash)    DE(int)     intcor
     18.34     -20.85       2.76        0.00      90.81       1.74       1.07       1.45       ----

> <Gold.Chemscore.Fitness>
18.3383

> <Gold.Chemscore.DG>
-20.8539

> <Gold.Chemscore.ZeroCoef>
-5.4800

> <Gold.Chemscore.Hbond>
2.7573

> <Gold.Chemscore.Metal>
0.0000

> <Gold.Chemscore.Lipo>
90.8055

> <Gold.Chemscore.Internal_Hbond>
0.0000

> <Gold.Chemscore.DEClash>
1.0684

> <Gold.Chemscore.DEInternal>
1.4472

> <Gold.Chemscore.Rot>
1.7421

> <Gold.Chemscore.Internal.Correction>
   9.000000E+99

> <Gold.Chemscore.Hbonds>
donor molecule, donor type, donor heavy atom, donor atom, acceptor molecule, acceptor atom, score
      L1  H     3    24       P1  7948  0.98
      L1  H    11    48       P1  7948  0.93
      L1  H    17    43       P1  7948  0.82

> <Gold.Chemscore.Hbond.Weighted>
-9.2093

> <Gold.Chemscore.Metal.Weighted>
-0.0000

> <Gold.Chemscore.Lipo.Weighted>
-10.6242

> <Gold.Chemscore.Internal_Hbond.Weighted>
0.0000

> <Gold.Chemscore.DEClash.Weighted>
1.0684

> <Gold.Chemscore.DEInternal.Weighted>
1.4472

> <Gold.Chemscore.Rot.Weighted>
4.4597

> <Gold.Chemscore.Internal.Correction.Weighted>
   9.000000E+99

> <Gold.Protein.RotatedTorsions>
[ 6907 6896 6895 6894 ] final   99.72 input  -60.11 | X-H torsion
[ 7974 7965 7964 7962 ] final   54.44 input  175.53 | X-H torsion
[ 8008 7997 7996 7995 ] final -102.96 input   59.86 | X-H torsion
[ 10167 10162 10161 10158 ] final  -82.29 input  -65.29 | X-H torsion
[ 10718 10713 10712 10709 ] final   39.92 input   66.30 | X-H torsion
[ 10763 10752 10751 10750 ] final   27.43 input  -60.55 | X-H torsion
[ 11005 11000 10999 10996 ] final  -61.41 input  -57.11 | X-H torsion

> <Gold.Protein.ActiveResidues>
 VAL166  LYS551  ARG553  GLY616  TRP617  ASP618  TYR619  PRO620  LYS621  CYS622 
 ASP623  PHE694  ASN695  SER759  ASP760  ASP761  ALA762  ILE779  LEU786  VAL792 
 PHE793  MET794  SER795  GLU796  ALA797  LYS798  CYS799  TRP800  GLU811  SER814 

> <Gold.Protein.RotatedAtoms>
  152.5386  134.0386  159.8056 H   0  0  0  0  0  0  0  0  0  0  0  0  # atno 6907 bound_to 6896
  151.0545  133.5588  159.2646 H   0  0  0  0  0  0  0  0  0  0  0  0  # atno 6908 bound_to 6896
  151.2510  135.0629  159.9115 H   0  0  0  0  0  0  0  0  0  0  0  0  # atno 6909 bound_to 6896
  145.9608  139.4058  143.0249 H   0  0  0  0  0  0  0  0  0  0  0  0  # atno 7974 bound_to 7965
  154.8641  140.0425  157.1683 H   0  0  0  0  0  0  0  0  0  0  0  0  # atno 8008 bound_to 7997
  154.8809  140.2972  155.5405 H   0  0  0  0  0  0  0  0  0  0  0  0  # atno 8009 bound_to 7997
  156.2999  140.2411  156.3811 H   0  0  0  0  0  0  0  0  0  0  0  0  # atno 8010 bound_to 7997
  140.4333  143.2540  151.8728 H   0  0  0  0  0  0  0  0  0  0  0  0  # atno 10167 bound_to 10162
  157.3762  130.7728  149.7157 H   0  0  0  0  0  0  0  0  0  0  0  0  # atno 10718 bound_to 10713
  153.0556  135.6537  154.0585 H   0  0  0  0  0  0  0  0  0  0  0  0  # atno 10763 bound_to 10752
  154.0263  135.2915  155.3376 H   0  0  0  0  0  0  0  0  0  0  0  0  # atno 10764 bound_to 10752
  154.6870  135.5298  153.8407 H   0  0  0  0  0  0  0  0  0  0  0  0  # atno 10765 bound_to 10752
  141.1323  133.6630  156.5370 H   0  0  0  0  0  0  0  0  0  0  0  0  # atno 11005 bound_to 11000
  145.8042  140.9757  143.0983 LP  0  0  0  0  0  0  0  0  0  0  0  0  # atno 17320 bound_to 7965
  144.6815  139.9839  143.7483 LP  0  0  0  0  0  0  0  0  0  0  0  0  # atno 17321 bound_to 7965
  139.4786  144.5310  151.8666 LP  0  0  0  0  0  0  0  0  0  0  0  0  # atno 17342 bound_to 10162
  140.4402  144.1997  150.5891 LP  0  0  0  0  0  0  0  0  0  0  0  0  # atno 17343 bound_to 10162
  155.9766  130.4074  150.3770 LP  0  0  0  0  0  0  0  0  0  0  0  0  # atno 17370 bound_to 10713
  157.1868  131.0405  151.2720 LP  0  0  0  0  0  0  0  0  0  0  0  0  # atno 17371 bound_to 10713
  140.4170  134.7221  157.4868 LP  0  0  0  0  0  0  0  0  0  0  0  0  # atno 17394 bound_to 11000
  140.0387  134.6299  155.9009 LP  0  0  0  0  0  0  0  0  0  0  0  0  # atno 17395 bound_to 11000

$$$$
