AV-unprocessed.smi:2002|AV-procd|sdf|8114|dock10
  -GOLD-   2272010343D 1   1.00000     0.00000
 Structure written by MMmdl.
 39 40  0  0  0  0  0  0  0  0  2 V2000
  144.6118  131.7819  151.4656 C   0  0  0  0  0  0  0  0  0  0  0  0
  143.2928  132.5457  151.2856 C   0  0  0  0  0  0  0  0  0  0  0  0
  143.5130  133.9983  151.0954 N   0  3  2  0  0  0  0  0  0  0  0  0
  144.4983  134.3273  150.0431 C   0  0  0  0  0  0  0  0  0  0  0  0
  145.1129  135.6586  150.4660 C   0  0  0  0  0  0  0  0  0  0  0  0
  145.1809  135.5227  151.9841 C   0  0  1  0  0  0  0  0  0  0  0  0
  145.3489  136.8629  152.7258 C   0  0  0  0  0  0  0  0  0  0  0  0
  146.7508  137.2568  152.8346 N   0  0  0  0  0  0  0  0  0  0  0  0
  147.2268  138.2410  153.6113 C   0  0  0  0  0  0  0  0  0  0  0  0
  146.5158  138.9318  154.3409 O   0  0  0  0  0  0  0  0  0  0  0  0
  148.5597  138.3568  153.4876 N   0  0  0  0  0  0  0  0  0  0  0  0
  149.4317  139.2574  154.1525 C   0  0  0  0  0  0  0  0  0  0  0  0
  149.0480  140.4153  154.8898 C   0  0  0  0  0  0  0  0  0  0  0  0
  150.2450  140.9169  155.3165 C   0  0  0  0  0  0  0  0  0  0  0  0
  150.6114  142.1072  156.1347 C   0  0  0  0  0  0  0  0  0  0  0  0
  151.2693  140.1353  154.8806 O   0  0  0  0  0  0  0  0  0  0  0  0
  150.7393  139.0752  154.1359 N   0  0  0  0  0  0  0  0  0  0  0  0
  143.8987  134.7430  152.3190 C   0  0  0  0  0  0  0  0  0  0  0  0
  144.4222  130.7239  151.6472 H   0  0  0  0  0  0  0  0  0  0  0  0
  145.1776  132.1668  152.3146 H   0  0  0  0  0  0  0  0  0  0  0  0
  145.2447  131.8535  150.5810 H   0  0  0  0  0  0  0  0  0  0  0  0
  142.7267  132.1416  150.4452 H   0  0  0  0  0  0  0  0  0  0  0  0
  142.6812  132.3979  152.1767 H   0  0  0  0  0  0  0  0  0  0  0  0
  145.2771  133.5629  150.0123 H   0  0  0  0  0  0  0  0  0  0  0  0
  144.0333  134.3727  149.0578 H   0  0  0  0  0  0  0  0  0  0  0  0
  146.0883  135.8360  150.0117 H   0  0  0  0  0  0  0  0  0  0  0  0
  144.4531  136.4812  150.1856 H   0  0  0  0  0  0  0  0  0  0  0  0
  146.0354  134.8843  152.2169 H   0  0  0  0  0  0  0  0  0  0  0  0
  144.8308  137.6486  152.1757 H   0  0  0  0  0  0  0  0  0  0  0  0
  144.8788  136.8221  153.7100 H   0  0  0  0  0  0  0  0  0  0  0  0
  147.4091  136.7438  152.2659 H   0  0  0  0  0  0  0  0  0  0  0  0
  149.0087  137.7200  152.8459 H   0  0  0  0  0  0  0  0  0  0  0  0
  148.0684  140.8251  155.0834 H   0  0  0  0  0  0  0  0  0  0  0  0
  149.7475  142.7539  156.2894 H   0  0  0  0  0  0  0  0  0  0  0  0
  151.3873  142.6927  155.6412 H   0  0  0  0  0  0  0  0  0  0  0  0
  150.9859  141.8028  157.1119 H   0  0  0  0  0  0  0  0  0  0  0  0
  143.0792  135.4210  152.5580 H   0  0  0  0  0  0  0  0  0  0  0  0
  144.0514  134.0941  153.1826 H   0  0  0  0  0  0  0  0  0  0  0  0
  142.6347  134.3933  150.7902 H   0  0  0  0  0  0  0  0  0  0  0  0
  1  2  1  0  0  0  0
  1 19  1  0  0  0  0
  1 20  1  0  0  0  0
  1 21  1  0  0  0  0
  2  3  1  0  0  0  0
  2 22  1  0  0  0  0
  2 23  1  0  0  0  0
  3 18  1  0  0  0  0
  3  4  1  0  0  0  0
  3 39  1  0  0  0  0
  4  5  1  0  0  0  0
  4 24  1  0  0  0  0
  4 25  1  0  0  0  0
  5  6  1  0  0  0  0
  5 26  1  0  0  0  0
  5 27  1  0  0  0  0
  6  7  1  0  0  0  0
  6 18  1  0  0  0  0
  6 28  1  0  0  0  0
  7  8  1  0  0  0  0
  7 29  1  0  0  0  0
  7 30  1  0  0  0  0
  8  9  1  0  0  0  0
  8 31  1  0  0  0  0
  9 10  2  0  0  0  0
  9 11  1  0  0  0  0
 11 12  1  0  0  0  0
 11 32  1  0  0  0  0
 12 17  2  0  0  0  0
 12 13  1  0  0  0  0
 13 14  2  0  0  0  0
 13 33  1  0  0  0  0
 14 15  1  0  0  0  0
 14 16  1  0  0  0  0
 15 34  1  0  0  0  0
 15 35  1  0  0  0  0
 15 36  1  0  0  0  0
 16 17  1  0  0  0  0
 18 37  1  0  0  0  0
 18 38  1  0  0  0  0
M  CHG  1   3   1
M  END
> <s_m_source_file>
AV-unprocessed.smi

> <i_m_source_file_index>
2002

> <i_lp_mmshare_version>
43012

> <i_f3d_flags>
0

> <s_epik_input>
W0NIM11bQ0gyXU4xW0NIMl1bQ0gyXVtDQEhdKFtDSDJdMSlbQ0gyXVtOSF1DKD1PKVtOSF1jMltjSF1jKFtDSDNdKW9uMg==

> <s_epik_cmdline>
J2VwaWtfcHl0aG9uJywgJy1waCcsICc3LjAnLCAnLXRuJywgJzgnLCAnLW1hJywgJzIwMCcsICctbWV0YWxfYmluZGluZycsICctaW1hZScsICc8aW5maWxlLm1hZT4nLCAnLW9tYWUnLCAnPG91dGZpbGUubWFlPic=

> <r_epik_Ionization_Penalty>
0.000632871

> <r_epik_Ionization_Penalty_Charging>
0.000610951

> <r_epik_Ionization_Penalty_Neutral>
2.19198e-05

> <r_epik_State_Penalty>
0.000385263

> <r_epik_Charging_Adjusted_Penalty>
0.000996214

> <i_epik_Tot_Q>
1

> <i_epik_Tot_abs_Q>
1

> <r_epik_Metal_State_Penalty>
-0

> <b_epik_Metal_Only>
0

> <s_lp_Force_Field>
OPLS_2005

> <r_lp_Energy>
27.554

> <b_lp_Chiralities_Consistent>
1

> <s_lp_Variant>
AV-unprocessed.smi:2002-2

> <Gold.Version>
5.8.1

> <Gold.Id.Protein>
6NUR|6NUR_protein|mol2

> <Gold.PLP.Fitness>
42.2538

> <Gold.PLP.PLP>
-29.8156

> <Gold.PLP.part.hbond>
-5.5155

> <Gold.PLP.part.metal>
0.0000

> <Gold.PLP.part.buried>
0.0216

> <Gold.PLP.part.nonpolar>
-24.5123

> <Gold.PLP.part.repulsive>
0.4222

> <Gold.PLP.ligand.clash>
0.0000

> <Gold.PLP.ligand.torsion>
0.4605

> <Gold.PLP.Chemscore.Hbond>
4.4500

> <Gold.PLP.Chemscore.CHOScore>
0.0000

> <Gold.PLP.Chemscore.Metal>
0.0000

> <Gold.Chemscore.Hbonds>
donor molecule, donor type, donor heavy atom, donor atom, acceptor molecule, acceptor atom, score
      L1  H     3    39       P1 10186  1.98
      L1  H     8    31       P1  7948  1.00
      L1  H    11    32       P1  7948  1.00
      P1  H  7989  7998       L1    16  0.45

> <Gold.PLP.Chemscore.Internal.Correction>
0.0092

> <Gold.Rescore>
     Score         DG    S(hbond)    S(metal)    S(lipo)     H(rot)  DE(clash)    DE(int)     intcor
     14.54     -16.20       2.17        0.00      63.00       1.52       0.10       1.56       ----

> <Gold.Chemscore.Fitness>
14.5359

> <Gold.Chemscore.DG>
-16.1982

> <Gold.Chemscore.ZeroCoef>
-5.4800

> <Gold.Chemscore.Hbond>
2.1688

> <Gold.Chemscore.Metal>
0.0000

> <Gold.Chemscore.Lipo>
63.0037

> <Gold.Chemscore.Internal_Hbond>
0.0000

> <Gold.Chemscore.DEClash>
0.1049

> <Gold.Chemscore.DEInternal>
1.5574

> <Gold.Chemscore.Rot>
1.5223

> <Gold.Chemscore.Internal.Correction>
   9.000000E+99

> <Gold.Chemscore.Hbonds>
donor molecule, donor type, donor heavy atom, donor atom, acceptor molecule, acceptor atom, score
      L1  H     3    39       P1 10186  0.27
      L1  H     8    31       P1  7948  0.97
      L1  H    11    32       P1  7948  0.95

> <Gold.Chemscore.Hbond.Weighted>
-7.2439

> <Gold.Chemscore.Metal.Weighted>
-0.0000

> <Gold.Chemscore.Lipo.Weighted>
-7.3714

> <Gold.Chemscore.Internal_Hbond.Weighted>
0.0000

> <Gold.Chemscore.DEClash.Weighted>
0.1049

> <Gold.Chemscore.DEInternal.Weighted>
1.5574

> <Gold.Chemscore.Rot.Weighted>
3.8971

> <Gold.Chemscore.Internal.Correction.Weighted>
   9.000000E+99

> <Gold.Protein.RotatedTorsions>
[ 6907 6896 6895 6894 ] final    3.00 input  -60.11 | X-H torsion
[ 7974 7965 7964 7962 ] final -136.17 input  175.53 | X-H torsion
[ 8008 7997 7996 7995 ] final   40.98 input   59.86 | X-H torsion
[ 10167 10162 10161 10158 ] final -177.30 input  -65.29 | X-H torsion
[ 10718 10713 10712 10709 ] final  -20.06 input   66.30 | X-H torsion
[ 10763 10752 10751 10750 ] final -165.37 input  -60.55 | X-H torsion
[ 11005 11000 10999 10996 ] final   45.39 input  -57.11 | X-H torsion

> <Gold.Protein.ActiveResidues>
 VAL166  LYS551  ARG553  GLY616  TRP617  ASP618  TYR619  PRO620  LYS621  CYS622 
 ASP623  PHE694  ASN695  SER759  ASP760  ASP761  ALA762  ILE779  LEU786  VAL792 
 PHE793  MET794  SER795  GLU796  ALA797  LYS798  CYS799  TRP800  GLU811  SER814 

> <Gold.Protein.RotatedAtoms>
  151.6180  135.1034  160.0095 H   0  0  0  0  0  0  0  0  0  0  0  0  # atno 6907 bound_to 6896
  152.4173  133.7054  159.6459 H   0  0  0  0  0  0  0  0  0  0  0  0  # atno 6908 bound_to 6896
  150.8061  133.8435  159.3226 H   0  0  0  0  0  0  0  0  0  0  0  0  # atno 6909 bound_to 6896
  144.8950  140.6695  143.5121 H   0  0  0  0  0  0  0  0  0  0  0  0  # atno 7974 bound_to 7965
  155.2621  140.3360  155.4272 H   0  0  0  0  0  0  0  0  0  0  0  0  # atno 8008 bound_to 7997
  156.2170  140.1793  156.7609 H   0  0  0  0  0  0  0  0  0  0  0  0  # atno 8009 bound_to 7997
  154.5768  140.0660  156.9030 H   0  0  0  0  0  0  0  0  0  0  0  0  # atno 8010 bound_to 7997
  139.5487  144.2167  152.1036 H   0  0  0  0  0  0  0  0  0  0  0  0  # atno 10167 bound_to 10162
  156.5371  130.4669  149.6517 H   0  0  0  0  0  0  0  0  0  0  0  0  # atno 10718 bound_to 10713
  154.6938  135.2975  154.9440 H   0  0  0  0  0  0  0  0  0  0  0  0  # atno 10763 bound_to 10752
  154.0395  135.6659  153.4792 H   0  0  0  0  0  0  0  0  0  0  0  0  # atno 10764 bound_to 10752
  153.0631  135.5104  154.8045 H   0  0  0  0  0  0  0  0  0  0  0  0  # atno 10765 bound_to 10752
  140.1464  134.4518  155.8413 H   0  0  0  0  0  0  0  0  0  0  0  0  # atno 11005 bound_to 11000
  145.3715  139.1657  143.4329 LP  0  0  0  0  0  0  0  0  0  0  0  0  # atno 17320 bound_to 7965
  146.3076  140.3787  142.8682 LP  0  0  0  0  0  0  0  0  0  0  0  0  # atno 17321 bound_to 7965
  140.1658  144.4982  150.6607 LP  0  0  0  0  0  0  0  0  0  0  0  0  # atno 17342 bound_to 10162
  140.6743  143.2298  151.5546 LP  0  0  0  0  0  0  0  0  0  0  0  0  # atno 17343 bound_to 10162
  156.3006  130.7175  151.2045 LP  0  0  0  0  0  0  0  0  0  0  0  0  # atno 17370 bound_to 10713
  157.7412  131.0507  150.5115 LP  0  0  0  0  0  0  0  0  0  0  0  0  # atno 17371 bound_to 10713
  141.2193  133.6854  156.7341 LP  0  0  0  0  0  0  0  0  0  0  0  0  # atno 17394 bound_to 11000
  140.2659  134.8430  157.3802 LP  0  0  0  0  0  0  0  0  0  0  0  0  # atno 17395 bound_to 11000

$$$$
