AV-unprocessed.smi:942|AV-procd|sdf|4226|dock9
  -GOLD-   22720 2133D 1   1.00000     0.00000
 Structure written by MMmdl.
 42 44  0  0  0  0  0  0  0  0  1 V2000
  152.7709  139.8283  156.9332 O   0  0  0  0  0  0  0  0  0  0  0  0
  151.7403  140.5016  156.9648 C   0  0  0  0  0  0  0  0  0  0  0  0
  150.7444  140.3718  156.0756 N   0  0  0  0  0  0  0  0  0  0  0  0
  150.7415  139.4796  154.9142 C   0  0  1  0  0  0  0  0  0  0  0  0
  151.2964  138.0948  155.3070 C   0  0  0  0  0  0  0  0  0  0  0  0
  150.1274  137.1037  155.2079 C   0  0  0  0  0  0  0  0  0  0  0  0
  148.8646  137.9628  155.1686 C   0  0  0  0  0  0  0  0  0  0  0  0
  149.3090  139.2137  154.4036 C   0  0  1  0  0  0  0  0  0  0  0  0
  148.4068  140.3590  154.4922 N   0  0  0  0  0  0  0  0  0  0  0  0
  147.9935  141.2204  153.4798 C   0  0  0  0  0  0  0  0  0  0  0  0
  147.1490  142.1384  154.0613 C   0  0  0  0  0  0  0  0  0  0  0  0
  147.0379  141.8769  155.4237 N   0  0  0  0  0  0  0  0  0  0  0  0
  147.8152  140.8177  155.6052 C   0  0  0  0  0  0  0  0  0  0  0  0
  151.5457  141.5687  158.0496 C   0  0  0  0  0  0  0  0  0  0  0  0
  151.3236  142.9593  157.4171 C   0  0  0  0  0  0  0  0  0  0  0  0
  151.1391  144.0408  158.4945 C   0  0  0  0  0  0  0  0  0  0  0  0
  152.3278  144.0657  159.4687 C   0  0  0  0  0  0  0  0  0  0  0  0
  152.5608  142.6830  160.0980 C   0  0  0  0  0  0  0  0  0  0  0  0
  152.7470  141.6046  159.0183 C   0  0  0  0  0  0  0  0  0  0  0  0
  149.9376  140.9688  156.1860 H   0  0  0  0  0  0  0  0  0  0  0  0
  151.3354  139.9067  154.1042 H   0  0  0  0  0  0  0  0  0  0  0  0
  152.1072  137.7942  154.6426 H   0  0  0  0  0  0  0  0  0  0  0  0
  151.7046  138.1012  156.3188 H   0  0  0  0  0  0  0  0  0  0  0  0
  150.2090  136.5353  154.2806 H   0  0  0  0  0  0  0  0  0  0  0  0
  150.1164  136.3887  156.0310 H   0  0  0  0  0  0  0  0  0  0  0  0
  148.0263  137.4523  154.6937 H   0  0  0  0  0  0  0  0  0  0  0  0
  148.5746  138.2162  156.1893 H   0  0  0  0  0  0  0  0  0  0  0  0
  149.3736  138.9449  153.3478 H   0  0  0  0  0  0  0  0  0  0  0  0
  148.3159  141.1182  152.4546 H   0  0  0  0  0  0  0  0  0  0  0  0
  146.6215  142.9644  153.6072 H   0  0  0  0  0  0  0  0  0  0  0  0
  147.9504  140.3555  156.5722 H   0  0  0  0  0  0  0  0  0  0  0  0
  150.6543  141.3135  158.6259 H   0  0  0  0  0  0  0  0  0  0  0  0
  152.1716  143.2258  156.7842 H   0  0  0  0  0  0  0  0  0  0  0  0
  150.4480  142.9405  156.7664 H   0  0  0  0  0  0  0  0  0  0  0  0
  151.0238  145.0178  158.0240 H   0  0  0  0  0  0  0  0  0  0  0  0
  150.2173  143.8533  159.0464 H   0  0  0  0  0  0  0  0  0  0  0  0
  153.2275  144.3818  158.9390 H   0  0  0  0  0  0  0  0  0  0  0  0
  152.1529  144.8055  160.2502 H   0  0  0  0  0  0  0  0  0  0  0  0
  153.4356  142.7127  160.7480 H   0  0  0  0  0  0  0  0  0  0  0  0
  151.7129  142.4223  160.7327 H   0  0  0  0  0  0  0  0  0  0  0  0
  152.8753  140.6314  159.4940 H   0  0  0  0  0  0  0  0  0  0  0  0
  153.6691  141.8040  158.4696 H   0  0  0  0  0  0  0  0  0  0  0  0
  1  2  2  0  0  0  0
  2  3  1  0  0  0  0
  2 14  1  0  0  0  0
  3  4  1  0  0  0  0
  3 20  1  0  0  0  0
  4  8  1  0  0  0  0
  4  5  1  0  0  0  0
  4 21  1  0  0  0  0
  5  6  1  0  0  0  0
  5 22  1  0  0  0  0
  5 23  1  0  0  0  0
  6  7  1  0  0  0  0
  6 24  1  0  0  0  0
  6 25  1  0  0  0  0
  7  8  1  0  0  0  0
  7 26  1  0  0  0  0
  7 27  1  0  0  0  0
  8  9  1  0  0  0  0
  8 28  1  0  0  0  0
  9 13  1  0  0  0  0
  9 10  1  0  0  0  0
 10 11  2  0  0  0  0
 10 29  1  0  0  0  0
 11 12  1  0  0  0  0
 11 30  1  0  0  0  0
 12 13  2  0  0  0  0
 13 31  1  0  0  0  0
 14 19  1  0  0  0  0
 14 15  1  0  0  0  0
 14 32  1  0  0  0  0
 15 16  1  0  0  0  0
 15 33  1  0  0  0  0
 15 34  1  0  0  0  0
 16 17  1  0  0  0  0
 16 35  1  0  0  0  0
 16 36  1  0  0  0  0
 17 18  1  0  0  0  0
 17 37  1  0  0  0  0
 17 38  1  0  0  0  0
 18 19  1  0  0  0  0
 18 39  1  0  0  0  0
 18 40  1  0  0  0  0
 19 41  1  0  0  0  0
 19 42  1  0  0  0  0
M  END
> <s_m_source_file>
AV-unprocessed.smi

> <i_m_source_file_index>
942

> <i_lp_mmshare_version>
43012

> <i_f3d_flags>
0

> <s_epik_input>
W0NIMl0xW0NIMl1bQ0gyXVtDSDJdW0NIMl1bQ0hdMUMoPU8pW05IXVtDQEBIXTJbQ0gyXVtDSDJdW0NIMl1bQ0BIXTJuM1tjSF1bY0hdbltjSF0z

> <s_epik_cmdline>
J2VwaWtfcHl0aG9uJywgJy1waCcsICc3LjAnLCAnLXRuJywgJzgnLCAnLW1hJywgJzIwMCcsICctbWV0YWxfYmluZGluZycsICctaW1hZScsICc8aW5maWxlLm1hZT4nLCAnLW9tYWUnLCAnPG91dGZpbGUubWFlPic=

> <r_lp_tautomer_probability>
1

> <r_epik_Ionization_Penalty>
0.778458

> <r_epik_Ionization_Penalty_Charging>
0.778458

> <r_epik_Ionization_Penalty_Neutral>
2.79355e-08

> <r_epik_State_Penalty>
0.807804

> <r_epik_Charging_Adjusted_Penalty>
1.58626

> <i_epik_Tot_Q>
0

> <i_epik_Tot_abs_Q>
0

> <r_epik_Metal_State_Penalty>
0.343007

> <b_epik_Metal_Only>
0

> <s_lp_Force_Field>
OPLS_2005

> <r_lp_Energy>
33.2342

> <b_lp_Chiralities_Consistent>
1

> <s_lp_Variant>
AV-unprocessed.smi:942-6

> <Gold.Version>
5.8.1

> <Gold.Id.Protein>
6NUR|6NUR_protein|mol2

> <Gold.PLP.Fitness>
43.0705

> <Gold.PLP.PLP>
-38.4281

> <Gold.PLP.part.hbond>
-1.0000

> <Gold.PLP.part.metal>
0.0000

> <Gold.PLP.part.buried>
-2.4930

> <Gold.PLP.part.nonpolar>
-33.9905

> <Gold.PLP.part.repulsive>
0.2165

> <Gold.PLP.ligand.clash>
0.0000

> <Gold.PLP.ligand.torsion>
0.6911

> <Gold.PLP.Chemscore.Hbond>
1.0000

> <Gold.PLP.Chemscore.CHOScore>
1.0000

> <Gold.PLP.Chemscore.Metal>
0.0000

> <Gold.Chemscore.Hbonds>
donor molecule, donor type, donor heavy atom, donor atom, acceptor molecule, acceptor atom, score
      P1  H  7997  8009       L1     1  1.00
      L1  C    10    29       P1  7957  1.00

> <Gold.PLP.Chemscore.Internal.Correction>
0.0246

> <Gold.Rescore>
     Score         DG    S(hbond)    S(metal)    S(lipo)     H(rot)  DE(clash)    DE(int)     intcor
     14.20     -17.26       0.98        0.00     104.26       1.44       0.03       3.03       ----

> <Gold.Chemscore.Fitness>
14.1999

> <Gold.Chemscore.DG>
-17.2552

> <Gold.Chemscore.ZeroCoef>
-5.4800

> <Gold.Chemscore.Hbond>
0.9766

> <Gold.Chemscore.Metal>
0.0000

> <Gold.Chemscore.Lipo>
104.2626

> <Gold.Chemscore.Internal_Hbond>
0.0000

> <Gold.Chemscore.DEClash>
0.0269

> <Gold.Chemscore.DEInternal>
3.0285

> <Gold.Chemscore.Rot>
1.4395

> <Gold.Chemscore.Internal.Correction>
   9.000000E+99

> <Gold.Chemscore.Hbonds>
donor molecule, donor type, donor heavy atom, donor atom, acceptor molecule, acceptor atom, score
      P1  H  7997  8009       L1     1  0.99

> <Gold.Chemscore.Hbond.Weighted>
-3.2617

> <Gold.Chemscore.Metal.Weighted>
-0.0000

> <Gold.Chemscore.Lipo.Weighted>
-12.1987

> <Gold.Chemscore.Internal_Hbond.Weighted>
0.0000

> <Gold.Chemscore.DEClash.Weighted>
0.0269

> <Gold.Chemscore.DEInternal.Weighted>
3.0285

> <Gold.Chemscore.Rot.Weighted>
3.6852

> <Gold.Chemscore.Internal.Correction.Weighted>
   9.000000E+99

> <Gold.Protein.RotatedTorsions>
[ 6907 6896 6895 6894 ] final  153.35 input  -60.11 | X-H torsion
[ 7974 7965 7964 7962 ] final  154.07 input  175.53 | X-H torsion
[ 8008 7997 7996 7995 ] final -166.19 input   59.86 | X-H torsion
[ 10167 10162 10161 10158 ] final  170.07 input  -65.29 | X-H torsion
[ 10718 10713 10712 10709 ] final   -4.66 input   66.30 | X-H torsion
[ 10763 10752 10751 10750 ] final  -89.34 input  -60.55 | X-H torsion
[ 11005 11000 10999 10996 ] final   65.62 input  -57.11 | X-H torsion

> <Gold.Protein.ActiveResidues>
 VAL166  LYS551  ARG553  GLY616  TRP617  ASP618  TYR619  PRO620  LYS621  CYS622 
 ASP623  PHE694  ASN695  SER759  ASP760  ASP761  ALA762  ILE779  LEU786  VAL792 
 PHE793  MET794  SER795  GLU796  ALA797  LYS798  CYS799  TRP800  GLU811  SER814 

> <Gold.Protein.RotatedAtoms>
  152.0738  133.4119  159.4470 H   0  0  0  0  0  0  0  0  0  0  0  0  # atno 6907 bound_to 6896
  150.6863  134.3061  159.4736 H   0  0  0  0  0  0  0  0  0  0  0  0  # atno 6908 bound_to 6896
  152.0895  134.9416  160.0623 H   0  0  0  0  0  0  0  0  0  0  0  0  # atno 6909 bound_to 6896
  144.8112  139.6885  143.6140 H   0  0  0  0  0  0  0  0  0  0  0  0  # atno 7974 bound_to 7965
  155.8604  140.0977  157.1617 H   0  0  0  0  0  0  0  0  0  0  0  0  # atno 8008 bound_to 7997
  154.3990  140.1366  156.4016 H   0  0  0  0  0  0  0  0  0  0  0  0  # atno 8009 bound_to 7997
  155.7863  140.3457  155.5327 H   0  0  0  0  0  0  0  0  0  0  0  0  # atno 8010 bound_to 7997
  139.5009  144.3637  151.9798 H   0  0  0  0  0  0  0  0  0  0  0  0  # atno 10167 bound_to 10162
  156.7580  130.5260  149.5790 H   0  0  0  0  0  0  0  0  0  0  0  0  # atno 10718 bound_to 10713
  154.6543  135.5344  153.7939 H   0  0  0  0  0  0  0  0  0  0  0  0  # atno 10763 bound_to 10752
  153.0404  135.6490  154.0970 H   0  0  0  0  0  0  0  0  0  0  0  0  # atno 10764 bound_to 10752
  154.0884  135.2942  155.3256 H   0  0  0  0  0  0  0  0  0  0  0  0  # atno 10765 bound_to 10752
  139.9883  134.6632  156.0136 H   0  0  0  0  0  0  0  0  0  0  0  0  # atno 11005 bound_to 11000
  146.2411  139.6004  142.9491 LP  0  0  0  0  0  0  0  0  0  0  0  0  # atno 17320 bound_to 7965
  145.5318  141.0426  143.2378 LP  0  0  0  0  0  0  0  0  0  0  0  0  # atno 17321 bound_to 7965
  140.3073  144.3578  150.6043 LP  0  0  0  0  0  0  0  0  0  0  0  0  # atno 17342 bound_to 10162
  140.5827  143.2172  151.7399 LP  0  0  0  0  0  0  0  0  0  0  0  0  # atno 17343 bound_to 10162
  156.1357  130.6210  151.0397 LP  0  0  0  0  0  0  0  0  0  0  0  0  # atno 17370 bound_to 10713
  157.6747  131.0853  150.7524 LP  0  0  0  0  0  0  0  0  0  0  0  0  # atno 17371 bound_to 10713
  141.1544  133.6544  156.4114 LP  0  0  0  0  0  0  0  0  0  0  0  0  # atno 17394 bound_to 11000
  140.4959  134.6532  157.5229 LP  0  0  0  0  0  0  0  0  0  0  0  0  # atno 17395 bound_to 11000

$$$$
