AV-unprocessed.smi:685|AV-procd|sdf|3335|dock9
  -GOLD-   22720 0303D 1   1.00000     0.00000
 Structure written by MMmdl.
 51 52  0  0  0  0  0  0  0  0  2 V2000
  142.8392  136.1940  152.6131 C   0  0  0  0  0  0  0  0  0  0  0  0
  143.6935  135.1564  151.9651 C   0  0  0  0  0  0  0  0  0  0  0  0
  143.2443  134.2483  151.0580 N   0  3  0  0  0  0  0  0  0  0  0  0
  144.2484  133.4521  150.6628 N   0  0  0  0  0  0  0  0  0  0  0  0
  143.9757  132.4001  149.6831 C   0  0  0  0  0  0  0  0  0  0  0  0
  145.4058  133.8062  151.2910 C   0  0  0  0  0  0  0  0  0  0  0  0
  146.7247  133.1335  151.0891 C   0  0  0  0  0  0  0  0  0  0  0  0
  145.0582  134.8844  152.1152 C   0  0  0  0  0  0  0  0  0  0  0  0
  145.9901  135.6373  153.0228 C   0  0  0  0  0  0  0  0  0  0  0  0
  146.1004  137.1362  152.6687 C   0  0  2  0  0  0  0  0  0  0  0  0
  146.3795  137.3774  151.1770 C   0  0  0  0  0  0  0  0  0  0  0  0
  147.1527  137.7676  153.4597 N   0  0  0  0  0  0  0  0  0  0  0  0
  147.5234  139.0546  153.3664 C   0  0  0  0  0  0  0  0  0  0  0  0
  146.9862  139.8558  152.6004 O   0  0  0  0  0  0  0  0  0  0  0  0
  148.6670  139.4963  154.2850 C   0  0  0  0  0  0  0  0  0  0  0  0
  148.2392  140.5551  155.3196 C   0  0  0  0  0  0  0  0  0  0  0  0
  149.2850  140.7777  156.4267 C   0  0  0  0  0  0  0  0  0  0  0  0
  148.8651  141.8285  157.4572 C   0  0  0  0  0  0  0  0  0  0  0  0
  150.1653  142.2481  158.1500 C   0  0  0  0  0  0  0  0  0  0  0  0
  151.2992  141.9314  157.1630 C   0  0  0  0  0  0  0  0  0  0  0  0
  150.6359  141.3042  155.9313 C   0  0  0  0  0  0  0  0  0  0  0  0
  143.0361  136.2312  153.6846 H   0  0  0  0  0  0  0  0  0  0  0  0
  141.7827  135.9700  152.4637 H   0  0  0  0  0  0  0  0  0  0  0  0
  143.0504  137.1746  152.1866 H   0  0  0  0  0  0  0  0  0  0  0  0
  144.5155  131.4962  149.9666 H   0  0  0  0  0  0  0  0  0  0  0  0
  144.3119  132.7341  148.7012 H   0  0  0  0  0  0  0  0  0  0  0  0
  142.9070  132.1848  149.6512 H   0  0  0  0  0  0  0  0  0  0  0  0
  147.5406  133.8457  151.2078 H   0  0  0  0  0  0  0  0  0  0  0  0
  146.7913  132.7068  150.0883 H   0  0  0  0  0  0  0  0  0  0  0  0
  146.8519  132.3340  151.8187 H   0  0  0  0  0  0  0  0  0  0  0  0
  145.6413  135.5306  154.0507 H   0  0  0  0  0  0  0  0  0  0  0  0
  146.9825  135.1855  153.0116 H   0  0  0  0  0  0  0  0  0  0  0  0
  145.1559  137.6275  152.9088 H   0  0  0  0  0  0  0  0  0  0  0  0
  145.5758  136.9868  150.5526 H   0  0  0  0  0  0  0  0  0  0  0  0
  147.3082  136.8991  150.8641 H   0  0  0  0  0  0  0  0  0  0  0  0
  146.4664  138.4432  150.9626 H   0  0  0  0  0  0  0  0  0  0  0  0
  147.6437  137.1805  154.1187 H   0  0  0  0  0  0  0  0  0  0  0  0
  149.0565  138.6143  154.7943 H   0  0  0  0  0  0  0  0  0  0  0  0
  149.4789  139.8885  153.6714 H   0  0  0  0  0  0  0  0  0  0  0  0
  148.0296  141.5008  154.8173 H   0  0  0  0  0  0  0  0  0  0  0  0
  147.3036  140.2450  155.7875 H   0  0  0  0  0  0  0  0  0  0  0  0
  149.4524  139.8368  156.9541 H   0  0  0  0  0  0  0  0  0  0  0  0
  148.4303  142.6918  156.9510 H   0  0  0  0  0  0  0  0  0  0  0  0
  148.1223  141.4512  158.1608 H   0  0  0  0  0  0  0  0  0  0  0  0
  150.1468  143.3026  158.4275 H   0  0  0  0  0  0  0  0  0  0  0  0
  150.3036  141.6724  159.0661 H   0  0  0  0  0  0  0  0  0  0  0  0
  151.8670  142.8231  156.8958 H   0  0  0  0  0  0  0  0  0  0  0  0
  151.9963  141.2253  157.6163 H   0  0  0  0  0  0  0  0  0  0  0  0
  151.2523  140.5233  155.4850 H   0  0  0  0  0  0  0  0  0  0  0  0
  150.4796  142.0734  155.1738 H   0  0  0  0  0  0  0  0  0  0  0  0
  142.3079  134.1309  150.6918 H   0  0  0  0  0  0  0  0  0  0  0  0
  1  2  1  0  0  0  0
  1 22  1  0  0  0  0
  1 23  1  0  0  0  0
  1 24  1  0  0  0  0
  2  8  1  0  0  0  0
  2  3  2  0  0  0  0
  3  4  1  0  0  0  0
  3 51  1  0  0  0  0
  4  5  1  0  0  0  0
  4  6  1  0  0  0  0
  5 25  1  0  0  0  0
  5 26  1  0  0  0  0
  5 27  1  0  0  0  0
  6  7  1  0  0  0  0
  6  8  2  0  0  0  0
  7 28  1  0  0  0  0
  7 29  1  0  0  0  0
  7 30  1  0  0  0  0
  8  9  1  0  0  0  0
  9 10  1  0  0  0  0
  9 31  1  0  0  0  0
  9 32  1  0  0  0  0
 10 11  1  0  0  0  0
 10 12  1  0  0  0  0
 10 33  1  0  0  0  0
 11 34  1  0  0  0  0
 11 35  1  0  0  0  0
 11 36  1  0  0  0  0
 12 13  1  0  0  0  0
 12 37  1  0  0  0  0
 13 14  2  0  0  0  0
 13 15  1  0  0  0  0
 15 16  1  0  0  0  0
 15 38  1  0  0  0  0
 15 39  1  0  0  0  0
 16 17  1  0  0  0  0
 16 40  1  0  0  0  0
 16 41  1  0  0  0  0
 17 21  1  0  0  0  0
 17 18  1  0  0  0  0
 17 42  1  0  0  0  0
 18 19  1  0  0  0  0
 18 43  1  0  0  0  0
 18 44  1  0  0  0  0
 19 20  1  0  0  0  0
 19 45  1  0  0  0  0
 19 46  1  0  0  0  0
 20 21  1  0  0  0  0
 20 47  1  0  0  0  0
 20 48  1  0  0  0  0
 21 49  1  0  0  0  0
 21 50  1  0  0  0  0
M  CHG  1   3   1
M  END
> <s_m_source_file>
AV-unprocessed.smi

> <i_m_source_file_index>
685

> <i_lp_mmshare_version>
43012

> <i_f3d_flags>
0

> <s_epik_input>
W0NIM11jMW5uKFtDSDNdKWMoW0NIM10pYzFbQ0gyXVtDQEhdKFtDSDNdKVtOSF1DKD1PKVtDSDJdW0NIMl1bQ0hdMltDSDJdW0NIMl1bQ0gyXVtDSDJdMg==

> <s_epik_cmdline>
J2VwaWtfcHl0aG9uJywgJy1waCcsICc3LjAnLCAnLXRuJywgJzgnLCAnLW1hJywgJzIwMCcsICctbWV0YWxfYmluZGluZycsICctaW1hZScsICc8aW5maWxlLm1hZT4nLCAnLW9tYWUnLCAnPG91dGZpbGUubWFlPic=

> <r_lp_tautomer_probability>
1

> <r_epik_Ionization_Penalty>
2.26429

> <r_epik_Ionization_Penalty_Charging>
2.26429

> <r_epik_Ionization_Penalty_Neutral>
2.3289e-07

> <r_epik_State_Penalty>
2.41237

> <r_epik_Charging_Adjusted_Penalty>
4.67666

> <i_epik_Tot_Q>
1

> <i_epik_Tot_abs_Q>
1

> <r_epik_Metal_State_Penalty>
2.42525

> <b_epik_Metal_Only>
0

> <s_lp_Force_Field>
OPLS_2005

> <r_lp_Energy>
28.552

> <b_lp_Chiralities_Consistent>
1

> <s_lp_Variant>
AV-unprocessed.smi:685-3

> <Gold.Version>
5.8.1

> <Gold.Id.Protein>
6NUR|6NUR_protein|mol2

> <Gold.PLP.Fitness>
39.3472

> <Gold.PLP.PLP>
-33.5777

> <Gold.PLP.part.hbond>
-2.0000

> <Gold.PLP.part.metal>
0.0000

> <Gold.PLP.part.buried>
-1.6022

> <Gold.PLP.part.nonpolar>
-30.5388

> <Gold.PLP.part.repulsive>
0.2841

> <Gold.PLP.ligand.clash>
0.0000

> <Gold.PLP.ligand.torsion>
0.1179

> <Gold.PLP.Chemscore.Hbond>
1.9840

> <Gold.PLP.Chemscore.CHOScore>
0.0000

> <Gold.PLP.Chemscore.Metal>
0.0000

> <Gold.Chemscore.Hbonds>
donor molecule, donor type, donor heavy atom, donor atom, acceptor molecule, acceptor atom, score
      L1  H     3    51       P1 10186  2.00

> <Gold.PLP.Chemscore.Internal.Correction>
0.0532

> <Gold.Rescore>
     Score         DG    S(hbond)    S(metal)    S(lipo)     H(rot)  DE(clash)    DE(int)     intcor
     12.32     -15.12       0.93        0.00      91.08       1.61       1.46       1.35       ----

> <Gold.Chemscore.Fitness>
12.3222

> <Gold.Chemscore.DG>
-15.1247

> <Gold.Chemscore.ZeroCoef>
-5.4800

> <Gold.Chemscore.Hbond>
0.9307

> <Gold.Chemscore.Metal>
0.0000

> <Gold.Chemscore.Lipo>
91.0819

> <Gold.Chemscore.Internal_Hbond>
0.0000

> <Gold.Chemscore.DEClash>
1.4552

> <Gold.Chemscore.DEInternal>
1.3473

> <Gold.Chemscore.Rot>
1.6095

> <Gold.Chemscore.Internal.Correction>
   9.000000E+99

> <Gold.Chemscore.Hbonds>
donor molecule, donor type, donor heavy atom, donor atom, acceptor molecule, acceptor atom, score
      L1  H     3    51       P1 10186  0.44

> <Gold.Chemscore.Hbond.Weighted>
-3.1084

> <Gold.Chemscore.Metal.Weighted>
-0.0000

> <Gold.Chemscore.Lipo.Weighted>
-10.6566

> <Gold.Chemscore.Internal_Hbond.Weighted>
0.0000

> <Gold.Chemscore.DEClash.Weighted>
1.4552

> <Gold.Chemscore.DEInternal.Weighted>
1.3473

> <Gold.Chemscore.Rot.Weighted>
4.1202

> <Gold.Chemscore.Internal.Correction.Weighted>
   9.000000E+99

> <Gold.Protein.RotatedTorsions>
[ 6907 6896 6895 6894 ] final  -51.75 input  -60.11 | X-H torsion
[ 7974 7965 7964 7962 ] final   70.09 input  175.53 | X-H torsion
[ 8008 7997 7996 7995 ] final  -42.96 input   59.86 | X-H torsion
[ 10167 10162 10161 10158 ] final  149.69 input  -65.29 | X-H torsion
[ 10718 10713 10712 10709 ] final -157.18 input   66.30 | X-H torsion
[ 10763 10752 10751 10750 ] final  143.16 input  -60.55 | X-H torsion
[ 11005 11000 10999 10996 ] final -132.17 input  -57.11 | X-H torsion

> <Gold.Protein.ActiveResidues>
 VAL166  LYS551  ARG553  GLY616  TRP617  ASP618  TYR619  PRO620  LYS621  CYS622 
 ASP623  PHE694  ASN695  SER759  ASP760  ASP761  ALA762  ILE779  LEU786  VAL792 
 PHE793  MET794  SER795  GLU796  ALA797  LYS798  CYS799  TRP800  GLU811  SER814 

> <Gold.Protein.RotatedAtoms>
  150.8582  134.7926  159.7061 H   0  0  0  0  0  0  0  0  0  0  0  0  # atno 6907 bound_to 6896
  152.4627  134.5144  159.9773 H   0  0  0  0  0  0  0  0  0  0  0  0  # atno 6908 bound_to 6896
  151.5253  133.3421  159.2944 H   0  0  0  0  0  0  0  0  0  0  0  0  # atno 6909 bound_to 6896
  145.7824  139.2894  143.1258 H   0  0  0  0  0  0  0  0  0  0  0  0  # atno 7974 bound_to 7965
  154.3997  140.1460  156.3440 H   0  0  0  0  0  0  0  0  0  0  0  0  # atno 8008 bound_to 7997
  155.8330  140.3465  155.5563 H   0  0  0  0  0  0  0  0  0  0  0  0  # atno 8009 bound_to 7997
  155.8168  140.0892  157.1862 H   0  0  0  0  0  0  0  0  0  0  0  0  # atno 8010 bound_to 7997
  139.4858  144.5582  151.7280 H   0  0  0  0  0  0  0  0  0  0  0  0  # atno 10167 bound_to 10162
  156.5367  130.8545  151.2735 H   0  0  0  0  0  0  0  0  0  0  0  0  # atno 10718 bound_to 10713
  153.9677  135.2954  155.3429 H   0  0  0  0  0  0  0  0  0  0  0  0  # atno 10763 bound_to 10752
  154.7340  135.5055  153.9013 H   0  0  0  0  0  0  0  0  0  0  0  0  # atno 10764 bound_to 10752
  153.0915  135.6709  153.9956 H   0  0  0  0  0  0  0  0  0  0  0  0  # atno 10765 bound_to 10752
  140.9194  134.1464  157.4326 H   0  0  0  0  0  0  0  0  0  0  0  0  # atno 11005 bound_to 11000
  146.0061  140.8477  142.9994 LP  0  0  0  0  0  0  0  0  0  0  0  0  # atno 17320 bound_to 7965
  144.6794  140.2422  143.7342 LP  0  0  0  0  0  0  0  0  0  0  0  0  # atno 17321 bound_to 7965
  140.5147  144.0971  150.6005 LP  0  0  0  0  0  0  0  0  0  0  0  0  # atno 17342 bound_to 10162
  140.3909  143.2753  152.0061 LP  0  0  0  0  0  0  0  0  0  0  0  0  # atno 17343 bound_to 10162
  157.7412  130.9866  150.2432 LP  0  0  0  0  0  0  0  0  0  0  0  0  # atno 17370 bound_to 10713
  156.3009  130.3758  149.7751 LP  0  0  0  0  0  0  0  0  0  0  0  0  # atno 17371 bound_to 10713
  139.8772  134.9966  156.5802 LP  0  0  0  0  0  0  0  0  0  0  0  0  # atno 17394 bound_to 11000
  140.8007  133.8507  155.8724 LP  0  0  0  0  0  0  0  0  0  0  0  0  # atno 17395 bound_to 11000

$$$$
