AV-unprocessed.smi:2446|AV-procd|sdf|9647|dock3
  -GOLD-   2272013283D 1   1.00000     0.00000
 Structure written by MMmdl.
 40 41  0  0  0  0  0  0  0  0  2 V2000
  150.1113  138.6910  154.3742 C   0  0  0  0  0  0  0  0  0  0  0  0
  149.1645  139.8753  154.2752 C   0  0  0  0  0  0  0  0  0  0  0  0
  149.5040  141.0914  154.9073 C   0  0  0  0  0  0  0  0  0  0  0  0
  148.6744  142.1526  154.8254 N   0  3  0  0  0  0  0  0  0  0  0  0
  147.5081  142.1164  154.1483 C   0  0  0  0  0  0  0  0  0  0  0  0
  147.1111  140.9331  153.4945 C   0  0  0  0  0  0  0  0  0  0  0  0
  147.9402  139.7839  153.5642 C   0  0  0  0  0  0  0  0  0  0  0  0
  147.6242  138.5539  152.9215 N   0  0  0  0  0  0  0  0  0  0  0  0
  146.4187  138.0377  152.6117 C   0  0  0  0  0  0  0  0  0  0  0  0
  145.3433  138.5943  152.8211 O   0  0  0  0  0  0  0  0  0  0  0  0
  146.4717  136.8162  152.0488 N   0  0  0  0  0  0  0  0  0  0  0  0
  145.3625  135.9741  151.5937 C   0  0  2  0  0  0  0  0  0  0  0  0
  144.2372  135.9960  152.6435 C   0  0  0  0  0  0  0  0  0  0  0  0
  143.0754  135.0772  152.2354 C   0  0  0  0  0  0  0  0  0  0  0  0
  143.5611  133.6417  151.9799 C   0  0  0  0  0  0  0  0  0  0  0  0
  144.6823  133.6019  150.9204 C   0  0  2  0  0  0  0  0  0  0  0  0
  145.1660  132.1645  150.6390 C   0  0  0  0  0  0  0  0  0  0  0  0
  145.9037  132.1200  149.5293 F   0  0  0  0  0  0  0  0  0  0  0  0
  145.8970  131.7202  151.6614 F   0  0  0  0  0  0  0  0  0  0  0  0
  144.1185  131.3528  150.4934 F   0  0  0  0  0  0  0  0  0  0  0  0
  145.8419  134.5283  151.3434 C   0  0  0  0  0  0  0  0  0  0  0  0
  151.0108  138.9491  154.9339 H   0  0  0  0  0  0  0  0  0  0  0  0
  150.4166  138.3602  153.3810 H   0  0  0  0  0  0  0  0  0  0  0  0
  149.6264  137.8570  154.8823 H   0  0  0  0  0  0  0  0  0  0  0  0
  150.4111  141.2479  155.4729 H   0  0  0  0  0  0  0  0  0  0  0  0
  146.9330  143.0310  154.1442 H   0  0  0  0  0  0  0  0  0  0  0  0
  146.1842  140.9372  152.9424 H   0  0  0  0  0  0  0  0  0  0  0  0
  148.4121  137.9472  152.7475 H   0  0  0  0  0  0  0  0  0  0  0  0
  147.3947  136.4303  151.9096 H   0  0  0  0  0  0  0  0  0  0  0  0
  144.9535  136.3806  150.6667 H   0  0  0  0  0  0  0  0  0  0  0  0
  144.6257  135.6781  153.6121 H   0  0  0  0  0  0  0  0  0  0  0  0
  143.8693  137.0141  152.7768 H   0  0  0  0  0  0  0  0  0  0  0  0
  142.3119  135.0774  153.0138 H   0  0  0  0  0  0  0  0  0  0  0  0
  142.5991  135.4677  151.3355 H   0  0  0  0  0  0  0  0  0  0  0  0
  143.9189  133.2083  152.9149 H   0  0  0  0  0  0  0  0  0  0  0  0
  142.7190  133.0278  151.6593 H   0  0  0  0  0  0  0  0  0  0  0  0
  144.2704  133.9927  149.9883 H   0  0  0  0  0  0  0  0  0  0  0  0
  146.6134  134.5211  150.5736 H   0  0  0  0  0  0  0  0  0  0  0  0
  146.3112  134.1369  152.2473 H   0  0  0  0  0  0  0  0  0  0  0  0
  148.9428  143.0204  155.2902 H   0  0  0  0  0  0  0  0  0  0  0  0
  1  2  1  0  0  0  0
  1 22  1  0  0  0  0
  1 23  1  0  0  0  0
  1 24  1  0  0  0  0
  2  7  1  0  0  0  0
  2  3  2  0  0  0  0
  3  4  1  0  0  0  0
  3 25  1  0  0  0  0
  4  5  2  0  0  0  0
  4 40  1  0  0  0  0
  5  6  1  0  0  0  0
  5 26  1  0  0  0  0
  6  7  2  0  0  0  0
  6 27  1  0  0  0  0
  7  8  1  0  0  0  0
  8  9  1  0  0  0  0
  8 28  1  0  0  0  0
  9 10  2  0  0  0  0
  9 11  1  0  0  0  0
 11 12  1  0  0  0  0
 11 29  1  0  0  0  0
 12 21  1  0  0  0  0
 12 13  1  0  0  0  0
 12 30  1  0  0  0  0
 13 14  1  0  0  0  0
 13 31  1  0  0  0  0
 13 32  1  0  0  0  0
 14 15  1  0  0  0  0
 14 33  1  0  0  0  0
 14 34  1  0  0  0  0
 15 16  1  0  0  0  0
 15 35  1  0  0  0  0
 15 36  1  0  0  0  0
 16 17  1  0  0  0  0
 16 21  1  0  0  0  0
 16 37  1  0  0  0  0
 17 18  1  0  0  0  0
 17 19  1  0  0  0  0
 17 20  1  0  0  0  0
 21 38  1  0  0  0  0
 21 39  1  0  0  0  0
M  CHG  1   4   1
M  END
> <s_m_source_file>
AV-unprocessed.smi

> <i_m_source_file_index>
2446

> <i_lp_mmshare_version>
43012

> <i_f3d_flags>
0

> <s_epik_input>
W0NIM11jMVtjSF1uW2NIXVtjSF1jMVtOSF1DKD1PKVtOSF1bQ0BASF0yW0NIMl1bQ0gyXVtDSDJdW0NAQEhdKEMoRikoRilGKVtDSDJdMg==

> <s_epik_cmdline>
J2VwaWtfcHl0aG9uJywgJy1waCcsICc3LjAnLCAnLXRuJywgJzgnLCAnLW1hJywgJzIwMCcsICctbWV0YWxfYmluZGluZycsICctaW1hZScsICc8aW5maWxlLm1hZT4nLCAnLW9tYWUnLCAnPG91dGZpbGUubWFlPic=

> <r_epik_Ionization_Penalty>
0.736582

> <r_epik_Ionization_Penalty_Charging>
0.736562

> <r_epik_Ionization_Penalty_Neutral>
1.98379e-05

> <r_epik_State_Penalty>
0.762314

> <r_epik_Charging_Adjusted_Penalty>
1.49888

> <i_epik_Tot_Q>
1

> <i_epik_Tot_abs_Q>
1

> <r_epik_Metal_State_Penalty>
0.914579

> <b_epik_Metal_Only>
0

> <s_lp_Force_Field>
OPLS_2005

> <r_lp_Energy>
31.4788

> <b_lp_Chiralities_Consistent>
1

> <s_lp_Variant>
AV-unprocessed.smi:2446-7

> <Gold.Version>
5.8.1

> <Gold.Id.Protein>
6NUR|6NUR_protein|mol2

> <Gold.PLP.Fitness>
50.9918

> <Gold.PLP.PLP>
-40.4544

> <Gold.PLP.part.hbond>
-4.0000

> <Gold.PLP.part.metal>
0.0000

> <Gold.PLP.part.buried>
-3.2618

> <Gold.PLP.part.nonpolar>
-38.8549

> <Gold.PLP.part.repulsive>
4.2991

> <Gold.PLP.ligand.clash>
0.0000

> <Gold.PLP.ligand.torsion>
0.5602

> <Gold.PLP.Chemscore.Hbond>
3.8800

> <Gold.PLP.Chemscore.CHOScore>
0.0000

> <Gold.PLP.Chemscore.Metal>
0.0000

> <Gold.Chemscore.Hbonds>
donor molecule, donor type, donor heavy atom, donor atom, acceptor molecule, acceptor atom, score
      L1  H     4    40       P1  8028  2.00
      L1  H     8    28       P1  7948  0.88
      L1  H    11    29       P1  7948  1.00

> <Gold.PLP.Chemscore.Internal.Correction>
0.0178

> <Gold.Rescore>
     Score         DG    S(hbond)    S(metal)    S(lipo)     H(rot)  DE(clash)    DE(int)     intcor
     16.85     -22.71       2.89        0.00      86.58       1.00       2.90       2.96       ----

> <Gold.Chemscore.Fitness>
16.8543

> <Gold.Chemscore.DG>
-22.7142

> <Gold.Chemscore.ZeroCoef>
-5.4800

> <Gold.Chemscore.Hbond>
2.8936

> <Gold.Chemscore.Metal>
0.0000

> <Gold.Chemscore.Lipo>
86.5764

> <Gold.Chemscore.Internal_Hbond>
0.0000

> <Gold.Chemscore.DEClash>
2.9019

> <Gold.Chemscore.DEInternal>
2.9579

> <Gold.Chemscore.Rot>
1.0000

> <Gold.Chemscore.Internal.Correction>
   9.000000E+99

> <Gold.Chemscore.Hbonds>
donor molecule, donor type, donor heavy atom, donor atom, acceptor molecule, acceptor atom, score
      L1  H     4    40       P1  8028  0.99
      L1  H     8    28       P1  7948  0.84
      L1  H    11    29       P1  7948  0.95

> <Gold.Chemscore.Hbond.Weighted>
-9.6647

> <Gold.Chemscore.Metal.Weighted>
-0.0000

> <Gold.Chemscore.Lipo.Weighted>
-10.1294

> <Gold.Chemscore.Internal_Hbond.Weighted>
0.0000

> <Gold.Chemscore.DEClash.Weighted>
2.9019

> <Gold.Chemscore.DEInternal.Weighted>
2.9579

> <Gold.Chemscore.Rot.Weighted>
2.5600

> <Gold.Chemscore.Internal.Correction.Weighted>
   9.000000E+99

> <Gold.Protein.RotatedTorsions>
[ 6907 6896 6895 6894 ] final    1.22 input  -60.11 | X-H torsion
[ 7974 7965 7964 7962 ] final   36.00 input  175.53 | X-H torsion
[ 8008 7997 7996 7995 ] final  -83.33 input   59.86 | X-H torsion
[ 10167 10162 10161 10158 ] final  -85.46 input  -65.29 | X-H torsion
[ 10718 10713 10712 10709 ] final  128.92 input   66.30 | X-H torsion
[ 10763 10752 10751 10750 ] final   51.27 input  -60.55 | X-H torsion
[ 11005 11000 10999 10996 ] final  -38.09 input  -57.11 | X-H torsion

> <Gold.Protein.ActiveResidues>
 VAL166  LYS551  ARG553  GLY616  TRP617  ASP618  TYR619  PRO620  LYS621  CYS622 
 ASP623  PHE694  ASN695  SER759  ASP760  ASP761  ALA762  ILE779  LEU786  VAL792 
 PHE793  MET794  SER795  GLU796  ALA797  LYS798  CYS799  TRP800  GLU811  SER814 

> <Gold.Protein.RotatedAtoms>
  151.5891  135.1054  160.0034 H   0  0  0  0  0  0  0  0  0  0  0  0  # atno 6907 bound_to 6896
  152.4315  133.7282  159.6583 H   0  0  0  0  0  0  0  0  0  0  0  0  # atno 6908 bound_to 6896
  150.8208  133.8185  159.3162 H   0  0  0  0  0  0  0  0  0  0  0  0  # atno 6909 bound_to 6896
  146.1243  139.6072  142.9269 H   0  0  0  0  0  0  0  0  0  0  0  0  # atno 7974 bound_to 7965
  154.6180  140.0620  156.9579 H   0  0  0  0  0  0  0  0  0  0  0  0  # atno 8008 bound_to 7997
  155.1864  140.3303  155.4348 H   0  0  0  0  0  0  0  0  0  0  0  0  # atno 8009 bound_to 7997
  156.2415  140.1888  156.6957 H   0  0  0  0  0  0  0  0  0  0  0  0  # atno 8010 bound_to 7997
  140.4035  143.2652  151.9111 H   0  0  0  0  0  0  0  0  0  0  0  0  # atno 10167 bound_to 10162
  157.5201  131.1098  150.9167 H   0  0  0  0  0  0  0  0  0  0  0  0  # atno 10718 bound_to 10713
  152.9785  135.5851  154.4389 H   0  0  0  0  0  0  0  0  0  0  0  0  # atno 10763 bound_to 10752
  154.3992  135.2768  155.2109 H   0  0  0  0  0  0  0  0  0  0  0  0  # atno 10764 bound_to 10752
  154.3947  135.6117  153.5917 H   0  0  0  0  0  0  0  0  0  0  0  0  # atno 10765 bound_to 10752
  141.0001  133.6959  156.2007 H   0  0  0  0  0  0  0  0  0  0  0  0  # atno 11005 bound_to 11000
  145.5400  141.0421  143.2336 LP  0  0  0  0  0  0  0  0  0  0  0  0  # atno 17320 bound_to 7965
  144.7627  139.6919  143.7228 LP  0  0  0  0  0  0  0  0  0  0  0  0  # atno 17321 bound_to 7965
  139.4784  144.5610  151.8240 LP  0  0  0  0  0  0  0  0  0  0  0  0  # atno 17342 bound_to 10162
  140.4714  144.1581  150.5918 LP  0  0  0  0  0  0  0  0  0  0  0  0  # atno 17343 bound_to 10162
  156.9780  130.5516  149.5294 LP  0  0  0  0  0  0  0  0  0  0  0  0  # atno 17370 bound_to 10713
  156.0347  130.5436  150.8624 LP  0  0  0  0  0  0  0  0  0  0  0  0  # atno 17371 bound_to 10713
  140.6902  134.4674  157.5588 LP  0  0  0  0  0  0  0  0  0  0  0  0  # atno 17394 bound_to 11000
  139.9034  134.8503  156.1801 LP  0  0  0  0  0  0  0  0  0  0  0  0  # atno 17395 bound_to 11000

$$$$
