AV-unprocessed.smi:3315|AV-procd|sdf|12752|dock1
  -GOLD-   2272019 93D 1   1.00000     0.00000
 Structure written by MMmdl.
 37 38  0  0  0  0  0  0  0  0  1 V2000
  154.3955  141.4998  159.9228 C   0  0  0  0  0  0  0  0  0  0  0  0
  153.7801  142.7167  159.5197 O   0  0  0  0  0  0  0  0  0  0  0  0
  152.4035  142.8763  159.8672 C   0  0  2  0  0  0  0  0  0  0  0  0
  152.2541  142.9562  161.3946 C   0  0  0  0  0  0  0  0  0  0  0  0
  151.4931  141.8975  159.1030 C   0  0  0  0  0  0  0  0  0  0  0  0
  150.5512  143.0800  158.8869 C   0  0  2  0  0  0  0  0  0  0  0  0
  149.9048  143.0533  157.5790 N   0  0  0  0  0  0  0  0  0  0  0  0
  149.4477  141.9437  156.9830 C   0  0  0  0  0  0  0  0  0  0  0  0
  149.5328  140.8209  157.4814 O   0  0  0  0  0  0  0  0  0  0  0  0
  148.8919  142.2233  155.7917 N   0  0  0  0  0  0  0  0  0  0  0  0
  148.3065  141.3125  154.8755 C   0  0  0  0  0  0  0  0  0  0  0  0
  147.2162  141.7049  154.0540 C   0  0  0  0  0  0  0  0  0  0  0  0
  146.9544  140.5722  153.3367 C   0  0  0  0  0  0  0  0  0  0  0  0
  147.8080  139.5735  153.6866 O   0  0  0  0  0  0  0  0  0  0  0  0
  148.6737  140.0553  154.6759 N   0  0  0  0  0  0  0  0  0  0  0  0
  151.7863  144.0114  158.9861 C   0  0  0  0  0  0  0  0  0  0  0  0
  151.5478  145.3632  159.6665 C   0  0  0  0  0  0  0  0  0  0  0  0
  152.5261  144.3277  157.6705 C   0  0  0  0  0  0  0  0  0  0  0  0
  155.4049  141.4594  159.5139 H   0  0  0  0  0  0  0  0  0  0  0  0
  153.8561  140.6266  159.5553 H   0  0  0  0  0  0  0  0  0  0  0  0
  154.4835  141.4275  161.0065 H   0  0  0  0  0  0  0  0  0  0  0  0
  151.2381  143.2164  161.6904 H   0  0  0  0  0  0  0  0  0  0  0  0
  152.9202  143.7078  161.8188 H   0  0  0  0  0  0  0  0  0  0  0  0
  152.4780  142.0047  161.8761 H   0  0  0  0  0  0  0  0  0  0  0  0
  151.9360  141.5146  158.1817 H   0  0  0  0  0  0  0  0  0  0  0  0
  151.0757  141.0928  159.7087 H   0  0  0  0  0  0  0  0  0  0  0  0
  149.8561  143.2008  159.7211 H   0  0  0  0  0  0  0  0  0  0  0  0
  149.7954  143.9367  157.1029 H   0  0  0  0  0  0  0  0  0  0  0  0
  148.8894  143.1918  155.5085 H   0  0  0  0  0  0  0  0  0  0  0  0
  146.7093  142.6566  153.9970 H   0  0  0  0  0  0  0  0  0  0  0  0
  146.2282  140.3287  152.5752 H   0  0  0  0  0  0  0  0  0  0  0  0
  151.0385  146.0617  159.0015 H   0  0  0  0  0  0  0  0  0  0  0  0
  152.4863  145.8254  159.9735 H   0  0  0  0  0  0  0  0  0  0  0  0
  150.9243  145.2698  160.5551 H   0  0  0  0  0  0  0  0  0  0  0  0
  151.9371  144.9781  157.0230 H   0  0  0  0  0  0  0  0  0  0  0  0
  152.7546  143.4291  157.0972 H   0  0  0  0  0  0  0  0  0  0  0  0
  153.4732  144.8343  157.8590 H   0  0  0  0  0  0  0  0  0  0  0  0
  1  2  1  0  0  0  0
  1 19  1  0  0  0  0
  1 20  1  0  0  0  0
  1 21  1  0  0  0  0
  2  3  1  0  0  0  0
  3 16  1  0  0  0  0
  3  4  1  0  0  0  0
  3  5  1  0  0  0  0
  4 22  1  0  0  0  0
  4 23  1  0  0  0  0
  4 24  1  0  0  0  0
  5  6  1  0  0  0  0
  5 25  1  0  0  0  0
  5 26  1  0  0  0  0
  6  7  1  0  0  0  0
  6 16  1  0  0  0  0
  6 27  1  0  0  0  0
  7  8  1  0  0  0  0
  7 28  1  0  0  0  0
  8  9  2  0  0  0  0
  8 10  1  0  0  0  0
 10 11  1  0  0  0  0
 10 29  1  0  0  0  0
 11 15  2  0  0  0  0
 11 12  1  0  0  0  0
 12 13  2  0  0  0  0
 12 30  1  0  0  0  0
 13 14  1  0  0  0  0
 13 31  1  0  0  0  0
 14 15  1  0  0  0  0
 16 17  1  0  0  0  0
 16 18  1  0  0  0  0
 17 32  1  0  0  0  0
 17 33  1  0  0  0  0
 17 34  1  0  0  0  0
 18 35  1  0  0  0  0
 18 36  1  0  0  0  0
 18 37  1  0  0  0  0
M  END
> <s_m_source_file>
AV-unprocessed.smi

> <i_m_source_file_index>
3315

> <i_lp_mmshare_version>
43012

> <i_f3d_flags>
0

> <s_epik_input>
W0NIM11PW0NAQF0xKFtDSDNdKVtDSDJdW0NASF0oQzEoW0NIM10pW0NIM10pW05IXUMoPU8pW05IXWMyW2NIXVtjSF1vbjI=

> <s_epik_cmdline>
J2VwaWtfcHl0aG9uJywgJy1waCcsICc3LjAnLCAnLXRuJywgJzgnLCAnLW1hJywgJzIwMCcsICctbWV0YWxfYmluZGluZycsICctaW1hZScsICc8aW5maWxlLm1hZT4nLCAnLW9tYWUnLCAnPG91dGZpbGUubWFlPic=

> <r_lp_tautomer_probability>
1

> <r_epik_Ionization_Penalty>
2.28875e-05

> <r_epik_Ionization_Penalty_Charging>
0

> <r_epik_Ionization_Penalty_Neutral>
2.28875e-05

> <r_epik_State_Penalty>
-0

> <r_epik_Charging_Adjusted_Penalty>
0

> <i_epik_Tot_Q>
0

> <i_epik_Tot_abs_Q>
0

> <r_epik_Metal_State_Penalty>
-0

> <b_epik_Metal_Only>
0

> <s_lp_Force_Field>
OPLS_2005

> <r_lp_Energy>
21.6117

> <b_lp_Chiralities_Consistent>
1

> <s_lp_Variant>
AV-unprocessed.smi:3315-4

> <Gold.Version>
5.8.1

> <Gold.Id.Protein>
6NUR|6NUR_protein|mol2

> <Gold.PLP.Fitness>
44.8921

> <Gold.PLP.PLP>
-37.2797

> <Gold.PLP.part.hbond>
-1.8681

> <Gold.PLP.part.metal>
0.0000

> <Gold.PLP.part.buried>
-5.5365

> <Gold.PLP.part.nonpolar>
-32.5984

> <Gold.PLP.part.repulsive>
0.4443

> <Gold.PLP.ligand.clash>
0.0000

> <Gold.PLP.ligand.torsion>
0.5831

> <Gold.PLP.Chemscore.Hbond>
1.8393

> <Gold.PLP.Chemscore.CHOScore>
0.9630

> <Gold.PLP.Chemscore.Metal>
0.0000

> <Gold.Chemscore.Hbonds>
donor molecule, donor type, donor heavy atom, donor atom, acceptor molecule, acceptor atom, score
      L1  H     7    28       P1  8028  0.85
      L1  H    10    29       P1  8028  0.99
      L1  C    13    31       P1 10175  0.97

> <Gold.PLP.Chemscore.Internal.Correction>
0.3720

> <Gold.Rescore>
     Score         DG    S(hbond)    S(metal)    S(lipo)     H(rot)  DE(clash)    DE(int)     intcor
     17.12     -20.43       1.88        0.00     102.80       1.30       0.40       2.91       ----

> <Gold.Chemscore.Fitness>
17.1203

> <Gold.Chemscore.DG>
-20.4341

> <Gold.Chemscore.ZeroCoef>
-5.4800

> <Gold.Chemscore.Hbond>
1.8754

> <Gold.Chemscore.Metal>
0.0000

> <Gold.Chemscore.Lipo>
102.8045

> <Gold.Chemscore.Internal_Hbond>
0.0000

> <Gold.Chemscore.DEClash>
0.4011

> <Gold.Chemscore.DEInternal>
2.9128

> <Gold.Chemscore.Rot>
1.3038

> <Gold.Chemscore.Internal.Correction>
   9.000000E+99

> <Gold.Chemscore.Hbonds>
donor molecule, donor type, donor heavy atom, donor atom, acceptor molecule, acceptor atom, score
      L1  H     7    28       P1  8028  0.72
      L1  H    10    29       P1  8028  0.92

> <Gold.Chemscore.Hbond.Weighted>
-6.2638

> <Gold.Chemscore.Metal.Weighted>
-0.0000

> <Gold.Chemscore.Lipo.Weighted>
-12.0281

> <Gold.Chemscore.Internal_Hbond.Weighted>
0.0000

> <Gold.Chemscore.DEClash.Weighted>
0.4011

> <Gold.Chemscore.DEInternal.Weighted>
2.9128

> <Gold.Chemscore.Rot.Weighted>
3.3377

> <Gold.Chemscore.Internal.Correction.Weighted>
   9.000000E+99

> <Gold.Protein.RotatedTorsions>
[ 6907 6896 6895 6894 ] final   82.07 input  -60.11 | X-H torsion
[ 7974 7965 7964 7962 ] final   66.31 input  175.53 | X-H torsion
[ 8008 7997 7996 7995 ] final   46.84 input   59.86 | X-H torsion
[ 10167 10162 10161 10158 ] final   22.60 input  -65.29 | X-H torsion
[ 10718 10713 10712 10709 ] final  155.59 input   66.30 | X-H torsion
[ 10763 10752 10751 10750 ] final  -98.44 input  -60.55 | X-H torsion
[ 11005 11000 10999 10996 ] final  113.45 input  -57.11 | X-H torsion

> <Gold.Protein.ActiveResidues>
 VAL166  LYS551  ARG553  GLY616  TRP617  ASP618  TYR619  PRO620  LYS621  CYS622 
 ASP623  PHE694  ASN695  SER759  ASP760  ASP761  ALA762  ILE779  LEU786  VAL792 
 PHE793  MET794  SER795  GLU796  ALA797  LYS798  CYS799  TRP800  GLU811  SER814 

> <Gold.Protein.RotatedAtoms>
  152.5288  134.3106  159.9111 H   0  0  0  0  0  0  0  0  0  0  0  0  # atno 6907 bound_to 6896
  151.3056  133.4096  159.2650 H   0  0  0  0  0  0  0  0  0  0  0  0  # atno 6908 bound_to 6896
  151.0082  134.9392  159.8049 H   0  0  0  0  0  0  0  0  0  0  0  0  # atno 6909 bound_to 6896
  145.8282  139.3123  143.1003 H   0  0  0  0  0  0  0  0  0  0  0  0  # atno 7974 bound_to 7965
  155.3591  140.3417  155.4240 H   0  0  0  0  0  0  0  0  0  0  0  0  # atno 8008 bound_to 7997
  156.1723  140.1636  156.8460 H   0  0  0  0  0  0  0  0  0  0  0  0  # atno 8009 bound_to 7997
  154.5246  140.0759  156.8217 H   0  0  0  0  0  0  0  0  0  0  0  0  # atno 8010 bound_to 7997
  140.5335  143.9800  150.6479 H   0  0  0  0  0  0  0  0  0  0  0  0  # atno 10167 bound_to 10162
  157.2163  131.0708  151.1939 H   0  0  0  0  0  0  0  0  0  0  0  0  # atno 10718 bound_to 10713
  154.7414  135.5009  153.9130 H   0  0  0  0  0  0  0  0  0  0  0  0  # atno 10763 bound_to 10752
  153.1047  135.6694  153.9615 H   0  0  0  0  0  0  0  0  0  0  0  0  # atno 10764 bound_to 10752
  153.9391  135.3069  155.3422 H   0  0  0  0  0  0  0  0  0  0  0  0  # atno 10765 bound_to 10752
  139.8953  134.9550  156.6740 H   0  0  0  0  0  0  0  0  0  0  0  0  # atno 11005 bound_to 11000
  145.9600  140.8842  143.0215 LP  0  0  0  0  0  0  0  0  0  0  0  0  # atno 17320 bound_to 7965
  144.6742  140.1800  143.7406 LP  0  0  0  0  0  0  0  0  0  0  0  0  # atno 17321 bound_to 7965
  140.3181  143.3154  152.0811 LP  0  0  0  0  0  0  0  0  0  0  0  0  # atno 17342 bound_to 10162
  139.4962  144.6592  151.6504 LP  0  0  0  0  0  0  0  0  0  0  0  0  # atno 17343 bound_to 10162
  157.3621  130.7137  149.6509 LP  0  0  0  0  0  0  0  0  0  0  0  0  # atno 17370 bound_to 10713
  155.9686  130.4222  150.4507 LP  0  0  0  0  0  0  0  0  0  0  0  0  # atno 17371 bound_to 10713
  140.7351  133.9025  155.8238 LP  0  0  0  0  0  0  0  0  0  0  0  0  # atno 17394 bound_to 11000
  141.0122  134.1004  157.4209 LP  0  0  0  0  0  0  0  0  0  0  0  0  # atno 17395 bound_to 11000

$$$$
