AV-unprocessed.smi:164|AV-procd|sdf|1385|dock3
  -GOLD-   2262019113D 1   1.00000     0.00000
 Structure written by MMmdl.
 53 55  0  0  0  0  0  0  0  0  1 V2000
  145.2125  134.0022  162.5954 C   0  0  0  0  0  0  0  0  0  0  0  0
  145.6446  134.7501  161.3458 C   0  0  0  0  0  0  0  0  0  0  0  0
  144.8886  134.6013  160.1649 C   0  0  0  0  0  0  0  0  0  0  0  0
  145.2640  135.2748  158.9893 C   0  0  0  0  0  0  0  0  0  0  0  0
  146.3944  136.1146  158.9846 C   0  0  0  0  0  0  0  0  0  0  0  0
  146.7911  136.8320  157.7074 C   0  0  0  0  0  0  0  0  0  0  0  0
  147.1483  136.2845  160.1684 C   0  0  0  0  0  0  0  0  0  0  0  0
  148.2401  137.1130  160.1558 O   0  0  0  0  0  0  0  0  0  0  0  0
  149.3060  136.6350  159.3456 C   0  0  0  0  0  0  0  0  0  0  0  0
  150.3996  137.7081  159.2277 C   0  0  1  0  0  0  0  0  0  0  0  0
  151.5825  137.1753  159.7884 O   0  0  0  0  0  0  0  0  0  0  0  0
  150.6442  138.1585  157.7704 C   0  0  0  0  0  0  0  0  0  0  0  0
  150.4022  139.5761  157.5611 N   0  0  0  0  0  0  0  0  0  0  0  0
  149.2791  139.9493  156.7836 C   0  0  0  0  0  0  0  0  0  0  0  0
  148.5138  139.1171  156.2937 O   0  0  0  0  0  0  0  0  0  0  0  0
  149.1182  141.3882  156.6051 C   0  0  0  0  0  0  0  0  0  0  0  0
  148.0738  141.8568  155.9014 F   0  0  0  0  0  0  0  0  0  0  0  0
  150.0024  142.2613  157.1345 C   0  0  0  0  0  0  0  0  0  0  0  0
  151.1098  141.8649  157.8671 N   0  0  0  0  0  0  0  0  0  0  0  0
  152.0934  142.8623  158.4434 C   0  0  1  0  0  0  0  0  0  0  0  0
  151.8032  144.2801  157.9137 C   0  0  0  0  0  0  0  0  0  0  0  0
  151.7173  145.1029  159.1841 C   0  0  0  0  0  0  0  0  0  0  0  0
  151.2264  144.0760  160.1933 C   0  0  0  0  0  0  0  0  0  0  0  0
  151.9604  142.9122  159.8356 O   0  0  0  0  0  0  0  0  0  0  0  0
  151.3345  140.4912  158.1047 C   0  0  0  0  0  0  0  0  0  0  0  0
  152.3162  140.1151  158.7504 O   0  0  0  0  0  0  0  0  0  0  0  0
  146.7884  135.5870  161.3490 C   0  0  0  0  0  0  0  0  0  0  0  0
  147.6249  135.7377  162.6129 C   0  0  0  0  0  0  0  0  0  0  0  0
  144.2411  133.5267  162.4574 H   0  0  0  0  0  0  0  0  0  0  0  0
  145.1315  134.6822  163.4438 H   0  0  0  0  0  0  0  0  0  0  0  0
  145.9355  133.2239  162.8409 H   0  0  0  0  0  0  0  0  0  0  0  0
  144.0168  133.9634  160.1533 H   0  0  0  0  0  0  0  0  0  0  0  0
  144.6786  135.1442  158.0909 H   0  0  0  0  0  0  0  0  0  0  0  0
  147.8682  136.7711  157.5488 H   0  0  0  0  0  0  0  0  0  0  0  0
  146.5095  137.8837  157.7603 H   0  0  0  0  0  0  0  0  0  0  0  0
  146.2999  136.3924  156.8387 H   0  0  0  0  0  0  0  0  0  0  0  0
  149.7320  135.7465  159.8136 H   0  0  0  0  0  0  0  0  0  0  0  0
  148.9522  136.3307  158.3590 H   0  0  0  0  0  0  0  0  0  0  0  0
  150.1006  138.5584  159.8421 H   0  0  0  0  0  0  0  0  0  0  0  0
  152.1218  137.8911  160.0885 H   0  0  0  0  0  0  0  0  0  0  0  0
  151.6485  137.9153  157.4189 H   0  0  0  0  0  0  0  0  0  0  0  0
  149.9853  137.6283  157.0801 H   0  0  0  0  0  0  0  0  0  0  0  0
  149.8186  143.3109  156.9647 H   0  0  0  0  0  0  0  0  0  0  0  0
  153.0833  142.4815  158.1857 H   0  0  0  0  0  0  0  0  0  0  0  0
  152.5915  144.6141  157.2384 H   0  0  0  0  0  0  0  0  0  0  0  0
  150.8497  144.2989  157.3833 H   0  0  0  0  0  0  0  0  0  0  0  0
  152.7079  145.4609  159.4675 H   0  0  0  0  0  0  0  0  0  0  0  0
  151.0536  145.9631  159.0927 H   0  0  0  0  0  0  0  0  0  0  0  0
  151.4182  144.3712  161.2249 H   0  0  0  0  0  0  0  0  0  0  0  0
  150.1562  143.8991  160.0777 H   0  0  0  0  0  0  0  0  0  0  0  0
  148.5982  136.1854  162.4133 H   0  0  0  0  0  0  0  0  0  0  0  0
  147.8108  134.7684  163.0749 H   0  0  0  0  0  0  0  0  0  0  0  0
  147.1051  136.3688  163.3337 H   0  0  0  0  0  0  0  0  0  0  0  0
  1  2  1  0  0  0  0
  1 29  1  0  0  0  0
  1 30  1  0  0  0  0
  1 31  1  0  0  0  0
  2 27  1  0  0  0  0
  2  3  2  0  0  0  0
  3  4  1  0  0  0  0
  3 32  1  0  0  0  0
  4  5  2  0  0  0  0
  4 33  1  0  0  0  0
  5  6  1  0  0  0  0
  5  7  1  0  0  0  0
  6 34  1  0  0  0  0
  6 35  1  0  0  0  0
  6 36  1  0  0  0  0
  7  8  1  0  0  0  0
  7 27  2  0  0  0  0
  8  9  1  0  0  0  0
  9 10  1  0  0  0  0
  9 37  1  0  0  0  0
  9 38  1  0  0  0  0
 10 11  1  0  0  0  0
 10 12  1  0  0  0  0
 10 39  1  0  0  0  0
 11 40  1  0  0  0  0
 12 13  1  0  0  0  0
 12 41  1  0  0  0  0
 12 42  1  0  0  0  0
 13 25  1  0  0  0  0
 13 14  1  0  0  0  0
 14 15  2  0  0  0  0
 14 16  1  0  0  0  0
 16 17  1  0  0  0  0
 16 18  2  0  0  0  0
 18 19  1  0  0  0  0
 18 43  1  0  0  0  0
 19 20  1  0  0  0  0
 19 25  1  0  0  0  0
 20 24  1  0  0  0  0
 20 21  1  0  0  0  0
 20 44  1  0  0  0  0
 21 22  1  0  0  0  0
 21 45  1  0  0  0  0
 21 46  1  0  0  0  0
 22 23  1  0  0  0  0
 22 47  1  0  0  0  0
 22 48  1  0  0  0  0
 23 24  1  0  0  0  0
 23 49  1  0  0  0  0
 23 50  1  0  0  0  0
 25 26  2  0  0  0  0
 27 28  1  0  0  0  0
 28 51  1  0  0  0  0
 28 52  1  0  0  0  0
 28 53  1  0  0  0  0
M  END
> <s_m_source_file>
AV-unprocessed.smi

> <i_m_source_file_index>
164

> <i_lp_mmshare_version>
43012

> <i_f3d_flags>
0

> <s_epik_input>
W0NIM11jMVtjSF1bY0hdYyhbQ0gzXSljKGMxW0NIM10pT1tDSDJdW0NASF0oW09IXSlbQ0gyXW4yYyg9TyljKEYpW2NIXW4oYzI9TylbQ0BASF0zW0NIMl1bQ0gyXVtDSDJdTzM=

> <s_epik_cmdline>
J2VwaWtfcHl0aG9uJywgJy1waCcsICc3LjAnLCAnLXRuJywgJzgnLCAnLW1hJywgJzIwMCcsICctbWV0YWxfYmluZGluZycsICctaW1hZScsICc8aW5maWxlLm1hZT4nLCAnLW9tYWUnLCAnPG91dGZpbGUubWFlPic=

> <r_lp_tautomer_probability>
1

> <r_epik_Ionization_Penalty>
1.45842e-07

> <r_epik_Ionization_Penalty_Charging>
2.86622e-08

> <r_epik_Ionization_Penalty_Neutral>
1.1718e-07

> <r_epik_State_Penalty>
-0

> <r_epik_Charging_Adjusted_Penalty>
2.86622e-08

> <i_epik_Tot_Q>
0

> <i_epik_Tot_abs_Q>
0

> <r_epik_Metal_State_Penalty>
-0

> <b_epik_Metal_Only>
0

> <s_epik_Chemistry_Notes>
This compound contains an acetal/aminal-like group ( X-CH(R)-Y where X, Y are N, S, or O) that may be acid/base labile, releasing an aldehyde.

> <s_lp_Force_Field>
OPLS_2005

> <r_lp_Energy>
46.8287

> <b_lp_Chiralities_Consistent>
1

> <s_lp_Variant>
AV-unprocessed.smi:164-4

> <Gold.Version>
5.8.1

> <Gold.Id.Protein>
6NUR|6NUR_protein|mol2

> <Gold.PLP.Fitness>
48.4319

> <Gold.PLP.PLP>
-43.3432

> <Gold.PLP.part.hbond>
-3.0000

> <Gold.PLP.part.metal>
0.0000

> <Gold.PLP.part.buried>
-3.8474

> <Gold.PLP.part.nonpolar>
-37.5296

> <Gold.PLP.part.repulsive>
0.0000

> <Gold.PLP.ligand.clash>
0.0000

> <Gold.PLP.ligand.torsion>
1.8521

> <Gold.PLP.Chemscore.Hbond>
1.8999

> <Gold.PLP.Chemscore.CHOScore>
1.0000

> <Gold.PLP.Chemscore.Metal>
0.0000

> <Gold.Chemscore.Hbonds>
donor molecule, donor type, donor heavy atom, donor atom, acceptor molecule, acceptor atom, score
      P1  H  6896  6907       L1    11  1.00
      P1  H  6931  6943       L1     8  0.35
      P1  H  6934  6947       L1     8  0.18
      L1  C    18    43       P1  8028  1.00

> <Gold.PLP.Chemscore.Internal.Correction>
0.0931

> <Gold.Rescore>
     Score         DG    S(hbond)    S(metal)    S(lipo)     H(rot)  DE(clash)    DE(int)     intcor
     13.08     -15.79       1.53        0.00     104.17       2.73       0.39       2.32       ----

> <Gold.Chemscore.Fitness>
13.0789

> <Gold.Chemscore.DG>
-15.7938

> <Gold.Chemscore.ZeroCoef>
-5.4800

> <Gold.Chemscore.Hbond>
1.5324

> <Gold.Chemscore.Metal>
0.0000

> <Gold.Chemscore.Lipo>
104.1710

> <Gold.Chemscore.Internal_Hbond>
0.0000

> <Gold.Chemscore.DEClash>
0.3936

> <Gold.Chemscore.DEInternal>
2.3213

> <Gold.Chemscore.Rot>
2.7315

> <Gold.Chemscore.Internal.Correction>
   9.000000E+99

> <Gold.Chemscore.Hbonds>
donor molecule, donor type, donor heavy atom, donor atom, acceptor molecule, acceptor atom, score
      P1  H  6896  6907       L1    11  0.89
      P1  H  6931  6943       L1     8  0.26
      P1  H  6934  6947       L1     8  0.04

> <Gold.Chemscore.Hbond.Weighted>
-5.1183

> <Gold.Chemscore.Metal.Weighted>
-0.0000

> <Gold.Chemscore.Lipo.Weighted>
-12.1880

> <Gold.Chemscore.Internal_Hbond.Weighted>
0.0000

> <Gold.Chemscore.DEClash.Weighted>
0.3936

> <Gold.Chemscore.DEInternal.Weighted>
2.3213

> <Gold.Chemscore.Rot.Weighted>
6.9925

> <Gold.Chemscore.Internal.Correction.Weighted>
   9.000000E+99

> <Gold.Protein.RotatedTorsions>
[ 6907 6896 6895 6894 ] final    8.11 input  -60.11 | X-H torsion
[ 7974 7965 7964 7962 ] final  151.44 input  175.53 | X-H torsion
[ 8008 7997 7996 7995 ] final  -50.19 input   59.86 | X-H torsion
[ 10167 10162 10161 10158 ] final   -0.97 input  -65.29 | X-H torsion
[ 10718 10713 10712 10709 ] final -170.53 input   66.30 | X-H torsion
[ 10763 10752 10751 10750 ] final  -37.07 input  -60.55 | X-H torsion
[ 11005 11000 10999 10996 ] final   88.99 input  -57.11 | X-H torsion

> <Gold.Protein.ActiveResidues>
 VAL166  LYS551  ARG553  GLY616  TRP617  ASP618  TYR619  PRO620  LYS621  CYS622 
 ASP623  PHE694  ASN695  SER759  ASP760  ASP761  ALA762  ILE779  LEU786  VAL792 
 PHE793  MET794  SER795  GLU796  ALA797  LYS798  CYS799  TRP800  GLU811  SER814 

> <Gold.Protein.RotatedAtoms>
  151.7007  135.0930  160.0250 H   0  0  0  0  0  0  0  0  0  0  0  0  # atno 6907 bound_to 6896
  152.3722  133.6429  159.6104 H   0  0  0  0  0  0  0  0  0  0  0  0  # atno 6908 bound_to 6896
  150.7682  133.9168  159.3427 H   0  0  0  0  0  0  0  0  0  0  0  0  # atno 6909 bound_to 6896
  144.8292  139.6538  143.6066 H   0  0  0  0  0  0  0  0  0  0  0  0  # atno 7974 bound_to 7965
  154.4057  140.1278  156.4625 H   0  0  0  0  0  0  0  0  0  0  0  0  # atno 8008 bound_to 7997
  155.7259  140.3492  155.5017 H   0  0  0  0  0  0  0  0  0  0  0  0  # atno 8009 bound_to 7997
  155.9172  140.1046  157.1225 H   0  0  0  0  0  0  0  0  0  0  0  0  # atno 8010 bound_to 7997
  140.6790  143.6831  150.8089 H   0  0  0  0  0  0  0  0  0  0  0  0  # atno 10167 bound_to 10162
  156.7275  130.9293  151.3102 H   0  0  0  0  0  0  0  0  0  0  0  0  # atno 10718 bound_to 10713
  153.8902  135.6813  153.4761 H   0  0  0  0  0  0  0  0  0  0  0  0  # atno 10763 bound_to 10752
  153.1185  135.4750  154.9154 H   0  0  0  0  0  0  0  0  0  0  0  0  # atno 10764 bound_to 10752
  154.7626  135.3215  154.8301 H   0  0  0  0  0  0  0  0  0  0  0  0  # atno 10765 bound_to 10752
  139.8884  134.8523  156.3078 H   0  0  0  0  0  0  0  0  0  0  0  0  # atno 11005 bound_to 11000
  146.2596  139.6380  142.9371 LP  0  0  0  0  0  0  0  0  0  0  0  0  # atno 17320 bound_to 7965
  145.4932  141.0438  143.2581 LP  0  0  0  0  0  0  0  0  0  0  0  0  # atno 17321 bound_to 7965
  140.0529  143.5232  152.2665 LP  0  0  0  0  0  0  0  0  0  0  0  0  # atno 17342 bound_to 10162
  139.6100  144.7606  151.2973 LP  0  0  0  0  0  0  0  0  0  0  0  0  # atno 17343 bound_to 10162
  157.6873  130.9198  150.0419 LP  0  0  0  0  0  0  0  0  0  0  0  0  # atno 17370 bound_to 10713
  156.1552  130.3643  149.9380 LP  0  0  0  0  0  0  0  0  0  0  0  0  # atno 17371 bound_to 10713
  140.9870  133.7232  156.0757 LP  0  0  0  0  0  0  0  0  0  0  0  0  # atno 17394 bound_to 11000
  140.7675  134.3870  157.5514 LP  0  0  0  0  0  0  0  0  0  0  0  0  # atno 17395 bound_to 11000

$$$$
