AV-unprocessed.smi:573|AV-procd|sdf|2969|dock5
  -GOLD-   2262023473D 1   1.00000     0.00000
 Structure written by MMmdl.
 45 47  0  0  0  0  0  0  0  0  2 V2000
  147.1068  140.1126  153.5159 C   0  0  0  0  0  0  0  0  0  0  0  0
  147.6994  141.4740  153.9090 C   0  0  2  0  0  0  0  0  0  0  0  0
  148.9196  141.6449  153.2208 O   0  0  0  0  0  0  0  0  0  0  0  0
  147.9841  141.5989  155.4176 C   0  0  0  0  0  0  0  0  0  0  0  0
  149.1357  140.8148  155.8406 N   0  0  0  0  0  0  0  0  0  0  0  0
  150.0666  141.3778  156.7212 C   0  0  0  0  0  0  0  0  0  0  0  0
  150.1929  142.6986  157.0191 N   0  3  0  0  0  0  0  0  0  0  0  0
  151.2256  142.8425  157.9497 C   0  0  0  0  0  0  0  0  0  0  0  0
  151.7375  143.9798  158.5665 C   0  0  0  0  0  0  0  0  0  0  0  0
  152.7929  143.7839  159.4810 C   0  0  0  0  0  0  0  0  0  0  0  0
  153.2994  142.4967  159.7545 C   0  0  0  0  0  0  0  0  0  0  0  0
  152.7762  141.3494  159.1227 C   0  0  0  0  0  0  0  0  0  0  0  0
  151.7356  141.5485  158.2155 C   0  0  0  0  0  0  0  0  0  0  0  0
  150.9897  140.6686  157.4194 N   0  0  0  0  0  0  0  0  0  0  0  0
  151.2618  139.2245  157.4533 C   0  0  0  0  0  0  0  0  0  0  0  0
  151.9473  138.7363  156.1669 C   0  0  1  0  0  0  0  0  0  0  0  0
  150.9456  138.5632  155.0099 C   0  0  0  0  0  0  0  0  0  0  0  0
  151.6718  138.1325  153.7304 C   0  0  0  0  0  0  0  0  0  0  0  0
  152.8184  139.1051  153.4339 C   0  0  0  0  0  0  0  0  0  0  0  0
  153.7230  139.2590  154.6671 C   0  0  0  0  0  0  0  0  0  0  0  0
  152.9500  139.6775  155.7876 O   0  0  0  0  0  0  0  0  0  0  0  0
  146.1406  139.9495  153.9940 H   0  0  0  0  0  0  0  0  0  0  0  0
  147.7643  139.2929  153.8072 H   0  0  0  0  0  0  0  0  0  0  0  0
  146.9513  140.0480  152.4384 H   0  0  0  0  0  0  0  0  0  0  0  0
  147.0270  142.2690  153.5851 H   0  0  0  0  0  0  0  0  0  0  0  0
  148.9408  141.0464  152.4894 H   0  0  0  0  0  0  0  0  0  0  0  0
  148.1672  142.6423  155.6763 H   0  0  0  0  0  0  0  0  0  0  0  0
  147.1110  141.2912  155.9947 H   0  0  0  0  0  0  0  0  0  0  0  0
  149.0980  139.8104  155.7395 H   0  0  0  0  0  0  0  0  0  0  0  0
  151.3499  144.9670  158.3617 H   0  0  0  0  0  0  0  0  0  0  0  0
  153.2213  144.6383  159.9849 H   0  0  0  0  0  0  0  0  0  0  0  0
  154.1062  142.3862  160.4648 H   0  0  0  0  0  0  0  0  0  0  0  0
  153.1694  140.3689  159.3457 H   0  0  0  0  0  0  0  0  0  0  0  0
  151.9006  139.0313  158.3159 H   0  0  0  0  0  0  0  0  0  0  0  0
  150.3317  138.6862  157.6353 H   0  0  0  0  0  0  0  0  0  0  0  0
  152.4271  137.7777  156.3742 H   0  0  0  0  0  0  0  0  0  0  0  0
  150.1856  137.8269  155.2725 H   0  0  0  0  0  0  0  0  0  0  0  0
  150.4221  139.5038  154.8324 H   0  0  0  0  0  0  0  0  0  0  0  0
  152.0680  137.1236  153.8547 H   0  0  0  0  0  0  0  0  0  0  0  0
  150.9769  138.0959  152.8911 H   0  0  0  0  0  0  0  0  0  0  0  0
  153.3992  138.7547  152.5803 H   0  0  0  0  0  0  0  0  0  0  0  0
  152.4111  140.0783  153.1575 H   0  0  0  0  0  0  0  0  0  0  0  0
  154.2344  138.3224  154.8947 H   0  0  0  0  0  0  0  0  0  0  0  0
  154.4951  140.0039  154.4746 H   0  0  0  0  0  0  0  0  0  0  0  0
  149.6219  143.4339  156.6230 H   0  0  0  0  0  0  0  0  0  0  0  0
  1  2  1  0  0  0  0
  1 22  1  0  0  0  0
  1 23  1  0  0  0  0
  1 24  1  0  0  0  0
  2  3  1  0  0  0  0
  2  4  1  0  0  0  0
  2 25  1  0  0  0  0
  3 26  1  0  0  0  0
  4  5  1  0  0  0  0
  4 27  1  0  0  0  0
  4 28  1  0  0  0  0
  5  6  1  0  0  0  0
  5 29  1  0  0  0  0
  6 14  1  0  0  0  0
  6  7  2  0  0  0  0
  7  8  1  0  0  0  0
  7 45  1  0  0  0  0
  8 13  2  0  0  0  0
  8  9  1  0  0  0  0
  9 10  2  0  0  0  0
  9 30  1  0  0  0  0
 10 11  1  0  0  0  0
 10 31  1  0  0  0  0
 11 12  2  0  0  0  0
 11 32  1  0  0  0  0
 12 13  1  0  0  0  0
 12 33  1  0  0  0  0
 13 14  1  0  0  0  0
 14 15  1  0  0  0  0
 15 16  1  0  0  0  0
 15 34  1  0  0  0  0
 15 35  1  0  0  0  0
 16 21  1  0  0  0  0
 16 17  1  0  0  0  0
 16 36  1  0  0  0  0
 17 18  1  0  0  0  0
 17 37  1  0  0  0  0
 17 38  1  0  0  0  0
 18 19  1  0  0  0  0
 18 39  1  0  0  0  0
 18 40  1  0  0  0  0
 19 20  1  0  0  0  0
 19 41  1  0  0  0  0
 19 42  1  0  0  0  0
 20 21  1  0  0  0  0
 20 43  1  0  0  0  0
 20 44  1  0  0  0  0
M  CHG  1   7   1
M  END
> <s_m_source_file>
AV-unprocessed.smi

> <i_m_source_file_index>
573

> <i_lp_mmshare_version>
43012

> <i_f3d_flags>
0

> <s_epik_input>
W0NIM11bQ0BIXShbT0hdKVtDSDJdW05IXWMobjEpbihjKGMxMilbY0hdW2NIXVtjSF1bY0hdMilbQ0gyXVtDQEBIXTNbQ0gyXVtDSDJdW0NIMl1bQ0gyXU8z

> <s_epik_cmdline>
J2VwaWtfcHl0aG9uJywgJy1waCcsICc3LjAnLCAnLXRuJywgJzgnLCAnLW1hJywgJzIwMCcsICctbWV0YWxfYmluZGluZycsICctaW1hZScsICc8aW5maWxlLm1hZT4nLCAnLW9tYWUnLCAnPG91dGZpbGUubWFlPic=

> <r_epik_Ionization_Penalty>
0.0692245

> <r_epik_Ionization_Penalty_Charging>
0.0692223

> <r_epik_Ionization_Penalty_Neutral>
2.1869e-06

> <r_epik_State_Penalty>
0.0606215

> <r_epik_Charging_Adjusted_Penalty>
0.129844

> <i_epik_Tot_Q>
1

> <i_epik_Tot_abs_Q>
1

> <r_epik_Metal_State_Penalty>
2.77811

> <b_epik_Metal_Only>
0

> <s_lp_Force_Field>
OPLS_2005

> <r_lp_Energy>
19.2261

> <b_lp_Chiralities_Consistent>
1

> <s_lp_Variant>
AV-unprocessed.smi:573-3

> <Gold.Version>
5.8.1

> <Gold.Id.Protein>
6NUR|6NUR_protein|mol2

> <Gold.PLP.Fitness>
53.4113

> <Gold.PLP.PLP>
-42.6105

> <Gold.PLP.part.hbond>
-4.5894

> <Gold.PLP.part.metal>
0.0000

> <Gold.PLP.part.buried>
-2.7202

> <Gold.PLP.part.nonpolar>
-35.5062

> <Gold.PLP.part.repulsive>
0.0728

> <Gold.PLP.ligand.clash>
0.0000

> <Gold.PLP.ligand.torsion>
0.4863

> <Gold.PLP.Chemscore.Hbond>
3.9148

> <Gold.PLP.Chemscore.CHOScore>
0.0000

> <Gold.PLP.Chemscore.Metal>
0.0000

> <Gold.Chemscore.Hbonds>
donor molecule, donor type, donor heavy atom, donor atom, acceptor molecule, acceptor atom, score
      L1  H     3    26       P1  7957  1.00
      L1  H     7    45       P1  8028  2.00
      P1  H  8011  8017       L1     3  0.03

> <Gold.PLP.Chemscore.Internal.Correction>
0.0289

> <Gold.Rescore>
     Score         DG    S(hbond)    S(metal)    S(lipo)     H(rot)  DE(clash)    DE(int)     intcor
     19.18     -21.20       2.00        0.00     122.72       2.07       1.57       0.45       ----

> <Gold.Chemscore.Fitness>
19.1840

> <Gold.Chemscore.DG>
-21.2036

> <Gold.Chemscore.ZeroCoef>
-5.4800

> <Gold.Chemscore.Hbond>
1.9953

> <Gold.Chemscore.Metal>
0.0000

> <Gold.Chemscore.Lipo>
122.7210

> <Gold.Chemscore.Internal_Hbond>
0.0000

> <Gold.Chemscore.DEClash>
1.5683

> <Gold.Chemscore.DEInternal>
0.4513

> <Gold.Chemscore.Rot>
2.0699

> <Gold.Chemscore.Internal.Correction>
   9.000000E+99

> <Gold.Chemscore.Hbonds>
donor molecule, donor type, donor heavy atom, donor atom, acceptor molecule, acceptor atom, score
      L1  H     3    26       P1  7957  0.99
      L1  H     7    45       P1  8028  1.00

> <Gold.Chemscore.Hbond.Weighted>
-6.6643

> <Gold.Chemscore.Metal.Weighted>
-0.0000

> <Gold.Chemscore.Lipo.Weighted>
-14.3584

> <Gold.Chemscore.Internal_Hbond.Weighted>
0.0000

> <Gold.Chemscore.DEClash.Weighted>
1.5683

> <Gold.Chemscore.DEInternal.Weighted>
0.4513

> <Gold.Chemscore.Rot.Weighted>
5.2991

> <Gold.Chemscore.Internal.Correction.Weighted>
   9.000000E+99

> <Gold.Protein.RotatedTorsions>
[ 6907 6896 6895 6894 ] final    8.03 input  -60.11 | X-H torsion
[ 7974 7965 7964 7962 ] final   17.94 input  175.53 | X-H torsion
[ 8008 7997 7996 7995 ] final -125.75 input   59.86 | X-H torsion
[ 10167 10162 10161 10158 ] final -163.27 input  -65.29 | X-H torsion
[ 10718 10713 10712 10709 ] final  170.02 input   66.30 | X-H torsion
[ 10763 10752 10751 10750 ] final  -87.42 input  -60.55 | X-H torsion
[ 11005 11000 10999 10996 ] final -159.94 input  -57.11 | X-H torsion

> <Gold.Protein.ActiveResidues>
 VAL166  LYS551  ARG553  GLY616  TRP617  ASP618  TYR619  PRO620  LYS621  CYS622 
 ASP623  PHE694  ASN695  SER759  ASP760  ASP761  ALA762  ILE779  LEU786  VAL792 
 PHE793  MET794  SER795  GLU796  ALA797  LYS798  CYS799  TRP800  GLU811  SER814 

> <Gold.Protein.RotatedAtoms>
  151.6995  135.0932  160.0247 H   0  0  0  0  0  0  0  0  0  0  0  0  # atno 6907 bound_to 6896
  152.3729  133.6439  159.6110 H   0  0  0  0  0  0  0  0  0  0  0  0  # atno 6908 bound_to 6896
  150.7687  133.9157  159.3424 H   0  0  0  0  0  0  0  0  0  0  0  0  # atno 6909 bound_to 6896
  146.2202  139.8529  142.8619 H   0  0  0  0  0  0  0  0  0  0  0  0  # atno 7974 bound_to 7965
  155.2184  140.0421  157.2944 H   0  0  0  0  0  0  0  0  0  0  0  0  # atno 8008 bound_to 7997
  154.5966  140.2441  155.7819 H   0  0  0  0  0  0  0  0  0  0  0  0  # atno 8009 bound_to 7997
  156.2294  140.2943  156.0158 H   0  0  0  0  0  0  0  0  0  0  0  0  # atno 8010 bound_to 7997
  139.6333  144.0399  152.2033 H   0  0  0  0  0  0  0  0  0  0  0  0  # atno 10167 bound_to 10162
  157.0142  131.0213  151.2794 H   0  0  0  0  0  0  0  0  0  0  0  0  # atno 10718 bound_to 10713
  154.6334  135.5414  153.7706 H   0  0  0  0  0  0  0  0  0  0  0  0  # atno 10763 bound_to 10752
  153.0296  135.6441  154.1268 H   0  0  0  0  0  0  0  0  0  0  0  0  # atno 10764 bound_to 10752
  154.1196  135.2921  155.3191 H   0  0  0  0  0  0  0  0  0  0  0  0  # atno 10765 bound_to 10752
  140.6370  134.4591  157.5232 H   0  0  0  0  0  0  0  0  0  0  0  0  # atno 11005 bound_to 11000
  145.2783  141.0130  143.3732 LP  0  0  0  0  0  0  0  0  0  0  0  0  # atno 17320 bound_to 7965
  144.9170  139.4458  143.6559 LP  0  0  0  0  0  0  0  0  0  0  0  0  # atno 17321 bound_to 7965
  140.0069  144.6252  150.7680 LP  0  0  0  0  0  0  0  0  0  0  0  0  # atno 17342 bound_to 10162
  140.7451  143.2870  151.3434 LP  0  0  0  0  0  0  0  0  0  0  0  0  # atno 17343 bound_to 10162
  157.5298  130.8051  149.7903 LP  0  0  0  0  0  0  0  0  0  0  0  0  # atno 17370 bound_to 10713
  156.0125  130.3827  150.2218 LP  0  0  0  0  0  0  0  0  0  0  0  0  # atno 17371 bound_to 10713
  139.9094  134.8377  156.1583 LP  0  0  0  0  0  0  0  0  0  0  0  0  # atno 17394 bound_to 11000
  141.0634  133.6830  156.1998 LP  0  0  0  0  0  0  0  0  0  0  0  0  # atno 17395 bound_to 11000

$$$$
