AV-unprocessed.smi:1807|AV-procd|sdf|7303|dock1
  -GOLD-   22720 8563D 1   1.00000     0.00000
 Structure written by MMmdl.
 44 45  0  0  0  0  0  0  0  0  1 V2000
  149.3470  140.6345  154.4123 C   0  0  0  0  0  0  0  0  0  0  0  0
  149.8364  139.2457  154.8576 C   0  0  2  0  0  0  0  0  0  0  0  0
  150.9548  138.7174  153.9354 C   0  0  0  0  0  0  0  0  0  0  0  0
  151.4917  137.3610  154.4192 C   0  0  0  0  0  0  0  0  0  0  0  0
  150.3631  136.3278  154.5520 C   0  0  0  0  0  0  0  0  0  0  0  0
  149.2387  136.8447  155.4669 C   0  0  0  0  0  0  0  0  0  0  0  0
  148.6910  138.2104  155.0052 C   0  0  2  0  0  0  0  0  0  0  0  0
  147.9400  138.0446  153.7591 N   0  0  0  0  0  0  0  0  0  0  0  0
  146.6581  138.3822  153.5509 C   0  0  0  0  0  0  0  0  0  0  0  0
  145.9392  138.8856  154.4159 O   0  0  0  0  0  0  0  0  0  0  0  0
  146.1227  138.0949  152.1459 C   0  0  0  0  0  0  0  0  0  0  0  0
  146.5263  136.7818  151.6621 N   0  0  0  0  0  0  0  0  0  0  0  0
  145.5773  135.7593  151.5626 C   0  0  0  0  0  0  0  0  0  0  0  0
  144.2146  135.9545  151.9162 C   0  0  0  0  0  0  0  0  0  0  0  0
  143.6501  134.7360  151.6657 C   0  0  0  0  0  0  0  0  0  0  0  0
  144.6480  133.9030  151.1977 N   0  0  0  0  0  0  0  0  0  0  0  0
  144.5450  132.5141  150.7875 C   0  0  0  0  0  0  0  0  0  0  0  0
  145.8761  132.0025  150.2337 C   0  0  0  0  0  0  0  0  0  0  0  0
  146.8312  131.7040  151.1183 N   0  0  0  0  0  0  0  0  0  0  0  0
  146.0406  131.8779  149.0221 O   0  0  0  0  0  0  0  0  0  0  0  0
  145.8417  134.5339  151.1357 N   0  0  0  0  0  0  0  0  0  0  0  0
  148.9516  140.6179  153.3964 H   0  0  0  0  0  0  0  0  0  0  0  0
  150.1605  141.3597  154.4349 H   0  0  0  0  0  0  0  0  0  0  0  0
  148.5601  141.0030  155.0710 H   0  0  0  0  0  0  0  0  0  0  0  0
  150.2744  139.3762  155.8484 H   0  0  0  0  0  0  0  0  0  0  0  0
  150.5816  138.6198  152.9151 H   0  0  0  0  0  0  0  0  0  0  0  0
  151.7733  139.4367  153.8934 H   0  0  0  0  0  0  0  0  0  0  0  0
  152.2515  136.9940  153.7285 H   0  0  0  0  0  0  0  0  0  0  0  0
  151.9857  137.4877  155.3833 H   0  0  0  0  0  0  0  0  0  0  0  0
  149.9611  136.0964  153.5650 H   0  0  0  0  0  0  0  0  0  0  0  0
  150.7611  135.3928  154.9469 H   0  0  0  0  0  0  0  0  0  0  0  0
  148.4323  136.1119  155.5178 H   0  0  0  0  0  0  0  0  0  0  0  0
  149.6238  136.9401  156.4828 H   0  0  0  0  0  0  0  0  0  0  0  0
  148.0145  138.5642  155.7853 H   0  0  0  0  0  0  0  0  0  0  0  0
  148.4436  137.6369  152.9845 H   0  0  0  0  0  0  0  0  0  0  0  0
  145.0333  138.1590  152.1584 H   0  0  0  0  0  0  0  0  0  0  0  0
  146.4905  138.8627  151.4641 H   0  0  0  0  0  0  0  0  0  0  0  0
  147.5037  136.6013  151.4819 H   0  0  0  0  0  0  0  0  0  0  0  0
  143.7282  136.8436  152.2892 H   0  0  0  0  0  0  0  0  0  0  0  0
  142.6312  134.3959  151.7776 H   0  0  0  0  0  0  0  0  0  0  0  0
  144.2414  131.9051  151.6408 H   0  0  0  0  0  0  0  0  0  0  0  0
  143.7594  132.4250  150.0358 H   0  0  0  0  0  0  0  0  0  0  0  0
  147.7257  131.3596  150.8011 H   0  0  0  0  0  0  0  0  0  0  0  0
  146.6522  131.8215  152.1052 H   0  0  0  0  0  0  0  0  0  0  0  0
  1  2  1  0  0  0  0
  1 22  1  0  0  0  0
  1 23  1  0  0  0  0
  1 24  1  0  0  0  0
  2  7  1  0  0  0  0
  2  3  1  0  0  0  0
  2 25  1  0  0  0  0
  3  4  1  0  0  0  0
  3 26  1  0  0  0  0
  3 27  1  0  0  0  0
  4  5  1  0  0  0  0
  4 28  1  0  0  0  0
  4 29  1  0  0  0  0
  5  6  1  0  0  0  0
  5 30  1  0  0  0  0
  5 31  1  0  0  0  0
  6  7  1  0  0  0  0
  6 32  1  0  0  0  0
  6 33  1  0  0  0  0
  7  8  1  0  0  0  0
  7 34  1  0  0  0  0
  8  9  1  0  0  0  0
  8 35  1  0  0  0  0
  9 10  2  0  0  0  0
  9 11  1  0  0  0  0
 11 12  1  0  0  0  0
 11 36  1  0  0  0  0
 11 37  1  0  0  0  0
 12 13  1  0  0  0  0
 12 38  1  0  0  0  0
 13 21  2  0  0  0  0
 13 14  1  0  0  0  0
 14 15  2  0  0  0  0
 14 39  1  0  0  0  0
 15 16  1  0  0  0  0
 15 40  1  0  0  0  0
 16 17  1  0  0  0  0
 16 21  1  0  0  0  0
 17 18  1  0  0  0  0
 17 41  1  0  0  0  0
 17 42  1  0  0  0  0
 18 19  1  0  0  0  0
 18 20  2  0  0  0  0
 19 43  1  0  0  0  0
 19 44  1  0  0  0  0
M  END
> <s_m_source_file>
AV-unprocessed.smi

> <i_m_source_file_index>
1807

> <i_lp_mmshare_version>
43012

> <i_f3d_flags>
0

> <s_epik_input>
W0NIM11bQ0BASF0xW0NIMl1bQ0gyXVtDSDJdW0NIMl1bQ0BIXTFbTkhdQyg9TylbQ0gyXVtOSF1jMltjSF1bY0hdbihuMilbQ0gyXUMoPU8pW05IMl0=

> <s_epik_cmdline>
J2VwaWtfcHl0aG9uJywgJy1waCcsICc3LjAnLCAnLXRuJywgJzgnLCAnLW1hJywgJzIwMCcsICctbWV0YWxfYmluZGluZycsICctaW1hZScsICc8aW5maWxlLm1hZT4nLCAnLW9tYWUnLCAnPG91dGZpbGUubWFlPic=

> <r_lp_tautomer_probability>
1

> <r_epik_Ionization_Penalty>
0.000167642

> <r_epik_Ionization_Penalty_Charging>
0

> <r_epik_Ionization_Penalty_Neutral>
0.000167642

> <r_epik_State_Penalty>
-0

> <r_epik_Charging_Adjusted_Penalty>
0

> <i_epik_Tot_Q>
0

> <i_epik_Tot_abs_Q>
0

> <r_epik_Metal_State_Penalty>
-0

> <b_epik_Metal_Only>
0

> <s_lp_Force_Field>
OPLS_2005

> <r_lp_Energy>
5.83979

> <b_lp_Chiralities_Consistent>
1

> <s_lp_Variant>
AV-unprocessed.smi:1807-3

> <Gold.Version>
5.8.1

> <Gold.Id.Protein>
6NUR|6NUR_protein|mol2

> <Gold.PLP.Fitness>
43.1537

> <Gold.PLP.PLP>
-34.1283

> <Gold.PLP.part.hbond>
-2.7837

> <Gold.PLP.part.metal>
0.0000

> <Gold.PLP.part.buried>
-4.4249

> <Gold.PLP.part.nonpolar>
-27.8366

> <Gold.PLP.part.repulsive>
0.6763

> <Gold.PLP.ligand.clash>
0.0000

> <Gold.PLP.ligand.torsion>
0.5332

> <Gold.PLP.Chemscore.Hbond>
2.8938

> <Gold.PLP.Chemscore.CHOScore>
0.4512

> <Gold.PLP.Chemscore.Metal>
0.0000

> <Gold.Chemscore.Hbonds>
donor molecule, donor type, donor heavy atom, donor atom, acceptor molecule, acceptor atom, score
      L1  H     8    35       P1  7948  1.00
      L1  H    12    38       P1  7948  0.94
      L1  H    19    43       P1 10747  0.80
      L1  C    15    40       P1 10186  0.17

> <Gold.PLP.Chemscore.Internal.Correction>
0.0569

> <Gold.Rescore>
     Score         DG    S(hbond)    S(metal)    S(lipo)     H(rot)  DE(clash)    DE(int)     intcor
     15.48     -16.34       2.97        0.00      65.69       2.64       0.24       0.62       ----

> <Gold.Chemscore.Fitness>
15.4783

> <Gold.Chemscore.DG>
-16.3428

> <Gold.Chemscore.ZeroCoef>
-5.4800

> <Gold.Chemscore.Hbond>
2.9722

> <Gold.Chemscore.Metal>
0.0000

> <Gold.Chemscore.Lipo>
65.6929

> <Gold.Chemscore.Internal_Hbond>
0.0000

> <Gold.Chemscore.DEClash>
0.2411

> <Gold.Chemscore.DEInternal>
0.6234

> <Gold.Chemscore.Rot>
2.6369

> <Gold.Chemscore.Internal.Correction>
   9.000000E+99

> <Gold.Chemscore.Hbonds>
donor molecule, donor type, donor heavy atom, donor atom, acceptor molecule, acceptor atom, score
      L1  H     8    35       P1  7948  0.98
      L1  H    12    38       P1  7948  0.89
      L1  H    19    43       P1 10747  0.79

> <Gold.Chemscore.Hbond.Weighted>
-9.9271

> <Gold.Chemscore.Metal.Weighted>
-0.0000

> <Gold.Chemscore.Lipo.Weighted>
-7.6861

> <Gold.Chemscore.Internal_Hbond.Weighted>
0.0000

> <Gold.Chemscore.DEClash.Weighted>
0.2411

> <Gold.Chemscore.DEInternal.Weighted>
0.6234

> <Gold.Chemscore.Rot.Weighted>
6.7504

> <Gold.Chemscore.Internal.Correction.Weighted>
   9.000000E+99

> <Gold.Protein.RotatedTorsions>
[ 6907 6896 6895 6894 ] final  170.89 input  -60.11 | X-H torsion
[ 7974 7965 7964 7962 ] final  -34.82 input  175.53 | X-H torsion
[ 8008 7997 7996 7995 ] final   91.28 input   59.86 | X-H torsion
[ 10167 10162 10161 10158 ] final   39.89 input  -65.29 | X-H torsion
[ 10718 10713 10712 10709 ] final  -65.61 input   66.30 | X-H torsion
[ 10763 10752 10751 10750 ] final   58.53 input  -60.55 | X-H torsion
[ 11005 11000 10999 10996 ] final   -3.22 input  -57.11 | X-H torsion

> <Gold.Protein.ActiveResidues>
 VAL166  LYS551  ARG553  GLY616  TRP617  ASP618  TYR619  PRO620  LYS621  CYS622 
 ASP623  PHE694  ASN695  SER759  ASP760  ASP761  ALA762  ILE779  LEU786  VAL792 
 PHE793  MET794  SER795  GLU796  ALA797  LYS798  CYS799  TRP800  GLU811  SER814 

> <Gold.Protein.RotatedAtoms>
  151.8090  133.3379  159.3549 H   0  0  0  0  0  0  0  0  0  0  0  0  # atno 6907 bound_to 6896
  150.7332  134.5682  159.5886 H   0  0  0  0  0  0  0  0  0  0  0  0  # atno 6908 bound_to 6896
  152.3089  134.7523  160.0392 H   0  0  0  0  0  0  0  0  0  0  0  0  # atno 6909 bound_to 6896
  146.0798  140.6085  142.8914 H   0  0  0  0  0  0  0  0  0  0  0  0  # atno 7974 bound_to 7965
  156.0219  140.3339  155.7048 H   0  0  0  0  0  0  0  0  0  0  0  0  # atno 8008 bound_to 7997
  155.6010  140.0655  157.2750 H   0  0  0  0  0  0  0  0  0  0  0  0  # atno 8009 bound_to 7997
  154.4319  140.1810  156.1161 H   0  0  0  0  0  0  0  0  0  0  0  0  # atno 8010 bound_to 7997
  140.3796  144.1998  150.6131 H   0  0  0  0  0  0  0  0  0  0  0  0  # atno 10167 bound_to 10162
  156.0659  130.4250  150.1589 H   0  0  0  0  0  0  0  0  0  0  0  0  # atno 10718 bound_to 10713
  152.9873  135.5603  154.5566 H   0  0  0  0  0  0  0  0  0  0  0  0  # atno 10763 bound_to 10752
  154.4993  135.2796  155.1436 H   0  0  0  0  0  0  0  0  0  0  0  0  # atno 10764 bound_to 10752
  154.2873  135.6333  153.5424 H   0  0  0  0  0  0  0  0  0  0  0  0  # atno 10765 bound_to 10752
  140.6670  133.9270  155.8471 H   0  0  0  0  0  0  0  0  0  0  0  0  # atno 11005 bound_to 11000
  144.7285  140.4600  143.6955 LP  0  0  0  0  0  0  0  0  0  0  0  0  # atno 17320 bound_to 7965
  145.6239  139.1527  143.3007 LP  0  0  0  0  0  0  0  0  0  0  0  0  # atno 17321 bound_to 7965
  140.4951  143.2335  151.8761 LP  0  0  0  0  0  0  0  0  0  0  0  0  # atno 17342 bound_to 10162
  139.4796  144.5122  151.8917 LP  0  0  0  0  0  0  0  0  0  0  0  0  # atno 17343 bound_to 10162
  156.9649  130.9816  151.3471 LP  0  0  0  0  0  0  0  0  0  0  0  0  # atno 17370 bound_to 10713
  157.5701  130.8304  149.8379 LP  0  0  0  0  0  0  0  0  0  0  0  0  # atno 17371 bound_to 10713
  141.0422  134.0605  157.3888 LP  0  0  0  0  0  0  0  0  0  0  0  0  # atno 17394 bound_to 11000
  139.8994  135.0158  156.7194 LP  0  0  0  0  0  0  0  0  0  0  0  0  # atno 17395 bound_to 11000

$$$$
