AV-unprocessed.smi:76|AV-procd|sdf|768|dock3
  -GOLD-   2262017113D 1   1.00000     0.00000
 Structure written by MMmdl.
 55 58  0  0  0  0  0  0  0  0  1 V2000
  153.0358  139.4005  157.9146 C   0  0  0  0  0  0  0  0  0  0  0  0
  151.9148  140.4600  157.8789 C   0  0  1  0  0  0  0  0  0  0  0  0
  152.4625  141.8178  158.3668 C   0  0  0  0  0  0  0  0  0  0  0  0
  151.3882  142.9225  158.3263 C   0  0  1  0  0  0  0  0  0  0  0  0
  151.9273  144.2815  158.8160 C   0  0  0  0  0  0  0  0  0  0  0  0
  150.9356  145.1596  158.9690 F   0  0  0  0  0  0  0  0  0  0  0  0
  152.5518  144.1285  159.9836 F   0  0  0  0  0  0  0  0  0  0  0  0
  152.8026  144.7684  157.9366 F   0  0  0  0  0  0  0  0  0  0  0  0
  150.8102  143.0038  156.9014 C   0  0  0  0  0  0  0  0  0  0  0  0
  150.2793  141.6373  156.4462 C   0  0  0  0  0  0  0  0  0  0  0  0
  151.3134  140.6095  156.5459 N   0  0  0  0  0  0  0  0  0  0  0  0
  150.9144  139.4639  155.9499 C   0  0  0  0  0  0  0  0  0  0  0  0
  151.5020  139.1430  154.7715 N   0  0  0  0  0  0  0  0  0  0  0  0
  151.1593  138.0156  154.1411 C   0  0  0  0  0  0  0  0  0  0  0  0
  150.2664  137.0932  154.5068 N   0  0  0  0  0  0  0  0  0  0  0  0
  149.6631  137.4219  155.6852 C   0  0  0  0  0  0  0  0  0  0  0  0
  149.9283  138.5787  156.4702 C   0  0  0  0  0  0  0  0  0  0  0  0
  149.1330  138.5723  157.6090 N   0  0  0  0  0  0  0  0  0  0  0  0
  148.4401  137.4716  157.5052 C   0  0  0  0  0  0  0  0  0  0  0  0
  148.6805  136.7277  156.3710 N   0  0  0  0  0  0  0  0  0  0  0  0
  148.0544  135.4632  156.0089 C   0  0  0  0  0  0  0  0  0  0  0  0
  148.8890  134.1878  156.3512 C   0  0  0  0  0  0  0  0  0  0  0  0
  149.3585  134.2136  157.8301 C   0  0  0  0  0  0  0  0  0  0  0  0
  150.1902  133.1160  158.1492 O   0  0  0  0  0  0  0  0  0  0  0  0
  148.0426  132.9138  156.1035 C   0  0  0  0  0  0  0  0  0  0  0  0
  147.8117  132.6286  154.6073 C   0  0  0  0  0  0  0  0  0  0  0  0
  149.0569  132.5415  153.9259 O   0  0  0  0  0  0  0  0  0  0  0  0
  149.8114  133.7449  153.9939 C   0  0  0  0  0  0  0  0  0  0  0  0
  150.1510  134.0611  155.4609 C   0  0  0  0  0  0  0  0  0  0  0  0
  153.4938  139.3512  158.9027 H   0  0  0  0  0  0  0  0  0  0  0  0
  153.8225  139.6327  157.1958 H   0  0  0  0  0  0  0  0  0  0  0  0
  152.6619  138.4014  157.6897 H   0  0  0  0  0  0  0  0  0  0  0  0
  151.1316  140.1504  158.5716 H   0  0  0  0  0  0  0  0  0  0  0  0
  152.8453  141.7128  159.3825 H   0  0  0  0  0  0  0  0  0  0  0  0
  153.3113  142.1127  157.7481 H   0  0  0  0  0  0  0  0  0  0  0  0
  150.5807  142.6272  158.9982 H   0  0  0  0  0  0  0  0  0  0  0  0
  150.0060  143.7387  156.8598 H   0  0  0  0  0  0  0  0  0  0  0  0
  151.5791  143.3451  156.2068 H   0  0  0  0  0  0  0  0  0  0  0  0
  149.4225  141.3543  157.0595 H   0  0  0  0  0  0  0  0  0  0  0  0
  149.9237  141.7085  155.4170 H   0  0  0  0  0  0  0  0  0  0  0  0
  151.6745  137.8254  153.2109 H   0  0  0  0  0  0  0  0  0  0  0  0
  147.7238  137.1739  158.2571 H   0  0  0  0  0  0  0  0  0  0  0  0
  147.0821  135.4169  156.5005 H   0  0  0  0  0  0  0  0  0  0  0  0
  147.8299  135.5103  154.9443 H   0  0  0  0  0  0  0  0  0  0  0  0
  149.9218  135.1245  158.0363 H   0  0  0  0  0  0  0  0  0  0  0  0
  148.5090  134.2202  158.5133 H   0  0  0  0  0  0  0  0  0  0  0  0
  149.6405  132.3822  158.3809 H   0  0  0  0  0  0  0  0  0  0  0  0
  148.5494  132.0506  156.5376 H   0  0  0  0  0  0  0  0  0  0  0  0
  147.0820  132.9859  156.6145 H   0  0  0  0  0  0  0  0  0  0  0  0
  147.2871  131.6802  154.4901 H   0  0  0  0  0  0  0  0  0  0  0  0
  147.1822  133.3891  154.1449 H   0  0  0  0  0  0  0  0  0  0  0  0
  150.7300  133.6112  153.4227 H   0  0  0  0  0  0  0  0  0  0  0  0
  149.2660  134.5613  153.5202 H   0  0  0  0  0  0  0  0  0  0  0  0
  150.7705  134.9550  155.5218 H   0  0  0  0  0  0  0  0  0  0  0  0
  150.7779  133.2506  155.8361 H   0  0  0  0  0  0  0  0  0  0  0  0
  1  2  1  0  0  0  0
  1 30  1  0  0  0  0
  1 31  1  0  0  0  0
  1 32  1  0  0  0  0
  2 11  1  0  0  0  0
  2  3  1  0  0  0  0
  2 33  1  0  0  0  0
  3  4  1  0  0  0  0
  3 34  1  0  0  0  0
  3 35  1  0  0  0  0
  4  5  1  0  0  0  0
  4  9  1  0  0  0  0
  4 36  1  0  0  0  0
  5  6  1  0  0  0  0
  5  7  1  0  0  0  0
  5  8  1  0  0  0  0
  9 10  1  0  0  0  0
  9 37  1  0  0  0  0
  9 38  1  0  0  0  0
 10 11  1  0  0  0  0
 10 39  1  0  0  0  0
 10 40  1  0  0  0  0
 11 12  1  0  0  0  0
 12 17  1  0  0  0  0
 12 13  2  0  0  0  0
 13 14  1  0  0  0  0
 14 15  2  0  0  0  0
 14 41  1  0  0  0  0
 15 16  1  0  0  0  0
 16 20  1  0  0  0  0
 16 17  2  0  0  0  0
 17 18  1  0  0  0  0
 18 19  2  0  0  0  0
 19 20  1  0  0  0  0
 19 42  1  0  0  0  0
 20 21  1  0  0  0  0
 21 22  1  0  0  0  0
 21 43  1  0  0  0  0
 21 44  1  0  0  0  0
 22 29  1  0  0  0  0
 22 23  1  0  0  0  0
 22 25  1  0  0  0  0
 23 24  1  0  0  0  0
 23 45  1  0  0  0  0
 23 46  1  0  0  0  0
 24 47  1  0  0  0  0
 25 26  1  0  0  0  0
 25 48  1  0  0  0  0
 25 49  1  0  0  0  0
 26 27  1  0  0  0  0
 26 50  1  0  0  0  0
 26 51  1  0  0  0  0
 27 28  1  0  0  0  0
 28 29  1  0  0  0  0
 28 52  1  0  0  0  0
 28 53  1  0  0  0  0
 29 54  1  0  0  0  0
 29 55  1  0  0  0  0
M  END
> <s_m_source_file>
AV-unprocessed.smi

> <i_m_source_file_index>
76

> <i_lp_mmshare_version>
43012

> <i_f3d_flags>
0

> <s_epik_input>
W0NIM11bQ0BASF0xW0NIMl1bQ0BASF0oQyhGKShGKUYpW0NIMl1bQ0gyXU4xYyhuW2NIXW4yKWMoYzIzKW5bY0hdbjNbQ0gyXUM0KFtDSDJdW09IXSlbQ0gyXVtDSDJdT1tDSDJdW0NIMl00

> <s_epik_cmdline>
J2VwaWtfcHl0aG9uJywgJy1waCcsICc3LjAnLCAnLXRuJywgJzgnLCAnLW1hJywgJzIwMCcsICctbWV0YWxfYmluZGluZycsICctaW1hZScsICc8aW5maWxlLm1hZT4nLCAnLW9tYWUnLCAnPG91dGZpbGUubWFlPic=

> <r_lp_tautomer_probability>
1

> <r_epik_Ionization_Penalty>
0.00244097

> <r_epik_Ionization_Penalty_Charging>
0

> <r_epik_Ionization_Penalty_Neutral>
0.00244097

> <r_epik_State_Penalty>
0.00151846

> <r_epik_Charging_Adjusted_Penalty>
0.00151846

> <i_epik_Tot_Q>
0

> <i_epik_Tot_abs_Q>
0

> <r_epik_Metal_State_Penalty>
-0

> <b_epik_Metal_Only>
0

> <s_lp_Force_Field>
OPLS_2005

> <r_lp_Energy>
36.6064

> <b_lp_Chiralities_Consistent>
1

> <s_lp_Variant>
AV-unprocessed.smi:76-2

> <Gold.Version>
5.8.1

> <Gold.Id.Protein>
6NUR|6NUR_protein|mol2

> <Gold.PLP.Fitness>
46.5642

> <Gold.PLP.PLP>
-39.7999

> <Gold.PLP.part.hbond>
-1.7856

> <Gold.PLP.part.metal>
0.0000

> <Gold.PLP.part.buried>
-3.3179

> <Gold.PLP.part.nonpolar>
-34.5619

> <Gold.PLP.part.repulsive>
1.6406

> <Gold.PLP.ligand.clash>
0.0000

> <Gold.PLP.ligand.torsion>
0.6135

> <Gold.PLP.Chemscore.Hbond>
1.7475

> <Gold.PLP.Chemscore.CHOScore>
0.8394

> <Gold.PLP.Chemscore.Metal>
0.0000

> <Gold.Chemscore.Hbonds>
donor molecule, donor type, donor heavy atom, donor atom, acceptor molecule, acceptor atom, score
      P1  H  6896  6909       L1    24  0.71
      P1  H  7989  7998       L1    13  0.73
      L1  C    14    41       P1  7949  0.88

> <Gold.PLP.Chemscore.Internal.Correction>
0.2305

> <Gold.Rescore>
     Score         DG    S(hbond)    S(metal)    S(lipo)     H(rot)  DE(clash)    DE(int)     intcor
     11.39     -12.02       0.89        0.00      84.36       2.47       0.12       0.52       ----

> <Gold.Chemscore.Fitness>
11.3898

> <Gold.Chemscore.DG>
-12.0235

> <Gold.Chemscore.ZeroCoef>
-5.4800

> <Gold.Chemscore.Hbond>
0.8944

> <Gold.Chemscore.Metal>
0.0000

> <Gold.Chemscore.Lipo>
84.3635

> <Gold.Chemscore.Internal_Hbond>
0.0000

> <Gold.Chemscore.DEClash>
0.1155

> <Gold.Chemscore.DEInternal>
0.5182

> <Gold.Chemscore.Rot>
2.4665

> <Gold.Chemscore.Internal.Correction>
   9.000000E+99

> <Gold.Chemscore.Hbonds>
donor molecule, donor type, donor heavy atom, donor atom, acceptor molecule, acceptor atom, score
      P1  H  6896  6909       L1    24  0.36
      P1  H  7989  7998       L1    13  0.50

> <Gold.Chemscore.Hbond.Weighted>
-2.9872

> <Gold.Chemscore.Metal.Weighted>
-0.0000

> <Gold.Chemscore.Lipo.Weighted>
-9.8705

> <Gold.Chemscore.Internal_Hbond.Weighted>
0.0000

> <Gold.Chemscore.DEClash.Weighted>
0.1155

> <Gold.Chemscore.DEInternal.Weighted>
0.5182

> <Gold.Chemscore.Rot.Weighted>
6.3142

> <Gold.Chemscore.Internal.Correction.Weighted>
   9.000000E+99

> <Gold.Protein.RotatedTorsions>
[ 6907 6896 6895 6894 ] final  -21.79 input  -60.11 | X-H torsion
[ 7974 7965 7964 7962 ] final   55.66 input  175.53 | X-H torsion
[ 8008 7997 7996 7995 ] final  131.37 input   59.86 | X-H torsion
[ 10167 10162 10161 10158 ] final -109.09 input  -65.29 | X-H torsion
[ 10718 10713 10712 10709 ] final   98.09 input   66.30 | X-H torsion
[ 10763 10752 10751 10750 ] final -100.03 input  -60.55 | X-H torsion
[ 11005 11000 10999 10996 ] final -122.73 input  -57.11 | X-H torsion

> <Gold.Protein.ActiveResidues>
 VAL166  LYS551  ARG553  GLY616  TRP617  ASP618  TYR619  PRO620  LYS621  CYS622 
 ASP623  PHE694  ASN695  SER759  ASP760  ASP761  ALA762  ILE779  LEU786  VAL792 
 PHE793  MET794  SER795  GLU796  ALA797  LYS798  CYS799  TRP800  GLU811  SER814 

> <Gold.Protein.RotatedAtoms>
  151.2281  135.0544  159.8976 H   0  0  0  0  0  0  0  0  0  0  0  0  # atno 6907 bound_to 6896
  152.5408  134.0567  159.8144 H   0  0  0  0  0  0  0  0  0  0  0  0  # atno 6908 bound_to 6896
  151.0743  133.5392  159.2656 H   0  0  0  0  0  0  0  0  0  0  0  0  # atno 6909 bound_to 6896
  145.9480  139.3947  143.0323 H   0  0  0  0  0  0  0  0  0  0  0  0  # atno 7974 bound_to 7965
  156.2969  140.2573  156.2915 H   0  0  0  0  0  0  0  0  0  0  0  0  # atno 8008 bound_to 7997
  154.9505  140.0394  157.2160 H   0  0  0  0  0  0  0  0  0  0  0  0  # atno 8009 bound_to 7997
  154.8041  140.2833  155.5905 H   0  0  0  0  0  0  0  0  0  0  0  0  # atno 8010 bound_to 7997
  140.1590  143.4136  152.1439 H   0  0  0  0  0  0  0  0  0  0  0  0  # atno 10167 bound_to 10162
  157.6901  131.0629  150.4744 H   0  0  0  0  0  0  0  0  0  0  0  0  # atno 10718 bound_to 10713
  154.7546  135.4950  153.9352 H   0  0  0  0  0  0  0  0  0  0  0  0  # atno 10763 bound_to 10752
  153.1182  135.6725  153.9389 H   0  0  0  0  0  0  0  0  0  0  0  0  # atno 10764 bound_to 10752
  153.9129  135.3097  155.3427 H   0  0  0  0  0  0  0  0  0  0  0  0  # atno 10765 bound_to 10752
  140.9973  134.0453  157.3581 H   0  0  0  0  0  0  0  0  0  0  0  0  # atno 11005 bound_to 11000
  145.8210  140.9679  143.0899 LP  0  0  0  0  0  0  0  0  0  0  0  0  # atno 17320 bound_to 7965
  144.6790  140.0041  143.7484 LP  0  0  0  0  0  0  0  0  0  0  0  0  # atno 17321 bound_to 7965
  139.5390  144.7238  151.4797 LP  0  0  0  0  0  0  0  0  0  0  0  0  # atno 17342 bound_to 10162
  140.6655  143.8408  150.6936 LP  0  0  0  0  0  0  0  0  0  0  0  0  # atno 17343 bound_to 10162
  156.5079  130.4132  149.6317 LP  0  0  0  0  0  0  0  0  0  0  0  0  # atno 17370 bound_to 10713
  156.3267  130.7310  151.2232 LP  0  0  0  0  0  0  0  0  0  0  0  0  # atno 17371 bound_to 10713
  139.9021  135.0168  156.7317 LP  0  0  0  0  0  0  0  0  0  0  0  0  # atno 17394 bound_to 11000
  140.6945  133.9361  155.7986 LP  0  0  0  0  0  0  0  0  0  0  0  0  # atno 17395 bound_to 11000

$$$$
