AV-unprocessed.smi:2813|AV-procd|sdf|10837|dock2
  -GOLD-   2272015273D 1   1.00000     0.00000
 Structure written by MMmdl.
 41 42  0  0  0  0  0  0  0  0  1 V2000
  152.3490  143.7826  160.5578 C   0  0  0  0  0  0  0  0  0  0  0  0
  152.5238  142.4327  159.8852 C   0  0  0  0  0  0  0  0  0  0  0  0
  153.4021  141.5502  160.5211 N   0  0  0  0  0  0  0  0  0  0  0  0
  153.6196  140.3805  160.0150 C   0  0  0  0  0  0  0  0  0  0  0  0
  152.9959  139.9629  158.8283 N   0  0  0  0  0  0  0  0  0  0  0  0
  153.3346  138.6114  158.3542 C   0  0  0  0  0  0  0  0  0  0  0  0
  152.6473  137.5128  159.1970 C   0  0  2  0  0  0  0  0  0  0  0  0
  153.4061  136.3241  159.0986 O   0  0  0  0  0  0  0  0  0  0  0  0
  151.2308  137.1924  158.6956 C   0  0  0  0  0  0  0  0  0  0  0  0
  150.7136  136.1115  159.4604 O   0  0  0  0  0  0  0  0  0  0  0  0
  149.4340  136.2146  159.9607 C   0  0  0  0  0  0  0  0  0  0  0  0
  148.5215  136.9934  159.2214 C   0  0  0  0  0  0  0  0  0  0  0  0
  147.1929  137.1512  159.6569 C   0  0  0  0  0  0  0  0  0  0  0  0
  146.7620  136.5304  160.8438 C   0  0  0  0  0  0  0  0  0  0  0  0
  147.6613  135.7499  161.6018 C   0  0  0  0  0  0  0  0  0  0  0  0
  147.2196  135.0671  162.8877 C   0  0  0  0  0  0  0  0  0  0  0  0
  147.9969  135.4617  163.8963 F   0  0  0  0  0  0  0  0  0  0  0  0
  145.9542  135.3537  163.1957 F   0  0  0  0  0  0  0  0  0  0  0  0
  147.3346  133.7467  162.7489 F   0  0  0  0  0  0  0  0  0  0  0  0
  148.9915  135.5937  161.1560 C   0  0  0  0  0  0  0  0  0  0  0  0
  152.1094  140.7525  158.1555 C   0  0  0  0  0  0  0  0  0  0  0  0
  151.5472  140.3647  157.1293 O   0  0  0  0  0  0  0  0  0  0  0  0
  151.8777  142.0840  158.7390 C   0  0  0  0  0  0  0  0  0  0  0  0
  150.9091  143.0023  158.0041 C   0  0  0  0  0  0  0  0  0  0  0  0
  152.6700  144.5840  159.8920 H   0  0  0  0  0  0  0  0  0  0  0  0
  152.9400  143.8512  161.4723 H   0  0  0  0  0  0  0  0  0  0  0  0
  151.3041  143.9459  160.8228 H   0  0  0  0  0  0  0  0  0  0  0  0
  154.2909  139.6528  160.4745 H   0  0  0  0  0  0  0  0  0  0  0  0
  153.0170  138.5288  157.3130 H   0  0  0  0  0  0  0  0  0  0  0  0
  154.4134  138.4475  158.3100 H   0  0  0  0  0  0  0  0  0  0  0  0
  152.5899  137.7997  160.2480 H   0  0  0  0  0  0  0  0  0  0  0  0
  154.1215  136.4721  158.4991 H   0  0  0  0  0  0  0  0  0  0  0  0
  150.5913  138.0726  158.7846 H   0  0  0  0  0  0  0  0  0  0  0  0
  151.2685  136.9040  157.6435 H   0  0  0  0  0  0  0  0  0  0  0  0
  148.8437  137.4731  158.3086 H   0  0  0  0  0  0  0  0  0  0  0  0
  146.5032  137.7488  159.0792 H   0  0  0  0  0  0  0  0  0  0  0  0
  145.7385  136.6592  161.1635 H   0  0  0  0  0  0  0  0  0  0  0  0
  149.6575  134.9896  161.7527 H   0  0  0  0  0  0  0  0  0  0  0  0
  149.9163  142.5525  157.9716 H   0  0  0  0  0  0  0  0  0  0  0  0
  151.2439  143.1585  156.9780 H   0  0  0  0  0  0  0  0  0  0  0  0
  150.8107  143.9827  158.4676 H   0  0  0  0  0  0  0  0  0  0  0  0
  1  2  1  0  0  0  0
  1 25  1  0  0  0  0
  1 26  1  0  0  0  0
  1 27  1  0  0  0  0
  2 23  2  0  0  0  0
  2  3  1  0  0  0  0
  3  4  2  0  0  0  0
  4  5  1  0  0  0  0
  4 28  1  0  0  0  0
  5  6  1  0  0  0  0
  5 21  1  0  0  0  0
  6  7  1  0  0  0  0
  6 29  1  0  0  0  0
  6 30  1  0  0  0  0
  7  8  1  0  0  0  0
  7  9  1  0  0  0  0
  7 31  1  0  0  0  0
  8 32  1  0  0  0  0
  9 10  1  0  0  0  0
  9 33  1  0  0  0  0
  9 34  1  0  0  0  0
 10 11  1  0  0  0  0
 11 20  1  0  0  0  0
 11 12  2  0  0  0  0
 12 13  1  0  0  0  0
 12 35  1  0  0  0  0
 13 14  2  0  0  0  0
 13 36  1  0  0  0  0
 14 15  1  0  0  0  0
 14 37  1  0  0  0  0
 15 16  1  0  0  0  0
 15 20  2  0  0  0  0
 16 17  1  0  0  0  0
 16 18  1  0  0  0  0
 16 19  1  0  0  0  0
 20 38  1  0  0  0  0
 21 22  2  0  0  0  0
 21 23  1  0  0  0  0
 23 24  1  0  0  0  0
 24 39  1  0  0  0  0
 24 40  1  0  0  0  0
 24 41  1  0  0  0  0
M  END
> <s_m_source_file>
AV-unprocessed.smi

> <i_m_source_file_index>
2813

> <i_lp_mmshare_version>
43012

> <i_f3d_flags>
0

> <s_epik_input>
W0NIM11jMW5bY0hdbihjKD1PKWMxW0NIM10pW0NIMl1bQ0BIXShbT0hdKVtDSDJdT2MyW2NIXVtjSF1bY0hdYyhDKEYpKEYpRilbY0hdMg==

> <s_epik_cmdline>
J2VwaWtfcHl0aG9uJywgJy1waCcsICc3LjAnLCAnLXRuJywgJzgnLCAnLW1hJywgJzIwMCcsICctbWV0YWxfYmluZGluZycsICctaW1hZScsICc8aW5maWxlLm1hZT4nLCAnLW9tYWUnLCAnPG91dGZpbGUubWFlPic=

> <r_lp_tautomer_probability>
1

> <r_epik_Ionization_Penalty>
3.72236e-05

> <r_epik_Ionization_Penalty_Charging>
8.38864e-08

> <r_epik_Ionization_Penalty_Neutral>
3.71397e-05

> <r_epik_State_Penalty>
-0

> <r_epik_Charging_Adjusted_Penalty>
8.38864e-08

> <i_epik_Tot_Q>
0

> <i_epik_Tot_abs_Q>
0

> <r_epik_Metal_State_Penalty>
-0

> <b_epik_Metal_Only>
0

> <s_lp_Force_Field>
OPLS_2005

> <r_lp_Energy>
22.8491

> <b_lp_Chiralities_Consistent>
1

> <s_lp_Variant>
AV-unprocessed.smi:2813-1

> <Gold.Version>
5.8.1

> <Gold.Id.Protein>
6NUR|6NUR_protein|mol2

> <Gold.PLP.Fitness>
44.9184

> <Gold.PLP.PLP>
-42.5587

> <Gold.PLP.part.hbond>
-1.9998

> <Gold.PLP.part.metal>
0.0000

> <Gold.PLP.part.buried>
-6.7562

> <Gold.PLP.part.nonpolar>
-35.1890

> <Gold.PLP.part.repulsive>
0.0000

> <Gold.PLP.ligand.clash>
0.0000

> <Gold.PLP.ligand.torsion>
1.2152

> <Gold.PLP.Chemscore.Hbond>
1.5211

> <Gold.PLP.Chemscore.CHOScore>
0.0000

> <Gold.PLP.Chemscore.Metal>
0.0000

> <Gold.Chemscore.Hbonds>
donor molecule, donor type, donor heavy atom, donor atom, acceptor molecule, acceptor atom, score
      P1  H  6896  6907       L1    10  0.26
      P1  H  6896  6908       L1     8  0.76

> <Gold.PLP.Chemscore.Internal.Correction>
0.2268

> <Gold.Rescore>
     Score         DG    S(hbond)    S(metal)    S(lipo)     H(rot)  DE(clash)    DE(int)     intcor
     12.06     -13.40       1.53        0.00      83.81       2.73       0.07       1.27       ----

> <Gold.Chemscore.Fitness>
12.0605

> <Gold.Chemscore.DG>
-13.4020

> <Gold.Chemscore.ZeroCoef>
-5.4800

> <Gold.Chemscore.Hbond>
1.5284

> <Gold.Chemscore.Metal>
0.0000

> <Gold.Chemscore.Lipo>
83.8118

> <Gold.Chemscore.Internal_Hbond>
0.0000

> <Gold.Chemscore.DEClash>
0.0695

> <Gold.Chemscore.DEInternal>
1.2719

> <Gold.Chemscore.Rot>
2.7300

> <Gold.Chemscore.Internal.Correction>
   9.000000E+99

> <Gold.Chemscore.Hbonds>
donor molecule, donor type, donor heavy atom, donor atom, acceptor molecule, acceptor atom, score
      P1  H  6896  6907       L1    10  0.03
      P1  H  6896  6908       L1     8  0.57

> <Gold.Chemscore.Hbond.Weighted>
-5.1047

> <Gold.Chemscore.Metal.Weighted>
-0.0000

> <Gold.Chemscore.Lipo.Weighted>
-9.8060

> <Gold.Chemscore.Internal_Hbond.Weighted>
0.0000

> <Gold.Chemscore.DEClash.Weighted>
0.0695

> <Gold.Chemscore.DEInternal.Weighted>
1.2719

> <Gold.Chemscore.Rot.Weighted>
6.9888

> <Gold.Chemscore.Internal.Correction.Weighted>
   9.000000E+99

> <Gold.Protein.RotatedTorsions>
[ 6907 6896 6895 6894 ] final  -63.09 input  -60.11 | X-H torsion
[ 7974 7965 7964 7962 ] final   53.93 input  175.53 | X-H torsion
[ 8008 7997 7996 7995 ] final   39.55 input   59.86 | X-H torsion
[ 10167 10162 10161 10158 ] final  -15.81 input  -65.29 | X-H torsion
[ 10718 10713 10712 10709 ] final -162.20 input   66.30 | X-H torsion
[ 10763 10752 10751 10750 ] final   64.64 input  -60.55 | X-H torsion
[ 11005 11000 10999 10996 ] final -115.77 input  -57.11 | X-H torsion

> <Gold.Protein.ActiveResidues>
 VAL166  LYS551  ARG553  GLY616  TRP617  ASP618  TYR619  PRO620  LYS621  CYS622 
 ASP623  PHE694  ASN695  SER759  ASP760  ASP761  ALA762  ILE779  LEU786  VAL792 
 PHE793  MET794  SER795  GLU796  ALA797  LYS798  CYS799  TRP800  GLU811  SER814 

> <Gold.Protein.RotatedAtoms>
  150.7672  134.6482  159.6273 H   0  0  0  0  0  0  0  0  0  0  0  0  # atno 6907 bound_to 6896
  152.3709  134.6732  160.0185 H   0  0  0  0  0  0  0  0  0  0  0  0  # atno 6908 bound_to 6896
  151.7092  133.3276  159.3323 H   0  0  0  0  0  0  0  0  0  0  0  0  # atno 6909 bound_to 6896
  145.9661  139.4104  143.0218 H   0  0  0  0  0  0  0  0  0  0  0  0  # atno 7974 bound_to 7965
  155.2385  140.3343  155.4295 H   0  0  0  0  0  0  0  0  0  0  0  0  # atno 8008 bound_to 7997
  156.2266  140.1832  156.7394 H   0  0  0  0  0  0  0  0  0  0  0  0  # atno 8009 bound_to 7997
  154.5908  140.0638  156.9221 H   0  0  0  0  0  0  0  0  0  0  0  0  # atno 8010 bound_to 7997
  140.7224  143.5180  150.9668 H   0  0  0  0  0  0  0  0  0  0  0  0  # atno 10167 bound_to 10162
  156.6070  130.8835  151.2927 H   0  0  0  0  0  0  0  0  0  0  0  0  # atno 10718 bound_to 10713
  153.0064  135.5385  154.6542 H   0  0  0  0  0  0  0  0  0  0  0  0  # atno 10763 bound_to 10752
  154.5767  135.2846  155.0776 H   0  0  0  0  0  0  0  0  0  0  0  0  # atno 10764 bound_to 10752
  154.1921  135.6498  153.5115 H   0  0  0  0  0  0  0  0  0  0  0  0  # atno 10765 bound_to 10752
  141.0466  133.9753  157.2907 H   0  0  0  0  0  0  0  0  0  0  0  0  # atno 11005 bound_to 11000
  145.7972  140.9788  143.1018 LP  0  0  0  0  0  0  0  0  0  0  0  0  # atno 17320 bound_to 7965
  144.6826  139.9756  143.7483 LP  0  0  0  0  0  0  0  0  0  0  0  0  # atno 17321 bound_to 7965
  139.8896  143.6970  152.3147 LP  0  0  0  0  0  0  0  0  0  0  0  0  # atno 17342 bound_to 10162
  139.7281  144.7588  151.0846 LP  0  0  0  0  0  0  0  0  0  0  0  0  # atno 17343 bound_to 10162
  157.7264  130.9629  150.1656 LP  0  0  0  0  0  0  0  0  0  0  0  0  # atno 17370 bound_to 10713
  156.2421  130.3692  149.8325 LP  0  0  0  0  0  0  0  0  0  0  0  0  # atno 17371 bound_to 10713
  139.9317  135.0199  156.8421 LP  0  0  0  0  0  0  0  0  0  0  0  0  # atno 17394 bound_to 11000
  140.6135  134.0060  155.7587 LP  0  0  0  0  0  0  0  0  0  0  0  0  # atno 17395 bound_to 11000

$$$$
